Adsorption isotherm of Hydrogen, Ethene on coconut AC
DOI: 10.1016/j.seppur.2006.11.004
Article source: Figure 5b
Adsorbate Hydrogen: InChIKey UFHFLCQGNIYNRP-UHFFFAOYSA-N
Adsorbate Ethene: InChIKey VGGSQFUCUMXWEO-UHFFFAOYSA-N
Kind: experiment
Temperature: 303 K
Tabular data in the source: 0
pressure (bar)	Hydrogen fraction	Hydrogen uptake (mmol/g)	Ethene fraction	Ethene uptake (mmol/g)	total uptake (mmol/g)
10.1325	0.049504	0.058286	0.950496	5.32168	
10.1325	0.128735	0.056102	0.871265	5.27346	
10.1325	0.212384	0.025506	0.787616	5.21082	
10.1325	0.378495	0.03071	0.621505	4.95586	
10.1325	0.637368	0.028509	0.362632	4.31883	
10.1325	0.72896	0.009485	0.27104	4.08566	
