Adsorption isotherm of Hydrogen, Methane on coconut AC
DOI: 10.1016/j.seppur.2006.11.004
Article source: Figure 4b
Adsorbate Hydrogen: InChIKey UFHFLCQGNIYNRP-UHFFFAOYSA-N
Adsorbate Methane: InChIKey VNWKTOKETHGBQD-UHFFFAOYSA-N
Kind: experiment
Temperature: 303 K
Tabular data in the source: 0
pressure (bar)	Hydrogen fraction	Hydrogen uptake (mmol/g)	Methane fraction	Methane uptake (mmol/g)	total uptake (mmol/g)
5.06625	0.902339	0.068674	0.097661	0.442282	
5.06625	0.735825	0.035816	0.264175	0.99766	
5.06625	0.573706	0.037921	0.426294	1.36225	
5.06625	0.349507	0.032275	0.650493	1.87488	
5.06625	0.160013	0.026521	0.839987	2.16642	
