Adsorption isotherm of Hydrogen on coconut AC
DOI: 10.1016/j.seppur.2006.11.004
Article source: Figure 3
Adsorbate Hydrogen: InChIKey UFHFLCQGNIYNRP-UHFFFAOYSA-N
Kind: experiment
Temperature: 293 K
Tabular data in the source: 0
pressure (bar)	uptake (mmol/g)
1.11	0.0245
2.22	0.0555
3.44	0.0855
4.62	0.107
5.7	0.127
7.52	0.163
9.37	0.201
12.2	0.275
15.5	0.364
