Adsorption isotherm of Ethene, Methane on coconut AC
DOI: 10.1016/j.seppur.2006.11.004
Article source: Figure 6b
Adsorbate Ethene: InChIKey VGGSQFUCUMXWEO-UHFFFAOYSA-N
Adsorbate Methane: InChIKey VNWKTOKETHGBQD-UHFFFAOYSA-N
Kind: experiment
Temperature: 303 K
Tabular data in the source: 0
pressure (bar)	Ethene fraction	Ethene uptake (mmol/g)	Methane fraction	Methane uptake (mmol/g)	total uptake (mmol/g)
10.1325	0.863253	5.34319	0.136747	0.150033	
10.1325	0.754729	4.91395	0.245271	0.238701	
10.1325	0.486162	3.91226	0.513838	0.608788	
10.1325	0.268443	2.8102	0.731557	1.20046	
10.1325	0.238227	2.60838	0.761773	1.29539	
