Adsorption isotherm of Hydrogen, Methane on coconut AC
DOI: 10.1016/j.seppur.2006.11.004
Article source: Figure 4a
Adsorbate Hydrogen: InChIKey UFHFLCQGNIYNRP-UHFFFAOYSA-N
Adsorbate Methane: InChIKey VNWKTOKETHGBQD-UHFFFAOYSA-N
Kind: experiment
Temperature: 293 K
Tabular data in the source: 0
pressure (bar)	Hydrogen fraction	Hydrogen uptake (mmol/g)	Methane fraction	Methane uptake (mmol/g)	total uptake (mmol/g)
5.06625	0.923024	0.085714	0.076976	0.468571	
5.06625	0.783505	0.074286	0.216495	0.986667	
5.06625	0.633677	0.034286	0.366323	1.50476	
5.06625	0.404467	0.030476	0.595533	1.92571	
5.06625	0.277663	0.032381	0.722337	2.18857	
