Adsorption isotherm of Ethene on coconut AC
DOI: 10.1016/j.seppur.2006.11.004
Article source: Figure 2
Adsorbate Ethene: InChIKey VGGSQFUCUMXWEO-UHFFFAOYSA-N
Kind: experiment
Temperature: 303 K
Tabular data in the source: 0
pressure (bar)	uptake (mmol/g)
0.212	1.77
1.09	3.3
2.56	4.34
4.28	4.92
5.8	5.23
7.64	5.5
9.67	5.69
11.8	5.81
15	5.93
17.6	5.98
