Adsorption isotherm of Hydrogen, Methane on coconut AC
DOI: 10.1016/j.seppur.2006.11.004
Article source: Figure 4a
Adsorbate Hydrogen: InChIKey UFHFLCQGNIYNRP-UHFFFAOYSA-N
Adsorbate Methane: InChIKey VNWKTOKETHGBQD-UHFFFAOYSA-N
Kind: experiment
Temperature: 293 K
Tabular data in the source: 0
pressure (bar)	Hydrogen fraction	Hydrogen uptake (mmol/g)	Methane fraction	Methane uptake (mmol/g)	total uptake (mmol/g)
10.1325	0.903093	0.129524	0.096907	0.910476	
10.1325	0.812715	0.108571	0.187285	1.41143	
10.1325	0.570103	0.049524	0.429897	2.41905	
10.1325	0.285223	0.049524	0.714777	3.10667	
10.1325	0.089691	0.04381	0.910309	3.48571	
