Adsorption isotherm of Hydrogen, Methane on coconut AC
DOI: 10.1016/j.seppur.2006.11.004
Article source: Figure 4b
Adsorbate Hydrogen: InChIKey UFHFLCQGNIYNRP-UHFFFAOYSA-N
Adsorbate Methane: InChIKey VNWKTOKETHGBQD-UHFFFAOYSA-N
Kind: experiment
Temperature: 303 K
Tabular data in the source: 0
pressure (bar)	Hydrogen fraction	Hydrogen uptake (mmol/g)	Methane fraction	Methane uptake (mmol/g)	total uptake (mmol/g)
10.1325	0.923547	0.100404	0.076453	0.639353	
10.1325	0.680869	0.070967	0.319131	1.78003	
10.1325	0.588784	0.060131	0.411216	2.06649	
10.1325	0.223357	0.040625	0.776643	2.90072	
10.1325	0.106254	0.025103	0.893746	3.15229	
