Adsorption isotherm of Ethene, Methane on coconut AC
DOI: 10.1016/j.seppur.2006.11.004
Article source: Figure 6b
Adsorbate Ethene: InChIKey VGGSQFUCUMXWEO-UHFFFAOYSA-N
Adsorbate Methane: InChIKey VNWKTOKETHGBQD-UHFFFAOYSA-N
Kind: experiment
Temperature: 303 K
Tabular data in the source: 0
pressure (bar)	Ethene fraction	Ethene uptake (mmol/g)	Methane fraction	Methane uptake (mmol/g)	total uptake (mmol/g)
2.0265	0.856468	4.10013	0.143532	0.144362	
2.0265	0.718737	3.77423	0.281263	0.16841	
2.0265	0.473509	3.07788	0.526491	0.23633	
2.0265	0.244099	2.13531	0.755901	0.52557	
2.0265	0.104006	1.19348	0.895994	0.815535	
