Adsorption isotherm of Hydrogen on coconut AC
DOI: 10.1016/j.seppur.2006.11.004
Article source: Figure 3
Adsorbate Hydrogen: InChIKey UFHFLCQGNIYNRP-UHFFFAOYSA-N
Kind: experiment
Temperature: 313 K
Tabular data in the source: 0
pressure (bar)	uptake (mmol/g)
1.25	0.0211
2.25	0.0364
3.44	0.056
4.66	0.083
6.14	0.107
8.06	0.139
10.5	0.185
13	0.232
15.7	0.279
