Adsorption isotherm of Ethene, Methane on coconut AC
DOI: 10.1016/j.seppur.2006.11.004
Article source: Figure 6a
Adsorbate Ethene: InChIKey VGGSQFUCUMXWEO-UHFFFAOYSA-N
Adsorbate Methane: InChIKey VNWKTOKETHGBQD-UHFFFAOYSA-N
Kind: experiment
Temperature: 293 K
Tabular data in the source: 0
pressure (bar)	Ethene fraction	Ethene uptake (mmol/g)	Methane fraction	Methane uptake (mmol/g)	total uptake (mmol/g)
2.0265	0.753905	3.97457	0.246095	0.171534	
2.0265	0.578002	3.54381	0.421998	0.316882	
2.0265	0.529215	3.44025	0.470785	0.419797	
2.0265	0.292534	2.53953	0.707466	0.604711	
2.0265	0.219032	2.1594	0.780968	0.714119	
