Adsorption isotherm of Hydrogen, Ethene on coconut AC
DOI: 10.1016/j.seppur.2006.11.004
Article source: Figure 5b
Adsorbate Hydrogen: InChIKey UFHFLCQGNIYNRP-UHFFFAOYSA-N
Adsorbate Ethene: InChIKey VGGSQFUCUMXWEO-UHFFFAOYSA-N
Kind: experiment
Temperature: 303 K
Tabular data in the source: 0
pressure (bar)	Hydrogen fraction	Hydrogen uptake (mmol/g)	Ethene fraction	Ethene uptake (mmol/g)	total uptake (mmol/g)
2.0265	0.191479	0.118289	0.808521	3.6831	
2.0265	0.32136	0.113614	0.67864	3.42502	
2.0265	0.496934	0.109277	0.503066	2.94549	
2.0265	0.690715	0.047258	0.309285	2.39027	
2.0265	0.743621	0.023553	0.256379	2.12677	
