Adsorption isotherm of Ethene, Methane on coconut AC
DOI: 10.1016/j.seppur.2006.11.004
Article source: Figure 6c
Adsorbate Ethene: InChIKey VGGSQFUCUMXWEO-UHFFFAOYSA-N
Adsorbate Methane: InChIKey VNWKTOKETHGBQD-UHFFFAOYSA-N
Kind: experiment
Temperature: 313 K
Tabular data in the source: 0
pressure (bar)	Ethene fraction	Ethene uptake (mmol/g)	Methane fraction	Methane uptake (mmol/g)	total uptake (mmol/g)
10.1325	0.756041	4.86631	0.243959	0.097166	
10.1325	0.639275	4.51373	0.360725	0.172527	
10.1325	0.494369	3.97519	0.505631	0.340628	
10.1325	0.348466	3.27054	0.651534	0.657937	
10.1325	0.204294	2.50397	0.795706	1.01748	
