Adsorption isotherm of Ethene, Methane on coconut AC
DOI: 10.1016/j.seppur.2006.11.004
Article source: Figure 6c
Adsorbate Ethene: InChIKey VGGSQFUCUMXWEO-UHFFFAOYSA-N
Adsorbate Methane: InChIKey VNWKTOKETHGBQD-UHFFFAOYSA-N
Kind: experiment
Temperature: 313 K
Tabular data in the source: 0
pressure (bar)	Ethene fraction	Ethene uptake (mmol/g)	Methane fraction	Methane uptake (mmol/g)	total uptake (mmol/g)
2.0265	0.84021	3.30991	0.15979	0.061043	
2.0265	0.628232	3.07223	0.371768	0.22032	
2.0265	0.371342	2.32191	0.628658	0.370898	
2.0265	0.226102	1.73551	0.773898	0.485515	
2.0265	0.112134	1.14928	0.887866	0.620001	
