Adsorption isotherm of Methane on coconut AC
DOI: 10.1016/j.seppur.2006.11.004
Article source: Figure 2
Adsorbate Methane: InChIKey VNWKTOKETHGBQD-UHFFFAOYSA-N
Kind: experiment
Temperature: 293 K
Tabular data in the source: 0
pressure (bar)	uptake (mmol/g)
0.84	0.695
1.95	1.46
3.41	2.14
5.21	2.7
6.95	3.1
8.51	3.39
10.1	3.64
12.2	3.91
14.7	4.13
16.5	4.28
17.9	4.37
