Adsorption isotherm of Hydrogen on coconut AC
DOI: 10.1016/j.seppur.2006.11.004
Article source: Figure 3
Adsorbate Hydrogen: InChIKey UFHFLCQGNIYNRP-UHFFFAOYSA-N
Kind: experiment
Temperature: 303 K
Tabular data in the source: 0
pressure (bar)	uptake (mmol/g)
1.16	0.0226
2.23	0.0436
3.26	0.0639
4.58	0.0872
5.75	0.11
7.31	0.141
9.31	0.182
12	0.24
15.1	0.305
