Adsorption isotherm of Propene on Ni(40)X
DOI: 10.1021/acs.jced.6b00420
Article source: Figure 6B
Adsorbate Propene: InChIKey QQONPFPTGQHPMA-UHFFFAOYSA-N
Kind: experiment
Temperature: 293 K
Tabular data in the source: 0
pressure (bar)	uptake (molecules/unitcell)
0.004738	0.0853
0.010051	8.2034
0.012102	10.0274
0.012656	10.2604
0.013025	4.9979
0.013928	11.6978
0.014092	12.5947
0.015938	14.3048
0.018051	16.7978
0.018994	15.8911
0.019815	20.0737
0.021558	17.864
0.022173	18.7462
0.024143	19.8798
0.029517	20.4375
0.066992	22.9829
0.070807	23.1274
0.083935	23.3582
0.091668	23.4887
0.102888	23.6844
0.115031	23.8357
0.138969	23.9945
0.151276	24.1558
0.170926	24.2393
0.205079	24.4202
0.224114	24.4987
0.252277	24.6584
0.284501	24.7249
0.316541	24.717
0.373688	24.6799
0.410281	24.668
