Adsorption isotherm of N-propane on Ni(40)X
DOI: 10.1021/acs.jced.6b00420
Article source: Figure 6B
Adsorbate N-propane: InChIKey ATUOYWHBWRKTHZ-UHFFFAOYSA-N
Kind: experiment
Temperature: 323 K
Tabular data in the source: 0
pressure (bar)	uptake (molecules/unitcell)
0.003416	0.1047
0.007209	1.08
0.011616	5.1545
0.011667	5.1662
0.017389	6.8937
0.018773	7.5865
0.021455	8.0026
0.027177	9.7301
0.034933	11.0229
0.041441	11.8901
0.055721	12.972
0.075229	14.1244
0.097145	14.6593
0.117592	15.0306
0.138552	15.3279
0.172614	15.7324
0.20495	15.9881
0.231529	16.1038
0.274849	16.3229
0.33438	16.5362
0.414204	16.74
0.527099	16.9029
0.643394	17.0074
0.821542	17.0588
