Adsorption isotherm of Nitrogen on Cr-Ni(39)X
DOI: 10.1021/acs.jced.6b00420
Article source: Figure 5
Adsorbate Nitrogen: InChIKey IJGRMHOSHXDMSA-UHFFFAOYSA-N
Kind: experiment
Temperature: 77 K
Tabular data in the source: 0
pressure (bar)	uptake (cm3(STP)/g)
0.015614	129.124
0.027368	136.601
0.062659	140
0.119817	141.725
0.17051	142.039
0.223908	143.948
0.280032	145.098
0.344049	146.458
0.398613	148.575
0.451372	149.673
0.514214	151.268
0.566853	152.863
0.64237	154.222
0.708576	155.425
0.777761	156.105
0.858456	158.824
0.898925	160.575
0.936557	161.725
0.976763	166.641
