Adsorption isotherm of N-propane on CrNi(39)X
DOI: 10.1021/acs.jced.6b00420
Article source: Figure 6C
Adsorbate N-propane: InChIKey ATUOYWHBWRKTHZ-UHFFFAOYSA-N
Kind: experiment
Temperature: 293 K
Tabular data in the source: 0
pressure (bar)	uptake (molecules/unitcell)
0.002035	0.0724
0.003128	0.7068
0.004854	1.2868
0.006172	1.6493
0.007598	2.3746
0.007815	2.471
0.010842	3.344
0.012118	3.8425
0.013552	4.3772
0.014845	4.9511
0.017189	5.6791
0.020441	6.3014
0.023194	6.9418
0.026821	7.6425
0.031425	8.2134
0.035228	8.7268
0.039065	9.1073
0.044644	9.5482
0.047363	9.7596
0.051233	9.9921
0.056036	10.2034
0.058722	10.303
0.062058	10.4086
0.074543	10.8311
0.090773	11.2626
0.107753	11.5611
0.125959	11.8353
0.14449	12.0038
0.161154	12.1543
0.183422	12.2955
0.199343	12.3614
0.224388	12.3605
0.246639	12.4322
0.271267	12.5038
0.296103	12.5452
0.319422	12.5655
0.343108	12.6009
0.368228	12.6271
