Adsorption isotherm of Propene on Cr(39)X
DOI: 10.1021/acs.jced.6b00420
Article source: Figure 6A
Adsorbate Propene: InChIKey QQONPFPTGQHPMA-UHFFFAOYSA-N
Kind: experiment
Temperature: 293 K
Tabular data in the source: 0
pressure (bar)	uptake (molecules/unitcell)
0.002225	0.1941
0.002723	0.6157
0.004998	1.5088
0.005973	2.2005
0.006167	3.7495
0.00767	4.9117
0.008381	5.92
0.008462	3.3149
0.009407	7.1971
0.010779	7.5133
0.011236	8.7569
0.012587	9.6698
0.014436	10.381
0.015645	10.9326
0.016092	11.5319
0.017809	12.0274
0.018469	12.3326
0.020359	12.6179
0.021882	12.8109
0.022705	12.9928
0.024402	13.211
0.029583	13.7758
0.034256	14.125
0.039305	14.3398
0.046488	14.5961
0.050693	14.7073
0.05689	14.8966
0.068715	15.0792
0.076914	15.2176
0.083537	15.334
0.090385	15.4251
0.10223	15.5293
0.11375	15.6139
0.124956	15.6902
0.137411	15.7606
0.150313	15.8113
0.162127	15.8651
0.181044	15.9118
0.204694	15.9241
0.215472	15.9472
0.244649	15.9388
0.260964	15.944
