Adsorption isotherm of Propene on CrNi(39)X
DOI: 10.1021/acs.jced.6b00420
Article source: Figure 6C
Adsorbate Propene: InChIKey QQONPFPTGQHPMA-UHFFFAOYSA-N
Kind: experiment
Temperature: 293 K
Tabular data in the source: 0
pressure (bar)	uptake (molecules/unitcell)
0.003617	0.0905
0.004084	1.595
0.005933	4.1992
0.008493	11.6674
0.00892	10.2082
0.011388	12.5435
0.012414	12.7489
0.012922	12.9634
0.014466	13.1597
0.017382	13.5131
0.019221	13.8061
0.024605	14.2168
0.027836	14.4342
0.034825	14.6515
0.041032	14.89
0.0479	14.9986
0.056281	15.1554
0.066318	15.3273
0.075908	15.4449
0.083477	15.5262
0.093331	15.6468
0.10606	15.7249
0.115203	15.8062
0.127567	15.824
0.135999	15.86
0.146716	15.9382
0.167603	16.0403
0.185676	16.0791
0.205232	16.1147
0.23707	16.1893
0.262397	16.1644
0.283873	16.1789
0.300798	16.2056
0.335511	16.2075
