Adsorption isotherm of N-propane on Cr(39)X
DOI: 10.1021/acs.jced.6b00420
Article source: Figure 6A
Adsorbate N-propane: InChIKey ATUOYWHBWRKTHZ-UHFFFAOYSA-N
Kind: experiment
Temperature: 293 K
Tabular data in the source: 0
pressure (bar)	uptake (molecules/unitcell)
0.001309	0.0585
0.002344	0.4937
0.002369	0.4952
0.004003	1.1923
0.004303	1.3915
0.004695	1.7804
0.00628	2.1246
0.00658	2.448
0.006814	2.6651
0.008073	3.2586
0.009199	3.4432
0.010425	3.7258
0.012268	4.322
0.012919	4.5908
0.015354	5.2065
0.016605	5.66
0.019824	6.3035
0.024069	7.2184
0.031258	8.368
0.036237	8.9579
0.03979	9.394
0.04597	9.8379
0.053226	10.2452
0.056787	10.4376
0.062275	10.652
0.076995	11.1192
0.092566	11.5161
0.105501	11.7595
0.124733	12.0351
0.149628	12.2477
0.173297	12.4214
0.191728	12.5151
0.212904	12.597
0.239275	12.6776
0.256663	12.7352
0.27718	12.7668
0.299473	12.7783
0.329146	12.8078
0.351631	12.8165
0.378661	12.8073
