Adsorption isotherm of N-propane on Cr(39)X
DOI: 10.1021/acs.jced.6b00420
Article source: Figure 6A
Adsorbate N-propane: InChIKey ATUOYWHBWRKTHZ-UHFFFAOYSA-N
Kind: experiment
Temperature: 323 K
Tabular data in the source: 0
pressure (bar)	uptake (molecules/unitcell)
0.002323	0.081
0.003399	0.6131
0.00468	0.9602
0.006269	1.3438
0.007738	2.1224
0.008558	1.5312
0.01288	2.8921
0.017543	3.463
0.02072	4.4934
0.026426	5.1762
0.030833	6.0049
0.036521	6.7997
0.042756	6.9783
0.051144	7.8597
0.069968	8.7875
0.091645	9.4433
0.109359	9.8166
0.13119	10.1138
0.152679	10.3354
0.172409	10.5124
0.193419	10.6613
0.215831	10.7595
0.279	10.9428
0.34451	11.1117
0.470609	11.3802
0.696057	11.542
0.943234	11.55
