Adsorption isotherm of N-propane on CrNi(39)X
DOI: 10.1021/acs.jced.6b00420
Article source: Figure 6C
Adsorbate N-propane: InChIKey ATUOYWHBWRKTHZ-UHFFFAOYSA-N
Kind: experiment
Temperature: 323 K
Tabular data in the source: 0
pressure (bar)	uptake (molecules/unitcell)
0.004903	0.0634
0.007465	0.7582
0.008165	1.2718
0.01054	1.5587
0.011804	2.033
0.014827	3.317
0.018517	3.8879
0.021899	4.1779
0.026614	4.7367
0.041099	5.9509
0.057652	6.6123
0.072786	7.1075
0.090945	7.4274
0.110982	7.714
0.133667	7.9644
0.158965	8.1603
0.177021	8.2929
0.203771	8.4405
0.222971	8.5278
0.259458	8.6752
0.321005	8.8523
0.385336	9.0022
0.42032	9.0832
0.525152	9.1871
0.602738	9.2945
0.641651	9.3059
0.730102	9.3406
0.827247	9.3691
0.932933	9.3853
