Adsorption isotherm of N-propane on Cr(39)X
DOI: 10.1021/acs.jced.6b00420
Article source: Figure 6A
Adsorbate N-propane: InChIKey ATUOYWHBWRKTHZ-UHFFFAOYSA-N
Kind: experiment
Temperature: 323 K
Tabular data in the source: 0
pressure (bar)	uptake (molecules/unitcell)
0.003856	0.4859
0.004225	0.6102
0.009271	1.4809
0.01202	2.0381
0.026973	11.1459
0.02925	11.591
0.032778	11.8904
0.035076	12.3244
0.039896	12.6544
0.045988	12.9928
0.051526	13.25
0.064531	13.5765
0.077556	13.7881
0.088407	14.014
0.110067	14.334
0.124344	14.5259
0.140774	14.7008
0.165142	14.9086
0.190762	15.1106
0.213448	15.2401
0.230781	15.3589
0.264133	15.4453
0.322161	15.6107
0.414076	15.7867
0.462669	15.8521
0.535548	15.9236
0.587607	15.983
0.649225	15.994
0.702167	16.0001
0.739355	16.005
0.766082	16.0892
0.836643	16.2029
