Adsorption isotherm of N-propane on Ni(40)X
DOI: 10.1021/acs.jced.6b00420
Article source: Figure 6B
Adsorbate N-propane: InChIKey ATUOYWHBWRKTHZ-UHFFFAOYSA-N
Kind: experiment
Temperature: 293 K
Tabular data in the source: 0
pressure (bar)	uptake (molecules/unitcell)
0.002052	0.1742
0.004112	1.3474
0.004846	1.8621
0.006122	2.8025
0.007056	3.441
0.008765	4.2134
0.009691	4.7727
0.011885	6.04
0.015321	7.9706
0.018031	9.337
0.023118	10.9767
0.027347	12.1808
0.032634	13.0886
0.038372	13.9522
0.044035	14.5586
0.04994	15.0613
0.055711	15.3561
0.061666	15.6214
0.068838	15.9665
0.08375	16.4839
0.099488	16.9126
0.114066	17.2073
0.127427	17.432
0.149478	17.6911
0.173497	17.877
0.197841	18.0828
0.221285	18.1745
0.245363	18.2961
0.26638	18.3321
0.291925	18.3754
0.317979	18.4338
0.340973	18.4708
0.366193	18.4447
