Adsorption isotherm of Propene on Ni(40)X
DOI: 10.1021/acs.jced.6b00420
Article source: Figure 6B
Adsorbate Propene: InChIKey QQONPFPTGQHPMA-UHFFFAOYSA-N
Kind: experiment
Temperature: 323 K
Tabular data in the source: 0
pressure (bar)	uptake (molecules/unitcell)
0.005066	0.0903
0.009825	1.6226
0.014851	4.8199
0.014994	5.5914
0.018645	19.3995
0.021189	20.6899
0.021435	20.6637
0.025743	21.3039
0.02806	21.6761
0.031588	21.8552
0.040819	22.2289
0.061782	22.4366
0.077269	22.7225
0.090232	22.9334
0.104078	23.0504
0.119052	23.1676
0.132446	23.2994
0.151461	23.358
0.166722	23.4109
0.186228	23.4845
0.205551	23.5036
0.221714	23.5071
0.249631	23.3694
0.340786	23.5577
0.43348	23.6522
0.536225	23.6944
