Adsorption isotherm of Nitrogen on Ni(40)X
DOI: 10.1021/acs.jced.6b00420
Article source: Figure 5
Adsorbate Nitrogen: InChIKey IJGRMHOSHXDMSA-UHFFFAOYSA-N
Kind: experiment
Temperature: 77 K
Tabular data in the source: 0
pressure (bar)	uptake (cm3(STP)/g)
0.010041	174.928
0.052041	182.667
0.135188	185.255
0.209165	186.301
0.300074	187.477
0.366411	188.523
0.43663	188.68
0.505946	188.993
0.5697	189.49
0.626472	189.882
0.693337	190.719
0.771448	190.98
0.810114	191.843
0.869206	192.941
0.932828	194.98
0.983896	197.856
