Adsorption isotherm of Propene on CrNi(39)X
DOI: 10.1021/acs.jced.6b00420
Article source: Figure 6C
Adsorbate Propene: InChIKey QQONPFPTGQHPMA-UHFFFAOYSA-N
Kind: experiment
Temperature: 323 K
Tabular data in the source: 0
pressure (bar)	uptake (molecules/unitcell)
0.006277	0.1328
0.010687	1.8095
0.012328	4.175
0.012492	7.311
0.013805	4.8487
0.01483	8.5194
0.016204	8.7279
0.017681	9.6916
0.017989	3.5697
0.018379	3.3373
0.018892	3.3532
0.02884	11.4225
0.02923	11.0246
0.031219	11.8183
0.036019	12.1384
0.040634	12.4496
0.045003	12.661
0.057167	13.1502
0.069966	13.5398
0.07934	13.7904
0.093289	14.0439
0.108816	14.2552
0.119523	14.394
0.129492	14.4664
0.142128	14.6052
0.158496	14.7348
0.176424	14.8282
0.19472	14.9337
0.210699	14.9999
0.235909	15.1204
0.258185	15.111
0.281445	15.2315
0.307147	15.2704
0.341853	15.3031
0.368601	15.339
0.39783	15.3808
0.416578	15.3836
0.439572	15.3681
0.457459	15.3709
0.479591	15.3766
