Adsorption isotherm of Nitrogen on Cr(39)X
DOI: 10.1021/acs.jced.6b00420
Article source: Figure 5
Adsorbate Nitrogen: InChIKey IJGRMHOSHXDMSA-UHFFFAOYSA-N
Kind: experiment
Temperature: 77 K
Tabular data in the source: 0
pressure (bar)	uptake (cm3(STP)/g)
0.016901	132.471
0.038352	136.784
0.077787	139.686
0.10856	141.255
0.161188	143.033
0.207351	144.471
0.268906	146.431
0.31352	147.529
0.373778	149.176
0.429122	151.19
0.485235	154.641
0.534631	157.229
0.599935	159.346
0.660061	161.176
0.718769	163.059
0.776301	167.425
0.831382	171.503
0.876623	177.386
0.937388	184.261
0.952374	189.49
