Adsorption isotherm of Methane on Activated Carbon ACP 800
DOI: 10.1016/j.matlet.2013.03.044
Adsorbate Methane: InChIKey VNWKTOKETHGBQD-UHFFFAOYSA-N
Temperature: 298 K
Tabular data in the source: 0
pressure (bar)	uptake (mmol/g)
0.390055	0.277778
1.62341	1.2963
3.38704	1.90741
5.15383	2.27778
6.72499	2.55556
8.16565	2.77778
11.9009	3.14815
15.5711	3.48148
19.3737	3.72222
23.0451	3.96296
