Adsorption isotherm of Nitrogen on Activated Carbon ACP 1000
DOI: 10.1016/j.matlet.2013.03.044
Adsorbate Nitrogen: InChIKey IJGRMHOSHXDMSA-UHFFFAOYSA-N
Temperature: 77 K
Tabular data in the source: 0
pressure (bar)	uptake (cm3(STP)/g)
0.0202422	73.4792
0.0263163	67.4923
0.0416724	60.175
0.0539841	55.5186
0.0725035	50.8621
0.0910378	46.8709
0.11581	44.21
0.140596	42.2144
0.168516	41.5492
0.199541	40.884
0.230565	40.2188
0.255396	40.2188
0.28642	39.5536
0.311236	38.8884
0.339157	38.2232
0.37021	38.8884
0.401234	38.2232
0.42917	38.2232
0.453986	37.558
0.485025	37.558
0.51296	37.558
0.543999	37.558
0.575023	36.8928
0.602973	37.558
0.634012	37.558
0.665051	37.558
0.69609	37.558
0.72401	36.8928
0.75193	36.2275
0.782984	36.8928
0.814008	36.2275
0.841943	36.2275
0.863656	35.5623
0.888472	34.8971
0.919511	34.8971
0.947402	32.9015
0.959788	31.5711
