Adsorption isotherm of Nitrogen on Activated Carbon ACP 470
DOI: 10.1016/j.matlet.2013.03.044
Adsorbate Nitrogen: InChIKey IJGRMHOSHXDMSA-UHFFFAOYSA-N
Temperature: 77 K
Tabular data in the source: 0
pressure (bar)	uptake (cm3(STP)/g)
0.0113018	90.1094
0.0360587	86.7834
0.057682	82.1269
0.0855874	80.7965
0.110359	78.1357
0.141368	76.8052
0.16617	75.4748
0.197194	74.8096
0.225114	74.1444
0.249931	73.4792
0.28097	73.4792
0.30889	72.814
0.339914	72.1488
0.367834	71.4836
0.395754	70.8184
0.426793	70.8184
0.454728	70.8184
0.485753	70.1532
0.513673	69.4879
0.544712	69.4879
0.572647	69.4879
0.600582	69.4879
0.628487	68.1575
0.659526	68.1575
0.687461	68.1575
0.7185	68.1575
0.746421	67.4923
0.774341	66.8271
0.802276	66.8271
0.8333	66.1619
0.858116	65.4967
0.889155	65.4967
0.920165	64.1663
0.944966	62.8359
0.96353	60.175
