Adsorption isotherm of Methane on Activated Carbon ACP 350
DOI: 10.1016/j.matlet.2013.03.044
Adsorbate Methane: InChIKey VNWKTOKETHGBQD-UHFFFAOYSA-N
Temperature: 298 K
Tabular data in the source: 0
pressure (bar)	uptake (mmol/g)
0.26028	0.166667
1.56071	1.07407
3.38874	1.77778
5.28531	2.25926
7.11772	2.62963
8.49227	2.88889
12.2266	3.33333
16.0282	3.64815
19.896	3.92593
23.6337	4.11111
