Adsorption isotherm of Nitrogen on Activated Carbon ACP 350
DOI: 10.1016/j.matlet.2013.03.044
Adsorbate Nitrogen: InChIKey IJGRMHOSHXDMSA-UHFFFAOYSA-N
Temperature: 77 K
Tabular data in the source: 0
pressure (bar)	uptake (cm3(STP)/g)
0.0233758	74.8096
0.0449991	70.1532
0.0728748	67.4923
0.0976465	64.8315
0.125537	62.8359
0.147264	62.8359
0.172066	61.5055
0.19066	60.175
0.221669	58.8446
0.243396	58.8446
0.265109	58.1794
0.289925	57.5142
0.336454	56.1838
0.389205	55.5186
0.435749	54.8534
0.479188	54.1882
0.510227	54.1882
0.541251	53.523
0.547459	53.523
0.578498	53.523
0.625042	52.8577
0.656066	52.1925
0.693313	52.1925
0.724337	51.5273
0.789474	49.5317
0.820528	50.1969
0.836033	49.5317
0.867042	48.2013
0.894962	47.5361
0.925971	46.2057
0.94761	42.2144
0.969277	39.5536
