Adsorption isotherm of Methane on Activated Carbon ACP 1000
DOI: 10.1016/j.matlet.2013.03.044
Adsorbate Methane: InChIKey VNWKTOKETHGBQD-UHFFFAOYSA-N
Temperature: 298 K
Tabular data in the source: 0
pressure (bar)	uptake (mmol/g)
0.648634	0.574074
1.68587	1.53704
3.4478	2.27778
5.34437	2.75926
7.24215	3.14815
8.6828	3.37037
12.352	3.77778
16.0219	4.12963
19.7584	4.40741
23.4952	4.66667
