Adsorption isotherm of Methane on Activated Carbon ACP 600
DOI: 10.1016/j.matlet.2013.03.044
Adsorbate Methane: InChIKey VNWKTOKETHGBQD-UHFFFAOYSA-N
Temperature: 298 K
Tabular data in the source: 0
pressure (bar)	uptake (mmol/g)
1.62219	1.38889
3.5156	2.11111
5.34704	2.55556
7.24555	2.88889
8.62083	3.09259
12.4878	3.42593
16.2241	3.72222
19.896	3.92593
23.5681	4.11111
