Adsorption isotherm of Nitrogen on Activated Carbon ACP 410
DOI: 10.1016/j.matlet.2013.03.044
Adsorbate Nitrogen: InChIKey IJGRMHOSHXDMSA-UHFFFAOYSA-N
Temperature: 77 K
Tabular data in the source: 0
pressure (bar)	uptake (cm3(STP)/g)
0.0163066	36.2275
0.0286034	30.9059
0.0502267	26.2494
0.0749688	22.2582
0.0997554	20.2626
0.124542	18.2669
0.152447	16.9365
0.180353	15.6061
0.211362	14.2757
0.239282	13.6105
0.270306	12.9453
0.301331	12.2801
0.332355	11.6148
0.360275	10.9496
0.388195	10.2844
0.419234	10.2844
0.447169	10.2844
0.475089	9.61922
0.50301	8.95402
0.534034	8.28881
0.565073	8.28881
0.596112	8.28881
0.624032	7.6236
0.651967	7.6236
0.682991	6.95839
0.710926	6.95839
0.74195	6.29318
0.772975	5.62798
0.800895	4.96277
0.831919	4.29756
0.862943	3.63235
0.893967	2.96714
0.921872	1.63673
0.949778	0.306312
0.974564	-1.68931
