Adsorption isotherm of Methane on Activated Carbon ACP 470
DOI: 10.1016/j.matlet.2013.03.044
Adsorbate Methane: InChIKey VNWKTOKETHGBQD-UHFFFAOYSA-N
Temperature: 298 K
Tabular data in the source: 0
pressure (bar)	uptake (mmol/g)
1.69218	1.05556
3.45606	1.64815
5.35312	2.09259
7.18625	2.40741
8.56178	2.59259
12.3627	2.96296
16.1651	3.22222
19.8367	3.44444
23.7059	3.61111
