Adsorption isotherm of Nitrogen on Activated Carbon ACP 600
DOI: 10.1016/j.matlet.2013.03.044
Adsorbate Nitrogen: InChIKey IJGRMHOSHXDMSA-UHFFFAOYSA-N
Temperature: 77 K
Tabular data in the source: 0
pressure (bar)	uptake (cm3(STP)/g)
0.0120443	123.37
0.0337122	120.709
0.0615582	116.718
0.0894487	114.722
0.117354	113.392
0.148378	112.726
0.176298	112.061
0.204219	111.396
0.232139	110.731
0.263178	110.731
0.294202	110.066
0.325256	110.731
0.35628	110.066
0.387304	109.4
0.415239	109.4
0.446278	109.4
0.471109	109.4
0.502148	109.4
0.533172	108.735
0.564211	108.735
0.592132	108.07
0.620067	108.07
0.651106	108.07
0.682145	108.07
0.713184	108.07
0.741104	107.405
0.769039	107.405
0.800078	107.405
0.831117	107.405
0.862141	106.74
0.890046	105.409
0.917967	104.744
0.939649	102.748
0.961288	98.7571
