Adsorption isotherm of Nitrogen on Activated Carbon ACP 800
DOI: 10.1016/j.matlet.2013.03.044
Adsorbate Nitrogen: InChIKey IJGRMHOSHXDMSA-UHFFFAOYSA-N
Temperature: 77 K
Tabular data in the source: 0
pressure (bar)	uptake (cm3(STP)/g)
0.0217867	142.661
0.0434249	138.67
0.0620037	136.674
0.0898942	134.678
0.120904	133.348
0.148839	133.348
0.179863	132.683
0.210887	132.018
0.238822	132.018
0.263638	131.352
0.294677	131.352
0.307093	131.352
0.335028	131.352
0.353636	130.687
0.384675	130.687
0.403314	131.352
0.431234	130.687
0.49952	130.687
0.530544	130.022
0.549167	130.022
0.577117	130.687
0.605037	130.022
0.636091	130.687
0.69505	130.022
0.722985	130.022
0.741594	129.357
0.772618	128.691
0.791227	128.026
0.822236	126.696
0.840859	126.696
0.868779	126.031
0.8967	125.365
0.927724	124.7
0.949407	122.705
