Adsorption isotherm of Nitrogen on Activated Carbon ACP 500
DOI: 10.1016/j.matlet.2013.03.044
Adsorbate Nitrogen: InChIKey IJGRMHOSHXDMSA-UHFFFAOYSA-N
Temperature: 77 K
Tabular data in the source: 0
pressure (bar)	uptake (cm3(STP)/g)
0.0145542	96.7615
0.0362517	95.4311
0.0610087	92.105
0.0857953	90.1094
0.110597	88.779
0.135383	86.7834
0.160185	85.4529
0.181927	86.1181
0.209847	85.4529
0.234664	84.7877
0.262584	84.1225
0.28743	84.7877
0.315365	84.7877
0.3433	84.7877
0.37122	84.1225
0.396037	83.4573
0.427061	82.7921
0.448773	82.1269
0.476708	82.1269
0.504658	82.7921
0.529474	82.1269
0.55741	82.1269
0.585345	82.1269
0.61328	82.1269
0.6412	81.4617
0.672239	81.4617
0.700174	81.4617
0.725005	81.4617
0.752925	80.7965
0.76843	80.1313
0.79635	79.4661
0.821167	78.8009
0.852176	77.4704
0.867666	76.14
0.895586	75.4748
0.917283	74.1444
0.94207	72.1488
0.960649	70.1532
