Adsorption isotherm of Methane on Activated Carbon ACP 410
DOI: 10.1016/j.matlet.2013.03.044
Adsorbate Methane: InChIKey VNWKTOKETHGBQD-UHFFFAOYSA-N
Temperature: 298 K
Tabular data in the source: 0
pressure (bar)	uptake (mmol/g)
1.68878	1.31481
3.58171	2.07407
5.28069	2.61111
7.30898	3.05556
8.61767	3.33333
12.3515	3.81481
16.1524	4.18519
19.8889	4.46296
23.7569	4.72222
