Adsorption isotherm of Methane on Activated Carbon ACP 500
DOI: 10.1016/j.matlet.2013.03.044
Adsorbate Methane: InChIKey VNWKTOKETHGBQD-UHFFFAOYSA-N
Temperature: 298 K
Tabular data in the source: 0
pressure (bar)	uptake (mmol/g)
0.390541	0.240741
1.62705	1.01852
3.19505	1.53704
5.02746	1.90741
6.79523	2.2037
8.56421	2.40741
12.3661	2.7037
16.169	2.92593
20.0382	3.09259
23.7764	3.24074
