Adsorption isotherm of Nitrogen on Sod-ZMOF
DOI: 10.1016/j.cej.2011.01.096
Adsorbate Nitrogen: InChIKey IJGRMHOSHXDMSA-UHFFFAOYSA-N
Temperature: 77 K
Tabular data in the source: 0
pressure (bar)	uptake (cm3(STP)/g)
0.00385576	23.9852
0.00478379	49.8155
0.00591069	81.1808
0.0305257	99.631
0.144497	105.166
0.243333	106.089
0.36612	107.011
0.51286	107.934
0.710498	108.856
0.986013	110.701
