Adsorption isotherm of Carbon Dioxide on Sod-ZMOF
DOI: 10.1016/j.cej.2011.01.096
Adsorbate Carbon Dioxide: InChIKey CURLTUGMZLYLDI-UHFFFAOYSA-N
Temperature: 298 K
Tabular data in the source: 0
pressure (bar)	uptake (mg/g)
0.0229885	4.8223
0.0862069	13.7733
0.166667	22.4904
0.270115	30.0528
0.393678	37.3808
0.520115	42.6391
0.66954	47.8921
0.807471	51.5385
1.00287	56.0913
