Adsorption isotherm of Carbon Dioxide on Sod-ZMOF
DOI: 10.1016/j.cej.2011.01.096
Adsorbate Carbon Dioxide: InChIKey CURLTUGMZLYLDI-UHFFFAOYSA-N
Temperature: 298 K
Tabular data in the source: 0
pressure (bar)	uptake (mg/g)
0.0229885	4.13265
0.114943	14.9161
0.229885	24.5449
0.33908	31.1864
0.431034	35.3032
0.548851	40.1037
0.666667	43.9847
0.804598	47.861
1.00575	52.4125
