Adsorption isotherm of Nitrogen on Sod-ZMOF
DOI: 10.1016/j.cej.2011.01.096
Adsorbate Nitrogen: InChIKey IJGRMHOSHXDMSA-UHFFFAOYSA-N
Temperature: 298 K
Tabular data in the source: 0
pressure (bar)	uptake (mg/g)
0.0247125	0.513941
0.127619	1.14012
0.337528	1.9199
0.535109	3.16044
0.642112	3.31404
0.744998	3.46172
0.938445	4.21786
1.03722	4.35964
