Adsorption isotherm of Carbon Dioxide on Sod-ZMOF
DOI: 10.1016/j.cej.2011.01.096
Adsorbate Carbon Dioxide: InChIKey CURLTUGMZLYLDI-UHFFFAOYSA-N
Temperature: 298 K
Tabular data in the source: 0
pressure (bar)	uptake (mg/g)
0.0229885	4.8223
0.0890805	13.5427
0.186782	22.7157
0.307471	30.9638
0.425287	36.9137
0.545977	41.9435
0.663793	45.5945
0.801724	49.4709
1	53.7931
