Adsorption isotherm of Carbon Dioxide on ZIF-8
DOI: 10.1016/j.cej.2011.01.096
Adsorbate Carbon Dioxide: InChIKey CURLTUGMZLYLDI-UHFFFAOYSA-N
Temperature: 273 K
Tabular data in the source: 0
pressure (bar)	uptake (mg/g)
0.0209106	1.97277
0.112532	6.01456
0.279176	14.066
0.420758	20.1367
0.570841	28.6393
0.754205	38.1724
0.904248	46.1918
1.00429	51.6991
