Adsorption isotherm of Carbon Dioxide on Sod-ZMOF
DOI: 10.1016/j.cej.2011.01.096
Adsorbate Carbon Dioxide: InChIKey CURLTUGMZLYLDI-UHFFFAOYSA-N
Temperature: 298 K
Tabular data in the source: 0
pressure (bar)	uptake (mg/g)
0.0201149	4.82296
0.0632184	13.0889
0.146552	23.8744
0.255747	32.8148
0.37069	40.6044
0.522989	47.466
0.66954	52.4898
0.804598	56.1369
1	60.6897
