Adsorption isotherm of Carbon Dioxide on Sod-ZMOF
DOI: 10.1016/j.cej.2011.01.096
Adsorbate Carbon Dioxide: InChIKey CURLTUGMZLYLDI-UHFFFAOYSA-N
Temperature: 298 K
Tabular data in the source: 0
pressure (bar)	uptake (mg/g)
0.0248897	4.82042
0.111748	15.4714
0.22324	24.7224
0.371771	34.0265
0.540781	40.9676
0.718002	47.4421
0.858066	50.9924
1.00223	54.0702
