Adsorption isotherm of Carbon Dioxide on Rho-ZMOF
DOI: 10.1016/j.cej.2011.01.096
Adsorbate Carbon Dioxide: InChIKey CURLTUGMZLYLDI-UHFFFAOYSA-N
Temperature: 298 K
Tabular data in the source: 0
pressure (bar)	uptake (mg/g)
0.0204891	1.98186
0.159712	12.9462
0.315224	22.9836
0.507533	34.5593
0.662946	42.181
0.822362	47.8801
0.969533	53.5496
