Adsorption isotherm of Nitrogen on Rho-ZMOF
DOI: 10.1016/j.cej.2011.01.096
Adsorbate Nitrogen: InChIKey IJGRMHOSHXDMSA-UHFFFAOYSA-N
Temperature: 298 K
Tabular data in the source: 0
pressure (bar)	uptake (mg/g)
0.0163676	1.00572
0.175528	0.423979
0.367403	1.37054
0.52254	2.22836
0.669513	3.06646
0.816486	3.90456
0.975705	4.77223
