Adsorption isotherm of Carbon Dioxide on Rho-ZMOF
DOI: 10.1016/j.cej.2011.01.096
Adsorbate Carbon Dioxide: InChIKey CURLTUGMZLYLDI-UHFFFAOYSA-N
Temperature: 273 K
Tabular data in the source: 0
pressure (bar)	uptake (mg/g)
0.0123644	2.92842
0.0946164	18.1029
0.205423	32.8633
0.410353	53.6482
0.619148	69.1284
0.762374	78.17
0.971012	89.7851
