Adsorption isotherm of Carbon Dioxide on Sod-ZMOF
DOI: 10.1016/j.cej.2011.01.096
Adsorbate Carbon Dioxide: InChIKey CURLTUGMZLYLDI-UHFFFAOYSA-N
Temperature: 273 K
Tabular data in the source: 0
pressure (bar)	uptake (mg/g)
0.0167179	6.24409
0.079021	20.2091
0.174267	34.6999
0.347688	48.8244
0.520873	57.207
0.698094	63.6815
0.854639	67.7339
1.00703	70.8235
