Adsorption isotherm of Nitrogen on ZIF-8
DOI: 10.1016/j.cej.2011.01.096
Adsorbate Nitrogen: InChIKey IJGRMHOSHXDMSA-UHFFFAOYSA-N
Temperature: 298 K
Tabular data in the source: 0
pressure (bar)	uptake (mg/g)
0.0209042	1.89573
0.166211	2.8436
0.31551	1.89573
0.419244	1.89573
0.576999	2.8436
0.726377	2.8436
0.821813	2.8436
0.97534	2.8436
