Adsorption isotherm of Nitrogen on Rho-ZMOF
DOI: 10.1016/j.cej.2011.01.096
Adsorbate Nitrogen: InChIKey IJGRMHOSHXDMSA-UHFFFAOYSA-N
Temperature: 77 K
Tabular data in the source: 0
pressure (bar)	uptake (cm3(STP)/g)
0.00372318	20.2952
0.00461807	45.203
0.00561239	72.8782
0.00693815	109.779
0.0111254	142.989
0.0273549	178.044
0.0368009	190.959
0.0910909	202.03
0.327982	212.177
0.717436	218.635
0.998873	218.635
