Adsorption isotherm of Carbon Dioxide on ZIF-8
DOI: 10.1016/j.cej.2011.01.096
Adsorbate Carbon Dioxide: InChIKey CURLTUGMZLYLDI-UHFFFAOYSA-N
Temperature: 298 K
Tabular data in the source: 0
pressure (bar)	uptake (mg/g)
0.0209042	1.89573
0.170714	7.109
0.29551	10.9005
0.424456	14.6919
0.599123	19.4313
0.748854	23.6967
0.894476	28.436
0.998446	31.2796
