Adsorption isotherm of Carbon Dioxide, Methane on Lu'an Coal
DOI: 10.1016/j.ijmst.2014.05.012
Article source: Figure 3
Adsorbate Carbon Dioxide: InChIKey CURLTUGMZLYLDI-UHFFFAOYSA-N
Adsorbate Methane: InChIKey VNWKTOKETHGBQD-UHFFFAOYSA-N
Kind: experiment
Temperature: 301 K
Tabular data in the source: 0
pressure (bar)	Carbon Dioxide fraction	Carbon Dioxide uptake (cm3(STP)/g)	Methane fraction	Methane uptake (cm3(STP)/g)	total uptake (cm3(STP)/g)
5.55	0.6388	8	0.3612	4.31	
18.5	0.6388	12.4	0.3612	6.16	
31.7	0.6388	13.7	0.3612	6.28	
44.7	0.6388	14.8	0.3612	5.79	
55.2	0.6388	15.3	0.3612	5.79	
64.4	0.6388	15.8	0.3612	5.54	
