Adsorption isotherm of Carbon Dioxide, Methane on Qin-15 Coal
DOI: 10.1016/j.ijmst.2014.05.012
Article source: Figure 3
Adsorbate Carbon Dioxide: InChIKey CURLTUGMZLYLDI-UHFFFAOYSA-N
Adsorbate Methane: InChIKey VNWKTOKETHGBQD-UHFFFAOYSA-N
Kind: experiment
Temperature: 301 K
Tabular data in the source: 0
pressure (bar)	Carbon Dioxide fraction	Carbon Dioxide uptake (cm3(STP)/g)	Methane fraction	Methane uptake (cm3(STP)/g)	total uptake (cm3(STP)/g)
2.44	0.6388	5.14	0.3612	2.1	
7.03	0.6388	14	0.3612	4.91	
15	0.6388	20.8	0.3612	7.01	
26.6	0.6388	26.4	0.3612	8.18	
37.9	0.6388	30.6	0.3612	8.18	
50.4	0.6388	34.3	0.3612	7.48	
