Adsorption isotherm of Carbon Dioxide, Methane on Jincheng Coal
DOI: 10.1016/j.ijmst.2014.05.012
Article source: Figure 3
Adsorbate Carbon Dioxide: InChIKey CURLTUGMZLYLDI-UHFFFAOYSA-N
Adsorbate Methane: InChIKey VNWKTOKETHGBQD-UHFFFAOYSA-N
Kind: experiment
Temperature: 301 K
Tabular data in the source: 0
pressure (bar)	Carbon Dioxide fraction	Carbon Dioxide uptake (cm3(STP)/g)	Methane fraction	Methane uptake (cm3(STP)/g)	total uptake (cm3(STP)/g)
2.45	0.6388	8.13	0.3612	2.48	
10.6	0.6388	16	0.3612	4.97	
20.4	0.6388	20.5	0.3612	4.74	
30.7	0.6388	22.4	0.3612	4.52	
39.3	0.6388	23.9	0.3612	3.84	
48.7	0.6388	25.1	0.3612	3.61	
