Adsorption isotherm of Carbon Dioxide, Methane on Qin-3 Coal
DOI: 10.1016/j.ijmst.2014.05.012
Article source: Figure 3
Adsorbate Carbon Dioxide: InChIKey CURLTUGMZLYLDI-UHFFFAOYSA-N
Adsorbate Methane: InChIKey VNWKTOKETHGBQD-UHFFFAOYSA-N
Kind: experiment
Temperature: 301 K
Tabular data in the source: 0
pressure (bar)	Carbon Dioxide fraction	Carbon Dioxide uptake (cm3(STP)/g)	Methane fraction	Methane uptake (cm3(STP)/g)	total uptake (cm3(STP)/g)
4.28	0.2389	3.15	0.7611	8.7	
17.7	0.2389	5.19	0.7611	15.9	
37.3	0.2389	9.07	0.7611	19.3	
58.1	0.2389	10.7	0.7611	19.3	
80.1	0.2389	14.6	0.7611	18.7	
101	0.2389	15.2	0.7611	18.1	
