Adsorption isotherm of Carbon Dioxide on Lu'an Coal
DOI: 10.1016/j.ijmst.2014.05.012
Article source: Figure 2
Adsorbate Carbon Dioxide: InChIKey CURLTUGMZLYLDI-UHFFFAOYSA-N
Kind: experiment
Temperature: 301 K
Tabular data in the source: 0
pressure (bar)	uptake (cm3(STP)/g)
5.64	14.9
15.2	18.6
26.5	19.6
36.7	20.3
45.1	20.8
53	21.3
