Adsorption isotherm of Carbon Dioxide, Methane on Lu'an Coal
DOI: 10.1016/j.ijmst.2014.05.012
Article source: Figure 3
Adsorbate Carbon Dioxide: InChIKey CURLTUGMZLYLDI-UHFFFAOYSA-N
Adsorbate Methane: InChIKey VNWKTOKETHGBQD-UHFFFAOYSA-N
Kind: experiment
Temperature: 301 K
Tabular data in the source: 0
pressure (bar)	Carbon Dioxide fraction	Carbon Dioxide uptake (cm3(STP)/g)	Methane fraction	Methane uptake (cm3(STP)/g)	total uptake (cm3(STP)/g)
6.16	0.2389	3.57	0.7611	7.88	
20.6	0.2389	5.54	0.7611	12.7	
41.6	0.2389	7.02	0.7611	13.2	
62.9	0.2389	8.25	0.7611	12.7	
82.9	0.2389	9.24	0.7611	12.6	
103	0.2389	9.98	0.7611	12.1	
