Adsorption isotherm of Carbon Dioxide, Methane on Qin-15 Coal
DOI: 10.1016/j.ijmst.2014.05.012
Article source: Figure 3
Adsorbate Carbon Dioxide: InChIKey CURLTUGMZLYLDI-UHFFFAOYSA-N
Adsorbate Methane: InChIKey VNWKTOKETHGBQD-UHFFFAOYSA-N
Kind: experiment
Temperature: 301 K
Tabular data in the source: 0
pressure (bar)	Carbon Dioxide fraction	Carbon Dioxide uptake (cm3(STP)/g)	Methane fraction	Methane uptake (cm3(STP)/g)	total uptake (cm3(STP)/g)
2.44	0.6388	2.1	0.3612	5.61	
7.94	0.6388	7.24	0.3612	8.41	
15.6	0.6388	14.5	0.3612	11.2	
26.6	0.6388	19.4	0.3612	12.4	
39.1	0.6388	23.4	0.3612	12.1	
54.1	0.6388	26.6	0.3612	12.1	
