Adsorption isotherm of Methane on Jincheng Coal
DOI: 10.1016/j.ijmst.2014.05.012
Article source: Figure 2
Adsorbate Methane: InChIKey VNWKTOKETHGBQD-UHFFFAOYSA-N
Kind: experiment
Temperature: 301 K
Tabular data in the source: 0
pressure (bar)	uptake (cm3(STP)/g)
4.66	10.8
19.8	17.1
37.8	21.7
58.8	24.3
79.7	26
99.5	26.6
