Adsorption isotherm of Carbon Dioxide, Methane on Jincheng Coal
DOI: 10.1016/j.ijmst.2014.05.012
Article source: Figure 3
Adsorbate Carbon Dioxide: InChIKey CURLTUGMZLYLDI-UHFFFAOYSA-N
Adsorbate Methane: InChIKey VNWKTOKETHGBQD-UHFFFAOYSA-N
Kind: experiment
Temperature: 301 K
Tabular data in the source: 0
pressure (bar)	Carbon Dioxide fraction	Carbon Dioxide uptake (cm3(STP)/g)	Methane fraction	Methane uptake (cm3(STP)/g)	total uptake (cm3(STP)/g)
3.27	0.2389	3.61	0.7611	7.68	
18	0.2389	6.32	0.7611	13.5	
37.2	0.2389	9.94	0.7611	15.4	
58.5	0.2389	12.4	0.7611	15.4	
79.7	0.2389	14.2	0.7611	13.3	
99.8	0.2389	14.9	0.7611	13.1	
