Adsorption isotherm of Carbon Dioxide, Methane on Qin-3 Coal
DOI: 10.1016/j.ijmst.2014.05.012
Article source: Figure 3
Adsorbate Carbon Dioxide: InChIKey CURLTUGMZLYLDI-UHFFFAOYSA-N
Adsorbate Methane: InChIKey VNWKTOKETHGBQD-UHFFFAOYSA-N
Kind: experiment
Temperature: 301 K
Tabular data in the source: 0
pressure (bar)	Carbon Dioxide fraction	Carbon Dioxide uptake (cm3(STP)/g)	Methane fraction	Methane uptake (cm3(STP)/g)	total uptake (cm3(STP)/g)
2.44	0.6388	7.04	0.3612	3.33	
11	0.6388	12.6	0.3612	7.78	
21.4	0.6388	17	0.3612	9.07	
33	0.6388	20	0.3612	9.26	
45.2	0.6388	23	0.3612	9.07	
57.1	0.6388	23.3	0.3612	8.7	
