Adsorption isotherm of Carbon Dioxide, Methane on Qin-3 Coal
DOI: 10.1016/j.ijmst.2014.05.012
Article source: Figure 3
Adsorbate Carbon Dioxide: InChIKey CURLTUGMZLYLDI-UHFFFAOYSA-N
Adsorbate Methane: InChIKey VNWKTOKETHGBQD-UHFFFAOYSA-N
Kind: experiment
Temperature: 301 K
Tabular data in the source: 0
pressure (bar)	Carbon Dioxide fraction	Carbon Dioxide uptake (cm3(STP)/g)	Methane fraction	Methane uptake (cm3(STP)/g)	total uptake (cm3(STP)/g)
2.14	0.6388	6.85	0.3612	2.41	
8.56	0.6388	15.2	0.3612	5	
18.3	0.6388	20.6	0.3612	5.74	
28.7	0.6388	24.3	0.3612	5.93	
38.5	0.6388	26.7	0.3612	5.93	
49.2	0.6388	28.1	0.3612	5.93	
