Adsorption isotherm of Carbon Dioxide, Methane on Qin-15 Coal
DOI: 10.1016/j.ijmst.2014.05.012
Article source: Figure 3
Adsorbate Carbon Dioxide: InChIKey CURLTUGMZLYLDI-UHFFFAOYSA-N
Adsorbate Methane: InChIKey VNWKTOKETHGBQD-UHFFFAOYSA-N
Kind: experiment
Temperature: 301 K
Tabular data in the source: 0
pressure (bar)	Carbon Dioxide fraction	Carbon Dioxide uptake (cm3(STP)/g)	Methane fraction	Methane uptake (cm3(STP)/g)	total uptake (cm3(STP)/g)
5.5	0.2389	2.1	0.7611	9.11	
17.4	0.2389	4.44	0.7611	18.7	
36.7	0.2389	8.41	0.7611	22.9	
57.4	0.2389	12.1	0.7611	24.1	
80.1	0.2389	14.7	0.7611	23.1	
101	0.2389	15.7	0.7611	23.6	
