Adsorption isotherm of Carbon Dioxide, Methane on Jincheng Coal
DOI: 10.1016/j.ijmst.2014.05.012
Article source: Figure 3
Adsorbate Carbon Dioxide: InChIKey CURLTUGMZLYLDI-UHFFFAOYSA-N
Adsorbate Methane: InChIKey VNWKTOKETHGBQD-UHFFFAOYSA-N
Kind: experiment
Temperature: 301 K
Tabular data in the source: 0
pressure (bar)	Carbon Dioxide fraction	Carbon Dioxide uptake (cm3(STP)/g)	Methane fraction	Methane uptake (cm3(STP)/g)	total uptake (cm3(STP)/g)
2.45	0.6388	7.23	0.3612	4.52	
13.5	0.6388	14.2	0.3612	6.77	
27.4	0.6388	18.3	0.3612	6.77	
39.7	0.6388	20.8	0.3612	6.55	
50.7	0.6388	22.4	0.3612	6.1	
59.7	0.6388	22.8	0.3612	5.87	
