Adsorption isotherm of Carbon Dioxide on Qin-3 Coal
DOI: 10.1016/j.ijmst.2014.05.012
Article source: Figure 2
Adsorbate Carbon Dioxide: InChIKey CURLTUGMZLYLDI-UHFFFAOYSA-N
Kind: experiment
Temperature: 301 K
Tabular data in the source: 0
pressure (bar)	uptake (cm3(STP)/g)
3.37	13.9
6.74	22.7
15.7	29.9
26.4	34.6
36	37.5
45.5	38.7
