Adsorption isotherm of Methane on Lu'an Coal
DOI: 10.1016/j.ijmst.2014.05.012
Article source: Figure 2
Adsorbate Methane: InChIKey VNWKTOKETHGBQD-UHFFFAOYSA-N
Kind: experiment
Temperature: 301 K
Tabular data in the source: 0
pressure (bar)	uptake (cm3(STP)/g)
7.33	11.4
22	17
41.2	19.7
62.1	20.4
82.9	20.9
103	21
