Adsorption isotherm of Carbon Dioxide, Methane on Lu'an Coal
DOI: 10.1016/j.ijmst.2014.05.012
Article source: Figure 3
Adsorbate Carbon Dioxide: InChIKey CURLTUGMZLYLDI-UHFFFAOYSA-N
Adsorbate Methane: InChIKey VNWKTOKETHGBQD-UHFFFAOYSA-N
Kind: experiment
Temperature: 301 K
Tabular data in the source: 0
pressure (bar)	Carbon Dioxide fraction	Carbon Dioxide uptake (cm3(STP)/g)	Methane fraction	Methane uptake (cm3(STP)/g)	total uptake (cm3(STP)/g)
6.16	0.6388	9.73	0.3612	3.57	
15.7	0.6388	13.1	0.3612	4.43	
26.2	0.6388	14.9	0.3612	3.94	
35.7	0.6388	15.9	0.3612	4.06	
43.8	0.6388	16.5	0.3612	3.82	
52.1	0.6388	17.4	0.3612	3.57	
