Adsorption isotherm of Carbon Dioxide on Jincheng Coal
DOI: 10.1016/j.ijmst.2014.05.012
Article source: Figure 2
Adsorbate Carbon Dioxide: InChIKey CURLTUGMZLYLDI-UHFFFAOYSA-N
Kind: experiment
Temperature: 301 K
Tabular data in the source: 0
pressure (bar)	uptake (cm3(STP)/g)
4.07	17.9
9.31	24.5
20.4	27
30.8	28.6
39.6	30
50.1	30.6
