Adsorption isotherm of Methane on Qin-15 Coal
DOI: 10.1016/j.ijmst.2014.05.012
Article source: Figure 2
Adsorbate Methane: InChIKey VNWKTOKETHGBQD-UHFFFAOYSA-N
Kind: experiment
Temperature: 301 K
Tabular data in the source: 0
pressure (bar)	uptake (cm3(STP)/g)
5.62	11.2
18.5	21.1
37.1	28.3
57.9	33.1
78.7	35.8
101	37.8
