Adsorption isotherm of Carbon Dioxide on Qin-15 Coal
DOI: 10.1016/j.ijmst.2014.05.012
Article source: Figure 2
Adsorbate Carbon Dioxide: InChIKey CURLTUGMZLYLDI-UHFFFAOYSA-N
Kind: experiment
Temperature: 301 K
Tabular data in the source: 0
pressure (bar)	uptake (cm3(STP)/g)
1.69	9.16
5.06	21.5
10.7	32.7
20.8	41
30.9	45.4
39.9	47
