Adsorption isotherm of Methane on Qin-3 Coal
DOI: 10.1016/j.ijmst.2014.05.012
Article source: Figure 2
Adsorbate Methane: InChIKey VNWKTOKETHGBQD-UHFFFAOYSA-N
Kind: experiment
Temperature: 301 K
Tabular data in the source: 0
pressure (bar)	uptake (cm3(STP)/g)
5.62	11
19.1	18.9
37.1	25.2
58.4	28.7
79.2	29.6
101	30.2
