Adsorption isotherm of Methane on (Et2NH2)3[(Cu4Cl)3(TTCA)8]
DOI: 10.1039/C2cc35461f
Adsorbate Methane: InChIKey VNWKTOKETHGBQD-UHFFFAOYSA-N
Temperature: 298 K
Tabular data in the source: 0
pressure (bar)	uptake (wt%)
1.12045	0.429827
1.56863	1.20521
4.92997	3.35676
6.94678	4.47527
9.18768	5.42113
12.3249	6.53844
15.4622	7.56955
18.5994	8.60065
22.409	9.2862
25.7703	10.0584
29.3557	10.658
32.9412	11.2576
36.5266	11.5124
39.6639	11.8538
43.2493	12.3672
46.8347	12.7082
50.6443	12.7903
54.0056	13.0453
57.591	13.3862
60.7283	13.7277
64.3137	14.1548
67.6751	14.4098
71.2605	14.4922
74.8459	14.2297
