Adsorption isotherm of Methane on Treated (Et2NH2)3[(Cu4Cl)3(TTCA)8]-Li
DOI: 10.1039/C2cc35461f
Adsorbate Methane: InChIKey VNWKTOKETHGBQD-UHFFFAOYSA-N
Temperature: 195 K
Tabular data in the source: 0
pressure (bar)	uptake (wt%)
0.672269	1.72341
0.896359	2.93007
1.12045	3.7919
2.68908	8.10055
4.70588	10.2535
6.4986	11.6309
8.06723	12.4051
9.41176	13.0071
11.2045	13.35
14.5658	13.7774
17.9272	13.9462
20.8403	13.8569
23.7535	13.8537
