Adsorption isotherm of Nitrogen on (Et2NH2)3[(Cu4Cl)3(TTCA)8]
DOI: 10.1039/C2cc35461f
Adsorbate Nitrogen: InChIKey IJGRMHOSHXDMSA-UHFFFAOYSA-N
Temperature: 77 K
Tabular data in the source: 0
pressure (bar)	uptake (cm3(STP)/g)
0.0028704	220.345
0.00574079	271.198
0.00861119	300.865
0.0114816	347.482
0.0200928	391.991
0.0487968	430.187
0.0660192	432.341
0.0861119	436.621
0.123427	438.817
0.14639	440.984
0.180835	441.056
0.198058	441.092
0.355929	445.659
0.407597	447.886
0.456393	447.988
0.51093	448.102
0.559727	450.323
0.611395	450.431
0.660192	450.533
0.711858	450.641
0.763525	450.749
0.812322	452.97
0.835286	453.018
0.855378	453.06
0.886953	451.007
0.915657	451.067
0.94149	449.002
0.964453	449.051
1.00751	455.496
