Adsorption isotherm of Carbon Dioxide on (Et2NH2)3[(Cu4Cl)3(TTCA)8]
DOI: 10.1039/C2cc35461f
Adsorbate Carbon Dioxide: InChIKey CURLTUGMZLYLDI-UHFFFAOYSA-N
Temperature: 195 K
Tabular data in the source: 0
pressure (bar)	uptake (cm3(STP)/g)
0.0028741	16.9552
0.0057482	33.9103
0.0143705	50.8775
0.0201187	67.8386
0.028741	86.9244
0.0431115	99.6663
0.0546079	118.758
0.0689783	135.737
0.0833488	148.479
0.0919711	167.565
0.100593	180.295
0.106342	199.375
0.117838	218.466
0.123586	241.784
0.129334	267.219
0.137957	284.186
0.158075	294.822
0.183942	303.35
0.261543	316.224
0.304654	322.67
0.359262	327.021
0.408122	329.242
0.456982	333.581
0.514464	333.701
0.563323	340.159
0.612183	342.38
0.666791	342.494
0.718524	344.721
0.770258	344.829
0.790377	349.108
0.819118	349.168
0.870852	349.276
0.922585	349.384
0.974319	351.611
