Adsorption isotherm of Methane on Treated (Et2NH2)3[(Cu4Cl)3(TTCA)8]-Li
DOI: 10.1039/C2cc35461f
Adsorbate Methane: InChIKey VNWKTOKETHGBQD-UHFFFAOYSA-N
Temperature: 273 K
Tabular data in the source: 0
pressure (bar)	uptake (wt%)
0.448179	0.430552
4.92997	3.18434
7.17087	3.95779
8.7395	4.81817
10.3081	5.41993
13.8936	6.36434
17.479	7.39496
21.0644	7.90834
24.6499	8.42171
28.4594	8.67623
31.8207	9.10364
35.4062	9.18598
38.9916	9.35453
42.3529	9.52333
45.4902	9.51995
49.7479	9.68777
53.1092	9.77036
