Adsorption isotherm of Methane on (Et2NH2)3[(Cu4Cl)3(TTCA)8]
DOI: 10.1039/C2cc35461f
Adsorbate Methane: InChIKey VNWKTOKETHGBQD-UHFFFAOYSA-N
Temperature: 273 K
Tabular data in the source: 0
pressure (bar)	uptake (wt%)
1.56863	1.119
2.2409	1.80793
2.46499	2.66976
4.70588	4.13286
6.4986	5.42403
8.7395	6.80093
11.4286	8.17734
14.7899	9.55303
18.3754	11.0147
21.7367	11.8731
25.098	12.473
28.6835	13.245
32.0448	13.931
35.4062	14.4446
38.9916	14.6132
42.3529	14.7819
45.7143	14.8645
