Adsorption isotherm of Hydrogen on (Et2NH2)3[(Cu4Cl)3(TTCA)8]
DOI: 10.1039/C2cc35461f
Adsorbate Hydrogen: InChIKey UFHFLCQGNIYNRP-UHFFFAOYSA-N
Temperature: 77 K
Tabular data in the source: 0
pressure (bar)	uptake (wt%)
0	0.241228
0.146628	0.614035
0.733138	0.877193
1.17302	1.09649
1.6129	1.31579
2.19941	1.51316
2.93255	1.66667
3.66569	1.86404
4.69208	2.01754
6.45161	2.25877
7.91789	2.41228
9.23754	2.5
11.1437	2.63158
13.4897	2.74123
16.129	2.82895
18.3284	2.91667
20.5279	2.98246
23.1672	3.09211
25.6598	3.11404
27.8592	3.13596
30.2053	3.13596
32.6979	3.20175
35.044	3.24561
37.5367	3.26754
39.7361	3.28947
42.2287	3.28947
44.4282	3.26754
46.9208	3.26754
49.2669	3.26754
