Adsorption isotherm of Methane on (Et2NH2)3[(Cu4Cl)3(TTCA)8]
DOI: 10.1039/C2cc35461f
Adsorbate Methane: InChIKey VNWKTOKETHGBQD-UHFFFAOYSA-N
Temperature: 195 K
Tabular data in the source: 0
pressure (bar)	uptake (wt%)
0.448179	3.01676
1.12045	6.3781
1.56863	8.53279
2.01681	9.99783
2.2409	10.7734
2.68908	11.7212
4.48179	15.2538
6.4986	17.2344
8.51541	18.3529
10.9804	19.4709
14.3417	20.157
17.2549	20.5849
20.3922	20.5815
23.3053	20.837
26.4426	20.575
