Adsorption isotherm of Hydrogen on Treated (Et2NH2)3[(Cu4Cl)3(TTCA)8]-Li
DOI: 10.1039/C2cc35461f
Adsorbate Hydrogen: InChIKey UFHFLCQGNIYNRP-UHFFFAOYSA-N
Temperature: 77 K
Tabular data in the source: 0
pressure (bar)	uptake (wt%)
0.293255	0.293255
0.733138	1.27193
1.90616	1.92982
2.49267	2.23684
3.22581	2.5
3.81232	2.63158
4.69208	2.80702
5.57185	3.02632
6.15836	3.11404
7.03812	3.24561
7.77126	3.37719
8.5044	3.50877
9.97067	3.57456
12.61	3.83772
15.3959	3.99123
18.0352	4.14474
20.9677	4.25439
23.607	4.32018
26.2463	4.38596
29.1789	4.49561
31.8182	4.51754
34.4575	4.53947
37.39	4.64912
39.8827	4.64912
42.522	4.62719
45.1613	4.67105
47.8006	4.69298
