Adsorption isotherm of Methane on Treated (Et2NH2)3[(Cu4Cl)3(TTCA)8]-Li
DOI: 10.1039/C2cc35461f
Adsorbate Methane: InChIKey VNWKTOKETHGBQD-UHFFFAOYSA-N
Temperature: 298 K
Tabular data in the source: 0
pressure (bar)	uptake (wt%)
0.896359	0.343862
1.56863	0.687965
3.36134	1.63431
5.15406	2.23583
7.39496	2.92307
8.7395	3.52507
10.7563	4.12634
14.1176	4.72617
17.9272	5.58413
21.5126	6.18371
25.098	6.61089
28.9076	7.03782
32.2689	7.37902
36.0784	7.80595
39.4398	7.97474
43.0252	8.14329
46.6106	8.31184
50.1961	8.48039
54.0056	8.56249
57.3669	8.64508
60.9524	8.64122
64.5378	8.72356
68.1232	8.71969
71.4846	8.71607
74.8459	8.79866
78.6555	8.79455
