Adsorption isotherm of Nitrogen on Treated (Et2NH2)3[(Cu4Cl)3(TTCA)8]-Li
DOI: 10.1039/C2cc35461f
Adsorbate Nitrogen: InChIKey IJGRMHOSHXDMSA-UHFFFAOYSA-N
Temperature: 77 K
Tabular data in the source: 0
pressure (bar)	uptake (cm3(STP)/g)
0.0028704	156.786
0.00574079	207.639
0.00861119	309.34
0.0114816	379.261
0.0172224	438.595
0.0487968	476.797
0.0688896	485.314
0.0889823	489.593
0.103334	491.741
0.126297	489.671
0.14639	491.832
0.160742	491.862
0.203798	496.189
0.252595	496.291
0.307132	494.286
0.355929	494.388
0.407597	496.615
0.528153	496.867
0.576949	494.85
0.628617	494.958
0.677414	497.179
0.729081	497.287
0.783618	493.164
0.832415	493.266
0.889823	495.505
0.912786	495.553
0.938619	495.607
0.964453	497.779
0.996028	506.32
1.00177	510.569
