Adsorption isotherm of Nitrogen on GO/MIL-101
DOI: 10.1021/Ic402012d
Adsorbate Nitrogen: InChIKey IJGRMHOSHXDMSA-UHFFFAOYSA-N
Temperature: 77 K
Tabular data in the source: 0
pressure (bar)	uptake (cm3(STP)/g)
0.0123623	464.38
0.0303821	565.205
0.0484019	629.561
0.0934514	736.822
0.128204	820.485
0.150085	908.439
0.196422	981.376
0.233748	1032.86
0.25563	1114.38
0.318699	1135.83
0.372758	1146.56
0.412659	1155.14
0.473154	1168.01
0.536224	1176.59
0.594144	1178.74
0.65464	1189.46
0.715135	1195.9
0.77563	1204.48
0.836125	1210.91
0.873451	1217.35
0.931372	1236.66
0.973847	1273.13
0.99058	1350.35
