Adsorption isotherm of Nitrogen on MIL-101
DOI: 10.1021/Ic402012d
Adsorbate Nitrogen: InChIKey IJGRMHOSHXDMSA-UHFFFAOYSA-N
Temperature: 77 K
Tabular data in the source: 0
pressure (bar)	uptake (cm3(STP)/g)
0.00850092	412.895
0.0535504	528.736
0.0883029	610.254
0.144937	741.112
0.213154	816.195
0.272362	914.875
0.336719	923.456
0.392065	936.327
0.473154	949.198
0.531075	957.779
0.596719	964.215
0.65464	972.795
0.716422	981.376
0.774342	989.957
0.832263	994.248
0.892758	1009.26
0.928798	1022.14
0.967412	1058.6
0.993154	1217.35
