Adsorption isotherm of Nitrogen on GO/MIL-101
DOI: 10.1021/Ic402012d
Adsorbate Nitrogen: InChIKey IJGRMHOSHXDMSA-UHFFFAOYSA-N
Temperature: 77 K
Tabular data in the source: 0
pressure (bar)	uptake (cm3(STP)/g)
0.0213722	359.264
0.0702831	472.961
0.130778	573.786
0.171966	640.287
0.235036	708.934
0.247907	736.822
0.335432	764.71
0.435828	781.871
0.51563	796.888
0.595432	809.759
0.673946	822.63
0.771768	837.647
0.836125	850.518
0.899194	876.261
0.946818	932.036
0.968699	992.102
0.998303	1065.04
