Adsorption isotherm of Nitrogen on GO/MIL-101
DOI: 10.1021/Ic402012d
Adsorbate Nitrogen: InChIKey IJGRMHOSHXDMSA-UHFFFAOYSA-N
Temperature: 77 K
Tabular data in the source: 0
pressure (bar)	uptake (cm3(STP)/g)
0.00721379	142.597
0.0123623	215.535
0.0522633	279.891
0.0960257	322.796
0.151372	378.571
0.211867	415.04
0.254342	445.073
0.352164	462.234
0.430679	477.251
0.51563	485.832
0.616026	496.558
0.694541	513.72
0.752461	526.591
0.837412	545.898
0.900481	582.366
0.950679	614.545
0.997016	640.287
