Adsorption isotherm of Nitrogen on GO/MIL-101
DOI: 10.1021/Ic402012d
Adsorbate Nitrogen: InChIKey IJGRMHOSHXDMSA-UHFFFAOYSA-N
Temperature: 77 K
Tabular data in the source: 0
pressure (bar)	uptake (cm3(STP)/g)
0.00978805	434.347
0.0316692	537.317
0.0677088	646.723
0.10761	732.531
0.152659	867.68
0.196422	927.746
0.236323	985.667
0.254342	1050.02
0.319986	1067.18
0.372758	1075.77
0.433253	1086.49
0.511768	1099.36
0.576125	1105.8
0.63662	1112.23
0.71256	1118.67
0.77563	1127.25
0.834838	1135.83
0.897907	1150.85
0.948105	1183.03
0.97256	1232.37
0.99058	1459.76
