Adsorption isotherm of Nitrogen on GO/MIL-101
DOI: 10.1021/Ic402012d
Adsorbate Nitrogen: InChIKey IJGRMHOSHXDMSA-UHFFFAOYSA-N
Temperature: 77 K
Tabular data in the source: 0
pressure (bar)	uptake (cm3(STP)/g)
0.00978805	292.762
0.0226593	365.7
0.0484019	427.911
0.112758	515.865
0.169392	608.109
0.233748	670.32
0.273649	726.096
0.335432	732.531
0.413946	745.403
0.495036	756.129
0.594144	766.855
0.672659	777.581
0.752461	788.307
0.83355	796.888
0.874739	809.759
0.930085	831.211
0.949392	848.373
0.980283	906.294
0.99058	977.086
