Adsorption isotherm of Trichloromethane on CuBTC
DOI: 10.1039/c5ra23888a
Article source: Figure 4
Adsorbate Trichloromethane: InChIKey HEDRZPFGACZZDS-UHFFFAOYSA-N
Kind: experiment
Temperature: 298 K
Tabular data in the source: 0
pressure (bar)	uptake (mmol/g)
0.002626	1.0483
0.013672	3.6552
0.028284	5.5252
0.04251	6.3996
0.055819	6.778
0.069589	7.1278
0.083821	7.4562
0.112025	7.7597
0.140757	7.9062
0.167774	8.2133
0.196638	8.4097
0.224711	8.5812
0.252655	8.5386
