Adsorption isotherm of Dichloromethane on CuBTC
DOI: 10.1039/c5ra23888a
Article source: Figure 4
Adsorbate Dichloromethane: InChIKey YMWUJEATGCHHMB-UHFFFAOYSA-N
Kind: experiment
Temperature: 318 K
Tabular data in the source: 0
pressure (bar)	uptake (mmol/g)
0.01093	3.8451
0.06063	7.5654
0.12102	8.6358
0.18334	9.0964
0.24345	9.3712
0.30357	9.5753
0.36506	9.8168
0.48623	9.8634
0.60796	10.2272
0.72889	10.3098
0.84983	10.5258
0.9718	10.5849
1.0941	10.7067
