Adsorption isotherm of Nitrogen on CuBTC
DOI: 10.1039/c5ra23888a
Article source: Figure 1
Adsorbate Nitrogen: InChIKey IJGRMHOSHXDMSA-UHFFFAOYSA-N
Kind: experiment
Temperature: 77 K
Tabular data in the source: 0
pressure (bar)	uptake (cm3(STP)/g)
0.000233	3.44
0.000486	36.55
0.000598	69.17
0.000851	101.91
0.001094	134.53
0.001216	167.14
0.001459	199.88
0.001581	232.62
0.001692	265.36
0.001945	297.98
0.002057	330.47
0.002178	363.08
0.00229	395.7
0.002412	428.32
0.002523	460.93
0.002776	493.55
0.00381	525.92
0.011612	549.16
0.029698	562.39
0.051564	574.69
0.08033	581.22
0.104507	587.14
0.135907	592.28
0.169284	595.23
0.18277	597.88
0.201191	599.59
0.217302	601.93
0.236351	601.53
0.251752	603.63
0.273415	606.1
0.287246	607.46
0.309305	609.06
0.323784	609.8
0.354719	611.66
0.361244	612.28
0.394397	614.13
0.403527	614.99
0.433934	615.86
0.448424	616.85
0.467351	619.44
0.490423	619.05
0.496999	622.94
0.531693	625.27
0.536627	622.63
0.570004	628.39
0.582011	623.41
0.608649	630.57
0.628874	626.05
0.648277	632.44
0.674419	628.85
0.686426	633.21
0.720958	630.72
0.732955	635.7
0.767324	633.99
0.780638	638.51
0.81287	635.86
0.828818	640.53
0.858415	638.19
0.875681	642.55
0.901661	641.31
0.921561	646.13
0.943103	644.27
0.966286	648.31
0.99111	648.31
1.00131	647.22
1.00871	650.34
