Adsorption isotherm of Dichloromethane on CuBTC
DOI: 10.1039/c5ra23888a
Article source: Figure 4
Adsorbate Dichloromethane: InChIKey YMWUJEATGCHHMB-UHFFFAOYSA-N
Kind: experiment
Temperature: 308 K
Tabular data in the source: 0
pressure (bar)	uptake (mmol/g)
0.00985	4.0304
0.04342	8.229
0.08328	9.4455
0.12436	10.2539
0.16803	10.5365
0.20913	10.8249
0.25074	11.1684
0.33619	11.4405
0.41842	11.6458
0.50042	12.0093
0.58436	12.3481
0.6681	12.4595
0.75291	12.645
