Adsorption isotherm of Trichloromethane on CuBTC
DOI: 10.1039/c5ra23888a
Article source: Figure 4
Adsorbate Trichloromethane: InChIKey HEDRZPFGACZZDS-UHFFFAOYSA-N
Kind: experiment
Temperature: 308 K
Tabular data in the source: 0
pressure (bar)	uptake (mmol/g)
0.003754	0.8279
0.019414	2.9353
0.038929	4.2063
0.058319	5.447
0.077413	5.9346
0.096804	6.3868
0.115995	6.473
0.15401	6.7946
0.19308	7.1582
0.231481	7.2795
0.269901	7.5784
0.308508	7.71
0.346852	7.822
