Adsorption isotherm of Dichloromethane on CuBTC
DOI: 10.1039/c5ra23888a
Article source: Figure 4
Adsorbate Dichloromethane: InChIKey YMWUJEATGCHHMB-UHFFFAOYSA-N
Kind: experiment
Temperature: 298 K
Tabular data in the source: 0
pressure (bar)	uptake (mmol/g)
0.00454	4.0118
0.03108	8.3595
0.06091	9.8486
0.09034	10.4471
0.11928	10.8827
0.15018	11.3958
0.17963	11.5763
0.23957	11.9688
0.29917	12.4751
0.35879	12.3457
0.41753	12.7637
0.47902	12.9443
0.5376	13.1229
