Adsorption isotherm of Trichloromethane on CuBTC
DOI: 10.1039/c5ra23888a
Article source: Figure 4
Adsorbate Trichloromethane: InChIKey HEDRZPFGACZZDS-UHFFFAOYSA-N
Kind: experiment
Temperature: 318 K
Tabular data in the source: 0
pressure (bar)	uptake (mmol/g)
0.004846	0.62
0.022875	2.1266
0.045777	3.4173
0.068446	4.2655
0.091147	5.033
0.114	5.3556
0.136121	5.6216
0.1825	6.1178
0.227574	6.5141
0.272925	6.6719
0.318832	6.9905
0.364377	7.0126
0.409923	7.2458
