Adsorption isotherm of Carbon Dioxide, Methane on Mg2O(2AEP)*4H2O
DOI: 10.1039/c5ra24657a
Article source: Figure 7
Adsorbate Carbon Dioxide: InChIKey CURLTUGMZLYLDI-UHFFFAOYSA-N
Adsorbate Methane: InChIKey VNWKTOKETHGBQD-UHFFFAOYSA-N
Kind: experiment
Temperature: 298 K
Tabular data in the source: 0
pressure (bar)	Carbon Dioxide fraction	Carbon Dioxide uptake (molefraction)	Methane fraction	Methane uptake (molefraction)	total uptake (molefraction)
1	0.954822	0.738762	0.045178	0.261238	
1	0.770285	0.240067	0.229715	0.759933	
1	0.482848	0.047122	0.517152	0.952878	
