Adsorption isotherm of Carbon Dioxide, Methane on Mg2O(2AEP)*4H2O
DOI: 10.1039/c5ra24657a
Article source: Figure 7
Adsorbate Carbon Dioxide: InChIKey CURLTUGMZLYLDI-UHFFFAOYSA-N
Adsorbate Methane: InChIKey VNWKTOKETHGBQD-UHFFFAOYSA-N
Kind: experiment
Temperature: 298 K
Tabular data in the source: 0
pressure (bar)	Carbon Dioxide fraction	Carbon Dioxide uptake (molefraction)	Methane fraction	Methane uptake (molefraction)	total uptake (molefraction)
20	0.819013	0.242954	0.180987	0.757046	
20	0.804572	0.242934	0.195428	0.757066	
20	0.343111	0.045885	0.656889	0.954115	
