Adsorption isotherm of Carbon Dioxide, Methane on Mg2O(2AEP)*4H2O
DOI: 10.1039/c5ra24657a
Article source: Figure 7
Adsorbate Carbon Dioxide: InChIKey CURLTUGMZLYLDI-UHFFFAOYSA-N
Adsorbate Methane: InChIKey VNWKTOKETHGBQD-UHFFFAOYSA-N
Kind: experiment
Temperature: 298 K
Tabular data in the source: 0
pressure (bar)	Carbon Dioxide fraction	Carbon Dioxide uptake (molefraction)	Methane fraction	Methane uptake (molefraction)	total uptake (molefraction)
5	0.971409	0.737456	0.028591	0.262544	
5	0.802279	0.245864	0.197721	0.754136	
5	0.500028	0.047145	0.499972	0.952855	
