Adsorption isotherm of Methane on Mg2O(2AEP)*4H2O
DOI: 10.1039/c5ra24657a
Article source: Figure 6
Adsorbate Methane: InChIKey VNWKTOKETHGBQD-UHFFFAOYSA-N
Kind: experiment
Temperature: 298 K
Tabular data in the source: 0
pressure (bar)	uptake (mmol/g)
0.405	0.0569
1.07	0.097
1.78	0.174
3.01	0.247
5.67	0.435
6.83	0.394
8.6	0.491
13.9	0.638
17.8	0.792
24.2	0.908
