Adsorption isotherm of Carbon Dioxide on Mg2O(2AEP)*4H2O
DOI: 10.1039/c5ra24657a
Article source: Figure 6
Adsorbate Carbon Dioxide: InChIKey CURLTUGMZLYLDI-UHFFFAOYSA-N
Kind: experiment
Temperature: 298 K
Tabular data in the source: 0
pressure (bar)	uptake (mmol/g)
0.192	0.228
0.255	0.311
0.596	0.496
0.98	0.636
1.51	0.82
1.91	0.964
3.27	1.16
4.28	1.35
5.15	1.47
7.22	1.73
8.17	1.89
13.7	2.41
15	2.55
22.3	3.24
24.7	3.46
