Adsorption isotherm of Carbon Dioxide on CuBTC
DOI: 10.1039/c3ta13073h
Adsorbate Carbon Dioxide: InChIKey CURLTUGMZLYLDI-UHFFFAOYSA-N
Temperature: 373 K
Tabular data in the source: 0
pressure (bar)	uptake (kg/mol)
0.020276	0.0148421
0.0387857	0.00991251
0.0812453	0.0296308
0.119898	0.0444196
0.191262	0.0838562
0.293457	0.143011
0.499494	0.251462
0.81774	0.364842
1.87577	0.759208
3.87857	1.24724
5.65004	1.47893
7.81442	1.66625
9.61696	1.82893
