Adsorption isotherm of Carbon Dioxide on CuBTC
DOI: 10.1039/c3ta13073h
Adsorbate Carbon Dioxide: InChIKey CURLTUGMZLYLDI-UHFFFAOYSA-N
Temperature: 323 K
Tabular data in the source: 0
pressure (bar)	uptake (kg/mol)
0.0387857	0.0345604
0.0791645	0.073997
0.15341	0.177518
0.247916	0.285969
0.395478	0.463434
0.583628	0.660617
0.81774	0.828222
1.08782	0.985969
1.50454	1.23245
2.99223	1.71555
5.87426	2.1247
9.61696	2.33667
14.7555	2.46484
29.7289	2.6571
37.0641	2.70639
