Adsorption isotherm of Water on CuBTC
DOI: 10.1039/c3ta13073h
Adsorbate Water: InChIKey XLYOFNOQVPJJNP-UHFFFAOYSA-N
Temperature: 298 K
Tabular data in the source: 0
pressure (bar)	uptake (kg/mol)
2.33823	1.16588
3.43581	8.01383
4.31929	12.2771
5.38306	16.0107
6.7177	18.9879
