Adsorption isotherm of Carbon Dioxide on CuBTC
DOI: 10.1039/c3ta13073h
Adsorbate Carbon Dioxide: InChIKey CURLTUGMZLYLDI-UHFFFAOYSA-N
Temperature: 313 K
Tabular data in the source: 0
pressure (bar)	uptake (kg/mol)
0.0390335	0.061689
0.0576208	0.0948832
0.0817844	0.12813
0.10223	0.151908
0.198885	0.317914
0.297398	0.455636
0.399628	0.607544
0.501859	0.750018
0.598513	0.873571
0.698885	1.02074
0.802974	1.13965
0.899628	1.25849
0.998141	1.38206
