Adsorption isotherm of Carbon Dioxide on CuBTC
DOI: 10.1039/c3ta13073h
Adsorbate Carbon Dioxide: InChIKey CURLTUGMZLYLDI-UHFFFAOYSA-N
Temperature: 273 K
Tabular data in the source: 0
pressure (bar)	uptake (kg/mol)
0.00106686	0.00991251
0.00400642	0.0247012
0.00786527	0.0690674
0.0150454	0.143011
0.0287802	0.305687
0.0595096	0.576814
0.0961696	0.8578
0.145653	1.15357
0.196289	1.36555
0.30117	1.68104
0.499494	2.05569
0.690837	2.28245
0.993395	2.45005
1.42846	2.61766
2.43139	2.81977
3.98051	2.98738
6.02866	3.08104
7.91645	3.15991
9.74252	3.19935
