Adsorption isotherm of Carbon Dioxide on CuBTC
DOI: 10.1039/c3ta13073h
Adsorbate Carbon Dioxide: InChIKey CURLTUGMZLYLDI-UHFFFAOYSA-N
Temperature: 298 K
Tabular data in the source: 0
pressure (bar)	uptake (kg/mol)
0.00993395	0.0345604
0.0387857	0.103574
0.0610737	0.15287
0.0961696	0.251462
0.151433	0.39442
0.251153	0.62118
0.405873	0.966251
0.568681	1.26695
0.8072	1.46414
0.967954	1.63667
1.22254	1.7747
1.97567	2.05076
3.92921	2.36132
7.81442	2.58315
15.1433	2.75076
30.5103	2.83949
39.0381	2.9085
