Adsorption isotherm of Carbon Dioxide on CuBTC
DOI: 10.1039/c3ta13073h
Adsorbate Carbon Dioxide: InChIKey CURLTUGMZLYLDI-UHFFFAOYSA-N
Temperature: 273 K
Tabular data in the source: 0
pressure (bar)	uptake (kg/mol)
0.00102614	0.0197717
0.00400642	0.0197717
0.00786527	0.0444196
0.0146601	0.0986449
0.029156	0.202166
0.0618712	0.433856
0.0986973	0.729631
0.141923	1.00569
0.247916	1.49372
0.385349	1.80921
0.591248	2.0409
0.766383	2.22822
1.20678	2.38597
1.97567	2.54372
4.03249	2.70146
8.55723	2.81977
15.341	2.92329
37.548	3.0416
