Adsorption isotherm of Carbon Dioxide on CuBTC
DOI: 10.1039/c3ta13073h
Adsorbate Carbon Dioxide: InChIKey CURLTUGMZLYLDI-UHFFFAOYSA-N
Temperature: 301 K
Tabular data in the source: 0
pressure (bar)	uptake (kg/mol)
0.00557621	0.0236375
0.0371747	0.0899733
0.0780669	0.170548
0.104089	0.217963
0.198885	0.449989
0.299257	0.64905
0.39777	0.862243
0.503717	1.05664
0.596654	1.23204
0.698885	1.41697
0.799257	1.56414
0.895911	1.72543
1.00186	1.87738
