Adsorption isotherm of Carbon Dioxide on CuBTC
DOI: 10.1039/c3ta13073h
Adsorbate Carbon Dioxide: InChIKey CURLTUGMZLYLDI-UHFFFAOYSA-N
Temperature: 313 K
Tabular data in the source: 0
pressure (bar)	uptake (kg/mol)
0.200743	0.284913
0.301115	0.432086
0.39777	0.560356
0.5	0.679245
0.60223	0.807568
0.700743	0.926422
0.802974	1.04059
0.901487	1.16888
1.00186	1.25002
