Adsorption isotherm of Carbon Dioxide on CuBTC
DOI: 10.1039/c3ta13073h
Adsorbate Carbon Dioxide: InChIKey CURLTUGMZLYLDI-UHFFFAOYSA-N
Temperature: 323 K
Tabular data in the source: 0
pressure (bar)	uptake (kg/mol)
0.0167286	0.00959178
0.0427509	0.0334222
0.0613383	0.0571824
0.100372	0.114154
0.202602	0.242477
0.302974	0.361349
0.39777	0.456583
0.5	0.575472
0.600372	0.680192
0.700743	0.784913
0.797398	0.889598
0.905204	0.994389
1	1.08491
