Adsorption isotherm of Carbon Dioxide on CuBTC
DOI: 10.1039/c3ta13073h
Adsorbate Carbon Dioxide: InChIKey CURLTUGMZLYLDI-UHFFFAOYSA-N
Temperature: 301 K
Tabular data in the source: 0
pressure (bar)	uptake (kg/mol)
0.0799257	0.156414
0.100372	0.19906
0.200743	0.407554
0.299257	0.606597
0.399628	0.786789
0.501859	0.962282
0.600372	1.14246
0.698885	1.2849
0.799257	1.4415
0.899628	1.61226
1.00186	1.72172
