Adsorption isotherm of Carbon Dioxide on CuBTC
DOI: 10.1039/c3ta13073h
Adsorbate Carbon Dioxide: InChIKey CURLTUGMZLYLDI-UHFFFAOYSA-N
Temperature: 303 K
Tabular data in the source: 0
pressure (bar)	uptake (kg/mol)
0.00796797	0.0148421
0.0146601	0.0444196
0.0200146	0.0641379
0.029156	0.0986449
0.0398051	0.138082
0.0610737	0.192307
0.115322	0.374701
0.188797	0.586673
0.297289	0.828222
0.506016	1.18315
0.690837	1.41977
0.967954	1.67611
1.42846	1.93738
2.4953	2.28245
4.03249	2.49442
5.95096	2.68174
7.81442	2.78526
9.49301	2.84442
