Adsorption isotherm of Water on CuBTC
DOI: 10.1039/c3ta13073h
Adsorbate Water: InChIKey XLYOFNOQVPJJNP-UHFFFAOYSA-N
Temperature: 298 K
Tabular data in the source: 0
pressure (bar)	uptake (kg/mol)
0.144498	0.457342
0.626984	2.05778
0.727438	2.74246
1.38775	3.58543
2.69848	4.35986
3.96434	5.28567
4.95522	6.5881
5.52662	7.8098
6.33308	9.26202
6.58215	10.7838
7.01729	12.3078
7.31371	13.9061
7.7505	15.582
7.95636	17.4071
