Adsorption isotherm of Carbon Dioxide on CuBTC
DOI: 10.1039/c3ta13073h
Adsorbate Carbon Dioxide: InChIKey CURLTUGMZLYLDI-UHFFFAOYSA-N
Temperature: 348 K
Tabular data in the source: 0
pressure (bar)	uptake (kg/mol)
0.099986	0.0542787
0.186364	0.113434
0.305103	0.187377
0.468125	0.27611
0.708995	0.39442
0.967954	0.522589
1.17588	0.611321
1.92507	0.902166
3.11098	1.19301
5.72381	1.62188
9.49301	1.9078
14.7555	2.17893
28.2256	2.39583
38.5349	2.46977
