Adsorption isotherm of Carbon Dioxide on CuBTC
DOI: 10.1039/c3ta13073h
Adsorbate Carbon Dioxide: InChIKey CURLTUGMZLYLDI-UHFFFAOYSA-N
Temperature: 373 K
Tabular data in the source: 0
pressure (bar)	uptake (kg/mol)
0.019502	0.0345604
0.0392921	0.0296308
0.077137	0.0197717
0.12305	0.0444196
0.196289	0.0542787
0.293457	0.0887858
0.512623	0.167659
0.718252	0.241603
1.20678	0.379631
1.9502	0.562025
4.13848	0.931744
7.91645	1.35569
14.5653	1.71555
19.8852	1.89301
37.548	2.24794
