Adsorption isotherm of Carbon Dioxide on CuBTC
DOI: 10.1039/c3ta13073h
Adsorbate Carbon Dioxide: InChIKey CURLTUGMZLYLDI-UHFFFAOYSA-N
Temperature: 338 K
Tabular data in the source: 0
pressure (bar)	uptake (kg/mol)
0.0101951	0.0148421
0.029156	0.0197717
0.0595096	0.0542787
0.0974252	0.108504
0.151433	0.172589
0.238454	0.27118
0.411172	0.433856
0.576106	0.596532
0.786527	0.778927
1.17588	1.00569
1.90026	1.33597
2.9156	1.6416
4.77323	1.96695
6.86371	2.18386
9.61696	2.36625
