Adsorption isotherm of Water on CuBTC
DOI: 10.1039/c3ta13073h
Adsorbate Water: InChIKey XLYOFNOQVPJJNP-UHFFFAOYSA-N
Temperature: 298 K
Tabular data in the source: 0
pressure (bar)	uptake (kg/mol)
0.138309	0.453923
0.552888	1.58899
0.970472	4.68881
1.98878	10.6624
4.01095	13.1638
5.02129	13.9233
6.03266	15.3628
7.96298	17.7883
9.98388	19.4584
19.9486	26.3726
