Adsorption isotherm of Water on CuBTC
DOI: 10.1039/c3ta13073h
Adsorbate Water: InChIKey XLYOFNOQVPJJNP-UHFFFAOYSA-N
Temperature: 298 K
Tabular data in the source: 0
pressure (bar)	uptake (kg/mol)
0.138309	0.453923
3.64918	16.5629
6.68619	22.7709
9.71651	24.5959
12.8364	24.9855
15.9108	25.6772
19.0307	26.0669
