Adsorption isotherm of Carbon Dioxide on CuBTC
DOI: 10.1039/c3ta13073h
Adsorbate Carbon Dioxide: InChIKey CURLTUGMZLYLDI-UHFFFAOYSA-N
Temperature: 323 K
Tabular data in the source: 0
pressure (bar)	uptake (kg/mol)
0.10223	0.109455
0.198885	0.218857
0.301115	0.323595
0.403346	0.43305
0.501859	0.523602
0.60223	0.623606
0.698885	0.71414
0.801115	0.790577
0.901487	0.895297
1.00186	0.985867
