Adsorption isotherm of Water on CuBTC
DOI: 10.1039/c3ta13073h
Adsorbate Water: InChIKey XLYOFNOQVPJJNP-UHFFFAOYSA-N
Temperature: 298 K
Tabular data in the source: 0
pressure (bar)	uptake (kg/mol)
0.594966	0.909049
0.869565	1.21235
1.28146	1.89401
1.83066	2.27392
2.79176	3.41105
