Adsorption isotherm of Nitrogen on C12H35Cu3N6O19.50
DOI: 10.1039/C0ce00775g
Adsorbate Nitrogen: InChIKey IJGRMHOSHXDMSA-UHFFFAOYSA-N
Temperature: 77 K
Tabular data in the source: 0
pressure (bar)	uptake (cm3(STP)/g)
0.000989256	73.5872
0.00208782	127.681
0.00223266	101.853
0.00257698	40.4496
0.00273275	12.6719
0.00726092	205.169
0.0647143	209.584
0.0815343	210.08
0.136211	209.62
0.139015	209.621
0.179673	209.154
0.218926	209.174
0.266588	209.685
0.314255	209.222
0.408185	208.782
0.461458	208.808
0.510527	208.346
0.563807	206.91
0.60446	207.418
0.705405	206.007
0.754466	207.006
0.891858	206.1
0.917097	205.138
0.940927	205.638
0.964746	208.086
