Adsorption isotherm of Hydrogen on [Cu3(dmtrz)2(OX)2-(H2O)2]
DOI: 10.1039/C0ce00775g
Adsorbate Hydrogen: InChIKey UFHFLCQGNIYNRP-UHFFFAOYSA-N
Temperature: 87 K
Tabular data in the source: 0
pressure (bar)	uptake (cm3(STP)/g)
0.000983358	7.87377
0.00295811	25.0976
0.00864926	33.9579
0.0152889	44.2949
0.0181425	50.2013
0.0294686	57.5883
0.0398622	66.451
0.0464616	69.4068
0.0700113	76.3078
0.0784891	78.7725
0.108633	87.6452
0.118043	88.6341
0.123694	90.1132
0.132167	91.5938
0.150052	94.5553
0.159462	95.5442
0.167937	97.5169
0.177347	98.5058
0.20464	101.964
0.214048	102.461
0.229104	103.945
0.237573	104.933
0.24604	105.43
0.255448	105.927
0.268625	107.902
0.278033	108.398
0.289324	109.388
0.294027	109.391
0.303434	109.887
0.310963	110.875
0.320371	111.372
0.328838	111.869
0.338248	112.858
0.343894	113.353
0.352361	113.849
0.358947	114.344
0.368355	114.841
0.394699	116.823
0.404101	116.336
0.421978	117.821
0.430448	118.809
0.446442	119.802
0.455844	119.314
0.463376	120.794
0.487837	122.283
0.497241	122.288
0.506649	122.784
0.516057	123.281
0.525461	123.286
0.533931	124.275
0.553687	125.269
0.563092	125.273
0.572499	125.77
0.585666	125.777
0.594136	126.765
0.603543	127.262
0.612948	127.267
0.643995	129.251
0.6534	129.256
0.662807	129.753
0.672212	129.757
0.681617	129.762
0.688203	130.258
0.697611	130.754
0.727714	132.246
0.734298	132.249
0.743705	132.746
0.75311	132.751
0.762518	133.248
0.770987	134.236
0.776622	132.763
0.78039	133.749
0.789797	134.246
0.799202	134.25
0.831187	135.743
0.840591	135.748
0.849999	136.245
0.859404	136.249
0.888564	137.248
0.897972	137.745
0.907377	137.75
0.916782	137.755
0.921489	138.741
0.947828	139.739
0.972281	139.751
