Adsorption isotherm of Hydrogen on [Cu3(dmtrz)2(OX)2-(H2O)2]
DOI: 10.1039/C0ce00775g
Adsorbate Hydrogen: InChIKey UFHFLCQGNIYNRP-UHFFFAOYSA-N
Temperature: 77 K
Tabular data in the source: 0
pressure (bar)	uptake (cm3(STP)/g)
0.0031028	51.6699
0.00694513	66.4343
0.0220813	82.6806
0.0419066	96.4689
0.0475683	99.9163
0.0626294	102.384
0.0701667	104.849
0.0965432	112.735
0.110661	114.711
0.120071	115.7
0.144551	120.633
0.162428	122.118
0.171836	122.615
0.185954	124.59
0.194424	125.579
0.204774	126.568
0.214182	127.065
0.223589	127.562
0.232059	128.55
0.240531	130.031
0.248055	130.035
0.256522	130.531
0.265933	131.52
0.275343	132.509
0.28381	133.005
0.292277	133.502
0.300744	133.998
0.309214	134.986
0.318621	135.483
0.328029	135.98
0.340269	138.447
0.348728	137.467
0.357197	138.455
0.366605	138.952
0.375072	139.449
0.38448	139.945
0.392949	140.934
0.402351	140.447
0.410818	140.943
0.420229	141.932
0.423993	142.426
0.433401	142.923
0.442808	143.419
0.451275	143.916
0.460683	144.413
0.471031	144.91
0.479498	145.406
0.487965	145.903
0.497373	146.4
0.506778	146.404
0.516185	146.901
0.524652	147.398
0.534062	148.387
0.543465	147.899
0.552872	148.396
0.563223	149.385
0.57263	149.882
0.582038	150.379
0.590502	150.383
0.59991	150.88
0.609315	150.885
0.617782	151.381
0.627189	151.878
0.636597	152.375
0.642243	152.87
0.651647	152.875
0.661055	153.372
0.670462	153.868
0.67517	154.855
0.682691	154.367
0.691159	154.863
0.700563	154.868
0.709971	155.365
0.719376	155.369
0.727846	156.358
0.738194	156.855
0.747598	156.86
0.757006	157.357
0.766414	157.854
0.773943	158.842
0.77958	157.86
0.788047	158.357
0.796514	158.853
0.81533	159.847
0.824737	160.344
0.834142	160.348
0.84355	160.845
0.852954	160.85
0.862359	160.855
0.869891	162.335
0.879291	161.355
0.887758	161.852
0.897165	162.349
0.918802	163.344
0.928209	163.841
0.938557	164.338
0.947962	164.343
0.957367	164.347
0.965837	165.336
0.97242	165.339
