Adsorption isotherm of Carbon Dioxide on Activated [Zn2(sdc)2(bpe]
DOI: 10.1002/cplu.201600259
Article source: Figure 3
Adsorbate Carbon Dioxide: InChIKey CURLTUGMZLYLDI-UHFFFAOYSA-N
Kind: experiment
Temperature: 195 K
Tabular data in the source: 0
pressure (bar)	uptake (cm3(STP)/g)
0.00058	11.467
0.00116	14.705
0.00161	16.084
0.00232	22.553
0.00271	24.087
0.00278	27.93
0.00297	26.026
0.00355	29.122
0.00484	30.73
0.00555	31.733
0.00607	33.981
0.00704	34.769
0.00775	35.691
0.00872	37.05
0.01078	37.663
0.01265	32.897
0.01808	37.811
0.01814	37.845
0.02143	35.401
0.02227	38.921
0.02499	36.592
0.02963	40.483
0.03222	37.239
0.03628	38.08
0.03938	42.132
0.04242	40.106
0.05081	43.545
0.05204	43.242
0.06198	51.237
0.06288	51.662
0.07831	59.705
0.08051	60.176
0.0993	66.361
0.10362	67.66
0.12661	69.686
0.15895	71.227
0.16108	71.355
0.19742	72.578
0.19947	72.588
0.24887	73.614
0.25225	73.582
0.31784	74.532
0.39789	75.169
0.39912	75.172
0.50027	75.898
0.50181	75.913
0.56115	76.005
0.56535	76.336
0.62971	76.912
0.63371	76.752
0.70626	77.621
0.70821	77.628
0.79297	78.508
0.79471	78.535
0.8905	80.073
0.89186	80.099
0.9978	80.274
