Adsorption isotherm of Acetylene on Activated [Zn2(sdc)2(bpe]
DOI: 10.1002/cplu.201600259
Article source: Figure 3
Adsorbate Acetylene: InChIKey HSFWRNGVRCDJHI-UHFFFAOYSA-N
Kind: experiment
Temperature: 298 K
Tabular data in the source: 0
pressure (bar)	uptake (cm3(STP)/g)
0.00123	0.053
0.002	0.502
0.00252	0.787
0.00264	1.025
0.00341	1.679
0.00342	1.679
0.00445	2.085
0.00548	2.567
0.00767	3.217
0.0096	3.904
0.01141	4.43
0.01322	4.92
0.0158	5.432
0.01916	6.104
0.02419	6.922
0.03023	8.202
0.03756	9.063
0.05009	10.371
0.0636	11.526
0.07662	12.359
0.10072	13.492
0.12413	14.206
0.15706	14.992
0.19768	15.682
0.25003	16.308
0.31582	16.833
0.39725	17.32
0.50001	17.766
0.56238	18.019
0.63175	18.254
0.70776	18.48
0.79436	18.684
0.89027	18.859
0.99652	19.034
