Adsorption isotherm of Ethene on Activated [Zn2(sdc)2(bpe]
DOI: 10.1002/cplu.201600259
Article source: Figure 3
Adsorbate Ethene: InChIKey VGGSQFUCUMXWEO-UHFFFAOYSA-N
Kind: experiment
Temperature: 298 K
Tabular data in the source: 0
pressure (bar)	uptake (cm3(STP)/g)
0.00123	0.0585
0.00381	0.5427
0.00879	1.2097
0.00898	1.2026
0.01157	1.4198
0.01454	1.7049
0.01635	1.9187
0.01964	2.3499
0.02281	2.8397
0.02597	3.3111
0.03185	3.8337
0.03864	4.455
0.04859	5.2115
0.06075	6.039
0.08024	7.1819
0.09912	7.9708
0.12333	8.7598
0.15677	9.5836
0.1972	10.4016
0.24891	11.179
0.31416	11.9216
0.39583	12.6932
0.4987	13.3321
0.56178	13.8218
0.63159	14.1508
0.70812	14.4358
0.79473	14.7136
0.89192	14.8571
0.99545	15.0166
