Adsorption isotherm of Ethane on Activated [Zn2(sdc)2(bpe]
DOI: 10.1002/cplu.201600259
Article source: Figure 3
Adsorbate Ethane: InChIKey OTMSDBZUPAUEDD-UHFFFAOYSA-N
Kind: experiment
Temperature: 298 K
Tabular data in the source: 0
pressure (bar)	uptake (cm3(STP)/g)
0.00287	0.0831
0.00493	0.1934
0.00688	0.3935
0.00996	0.6198
0.01386	0.8432
0.01704	1.0376
0.02146	1.2493
0.02402	1.4292
0.02946	1.5743
0.03142	1.8383
0.03655	2.0878
0.04373	2.4272
0.05031	2.8043
0.06211	3.3758
0.07853	3.8951
0.09886	4.6233
0.12371	5.3676
0.15565	6.0913
0.19651	6.8278
0.2514	7.8093
0.31409	8.5498
0.39896	9.5677
0.50223	10.4797
0.56138	10.9863
0.63023	11.4997
0.70716	11.975
0.79469	12.4229
0.89062	12.8452
0.99367	13.3571
