Adsorption isotherm of N-propane on Activated [Zn2(sdc)2(bpe]
DOI: 10.1002/cplu.201600259
Article source: Figure 3
Adsorbate N-propane: InChIKey ATUOYWHBWRKTHZ-UHFFFAOYSA-N
Kind: experiment
Temperature: 298 K
Tabular data in the source: 0
pressure (bar)	uptake (cm3(STP)/g)
0.00116	0.0877
0.00763	0.1133
0.01707	0.1389
0.02734	0.1554
0.03671	0.1591
0.0468	0.1774
0.06091	0.2
0.07804	0.2059
0.1	0.2407
0.12545	0.2466
0.16013	0.2583
0.20045	0.2699
0.25102	0.2875
0.31617	0.2461
0.39696	0.2325
0.50038	0.2235
0.56195	0.2558
0.62938	0.2928
0.7087	0.2837
0.79454	0.2977
0.89119	0.3147
0.99328	0.3162
