Adsorption isotherm of N-Butane on Activated [Zn2(sdc)2(bpe]
DOI: 10.1002/cplu.201600259
Article source: Figure 3
Adsorbate N-Butane: InChIKey IJDNQMDRQITEOD-UHFFFAOYSA-N
Kind: experiment
Temperature: 298 K
Tabular data in the source: 0
pressure (bar)	uptake (cm3(STP)/g)
0.00141	0.0742
0.01037	0.0811
0.01892	0.0787
0.02731	0.0879
0.03553	0.0994
0.04873	0.1592
0.06485	0.1707
0.08057	0.1868
0.10125	0.1868
0.12641	0.2097
0.15972	0.2327
0.20117	0.2257
0.25133	0.2233
0.31638	0.2406
0.39948	0.2057
0.50156	0.133
0.56343	0.1532
0.63145	0.1791
0.70793	0.2143
0.79479	0.2324
0.892	0.2724
0.99696	0.3014
