Adsorption isotherm of Propene on Activated [Zn2(sdc)2(bpe]
DOI: 10.1002/cplu.201600259
Article source: Figure 3
Adsorbate Propene: InChIKey QQONPFPTGQHPMA-UHFFFAOYSA-N
Kind: experiment
Temperature: 298 K
Tabular data in the source: 0
pressure (bar)	uptake (cm3(STP)/g)
0.00168	0.0731
0.01144	0.1773
0.02023	0.234
0.0287	0.2797
0.03859	0.3072
0.04686	0.3365
0.06166	0.3493
0.08039	0.3684
0.10115	0.3708
0.12827	0.4123
0.16035	0.4262
0.20139	0.4586
0.25302	0.4887
0.31929	0.4764
0.4017	0.4665
0.50304	0.4405
0.56425	0.4718
0.63211	0.5122
0.7079	0.4904
0.7952	0.523
0.89058	0.506
0.99769	0.5006
