Adsorption isotherm of Argon on NOTT-119a (desolvated)
DOI: 10.1039/C1cc13170b
Adsorbate Argon: InChIKey XKRFYHLGVUSROY-UHFFFAOYSA-N
Temperature: 87 K
Tabular data in the source: 0
pressure (bar)	uptake (cm3(STP)/g)
0.00373959	109.733
0.00390787	213.671
0.0166178	363.877
0.0309872	439.027
0.0829441	629.884
0.10261	676.194
0.11697	745.57
0.134892	814.967
0.147461	878.558
0.167155	942.191
0.190439	1023.17
0.213703	1092.6
0.222721	1161.94
0.231747	1237.06
0.242592	1335.29
0.255227	1439.3
0.260794	1577.91
0.280432	1606.9
0.29467	1601.21
0.324966	1612.94
0.346347	1618.84
0.396251	1642.23
0.442576	1654.05
0.490681	1665.88
0.520985	1683.38
0.542348	1677.73
0.561948	1683.62
0.590444	1683.79
0.613615	1695.47
0.629653	1701.34
0.649253	1707.23
0.668947	1770.87
0.692118	1782.55
0.709956	1799.98
0.727813	1828.95
0.749203	1840.63
0.788413	1858.18
0.816936	1875.67
0.849022	1893.18
0.881136	1928.02
0.938155	1945.68
0.966698	1974.72
0.97744	2009.43
