Adsorption isotherm of Hydrogen on NOTT-119a (desolvated)
DOI: 10.1039/C1cc13170b
Adsorbate Hydrogen: InChIKey UFHFLCQGNIYNRP-UHFFFAOYSA-N
Temperature: 77 K
Tabular data in the source: 0
pressure (bar)	uptake (mmol/g)
0.323973	0.677958
1.81056	10.1763
3.96894	15.058
6.13436	18.175
8.7386	20.4767
11.1283	21.9644
13.7353	23.5874
16.0182	24.5324
18.7363	25.6121
22.4343	26.6897
26.134	27.36
29.9426	28.0301
33.7517	28.5644
37.3441	28.8277
41.0449	29.2266
44.6378	29.3542
48.4502	29.0741
51.937	28.5233
55.6405	28.2434
59.4544	27.5561
