Adsorption isotherm of Hydrogen on NOTT-119a (desolvated)
DOI: 10.1039/C1cc13170b
Adsorbate Hydrogen: InChIKey UFHFLCQGNIYNRP-UHFFFAOYSA-N
Temperature: 77 K
Tabular data in the source: 0
pressure (bar)	uptake (mmol/g)
0.00081912	0.40823
0.223347	2.17723
0.558094	5.30699
1.22131	8.43675
1.77476	11.4304
2.76535	14.0159
3.97519	16.7374
5.51295	19.1868
7.05044	21.5001
8.91667	23.9495
11.0013	26.1267
12.8656	27.6236
15.3877	29.5286
17.4716	31.2976
19.4451	32.6584
21.4184	33.8831
23.1726	35.1078
25.9131	36.7407
27.9956	37.8293
30.2973	39.054
32.9284	40.6869
35.1198	41.5034
37.7505	43.0002
40.1612	43.9528
42.7911	45.0414
45.4213	46.2661
48.4889	47.2186
51.6655	47.899
54.7331	48.8515
57.5811	49.5319
59.7717	49.9401
