Adsorption isotherm of Hydrogen on NOTT-119a (desolvated)
DOI: 10.1039/C1cc13170b
Adsorbate Hydrogen: InChIKey UFHFLCQGNIYNRP-UHFFFAOYSA-N
Temperature: 78 K
Tabular data in the source: 0
pressure (bar)	uptake (wt%)
0.0112766	0.167477
0.0195982	0.214014
0.0306565	0.254359
0.0431151	0.310211
0.054152	0.338152
0.0734788	0.394026
0.0941738	0.446804
0.116232	0.493384
0.139674	0.54617
0.164479	0.592758
0.179643	0.623813
0.204432	0.661099
0.252642	0.738768
0.276052	0.772949
0.302215	0.810239
0.353146	0.872413
0.405446	0.93149
0.453619	0.987453
0.481134	1.01234
0.505902	1.03723
0.532043	1.06211
0.581585	1.11498
0.631121	1.16475
0.682009	1.20211
0.706772	1.2239
0.730171	1.25188
0.757687	1.27677
0.78107	1.29545
0.827833	1.3297
0.881484	1.37638
0.90762	1.39816
0.932372	1.41374
0.957125	1.42932
0.996997	1.45115
