Adsorption isotherm of Methane on NOTT-119a (desolvated)
DOI: 10.1039/C1cc13170b
Adsorbate Methane: InChIKey VNWKTOKETHGBQD-UHFFFAOYSA-N
Temperature: 298 K
Tabular data in the source: 0
pressure (bar)	uptake (mmol/g)
2.35756	0.986698
4.8723	1.75413
8.17289	2.79565
11.4735	3.89198
16.1886	4.93349
20.4322	6.85207
25.1473	8.05804
30.0196	8.98992
34.1061	9.70254
38.5069	10.2507
42.9077	10.6892
47.3084	11.0181
51.8664	11.1826
56.5815	11.5115
61.1395	11.6211
66.0118	12.0596
70.5697	12.0596
75.1277	11.95
79.5285	11.7856
83.3006	11.0729
