Adsorption isotherm of Argon on NOTT-119a (desolvated)
DOI: 10.1039/C1cc13170b
Adsorbate Argon: InChIKey XKRFYHLGVUSROY-UHFFFAOYSA-N
Temperature: 87 K
Tabular data in the source: 0
pressure (bar)	uptake (mmol/g)
0.00436554	255.162
0.0200467	395.621
0.0310806	458.003
0.0405407	509.986
0.0642571	598.276
0.108617	707.18
0.129185	774.67
0.152951	831.71
0.163969	904.509
0.184554	961.583
0.203482	1060.34
0.220812	1164.32
0.230222	1247.56
0.244387	1341.16
0.245895	1393.22
0.260193	1403.49
0.264815	1497.19
0.274308	1528.34
0.291746	1564.61
0.315553	1595.61
0.337803	1605.79
0.372777	1615.83
0.457023	1646.19
0.5222	1666.33
0.57785	1676.16
0.622367	1686.1
0.635074	1696.38
0.668375	1758.53
0.716015	1804.9
0.76527	1835.63
0.822477	1866.27
0.868552	1897.03
0.914634	1922.58
0.927358	1922.45
