Adsorption isotherm of Hydrogen on NOTT-119a (desolvated)
DOI: 10.1039/C1cc13170b
Adsorbate Hydrogen: InChIKey UFHFLCQGNIYNRP-UHFFFAOYSA-N
Temperature: 88 K
Tabular data in the source: 0
pressure (bar)	uptake (wt%)
0.00840685	0.0961501
0.0208601	0.148902
0.0387918	0.192368
0.055334	0.226528
0.0746075	0.251394
0.0911443	0.282453
0.11317	0.310428
0.136581	0.34461
0.164107	0.375703
0.202643	0.419233
0.252184	0.4721
0.30172	0.521866
0.352619	0.565434
0.40215	0.6121
0.426907	0.630781
0.451665	0.649463
0.502548	0.683729
0.553431	0.717995
0.602951	0.758459
0.652444	0.783418
0.679949	0.802108
0.703332	0.820786
0.75282	0.842644
0.778951	0.86133
0.827087	0.895588
0.879323	0.917455
0.953568	0.957996
1.00168	0.97985
