Adsorption isotherm of Nitrogen on NOTT-119a (desolvated)
DOI: 10.1039/C1cc13170b
Adsorbate Nitrogen: InChIKey IJGRMHOSHXDMSA-UHFFFAOYSA-N
Temperature: 77 K
Tabular data in the source: 0
pressure (bar)	uptake (cm3(STP)/g)
0.0019265	135.502
0.00212546	314.735
0.00363949	78.6558
0.00397917	384.664
0.00936562	437.074
0.0183236	506.939
0.0308095	554.914
0.0468523	607.229
0.0664619	672.626
0.0860618	729.28
0.100338	790.354
0.119909	820.779
0.137718	864.334
0.157299	903.502
0.180456	964.496
0.191175	1021.23
0.205432	1064.82
0.214376	1121.57
0.223324	1182.69
0.235824	1243.78
0.243016	1322.4
0.248373	1348.58
0.280347	1352.67
0.294566	1361.28
0.337206	1374.01
0.386941	1377.94
0.438466	1394.96
0.486425	1398.9
0.536164	1407.2
0.580586	1424.28
0.632092	1423.82
0.680055	1432.13
0.731561	1431.67
0.781301	1439.96
0.829274	1457.02
0.873686	1465.36
0.930525	1469.22
0.953648	1499.61
0.962547	1517.02
