Adsorption isotherm of Methane on NOTT-119a (desolvated)
DOI: 10.1039/C1cc13170b
Adsorbate Methane: InChIKey VNWKTOKETHGBQD-UHFFFAOYSA-N
Temperature: 298 K
Tabular data in the source: 0
pressure (bar)	uptake (mmol/g)
0.314342	0.109633
2.04322	1.09633
4.71513	2.24748
8.01572	3.56308
11.6306	4.82386
16.3458	6.41354
20.5894	8.9351
25.3045	10.6344
30.0196	11.8952
34.1061	12.9915
38.664	14.033
43.222	14.9101
47.4656	15.7872
52.1807	16.6094
56.7387	17.322
61.2967	18.0895
66.0118	19.0762
70.5697	19.6243
74.9705	20.0629
79.5285	20.3918
83.3006	20.1177
