Adsorption isotherm of Nitrogen on UiO-66
DOI: 10.1002/anie.201502094
Article source: Figure 2
Adsorbate Nitrogen: InChIKey IJGRMHOSHXDMSA-UHFFFAOYSA-N
Kind: experiment
Temperature: 77 K
Tabular data in the source: 0
pressure (bar)	uptake (mmol/g)
0	0
0	1.01587
0.002237	10.6667
0.004474	8.57143
0.008947	11.2381
0.015657	11.8095
0.031315	12.0635
0.060392	12.381
0.093944	12.5714
0.105128	12.5714
0.131969	12.6349
0.147625	12.6984
0.165519	12.6984
0.183413	12.7619
0.205782	12.8254
0.250517	12.8889
0.308672	12.9524
0.357881	13.0159
0.407089	13.0794
0.460771	13.0794
0.50998	13.1429
0.559188	13.2063
0.610634	13.2063
0.659843	13.2063
0.702341	13.2698
0.713525	13.2698
0.75826	13.3333
0.76497	13.3333
0.805232	13.3333
0.818652	13.3333
0.856678	13.3968
0.863387	13.3968
0.903649	13.5238
0.914833	13.4603
0.937201	13.6508
0.948384	13.6508
0.957331	13.7143
0.972989	13.8413
0.981936	13.9683
