Adsorption isotherm of Nitrogen on UiO-66@LiOtBu
DOI: 10.1002/anie.201502094
Article source: Figure 2
Adsorbate Nitrogen: InChIKey IJGRMHOSHXDMSA-UHFFFAOYSA-N
Kind: experiment
Temperature: 77 K
Tabular data in the source: 0
pressure (bar)	uptake (mmol/g)
0	0
0.002242	0.063492
0.004483	4.19048
0.006725	4.63492
0.0269	5.01587
0.058284	5.07937
0.082943	5.20635
0.100877	5.20635
0.127777	5.20635
0.143469	5.26984
0.163644	5.26984
0.18382	5.26984
0.203995	5.26984
0.248829	5.33333
0.304872	5.33333
0.35419	5.46032
0.403507	5.39683
0.459549	5.46032
0.508866	5.46032
0.558184	5.46032
0.607502	5.46032
0.661303	5.46032
0.712862	5.52381
0.757696	5.52381
0.764421	5.5873
0.807013	5.52381
0.813738	5.52381
0.854089	5.52381
0.86754	5.5873
0.912373	5.5873
0.930307	5.65079
0.943757	5.71429
0.957207	5.84127
0.970658	5.84127
0.981867	5.90476
