Adsorption isotherm of Nitrogen on UiO-66@AcO
DOI: 10.1002/anie.201502094
Article source: Figure 2
Adsorbate Nitrogen: InChIKey IJGRMHOSHXDMSA-UHFFFAOYSA-N
Kind: experiment
Temperature: 77 K
Tabular data in the source: 0
pressure (bar)	uptake (mmol/g)
0	0
0.002237	14.7937
0.004474	15.6825
0.00671	16.381
0.011184	17.0794
0.031315	18.2857
0.069339	18.6667
0.10289	18.7302
0.131969	18.9206
0.145389	18.7937
0.185651	18.9841
0.208018	18.9841
0.252753	18.9841
0.306435	19.1111
0.357881	19.1111
0.407089	19.1111
0.458535	19.1746
0.50998	19.2381
0.559188	19.2381
0.610634	19.3016
0.66208	19.3016
0.706815	19.3016
0.713525	19.3651
0.747076	19.3651
0.75826	19.4286
0.794048	19.3651
0.805232	19.4286
0.85444	19.4921
0.867861	19.5556
0.905886	19.619
0.921543	19.6825
0.932727	19.746
0.946148	19.8095
0.959568	20
