Adsorption isotherm of Nitrogen on UiO-66@So4H
DOI: 10.1002/anie.201502094
Article source: Figure 2
Adsorbate Nitrogen: InChIKey IJGRMHOSHXDMSA-UHFFFAOYSA-N
Kind: experiment
Temperature: 77 K
Tabular data in the source: 0
pressure (bar)	uptake (mmol/g)
0	1.01587
0.006725	5.90476
0.008967	6.28571
0.033626	6.66667
0.062768	6.92063
0.080701	6.85714
0.103118	6.92063
0.121052	7.04762
0.141228	7.11111
0.163644	7.11111
0.18382	7.1746
0.201753	7.2381
0.253312	7.1746
0.300388	7.30159
0.358672	7.30159
0.405748	7.2381
0.457307	7.30159
0.506625	7.30159
0.555943	7.36508
0.609743	7.49206
0.661303	7.42857
0.703895	7.49206
0.71062	7.55556
0.75097	7.55556
0.802529	7.61905
0.863056	7.74603
0.916856	8
0.939274	8
0.957207	8.25397
0.970658	8.44444
0.984108	8.69841
