Adsorption isotherm of Ethanol on Cr-MIL(101)
DOI: 10.1016/j.apenergy.2013.06.041
Adsorbate Ethanol: InChIKey LFQSCWFLJHTTHZ-UHFFFAOYSA-N
Temperature: 288 K
Tabular data in the source: 0
pressure (bar)	uptake (g/g)
1.55e-05	0.247327
0.00432624	0.556268
0.00857363	0.862151
0.0131042	1.07321
0.0172572	1.09768
0.0220709	1.11909
0.0301882	1.14356
0.035285	1.16497
0.0389661	1.19862
0.041137	1.1925
