Adsorption isotherm of Ethanol on MIL-53(Cr)
DOI: 10.1016/j.apenergy.2013.06.041
Adsorbate Ethanol: InChIKey LFQSCWFLJHTTHZ-UHFFFAOYSA-N
Temperature: 298 K
Tabular data in the source: 0
pressure (bar)	uptake (g/g)
0.000144	0.00873899
0.00806355	0.155563
0.0132286	0.225915
0.0211483	0.311563
0.025969	0.351327
0.0471457	0.372739
0.0559263	0.372739
0.065912	0.375798
0.0729709	0.378857
