Adsorption isotherm of Ethanol on Fe-BTC
DOI: 10.1016/j.apenergy.2013.06.041
Adsorbate Ethanol: InChIKey LFQSCWFLJHTTHZ-UHFFFAOYSA-N
Temperature: 298 K
Tabular data in the source: 0
pressure (bar)	uptake (g/g)
0.000144	0.00873899
0.00410368	0.173915
0.00892439	0.228974
0.0127121	0.244268
0.02287	0.253445
0.0352661	0.262621
0.0481787	0.26568
0.0626408	0.274857
0.0736596	0.277915
