Adsorption isotherm of Ethanol on MIL-101(Cr)
DOI: 10.1016/j.apenergy.2013.06.041
Adsorbate Ethanol: InChIKey LFQSCWFLJHTTHZ-UHFFFAOYSA-N
Temperature: 308 K
Tabular data in the source: 0
pressure (bar)	uptake (g/g)
0.000251	0.180533
0.0143707	0.487289
0.0272888	0.794045
0.0408077	1.00117
0.0693476	1.04836
0.0990892	1.08245
0.130934	1.10605
