Adsorption isotherm of Ethanol on CuBTC
DOI: 10.1016/j.apenergy.2013.06.041
Adsorbate Ethanol: InChIKey LFQSCWFLJHTTHZ-UHFFFAOYSA-N
Temperature: 298 K
Tabular data in the source: 0
pressure (bar)	uptake (g/g)
0.000144	0.00568017
0.00410368	0.268739
0.0161554	0.290151
0.0244195	0.296268
0.039226	0.296268
0.0542046	0.311563
0.0715936	0.302386
0.0746926	0.308504
