Adsorption isotherm of Ethanol on MOF-74-Ni
DOI: 10.1016/j.apenergy.2013.06.041
Adsorbate Ethanol: InChIKey LFQSCWFLJHTTHZ-UHFFFAOYSA-N
Temperature: 298 K
Tabular data in the source: 0
pressure (bar)	uptake (g/g)
0.000144	0.00873899
0.00771921	0.222857
0.0154668	0.228974
0.023903	0.235092
0.0313062	0.244268
0.0397425	0.247327
0.0548933	0.259563
0.0629852	0.268739
0.0745204	0.277915
