Adsorption isotherm of Ethanol on Cr-MIL(101)
DOI: 10.1016/j.apenergy.2013.06.041
Adsorbate Ethanol: InChIKey LFQSCWFLJHTTHZ-UHFFFAOYSA-N
Temperature: 328 K
Tabular data in the source: 0
pressure (bar)	uptake (g/g)
0.00149491	0.135961
0.0365193	0.16218
0.0764308	0.516129
0.11227	0.820264
0.152181	0.988062
0.189649	1.01428
0.264585	1.03001
0.354997	1.04312
