Adsorption isotherm of Ethanol on MIL-101(Cr)
DOI: 10.1016/j.apenergy.2013.06.041
Adsorbate Ethanol: InChIKey LFQSCWFLJHTTHZ-UHFFFAOYSA-N
Temperature: 318 K
Tabular data in the source: 0
pressure (bar)	uptake (g/g)
0.000421	0.193642
0.0225895	0.505642
0.0457657	0.796667
0.0684382	0.998549
0.0926221	1.03263
0.136455	1.05623
0.180793	1.08245
0.219588	1.08769
