Adsorption isotherm of Ethanol on Cr-MIL(101)
DOI: 10.1016/j.apenergy.2013.06.041
Adsorbate Ethanol: InChIKey LFQSCWFLJHTTHZ-UHFFFAOYSA-N
Temperature: 298 K
Tabular data in the source: 0
pressure (bar)	uptake (g/g)
0.000144	0.00873899
0.00358718	0.360504
0.00720271	0.479798
0.0113347	0.568504
0.0128843	0.651092
0.0154668	0.758151
0.0161554	0.800974
0.018738	0.849915
0.0211483	0.920268
0.0235587	1.01509
0.0406033	1.07015
0.0531716	1.08544
0.0714214	1.11909
0.0738318	1.12215
