Adsorption isotherm of Ethanol on MIL-100(Cr)
DOI: 10.1016/j.apenergy.2013.06.041
Adsorbate Ethanol: InChIKey LFQSCWFLJHTTHZ-UHFFFAOYSA-N
Temperature: 298 K
Tabular data in the source: 0
pressure (bar)	uptake (g/g)
0.000144	0.00873899
0.00789138	0.384974
0.0152946	0.504268
0.0235587	0.528739
0.0395703	0.574621
0.0550654	0.602151
0.0702162	0.632739
0.0743483	0.644974
