Adsorption isotherm of Ethanol on Silica
DOI: 10.1016/j.apenergy.2013.06.041
Adsorbate Ethanol: InChIKey LFQSCWFLJHTTHZ-UHFFFAOYSA-N
Temperature: 298 K
Tabular data in the source: 0
pressure (bar)	uptake (g/g)
0.000488	0.00262134
0.00530886	0.112739
0.0104739	0.170857
0.017705	0.18921
0.0299289	0.204504
0.0449075	0.219798
0.0593696	0.21368
0.0733152	0.219798
