Adsorption isotherm of Ethanol on MIL-101(Cr)
DOI: 10.1016/j.apenergy.2013.06.041
Adsorbate Ethanol: InChIKey LFQSCWFLJHTTHZ-UHFFFAOYSA-N
Temperature: 298 K
Tabular data in the source: 0
pressure (bar)	uptake (g/g)
0.000316	0.206751
0.00754704	0.497776
0.0154668	0.783558
0.0233865	1.00379
0.0314784	1.02215
0.0461127	1.05885
0.0621243	1.08507
0.0715936	1.10605
0.0746926	1.10605
