Adsorption isotherm of Nitrogen on TDFP-1
DOI: 10.1002/cssc.201601571
Article source: Figure 2
Adsorbate Nitrogen: InChIKey IJGRMHOSHXDMSA-UHFFFAOYSA-N
Kind: experiment
Temperature: 77 K
Tabular data in the source: 0
pressure (bar)	uptake (cm3(STP)/g)
0.031479	117.133
0.054411	132.628
0.094463	149.76
0.111824	158.821
0.16139	173.379
0.186367	177.608
0.212379	183.903
0.236603	188.1
0.263839	193.574
0.314198	202.008
0.491518	225.773
0.518241	229.431
0.543323	232.462
0.569309	237.015
0.593245	239.17
0.620378	243.966
0.644368	247.5
0.671746	253.176
0.72339	262.54
0.748514	268.824
0.773457	274.704
0.795799	281.623
0.823461	293.145
0.847931	299.479
0.880416	312.24
0.900702	317.176
0.947009	342.309
0.973261	362.389
0.992411	378.08
0.049324	143.852
0.088783	158.082
0.129651	166.125
0.140925	169.219
0.290305	198.917
0.342447	206.342
0.369223	211.292
0.395999	213.766
0.418547	217.479
0.448141	221.191
0.466461	223.666
0.604568	241.609
0.65671	250.271
0.690532	255.839
0.706738	259.551
0.759585	271.926
0.808909	288.012
0.858233	306.574
0.876553	305.336
0.907556	328.848
0.925877	328.848
0.951243	356.071
1.01325	398.144
