Adsorption isotherm of Methylene blue on HKUST-1 (1 pot)
DOI: 10.1016/j.jcis.2016.11.100
Article source: Figure 9
Adsorbate Methylene blue: InChIKey CXKWCBBOMKCUKX-UHFFFAOYSA-M
Kind: experiment
Temperature: 298 K
Tabular data in the source: 0
pressure (bar)	uptake (mg/g)
1.01325	1.35
1.01325	256.27
1.01325	280.16
1.01325	343.71
1.01325	376.35
1.01325	415.17
1.01325	420.42
