Adsorption isotherm of Methylene blue on UiO-66
DOI: 10.1016/j.jcis.2016.11.100
Article source: Figure 9
Adsorbate Methylene blue: InChIKey CXKWCBBOMKCUKX-UHFFFAOYSA-M
Kind: experiment
Temperature: 298 K
Tabular data in the source: 0
pressure (bar)	uptake (mg/g)
1.01325	1.35
1.01325	43.47
1.01325	71.98
1.01325	97.58
1.01325	97.37
1.01325	104.1
1.01325	101
