Adsorption isotherm of Methylene blue on UiO-66 with 5% HKUST-1
DOI: 10.1016/j.jcis.2016.11.100
Article source: Figure 9
Adsorbate Methylene blue: InChIKey CXKWCBBOMKCUKX-UHFFFAOYSA-M
Kind: experiment
Temperature: 298 K
Tabular data in the source: 0
pressure (bar)	uptake (mg/g)
1.01325	1.35
1.01325	124.93
1.01325	177.12
1.01325	185.5
1.01325	194.59
1.01325	195.61
1.01325	196.09
