Adsorption isotherm of Methylene blue on AC(98%)
DOI: 10.1016/j.jcis.2016.11.100
Article source: Figure 9
Adsorbate Methylene blue: InChIKey CXKWCBBOMKCUKX-UHFFFAOYSA-M
Kind: experiment
Temperature: 298 K
Tabular data in the source: 0
pressure (bar)	uptake (mg/g)
1.01325	1.35
1.01325	147.25
1.01325	213.6
1.01325	276.77
1.01325	278.21
1.01325	278.53
1.01325	278.98
