Adsorption isotherm of Methylene blue on HKUST-1 with 5% UiO-66
DOI: 10.1016/j.jcis.2016.11.100
Article source: Figure 9
Adsorbate Methylene blue: InChIKey CXKWCBBOMKCUKX-UHFFFAOYSA-M
Kind: experiment
Temperature: 298 K
Tabular data in the source: 0
pressure (bar)	uptake (mg/g)
1.01325	1.35
1.01325	271.93
1.01325	297.26
1.01325	414.16
1.01325	478.73
1.01325	486.12
1.01325	498.55
