Adsorption isotherm of M-Xylene, P-Xylene on Zeolite BaXa
DOI: 10.1021/jp0525639
Article source: Table 3
Adsorbate M-Xylene: InChIKey IVSZLXZYQVIEFR-UHFFFAOYSA-N
Adsorbate P-Xylene: InChIKey URLKBWYHVLBVBO-UHFFFAOYSA-N
Kind: experiment
Temperature: 423 K
Tabular data in the source: 0
pressure (bar)	M-Xylene fraction	M-Xylene uptake (molecules/unitcell)	P-Xylene fraction	P-Xylene uptake (molecules/unitcell)	total uptake (molecules/unitcell)
1e-06	0.5	1.984	0.5	1.216	3.2
3e-06	0.5	3.66	0.5	2.44	6.1
5e-06	0.5	4.806	0.5	4.094	8.9
1.3e-05	0.5	6.519	0.5	5.781	12.3
1.6e-05	0.5	8.758	0.5	6.342	15.1
3.6e-05	0.5	10.44	0.5	6.96	17.4
4.2e-05	0.5	10.638	0.5	9.062	19.7
0.000104	0.5	13.275	0.5	9.225	22.5
0.000607	0.49	16.12	0.51	8.68	24.8
0.00172	0.48	15.3	0.52	10.2	25.5
0.002742	0.47	15.78	0.53	10.52	26.3
0.003307	0.46	15.96	0.54	10.64	26.6
