Adsorption isotherm of M-Xylene, P-Xylene on Zeolite BaYa
DOI: 10.1021/jp0525639
Article source: Table 3
Adsorbate M-Xylene: InChIKey IVSZLXZYQVIEFR-UHFFFAOYSA-N
Adsorbate P-Xylene: InChIKey URLKBWYHVLBVBO-UHFFFAOYSA-N
Kind: experiment
Temperature: 423 K
Tabular data in the source: 0
pressure (bar)	M-Xylene fraction	M-Xylene uptake (molecules/unitcell)	P-Xylene fraction	P-Xylene uptake (molecules/unitcell)	total uptake (molecules/unitcell)
8e-06	0.52	0.728	0.48	0.572	1.3
2.2e-05	0.52	2.337	0.48	1.763	4.1
5.9e-05	0.52	4.374	0.48	3.726	8.1
8.6e-05	0.52	6.726	0.48	5.074	11.8
0.000117	0.52	10.048	0.48	5.652	15.7
0.00033	0.52	12.24	0.48	4.76	17
0.000354	0.5	12.425	0.5	5.075	17.5
0.000415	0.49	12.922	0.51	5.278	18.2
0.000594	0.48	13.348	0.52	5.452	18.8
0.000831	0.48	13.703	0.52	5.597	19.3
0.001168	0.48	14.839	0.52	6.061	20.9
0.002556	0.48	15.052	0.52	6.148	21.2
0.003533	0.48	15.265	0.52	6.235	21.5
