Adsorption isotherm of Carbon Dioxide on MIL-101
DOI: 10.1021/Jp811418r
Adsorbate Carbon Dioxide: InChIKey CURLTUGMZLYLDI-UHFFFAOYSA-N
Temperature: 319 K
Tabular data in the source: 0
pressure (bar)	uptake (mmol/g)
0.982211	2.42928
2.26961	2.94294
3.20855	3.81741
3.69546	4.22888
4.63451	5.00037
5.9909	6.13189
7.3473	7.26342
8.21689	7.88049
8.70384	8.24046
9.05162	8.54909
