Adsorption isotherm of Carbon Dioxide on MIL-101
DOI: 10.1021/Jp811418r
Adsorbate Carbon Dioxide: InChIKey CURLTUGMZLYLDI-UHFFFAOYSA-N
Temperature: 351 K
Tabular data in the source: 0
pressure (bar)	uptake (mmol/g)
2.40946	2.32486
4.32227	3.97078
5.46986	5.05102
6.44372	5.82247
7.4872	6.59385
8.4263	7.31384
9.0872	7.77663
