Adsorption isotherm of Sulfur Hexafluoride on MIL-101
DOI: 10.1021/Jp811418r
Adsorbate Sulfur Hexafluoride: InChIKey SFZCNBIFKDRMGX-UHFFFAOYSA-N
Temperature: 283 K
Tabular data in the source: 0
pressure (bar)	uptake (mmol/g)
0.976997	4.98251
2.55465	5.79071
3.41172	6.11497
4.08857	6.33161
4.94506	6.76271
6.25031	7.78341
7.46458	8.91057
8.5453	9.66318
9.13145	9.93285
