Adsorption isotherm of N-propane on MIL-101
DOI: 10.1021/Jp811418r
Adsorbate N-propane: InChIKey ATUOYWHBWRKTHZ-UHFFFAOYSA-N
Temperature: 351 K
Tabular data in the source: 0
pressure (bar)	uptake (mmol/g)
1.97685	2.55529
4.26678	4.20297
5.26867	4.87356
6.48516	5.7895
7.59378	7.13964
8.66672	8.36639
9.239	8.9794
9.84721	9.46831
