Adsorption isotherm of N-propane on MIL-101
DOI: 10.1021/Jp811418r
Adsorbate N-propane: InChIKey ATUOYWHBWRKTHZ-UHFFFAOYSA-N
Temperature: 319 K
Tabular data in the source: 0
pressure (bar)	uptake (mmol/g)
0.400871	3.06606
1.43882	3.48879
2.22619	3.85215
2.87033	4.21695
3.58608	4.58103
3.9797	4.82459
7.44924	8.44045
8.27192	9.29845
9.02335	9.78593
9.70336	10.0885
