Adsorption isotherm of Carbon Dioxide on MIL-101
DOI: 10.1021/Jp811418r
Adsorbate Carbon Dioxide: InChIKey CURLTUGMZLYLDI-UHFFFAOYSA-N
Temperature: 283 K
Tabular data in the source: 0
pressure (bar)	uptake (mmol/g)
1.43317	3.97367
2.75502	4.84776
3.58964	5.61935
4.63312	6.39073
6.23327	7.41902
7.41588	8.29325
8.38969	9.11619
9.05048	9.68197
