Adsorption isotherm of Methane on MIL-101
DOI: 10.1021/Jp811418r
Adsorbate Methane: InChIKey VNWKTOKETHGBQD-UHFFFAOYSA-N
Temperature: 319 K
Tabular data in the source: 0
pressure (bar)	uptake (mmol/g)
1.97865	3.3125
3.33598	4.12857
6.05065	5.7607
7.68053	6.63199
8.80108	7.23099
9.61602	7.66663
