Adsorption isotherm of Methane on MIL-101
DOI: 10.1021/Jp811418r
Adsorbate Methane: InChIKey VNWKTOKETHGBQD-UHFFFAOYSA-N
Temperature: 283 K
Tabular data in the source: 0
pressure (bar)	uptake (mmol/g)
1.93316	4.44634
4.17533	5.53636
6.07722	6.51686
7.77483	7.44244
8.79351	7.98699
9.71032	8.47709
