Adsorption isotherm of Argon on MIL-101
DOI: 10.1021/Jp811418r
Adsorbate Argon: InChIKey XKRFYHLGVUSROY-UHFFFAOYSA-N
Temperature: 283 K
Tabular data in the source: 0
pressure (bar)	uptake (mmol/g)
1.97083	2.66316
3.56419	3.90841
4.96111	4.58565
6.29255	5.45951
7.66764	6.39892
8.71533	7.09801
9.37014	7.51309
9.91581	7.90633
