Adsorption isotherm of Argon on MIL-101
DOI: 10.1021/Jp811418r
Adsorbate Argon: InChIKey XKRFYHLGVUSROY-UHFFFAOYSA-N
Temperature: 319 K
Tabular data in the source: 0
pressure (bar)	uptake (mmol/g)
4.45909	3.82102
6.16159	4.82596
7.38389	5.59059
8.45341	6.35522
9.04274	6.74846
9.54476	7.07616
9.95947	7.36016
