Adsorption isotherm of Sulfur Hexafluoride on MIL-101
DOI: 10.1021/Jp811418r
Adsorbate Sulfur Hexafluoride: InChIKey SFZCNBIFKDRMGX-UHFFFAOYSA-N
Temperature: 319 K
Tabular data in the source: 0
pressure (bar)	uptake (mmol/g)
1.74839	4.45164
2.74018	4.93675
3.41615	5.31365
3.95681	5.63654
5.84999	6.60638
7.38126	7.62806
8.32667	8.32667
9.04666	8.91745
9.63222	9.29395
