Adsorption isotherm of Argon on MIL-101
DOI: 10.1021/Jp811418r
Adsorbate Argon: InChIKey XKRFYHLGVUSROY-UHFFFAOYSA-N
Temperature: 351 K
Tabular data in the source: 0
pressure (bar)	uptake (mmol/g)
4.61188	3.25301
5.52861	3.79918
7.60216	5.24105
8.69351	6.00568
9.37014	6.4863
9.80668	6.814
