Adsorption isotherm of Sulfur Hexafluoride on MIL-101
DOI: 10.1021/Jp811418r
Adsorbate Sulfur Hexafluoride: InChIKey SFZCNBIFKDRMGX-UHFFFAOYSA-N
Temperature: 351 K
Tabular data in the source: 0
pressure (bar)	uptake (mmol/g)
2.02551	3.38439
4.09595	4.99607
5.31228	5.74928
6.12327	6.2336
7.43059	6.88036
8.55622	7.68659
9.1861	8.22356
9.63635	8.54605
