Adsorption isotherm of N-propane on MIL-101
DOI: 10.1021/Jp811418r
Adsorbate N-propane: InChIKey ATUOYWHBWRKTHZ-UHFFFAOYSA-N
Temperature: 283 K
Tabular data in the source: 0
pressure (bar)	uptake (mmol/g)
1.43826	4.04566
2.01054	4.65868
2.43978	5.0875
3.36999	5.82068
4.12112	6.61753
4.76457	7.66295
6.01642	9.01166
7.34007	10.174
8.48575	10.2863
9.13002	10.5274
