Adsorption isotherm of Methane on MIL-101
DOI: 10.1021/Jp811418r
Adsorbate Methane: InChIKey VNWKTOKETHGBQD-UHFFFAOYSA-N
Temperature: 351 K
Tabular data in the source: 0
pressure (bar)	uptake (mmol/g)
0.18457	1.79246
1.91794	2.55619
3.30779	3.53441
4.66621	4.24248
6.39742	5.22222
7.89075	6.0929
8.84116	6.63714
9.5201	7.01818
