Adsorption isotherm of Nitrogen on Silicalite MFI
DOI: 10.1021/je7005902
Article source: Figure 1
Adsorbate Nitrogen: InChIKey IJGRMHOSHXDMSA-UHFFFAOYSA-N
Kind: experiment
Temperature: 313 K
Tabular data in the source: 0
pressure (bar)	uptake (mmol/g)
0.496493	0.102
0.779189	0.16
1.13484	0.229
1.43881	0.287
1.88464	0.36
2.45206	0.443
3.11068	0.524
3.92128	0.616
4.79267	0.722
