Adsorption isotherm of Methane on Silicalite MFI
DOI: 10.1021/je7005902
Article source: Figure 1
Adsorbate Methane: InChIKey VNWKTOKETHGBQD-UHFFFAOYSA-N
Kind: experiment
Temperature: 313 K
Tabular data in the source: 0
pressure (bar)	uptake (mmol/g)
0.237101	0.162
0.443804	0.287
0.716368	0.426
1.04365	0.57
1.40842	0.716
1.85425	0.868
2.42167	1.02
3.10054	1.17
3.89088	1.32
4.85347	1.48
