Adsorption isotherm of Methane on Silicalite MFI
DOI: 10.1021/je7005902
Article source: Figure 1
Adsorbate Methane: InChIKey VNWKTOKETHGBQD-UHFFFAOYSA-N
Kind: experiment
Temperature: 343 K
Tabular data in the source: 0
pressure (bar)	uptake (mmol/g)
0.262432	0.113
0.4894	0.201
0.757911	0.296
1.08418	0.403
1.45908	0.514
1.89478	0.654
2.47233	0.798
3.10054	0.922
3.96181	1.1
4.91426	1.26
