Adsorption isotherm of Nitrogen, Methane on Silicalite MFI
DOI: 10.1021/je7005902
Article source: Figure 4
Adsorbate Nitrogen: InChIKey IJGRMHOSHXDMSA-UHFFFAOYSA-N
Adsorbate Methane: InChIKey VNWKTOKETHGBQD-UHFFFAOYSA-N
Kind: experiment
Temperature: 313 K
Tabular data in the source: 0
pressure (bar)	Nitrogen fraction	Nitrogen uptake (mmol/g)	Methane fraction	Methane uptake (mmol/g)	total uptake (mmol/g)
1	0.9608	0.187	0.0392	0.0257	
1	0.9066	0.162	0.0934	0.059	
1	0.843	0.134	0.157	0.0961	
1	0.761	0.106	0.239	0.138	
1	0.671	0.0816	0.329	0.181	
1	0.554	0.0595	0.446	0.231	
1	0.407	0.0427	0.593	0.297	
1	0.264	0.0297	0.736	0.371	
1	0.146	0.0206	0.854	0.447	
1	0.051	0.00762	0.949	0.516	
