Adsorption isotherm of Nitrogen, Methane on Silicalite MFI
DOI: 10.1021/je7005902
Article source: Figure 6
Adsorbate Nitrogen: InChIKey IJGRMHOSHXDMSA-UHFFFAOYSA-N
Adsorbate Methane: InChIKey VNWKTOKETHGBQD-UHFFFAOYSA-N
Kind: experiment
Temperature: 373 K
Tabular data in the source: 0
pressure (bar)	Nitrogen fraction	Nitrogen uptake (mmol/g)	Methane fraction	Methane uptake (mmol/g)	total uptake (mmol/g)
1	0.9628	0.11	0.0372	0.00853	
1	0.9098	0.0857	0.0902	0.0177	
1	0.841	0.0625	0.159	0.027	
1	0.764	0.0406	0.236	0.0375	
1	0.671	0.0235	0.329	0.0485	
1	0.556	0.0106	0.444	0.0631	
1	0.406	0.00546	0.594	0.0915	
1	0.265	0.00648	0.735	0.136	
1	0.145	0.00648	0.855	0.19	
1	0.053	0.00341	0.947	0.249	
