Adsorption isotherm of Nitrogen, Methane on Silicalite MFI
DOI: 10.1021/je7005902
Article source: Figure 5
Adsorbate Nitrogen: InChIKey IJGRMHOSHXDMSA-UHFFFAOYSA-N
Adsorbate Methane: InChIKey VNWKTOKETHGBQD-UHFFFAOYSA-N
Kind: experiment
Temperature: 343 K
Tabular data in the source: 0
pressure (bar)	Nitrogen fraction	Nitrogen uptake (mmol/g)	Methane fraction	Methane uptake (mmol/g)	total uptake (mmol/g)
1	0.9613	0.142	0.0387	0.0132	
1	0.9085	0.115	0.0915	0.0301	
1	0.842	0.0875	0.158	0.0499	
1	0.764	0.0626	0.236	0.0696	
1	0.67	0.0419	0.33	0.0927	
1	0.553	0.0264	0.447	0.12	
1	0.407	0.0174	0.593	0.161	
1	0.263	0.0141	0.737	0.216	
1	0.144	0.0113	0.856	0.278	
1	0.048	0.00471	0.952	0.34	
