Adsorption isotherm of Methane on Silicalite MFI
DOI: 10.1021/je7005902
Article source: Figure 1
Adsorbate Methane: InChIKey VNWKTOKETHGBQD-UHFFFAOYSA-N
Kind: experiment
Temperature: 373 K
Tabular data in the source: 0
pressure (bar)	uptake (mmol/g)
0.279657	0.0885
0.509665	0.154
0.789322	0.227
1.10444	0.318
1.49961	0.413
1.95557	0.516
2.51286	0.643
3.17147	0.788
3.97194	0.94
4.96492	1.12
