Adsorption isotherm of Nitrogen on Silicalite MFI
DOI: 10.1021/je7005902
Article source: Figure 1
Adsorbate Nitrogen: InChIKey IJGRMHOSHXDMSA-UHFFFAOYSA-N
Kind: experiment
Temperature: 373 K
Tabular data in the source: 0
pressure (bar)	uptake (mmol/g)
0.11855	0.0173
0.300935	0.0384
0.538036	0.071
0.80756	0.105
1.13484	0.145
1.50974	0.195
1.98597	0.249
2.55339	0.314
3.23227	0.396
4.03273	0.488
4.97506	0.602
