Adsorption isotherm of Nitrogen on Silicalite MFI
DOI: 10.1021/je7005902
Article source: Figure 1
Adsorbate Nitrogen: InChIKey IJGRMHOSHXDMSA-UHFFFAOYSA-N
Kind: experiment
Temperature: 343 K
Tabular data in the source: 0
pressure (bar)	uptake (mmol/g)
0.293842	0.0519
0.516757	0.0893
0.786282	0.131
1.11458	0.181
1.48948	0.241
1.94544	0.303
2.50273	0.382
3.17147	0.472
3.97194	0.563
4.90413	0.682
