Adsorption isotherm of Nitrogen on ([Co2(ade)(mu6-BTeC)(mu-H2O)(H2O)2]4(H2O)
DOI: 10.1021/acs.cgd.5b00218
Article source: Figure S11
Adsorbate Nitrogen: InChIKey IJGRMHOSHXDMSA-UHFFFAOYSA-N
Kind: experiment
Temperature: 77 K
Tabular data in the source: 0
pressure (bar)	uptake (cm3(STP)/g)
0.097582	0.699624
0.10022	1.7198
0.20044	2.849
0.205714	1.07728
0.305934	3.17292
0.308571	1.29377
0.411429	3.98006
0.516923	2.04894
0.51956	4.51878
0.617143	2.8023
0.72	3.07248
0.727912	5.70349
0.825495	6.4568
0.828132	3.98705
0.928352	7.21021
0.930989	4.68676
0.989011	15.4797
0.994286	15.265
