Adsorption isotherm of Carbon Dioxide on ([Co2(ade)(mu6-BTeC)(mu-H2O)(H2O)2]4(H2O)
DOI: 10.1021/acs.cgd.5b00218
Article source: Figure S10
Adsorbate Carbon Dioxide: InChIKey CURLTUGMZLYLDI-UHFFFAOYSA-N
Kind: experiment
Temperature: 195 K
Tabular data in the source: 0
pressure (bar)	uptake (cm3(STP)/g)
0.030524	0.260116
0.051021	1.65173
0.054041	0.390173
0.077564	0.507225
0.100393	1.95087
0.103446	0.624277
0.131687	0.741329
0.149812	2.15896
0.155238	0.806358
0.18114	0.884393
0.201617	2.31503
0.204677	0.975434
0.230573	1.06647
0.251752	1.15751
0.253401	2.51012
0.277654	1.23555
0.302862	2.64017
0.303543	1.3396
0.329425	1.45665
0.352328	2.75723
0.357686	1.53468
0.38594	1.62572
0.404147	2.88728
0.407105	1.74277
0.430649	1.82081
0.453621	2.99133
0.456552	1.89884
0.484799	2.00289
0.503081	3.12139
0.508316	2.13295
0.527164	2.17197
0.554893	3.26445
0.555377	2.34104
0.585969	2.4711
0.606711	3.39451
0.611837	2.61416
0.63776	2.65318
0.656178	3.51156
0.661291	2.75723
0.684835	2.83526
0.70328	3.64162
0.710703	2.97832
0.736606	3.05636
0.757471	3.74566
0.764833	3.19942
0.788377	3.27746
0.806924	3.88873
0.811941	3.31647
0.835499	3.3685
0.856677	3.45954
0.858743	4.01879
0.889642	3.56358
0.910582	4.10983
0.910827	3.64162
0.934324	3.81069
0.960076	4.17486
0.960192	3.95376
0.988432	4.07081
1.00725	4.17486
