Adsorption isotherm of Hydrogen on Zeolite RhNaX
DOI: 10.1016/j.ijhydene.2007.10.047
Adsorbate Hydrogen: InChIKey UFHFLCQGNIYNRP-UHFFFAOYSA-N
Temperature: 333 K
Tabular data in the source: 0
pressure (bar)	uptake (molecules/unitcell)
0.0383187	18.9855
0.0514312	26.8116
0.120313	30.5797
0.257057	33.6232
0.405008	36.087
0.496171	38.1159
0.655329	40
0.791515	40.5797
0.96178	41.4493
1.07519	41.5942
1.17736	42.1739
1.40429	42.8986
1.51773	43.1884
1.66522	43.6232
1.76729	43.7681
1.85806	44.058
1.93743	44.058
2.05084	44.2029
2.19833	44.6377
2.31177	44.9275
2.39121	45.2174
2.47057	45.2174
2.58402	45.5072
2.67478	45.7971
2.73147	45.7971
2.84488	45.942
2.9583	46.087
3.0604	46.3768
3.17381	46.5217
3.25321	46.6667
3.36662	46.8116
3.4687	46.9565
3.58214	47.2464
3.69559	47.5362
3.78632	47.6812
3.8997	47.6812
4.00174	47.6812
4.11515	47.8261
4.22856	47.971
4.3193	48.1159
4.43271	48.2609
4.54612	48.4058
4.64816	48.4058
4.76161	48.6957
4.84097	48.6957
4.95439	48.8406
5.0678	48.9855
5.1699	49.2754
5.21526	49.2754
