Adsorption isotherm of Hydrogen on Zeolite RhNaX-44
DOI: 10.1016/j.ijhydene.2007.10.047
Adsorbate Hydrogen: InChIKey UFHFLCQGNIYNRP-UHFFFAOYSA-N
Temperature: 303 K
Tabular data in the source: 0
pressure (bar)	uptake (molecules/unitcell)
0.0687898	17.8664
0.261284	24.4229
0.394126	26.6533
0.527029	28.6045
0.6723	29.4387
0.80548	30.1335
0.926508	30.9683
1.05953	32.3611
1.19275	32.9164
1.35026	33.1919
1.59244	34.3031
1.84686	34.8555
2.11335	35.6869
2.40413	36.2385
2.64641	36.9308
2.71907	37.2083
2.82813	37.3454
2.94925	37.7613
3.0704	38.0377
3.16725	38.5938
3.23998	38.5921
3.34904	38.7292
3.47019	39.0056
3.66401	39.5594
3.74883	39.697
3.89425	39.8333
4.00328	40.1099
4.12446	40.2467
4.23343	40.8025
4.30616	40.8008
4.42734	40.9376
4.53637	41.2143
4.65752	41.4906
4.7544	41.9072
4.82713	41.9055
4.94831	42.0422
5.05734	42.3189
5.17849	42.5953
5.27537	43.0118
