Adsorption isotherm of Hydrogen on Zeolite NiX
DOI: 10.1016/j.ijhydene.2007.10.047
Adsorbate Hydrogen: InChIKey UFHFLCQGNIYNRP-UHFFFAOYSA-N
Temperature: 77 K
Tabular data in the source: 0
pressure (bar)	uptake (molecules/unitcell)
0.0304279	49.3805
0.0399366	61.5929
0.0494453	75.9292
0.074168	87.0796
0.100792	99.823
0.138827	107.788
0.201585	120
0.247227	124.779
0.340412	132.212
0.399366	136.991
0.496355	142.301
0.600951	148.142
0.686529	151.327
0.800634	155.575
0.893819	159.823
1.00222	162.478
1.05927	165.133
1.12203	166.726
