Adsorption isotherm of Hydrogen on Zeolite RhNaX-55
DOI: 10.1016/j.ijhydene.2007.10.047
Adsorbate Hydrogen: InChIKey UFHFLCQGNIYNRP-UHFFFAOYSA-N
Temperature: 303 K
Tabular data in the source: 0
pressure (bar)	uptake (molecules/unitcell)
0.066063	11.0476
0.14006	14.6569
0.250735	18.1549
0.379646	20.9774
0.517694	23.5748
0.766041	27.4161
1.06936	30.8086
1.30834	33.5225
1.56558	35.6736
1.85029	37.4875
2.11653	38.6246
2.34604	39.5349
2.65818	40.7863
3.18134	42.1585
3.7044	42.8543
4.24585	43.889
4.76892	44.6976
5.30119	45.6192
