Adsorption isotherm of Hydrogen on Zeolite NiNaX-75
DOI: 10.1016/j.ijhydene.2007.10.047
Adsorbate Hydrogen: InChIKey UFHFLCQGNIYNRP-UHFFFAOYSA-N
Temperature: 77 K
Tabular data in the source: 0
pressure (bar)	uptake (molecules/unitcell)
0.0340855	9.80926
0.0707201	14.7139
0.109824	18.6376
0.136716	20.9264
0.180737	23.8692
0.22967	26.158
0.259025	27.7929
0.337332	30.7357
0.39851	33.0245
0.457245	34.9864
0.511089	36.6213
0.682425	41.1989
0.738731	42.1798
0.792582	43.4877
0.848888	44.4687
0.944365	46.1035
1.01781	47.4114
1.07412	48.0654
1.12798	49.0463
