Adsorption isotherm of Hydrogen on Zeolite NiNaX-49
DOI: 10.1016/j.ijhydene.2007.10.047
Adsorbate Hydrogen: InChIKey UFHFLCQGNIYNRP-UHFFFAOYSA-N
Temperature: 77 K
Tabular data in the source: 0
pressure (bar)	uptake (molecules/unitcell)
0.0387166	22.8883
0.0728088	32.3706
0.0947495	37.2752
0.131364	43.1608
0.158223	47.0845
0.20464	52.6431
0.229083	54.9319
0.282874	59.1826
0.341563	63.4332
0.397829	66.376
0.451647	69.3188
0.542179	73.2425
0.618037	76.1853
0.679215	78.4741
0.737957	80.109
0.791814	81.0899
0.85055	83.0518
0.904401	84.3597
0.960714	85.0136
1.01701	86.6485
1.07576	87.6294
1.12472	88.6104
