Adsorption isotherm of Hydrogen on Zeolite RhNaX-44
DOI: 10.1016/j.ijhydene.2007.10.047
Adsorbate Hydrogen: InChIKey UFHFLCQGNIYNRP-UHFFFAOYSA-N
Temperature: 77 K
Tabular data in the source: 0
pressure (bar)	uptake (molecules/unitcell)
0.0362173	9.16518
0.098994	16.3757
0.137626	19.3291
0.159356	20.9699
0.181087	22.2837
0.205231	23.2712
0.226962	24.585
0.260765	26.2291
0.338028	28.8659
0.39839	30.8442
0.453924	32.8212
0.533602	34.4778
0.56499	35.4673
0.625352	36.4647
0.680885	37.4607
0.736419	38.4568
0.794366	39.1265
0.852314	40.1232
0.907847	41.1193
0.94165	41.1285
1.02133	42.7851
1.08169	43.1285
1.12998	43.4687
