Adsorption isotherm of Hydrogen on Zeolite RhX
DOI: 10.1016/j.ijhydene.2007.10.047
Adsorbate Hydrogen: InChIKey UFHFLCQGNIYNRP-UHFFFAOYSA-N
Temperature: 303 K
Tabular data in the source: 0
pressure (bar)	uptake (molecules/unitcell)
0.589733	0.724638
0.793815	0.724638
0.986592	0.869565
1.49689	1.30435
1.99583	1.5942
2.50603	1.5942
2.99369	2.17391
3.56062	2.31884
4.0142	2.6087
4.50173	2.6087
5.22741	2.89855
