Adsorption isotherm of Hydrogen on Zeolite RhNaX-55
DOI: 10.1016/j.ijhydene.2007.10.047
Adsorbate Hydrogen: InChIKey UFHFLCQGNIYNRP-UHFFFAOYSA-N
Temperature: 77 K
Tabular data in the source: 0
pressure (bar)	uptake (molecules/unitcell)
0.0362173	5.24148
0.0651911	6.88425
0.0869215	8.52505
0.111066	9.18558
0.137626	9.84676
0.156942	10.833
0.342857	14.8073
0.39839	15.4764
0.453924	16.1455
0.511871	17.1422
0.545674	17.4784
0.625352	18.154
0.6833	18.4968
0.738833	19.4929
0.794366	19.835
0.849899	20.1771
0.956137	20.86
1.02133	21.5317
1.07928	21.8745
1.12757	21.8876
