Adsorption isotherm of Hydrogen on Zeolite 13X
DOI: 10.1016/j.ijhydene.2007.10.047
Adsorbate Hydrogen: InChIKey UFHFLCQGNIYNRP-UHFFFAOYSA-N
Temperature: 77 K
Tabular data in the source: 0
pressure (bar)	uptake (molecules/unitcell)
0.00760697	16.9912
0.0513471	44.6018
0.0931854	56.2832
0.152139	69.5575
0.201585	80.708
0.309984	93.4513
0.399366	103.54
0.452615	106.726
0.5458	113.097
0.600951	116.814
0.66561	121.062
0.747385	126.372
0.802536	129.558
0.855784	131.15
0.929952	134.336
0.998415	137.522
1.05927	139.646
1.12203	141.77
