Adsorption isotherm of Hydrogen on Zeolite NiNaX-65
DOI: 10.1016/j.ijhydene.2007.10.047
Adsorbate Hydrogen: InChIKey UFHFLCQGNIYNRP-UHFFFAOYSA-N
Temperature: 303 K
Tabular data in the source: 0
pressure (bar)	uptake (molecules/unitcell)
0.0741025	1.80612
0.196336	3.55102
0.269179	4.10204
0.414464	4.80612
0.535407	5.26531
0.668337	5.66327
0.813314	6.06122
0.933981	6.2449
1.0667	6.42857
1.21149	6.64286
1.32008	6.79592
1.59749	7.10204
1.86283	7.37755
2.11603	7.56122
2.39344	7.86735
2.65866	8.02041
2.88769	8.14286
3.1771	8.38776
3.44231	8.54082
3.70759	8.7551
4.00894	8.90816
4.23804	9.09184
4.50323	9.21429
4.76844	9.36735
5.04567	9.4898
5.31089	9.64286
