Adsorption isotherm of Hydrogen on Zeolite RhNaX
DOI: 10.1016/j.ijhydene.2007.10.047
Adsorbate Hydrogen: InChIKey UFHFLCQGNIYNRP-UHFFFAOYSA-N
Temperature: 303 K
Tabular data in the source: 0
pressure (bar)	uptake (molecules/unitcell)
0.0132439	8.4058
0.0609944	18.9855
0.153012	24.7826
0.267212	28.4058
0.358572	31.3043
0.495284	34.2029
0.666108	37.5362
0.80259	39.4203
0.950278	40.7246
1.06389	41.7391
1.20014	42.6087
1.34773	43.4783
1.40442	43.4783
1.50659	44.058
1.64277	44.6377
1.74491	45.0725
1.88107	45.5072
2.15327	45.942
2.25541	46.3768
2.34628	47.1014
2.403	47.2464
2.45966	47.1014
2.5731	47.3913
2.66387	47.6812
2.76595	47.8261
2.87936	47.971
2.99277	48.1159
3.09488	48.4058
3.19695	48.5507
3.31036	48.6957
3.42377	48.8406
3.52588	49.1304
3.63929	49.2754
3.7527	49.4203
3.86611	49.5652
3.96822	49.8551
4.08163	50
4.19504	50.1449
4.29712	50.2899
4.39922	50.5797
4.51264	50.7246
4.62605	50.8696
4.72815	51.1594
4.84153	51.1594
4.95498	51.4493
5.05708	51.7391
5.1705	51.8841
5.27257	52.029
