Adsorption isotherm of Hydrogen on Zeolite RhNaX-29
DOI: 10.1016/j.ijhydene.2007.10.047
Adsorbate Hydrogen: InChIKey UFHFLCQGNIYNRP-UHFFFAOYSA-N
Temperature: 303 K
Tabular data in the source: 0
pressure (bar)	uptake (molecules/unitcell)
0.0355024	3.9078
0.0827569	9.49046
0.178804	13.676
0.263069	16.3264
0.408155	17.9981
0.553395	18.9719
0.674454	19.667
0.79542	20.781
0.928662	21.1967
1.07393	22.0309
1.19508	22.3072
1.32842	22.3041
1.40108	22.5816
1.52227	22.7184
1.67975	23.1335
1.78884	23.131
1.89793	23.1284
2.01908	23.4048
2.20081	23.8194
2.32199	23.9561
2.44318	24.0929
2.55224	24.23
2.7219	24.3656
2.84308	24.5024
2.96427	24.6392
3.07333	24.7762
3.25509	25.0512
3.37624	25.3275
3.4853	25.4646
3.60648	25.6014
3.77612	25.8766
3.89733	25.8738
4.01851	26.0106
4.13969	26.1473
4.18818	26.1462
4.29727	26.1437
4.41845	26.2805
4.53963	26.4172
4.64869	26.5543
4.76988	26.6911
4.89109	26.6882
5.01227	26.825
5.13345	26.9618
5.29103	26.9581
