Adsorption isotherm of Hydrogen on Zeolite RhNaX-44
DOI: 10.1016/j.ijhydene.2007.10.047
Adsorbate Hydrogen: InChIKey UFHFLCQGNIYNRP-UHFFFAOYSA-N
Temperature: 333 K
Tabular data in the source: 0
pressure (bar)	uptake (molecules/unitcell)
0.0796964	16.0941
0.182163	21.2723
0.273245	22.6718
0.330171	23.9313
0.444023	25.1908
0.626186	26.8702
0.819734	28.2697
0.933586	28.9695
1.07021	29.6692
1.21822	30.7888
1.38899	31.4885
1.59393	32.1883
1.86717	33.028
2.12903	33.3079
2.37951	33.8677
2.6186	34.4275
2.65275	34.5674
2.70968	34.2875
2.81214	34.7074
2.91461	34.9873
3.02846	35.1272
3.25617	35.5471
3.37002	35.687
3.47249	35.9669
3.58634	36.1069
3.79127	36.3868
3.90512	36.6667
4.00759	36.8066
4.12144	36.9466
4.21252	37.2265
4.30361	37.2265
4.41746	37.3664
4.53131	37.5064
4.63378	37.6463
4.72486	37.6463
4.81594	37.5064
4.83871	37.9262
4.95256	38.0662
5.06641	38.2061
5.16888	38.3461
5.27135	38.626
