Adsorption isotherm of Hydrogen on Zeolite NiNaX-70
DOI: 10.1016/j.ijhydene.2007.10.047
Adsorbate Hydrogen: InChIKey UFHFLCQGNIYNRP-UHFFFAOYSA-N
Temperature: 77 K
Tabular data in the source: 0
pressure (bar)	uptake (molecules/unitcell)
0.0364811	12.4251
0.0682044	17.9837
0.0999544	22.2343
0.139065	25.8311
0.183066	29.7548
0.239319	33.3515
0.283348	35.9673
0.334723	38.5831
0.398336	41.5259
0.454623	43.4877
0.523141	46.1035
0.567196	47.4114
0.62104	49.0463
0.679789	50.3542
0.736082	51.9891
0.792375	53.624
0.853573	54.9319
0.929464	56.2398
1.0176	57.5477
1.07635	58.8556
1.12777	59.5095
