Adsorption isotherm of Hydrogen on Zeolite NiX
DOI: 10.1016/j.ijhydene.2007.10.047
Adsorbate Hydrogen: InChIKey UFHFLCQGNIYNRP-UHFFFAOYSA-N
Temperature: 303 K
Tabular data in the source: 0
pressure (bar)	uptake (molecules/unitcell)
0.385553	0.289855
0.589668	0.434783
0.805087	0.434783
1.49676	0.724638
1.99566	0.869565
2.50593	1.15942
3.0048	1.15942
3.5037	1.30435
4.01393	1.44928
4.51283	1.5942
5.21581	1.73913
