Adsorption isotherm of Hydrogen on Zeolite NiNaX
DOI: 10.1016/j.ijhydene.2007.10.047
Adsorbate Hydrogen: InChIKey UFHFLCQGNIYNRP-UHFFFAOYSA-N
Temperature: 303 K
Tabular data in the source: 0
pressure (bar)	uptake (molecules/unitcell)
0.158993	1.15942
0.24986	1.88406
0.340662	2.31884
0.420093	2.6087
0.488284	3.33333
0.601794	3.91304
0.703901	4.2029
0.760787	5.07246
0.862894	5.36232
0.953663	5.65217
1.39623	7.3913
1.50968	7.68116
1.66851	8.11594
1.80459	8.26087
1.96346	8.84058
2.19025	8.98551
2.56463	10
2.72342	10.2899
2.83683	10.4348
2.93894	10.7246
3.05235	10.8696
3.13175	11.0145
3.19984	11.3043
3.30192	11.4493
3.40399	11.5942
3.5174	11.7391
3.63085	12.029
3.73292	12.1739
3.84633	12.3188
3.95978	12.6087
4.06185	12.7536
4.17529	13.0435
4.31138	13.1884
4.42479	13.3333
4.5269	13.6232
4.64031	13.7681
4.75375	14.058
4.85583	14.2029
4.95793	14.4928
5.07135	14.6377
5.23018	15.0725
