Adsorption isotherm of Hydrogen on Zeolite NiNaX-70
DOI: 10.1016/j.ijhydene.2007.10.047
Adsorbate Hydrogen: InChIKey UFHFLCQGNIYNRP-UHFFFAOYSA-N
Temperature: 333 K
Tabular data in the source: 0
pressure (bar)	uptake (molecules/unitcell)
0.0909091	8.48214
0.136364	10.8929
0.238636	13.125
0.397727	16.6071
0.511364	17.7679
0.670455	19.6429
0.806818	20.9821
0.909091	21.6071
1.06818	22.6786
1.18182	23.3929
1.31818	24.1964
1.57955	25.625
1.85227	26.6964
2.11364	27.9464
2.375	28.6607
2.65909	29.8214
2.92045	30.3571
3.18182	30.9821
3.43182	31.5179
3.69318	32.0536
3.95455	32.4107
4.22727	32.8571
4.52273	33.4821
4.76136	33.8393
5.01136	34.1964
5.28409	34.5536
