Adsorption isotherm of Hydrogen on Zeolite RhNaX-55
DOI: 10.1016/j.ijhydene.2007.10.047
Adsorbate Hydrogen: InChIKey UFHFLCQGNIYNRP-UHFFFAOYSA-N
Temperature: 303 K
Tabular data in the source: 0
pressure (bar)	uptake (molecules/unitcell)
0.0316876	21.2175
0.0555917	22.7525
0.0795266	24.1479
0.103462	25.5433
0.12712	28.195
0.127427	26.7991
0.163299	29.0317
0.211507	30.287
0.259623	31.961
0.295802	32.7977
0.34401	34.0529
0.39228	35.0289
0.501033	36.5619
0.658179	38.5126
0.791205	39.9054
0.936476	40.7396
1.06963	41.5741
1.19068	42.2693
1.32393	42.6849
1.36026	42.8237
1.46929	43.1003
1.66314	43.5146
1.78429	43.791
1.89332	44.0676
2.0145	44.2044
2.06289	44.6221
2.14783	44.2013
2.24468	44.7574
2.32941	45.3138
2.4022	45.0329
2.51123	45.3096
2.7172	45.7236
2.83838	45.8604
2.94741	46.137
3.06859	46.2738
3.11698	46.6914
3.18977	46.4106
3.2988	46.6872
3.41995	46.9636
3.52901	47.1006
3.68653	47.3762
3.75919	47.6537
3.88041	47.6508
4.00162	47.648
4.1228	47.7848
4.30459	47.9202
4.42577	48.0569
4.5348	48.3336
4.65598	48.4704
4.82565	48.606
4.94683	48.7428
5.06802	48.8796
5.17708	49.0166
5.27402	49.1539
