Adsorption isotherm of Hydrogen on Zeolite RhNaX-29
DOI: 10.1016/j.ijhydene.2007.10.047
Adsorbate Hydrogen: InChIKey UFHFLCQGNIYNRP-UHFFFAOYSA-N
Temperature: 333 K
Tabular data in the source: 0
pressure (bar)	uptake (molecules/unitcell)
0.102467	12.5954
0.170778	15.9542
0.296015	18.0534
0.409867	19.313
0.535104	20.2926
0.660342	21.6921
0.796964	22.5318
0.888046	23.0916
0.990512	23.2316
1.05882	24.0712
1.13852	24.3511
1.21822	24.771
1.28653	25.3308
1.38899	25.4707
1.49146	25.7506
1.59393	26.1705
1.67362	26.4504
1.78748	26.7303
1.88994	27.0102
1.98102	27.2901
2.19734	27.9898
2.3112	28.2697
2.39089	28.4097
2.4592	28.6896
2.57306	29.1094
2.73245	29.6692
2.8463	29.8092
2.94877	30.0891
3.06262	30.369
3.16509	30.7888
3.27894	30.9288
3.3814	31.2087
3.49526	31.3486
3.59772	31.6285
3.71157	31.9084
3.82543	32.0483
3.92789	32.3282
4.04175	32.6081
4.14421	32.7481
4.25806	33.028
4.37192	33.3079
4.47438	33.4478
4.58824	33.7277
4.70209	33.8677
4.80455	34.1476
4.83871	34.1476
4.95256	34.2875
5.06641	34.4275
5.16888	34.5674
5.29412	34.7074
