Adsorption isotherm of Hydrogen on Zeolite 13X
DOI: 10.1016/j.ijhydene.2007.10.047
Adsorbate Hydrogen: InChIKey UFHFLCQGNIYNRP-UHFFFAOYSA-N
Temperature: 303 K
Tabular data in the source: 0
pressure (bar)	uptake (molecules/unitcell)
0.085997	1.65306
0.195507	2.72449
0.26838	3.30612
0.389415	3.85714
0.570691	4.40816
0.727625	4.71429
0.812147	4.89796
0.944923	5.14286
1.07751	5.20408
1.2102	5.35714
1.34285	5.47959
1.62011	5.63265
1.87325	5.7551
2.12641	5.90816
2.39163	6.06122
2.66886	6.18367
3.18718	6.42857
3.71761	6.73469
4.23595	7.0102
4.7784	7.28571
5.10385	7.43878
5.29669	7.5
