Adsorption isotherm of Hydrogen on Zeolite NiNaX-75
DOI: 10.1016/j.ijhydene.2007.10.047
Adsorbate Hydrogen: InChIKey UFHFLCQGNIYNRP-UHFFFAOYSA-N
Temperature: 333 K
Tabular data in the source: 0
pressure (bar)	uptake (molecules/unitcell)
0.0568182	2.67857
0.159091	4.375
0.284091	6.42857
0.397727	7.23214
0.522727	8.83929
0.670455	9.64286
0.795455	10.625
0.920455	11.6071
1.05682	12.2321
1.19318	13.125
1.31818	13.9286
1.60227	15.0893
1.86364	16.3393
2.125	17.1429
2.375	18.0357
2.65909	19.1071
3.17045	20.8036
3.69318	22.0536
4.22727	23.5714
4.76136	24.7321
5.27273	25.3571
