Adsorption isotherm of Hydrogen on Zeolite RhX
DOI: 10.1016/j.ijhydene.2007.10.047
Adsorbate Hydrogen: InChIKey UFHFLCQGNIYNRP-UHFFFAOYSA-N
Temperature: 333 K
Tabular data in the source: 0
pressure (bar)	uptake (molecules/unitcell)
0.181439	0.144928
0.396891	0.289855
0.589668	0.434783
0.793782	0.57971
0.997864	0.57971
1.48546	0.869565
1.99566	0.869565
2.49463	1.30435
3.0049	1.5942
3.53781	1.73913
4.01403	1.88406
4.50159	2.02899
5.21591	2.17391
