Adsorption isotherm of Hydrogen on Zeolite NiNaX-65
DOI: 10.1016/j.ijhydene.2007.10.047
Adsorbate Hydrogen: InChIKey UFHFLCQGNIYNRP-UHFFFAOYSA-N
Temperature: 333 K
Tabular data in the source: 0
pressure (bar)	uptake (molecules/unitcell)
0.193182	10.5357
0.284091	12.4107
0.409091	14.0179
0.534091	15.4464
0.670455	16.5179
0.795455	17.6786
0.931818	18.3929
1.05682	19.1964
1.18182	20
1.32955	20.5357
1.59091	21.7857
1.86364	22.7679
2.125	23.75
2.38636	24.4643
2.64773	25.3571
3.17045	26.6964
3.69318	27.9464
4.22727	29.0179
4.76136	30.1786
5.28409	30.9821
