Adsorption isotherm of Hydrogen on Zeolite RhNaX-69
DOI: 10.1016/j.ijhydene.2007.10.047
Adsorbate Hydrogen: InChIKey UFHFLCQGNIYNRP-UHFFFAOYSA-N
Temperature: 303 K
Tabular data in the source: 0
pressure (bar)	uptake (molecules/unitcell)
0.0573453	14.7956
0.129088	19.261
0.213476	21.3529
0.358501	23.3038
0.539797	25.6727
0.660856	26.3679
0.818278	27.0622
0.93943	27.3385
0.999974	27.6163
1.09685	28.0329
1.20585	28.4491
1.29064	28.7263
1.41182	28.8631
1.52082	29.2793
1.62985	29.556
1.751	29.8324
1.86003	30.109
1.98121	30.2458
2.09021	30.662
2.21139	30.7988
2.33255	31.0752
2.44161	31.2122
2.56276	31.4886
2.68391	31.765
2.79294	32.0416
2.91412	32.1784
3.0353	32.3152
3.13218	32.7317
3.25342	32.5893
3.36245	32.8659
3.48364	33.0027
3.60485	32.9999
3.71391	33.1369
3.83506	33.4133
3.95624	33.5501
4.0653	33.6871
4.18645	33.9635
4.28342	33.9613
4.40458	34.2376
4.52576	34.3744
4.64694	34.5112
4.756	34.6482
4.86506	34.7853
4.98624	34.9221
5.10739	35.1984
5.21645	35.3355
5.33764	35.4723
