Adsorption isotherm of Hydrogen on Zeolite NiNaX-73
DOI: 10.1016/j.ijhydene.2007.10.047
Adsorbate Hydrogen: InChIKey UFHFLCQGNIYNRP-UHFFFAOYSA-N
Temperature: 303 K
Tabular data in the source: 0
pressure (bar)	uptake (molecules/unitcell)
0.195998	3.21429
0.256854	3.82653
0.414187	4.53061
0.668121	5.44898
0.813007	5.7551
0.933704	5.96939
1.06642	6.15306
1.1991	6.30612
1.3439	6.52041
1.60929	6.85714
1.86249	7.04082
2.12783	7.31633
2.39307	7.5
2.67037	7.68367
3.18874	7.9898
3.7192	8.32653
4.24966	8.66327
4.84039	9.03061
5.29847	9.27551
