Adsorption isotherm of Hydrogen on Zeolite NiX
DOI: 10.1016/j.ijhydene.2007.10.047
Adsorbate Hydrogen: InChIKey UFHFLCQGNIYNRP-UHFFFAOYSA-N
Temperature: 333 K
Tabular data in the source: 0
pressure (bar)	uptake (molecules/unitcell)
0.396924	0.434783
0.589668	0.434783
0.782444	0.57971
0.997897	0.724638
1.49676	0.724638
2.5059	1.01449
4.01393	1.44928
4.51287	1.73913
5.22715	1.73913
