Adsorption isotherm of Hydrogen on Zeolite RhNaX-29
DOI: 10.1016/j.ijhydene.2007.10.047
Adsorbate Hydrogen: InChIKey UFHFLCQGNIYNRP-UHFFFAOYSA-N
Temperature: 77 K
Tabular data in the source: 0
pressure (bar)	uptake (molecules/unitcell)
0.0120724	9.48558
0.0338028	18.3198
0.0676056	26.8304
0.115895	35.018
0.159356	40.9154
0.205231	45.8325
0.25835	50.0976
0.333199	55.3496
0.400805	58.6378
0.451509	61.5944
0.511871	63.8997
0.54326	64.8892
0.625352	67.8543
0.680885	69.8313
0.738833	70.828
0.796781	72.4787
0.849899	73.8011
0.907847	75.1248
0.946479	75.7892
1.02133	77.4445
1.07928	78.1142
1.12998	78.782
