Adsorption isotherm of Hydrogen on Zeolite RhNaX-73
DOI: 10.1016/j.ijhydene.2007.10.047
Adsorbate Hydrogen: InChIKey UFHFLCQGNIYNRP-UHFFFAOYSA-N
Temperature: 77 K
Tabular data in the source: 0
pressure (bar)	uptake (molecules/unitcell)
0.0289738	1.64277
0.0676056	2.63422
0.0917505	2.96778
0.113481	3.30068
0.135211	3.63357
0.156942	3.63949
0.178672	4.29937
0.205231	4.3066
0.226962	4.6395
0.251107	4.97305
0.263179	5.30332
0.284909	5.30924
0.342857	5.97898
0.400805	6.32175
0.456338	6.66385
0.531187	7.3382
0.557746	7.67241
0.622938	8.01715
0.6833	8.0336
0.738833	8.3757
0.791952	8.71715
0.849899	9.05992
0.907847	9.07571
0.922334	9.73361
1.02374	9.76124
1.07686	10.1027
1.12757	10.4435
