Adsorption isotherm of Hydrogen on Zeolite RhNaX-55
DOI: 10.1016/j.ijhydene.2007.10.047
Adsorbate Hydrogen: InChIKey UFHFLCQGNIYNRP-UHFFFAOYSA-N
Temperature: 303 K
Tabular data in the source: 0
pressure (bar)	uptake (molecules/unitcell)
0.0471126	7.44029
0.176719	14.4329
0.213774	16.5757
0.342723	19.6235
0.526774	23.0116
0.65561	25.3832
0.766041	27.4161
0.848742	28.2081
0.968291	29.9032
1.16127	31.8264
1.33581	33.1854
1.59299	34.9984
1.8593	36.4735
2.11637	37.6102
2.38261	38.7473
2.65803	39.8847
3.19039	41.3699
3.7135	42.4039
4.23657	43.2124
4.76881	44.0214
5.30102	44.6049
