Adsorption isotherm of Hydrogen on Zeolite NiNaX-49
DOI: 10.1016/j.ijhydene.2007.10.047
Adsorbate Hydrogen: InChIKey UFHFLCQGNIYNRP-UHFFFAOYSA-N
Temperature: 333 K
Tabular data in the source: 0
pressure (bar)	uptake (molecules/unitcell)
0.0681818	5.08929
0.204545	9.01786
0.272727	10.4464
0.409091	12.1429
0.534091	13.3929
0.659091	14.1964
0.795455	15.0893
0.931818	15.9821
1.05682	16.875
1.19318	17.5893
1.35227	18.3929
1.57955	19.1964
1.86364	20.4464
2.125	21.3393
2.38636	22.5
2.64773	23.2143
2.92045	23.8393
3.17045	24.6429
3.45455	25.2679
3.70455	25.8929
3.97727	26.5179
4.23864	27.0536
4.54545	27.5
4.76136	27.8571
5.09091	28.3929
5.28409	28.6607
