Adsorption isotherm of Hydrogen on Zeolite RhNaX-69
DOI: 10.1016/j.ijhydene.2007.10.047
Adsorbate Hydrogen: InChIKey UFHFLCQGNIYNRP-UHFFFAOYSA-N
Temperature: 333 K
Tabular data in the source: 0
pressure (bar)	uptake (molecules/unitcell)
0.170778	8.67684
0.227704	10.3562
0.421252	13.4351
0.54649	14.8346
0.671727	16.514
0.808349	17.4936
0.944972	18.4733
1.05882	19.0331
1.21822	19.8728
1.34345	20.4326
1.42315	20.8524
1.52562	21.2723
1.6167	21.5522
1.70778	21.972
1.81025	22.6718
1.91271	22.6718
2.02657	22.9517
2.14042	23.2316
2.24288	23.5115
2.34535	23.9313
2.4592	24.0712
2.56167	24.3511
2.67552	24.631
2.7666	24.9109
2.88046	25.1908
2.98292	25.3308
3.09677	25.6107
3.17647	25.7506
3.19924	25.8906
3.31309	26.0305
3.41556	26.3104
3.52941	26.5903
3.63188	26.8702
3.73435	27.0102
3.8482	27.1501
3.96205	27.43
4.06452	27.57
4.17837	27.9898
4.28083	27.9898
4.3833	28.2697
4.49715	28.4097
4.61101	28.6896
4.71347	29.1094
4.81594	28.9695
4.91841	29.2494
5.02087	29.5293
5.13472	29.6692
5.23719	30.0891
5.28273	30.0891
