Adsorption isotherm of Hydrogen on Zeolite RhNaX-69
DOI: 10.1016/j.ijhydene.2007.10.047
Adsorbate Hydrogen: InChIKey UFHFLCQGNIYNRP-UHFFFAOYSA-N
Temperature: 77 K
Tabular data in the source: 0
pressure (bar)	uptake (molecules/unitcell)
0.0362173	4.58753
0.0917505	6.56451
0.11831	6.57175
0.135211	7.88425
0.156942	8.21715
0.202817	8.55663
0.251107	9.87769
0.287324	10.2145
0.340443	10.556
0.395976	11.552
0.456338	11.8955
0.545674	12.9007
0.572233	13.2349
0.625352	13.2494
0.680885	13.9185
0.736419	14.2606
0.796781	14.604
0.852314	14.9461
0.907847	15.2882
0.931992	15.6218
1.02374	15.9738
1.12998	16.9836
