Adsorption isotherm of Hydrogen on Zeolite RhNaX-55
DOI: 10.1016/j.ijhydene.2007.10.047
Adsorbate Hydrogen: InChIKey UFHFLCQGNIYNRP-UHFFFAOYSA-N
Temperature: 303 K
Tabular data in the source: 0
pressure (bar)	uptake (molecules/unitcell)
0.0479586	12.512
0.0582046	18.9366
0.150926	24.8008
0.261601	28.2988
0.353834	31.2326
0.482764	34.1677
0.657622	37.4427
0.804731	39.3642
0.933379	40.6088
1.05283	41.7404
1.19979	42.7602
1.32833	43.3286
1.59461	44.6911
1.8608	45.49
2.13622	46.6274
2.39318	47.0879
2.65933	47.6614
2.88876	48.1208
3.19161	48.6957
3.48526	49.1576
3.73305	49.6177
3.99	50.0782
4.23775	50.3129
4.52225	50.8871
4.77003	51.3472
5.31147	52.2692
