Adsorption isotherm of Hydrogen on Zeolite RhX
DOI: 10.1016/j.ijhydene.2007.10.047
Adsorbate Hydrogen: InChIKey UFHFLCQGNIYNRP-UHFFFAOYSA-N
Temperature: 77 K
Tabular data in the source: 0
pressure (bar)	uptake (molecules/unitcell)
0.0114105	33.9823
0.0304279	99.823
0.0494453	137.522
0.0950872	160.885
0.203487	178.407
0.304279	185.841
0.399366	191.681
0.50206	199.115
0.600951	204.956
0.703645	208.673
0.800634	212.92
0.897623	216.106
1.00222	219.823
1.06307	223.009
1.12013	225.133
