Adsorption isotherm of Hydrogen on Zeolite NiNaX
DOI: 10.1016/j.ijhydene.2007.10.047
Adsorbate Hydrogen: InChIKey UFHFLCQGNIYNRP-UHFFFAOYSA-N
Temperature: 333 K
Tabular data in the source: 0
pressure (bar)	uptake (molecules/unitcell)
0.0572152	2.31884
0.159552	3.62319
0.239114	4.49275
0.341286	5.07246
0.420816	5.7971
0.57971	6.52174
0.749877	6.95652
0.931381	7.3913
1.06753	7.82609
1.38516	8.55072
1.60061	8.69565
1.88409	8.84058
2.12225	9.13043
2.38306	9.27536
2.64389	9.56522
2.84797	9.56522
3.18818	9.85507
3.43767	10.1449
4.25413	10.7246
4.53761	10.8696
4.77574	11.0145
5.02524	11.3043
5.22929	11.1594
