Adsorption isotherm of Hydrogen on Zeolite NiNaX-70
DOI: 10.1016/j.ijhydene.2007.10.047
Adsorbate Hydrogen: InChIKey UFHFLCQGNIYNRP-UHFFFAOYSA-N
Temperature: 303 K
Tabular data in the source: 0
pressure (bar)	uptake (molecules/unitcell)
0.0824427	1.23876
0.201527	2.47822
0.265649	3.15426
0.412214	4.05681
0.531298	4.39646
0.668702	4.96141
0.806107	5.41388
0.943511	5.75388
1.0626	5.86859
1.19084	6.20842
1.3374	6.32364
1.60305	6.77852
1.85954	7.00827
2.11603	7.35051
2.4	7.58078
2.66565	7.58576
3.17863	8.04527
3.70076	8.28001
4.23206	8.62739
4.82748	8.97598
5.29466	9.32216
