Adsorption isotherm of Hydrogen on Zeolite 13X
DOI: 10.1016/j.ijhydene.2007.10.047
Adsorbate Hydrogen: InChIKey UFHFLCQGNIYNRP-UHFFFAOYSA-N
Temperature: 333 K
Tabular data in the source: 0
pressure (bar)	uptake (molecules/unitcell)
0.0681818	2.5
0.170455	4.91071
0.272727	6.16071
0.397727	7.58929
0.522727	8.48214
0.670455	9.55357
0.795455	10.2679
0.943182	11.1607
1.07955	11.9643
1.19318	12.8571
1.32955	13.4821
1.60227	14.6429
1.875	15.9821
2.13636	16.6964
2.39773	17.5893
2.67045	18.75
3.17045	20.0893
3.70455	21.6071
4.23864	22.8571
4.48864	23.3036
4.76136	23.75
5.28409	24.375
