Adsorption isotherm of Hydrogen on Zeolite NiNaX-70
DOI: 10.1016/j.ijhydene.2007.10.047
Adsorbate Hydrogen: InChIKey UFHFLCQGNIYNRP-UHFFFAOYSA-N
Temperature: 303 K
Tabular data in the source: 0
pressure (bar)	uptake (molecules/unitcell)
0.0625154	2.26531
0.148051	3.45918
0.233188	4.2551
0.330373	5.05102
0.439452	5.69388
0.584706	6.36735
0.754026	7.0102
0.923193	7.5
1.05609	7.86735
1.22504	8.14286
1.38192	8.38776
1.58698	8.63265
1.87638	8.87755
2.12964	9.12245
2.38284	9.30612
2.66016	9.52041
3.1786	9.88776
3.70915	10.3163
4.25169	10.6837
4.7701	11.0204
5.22821	11.2959
