Adsorption isotherm of Hydrogen on Zeolite RhNaX-73
DOI: 10.1016/j.ijhydene.2007.10.047
Adsorbate Hydrogen: InChIKey UFHFLCQGNIYNRP-UHFFFAOYSA-N
Temperature: 333 K
Tabular data in the source: 0
pressure (bar)	uptake (molecules/unitcell)
0.0796964	4.75827
0.204934	7.6972
0.3074	9.51654
0.398482	10.6361
0.535104	12.0356
0.660342	13.0153
0.785579	13.9949
0.922201	14.8346
1.04744	15.5344
1.19545	16.0941
1.33207	16.7939
1.38899	16.9338
1.49146	17.3537
1.65085	17.9135
1.75332	18.3333
1.8444	18.8931
1.91271	18.8931
2.01518	19.313
2.17457	19.7328
2.28843	20.1527
2.44782	20.7125
2.55028	21.1323
2.70968	21.6921
2.82353	21.8321
2.926	22.112
3.03985	22.3919
3.24478	22.9517
3.35863	23.2316
3.4611	23.5115
3.57495	23.7913
3.70019	24.2112
3.81404	24.3511
3.91651	24.631
4.03036	24.771
4.14421	25.0509
4.31499	25.4707
4.42884	25.6107
4.53131	25.8906
4.64516	26.1705
4.81594	26.5903
4.92979	26.7303
5.04364	26.8702
5.14611	27.0102
5.24858	27.1501
5.28273	27.1501
