Adsorption isotherm of Hydrogen on Zeolite NiNaX-49
DOI: 10.1016/j.ijhydene.2007.10.047
Adsorbate Hydrogen: InChIKey UFHFLCQGNIYNRP-UHFFFAOYSA-N
Temperature: 303 K
Tabular data in the source: 0
pressure (bar)	uptake (molecules/unitcell)
0.171595	2.90816
0.377551	4.04082
0.583046	4.71429
0.76423	5.17347
0.993484	5.5102
1.22271	5.81633
1.33126	5.93878
1.59663	6.2449
1.86188	6.42857
2.15122	6.61224
2.38029	6.76531
2.65755	6.91837
3.1759	7.19388
3.7184	7.53061
4.23681	7.86735
4.77929	8.17347
5.29758	8.38776
