Adsorption isotherm of Hydrogen on Zeolite NiNaX-75
DOI: 10.1016/j.ijhydene.2007.10.047
Adsorbate Hydrogen: InChIKey UFHFLCQGNIYNRP-UHFFFAOYSA-N
Temperature: 303 K
Tabular data in the source: 0
pressure (bar)	uptake (molecules/unitcell)
0.256639	3.61224
0.401955	4.34694
0.522898	4.80612
0.667906	5.23469
0.788665	5.5102
0.92141	5.72449
1.03003	5.90816
1.19892	6.12245
1.31962	6.33673
1.58492	6.58163
1.83818	6.82653
2.10339	6.97959
2.35653	7.10204
2.62177	7.28571
3.20042	7.62245
3.70669	7.86735
4.17694	8.23469
4.46625	8.38776
4.75556	8.54082
5.00873	8.69388
5.29804	8.84694
