Adsorption isotherm of Hydrogen on Zeolite NiNaX-70
DOI: 10.1016/j.ijhydene.2007.10.047
Adsorbate Hydrogen: InChIKey UFHFLCQGNIYNRP-UHFFFAOYSA-N
Temperature: 303 K
Tabular data in the source: 0
pressure (bar)	uptake (molecules/unitcell)
0.0549618	1.80062
0.146565	2.92708
0.265649	4.05406
0.403053	4.61901
0.503817	4.95832
0.668702	5.29883
0.806107	5.63883
0.925191	5.86601
1.21832	6.32141
1.3374	6.54859
2.39084	7.46813
2.66565	7.81071
3.19695	8.15809
3.71908	8.61777
4.25038	8.96516
4.76336	9.3122
5.29466	9.65958
