Adsorption isotherm of Hydrogen on Zeolite RhNaX-73
DOI: 10.1016/j.ijhydene.2007.10.047
Adsorbate Hydrogen: InChIKey UFHFLCQGNIYNRP-UHFFFAOYSA-N
Temperature: 303 K
Tabular data in the source: 0
pressure (bar)	uptake (molecules/unitcell)
0.0821109	12.4219
0.165914	17.1662
0.274451	19.6764
0.395326	21.2091
0.528321	22.7415
0.685713	23.5754
0.806803	24.131
0.940137	24.1279
1.07335	24.6831
1.21874	24.959
1.32786	24.8168
1.5338	25.3704
1.63074	25.5077
1.75192	25.6445
1.86095	25.9212
1.97005	25.9186
2.07908	26.1953
2.17605	26.193
2.2972	26.4694
2.40626	26.6065
2.51532	26.7435
2.60004	27.2999
2.69705	27.1581
2.80611	27.2951
2.92729	27.4319
3.04847	27.5687
3.15753	27.7057
3.2545	27.7035
3.37568	27.8402
3.49686	27.977
3.60593	28.1141
3.78771	28.2494
3.9089	28.3862
4.03011	28.3834
4.15129	28.5202
4.30884	28.6561
4.43002	28.7929
4.55123	28.7901
4.67241	28.9268
4.75723	29.0644
4.87844	29.0616
4.9875	29.1987
5.10869	29.3355
5.22987	29.4722
5.29047	29.4708
5.32684	29.47
