Adsorption isotherm of Hydrogen on Zeolite NiNaX-73
DOI: 10.1016/j.ijhydene.2007.10.047
Adsorbate Hydrogen: InChIKey UFHFLCQGNIYNRP-UHFFFAOYSA-N
Temperature: 333 K
Tabular data in the source: 0
pressure (bar)	uptake (molecules/unitcell)
0.0681818	3.75
0.215909	6.51786
0.272727	7.5
0.409091	8.83929
0.545455	9.91071
0.670455	10.7143
0.795455	11.5179
0.943182	12.5
1.05682	13.0357
1.20455	13.75
1.32955	14.4643
1.57955	15.8036
1.86364	16.875
2.125	17.9464
2.38636	19.0179
2.63636	20.1786
3.11364	21.6071
3.70455	23.3036
4.17045	24.2857
4.76136	25.625
5.28409	26.4286
