Adsorption isotherm of Hydrogen on Zeolite NiNaX-65
DOI: 10.1016/j.ijhydene.2007.10.047
Adsorbate Hydrogen: InChIKey UFHFLCQGNIYNRP-UHFFFAOYSA-N
Temperature: 77 K
Tabular data in the source: 0
pressure (bar)	uptake (molecules/unitcell)
0.0388634	15.6948
0.0656754	21.9074
0.107175	28.4469
0.134047	31.7166
0.182926	36.6213
0.204927	38.5831
0.246493	41.8529
0.28563	44.1417
0.344332	47.7384
0.398143	51.0082
0.451967	53.624
0.510702	55.5858
0.564533	57.8747
0.618377	59.5095
0.679555	61.7984
0.735848	63.4332
0.794597	64.7411
0.850897	66.049
0.907197	67.3569
0.961048	68.6649
1.01735	69.6458
1.07856	70.6267
1.12752	71.6076
