Adsorption isotherm of Hydrogen on Zeolite 13X
DOI: 10.1016/j.ijhydene.2007.10.047
Adsorbate Hydrogen: InChIKey UFHFLCQGNIYNRP-UHFFFAOYSA-N
Temperature: 77 K
Tabular data in the source: 0
pressure (bar)	uptake (molecules/unitcell)
0.00711338	11.4441
0.00931546	23.5422
0.0359072	40.545
0.0699394	52.97
0.0967514	59.1826
0.106501	61.4714
0.128461	65.3951
0.157762	69.6458
0.196839	74.8774
0.213942	76.8392
0.25059	81.0899
0.279931	83.3787
0.341055	88.2834
0.399758	91.8801
0.456024	94.8229
0.509842	97.7657
0.568577	99.7275
0.619959	102.016
0.681143	103.978
0.734987	105.613
0.79373	107.248
0.847574	108.883
0.950384	111.172
1.01893	112.48
1.07522	114.114
1.12419	114.768
