Adsorption isotherm of Hydrogen on Zeolite RhNaX-55
DOI: 10.1016/j.ijhydene.2007.10.047
Adsorbate Hydrogen: InChIKey UFHFLCQGNIYNRP-UHFFFAOYSA-N
Temperature: 333 K
Tabular data in the source: 0
pressure (bar)	uptake (molecules/unitcell)
0.056926	13.855
0.0683112	18.7532
0.170778	24.771
0.26186	28.4097
0.398482	32.0483
0.455408	33.3079
0.535104	34.9873
0.603416	36.1069
0.671727	37.3664
0.796964	39.3257
0.933586	40.5852
1.05882	41.7048
1.19545	42.6845
1.33207	43.3842
1.41176	43.6641
1.51423	44.2239
1.63947	44.7837
1.74194	45.0636
1.94687	45.7634
2.04934	46.3232
2.11765	46.4631
2.19734	46.743
2.29981	46.883
2.42505	47.3028
2.5389	47.3028
2.64137	47.5827
2.72106	47.7226
2.83491	47.8626
2.94877	48.1425
3.05123	48.2824
3.25617	48.7023
3.37002	48.8422
3.48387	48.9822
3.58634	49.1221
3.71157	49.402
3.79127	49.6819
3.89374	49.6819
4.00759	49.9618
4.12144	50.1018
4.31499	50.5216
4.42884	50.6616
4.54269	50.8015
4.64516	50.9415
4.74763	51.0814
4.81594	51.3613
4.92979	51.3613
5.03226	51.6412
5.14611	51.7812
5.29412	52.201
