Adsorption isotherm of Hydrogen on Zeolite NiNaX-73
DOI: 10.1016/j.ijhydene.2007.10.047
Adsorbate Hydrogen: InChIKey UFHFLCQGNIYNRP-UHFFFAOYSA-N
Temperature: 77 K
Tabular data in the source: 0
pressure (bar)	uptake (molecules/unitcell)
0.0414325	9.80926
0.0707401	13.733
0.104952	17.3297
0.134293	19.6185
0.183193	23.5422
0.20522	24.1962
0.2468	26.812
0.28595	28.4469
0.337319	31.3896
0.39851	33.0245
0.452341	35.3134
0.54045	37.9292
0.618764	40.545
0.682404	42.1798
0.738718	42.8338
0.792569	44.1417
0.851317	45.4496
0.936992	47.4114
1.01778	48.7193
1.07899	49.7003
1.12305	50.6812
