Adsorption isotherm of Hydrogen on Zeolite NiNaX-70
DOI: 10.1016/j.ijhydene.2007.10.047
Adsorbate Hydrogen: InChIKey UFHFLCQGNIYNRP-UHFFFAOYSA-N
Temperature: 303 K
Tabular data in the source: 0
pressure (bar)	uptake (molecules/unitcell)
0.064559	2.03111
0.13818	3.38634
0.220899	4.29109
0.321949	5.08382
0.422961	5.65114
0.569864	6.33288
0.744271	6.90296
0.918715	7.69845
1.04718	7.81598
1.21239	8.27301
1.36835	8.27887
1.58859	8.62525
1.85471	8.97337
2.12078	9.09607
2.37772	9.44384
2.6438	9.56654
3.17597	9.92464
3.70814	10.2828
4.24033	10.7536
4.76334	11.224
5.2221	11.4667
