Adsorption isotherm of Nitrogen on MILd-ED
DOI: 10.1002/adfm.201002517
Adsorbate Nitrogen: InChIKey IJGRMHOSHXDMSA-UHFFFAOYSA-N
Temperature: 77 K
Tabular data in the source: 0
pressure (bar)	uptake (cm3(STP)/g)
0.00426699	142.045
0.00695362	166.667
0.00957252	196.97
0.00975313	181.818
0.0242248	217.803
0.0476368	253.788
0.0682493	274.621
0.0978248	293.561
0.106585	308.712
0.118437	314.394
0.163004	325.758
0.189802	327.652
0.207593	335.227
0.222493	335.227
0.243377	333.333
0.273155	335.227
0.314809	340.909
0.365471	340.909
0.392247	344.697
0.425051	342.803
0.472688	346.591
0.484609	346.591
0.544211	346.591
0.582907	350.379
0.603791	348.485
0.666328	352.273
0.746769	354.167
0.782485	357.955
0.836128	357.955
0.898642	363.636
0.931424	363.636
0.958132	373.106
