Adsorption isotherm of Nitrogen on MIL-GO2-EM
DOI: 10.1002/adfm.201002517
Adsorbate Nitrogen: InChIKey IJGRMHOSHXDMSA-UHFFFAOYSA-N
Temperature: 77 K
Tabular data in the source: 0
pressure (bar)	uptake (cm3(STP)/g)
0.00298929	138.783
0.00597858	174.905
0.0119572	190.114
0.0239143	209.125
0.0388608	230.038
0.050818	252.852
0.0687537	266.16
0.0956574	288.973
0.110604	304.183
0.122561	317.49
0.17039	326.996
0.194304	326.996
0.215229	326.996
0.248111	330.798
0.280993	334.601
0.316865	336.502
0.367683	338.403
0.400565	338.403
0.418501	340.304
0.478287	340.304
0.55003	346.008
0.585901	346.008
0.609816	347.909
0.666612	347.909
0.753302	351.711
0.783195	351.711
0.84298	353.612
0.902766	355.513
0.935648	359.316
0.962552	365.019
