Adsorption isotherm of Nitrogen on MIL-GO2d-ED
DOI: 10.1002/adfm.201002517
Adsorbate Nitrogen: InChIKey IJGRMHOSHXDMSA-UHFFFAOYSA-N
Temperature: 77 K
Tabular data in the source: 0
pressure (bar)	uptake (cm3(STP)/g)
0.0149465	188.213
0.0478287	241.445
0.0657644	266.16
0.0956574	292.776
0.107615	300.38
0.122561	317.49
0.1674	325.095
0.215229	334.601
0.245122	334.601
0.275015	332.7
0.316865	338.403
0.367683	338.403
0.397576	340.304
0.427469	338.403
0.478287	340.304
0.487255	340.304
0.55003	342.205
0.588891	344.106
0.606826	342.205
0.669601	344.106
0.732377	344.106
0.75928	346.008
0.786184	346.008
0.84597	346.008
0.902766	347.909
0.935648	351.711
0.962552	353.612
