Adsorption isotherm of Nitrogen on MIL-GO2
DOI: 10.1002/adfm.201002517
Adsorbate Nitrogen: InChIKey IJGRMHOSHXDMSA-UHFFFAOYSA-N
Temperature: 77 K
Tabular data in the source: 0
pressure (bar)	uptake (cm3(STP)/g)
0.00298929	218.631
0.0269036	237.643
0.0388608	258.555
0.0538073	283.27
0.0657644	296.578
0.0926681	323.194
0.122561	349.81
0.1674	361.217
0.21224	366.92
0.257079	368.821
0.280993	368.821
0.319854	370.722
0.367683	372.624
0.397576	372.624
0.427469	372.624
0.475297	374.525
0.490244	376.426
0.544051	376.426
0.588891	376.426
0.609816	378.327
0.666612	376.426
0.729387	378.327
0.75928	378.327
0.786184	380.228
0.837002	378.327
0.854938	378.327
0.899777	382.129
0.938638	384.03
0.965541	387.833
