Adsorption isotherm of Nitrogen on MIL-GO1d-ED
DOI: 10.1002/adfm.201002517
Adsorbate Nitrogen: InChIKey IJGRMHOSHXDMSA-UHFFFAOYSA-N
Temperature: 77 K
Tabular data in the source: 0
pressure (bar)	uptake (cm3(STP)/g)
0.00298929	0.00298929
0.00597858	133.08
0.0119572	142.586
0.0239143	155.894
0.0358715	171.103
0.050818	182.51
0.0687537	199.62
0.0986466	218.631
0.122561	235.741
0.161422	247.148
0.194304	250.951
0.224197	252.852
0.251101	256.654
0.278004	256.654
0.307897	258.555
0.364694	260.456
0.394587	264.259
0.427469	262.357
0.484265	264.259
0.544051	266.16
0.603837	269.962
0.663623	268.061
0.753302	271.863
0.839991	275.665
0.890809	277.567
0.932659	279.468
0.956574	287.072
