Adsorption isotherm of Nitrogen on MIL-GO1-EM
DOI: 10.1002/adfm.201002517
Adsorbate Nitrogen: InChIKey IJGRMHOSHXDMSA-UHFFFAOYSA-N
Temperature: 77 K
Tabular data in the source: 0
pressure (bar)	uptake (cm3(STP)/g)
0.00298929	209.125
0.00896788	224.335
0.0239143	249.049
0.0358715	269.962
0.0627751	315.589
0.0986466	338.403
0.113593	361.217
0.116582	368.821
0.176368	380.228
0.194304	384.03
0.233165	385.932
0.257079	389.734
0.278004	389.734
0.319854	393.536
0.364694	393.536
0.391597	393.536
0.427469	393.536
0.475297	397.338
0.487255	397.338
0.54704	399.24
0.588891	397.338
0.609816	397.338
0.666612	399.24
0.732377	401.141
0.75928	399.24
0.786184	403.042
0.839991	401.141
0.84298	401.141
0.905756	403.042
0.938638	404.943
0.962552	410.646
