Adsorption isotherm of Nitrogen on MIL-GO1
DOI: 10.1002/adfm.201002517
Adsorbate Nitrogen: InChIKey IJGRMHOSHXDMSA-UHFFFAOYSA-N
Temperature: 77 K
Tabular data in the source: 0
pressure (bar)	uptake (cm3(STP)/g)
0.00896788	0.00896788
0.0179358	294.677
0.0358715	317.49
0.0478287	342.205
0.0627751	366.92
0.0896788	391.635
0.0956574	401.141
0.119572	427.757
0.206261	452.471
0.239143	456.274
0.25409	460.076
0.280993	460.076
0.304908	461.977
0.367683	461.977
0.391597	465.779
0.42448	467.681
0.487255	467.681
0.544051	467.681
0.582912	471.483
0.612805	471.483
0.666612	473.384
0.735366	473.384
0.75928	473.384
0.786184	473.384
0.84597	475.285
0.905756	477.186
0.938638	479.087
0.962552	488.593
