Adsorption isotherm of Nitrogen on MIL-GO2-ED
DOI: 10.1002/adfm.201002517
Adsorbate Nitrogen: InChIKey IJGRMHOSHXDMSA-UHFFFAOYSA-N
Temperature: 77 K
Tabular data in the source: 0
pressure (bar)	uptake (cm3(STP)/g)
0.0119572	205.323
0.0239143	228.137
0.0388608	243.346
0.050818	269.962
0.0627751	283.27
0.0956574	311.787
0.110604	326.996
0.116582	336.502
0.17039	347.909
0.20925	353.612
0.233165	351.711
0.251101	353.612
0.272026	355.513
0.316865	357.414
0.364694	361.217
0.394587	361.217
0.427469	363.118
0.478287	363.118
0.490244	363.118
0.55003	365.019
0.588891	365.019
0.609816	365.019
0.666612	366.92
0.732377	368.821
0.76227	368.821
0.786184	368.821
0.84298	370.722
0.851948	370.722
0.899777	372.624
0.938638	372.624
0.962552	378.327
