Adsorption isotherm of Nitrogen on MIL-ED
DOI: 10.1002/adfm.201002517
Adsorbate Nitrogen: InChIKey IJGRMHOSHXDMSA-UHFFFAOYSA-N
Temperature: 77 K
Tabular data in the source: 0
pressure (bar)	uptake (cm3(STP)/g)
0.000677301	193.182
0.0121237	232.955
0.0237733	255.682
0.0354454	276.515
0.0470724	301.136
0.0529649	306.818
0.0647048	321.97
0.0911872	350.379
0.108797	373.106
0.12065	378.788
0.162259	388.258
0.19793	395.833
0.206802	401.515
0.227708	397.727
0.245589	397.727
0.275345	401.515
0.302144	403.409
0.311062	405.303
0.364681	407.197
0.39148	409.091
0.421281	409.091
0.474901	410.985
0.483864	409.091
0.543443	410.985
0.582162	412.879
0.603023	412.879
0.662626	412.879
0.680484	414.773
0.710285	414.773
0.754964	416.667
0.781763	418.561
0.835383	420.455
0.900923	422.348
0.930701	424.242
0.95741	433.712
