Adsorption isotherm of Nitrogen on MIL
DOI: 10.1002/adfm.201002517
Adsorbate Nitrogen: InChIKey IJGRMHOSHXDMSA-UHFFFAOYSA-N
Temperature: 77 K
Tabular data in the source: 0
pressure (bar)	uptake (cm3(STP)/g)
0.00419926	147.727
0.0090984	236.742
0.0118076	259.47
0.023412	285.985
0.0380643	306.818
0.0467112	331.439
0.0495784	340.909
0.0613409	354.167
0.0878459	380.682
0.0996083	393.939
0.114261	414.773
0.120153	420.455
0.200346	443.182
0.230124	445.076
0.259903	446.97
0.286724	446.97
0.31052	450.758
0.340321	450.758
0.3701	452.652
0.399878	454.545
0.423697	456.439
0.450518	456.439
0.477316	458.333
0.50714	456.439
0.533939	458.333
0.56374	458.333
0.593519	460.227
0.62332	460.227
0.650118	462.121
0.67992	462.121
0.709721	462.121
0.739499	464.015
0.76632	464.015
0.796099	465.909
0.82292	465.909
0.849741	465.909
0.879497	469.697
0.903293	473.485
0.933094	473.485
0.95084	484.848
