Adsorption isotherm of Nitrogen on MIL-GO1-ED
DOI: 10.1002/adfm.201002517
Adsorbate Nitrogen: InChIKey IJGRMHOSHXDMSA-UHFFFAOYSA-N
Temperature: 77 K
Tabular data in the source: 0
pressure (bar)	uptake (cm3(STP)/g)
0.00597858	0.00597858
0.00896788	228.137
0.0239143	252.852
0.0388608	273.764
0.0478287	294.677
0.0657644	321.293
0.0986466	344.106
0.110604	365.019
0.119572	378.327
0.1674	387.833
0.197293	389.734
0.21224	391.635
0.230176	393.536
0.251101	397.338
0.278004	395.437
0.319854	399.24
0.364694	401.141
0.397576	403.042
0.427469	403.042
0.475297	406.844
0.487255	404.943
0.54704	410.646
0.588891	408.745
0.603837	408.745
0.666612	412.548
0.753302	412.548
0.786184	414.449
0.84298	416.35
0.902766	420.152
0.935648	420.152
0.962552	423.954
