Adsorption isotherm of Nitrogen on MIL-EM
DOI: 10.1002/adfm.201002517
Adsorbate Nitrogen: InChIKey IJGRMHOSHXDMSA-UHFFFAOYSA-N
Temperature: 77 K
Tabular data in the source: 0
pressure (bar)	uptake (cm3(STP)/g)
0.0093016	219.697
0.023999	236.742
0.0327136	255.682
0.0472982	282.197
0.0679558	299.242
0.0944834	323.864
0.106223	339.015
0.123969	350.379
0.1656	357.955
0.195356	361.742
0.210189	367.424
0.222132	365.53
0.248953	365.53
0.275774	365.53
0.302573	367.424
0.314426	373.106
0.362153	369.318
0.394866	375
0.409789	373.106
0.42171	373.106
0.475262	380.682
0.48427	375
0.543872	375
0.582591	376.894
0.603475	375
0.663032	378.788
0.725592	380.682
0.752436	378.788
0.776232	382.576
0.838814	382.576
0.898394	384.47
0.931153	386.364
0.954881	395.833
