Adsorption isotherm of Methane on Carbon
DOI: 10.1016/s0167-2991(08)63564-8
Adsorbate Methane: InChIKey VNWKTOKETHGBQD-UHFFFAOYSA-N
Temperature: 303 K
Tabular data in the source: 0
pressure (bar)	uptake (mmol/g)
0.112914	0.227548
0.224676	0.360699
0.525436	0.692409
0.933167	1.05887
2.16932	1.79266
3.65072	2.40334
5.71812	3.01684
9.50848	3.87866
19.6114	4.69708
28.5893	5.10746
45.5904	6.1116
87.5169	6.80651
96.3086	6.80651
