Adsorption isotherm of Nitrogen on Zeolite 5A
DOI: 10.1016/s0167-2991(08)63564-8
Adsorbate Nitrogen: InChIKey IJGRMHOSHXDMSA-UHFFFAOYSA-N
Temperature: 303 K
Tabular data in the source: 0
pressure (bar)	uptake (mmol/g)
0.110244	0.0497849
0.188888	0.0847908
0.413606	0.179118
0.491969	0.205543
0.531761	0.218215
0.683669	0.278879
0.842922	0.321941
1.55173	0.538558
2.06794	0.64444
3.1248	0.939458
3.96968	1.1309
4.77863	1.27465
6.18061	1.49812
7.52968	1.65851
8.69233	1.79266
11.4462	1.96098
15.3454	2.1451
20.0864	2.33251
28.5893	2.56683
39.7294	2.69267
49.5736	2.80784
81.4539	2.98095
92.9127	2.99884
