Adsorption isotherm of Methane on Zeolite 5A
DOI: 10.1016/s0167-2991(08)63564-8
Adsorbate Methane: InChIKey VNWKTOKETHGBQD-UHFFFAOYSA-N
Temperature: 303 K
Tabular data in the source: 0
pressure (bar)	uptake (mmol/g)
0.112914	0.0822919
0.134308	0.105169
0.191162	0.14355
0.294091	0.210521
0.447059	0.318112
0.863338	0.564962
1.26612	0.780422
1.80209	1.05256
2.64283	1.32917
4.18929	1.81424
5.68401	2.17092
7.71205	2.5363
11.5148	2.82469
21.3248	3.3001
29.2818	3.60995
40.2077	3.71958
50.1703	3.7419
94.5954	3.83253
