Adsorption isotherm of Carbon monoxide on Carbon
DOI: 10.1016/s0167-2991(08)63564-8
Adsorbate Carbon monoxide: InChIKey UGFAIRIUMAVXCW-UHFFFAOYSA-N
Temperature: 303 K
Tabular data in the source: 0
pressure (bar)	uptake (mmol/g)
0.112914	0.0852996
0.220679	0.147026
0.396641	0.231669
0.497891	0.289072
1.00263	0.516469
1.54248	0.704949
2.96099	1.15139
5.92711	1.86933
8.84976	2.26377
18.6949	3.20284
29.4575	3.90194
68.8904	4.75363
101.637	4.86876
