Adsorption isotherm of Carbon Dioxide on Carbon
DOI: 10.1016/s0167-2991(08)63564-8
Adsorbate Carbon Dioxide: InChIKey CURLTUGMZLYLDI-UHFFFAOYSA-N
Temperature: 303 K
Tabular data in the source: 0
pressure (bar)	uptake (mmol/g)
0.107637	0.466523
0.231499	0.900926
1.09677	2.49118
2.18234	3.65341
2.58033	3.99644
5.04299	5.52056
6.25501	6.00288
6.88338	6.1116
7.99392	6.37299
9.17321	6.48841
12.3719	7.31315
16.4876	7.81064
20.0864	7.95209
23.4671	8.2922
26.7684	8.44238
29.6343	8.544
58.2647	9.45873
