Adsorption isotherm of Nitrogen on Zeolite 5A
DOI: 10.1016/s0167-2991(08)63564-8
Adsorbate Nitrogen: InChIKey IJGRMHOSHXDMSA-UHFFFAOYSA-N
Temperature: 303 K
Tabular data in the source: 0
pressure (bar)	uptake (mmol/g)
0.152288	0.067548
0.219363	0.0884173
0.483218	0.195936
0.961504	0.389873
2.85658	0.858821
5.71812	1.36136
10.1553	1.81424
15.4375	2.29102
19.8475	2.37475
39.4924	2.72509
50.1703	2.85869
90.1744	3.05315
