Adsorption isotherm of Carbon Dioxide on Zeolite 5A
DOI: 10.1016/s0167-2991(08)63564-8
Adsorbate Carbon Dioxide: InChIKey CURLTUGMZLYLDI-UHFFFAOYSA-N
Temperature: 303 K
Tabular data in the source: 0
pressure (bar)	uptake (mmol/g)
0.1009	3.1574
0.296565	3.79552
0.482385	4.05342
0.706296	4.2723
0.955694	4.2723
1.11903	4.32885
2.13125	4.50301
2.80897	4.68417
3.90211	4.74617
5.14295	4.74617
6.34707	4.93711
7.23893	5.00246
8.04184	5.00246
9.05204	5.00246
10.324	5.00246
11.1714	5.06866
14.7238	5.27259
20.4537	5.27259
39.471	5.41307
50.6722	5.41307
96.5083	5.48471
