Adsorption isotherm of Carbon monoxide on Zeolite 5A
DOI: 10.1016/s0167-2991(08)63564-8
Adsorbate Carbon monoxide: InChIKey UGFAIRIUMAVXCW-UHFFFAOYSA-N
Temperature: 303 K
Tabular data in the source: 0
pressure (bar)	uptake (mmol/g)
0.148687	0.382938
0.254754	0.516469
0.418584	0.722023
0.683669	0.950767
1.07083	1.17224
1.79134	1.4803
2.04334	1.59049
3.67263	2.00847
6.1071	2.44687
8.74449	2.70883
18.4725	3.26084
39.9678	3.71958
52.004	3.7419
88.5704	3.76435
