Adsorption isotherm of Nitrogen on IRMOF-1
DOI: 10.1016/j.micromeso.2014.09.025
Article source: Figure 4
Adsorbate Nitrogen: InChIKey IJGRMHOSHXDMSA-UHFFFAOYSA-N
Kind: experiment
Temperature: 77 K
Tabular data in the source: 0
pressure (bar)	uptake (cm3(STP)/g)
0	0
0	100
0.004592	550.896
0.00785	638.159
0.028707	719.554
0.064068	751.452
0.090532	760.104
0.105238	765.88
0.128766	774.539
0.143461	777.406
0.164041	783.165
0.181663	783.115
0.205179	788.865
0.252191	794.549
0.308025	803.116
0.360911	808.782
0.407923	814.465
0.457861	817.231
0.513695	825.798
0.557749	825.671
0.610624	828.429
0.663489	828.277
0.713416	828.134
0.766292	830.891
0.795662	830.807
0.816219	830.748
0.839726	833.589
0.872032	833.496
0.89259	833.437
0.910223	836.296
0.924908	836.254
0.942539	839.112
0.966046	841.954
0.977815	847.738
0.989573	850.613
1.00134	856.398
1.0131	859.273
