Adsorption isotherm of Nitrogen on 1Pt/MOF-5
DOI: 10.1016/j.micromeso.2014.09.025
Article source: Figure 4
Adsorbate Nitrogen: InChIKey IJGRMHOSHXDMSA-UHFFFAOYSA-N
Kind: experiment
Temperature: 77 K
Tabular data in the source: 0
pressure (bar)	uptake (cm3(STP)/g)
0	0
0	102.899
0.010313	482.579
0.030569	549.188
0.065647	566.479
0.083176	578.023
0.106583	583.753
0.124132	589.5
0.141703	589.45
0.162203	589.391
0.182692	592.231
0.20317	597.97
0.250004	603.633
0.299768	609.287
0.358317	614.917
0.402234	617.69
0.454936	620.438
0.510556	626.076
0.557412	625.942
0.607186	628.698
0.659899	628.547
0.709673	631.303
0.756529	631.169
0.800456	631.044
0.835588	633.842
0.859005	636.673
0.891208	639.48
0.920493	639.396
0.958531	647.983
0.981927	656.611
0.99362	662.375
1.00529	673.936
