Adsorption isotherm of Hydrogen on IRMOF-1
DOI: 10.1016/j.micromeso.2014.09.025
Article source: Figure 5
Adsorbate Hydrogen: InChIKey UFHFLCQGNIYNRP-UHFFFAOYSA-N
Kind: experiment
Temperature: 298 K
Tabular data in the source: 0
pressure (bar)	uptake (wt%)
0	0
1.18163	0.017544
9.72523	0.06579
30.3406	0.157895
50.3676	0.25
70.0942	0.320175
100.424	0.442982
