Adsorption isotherm of Nitrogen on 4Pt/MOF-5
DOI: 10.1016/j.micromeso.2014.09.025
Article source: Figure 4
Adsorbate Nitrogen: InChIKey IJGRMHOSHXDMSA-UHFFFAOYSA-N
Kind: experiment
Temperature: 77 K
Tabular data in the source: 0
pressure (bar)	uptake (cm3(STP)/g)
0	0
0	100
0.007177	454.888
0.033823	512.994
0.06033	533.281
0.069151	536.165
0.086794	541.933
0.1015	547.709
0.116207	553.485
0.130891	553.442
0.139723	559.235
0.157355	562.094
0.174977	562.043
0.189661	562.001
0.204346	561.959
0.251358	567.642
0.304255	576.217
0.360078	581.875
0.404142	584.658
0.457017	587.415
0.509904	593.081
0.562779	595.839
0.609759	592.795
0.662645	598.461
0.709657	604.144
0.76547	606.893
0.809545	612.585
0.830114	615.435
0.853631	621.186
0.8742	624.036
0.885947	624.002
0.915339	629.736
0.921234	635.537
0.941888	661.659
0.959467	649.973
0.965522	699.41
0.983122	693.541
0.983315	745.904
0.986316	763.35
0.989296	774.978
0.997936	728.408
1.00113	798.217
