Adsorption isotherm of Hydrogen on 1Pt/MOF-5
DOI: 10.1016/j.micromeso.2014.09.025
Article source: Figure 5
Adsorbate Hydrogen: InChIKey UFHFLCQGNIYNRP-UHFFFAOYSA-N
Kind: experiment
Temperature: 298 K
Tabular data in the source: 0
pressure (bar)	uptake (wt%)
0	0
0.615325	0.092105
9.77683	0.241228
30.4025	0.368421
50.1509	0.513158
70.4773	0.622807
99.9149	0.710526
