Adsorption isotherm of Hydrogen on 4Pt/MOF-5
DOI: 10.1016/j.micromeso.2014.09.025
Article source: Figure 7
Adsorbate Hydrogen: InChIKey UFHFLCQGNIYNRP-UHFFFAOYSA-N
Kind: experiment
Temperature: 298 K
Tabular data in the source: 0
pressure (bar)	uptake (wt%)
0	0
1.19048	0.200772
10.119	0.467181
30.6548	0.6139
50.8929	0.72973
70.2381	0.814672
100.298	0.880309
