Adsorption isotherm of Nitrogen on 7Pt/MOF-5
DOI: 10.1016/j.micromeso.2014.09.025
Article source: Figure 4
Adsorbate Nitrogen: InChIKey IJGRMHOSHXDMSA-UHFFFAOYSA-N
Kind: experiment
Temperature: 77 K
Tabular data in the source: 0
pressure (bar)	uptake (cm3(STP)/g)
0	0
0	100
0.009911	399.608
0.030662	451.912
0.060095	469.282
0.074801	475.058
0.095381	480.817
0.136519	486.517
0.157088	489.367
0.180595	492.209
0.2041	495.05
0.215826	489.199
0.265775	494.873
0.306925	503.482
0.345126	509.191
0.383306	509.081
0.403875	511.931
0.456751	514.689
0.509636	520.355
0.562502	520.203
0.612451	525.878
0.6624	531.553
0.712338	534.318
0.765224	539.985
0.80931	548.586
0.829889	554.345
0.847512	554.294
0.862217	560.07
0.876912	562.937
0.894556	568.704
0.906335	577.398
0.912177	568.654
0.929938	606.421
0.941589	580.206
0.968097	600.493
0.992147	751.697
0.992211	769.151
0.997765	681.863
1.00384	737.118
1.01286	792.365
