Adsorption isotherm of Hydrogen on IRMOF-1
DOI: 10.1016/j.micromeso.2014.09.025
Article source: Figure 7
Adsorbate Hydrogen: InChIKey UFHFLCQGNIYNRP-UHFFFAOYSA-N
Kind: experiment
Temperature: 298 K
Tabular data in the source: 0
pressure (bar)	uptake (wt%)
0	0
10.4167	0.069498
30.9524	0.162162
50.5952	0.250965
70.2381	0.316602
100.298	0.444015
