Adsorption isotherm of Hydrogen on 7Pt/MOF-5
DOI: 10.1016/j.micromeso.2014.09.025
Article source: Figure 5
Adsorbate Hydrogen: InChIKey UFHFLCQGNIYNRP-UHFFFAOYSA-N
Kind: experiment
Temperature: 298 K
Tabular data in the source: 0
pressure (bar)	uptake (wt%)
0	0
1.51832	0.162281
11.5312	0.20614
30.6798	0.311404
50.1238	0.421053
70.7417	0.52193
100.482	0.640351
