Adsorption isotherm of Hydrogen on CB/4Pt/MOF-5
DOI: 10.1016/j.micromeso.2014.09.025
Article source: Figure 7
Adsorbate Hydrogen: InChIKey UFHFLCQGNIYNRP-UHFFFAOYSA-N
Kind: experiment
Temperature: 298 K
Tabular data in the source: 0
pressure (bar)	uptake (wt%)
0	0
1.19048	0.19305
10.4167	0.305019
31.5476	0.382239
50.5952	0.467181
70.2381	0.532819
100	0.617761
