Adsorption isotherm of Nitrogen on 10Pt/MOF-5
DOI: 10.1016/j.micromeso.2014.09.025
Article source: Figure 4
Adsorbate Nitrogen: InChIKey IJGRMHOSHXDMSA-UHFFFAOYSA-N
Kind: experiment
Temperature: 77 K
Tabular data in the source: 0
pressure (bar)	uptake (cm3(STP)/g)
0	0
0	100
0.004016	393.807
0.016052	472.318
0.030832	498.457
0.06614	515.81
0.080846	521.586
0.110225	524.411
0.130806	530.17
0.14549	530.128
0.18367	530.018
0.204229	529.959
0.242419	532.759
0.251262	541.46
0.307053	538.391
0.330559	541.233
0.34818	541.182
0.398119	543.948
0.427488	543.864
0.450983	543.796
0.497985	546.57
0.542039	546.444
0.562608	549.294
0.615495	554.96
0.665433	557.726
0.715371	560.492
0.76532	566.166
0.800585	571.883
0.818217	574.742
0.829975	577.617
0.850555	583.376
0.862313	586.252
0.879956	592.019
0.891715	594.894
0.909357	600.662
0.929959	612.239
0.935929	638.404
0.965288	635.41
0.983091	684.814
0.997861	708.044
0.997978	740.044
1.00391	754.572
1.004	780.754
1.01292	809.819
