Adsorption isotherm of Hydrogen on 10Pt/MOF-5
DOI: 10.1016/j.micromeso.2014.09.025
Article source: Figure 5
Adsorbate Hydrogen: InChIKey UFHFLCQGNIYNRP-UHFFFAOYSA-N
Kind: experiment
Temperature: 298 K
Tabular data in the source: 0
pressure (bar)	uptake (wt%)
0	0
1.30547	0.438596
10.427	0.451754
30.1342	0.45614
51.023	0.47807
76.9105	0.495614
100.45	0.530702
