Adsorption isotherm of Hydrogen on 4Pt/MOF-5
DOI: 10.1016/j.micromeso.2014.09.025
Article source: Figure 5
Adsorbate Hydrogen: InChIKey UFHFLCQGNIYNRP-UHFFFAOYSA-N
Kind: experiment
Temperature: 298 K
Tabular data in the source: 0
pressure (bar)	uptake (wt%)
0	0
1.23452	0.197368
10.4321	0.469298
30.1806	0.614035
51.0978	0.732456
70.2386	0.811404
100.259	0.881579
