Adsorption isotherm of Carbon Dioxide on [(Me3Sn)4(mu-LH)2]n
DOI: 10.1021/Ic302528b
Adsorbate Carbon Dioxide: InChIKey CURLTUGMZLYLDI-UHFFFAOYSA-N
Temperature: 298 K
Tabular data in the source: 0
pressure (bar)	uptake (mmol/g)
0.00888249	0.0101124
0.0320422	0.0704149
0.0690976	0.138583
0.108469	0.198886
0.164052	0.314247
0.263639	0.521373
0.344698	0.689171
0.421125	0.841238
0.483656	0.909407
0.536923	0.974953
0.583242	1.01952
0.678197	1.11129
0.768519	1.17684
0.847262	1.21616
0.958429	1.25025
1.03949	1.2686
