Adsorption isotherm of Nitrogen on [(Me3Sn)4(mu-LH)2]n
DOI: 10.1021/Ic302528b
Adsorbate Nitrogen: InChIKey IJGRMHOSHXDMSA-UHFFFAOYSA-N
Temperature: 298 K
Tabular data in the source: 0
pressure (bar)	uptake (mmol/g)
0.00888249	0.00749056
0.0667817	0.0310872
0.140893	0.033709
0.203424	0.0389527
0.272903	0.0415746
0.344698	0.0415746
0.453548	0.0415746
0.529975	0.0441964
0.594822	0.0415746
0.668933	0.0441964
0.759256	0.0468183
0.856526	0.0546838
0.953797	0.0651712
1.00938	0.0966334
1.05107	0.143827
