Adsorption isotherm of Nitrogen on [(Me3Sn)4(mu-LH)2]n
DOI: 10.1021/Ic302528b
Adsorbate Nitrogen: InChIKey IJGRMHOSHXDMSA-UHFFFAOYSA-N
Temperature: 77 K
Tabular data in the source: 0
pressure (bar)	uptake (wt%)
0.0258587	0.00312107
0.0542621	0.012953
0.119808	0.0162303
0.165691	0.0184152
0.244346	0.0216925
0.296783	0.0216925
0.368884	0.0238774
0.436615	0.0249698
0.504346	0.0271547
0.574262	0.0293396
0.661657	0.030432
0.742497	0.0326169
0.797119	0.0369866
0.875775	0.0413564
0.930396	0.0544656
0.967539	0.0763143
