Adsorption isotherm of Hydrogen on [(Me3Sn)4(mu-LH)2]n
DOI: 10.1021/Ic302528b
Adsorbate Hydrogen: InChIKey UFHFLCQGNIYNRP-UHFFFAOYSA-N
Temperature: 77 K
Tabular data in the source: 0
pressure (bar)	uptake (wt%)
0.00619484	0.00312107
0.0171192	0.0282471
0.0324133	0.0435412
0.0498923	0.073037
0.0695562	0.10144
0.102329	0.149508
0.148212	0.184466
0.196279	0.228163
0.246531	0.262029
0.347035	0.32102
0.449724	0.359256
0.550228	0.401861
0.628884	0.431356
0.749052	0.469592
0.78401	0.482701
0.843002	0.488163
0.888884	0.508919
0.947875	0.523121
