Adsorption isotherm of Carbon Dioxide on CID-5/6
DOI: 10.1002/anie.201000989
Adsorbate Carbon Dioxide: InChIKey CURLTUGMZLYLDI-UHFFFAOYSA-N
Temperature: 195 K
Tabular data in the source: 0
pressure (bar)	uptake (molecules/unitcell)
0.00400996	0.365965
0.00619484	1.50538
0.0520772	1.75008
0.104514	1.95655
0.143842	2.10185
0.207203	2.23949
0.266195	2.33126
0.408212	2.46126
0.668212	2.66773
1.00905	2.82067
