Adsorption isotherm of Carbon Dioxide on CID-5/6
DOI: 10.1002/anie.201000989
Adsorbate Carbon Dioxide: InChIKey CURLTUGMZLYLDI-UHFFFAOYSA-N
Temperature: 195 K
Tabular data in the source: 0
pressure (bar)	uptake (molecules/unitcell)
0.000248	0.816518
0.000423	1.3103
0.00112174	1.47198
0.0019083	1.57685
0.00391838	1.63366
0.01091	1.70358
0.0150175	1.7298
0.0205234	1.73416
0.027952	1.75601
0.0381772	1.77786
