Adsorption isotherm of Carbon Dioxide on CID-5/6
DOI: 10.1002/anie.201000989
Adsorbate Carbon Dioxide: InChIKey CURLTUGMZLYLDI-UHFFFAOYSA-N
Temperature: 195 K
Tabular data in the source: 0
pressure (bar)	uptake (molecules/unitcell)
0.000248	0.995678
0.00086	1.66862
0.00418057	1.7429
0.00855032	1.76475
0.016678	1.80408
0.0194747	1.80845
0.0232327	1.81282
0.0253301	1.81719
0.0303117	1.82593
