Adsorption isotherm of Carbon Dioxide on CID-5/6
DOI: 10.1002/anie.201000989
Adsorbate Carbon Dioxide: InChIKey CURLTUGMZLYLDI-UHFFFAOYSA-N
Temperature: 195 K
Tabular data in the source: 0
pressure (bar)	uptake (molecules/unitcell)
-0.00691441	1.26832
-0.00472953	1.75008
0.106699	1.88773
0.156951	1.88773
0.25527	1.88773
0.360144	1.90302
0.460649	1.92597
0.60922	1.94126
0.766531	1.97185
1.0025	1.99479
