Adsorption isotherm of Carbon Dioxide on CID-6
DOI: 10.1002/anie.201000989
Adsorbate Carbon Dioxide: InChIKey CURLTUGMZLYLDI-UHFFFAOYSA-N
Temperature: 195 K
Tabular data in the source: 0
pressure (bar)	uptake (molecules/unitcell)
0.0630016	1.78067
0.152581	1.82655
0.205018	1.8342
0.309892	1.84949
0.414766	1.84185
0.508716	1.85714
0.61359	1.84185
0.729388	1.84949
0.908548	1.85714
1.00687	1.87244
