Adsorption isotherm of Water on CID-5/6
DOI: 10.1002/anie.201000989
Adsorbate Water: InChIKey XLYOFNOQVPJJNP-UHFFFAOYSA-N
Temperature: 298 K
Tabular data in the source: 0
pressure (bar)	uptake (molecules/unitcell)
0.0018245	0.0967569
0.00857576	0.500959
0.0133606	1.27659
0.0170968	1.9539
0.0191287	2.3144
0.0206363	2.56566
0.0223405	2.8497
0.0237169	3.14466
0.027322	3.7455
0.0304682	4.0623
