Adsorption isotherm of Carbon Dioxide on CID-5/6
DOI: 10.1002/anie.201000989
Adsorbate Carbon Dioxide: InChIKey CURLTUGMZLYLDI-UHFFFAOYSA-N
Temperature: 195 K
Tabular data in the source: 0
pressure (bar)	uptake (molecules/unitcell)
0.000685	0.034333
0.00418057	0.0430725
0.00820073	0.458199
0.0102982	0.737862
0.0121335	1.03064
0.0160663	1.38022
0.0192125	1.52005
0.0233201	1.60744
0.0305738	1.7298
0.0388764	1.86089
