Adsorption isotherm of Carbon Dioxide on CID-5/6
DOI: 10.1002/anie.201000989
Adsorbate Carbon Dioxide: InChIKey CURLTUGMZLYLDI-UHFFFAOYSA-N
Temperature: 195 K
Tabular data in the source: 0
pressure (bar)	uptake (molecules/unitcell)
0.00837971	0.0371416
0.00837971	1.04655
0.0127495	0.763612
0.021489	1.58949
0.0324133	1.8342
0.0979595	2.25479
0.152581	2.46891
0.202833	2.62949
0.303338	2.76714
0.506531	2.95832
1.00905	3.24126
