Adsorption isotherm of Carbon Dioxide on CID-5/6
DOI: 10.1002/anie.201000989
Adsorbate Carbon Dioxide: InChIKey CURLTUGMZLYLDI-UHFFFAOYSA-N
Temperature: 195 K
Tabular data in the source: 0
pressure (bar)	uptake (molecules/unitcell)
0.00182509	0.901259
0.00182509	1.43655
0.00619484	1.81891
0.0258587	1.94891
0.148212	2.05597
0.250901	2.12479
0.410397	2.18597
0.561153	2.26244
0.711909	2.31597
0.862665	2.36949
1.00468	2.38479
