Adsorption isotherm of Water on CID-5/6
DOI: 10.1002/anie.201000989
Adsorbate Water: InChIKey XLYOFNOQVPJJNP-UHFFFAOYSA-N
Temperature: 298 K
Tabular data in the source: 0
pressure (bar)	uptake (molecules/unitcell)
0.00110349	0.0530594
0.00444635	0.140454
0.00739593	0.369866
0.01028	0.73037
0.013164	1.33121
0.0158514	2.00852
0.0182766	2.64214
0.0206363	3.14466
0.0237169	3.69087
0.02588	3.97491
0.030206	4.47743
