Adsorption isotherm of Carbon Dioxide on CID-5/6
DOI: 10.1002/anie.201000989
Adsorbate Carbon Dioxide: InChIKey CURLTUGMZLYLDI-UHFFFAOYSA-N
Temperature: 195 K
Tabular data in the source: 0
pressure (bar)	uptake (molecules/unitcell)
0.00182509	0.235965
0.00400996	1.54361
0.00619484	1.75008
0.108884	2.01773
0.154766	2.14773
0.347035	2.40008
0.458464	2.4842
0.714094	2.62949
0.867035	2.69832
1.00687	2.75949
