Adsorption isotherm of Carbon Dioxide on CID-6
DOI: 10.1002/anie.201000989
Adsorbate Carbon Dioxide: InChIKey CURLTUGMZLYLDI-UHFFFAOYSA-N
Temperature: 195 K
Tabular data in the source: 0
pressure (bar)	uptake (molecules/unitcell)
0.000335	0.0911397
0.000685	0.26156
0.000947	0.545594
0.000947	0.632988
0.00199569	1.04374
0.00418057	1.51568
0.00855032	1.6861
0.011347	1.73853
0.0160663	1.7866
0.0251554	1.8303
0.0299621	1.84341
