Adsorption isotherm of Water on CID-5/6
DOI: 10.1002/anie.201000989
Adsorbate Water: InChIKey XLYOFNOQVPJJNP-UHFFFAOYSA-N
Temperature: 298 K
Tabular data in the source: 0
pressure (bar)	uptake (molecules/unitcell)
0.00516736	0.195076
0.00739593	0.315244
0.00975559	0.500959
0.0117875	0.82869
0.0137539	1.23289
0.0171623	2.18331
0.0191287	2.78415
0.0205707	3.24298
0.0239136	4.0623
0.0296161	4.9144
