Adsorption isotherm of Water on CID-5/6
DOI: 10.1002/anie.201000989
Adsorbate Water: InChIKey XLYOFNOQVPJJNP-UHFFFAOYSA-N
Temperature: 298 K
Tabular data in the source: 0
pressure (bar)	uptake (molecules/unitcell)
0.00162786	0.0858325
0.0096245	0.599278
0.0110665	0.784992
0.0133606	1.07995
0.0157203	1.44045
0.0176211	1.69171
0.0203741	2.15054
0.0234548	2.52197
0.0269287	2.8934
0.0303371	3.33037
