Adsorption isotherm of Carbon Dioxide on CID-5/6
DOI: 10.1002/anie.201000989
Adsorbate Carbon Dioxide: InChIKey CURLTUGMZLYLDI-UHFFFAOYSA-N
Temperature: 195 K
Tabular data in the source: 0
pressure (bar)	uptake (molecules/unitcell)
0.00016	0.309627
0.000248	0.624249
0.000423	1.17484
0.000685	1.43265
0.0018209	1.67299
0.00435536	1.79534
0.00837552	1.87837
0.0169402	1.92206
0.0255049	1.93517
0.0353806	1.93954
