Adsorption isotherm of Carbon Dioxide on CID-5
DOI: 10.1002/anie.201000989
Adsorbate Carbon Dioxide: InChIKey CURLTUGMZLYLDI-UHFFFAOYSA-N
Temperature: 195 K
Tabular data in the source: 0
pressure (bar)	uptake (molecules/unitcell)
0.00295704	0.0474423
0.00601586	0.0736607
0.00968645	0.0955095
0.010036	0.147946
0.0126579	0.200383
0.0130949	0.292148
0.014231	0.558703
0.0161537	0.825257
0.0180764	1.24912
0.0214848	1.58122
0.0253301	1.72106
0.027515	1.75601
0.0353806	1.85215
0.0388764	1.90022
