Adsorption isotherm of Water on CID-5/6
DOI: 10.1002/anie.201000989
Adsorbate Water: InChIKey XLYOFNOQVPJJNP-UHFFFAOYSA-N
Temperature: 298 K
Tabular data in the source: 0
pressure (bar)	uptake (molecules/unitcell)
0.000645	0.0530594
0.00418416	0.12953
0.00837912	0.260622
0.0111321	0.326169
0.0138195	0.47911
0.0169657	0.817765
0.0190632	1.29844
0.0208985	1.94298
0.0223405	2.77323
0.0239136	3.59256
0.0243069	3.78919
0.0257489	4.22617
0.0305993	4.9581
