Adsorption isotherm of Carbon Dioxide on CID-5
DOI: 10.1002/anie.201000989
Adsorbate Carbon Dioxide: InChIKey CURLTUGMZLYLDI-UHFFFAOYSA-N
Temperature: 195 K
Tabular data in the source: 0
pressure (bar)	uptake (molecules/unitcell)
0.00837971	0.885965
0.0149343	1.29891
0.0586318	2.0942
0.104514	2.41538
0.146027	2.69067
0.207203	2.8742
0.403842	3.16479
0.556783	3.33302
0.711909	3.48597
0.860481	3.59302
1.01124	3.71538
