Adsorption isotherm of Water on CID-5/6
DOI: 10.1002/anie.201000989
Adsorbate Water: InChIKey XLYOFNOQVPJJNP-UHFFFAOYSA-N
Temperature: 298 K
Tabular data in the source: 0
pressure (bar)	uptake (molecules/unitcell)
0.00333206	0.0421351
0.00818248	0.0858325
0.0116564	0.0967569
0.0142127	0.140454
0.0157203	0.162303
0.0178833	0.30432
0.0212262	0.533732
0.0220783	0.719446
0.0229959	0.90516
0.0248968	2.48919
0.0268632	4.37911
0.0272564	4.52113
0.0301405	5.06735
