Adsorption isotherm of Carbon Dioxide on CID-5/6
DOI: 10.1002/anie.201000989
Adsorbate Carbon Dioxide: InChIKey CURLTUGMZLYLDI-UHFFFAOYSA-N
Temperature: 195 K
Tabular data in the source: 0
pressure (bar)	uptake (molecules/unitcell)
-0.00472953	1.59714
-0.00036	1.77302
0.152581	1.9642
0.211573	1.95655
0.309892	1.98714
0.414766	2.01773
0.561153	2.01773
0.716279	2.03302
0.816783	2.05597
1.01342	2.07126
