Adsorption isotherm of Carbon Dioxide on CID-5/6
DOI: 10.1002/anie.201000989
Adsorbate Carbon Dioxide: InChIKey CURLTUGMZLYLDI-UHFFFAOYSA-N
Temperature: 195 K
Tabular data in the source: 0
pressure (bar)	uptake (molecules/unitcell)
0.00103435	0.069291
0.00199569	0.0911397
0.00400578	0.366434
0.00802595	1.32778
0.00986124	1.38459
0.0118713	1.46761
0.0141436	1.52879
0.0169402	1.58559
0.0205234	1.62492
0.038352	1.71232
