Adsorption isotherm of Carbon Dioxide on CID-5/6
DOI: 10.1002/anie.201000989
Adsorbate Carbon Dioxide: InChIKey CURLTUGMZLYLDI-UHFFFAOYSA-N
Temperature: 195 K
Tabular data in the source: 0
pressure (bar)	uptake (molecules/unitcell)
0.000248	0.78156
0.000335	1.35837
0.000685	1.62492
0.00199569	1.75164
0.00391838	1.82156
0.00820073	1.86526
0.0125705	1.87837
0.0194747	1.89148
0.0303991	1.90022
0.0355554	1.91769
