Adsorption isotherm of Water on CID-6
DOI: 10.1002/anie.201000989
Adsorbate Water: InChIKey XLYOFNOQVPJJNP-UHFFFAOYSA-N
Temperature: 298 K
Tabular data in the source: 0
pressure (bar)	uptake (molecules/unitcell)
0.00313543	0.0639838
0.00582282	0.0639838
0.00818248	0.140454
0.00975559	0.238774
0.0119842	0.435412
0.0148682	1.0581
0.0182111	1.57155
0.0207018	1.89928
0.0253556	2.41272
0.0303371	2.93709
