Adsorption isotherm of Water on CID-5
DOI: 10.1002/anie.201000989
Adsorbate Water: InChIKey XLYOFNOQVPJJNP-UHFFFAOYSA-N
Temperature: 298 K
Tabular data in the source: 0
pressure (bar)	uptake (molecules/unitcell)
0.00195559	0.0749082
0.00575727	0.107681
0.00890349	0.12953
0.0122463	0.184152
0.0180144	0.195076
0.0213573	0.238774
0.0232581	0.348017
0.0258144	0.490034
0.0265354	0.6539
0.0279119	3.99676
0.0284363	4.30264
0.0303371	4.77239
