Adsorption isotherm of Methane on 50CPDA@A-C
DOI: 10.1021/acs.energyfuels.8b03637
Article source: Figure 5a
Adsorbate Methane: InChIKey VNWKTOKETHGBQD-UHFFFAOYSA-N
Kind: experiment
Temperature: 298 K
Tabular data in the source: 0
pressure (bar)	uptake (mmol/g)
0.0354	0.113
0.0698	0.186
0.104	0.267
0.14	0.348
0.176	0.429
0.211	0.499
0.246	0.568
0.281	0.635
0.317	0.704
0.386	0.829
0.492	1
0.562	1.11
0.632	1.22
0.703	1.32
0.808	1.47
0.878	1.57
0.944	1.65
0.979	1.7
