Adsorption isotherm of Nitrogen on 50CPDA@A-C
DOI: 10.1021/acs.energyfuels.8b03637
Article source: Figure 5d
Adsorbate Nitrogen: InChIKey IJGRMHOSHXDMSA-UHFFFAOYSA-N
Kind: experiment
Temperature: 298 K
Tabular data in the source: 0
pressure (bar)	uptake (mmol/g)
0.00755	0.0429
0.0236	0.0477
0.0401	0.0524
0.0595	0.0619
0.0812	0.0572
0.107	0.0762
0.15	0.0953
0.185	0.114
0.221	0.133
0.246	0.143
0.288	0.172
0.316	0.186
0.377	0.205
0.502	0.276
0.566	0.31
0.653	0.353
0.708	0.376
0.837	0.434
0.881	0.453
0.959	0.496
0.993	0.51
