Adsorption isotherm of Carbon Dioxide on 50CPDA@A-C
DOI: 10.1021/acs.energyfuels.8b03637
Article source: Figure 5b
Adsorbate Carbon Dioxide: InChIKey CURLTUGMZLYLDI-UHFFFAOYSA-N
Kind: experiment
Temperature: 298 K
Tabular data in the source: 0
pressure (bar)	uptake (mmol/g)
0.0564	0.458
0.121	0.858
0.159	1.07
0.21	1.33
0.261	1.58
0.312	1.8
0.364	2.02
0.415	2.22
0.466	2.42
0.517	2.6
0.568	2.79
0.621	2.96
0.671	3.12
0.722	3.29
0.774	3.45
0.825	3.6
0.876	3.75
0.927	3.89
0.989	4.06
