Adsorption isotherm of Hydrogen on IRMOF-1
DOI: 10.1016/j.ijhydene.2011.03.002
Adsorbate Hydrogen: InChIKey UFHFLCQGNIYNRP-UHFFFAOYSA-N
Temperature: 77 K
Tabular data in the source: 0
pressure (bar)	uptake (wt%)
0.243902	0.534308
0.731707	1.06879
0.97561	1.49065
4.14634	2.8985
6.09756	3.434
8.53659	3.96986
10.7317	4.28063
13.1707	4.59159
16.3415	4.87494
20	5.18675
22.439	5.30091
24.3902	5.41473
27.0732	5.52907
29.7561	5.61529
32.439	5.6734
34.6341	5.73117
38.5366	5.81825
42.6829	5.84928
46.3415	5.90807
49.0244	5.90996
53.6585	5.91321
58.5366	5.88853
61.9512	5.89093
65.3659	5.86522
68.7805	5.8395
72.439	5.78585
76.3415	5.73237
79.5122	5.70648
