Adsorption isotherm of Hydrogen on IRMOF-1
DOI: 10.1016/j.ijhydene.2011.03.002
Adsorbate Hydrogen: InChIKey UFHFLCQGNIYNRP-UHFFFAOYSA-N
Temperature: 77 K
Tabular data in the source: 0
pressure (bar)	uptake (wt%)
0	0.534137
0.97561	1.40631
3.65854	2.64514
4.87805	3.12391
6.58537	3.51868
8.78049	3.97003
10.9756	4.39326
13.1707	4.6197
16.3415	4.95928
20	5.21486
22.6829	5.38542
25.122	5.5277
28.5366	5.64255
30.9756	5.75671
34.3902	5.81533
38.0488	5.90224
42.439	5.93344
45.122	5.99155
47.0732	5.96481
51.7073	5.96807
55.122	5.97047
60.4878	5.97424
64.1463	5.97681
69.5122	5.92436
74.1463	5.84328
79.0244	5.79048
84.6341	5.68197
