Adsorption isotherm of Hydrogen on IRMOF-1
DOI: 10.1016/j.ijhydene.2011.03.002
Adsorbate Hydrogen: InChIKey UFHFLCQGNIYNRP-UHFFFAOYSA-N
Temperature: 77 K
Tabular data in the source: 0
pressure (bar)	uptake (wt%)
0.731707	0.731438
1.46341	1.26609
2.19512	1.68829
3.17073	2.05444
4.14634	2.42058
5.36585	2.70257
6.34146	2.98438
8.53659	3.43572
11.2195	3.83118
13.6585	4.05779
16.5854	4.31286
20.7317	4.56879
25.122	4.74055
29.2683	4.88402
33.9024	4.97162
38.5366	5.0311
42.9268	5.23097
49.0244	5.20715
55.122	5.21143
61.4634	5.13155
68.0488	4.9675
74.3902	4.80329
80.9756	4.5549
