Adsorption isotherm of Hydrogen on IRMOF-1
DOI: 10.1016/j.ijhydene.2011.03.002
Adsorbate Hydrogen: InChIKey UFHFLCQGNIYNRP-UHFFFAOYSA-N
Temperature: 77 K
Tabular data in the source: 0
pressure (bar)	uptake (wt%)
0.731707	1.34991
2.19512	1.99753
2.92683	2.41973
3.90244	2.81399
5.36585	3.12425
6.34146	3.43418
7.56098	3.68804
8.53659	3.82929
10	4.05522
11.9512	4.28149
13.9024	4.45154
15.6098	4.62141
19.2683	4.877
21.4634	4.99099
25.3659	5.16241
29.7561	5.27794
32.9268	5.30828
36.0976	5.36674
39.7561	5.39742
44.3902	5.37256
47.0732	5.37445
50.4878	5.34874
55.6098	5.32422
58.2927	5.24177
62.9268	5.1888
66.3415	5.13498
70	5.05321
73.4146	4.97128
76.8293	4.88934
79.5122	4.835
