Adsorption isotherm of Hydrogen on IRMOF-1
DOI: 10.1016/j.ijhydene.2011.03.002
Adsorbate Hydrogen: InChIKey UFHFLCQGNIYNRP-UHFFFAOYSA-N
Temperature: 77 K
Tabular data in the source: 0
pressure (bar)	uptake (wt%)
0	0.112
0.243902	0.728085
0.731707	1.26026
1.95122	1.62468
2.43902	1.98885
3.90244	2.29737
5.36585	2.57788
6.58537	2.8583
8.53659	3.16699
10.2439	3.33559
11.9512	3.50418
12.9268	3.58852
14.878	3.75721
17.0732	3.86998
19.7561	4.01091
22.6829	4.12394
25.8537	4.23705
29.7561	4.32241
33.1707	4.35161
35.6098	4.35246
37.561	4.38115
40	4.382
41.9512	4.38268
43.9024	4.35537
45.3659	4.35588
48.5366	4.35699
51.7073	4.3021
55.122	4.27529
58.0488	4.24832
61.2195	4.19343
63.6585	4.16628
68.0488	4.08382
70.4878	4.02867
72.439	4.00135
74.6341	3.97412
76.3415	3.91872
78.7805	3.89157
