Adsorption isotherm of Hydrogen on IRMOF-1
DOI: 10.1016/j.ijhydene.2011.03.002
Adsorbate Hydrogen: InChIKey UFHFLCQGNIYNRP-UHFFFAOYSA-N
Temperature: 77 K
Tabular data in the source: 0
pressure (bar)	uptake (wt%)
2.74143	13.3858
7.47664	20.6693
12.9595	25.1969
18.1931	28.3465
24.4237	30.9055
30.405	32.6772
36.3863	34.6457
42.6168	36.0236
49.0966	37.2047
55.0779	38.5827
61.8069	39.5669
68.0374	40.3543
74.2679	41.1417
80.9969	41.5354
