Adsorption isotherm of Hydrogen on IRMOF-1
DOI: 10.1016/j.ijhydene.2011.03.002
Adsorbate Hydrogen: InChIKey UFHFLCQGNIYNRP-UHFFFAOYSA-N
Temperature: 77 K
Tabular data in the source: 0
pressure (bar)	uptake (wt%)
2.24299	9.64567
3.73832	12.5984
6.47975	15.9449
7.72586	17.5197
11.7134	20.8661
14.704	22.8346
19.6885	25.5906
23.4268	27.1654
26.9159	28.937
31.4019	30.1181
34.6417	31.2992
38.3801	32.4803
41.6199	33.2677
44.3614	34.0551
47.6012	34.6457
50.3427	35.2362
53.3333	36.0236
56.324	36.6142
60.3115	37.2047
63.053	37.7953
66.2928	38.3858
69.5327	38.9764
73.0218	39.1732
76.0125	39.5669
79.5016	40.1575
