Adsorption isotherm of Hydrogen on IRMOF-1
DOI: 10.1016/j.ijhydene.2011.03.002
Adsorbate Hydrogen: InChIKey UFHFLCQGNIYNRP-UHFFFAOYSA-N
Temperature: 77 K
Tabular data in the source: 0
pressure (bar)	uptake (wt%)
0.97561	1.3782
1.70732	1.82851
2.68293	2.44767
4.39024	3.06734
6.82927	3.65942
11.4634	4.50605
13.6585	4.70438
18.0488	5.07293
21.4634	5.244
25.6098	5.4437
30.9756	5.64426
36.5854	5.84499
41.9512	5.9331
49.0244	6.05052
55.8537	6.11154
62.6829	6.08823
69.7561	5.98075
76.8293	5.81705
84.1463	5.48484
