Adsorption isotherm of Hydrogen on IRMOF-1
DOI: 10.1016/j.ijhydene.2011.03.002
Adsorbate Hydrogen: InChIKey UFHFLCQGNIYNRP-UHFFFAOYSA-N
Temperature: 77 K
Tabular data in the source: 0
pressure (bar)	uptake (wt%)
0.731707	0.812256
2.43902	1.51285
4.87805	2.01771
7.56098	2.32665
10	2.5795
12.6829	2.77644
18.2927	3.0304
23.9024	3.20037
29.7561	3.28641
35.122	3.34429
41.2195	3.45843
46.5854	3.4883
52.439	3.46235
58.2927	3.4924
64.1463	3.38245
70	3.3005
76.0976	3.13463
