Adsorption isotherm of Hydrogen on IRMOF-1
DOI: 10.1016/j.ijhydene.2011.03.002
Adsorbate Hydrogen: InChIKey UFHFLCQGNIYNRP-UHFFFAOYSA-N
Temperature: 77 K
Tabular data in the source: 0
pressure (bar)	uptake (wt%)
0.249221	5.11811
2.24299	10.0394
6.47975	17.7165
8.72274	20.4724
11.4642	22.6378
14.704	25
17.6947	26.7717
19.9377	27.9528
21.9315	29.1339
26.4174	31.2992
27.9128	31.6929
30.6542	32.874
34.6417	34.252
40.8723	36.0236
45.109	37.4016
48.3489	37.9921
51.3396	38.7795
53.8318	39.1732
56.5732	39.7638
59.0654	40.1575
62.3053	40.748
65.296	41.5354
70.2804	42.126
73.0218	42.9134
76.0125	43.3071
79.7508	43.7008
