Adsorption isotherm of Hydrogen on IRMOF-1
DOI: 10.1016/j.ijhydene.2011.03.002
Adsorbate Hydrogen: InChIKey UFHFLCQGNIYNRP-UHFFFAOYSA-N
Temperature: 77 K
Tabular data in the source: 0
pressure (bar)	uptake (wt%)
1.49533	10.0394
7.47664	20.0787
13.9564	25.5906
18.9408	27.7559
23.9252	30.1181
32.1495	33.2677
37.3832	35.0394
41.8692	36.2205
46.3551	37.0079
51.0903	37.5984
54.3302	37.9921
58.0685	38.5827
60.0623	38.7795
63.5514	39.3701
66.0436	39.5669
70.2804	39.9606
72.7726	40.1575
76.2617	40.3543
79.7508	40.5512
