Adsorption isotherm of Hydrogen on IRMOF-1
DOI: 10.1016/j.ijhydene.2011.03.002
Adsorbate Hydrogen: InChIKey UFHFLCQGNIYNRP-UHFFFAOYSA-N
Temperature: 77 K
Tabular data in the source: 0
pressure (bar)	uptake (wt%)
1.99377	7.48031
5.23364	12.2047
8.72274	15.5512
13.9564	18.8976
19.4393	21.4567
25.1713	23.8189
30.6542	25.7874
36.6355	27.7559
42.1184	29.5276
48.0997	31.4961
53.8318	33.2677
59.8131	34.8425
65.7944	36.6142
72.0249	37.7953
78.0062	39.3701
