Adsorption isotherm of Hydrogen on IRMOF-1
DOI: 10.1016/j.ijhydene.2011.03.002
Adsorbate Hydrogen: InChIKey UFHFLCQGNIYNRP-UHFFFAOYSA-N
Temperature: 77 K
Tabular data in the source: 0
pressure (bar)	uptake (wt%)
3.41463	2.72931
7.80488	3.85689
12.9268	4.42274
18.5366	4.79214
23.9024	5.02081
29.5122	5.13721
35.122	5.2536
40.9756	5.34205
46.5854	5.40222
52.439	5.43445
58.0488	5.35405
63.9024	5.35816
69.7561	5.1936
75.8537	5.0011
81.9512	4.75238
