Adsorption isotherm of Hydrogen on IRMOF-1
DOI: 10.1016/j.ijhydene.2011.03.002
Adsorbate Hydrogen: InChIKey UFHFLCQGNIYNRP-UHFFFAOYSA-N
Temperature: 77 K
Tabular data in the source: 0
pressure (bar)	uptake (wt%)
0.498442	4.33071
0.996885	6.88976
2.49221	9.05512
2.99065	11.6142
4.23676	13.5827
5.23364	15.3543
5.98131	17.126
8.47352	20.0787
10.9657	22.4409
13.7072	24.6063
16.4486	26.378
20.6854	28.937
25.1713	30.7087
29.9065	32.4803
34.3925	34.0551
38.6293	35.6299
43.1153	37.2047
49.3458	38.9764
55.3271	40.1575
61.8069	41.1417
68.0374	42.126
74.7664	42.5197
80.9969	42.7165
