Adsorption isotherm of Hydrogen on IRMOF-1
DOI: 10.1016/j.ijhydene.2011.03.002
Adsorbate Hydrogen: InChIKey UFHFLCQGNIYNRP-UHFFFAOYSA-N
Temperature: 77 K
Tabular data in the source: 0
pressure (bar)	uptake (wt%)
0.249221	4.33071
0.996885	7.67717
1.49533	9.84252
2.24299	12.2047
3.73832	14.5669
5.23364	17.126
6.47975	19.0945
8.72274	21.4567
10.9657	23.622
12.7103	24.8031
14.9533	26.5748
17.1963	27.7559
19.4393	28.937
21.9315	30.1181
24.6729	31.2992
27.6636	32.2835
30.405	33.4646
33.8941	34.4488
37.3832	35.4331
45.3583	37.0079
49.3458	37.7953
54.081	38.3858
61.0592	39.3701
64.7975	39.7638
69.0343	40.3543
72.5234	40.5512
76.7601	40.9449
79.7508	41.3386
