Adsorption isotherm of Hydrogen on IRMOF-1
DOI: 10.1016/j.ijhydene.2011.03.002
Adsorbate Hydrogen: InChIKey UFHFLCQGNIYNRP-UHFFFAOYSA-N
Temperature: 77 K
Tabular data in the source: 0
pressure (bar)	uptake (wt%)
0.731707	0.928225
1.46341	1.46288
1.95122	1.85679
2.92683	2.25105
6.58537	3.12511
7.31707	3.26619
9.5122	3.54885
10.2439	3.66182
12.6829	3.91654
14.878	4.14299
15.6098	4.19973
17.8049	4.36994
19.2683	4.4272
22.1951	4.56982
23.9024	4.68347
26.3415	4.7414
28.2927	4.82711
30.7317	4.88505
32.439	4.94248
35.122	5.00059
37.0732	5.03007
40.2439	5.0323
41.7073	5.03333
44.1463	5.06316
46.8293	5.09315
50.2439	5.09555
53.6585	5.09795
56.3415	5.07173
59.5122	5.04584
63.1707	5.04841
66.5854	4.99459
69.7561	4.9687
73.4146	4.91505
