Adsorption isotherm of Hydrogen on IRMOF-1
DOI: 10.1016/j.ijhydene.2011.03.002
Adsorbate Hydrogen: InChIKey UFHFLCQGNIYNRP-UHFFFAOYSA-N
Temperature: 77 K
Tabular data in the source: 0
pressure (bar)	uptake (wt%)
0.487805	0.956166
1.95122	2.16603
5.12195	3.37709
8.53659	4.13853
13.6585	4.7606
19.5122	5.10207
24.878	5.30263
30.7317	5.53164
36.5854	5.59198
42.439	5.73665
48.0488	5.76871
53.9024	5.91339
59.7561	5.86127
65.8537	5.97801
71.9512	5.89796
77.8049	5.78962
