Adsorption isotherm of Hydrogen on IRMOF-1
DOI: 10.1016/j.ijhydene.2011.03.002
Adsorbate Hydrogen: InChIKey UFHFLCQGNIYNRP-UHFFFAOYSA-N
Temperature: 77 K
Tabular data in the source: 0
pressure (bar)	uptake (wt%)
0.996885	6.10236
3.23988	12.0079
7.97508	18.1102
12.9595	22.0472
18.1931	24.8031
24.1745	27.3622
29.4081	29.3307
35.1402	31.1024
40.8723	32.874
46.8536	34.4488
52.5857	36.0236
58.0685	37.2047
64.0498	38.3858
70.0312	39.3701
76.0125	39.9606
81.9938	40.5512
