Adsorption isotherm of Hydrogen on IRMOF-1
DOI: 10.1016/j.ijhydene.2011.03.002
Adsorbate Hydrogen: InChIKey UFHFLCQGNIYNRP-UHFFFAOYSA-N
Temperature: 77 K
Tabular data in the source: 0
pressure (bar)	uptake (wt%)
0	0.112
3.17073	2.10111
7.56098	3.11065
12.6829	3.64444
18.5366	3.95449
24.3902	4.12454
30.4878	4.23867
36.3415	4.26872
42.439	4.32685
49.0244	4.30116
55.122	4.30329
61.4634	4.19351
67.8049	4.13973
74.1463	4.00195
80.9756	3.83634
