Adsorption isotherm of Hydrogen on IRMOF-1
DOI: 10.1016/j.ijhydene.2011.03.002
Adsorbate Hydrogen: InChIKey UFHFLCQGNIYNRP-UHFFFAOYSA-N
Temperature: 77 K
Tabular data in the source: 0
pressure (bar)	uptake (wt%)
0.747664	1.9685
2.24299	3.34646
3.73832	4.72441
4.98442	5.70866
5.73209	6.29921
7.22741	6.88976
8.2243	7.67717
9.71963	8.26772
10.2181	8.66142
11.9626	9.44882
12.9595	9.84252
14.9533	10.8268
16.6978	11.6142
18.9408	12.2047
20.6854	13.189
22.4299	13.7795
24.6729	14.5669
26.6667	15.3543
29.9065	16.5354
31.9003	17.126
33.1464	17.7165
35.3894	18.3071
37.3832	18.8976
38.6293	19.2913
40.6231	20.0787
42.866	20.6693
45.109	21.4567
47.8505	22.2441
49.595	22.8346
51.838	23.4252
54.3302	24.2126
56.8224	25
59.8131	25.7874
62.0561	26.378
64.7975	27.1654
67.0405	27.7559
70.7788	28.7402
73.0218	29.5276
75.514	30.1181
77.5078	30.9055
79.7508	31.2992
82.243	31.8898
84.486	32.6772
