Adsorption isotherm of Hydrogen on IRMOF-1
DOI: 10.1016/j.ijhydene.2011.03.002
Adsorbate Hydrogen: InChIKey UFHFLCQGNIYNRP-UHFFFAOYSA-N
Temperature: 77 K
Tabular data in the source: 0
pressure (bar)	uptake (wt%)
0.498442	1.5748
1.49533	2.75591
2.74143	3.93701
4.23676	5.31496
6.72897	6.69291
8.72274	8.07087
11.4642	9.05512
13.7072	10.2362
17.6947	12.0079
21.6822	13.3858
25.6698	14.9606
31.1526	16.7323
36.3863	18.7008
41.8692	20.4724
48.8474	22.6378
55.8255	24.6063
62.8037	26.7717
69.7819	28.5433
77.0093	30.5118
84.2368	32.0866
