Adsorption isotherm of Hydrogen on IRMOF-1
DOI: 10.1016/j.ijhydene.2011.03.002
Adsorbate Hydrogen: InChIKey UFHFLCQGNIYNRP-UHFFFAOYSA-N
Temperature: 77 K
Tabular data in the source: 0
pressure (bar)	uptake (wt%)
0	0.392
1.21951	0.952427
1.95122	1.31668
3.17073	1.59711
4.39024	1.87754
6.82927	2.21439
9.02439	2.52316
12.1951	2.72027
15.3659	2.94538
17.561	3.03015
19.5122	3.11483
21.9512	3.19968
26.3415	3.31322
30.2439	3.39859
33.1707	3.42761
35.6098	3.45646
38.0488	3.45732
39.5122	3.48583
41.7073	3.4586
44.1463	3.48745
46.5854	3.4883
50.7317	3.46176
55.122	3.43529
57.8049	3.43623
60.4878	3.38117
65.6098	3.35496
69.2683	3.30024
73.9024	3.24587
77.8049	3.21923
80	3.164
