Adsorption isotherm of Hydrogen on IRMOF-1
DOI: 10.1016/j.ijhydene.2011.03.002
Adsorbate Hydrogen: InChIKey UFHFLCQGNIYNRP-UHFFFAOYSA-N
Temperature: 77 K
Tabular data in the source: 0
pressure (bar)	uptake (wt%)
0.747664	4.52756
1.99377	7.28346
3.73832	9.84252
5.98131	12.4016
7.72586	13.7795
9.22118	15.3543
10.9657	16.5354
12.9595	17.9134
13.9564	18.8976
15.9502	19.685
17.9439	20.6693
20.1869	21.8504
22.4299	22.8346
25.6698	24.2126
27.9128	25.1969
30.1558	26.1811
31.4019	26.378
33.6449	27.1654
37.3832	28.3465
39.6262	29.1339
41.8692	29.9213
42.866	30.1181
45.109	30.9055
47.352	31.4961
48.8474	31.8898
51.0903	32.6772
53.5826	33.2677
54.8287	33.6614
57.0717	34.252
59.5639	34.6457
61.8069	35.4331
64.2991	35.8268
66.5421	36.4173
69.0343	37.0079
71.2773	37.5984
72.5234	37.7953
74.7664	38.3858
77.2586	38.7795
80	39.3701
