Adsorption isotherm of Hydrogen on IRMOF-1
DOI: 10.1016/j.ijhydene.2011.03.002
Adsorbate Hydrogen: InChIKey UFHFLCQGNIYNRP-UHFFFAOYSA-N
Temperature: 77 K
Tabular data in the source: 0
pressure (bar)	uptake (wt%)
0.996885	6.29921
1.74455	9.64567
2.74143	12.7953
4.7352	17.126
7.47664	20.4724
9.71963	22.6378
12.7103	24.8031
18.4424	27.7559
23.676	30.315
29.6573	32.0866
35.3894	33.8583
41.1215	35.6299
46.8536	37.2047
52.8349	38.189
58.567	39.1732
64.5483	39.9606
70.2804	39.9606
76.2617	40.3543
