Adsorption isotherm of Propene on C51H34Br2N2O8SiZn2
DOI: 10.1021/Ja200553m
Adsorbate Propene: InChIKey QQONPFPTGQHPMA-UHFFFAOYSA-N
Temperature: 298 K
Tabular data in the source: 0
pressure (bar)	uptake (mmol/g)
0.0235294	0.0585938
0.0352941	0.269531
0.141176	0.375
0.270588	0.492188
0.364706	0.5625
0.482353	0.632812
0.658824	0.667969
0.823529	0.714844
0.964706	0.761719
1.14118	0.808594
1.30588	0.84375
1.48235	0.902344
1.65882	0.925781
1.83529	0.984375
2.04706	0.996094
2.22353	1.03125
2.43529	1.04297
2.75294	1.05469
3	1.08984
3.42353	1.125
