Adsorption isotherm of N-propane on TO-MOF
DOI: 10.1021/Ja200553m
Adsorbate N-propane: InChIKey ATUOYWHBWRKTHZ-UHFFFAOYSA-N
Temperature: 298 K
Tabular data in the source: 0
pressure (bar)	uptake (mmol/g)
0.0120395	0.070074
0.0133671	0.408599
0.026139	0.665446
0.0390941	0.968986
0.145985	1.22611
0.240561	1.34311
0.381968	1.40189
0.523375	1.46067
0.829581	1.54328
1.05325	1.57895
1.20624	1.59107
1.42991	1.62674
1.63	1.65067
1.77127	1.67443
1.93603	1.68658
2.15956	1.68724
2.3125	1.68768
2.60667	1.70021
2.95961	1.70124
3.24201	1.71374
3.40677	1.7259
3.57148	1.72638
