Adsorption isotherm of N-propane on C33H11Br1N4O7Zn1
DOI: 10.1021/Ja200553m
Adsorbate N-propane: InChIKey ATUOYWHBWRKTHZ-UHFFFAOYSA-N
Temperature: 298 K
Tabular data in the source: 0
pressure (bar)	uptake (mmol/g)
0.011947	0.0464769
0.0486999	0.418463
0.0727306	0.5463
0.108526	0.674103
0.167577	0.732071
0.250339	0.836482
0.356539	0.917568
0.521563	0.998484
0.686449	1.04452
0.827715	1.06736
0.957399	1.13675
1.15749	1.15943
1.33414	1.20542
1.49907	1.26308
1.61672	1.26274
1.72264	1.27406
1.87572	1.3085
2.11115	1.3427
2.22884	1.35399
2.34662	1.38853
2.46422	1.37656
2.51137	1.39968
2.62902	1.39933
2.73494	1.41065
2.98214	1.44482
3.09978	1.44448
3.27634	1.46722
3.40575	1.46684
3.48815	1.47823
