Adsorption isotherm of Carbon Dioxide on C33H11Br1N4O7Zn1
DOI: 10.1021/Ja200553m
Adsorbate Carbon Dioxide: InChIKey CURLTUGMZLYLDI-UHFFFAOYSA-N
Temperature: 273 K
Tabular data in the source: 0
pressure (bar)	uptake (cm3(STP)/g)
0.0219213	1.23911
0.0340998	2.653
0.056021	4.06858
0.0706352	4.95348
0.0876851	6.19174
0.112042	7.78422
0.155885	10.4389
0.258184	15.7508
0.311769	18.0543
0.360483	20.3569
0.411633	22.4835
0.462782	24.7865
0.513932	26.5601
0.567517	28.5106
0.616231	30.8132
0.669817	32.4108
0.718531	34.3604
0.772116	35.7815
0.823266	37.3787
0.874415	38.7993
0.923129	40.3961
0.976715	41.8172
1.01569	43.2357
