Adsorption isotherm of Nitrogen on C48H27N2O8Zn2
DOI: 10.1021/Ja200553m
Adsorbate Nitrogen: InChIKey IJGRMHOSHXDMSA-UHFFFAOYSA-N
Temperature: 77 K
Tabular data in the source: 0
pressure (bar)	uptake (cm3(STP)/g)
0.00115766	108.197
0.00121028	113.115
0.00347882	125.137
0.00557196	120.765
0.00781126	130.055
0.0121262	133.333
0.0271582	138.251
0.0421726	141.53
0.0507615	144.262
0.0657526	145.355
0.0786155	147.541
0.100032	149.18
0.110738	149.727
0.153571	153.005
0.204964	156.284
0.254211	159.016
0.301307	160.656
0.350548	162.842
0.397649	165.027
0.449025	166.667
0.498266	168.852
0.545356	169.945
0.643827	173.224
0.688783	174.863
0.738012	175.956
0.787242	177.049
0.838623	179.235
0.883573	180.328
0.928535	182.514
0.973584	192.896
