Adsorption isotherm of Carbon Dioxide on C48H27N2O8Zn2
DOI: 10.1021/Ja200553m
Adsorbate Carbon Dioxide: InChIKey CURLTUGMZLYLDI-UHFFFAOYSA-N
Temperature: 273 K
Tabular data in the source: 0
pressure (bar)	uptake (cm3(STP)/g)
0.0194856	3.17986
0.0414069	5.65427
0.0633281	7.59926
0.0852494	9.8972
0.104735	11.8418
0.153449	16.0855
0.255748	23.8681
0.309334	27.0539
0.365355	30.593
0.409197	33.4242
0.460347	36.4331
0.513932	39.0895
0.565082	41.569
0.616231	44.0485
0.667381	46.7045
0.716095	48.6541
0.76968	50.9576
0.82083	53.0841
0.87198	55.0342
0.920694	56.8074
0.971843	58.581
1.01569	60.1769
