Adsorption isotherm of N-propane on C51H34Br2N2O8SiZn2
DOI: 10.1021/Ja200553m
Adsorbate N-propane: InChIKey ATUOYWHBWRKTHZ-UHFFFAOYSA-N
Temperature: 298 K
Tabular data in the source: 0
pressure (bar)	uptake (mmol/g)
0.0235294	0.0585938
0.0470588	0.210938
0.141176	0.386719
0.258824	0.492188
0.388235	0.527344
0.494118	0.585938
0.694118	0.621094
0.858824	0.667969
1.02353	0.703125
1.23529	0.726562
1.41176	0.75
1.62353	0.796875
1.84706	0.820312
2.07059	0.832031
2.25882	0.832031
2.49412	0.867188
2.69412	0.878906
2.94118	0.878906
3.12941	0.878906
3.29412	0.902344
3.47059	0.902344
