Adsorption isotherm of Propene on C48H27N2O8Zn2
DOI: 10.1021/Ja200553m
Adsorbate Propene: InChIKey QQONPFPTGQHPMA-UHFFFAOYSA-N
Temperature: 298 K
Tabular data in the source: 0
pressure (bar)	uptake (mmol/g)
0.0279442	1.10481
0.0767437	1.51207
0.0896867	1.80285
0.256254	2.15265
0.362817	2.2463
0.516762	2.38673
0.788612	2.50458
1.01317	2.59891
1.29655	2.64707
1.50912	2.69482
1.66266	2.7306
1.95779	2.7672
2.18207	2.79176
2.35916	2.81604
2.59524	2.84067
2.87848	2.85394
3.10272	2.86688
3.30336	2.87967
3.57489	2.91613
