Adsorption isotherm of Propene on C33H11Br1N4O7Zn1
DOI: 10.1021/Ja200553m
Adsorbate Propene: InChIKey QQONPFPTGQHPMA-UHFFFAOYSA-N
Temperature: 298 K
Tabular data in the source: 0
pressure (bar)	uptake (mmol/g)
0.0123574	0.151127
0.0375737	0.581286
0.0615132	0.685868
0.109255	0.860148
0.251206	1.05741
0.499037	1.25436
0.664014	1.32365
0.770032	1.35823
0.876096	1.40443
0.993924	1.4506
1.18239	1.50819
1.30012	1.5311
1.40614	1.56568
1.52388	1.58859
1.55922	1.60012
1.66519	1.62307
1.78297	1.65761
1.87722	1.69222
2.03021	1.7034
2.12442	1.72638
2.24211	1.73767
2.3598	1.74895
2.46573	1.76027
2.58346	1.78319
2.70115	1.79447
2.80713	1.81742
2.92482	1.82871
3.03079	1.85165
3.14848	1.86294
3.30151	1.88575
3.47812	1.92012
