Adsorption isotherm of Carbon Dioxide on TO-MOF
DOI: 10.1021/Ja200553m
Adsorbate Carbon Dioxide: InChIKey CURLTUGMZLYLDI-UHFFFAOYSA-N
Temperature: 273 K
Tabular data in the source: 0
pressure (bar)	uptake (cm3(STP)/g)
0.00730709	0.707155
0.0194856	2.29751
0.0267927	3.35761
0.0365355	4.41813
0.0462782	5.65512
0.0584567	6.53959
0.0681995	7.42364
0.0828137	8.66148
0.112042	10.7842
0.155885	13.9683
0.258184	20.1626
0.311769	22.9955
0.362919	25.2985
0.414069	27.778
0.462782	29.7277
0.516368	31.8546
0.565082	33.6278
0.618667	35.5783
0.667381	37.3515
0.718531	38.5957
0.76968	40.1929
0.82083	41.79
0.87198	43.0342
0.925565	44.6318
0.976715	45.523
1.01569	46.9416
