Adsorption isotherm of Propene on TO-MOF
DOI: 10.1021/Ja200553m
Adsorbate Propene: InChIKey QQONPFPTGQHPMA-UHFFFAOYSA-N
Temperature: 298 K
Tabular data in the source: 0
pressure (bar)	uptake (mmol/g)
0.0157475	1.01561
0.0633562	1.15583
0.122867	1.3311
0.264732	1.50661
0.39442	1.57703
0.500669	1.67072
0.642031	1.71783
0.806876	1.75333
1.05426	1.83576
1.32499	1.87157
1.65454	1.90755
1.94875	1.93176
2.16066	1.96739
2.47835	1.98
2.86673	2.01615
3.23153	2.04056
3.58457	2.06494
