Adsorption isotherm of Nitrogen on TO-MOF
DOI: 10.1021/Ja200553m
Adsorbate Nitrogen: InChIKey IJGRMHOSHXDMSA-UHFFFAOYSA-N
Temperature: 77 K
Tabular data in the source: 0
pressure (bar)	uptake (cm3(STP)/g)
0.00267781	50.2732
0.00277721	59.5628
0.00294092	74.8634
0.00470079	39.3443
0.00524454	90.1639
0.00532055	97.2678
0.0117929	102.186
0.0268249	107.104
0.0461133	109.836
0.063256	112.022
0.0889642	114.754
0.108247	116.94
0.155342	118.579
0.20459	121.311
0.251685	122.951
0.300921	124.59
0.348016	126.23
0.397252	127.869
0.446487	129.508
0.493583	131.148
0.544953	132.24
0.643424	135.519
0.686233	136.612
0.737603	137.705
0.782559	139.344
0.838208	140.437
0.887438	141.53
0.934528	142.623
0.970976	149.18
