Adsorption isotherm of Carbon Dioxide on C51H34Br2N2O8SiZn2
DOI: 10.1021/Ja200553m
Adsorbate Carbon Dioxide: InChIKey CURLTUGMZLYLDI-UHFFFAOYSA-N
Temperature: 273 K
Tabular data in the source: 0
pressure (bar)	uptake (cm3(STP)/g)
0.0316641	1.24081
0.0487139	2.12613
0.0681995	3.18835
0.112042	4.96069
0.155885	6.9095
0.211906	9.03691
0.26062	10.6336
0.314205	12.2312
0.360483	13.8275
0.414069	15.0721
0.467654	16.4932
0.518803	17.5609
0.567517	18.9812
0.618667	20.0489
0.669817	21.1167
0.718531	22.3604
0.774552	22.8996
0.823266	24.1434
0.874415	24.8582
0.920694	26.1015
0.976715	26.6407
1.01569	27.5298
