Adsorption isotherm of N-propane on C48H27N2O8Zn2
DOI: 10.1021/Ja200553m
Adsorbate N-propane: InChIKey ATUOYWHBWRKTHZ-UHFFFAOYSA-N
Temperature: 298 K
Tabular data in the source: 0
pressure (bar)	uptake (mmol/g)
0.0120741	0.0698376
0.0280357	1.12807
0.0646238	1.43061
0.113149	1.7681
0.243906	2.01305
0.515939	2.17742
0.634164	2.23625
0.764189	2.29514
0.882323	2.33071
1.04766	2.36656
1.24839	2.40261
1.47281	2.46205
1.6735	2.48647
1.90976	2.55761
2.21656	2.5594
2.51164	2.58437
2.71223	2.58554
2.87743	2.5865
3.13711	2.61126
3.26696	2.62365
3.503	2.63665
