Adsorption isotherm of Hydrogen on TPT-COF-2
DOI: 10.1039/c6cc01171c
Article source: Figure S16
Adsorbate Hydrogen: InChIKey UFHFLCQGNIYNRP-UHFFFAOYSA-N
Kind: experiment
Temperature: 77 K
Tabular data in the source: 0
pressure (bar)	uptake (wt%)
0.004022	0.009469
0.00803	0.053194
0.030845	0.081157
0.013468	0.035433
0.051472	0.104712
0.050499	0.084482
0.075017	0.151821
0.100118	0.150713
0.103037	0.187154
0.150321	0.215598
0.152073	0.247427
0.20286	0.307878
0.201109	0.2706
0.251896	0.325692
0.253647	0.362984
0.304434	0.417259
0.302683	0.38065
0.35347	0.43209
0.355221	0.467318
0.404257	0.515121
0.404507	0.479611
0.455044	0.522811
0.456795	0.555857
0.505831	0.579742
0.556618	0.626759
0.607405	0.662752
0.656441	0.72487
0.658192	0.696593
0.708979	0.747679
0.759766	0.804549
0.760824	0.780321
0.809969	0.847106
0.831569	0.829371
0.857838	0.888634
0.859339	0.849941
0.886909	0.881829
0.90162	0.870107
0.913489	0.904192
0.935849	0.91568
0.962914	0.937239
0.988483	0.948171
1.00144	0.954905
0.708503	0.775
0.607388	0.691
0.556831	0.648
0.505572	0.604
