Adsorption isotherm of Carbon Dioxide on TPT-COF-1
DOI: 10.1039/c6cc01171c
Article source: Figure S17
Adsorbate Carbon Dioxide: InChIKey CURLTUGMZLYLDI-UHFFFAOYSA-N
Kind: experiment
Temperature: 273 K
Tabular data in the source: 0
pressure (bar)	uptake (wt%)
0.037337	0.558915
0.06809	0.805767
0.097133	0.985494
0.107384	0.755964
0.131303	1.20203
0.14497	0.981163
0.165472	1.40558
0.182556	1.2042
0.201349	1.61129
0.216725	1.4164
0.237227	1.82999
0.252603	1.62688
0.271396	2.0292
0.290189	1.85034
0.310202	2.21635
0.326067	2.06602
0.345714	2.40706
0.363653	2.27714
0.38147	2.6154
0.397822	2.49151
0.417469	2.80495
0.4337	2.70264
0.451638	3.01283
0.469577	2.92026
0.488797	3.21745
0.502892	3.11839
0.523394	3.42533
0.541332	3.32951
0.560553	3.60397
0.57721	3.54713
0.595149	3.82159
0.611379	3.75501
0.632308	4.01972
0.648965	3.97154
0.667189	4.2184
0.683134	4.17509
0.701073	4.42411
0.719012	4.38838
0.738944	4.61827
0.75489	4.59084
0.772828	4.81875
0.790767	4.79114
0.80956	5.02082
0.826645	5.00226
0.843729	5.22313
0.860814	5.2188
0.877899	5.41059
0.896692	5.41802
0.915485	5.6129
0.932569	5.63022
0.963321	5.83377
0.999199	6.04164
1.03337	6.26035
0.049949	0.331008
0.035678	0.244186
0.021407	0.168217
0.006422	0.075969
