Adsorption isotherm of Nitrogen on TPT-COF-1
DOI: 10.1039/c6cc01171c
Article source: Figure 2a
Adsorbate Nitrogen: InChIKey IJGRMHOSHXDMSA-UHFFFAOYSA-N
Kind: experiment
Temperature: 77 K
Tabular data in the source: 0
pressure (bar)	uptake (cm3(STP)/g)
0.002508	149.204
0.00212	122.687
0.001272	105.672
0.001144	87.5417
0.001144	71.815
0.001144	53.787
0.001144	36.0608
0.000684	16.7094
0.003192	169.767
0.006347	188.071
0.010645	204.103
0.011398	219.731
0.027425	260.612
0.056531	313.768
0.078618	384.599
0.11393	410.512
0.134148	417.974
0.153686	425.926
0.173196	428.941
0.207769	437.224
0.253075	447.246
0.328932	457.68
0.402553	467.327
0.478357	475.409
0.553872	484.273
0.631122	492.531
0.706585	501.488
0.767323	509.886
0.827324	519.264
0.868605	526.862
0.909097	537.459
0.909938	588.815
0.948555	548.143
0.946289	594.101
0.969046	560.68
0.989292	602.891
0.997472	578.862
0.002928	138.07
1.00446	594.592
0.145447	432.768
0.200112	447.614
0.250872	459.491
0.309441	466.914
0.348488	475.822
0.403152	484.73
0.457817	501.06
0.506625	508.484
0.555433	514.422
0.610098	523.33
0.658905	529.268
0.71357	539.661
0.763354	550.053
0.809233	561.93
0.832661	570.838
0.86585	576.776
0.885374	584.199
0.919539	590.88
