Adsorption isotherm of Hydrogen on TPT-COF-1
DOI: 10.1039/c6cc01171c
Article source: Figure S16
Adsorbate Hydrogen: InChIKey UFHFLCQGNIYNRP-UHFFFAOYSA-N
Kind: experiment
Temperature: 77 K
Tabular data in the source: 0
pressure (bar)	uptake (wt%)
0.101286	0.210681
0.152073	0.278187
0.20286	0.324004
0.253647	0.399979
0.302683	0.448303
0.355221	0.521948
0.354189	0.498494
0.404257	0.561445
0.456795	0.640655
0.455044	0.61322
0.505223	0.688466
0.504798	0.663101
0.556618	0.746402
0.556618	0.712982
0.607405	0.785933
0.658192	0.852649
0.658192	0.820226
0.707228	0.900036
0.708979	0.862209
0.758811	0.91568
0.810553	0.964257
0.859589	1.00749
0.900306	1.02723
0.910376	1.05747
0.920884	1.03388
0.936645	1.07711
0.960367	1.08664
0.989534	1.11502
1.00713	1.12325
0.151672	0.248
0.102519	0.187
0.073027	0.152
0.030896	0.086
0.050557	0.116
0.002809	0.002
0.051259	0.096
0.204335	0.348
0.303343	0.472
0.253488	0.418
0.404457	0.588
0.606686	0.804
0.810319	0.981
0.759762	0.935
0.85877	1.027
0.999909	1.122
