Adsorption isotherm of Nitrogen on TPT-COF-2
DOI: 10.1039/c6cc01171c
Article source: Figure 2b
Adsorbate Nitrogen: InChIKey IJGRMHOSHXDMSA-UHFFFAOYSA-N
Kind: experiment
Temperature: 77 K
Tabular data in the source: 0
pressure (bar)	uptake (cm3(STP)/g)
0.000506	11.9777
0.004592	150.45
0.002494	126.162
0.002328	34.3433
0.004157	107.12
0.003242	86.7296
0.003242	66.8212
0.00306	49.6088
0.008596	182.586
0.011996	200.822
0.032438	244.956
0.066565	280.016
0.084847	295.49
0.102825	306.76
0.129334	326.77
0.159499	349.45
0.201548	387.081
0.254566	460.302
0.304842	631.468
0.342404	621.67
0.473038	643.616
0.497719	646.327
0.505946	673.872
0.607411	686.219
0.631178	661.897
0.707381	673.026
0.71317	705.823
0.769208	680.509
0.810648	734.116
0.829539	691.462
0.86976	701.306
0.884138	768.166
0.908603	782.984
0.910895	715.732
0.920493	787.133
0.946139	797.939
0.947459	733.66
0.974882	754.073
0.984937	807.621
0.991336	775.196
1.00505	802.295
0.857142	753.138
0.83581	741.841
0.757271	713.598
0.656431	692.887
0.559469	681.59
0.45475	658.996
0.402391	647.699
0.351971	638.285
0.251131	608.159
0.20362	401.987
0.136716	342.678
0.005818	167.573
0.553651	651.464
