Adsorption isotherm of Carbon Dioxide on TPT-COF-2
DOI: 10.1039/c6cc01171c
Article source: Figure S17
Adsorbate Carbon Dioxide: InChIKey CURLTUGMZLYLDI-UHFFFAOYSA-N
Kind: experiment
Temperature: 273 K
Tabular data in the source: 0
pressure (bar)	uptake (wt%)
0.007374	0.041224
0.030504	0.169147
0.037337	0.419712
0.051764	0.264424
0.06771	0.672958
0.097133	0.868563
0.107384	0.626041
0.131303	1.06994
0.14497	0.830128
0.165472	1.27782
0.182556	1.04125
0.201349	1.47765
0.216725	1.2475
0.237227	1.66759
0.252603	1.4229
0.271396	1.86897
0.288481	1.63727
0.308982	2.05302
0.324358	1.81916
0.343151	2.22679
0.360236	1.99293
0.379029	2.42493
0.396113	2.20522
0.414907	2.62252
0.430283	2.39082
0.449076	2.80657
0.46616	2.56459
0.484953	2.99032
0.502038	2.77688
0.520587	3.16479
0.537915	2.96248
0.556708	3.34705
0.573793	3.13788
0.592586	3.52927
0.607962	3.35039
0.628084	3.7117
0.64384	3.52764
0.662633	3.89607
0.679717	3.72415
0.69851	4.07981
0.715595	3.92391
0.734768	4.23139
0.751473	4.0967
0.772595	4.37746
0.790767	4.31367
0.807282	4.56486
0.82274	4.47886
0.842176	4.72943
0.85935	4.67375
0.877899	4.92617
0.8984	4.90266
0.916624	5.08888
0.933139	5.05856
0.96503	5.2751
0.999199	5.45374
1.03508	5.68714
