Adsorption isotherm of Nitrogen on MOF Cu-ABTA
DOI: 10.1039/C4ra07101h
Adsorbate Nitrogen: InChIKey IJGRMHOSHXDMSA-UHFFFAOYSA-N
Temperature: 77 K
Tabular data in the source: 0
pressure (bar)	uptake (cm3(STP)/g)
0.0010024	133.117
0.00148505	398.692
0.0015593	162.626
0.00181919	296.397
0.00241321	207.874
0.00252458	333.776
0.00278447	227.547
0.00300722	479.35
0.00334137	377.056
0.00430665	428.205
0.00530906	361.322
0.00657135	188.21
0.0103582	508.873
0.01292	524.616
0.0132169	540.355
0.0158158	558.065
0.0161128	573.803
0.0350843	619.087
0.0587337	672.25
0.0795245	693.932
0.134285	715.682
0.202487	729.59
0.259253	737.574
0.30915	741.61
0.352254	745.631
0.404417	749.671
0.449748	751.73
0.506365	751.845
0.544865	751.923
0.599292	755.968
0.646888	758.031
0.699013	760.104
0.744308	760.196
0.796433	762.268
0.844028	764.332
0.941448	766.496
