Adsorption isotherm of Carbon Dioxide on MOF Cu-ABTA
DOI: 10.1039/C4ra07101h
Adsorbate Carbon Dioxide: InChIKey CURLTUGMZLYLDI-UHFFFAOYSA-N
Temperature: 298 K
Tabular data in the source: 0
pressure (bar)	uptake (cm3(STP)/g)
0.0516503	6.04396
0.0748929	8.24176
0.105883	10.4396
0.13429	12.6374
0.154951	14.8352
0.175611	16.4835
0.204019	19.2308
0.253087	23.6264
0.304736	26.9231
0.361552	31.8681
0.41062	36.2637
0.459688	40.1099
0.51392	45.0549
0.562988	48.3516
0.614639	52.1978
0.658542	56.5934
0.710192	60.989
0.764425	64.8352
0.816076	69.2308
0.86256	71.978
0.919375	76.3736
0.965861	80.2198
1.00976	84.0659
