Adsorption isotherm of Hydrogen on MOF Cu-ABTA
DOI: 10.1039/C4ra07101h
Adsorbate Hydrogen: InChIKey UFHFLCQGNIYNRP-UHFFFAOYSA-N
Temperature: 77 K
Tabular data in the source: 0
pressure (bar)	uptake (cm3(STP)/g)
0.00263353	14.4304
0.0237018	24.7194
0.0342358	32.9566
0.0368694	40.1705
0.0500371	48.4052
0.0684717	62.8204
0.102708	83.4059
0.152745	109.131
0.205415	132.791
0.252819	150.271
0.308123	166.712
0.35816	182.128
0.413463	197.539
0.463501	208.83
0.510905	221.156
0.558307	232.45
0.608345	243.742
0.666283	252.964
0.708419	263.233
0.763724	271.427
0.81376	278.595
0.863797	285.763
0.916467	294.99
0.961238	301.133
1.01128	307.27
