Adsorption isotherm of Hydrogen on MOF Cu-ABTA
DOI: 10.1039/C4ra07101h
Adsorbate Hydrogen: InChIKey UFHFLCQGNIYNRP-UHFFFAOYSA-N
Temperature: 87 K
Tabular data in the source: 0
pressure (bar)	uptake (cm3(STP)/g)
0.0158012	5.13937
0.0237018	9.25544
0.0447699	14.3897
0.0737387	22.6091
0.102708	32.8904
0.152745	44.1823
0.202782	57.536
0.255452	67.7943
0.308123	78.0527
0.35816	87.2827
0.408197	95.4817
0.460867	103.678
0.508272	110.849
0.558307	119.048
0.616245	127.239
0.663649	133.379
0.711052	140.55
0.766357	146.682
0.819027	152.817
0.863797	158.959
0.916467	165.094
0.963871	170.202
1.01391	175.309
