Adsorption isotherm of Carbon Dioxide on MOF Cu-ABTA
DOI: 10.1039/C4ra07101h
Adsorbate Carbon Dioxide: InChIKey CURLTUGMZLYLDI-UHFFFAOYSA-N
Temperature: 273 K
Tabular data in the source: 0
pressure (bar)	uptake (cm3(STP)/g)
0.0129126	3.2967
0.0309903	7.69231
0.0516503	10.4396
0.0697279	13.7363
0.100718	19.7802
0.13429	25.8242
0.154951	28.5714
0.175611	32.4176
0.204019	37.9121
0.25567	47.2527
0.304736	56.5934
0.356387	64.8352
0.405455	73.0769
0.454523	80.7692
0.508756	88.4615
0.557823	96.1538
0.612056	103.297
0.661124	110.44
0.710192	117.033
0.764425	123.626
0.813492	130.22
0.86256	136.264
0.91421	142.308
0.963278	148.352
1.01235	153.846
