Adsorption isotherm of Nitrogen on MOF Cu-ABTA
DOI: 10.1039/C4ra07101h
Adsorbate Nitrogen: InChIKey IJGRMHOSHXDMSA-UHFFFAOYSA-N
Temperature: 273 K
Tabular data in the source: 0
pressure (bar)	uptake (cm3(STP)/g)
0.105883	1.0989
0.136873	1.64835
0.180776	2.74725
0.211767	2.1978
0.258252	2.74725
0.307319	3.2967
0.356387	3.84615
0.41062	3.84615
0.46227	3.84615
0.508756	3.84615
0.562988	4.94505
0.612056	4.94505
0.663707	5.49451
0.715357	5.49451
0.764425	5.49451
0.816076	6.59341
0.865142	6.59341
0.916793	7.14286
0.965861	7.14286
1.01235	7.14286
