Adsorption isotherm of Methane on MOF Cu-ABTA
DOI: 10.1039/C4ra07101h
Adsorbate Methane: InChIKey VNWKTOKETHGBQD-UHFFFAOYSA-N
Temperature: 273 K
Tabular data in the source: 0
pressure (bar)	uptake (cm3(STP)/g)
0.105883	3.2967
0.131708	4.3956
0.154951	6.04396
0.170446	6.59341
0.206602	7.14286
0.25567	8.79121
0.307319	10.4396
0.356387	11.5385
0.405455	13.1868
0.457105	14.8352
0.511338	16.4835
0.560406	17.033
0.606891	18.6813
0.663707	20.3297
0.710192	21.978
0.761843	22.5275
0.813492	24.1758
0.86256	25.8242
0.911628	27.4725
0.963278	28.5714
1.00976	29.6703
