Adsorption isotherm of Hydrogen on PZ-COF-1
DOI: 10.1039/c8dt05056b
Article source: Figure S22a
Adsorbate Hydrogen: InChIKey UFHFLCQGNIYNRP-UHFFFAOYSA-N
Kind: experiment
Temperature: 77 K
Tabular data in the source: 0
pressure (bar)	uptake (cm3(STP)/g)
0.996687	122.48
0.987576	122.786
0.949999	120.596
0.945444	120.594
0.8942	119.33
0.845234	117.445
0.79513	115.56
0.750722	112.125
0.701755	110.862
0.693785	109.927
0.650514	107.734
0.649377	106.803
0.598132	105.848
0.599272	104.918
0.548029	103.343
0.54917	102.101
0.500203	100.838
0.49793	98.0428
0.447824	97.0891
0.450106	94.6066
0.395446	93.03
0.395448	91.4778
0.346483	89.2829
0.345347	87.7302
0.295243	85.5347
0.294107	83.6716
0.246282	80.5459
0.244009	77.7509
0.197323	74.6257
0.196186	73.6939
0.148364	68.7056
0.147231	65.6007
0.099411	59.3706
0.100553	57.5085
0.08689	55.6398
0.075508	52.2199
0.06754	49.7329
0.051602	46.6214
0.048191	43.2051
0.037948	39.4753
0.031123	34.5052
0.020882	29.8441
0.006089	22.6975
0.007234	18.9728
0.003826	14.0043
0.002694	9.34724
0.001854	5.30954
0.002987	1.58381
