Adsorption isotherm of Nitrogen on Mn/PZ-COF-1
DOI: 10.1039/c8dt05056b
Article source: Figure S31b
Adsorbate Nitrogen: InChIKey IJGRMHOSHXDMSA-UHFFFAOYSA-N
Kind: experiment
Temperature: 77 K
Tabular data in the source: 0
pressure (bar)	uptake (cm3(STP)/g)
0.000496	68.6588
0.000179	42.6865
0.001516	0.416574
0.011025	94.0611
0.044635	103.326
0.079453	108.999
0.15065	112.925
0.201288	119.039
0.251917	121.722
0.302546	124.699
0.353174	127.168
0.405379	127.624
0.457594	131.715
0.508224	135.095
0.557271	137.577
0.60948	139.742
0.658526	142.073
0.709155	144.647
0.758194	144.627
0.808829	149.453
0.861041	152.887
0.908507	155.67
0.960718	158.567
1.00188	172.09
0.104743	111.011
0.028446	102.636
0.006327	87.8087
0.001722	80.3969
0.001782	58.1746
0.003809	50.7661
0.046531	110.053
0.100738	114.712
0.152941	120.297
0.201122	123.101
0.253318	125.907
0.301504	130.563
0.353694	131.518
0.405887	133.398
0.460093	137.132
0.512291	140.864
0.556455	142.74
0.608648	144.62
0.660843	147.427
0.709022	149.305
0.75921	152.11
0.809396	153.99
0.85557	156.793
0.905763	161.45
0.961975	165.185
