Adsorption isotherm of Methane on PZ-COF-2
DOI: 10.1039/c8dt05056b
Article source: Figure S24b
Adsorbate Methane: InChIKey VNWKTOKETHGBQD-UHFFFAOYSA-N
Kind: experiment
Temperature: 273 K
Tabular data in the source: 0
pressure (bar)	uptake (cm3(STP)/g)
0.1	3.26006
0.15	5.00124
0.2	6.44394
0.25	7.68764
0.3	8.8816
0.35	10.0258
0.4	11.0705
0.45	12.0655
0.5	13.0604
0.55	13.9559
0.6	14.9509
0.65	15.7966
0.7	16.5428
0.75	17.3885
0.8	17.9855
0.85	18.7317
0.9	19.4282
0.942868	20.141
0.950541	20.2685
0.986988	20.7142
0.994659	20.9695
0.904503	19.6314
0.854629	18.9307
0.802836	18.23
0.752964	17.4013
0.706929	16.5725
0.653216	15.9998
0.603345	15.0433
0.553474	14.1507
0.503604	13.1941
0.451815	12.2377
0.398107	11.3453
0.350159	10.1329
0.298372	9.04862
0.246586	7.90038
0.19672	6.68809
0.148775	5.2839
0.102749	3.8796
0.085489	3.36897
0.077819	3.11361
0.068231	2.73047
0.060561	2.47511
0.049054	2.156
0.043307	1.58085
0.02988	1.32578
0.016456	0.878899
0.004952	0.367979
0.002718	0.048678
