Adsorption isotherm of Nitrogen on PZ-COF-1
DOI: 10.1039/c8dt05056b
Article source: Figure S31a/3a
Adsorbate Nitrogen: InChIKey IJGRMHOSHXDMSA-UHFFFAOYSA-N
Kind: experiment
Temperature: 77 K
Tabular data in the source: 0
pressure (bar)	uptake (cm3(STP)/g)
0.001431	32.1601
0.10345	209.452
0.150928	216.927
0.201566	223.051
0.252198	226.773
0.302833	231.727
0.353465	235.586
0.405678	239.395
0.457895	244.157
0.508526	247.803
0.559158	251.753
0.609614	255.277
0.659126	258.891
0.708837	262.483
0.758517	265.271
0.809149	269.039
0.862314	273.829
0.910423	280.496
0.961069	289.646
1.00225	310.466
0.078909	208.219
0.070875	206.363
0.0528	202.649
0.036732	198.937
0.024674	193.374
0.010594	182.256
0.008577	178.551
0.004537	169.289
0.000486	155.398
0.000468	148.917
0.003581	135.951
0.002409	123.918
0.000377	114.657
0.001658	104.471
0.003722	83.1736
0.001762	65.5821
0.005841	41.5058
0.001797	52.6191
0.003752	72.0625
0.00369	95.2106
0.96032	296.665
0.910119	289.23
0.859921	282.721
0.811735	278.065
0.759537	274.333
0.711354	270.603
0.661165	267.797
0.60897	264.991
0.556769	260.333
0.512598	255.679
0.45839	251.02
0.408194	245.436
0.353992	242.629
0.305806	237.973
0.251598	233.314
0.203415	229.583
0.153216	223.074
0.103021	217.491
