Adsorption isotherm of Nitrogen on Mn/PZ-COF-2
DOI: 10.1039/c8dt05056b
Article source: Figure S32b
Adsorbate Nitrogen: InChIKey IJGRMHOSHXDMSA-UHFFFAOYSA-N
Kind: experiment
Temperature: 77 K
Tabular data in the source: 0
pressure (bar)	uptake (cm3(STP)/g)
0.99031	170.601
0.950967	161.679
0.94012	161.688
0.907573	158.73
0.876382	155.772
0.866896	157.272
0.837067	156.551
0.827579	157.306
0.797752	157.331
0.766569	157.357
0.761144	156.616
0.736742	157.383
0.716405	157.4
0.696069	157.417
0.682511	157.429
0.655394	156.705
0.643192	156.716
0.618786	155.99
0.59167	156.013
0.580826	156.769
0.552355	156.793
0.527947	155.321
0.521168	155.327
0.491341	155.352
0.471	153.877
0.456087	153.889
0.427614	153.167
0.407277	153.184
0.378804	152.462
0.347617	150.996
0.329994	151.757
0.306939	149.538
0.296095	150.294
0.271691	150.314
0.259481	147.339
0.241851	145.862
0.224226	145.877
0.21202	144.394
0.201174	144.404
0.179475	142.183
0.175388	135.47
0.172663	130.994
0.159101	129.513
0.141448	119.826
0.118376	111.636
0.095302	102.7
0.066809	95.2609
0.038307	84.8367
0.009807	75.1588
0.000103	2.02834
0.001231	9.4926
0.001498	15.4608
0.002873	22.1764
0.000194	33.3734
0.00157	40.0891
0.001592	47.5522
0.000267	58.0017
0.003	65.4625
0.024738	81.1166
0.053236	90.0482
0.103438	103.439
0.161809	128.018
0.150949	123.549
0.136012	115.353
0.122434	108.647
0.11158	105.671
0.095299	101.954
0.081729	97.4872
0.06816	93.7671
0.062735	93.0254
0.049164	88.559
0.034237	84.0938
0.017955	79.6298
0.008447	73.6673
0.001611	54.269
0.001174	28.8967
0.007087	72.1759
