Adsorption isotherm of Nitrogen on PZ-COF-1
DOI: 10.1039/c8dt05056b
Article source: Figure S31a/3a
Adsorbate Nitrogen: InChIKey IJGRMHOSHXDMSA-UHFFFAOYSA-N
Kind: experiment
Temperature: 77 K
Tabular data in the source: 0
pressure (bar)	uptake (cm3(STP)/g)
0.001413	32.1601
0.102098	209.452
0.148955	216.927
0.19893	223.051
0.2489	226.773
0.298873	231.727
0.348842	235.586
0.400373	239.395
0.451907	244.157
0.501876	247.803
0.551846	251.753
0.601642	255.277
0.650507	258.891
0.699568	262.483
0.748598	265.271
0.798568	269.039
0.851038	273.829
0.898517	280.496
0.948501	289.646
0.989148	310.466
0.077877	208.219
0.069948	206.363
0.05211	202.649
0.036252	198.937
0.024351	193.374
0.010455	182.256
0.008464	178.551
0.004478	169.289
0.000479	155.398
0.000462	148.917
0.003534	135.951
0.002377	123.918
0.000372	114.657
0.001636	104.471
0.003673	83.1736
0.001739	65.5821
0.005764	41.5058
0.001773	52.6191
0.003703	72.0625
0.003642	95.2106
0.947762	296.665
0.898218	289.23
0.848676	282.721
0.80112	278.065
0.749605	274.333
0.702051	270.603
0.652519	267.797
0.601007	264.991
0.549489	260.333
0.505895	255.679
0.452396	251.02
0.402857	245.436
0.349363	242.629
0.301807	237.973
0.248308	233.314
0.200755	229.583
0.151213	223.074
0.101673	217.491
