Adsorption isotherm of Methane on PZ-COF-1
DOI: 10.1039/c8dt05056b
Article source: Figure S24a
Adsorbate Methane: InChIKey VNWKTOKETHGBQD-UHFFFAOYSA-N
Kind: experiment
Temperature: 273 K
Tabular data in the source: 0
pressure (bar)	uptake (cm3(STP)/g)
0.15	3.11081
0.2	4.00628
0.25	4.852
0.3	5.64797
0.35	6.44394
0.4	7.19016
0.45	7.88663
0.5	8.58311
0.55	9.22983
0.6	9.87656
0.65	10.4735
0.7	11.0705
0.75	11.6675
0.8	12.165
0.85	12.7122
0.9	13.2594
0.95	13.8067
0.985168	14.3204
0.998597	14.3836
0.956393	14.0022
0.906517	13.4293
0.854723	12.7925
0.806765	12.2835
0.75689	11.6467
0.703176	11.074
0.657136	10.5648
0.607261	9.92796
0.555469	9.22729
0.507512	8.59035
0.457637	7.95352
0.405844	7.25284
0.304178	5.78746
0.354051	6.55217
0.248549	5.02304
0.194841	4.13064
0.143052	3.17421
0.104694	2.2171
0.093183	2.15375
0.081675	1.89858
0.070166	1.70735
0.058659	1.38825
0.043312	1.19722
0.027965	1.07013
0.016459	0.687083
0.004953	0.30404
