Adsorption isotherm of Hydrogen on PZ-COF-2
DOI: 10.1039/c8dt05056b
Article source: Figure S22b
Adsorbate Hydrogen: InChIKey UFHFLCQGNIYNRP-UHFFFAOYSA-N
Kind: experiment
Temperature: 77 K
Tabular data in the source: 0
pressure (bar)	uptake (cm3(STP)/g)
0.15	83.8673
0.2	92.8953
0.25	100.282
0.3	106.027
0.35	111.772
0.4	116.696
0.45	120.8
0.5	125.314
0.55	129.418
0.6	133.111
0.65	136.394
0.7	139.677
0.75	142.549
0.8	145.832
0.85	148.705
0.9	151.167
0.95	154.45
0.988091	156.365
0.995682	156.627
0.748385	141.728
0.700281	138.652
0.648222	136.114
0.600118	132.499
0.550038	128.525
0.498641	124.01
0.449879	120.396
0.394528	115.88
0.345767	111.007
0.29635	105.057
0.252203	100.007
0.200152	92.2586
0.148763	83.0734
0.097377	71.3732
0.088154	69.2133
0.080251	66.3353
0.069051	63.9949
0.059171	60.5771
0.053904	57.3411
0.044026	52.8454
0.040736	49.6102
0.026907	43.3163
0.018351	36.4857
0.011778	25.8834
0.005193	22.6468
0.002563	19.0526
0.002568	15.9986
0.001255	12.405
0.000602	9.17097
0.000711	5.57737
0.000706	2.88262
0.100008	74.7877
