Adsorption isotherm of Carbon Dioxide on PZ-COF-1
DOI: 10.1039/c8dt05056b
Article source: Figure S23a
Adsorbate Carbon Dioxide: InChIKey CURLTUGMZLYLDI-UHFFFAOYSA-N
Kind: experiment
Temperature: 273 K
Tabular data in the source: 0
pressure (bar)	uptake (cm3(STP)/g)
0.1	29.6825
0.15	35.8688
0.25	43.7047
0.3	46.5917
0.35	49.4786
0.4	51.7469
0.45	54.0152
0.55	57.727
0.6	58.3456
0.65	59.7891
0.7	61.2326
0.75	62.4698
0.8	63.9133
0.85	65.1505
0.9	66.1816
0.495938	56.0592
0.503482	54.3884
0.44978	52.5956
0.397965	50.0319
0.348976	47.8532
0.297163	44.9041
0.243464	42.0836
0.196368	37.8493
0.198242	40.5468
0.150211	34.0003
0.553416	56.1816
0.59958	57.8467
0.698507	60.9193
0.942527	67.9588
0.951951	67.5724
0.987754	68.3394
0.994349	68.4671
0.104064	27.9674
0.095585	27.4545
0.085228	25.5286
0.077694	24.3733
0.070161	23.0894
0.048494	21.9356
0.048501	20.0086
0.038144	17.9543
0.030617	15.1289
0.019319	12.8177
0.009912	8.70789
0.007091	7.16663
0.00145	4.0841
0.00146	1.38636
