Adsorption isotherm of Nitrogen on Mn/PZ-COF-1
DOI: 10.1039/c8dt05056b
Article source: Figure S31b
Adsorbate Nitrogen: InChIKey IJGRMHOSHXDMSA-UHFFFAOYSA-N
Kind: experiment
Temperature: 77 K
Tabular data in the source: 0
pressure (bar)	uptake (cm3(STP)/g)
0.00049	68.6588
0.000177	42.6865
0.001496	0.416574
0.010881	94.0611
0.044051	103.326
0.078414	108.999
0.14868	112.925
0.198656	119.039
0.248622	121.722
0.29859	124.699
0.348556	127.168
0.400078	127.624
0.45161	131.715
0.501578	135.095
0.549983	137.577
0.60151	139.742
0.649915	142.073
0.699881	144.647
0.748279	144.627
0.798252	149.453
0.849782	152.887
0.896626	155.67
0.948155	158.567
0.988783	172.09
0.103373	111.011
0.028074	102.636
0.006244	87.8087
0.0017	80.3969
0.001758	58.1746
0.003759	50.7661
0.045922	110.053
0.099421	114.712
0.150941	120.297
0.198492	123.101
0.250005	125.907
0.297561	130.563
0.349069	131.518
0.40058	133.398
0.454076	137.132
0.505592	140.864
0.549178	142.74
0.600689	144.62
0.652202	147.427
0.69975	149.305
0.749282	152.11
0.798812	153.99
0.844382	156.793
0.893918	161.45
0.949396	165.185
