Adsorption isotherm of Nitrogen on PZ-COF-2
DOI: 10.1039/c8dt05056b
Article source: Figure S32a/3b
Adsorbate Nitrogen: InChIKey IJGRMHOSHXDMSA-UHFFFAOYSA-N
Kind: experiment
Temperature: 77 K
Tabular data in the source: 0
pressure (bar)	uptake (cm3(STP)/g)
7.5e-05	93.5553
0.002428	144.593
0.001614	122.132
0.001083	114.933
0.010376	174.665
0.032328	197.235
0.066551	224.463
0.107188	249.729
0.136746	271.075
0.178208	320.079
0.206075	335.948
0.267086	343.298
0.34254	349.566
0.377857	352.076
0.458118	355.763
0.523928	357.609
0.560848	359.099
0.628268	362.466
0.665186	363.772
0.734214	368.119
0.76311	369.972
0.83695	373.443
0.872265	375.18
0.952541	383.947
0.994282	387.887
0.904153	379.642
0.908211	376.653
0.798372	369.283
0.798381	372.269
0.703464	367.871
0.702102	365.634
0.590916	361.25
0.596334	359.753
0.497357	357.598
0.48922	356.858
0.415997	353.189
0.420069	354.678
0.311588	348.053
0.302093	346.569
0.232931	340.657
0.23292	336.925
0.181386	331.745
0.171823	307.125
0.1623	295.938
0.152788	288.483
0.154135	285.497
0.145981	278.787
0.125592	260.893
0.117442	255.675
0.088927	240.773
0.086196	234.059
0.07669	228.843
0.053603	215.429
0.04273	206.482
0.019643	193.068
0.016901	182.622
0.003291	164.722
0.004614	153.526
0.00086	136.366
0.000479	130.394
0.000941	108.752
0.00096	102.035
0.001	88.6016
0.003733	81.1408
0.002403	72.1839
0.003775	66.9609
0.002438	60.2429
0.003812	54.2736
0.00248	46.063
0.002502	38.5999
0.000164	22.9251
0.000138	13.9693
0.001236	7.99998
0.002253	30.9873
