Adsorption isotherm of Nitrogen on PZ-COF-2
DOI: 10.1039/c8dt05056b
Article source: Figure S32a/3b
Adsorbate Nitrogen: InChIKey IJGRMHOSHXDMSA-UHFFFAOYSA-N
Kind: experiment
Temperature: 77 K
Tabular data in the source: 0
pressure (bar)	uptake (cm3(STP)/g)
7.4e-05	93.5553
0.002397	144.593
0.001592	122.132
0.001068	114.933
0.01024	174.665
0.031906	197.235
0.065681	224.463
0.105786	249.729
0.134958	271.075
0.175878	320.079
0.20338	335.948
0.263594	343.298
0.33806	349.566
0.372916	352.076
0.452127	355.763
0.517077	357.609
0.553514	359.099
0.620052	362.466
0.656488	363.772
0.724613	368.119
0.753131	369.972
0.826005	373.443
0.860859	375.18
0.940084	383.947
0.98128	387.887
0.892329	379.642
0.896335	376.653
0.787932	369.283
0.787941	372.269
0.694265	367.871
0.692921	365.634
0.583188	361.25
0.588536	359.753
0.490853	357.598
0.482822	356.858
0.410557	353.189
0.414576	354.678
0.307513	348.053
0.298143	346.569
0.229885	340.657
0.229875	336.925
0.179014	331.745
0.169577	307.125
0.160178	295.938
0.15079	288.483
0.152119	285.497
0.144072	278.787
0.123949	260.893
0.115906	255.675
0.087764	240.773
0.085069	234.059
0.075687	228.843
0.052902	215.429
0.042172	206.482
0.019386	193.068
0.01668	182.622
0.003248	164.722
0.004553	153.526
0.000848	136.366
0.000472	130.394
0.000928	108.752
0.000948	102.035
0.000987	88.6016
0.003684	81.1408
0.002372	72.1839
0.003725	66.9609
0.002407	60.2429
0.003762	54.2736
0.002447	46.063
0.002469	38.5999
0.000162	22.9251
0.000136	13.9693
0.001219	7.99998
0.002223	30.9873
