Adsorption isotherm of Carbon Dioxide on PZ-COF-2
DOI: 10.1039/c8dt05056b
Article source: Figure S23b
Adsorbate Carbon Dioxide: InChIKey CURLTUGMZLYLDI-UHFFFAOYSA-N
Kind: experiment
Temperature: 273 K
Tabular data in the source: 0
pressure (bar)	uptake (cm3(STP)/g)
0.05	29.0638
0.1	38.9619
0.15	46.1792
0.2	52.778
0.25	57.5208
0.3	61.645
0.35	65.1505
0.4	68.4499
0.45	71.1306
0.5	73.8114
0.55	76.2859
0.6	78.348
0.65	80.4101
0.7	82.266
0.75	83.297
0.8	84.7405
0.85	86.3902
0.9	87.8336
0.95	89.0709
0.343829	62.9868
0.298615	59.1377
0.244358	54.673
0.204798	50.6691
0.398091	66.2183
0.451223	69.2958
0.502094	72.2193
0.551836	74.6805
0.6061	77.2954
0.647931	78.8325
0.704459	80.9847
0.747419	82.83
0.803947	84.828
0.90457	87.9004
0.989363	90.6662
0.999538	90.9734
0.152808	44.6625
0.102929	37.1527
0.091943	35.334
0.078604	32.7661
0.070758	31.0541
0.059777	27.9507
0.051932	26.1317
0.039383	22.3861
0.026833	18.9618
0.020564	15.7509
0.011164	9.86394
0.000978	4.1912
0.000201	2.05022
0.00021	-0.197895
0.006459	8.15159
0.002541	6.22505
