Adsorption isotherm of Carbon Dioxide on Dry Coal
DOI: 10.1016/j.cej.2013.06.036
Article source: Figure S4b
Adsorbate Carbon Dioxide: InChIKey CURLTUGMZLYLDI-UHFFFAOYSA-N
Kind: experiment
Temperature: 338 K
Tabular data in the source: 0
pressure (bar)	uptake (mmol/g)
6.4	0.548
15.2	0.753
31.8	0.92
41	0.949
49.7	0.976
58.8	1.04
67.1	1.06
76	1.07
93.1	1.2
101	1.23
110	1.12
118	1.06
127	0.93
134	0.899
143	0.769
155	0.682
