Adsorption isotherm of Carbon Dioxide, Methane on Dry Coal
DOI: 10.1016/j.cej.2013.06.036
Article source: Table S2
Adsorbate Carbon Dioxide: InChIKey CURLTUGMZLYLDI-UHFFFAOYSA-N
Adsorbate Methane: InChIKey VNWKTOKETHGBQD-UHFFFAOYSA-N
Kind: experiment
Isotherm type: excess
Temperature: 338 K
Tabular data in the source: 0
pressure (bar)	Carbon Dioxide fraction	Carbon Dioxide uptake (mmol/g)	Methane fraction	Methane uptake (mmol/g)	total uptake (mmol/g)
7.212	0.7285	0.4212	0.272	0.0572	0.4784
13.086	0.7471	0.5971	0.253	0.0827	0.6798
23.363	0.7178	0.8402	0.282	0.0272	0.8674
39.996	0.7309	1.0581	0.269	-0.0123	1.0458
48.718	0.7401	1.0404	0.26	-0.0419	0.9984
57.874	0.746	1.1196	0.254	-0.055	1.0646
67.471	0.7554	1.1652	0.245	-0.0458	1.1193
75.924	0.7608	1.1761	0.239	-0.0525	1.1236
84.866	0.7664	1.2125	0.234	-0.0445	1.168
93.581	0.7708	1.2181	0.229	-0.0447	1.1734
102.648	0.777	1.1641	0.223	-0.0298	1.1342
111.214	0.7799	1.1561	0.22	-0.0304	1.1257
119.026	0.7825	1.1748	0.218	-0.019	1.1558
128.044	0.7873	1.138	0.213	0.0192	1.1572
136.586	0.7891	1.0544	0.211	0.005948	1.0604
