Adsorption isotherm of Carbon Dioxide, Methane on Wet coal 3.53% water
DOI: 10.1016/j.cej.2013.06.036
Article source: Table S3
Adsorbate Carbon Dioxide: InChIKey CURLTUGMZLYLDI-UHFFFAOYSA-N
Adsorbate Methane: InChIKey VNWKTOKETHGBQD-UHFFFAOYSA-N
Kind: experiment
Isotherm type: excess
Temperature: 318 K
Tabular data in the source: 0
pressure (bar)	Carbon Dioxide fraction	Carbon Dioxide uptake (mmol/g)	Methane fraction	Methane uptake (mmol/g)	total uptake (mmol/g)
12.907	0.8076	0.1884	0.192	0.002592	0.191
20.712	0.7846	0.435	0.215	-0.0155	0.4196
29.533	0.7906	0.6551	0.209	-0.00351	0.6516
38.944	0.7681	0.9103	0.232	-0.0885	0.8218
48.494	0.7692	1.0063	0.231	-0.1436	0.8627
57.101	0.7772	1.1414	0.223	-0.1459	0.9955
66.458	0.7854	1.2062	0.215	-0.1545	1.0517
76.868	0.7939	1.3366	0.206	-0.1411	1.1955
86.445	0.801	1.3679	0.199	-0.1374	1.2305
95.605	0.8062	1.3438	0.194	-0.1482	1.1956
105.867	0.8144	1.3591	0.186	-0.0983	1.2608
116.089	0.817	1.3477	0.183	-0.1201	1.2276
