Adsorption isotherm of Methane on Dry Coal
DOI: 10.1016/j.cej.2013.06.036
Article source: Figure S4b
Adsorbate Methane: InChIKey VNWKTOKETHGBQD-UHFFFAOYSA-N
Kind: experiment
Temperature: 338 K
Tabular data in the source: 0
pressure (bar)	uptake (mmol/g)
4.8	0.0908
12.7	0.195
20.3	0.262
28.3	0.312
36.2	0.358
44.7	0.375
52.2	0.4
60.4	0.402
69.4	0.404
76.7	0.4
84.5	0.416
92.5	0.416
100	0.416
108	0.412
116	0.41
124	0.431
128	0.427
