Adsorption isotherm of Carbon Dioxide on Dry Coal
DOI: 10.1016/j.cej.2013.06.036
Article source: Figure S4a
Adsorbate Carbon Dioxide: InChIKey CURLTUGMZLYLDI-UHFFFAOYSA-N
Kind: experiment
Temperature: 318 K
Tabular data in the source: 0
pressure (bar)	uptake (mmol/g)
3.89	0.585
15.5	0.941
25.5	1.05
34.9	1.12
45.2	1.16
55.1	1.31
65	1.42
75.9	1.48
85.4	1.43
95.6	1.29
105	0.971
115	0.895
126	0.783
135	0.722
146	0.703
158	0.671
