Adsorption isotherm of Methane on Dry Coal
DOI: 10.1016/j.cej.2013.06.036
Article source: Figure S4a
Adsorbate Methane: InChIKey VNWKTOKETHGBQD-UHFFFAOYSA-N
Kind: experiment
Temperature: 318 K
Tabular data in the source: 0
pressure (bar)	uptake (mmol/g)
5.01	0.183
13.1	0.279
21.1	0.351
28.8	0.387
36.9	0.433
45.1	0.446
52.8	0.461
61.2	0.452
68.7	0.444
76.4	0.442
84.8	0.429
92.8	0.429
101	0.412
109	0.414
116	0.4
120	0.419
126	0.4
