Adsorption isotherm of Carbon Dioxide, Methane on Wet coal 3.53% water
DOI: 10.1016/j.cej.2013.06.036
Article source: Table S4
Adsorbate Carbon Dioxide: InChIKey CURLTUGMZLYLDI-UHFFFAOYSA-N
Adsorbate Methane: InChIKey VNWKTOKETHGBQD-UHFFFAOYSA-N
Kind: experiment
Isotherm type: excess
Temperature: 338 K
Tabular data in the source: 0
pressure (bar)	Carbon Dioxide fraction	Carbon Dioxide uptake (mmol/g)	Methane fraction	Methane uptake (mmol/g)	total uptake (mmol/g)
9.772	0.6545	0.3993	0.346	-0.0353	0.3641
23.451	0.6978	0.6463	0.302	-0.0786	0.5677
32.177	0.7252	0.7341	0.275	-0.0703	0.6638
42.37	0.7379	0.7641	0.262	-0.0992	0.6648
52.588	0.7477	0.9554	0.252	-0.0819	0.8734
60.662	0.757	0.9929	0.243	-0.073	0.9199
69.073	0.7602	1.0859	0.24	-0.081	1.005
78.898	0.7653	1.1737	0.235	-0.0795	1.0943
88.154	0.7699	1.1855	0.23	-0.0874	1.0981
99.362	0.7736	1.1791	0.226	-0.0897	1.0894
108.463	0.7803	1.1136	0.22	-0.0654	1.0483
116.702	0.7814	1.1076	0.219	-0.0869	1.0207
125.741	0.7844	1.1935	0.216	-0.0567	1.1368
134.752	0.7907	1.0846	0.209	-0.003203	1.0814
