Adsorption isotherm of Methane on Wet coal 3.53% water
DOI: 10.1016/j.cej.2013.06.036
Article source: Figure S5a
Adsorbate Methane: InChIKey VNWKTOKETHGBQD-UHFFFAOYSA-N
Kind: experiment
Temperature: 318 K
Tabular data in the source: 0
pressure (bar)	uptake (mmol/g)
22.2	0.127
29.9	0.158
37.2	0.186
45.1	0.203
52.5	0.222
60.1	0.222
68.6	0.228
82.6	0.238
90.9	0.253
98.6	0.264
107	0.264
114	0.289
121	0.285
125	0.291
