Adsorption isotherm of Carbon Dioxide on Wet coal 3.53% water
DOI: 10.1016/j.cej.2013.06.036
Article source: Figure S5a
Adsorbate Carbon Dioxide: InChIKey CURLTUGMZLYLDI-UHFFFAOYSA-N
Kind: experiment
Temperature: 318 K
Tabular data in the source: 0
pressure (bar)	uptake (mmol/g)
6.8	0.354
16.2	0.527
27.4	0.695
36.6	0.836
46.1	0.931
56.1	1.06
67.4	1.13
77.8	1.23
87.4	1.33
96.7	0.663
