Adsorption isotherm of Carbon Dioxide, Methane on Dry Coal
DOI: 10.1016/j.cej.2013.06.036
Article source: Table S1
Adsorbate Carbon Dioxide: InChIKey CURLTUGMZLYLDI-UHFFFAOYSA-N
Adsorbate Methane: InChIKey VNWKTOKETHGBQD-UHFFFAOYSA-N
Kind: experiment
Isotherm type: excess
Temperature: 318 K
Tabular data in the source: 0
pressure (bar)	Carbon Dioxide fraction	Carbon Dioxide uptake (mmol/g)	Methane fraction	Methane uptake (mmol/g)	total uptake (mmol/g)
7.06	0.5911	0.7018	0.409	-0.0361	0.6657
13.807	0.6488	0.9371	0.351	-0.0818	0.8553
22.215	0.695	1.1136	0.305	-0.1141	0.9994
31.857	0.7184	1.2946	0.282	-0.1595	1.1351
41.802	0.7421	1.3886	0.258	-0.1813	1.2072
50.483	0.7577	1.4771	0.242	-0.1882	1.289
59.297	0.7716	1.4684	0.228	-0.198	1.2705
67.019	0.7798	1.4955	0.22	-0.2094	1.2861
74.814	0.7882	1.5677	0.212	-0.197	1.3707
84.401	0.7952	1.5793	0.205	-0.2118	1.3675
92.664	0.8009	1.5644	0.199	-0.221	1.3434
100.71	0.8075	1.5759	0.193	-0.1954	1.3805
108.953	0.8101	1.6156	0.19	-0.2154	1.4002
117.116	0.8177	1.4666	0.182	-0.1597	1.3069
125.038	0.8213	1.4049	0.179	-0.1405	1.2644
129.023	0.8203	1.5167	0.18	-0.1642	1.3525
