Adsorption isotherm of Carbon Dioxide on Wet coal 3.53% water
DOI: 10.1016/j.cej.2013.06.036
Article source: Figure S5b
Adsorbate Carbon Dioxide: InChIKey CURLTUGMZLYLDI-UHFFFAOYSA-N
Kind: experiment
Temperature: 338 K
Tabular data in the source: 0
pressure (bar)	uptake (mmol/g)
8.52	0.366
19	0.49
28.5	0.598
37.9	0.691
46.8	0.765
56.1	0.86
65.1	0.914
74.9	1.11
83.8	1.18
93.8	1.2
103	1.14
113	1.1
123	1.07
133	0.85
143	0.821
154	0.728
