Adsorption isotherm of Methane on Wet coal 3.53% water
DOI: 10.1016/j.cej.2013.06.036
Article source: Figure S5b
Adsorbate Methane: InChIKey VNWKTOKETHGBQD-UHFFFAOYSA-N
Kind: experiment
Temperature: 338 K
Tabular data in the source: 0
pressure (bar)	uptake (mmol/g)
7.85	0.0562
14.6	0.0872
21.5	0.112
29.5	0.135
37.9	0.151
46.5	0.17
54.5	0.182
62.9	0.188
72	0.188
80	0.205
90.3	0.22
97.5	0.234
105	0.226
112	0.228
119	0.24
125	0.251
