Adsorption isotherm of Carbon Dioxide on Carbon SBA-C
DOI: 10.1021/Cm303072n
Adsorbate Carbon Dioxide: InChIKey CURLTUGMZLYLDI-UHFFFAOYSA-N
Temperature: 273 K
Tabular data in the source: 0
pressure (bar)	uptake (mmol/g)
0.0200445	0.235294
0.0378619	0.352941
0.0512249	0.509804
0.0623608	0.509804
0.091314	0.647059
0.10245	0.666667
0.122494	0.745098
0.13363	0.803922
0.142539	0.843137
0.162584	0.882353
0.180401	0.960784
0.18931	0.960784
0.209354	1.01961
0.231626	1.05882
0.25167	1.11765
0.260579	1.15686
0.271715	1.17647
0.293987	1.21569
0.314031	1.2549
0.342984	1.35294
0.356347	1.33333
0.378619	1.37255
0.398664	1.43137
0.420935	1.47059
0.429844	1.5098
0.44098	1.4902
0.463252	1.52941
0.483296	1.56863
0.512249	1.64706
0.521158	1.64706
0.541203	1.66667
0.563474	1.70588
0.583519	1.72549
0.592428	1.76471
0.603563	1.76471
0.625835	1.80392
0.64588	1.82353
0.665924	1.82353
0.674833	1.88235
0.688196	1.88235
0.710468	1.90196
0.730512	1.94118
0.752784	1.98039
0.76392	2
0.770601	2
0.790646	2.01961
0.812918	2.03922
0.832962	2.05882
0.844098	2.11765
0.853007	2.11765
0.875278	2.11765
0.895323	2.13725
0.917595	2.17647
0.939866	2.19608
0.959911	2.21569
0.982183	2.23529
