Adsorption isotherm of Carbon Dioxide on Carbon SBA-NC
DOI: 10.1021/Cm303072n
Adsorbate Carbon Dioxide: InChIKey CURLTUGMZLYLDI-UHFFFAOYSA-N
Temperature: 298 K
Tabular data in the source: 0
pressure (bar)	uptake (mmol/g)
0.039604	0.456825
0.0574257	0.612813
0.0633663	0.64624
0.0772277	0.713092
0.0930693	0.802228
0.10297	0.880223
0.118812	0.913649
0.136634	0.980501
0.154455	1.04735
0.172277	1.10306
0.186139	1.16992
0.20396	1.1922
0.221782	1.24791
0.239604	1.29248
0.257426	1.33705
0.269307	1.37047
0.287129	1.41504
0.306931	1.44847
0.324752	1.49304
0.342574	1.51532
0.352475	1.54875
0.370297	1.58217
0.390099	1.6156
0.407921	1.64903
0.425743	1.66017
0.435644	1.69359
0.455446	1.72702
0.473267	1.76045
0.50099	1.81616
0.516832	1.8273
0.540594	1.87187
0.578218	1.91643
0.607921	1.94986
0.627723	1.97214
0.645545	1.99443
0.665347	2.01671
0.687129	2.05014
0.706931	2.07242
0.724752	2.09471
0.764356	2.13928
0.786139	2.1727
0.807921	2.18384
0.827723	2.19499
0.843564	2.19499
0.857426	2.22841
0.877228	2.2507
0.89505	2.27298
0.914851	2.28412
0.934653	2.30641
0.952475	2.31755
0.970297	2.35097
0.99802	2.37326
