Adsorption isotherm of Carbon Dioxide on Carbon KNC-A-HCI
DOI: 10.1021/Cm303072n
Adsorbate Carbon Dioxide: InChIKey CURLTUGMZLYLDI-UHFFFAOYSA-N
Temperature: 328 K
Tabular data in the source: 0
pressure (bar)	uptake (mmol/g)
0.0178174	0.0980392
0.0334076	0.196078
0.0467706	0.215686
0.0579065	0.294118
0.0668151	0.352941
0.0846325	0.411765
0.100223	0.470588
0.115813	0.529412
0.142539	0.607843
0.182628	0.764706
0.193764	0.784314
0.216036	0.823529
0.23608	0.901961
0.265033	0.980392
0.278396	1
0.298441	1.03922
0.320713	1.09804
0.347439	1.17647
0.360802	1.21569
0.380846	1.23529
0.403118	1.29412
0.423163	1.35294
0.434298	1.37255
0.445434	1.37255
0.467706	1.41176
0.487751	1.45098
0.514477	1.4902
0.525612	1.52941
0.547884	1.56863
0.567929	1.58824
0.5902	1.62745
0.601336	1.64706
0.612472	1.66667
0.634744	1.70588
0.654788	1.7451
0.681514	1.78431
0.69265	1.80392
0.714922	1.82353
0.734967	1.86275
0.766147	1.92157
0.77951	1.92157
0.801782	1.96078
0.821826	2
0.848552	2.01961
0.859688	2.03922
0.88196	2.07843
0.902004	2.09804
0.924276	2.11765
0.946548	2.13725
0.966592	2.17647
0.988864	2.21569
