Adsorption isotherm of Carbon Dioxide on Carbon KNC-A-HCI
DOI: 10.1021/Cm303072n
Adsorbate Carbon Dioxide: InChIKey CURLTUGMZLYLDI-UHFFFAOYSA-N
Temperature: 273 K
Tabular data in the source: 0
pressure (bar)	uptake (mmol/g)
0.00668151	0.333333
0.0155902	0.627451
0.0178174	0.745098
0.0289532	0.862745
0.0378619	1.03922
0.0467706	1.21569
0.0556793	1.4902
0.0623608	1.56863
0.0757238	1.68627
0.0868597	1.84314
0.100223	2.05882
0.106904	2.11765
0.122494	2.2549
0.140312	2.45098
0.146993	2.5098
0.162584	2.62745
0.180401	2.80392
0.187082	2.86275
0.202673	2.94118
0.22049	3.07843
0.238307	3.19608
0.265033	3.41176
0.271715	3.43137
0.289532	3.52941
0.309577	3.64706
0.327394	3.7451
0.345212	3.88235
0.35412	3.90196
0.374165	3.98039
0.394209	4.07843
0.412027	4.17647
0.429844	4.27451
0.436526	4.29412
0.45657	4.35294
0.476615	4.45098
0.496659	4.52941
0.514477	4.62745
0.521158	4.62745
0.541203	4.70588
0.561247	4.78431
0.581292	4.86275
0.594655	4.92157
0.605791	4.94118
0.625835	5.01961
0.648107	5.07843
0.668151	5.15686
0.681514	5.21569
0.69265	5.23529
0.714922	5.29412
0.734967	5.35294
0.766147	5.47059
0.772829	5.4902
0.792873	5.52941
0.815145	5.58824
0.848552	5.66667
0.855234	5.70588
0.877506	5.7451
0.89755	5.80392
0.919822	5.84314
0.939866	5.90196
0.962138	5.94118
0.982183	6
