Adsorption isotherm of Carbon Dioxide on Carbon KNC-A-K
DOI: 10.1021/Cm303072n
Adsorbate Carbon Dioxide: InChIKey CURLTUGMZLYLDI-UHFFFAOYSA-N
Temperature: 328 K
Tabular data in the source: 0
pressure (bar)	uptake (mmol/g)
0.00890869	0.21481
0.0200445	0.273224
0.0400891	0.448728
0.0579065	0.585187
0.0734967	0.623971
0.091314	0.721342
0.106904	0.799214
0.138085	0.915868
0.151448	0.954695
0.171492	1.03248
0.184855	1.05176
0.193764	1.11022
0.216036	1.14887
0.23608	1.20711
0.262806	1.30431
0.276169	1.34314
0.298441	1.38179
0.318486	1.44003
0.347439	1.51764
0.360802	1.53692
0.380846	1.55607
0.400891	1.61431
0.432071	1.67234
0.443207	1.69166
0.465479	1.73032
0.485523	1.76901
0.514477	1.82708
0.52784	1.86591
0.547884	1.88506
0.570156	1.92371
0.596882	1.96228
0.608018	2.02069
0.625835	2.02034
0.648107	2.03945
0.670379	2.0781
0.679287	2.09747
0.694878	2.11671
0.717149	2.13582
0.737194	2.17452
0.768374	2.23254
0.781737	2.23228
0.804009	2.27093
0.824053	2.29008
0.848552	2.30915
0.859688	2.32848
0.88196	2.34758
0.902004	2.38628
0.924276	2.40539
0.946548	2.4245
0.966592	2.46319
0.988864	2.4823
