Adsorption isotherm of Carbon Dioxide on Carbon SBA-C-A-K
DOI: 10.1021/Cm303072n
Adsorbate Carbon Dioxide: InChIKey CURLTUGMZLYLDI-UHFFFAOYSA-N
Temperature: 298 K
Tabular data in the source: 0
pressure (bar)	uptake (mmol/g)
0.00594059	0.155989
0.0118812	0.267409
0.0257426	0.345404
0.0455446	0.490251
0.0554455	0.545961
0.0693069	0.601671
0.0851485	0.668524
0.142574	0.891365
0.160396	0.935933
0.178218	1.01393
0.19604	1.03621
0.211881	1.06964
0.229703	1.12535
0.249505	1.15877
0.273267	1.23677
0.291089	1.25905
0.310891	1.30362
0.328713	1.34819
0.350495	1.41504
0.368317	1.42618
0.388119	1.45961
0.405941	1.49304
0.429703	1.54875
0.435644	1.54875
0.453465	1.58217
0.473267	1.6156
0.491089	1.64903
0.510891	1.69359
0.524752	1.70474
0.552475	1.73816
0.570297	1.77159
0.59604	1.81616
0.625743	1.84958
0.643564	1.88301
0.663366	1.90529
0.683168	1.93872
0.70297	1.97214
0.722772	1.99443
0.740594	2.01671
0.762376	2.06128
0.792079	2.08357
0.809901	2.10585
0.829703	2.13928
0.849505	2.1727
0.881188	2.19499
0.89901	2.21727
0.918812	2.23955
0.936634	2.26184
0.956436	2.28412
0.972277	2.31755
0.992079	2.32869
