Adsorption isotherm of Carbon Dioxide on Carbon SBA-C-A-HCI
DOI: 10.1021/Cm303072n
Adsorbate Carbon Dioxide: InChIKey CURLTUGMZLYLDI-UHFFFAOYSA-N
Temperature: 273 K
Tabular data in the source: 0
pressure (bar)	uptake (mmol/g)
0.0221202	0.27541
0.0376248	0.413115
0.055337	0.590164
0.064204	0.64918
0.0819454	0.747541
0.101887	0.904918
0.121865	0.963934
0.146259	1.10164
0.166237	1.16066
0.179548	1.21967
0.188415	1.27869
0.208393	1.3377
0.217268	1.37705
0.237239	1.45574
0.268313	1.5541
0.274973	1.57377
0.294951	1.63279
0.314922	1.71148
0.337129	1.75082
0.348219	1.80984
0.374856	1.88852
0.394842	1.92787
0.417049	1.96721
0.43925	2.02623
0.45922	2.10492
0.481428	2.14426
0.501413	2.18361
0.523614	2.24262
0.543599	2.28197
0.5658	2.34098
0.596882	2.41967
0.60577	2.41967
0.627978	2.45902
0.647956	2.51803
0.667949	2.5377
0.681268	2.57705
0.690142	2.61639
0.710135	2.63607
0.732342	2.67541
0.752335	2.69508
0.763432	2.73443
0.772306	2.77377
0.792299	2.79344
0.814506	2.83279
0.843366	2.91148
0.854485	2.8918
0.876692	2.93115
0.896678	2.97049
0.918885	3.00984
0.938871	3.04918
0.961086	3.06885
0.983293	3.1082
