Adsorption isotherm of Nitrogen on Carbon SBA-C
DOI: 10.1021/Cm303072n
Adsorbate Nitrogen: InChIKey IJGRMHOSHXDMSA-UHFFFAOYSA-N
Temperature: 298 K
Tabular data in the source: 0
pressure (bar)	uptake (mmol/g)
0.0311804	0.0196078
0.0668151	0.0196078
0.131403	0.0392157
0.171492	0.0588235
0.198218	0.0392157
0.213808	0.0588235
0.23608	0.0784314
0.278396	0.0784314
0.300668	0.0784314
0.32294	0.0784314
0.345212	0.0980392
0.367483	0.0980392
0.389755	0.0980392
0.4098	0.117647
0.432071	0.117647
0.454343	0.117647
0.476615	0.117647
0.498886	0.117647
0.518931	0.137255
0.534521	0.137255
0.561247	0.137255
0.583519	0.156863
0.605791	0.156863
0.628062	0.156863
0.650334	0.176471
0.670379	0.176471
0.690423	0.176471
0.712695	0.176471
0.734967	0.176471
0.757238	0.176471
0.77951	0.196078
0.801782	0.196078
0.824053	0.196078
0.846325	0.196078
0.868597	0.196078
0.890869	0.215686
0.91314	0.215686
0.935412	0.215686
0.957684	0.215686
0.977728	0.235294
