Adsorption isotherm of Nitrogen on Carbon SBA-C-A-K
DOI: 10.1021/Cm303072n
Adsorbate Nitrogen: InChIKey IJGRMHOSHXDMSA-UHFFFAOYSA-N
Temperature: 298 K
Tabular data in the source: 0
pressure (bar)	uptake (mmol/g)
0.0110894	0.0586061
0.0333118	0.0581704
0.0555342	0.0577346
0.0755343	0.0573425
0.0977567	0.0569067
0.11775	0.0761226
0.139972	0.0756868
0.171091	0.0554688
0.19998	0.0549024
0.215528	0.0742053
0.23775	0.0737696
0.279966	0.0925497
0.302188	0.092114
0.32441	0.0916782
0.346626	0.11085
0.368848	0.110415
0.391063	0.129587
0.408841	0.129238
0.431063	0.128803
0.453279	0.147975
0.475501	0.147539
0.497723	0.147103
0.519938	0.166276
0.533272	0.166014
0.542161	0.16584
0.564383	0.165404
0.584376	0.18462
0.606598	0.184184
0.628821	0.183749
0.651043	0.183313
0.673258	0.202485
0.695481	0.202049
0.717703	0.201614
0.739918	0.220786
0.762141	0.22035
0.784363	0.219914
0.806585	0.219479
0.8288	0.238651
0.851023	0.238215
0.873245	0.23778
0.893238	0.256995
0.915461	0.25656
0.937683	0.256124
0.959905	0.255688
0.979898	0.274904
0.999891	0.29412
