Adsorption isotherm of Argon on Carbon KNC-A-HCI
DOI: 10.1021/Cm303072n
Adsorbate Argon: InChIKey XKRFYHLGVUSROY-UHFFFAOYSA-N
Temperature: 87 K
Tabular data in the source: 0
pressure (bar)	uptake (cm3(STP)/g)
0.00225071	0.00225071
0.00450142	221.477
0.00675213	239.597
0.0112536	255.705
0.0270085	275.839
0.0427635	289.933
0.0585185	300
0.0787749	308.054
0.0990313	316.107
0.121538	320.134
0.141795	322.148
0.164302	326.174
0.184558	330.201
0.207065	332.215
0.229573	334.228
0.247578	338.255
0.270085	338.255
0.292592	340.268
0.3151	342.282
0.335356	344.295
0.357863	346.309
0.38037	346.309
0.400627	350.336
0.423134	350.336
0.44339	352.349
0.465897	354.362
0.488404	354.362
0.510911	356.376
0.533419	356.376
0.555926	358.389
0.578433	358.389
0.598689	360.403
0.621196	360.403
0.643703	362.416
0.66621	362.416
0.684216	364.43
0.706723	364.43
0.72923	366.443
0.751737	366.443
0.774245	368.456
0.794501	370.47
0.817008	370.47
0.839515	372.483
0.859772	374.497
0.882279	376.51
0.904786	376.51
0.927293	378.523
0.947549	380.537
0.970056	384.564
