Adsorption isotherm of Nitrogen on Carbon KNC-A-K
DOI: 10.1021/Cm303072n
Adsorbate Nitrogen: InChIKey IJGRMHOSHXDMSA-UHFFFAOYSA-N
Temperature: 298 K
Tabular data in the source: 0
pressure (bar)	uptake (mmol/g)
0.0200445	0.0386962
0.0489978	0.0576743
0.0757238	0.076696
0.111359	0.0759995
0.135857	0.0755207
0.173719	0.0747807
0.200445	0.0938024
0.213808	0.0935412
0.23608	0.0931059
0.258352	0.112215
0.267261	0.112041
0.280624	0.111779
0.300668	0.130932
0.32294	0.130496
0.345212	0.130061
0.367483	0.14917
0.389755	0.148734
0.4098	0.148343
0.432071	0.167451
0.454343	0.167016
0.474388	0.166624
0.496659	0.185733
0.518931	0.185298
0.541203	0.204406
0.563474	0.203971
0.585746	0.203536
0.608018	0.222645
0.63029	0.222209
0.652561	0.241318
0.674833	0.240883
0.697105	0.240447
0.719376	0.240012
0.739421	0.259164
0.761693	0.258729
0.783964	0.258294
0.806236	0.277403
0.828508	0.276967
0.85078	0.276532
0.873051	0.295641
0.895323	0.295205
0.917595	0.314314
0.939866	0.313879
0.962138	0.313444
0.982183	0.332596
1	0.332248
