Adsorption isotherm of Carbon Dioxide on Carbon SBA-C-A-HCI
DOI: 10.1021/Cm303072n
Adsorbate Carbon Dioxide: InChIKey CURLTUGMZLYLDI-UHFFFAOYSA-N
Temperature: 328 K
Tabular data in the source: 0
pressure (bar)	uptake (mmol/g)
0.0333042	0.0786885
0.059949	0.137705
0.0999271	0.196721
0.111031	0.216393
0.131024	0.236066
0.137683	0.255738
0.179883	0.314754
0.193209	0.334426
0.215417	0.37377
0.23541	0.393443
0.275388	0.452459
0.297603	0.472131
0.317588	0.511475
0.359796	0.55082
0.382004	0.590164
0.401996	0.609836
0.430878	0.629508
0.446426	0.64918
0.468641	0.668852
0.488634	0.688525
0.513071	0.708197
0.526397	0.727869
0.548612	0.747541
0.570827	0.767213
0.595264	0.786885
0.60859	0.806557
0.630805	0.82623
0.65302	0.845902
0.679672	0.885246
0.693005	0.885246
0.71522	0.904918
0.737435	0.92459
0.761872	0.944262
0.775199	0.963934
0.797413	0.983607
0.819628	1.00328
0.846288	1.02295
0.857392	1.04262
0.877392	1.04262
0.899607	1.0623
0.921821	1.08197
0.944036	1.10164
0.964029	1.12131
0.986244	1.14098
0.999577	1.14098
