Adsorption isotherm of Carbon Dioxide on Carbon SBA-NC
DOI: 10.1021/Cm303072n
Adsorbate Carbon Dioxide: InChIKey CURLTUGMZLYLDI-UHFFFAOYSA-N
Temperature: 328 K
Tabular data in the source: 0
pressure (bar)	uptake (mmol/g)
0.0111359	0.078213
0.0200445	0.0780383
0.0378619	0.175728
0.0556793	0.234202
0.0757238	0.312241
0.0957684	0.370671
0.106904	0.409669
0.126949	0.448491
0.138085	0.467881
0.151448	0.526442
0.178174	0.584742
0.191537	0.58448
0.213808	0.623259
0.233853	0.662081
0.276169	0.739683
0.298441	0.758854
0.318486	0.797677
0.349666	0.836281
0.360802	0.855671
0.383073	0.89445
0.403118	0.913664
0.429844	0.952356
0.44098	0.971745
0.463252	0.990917
0.485523	1.01009
0.512249	1.04878
0.525612	1.06813
0.547884	1.0873
0.570156	1.10647
0.596882	1.14516
0.608018	1.14494
0.63029	1.16411
0.652561	1.18328
0.681514	1.22193
0.69265	1.22171
0.714922	1.24088
0.737194	1.26006
0.76392	1.27914
0.775056	1.29853
0.797327	1.3177
0.819599	1.33687
0.846325	1.33635
0.861915	1.37526
0.884187	1.37482
0.906459	1.39399
0.928731	1.41316
0.948775	1.43238
0.971047	1.45155
0.993318	1.45111
