Adsorption isotherm of Argon on Carbon SBA-C-A-K
DOI: 10.1021/Cm303072n
Adsorbate Argon: InChIKey XKRFYHLGVUSROY-UHFFFAOYSA-N
Temperature: 87 K
Tabular data in the source: 0
pressure (bar)	uptake (cm3(STP)/g)
0.00284055	171.135
0.00513969	195.291
0.00959706	205.349
0.0162571	213.389
0.0317726	225.438
0.0473029	241.514
0.0561658	247.536
0.073884	257.567
0.102668	271.601
0.122589	279.614
0.153583	293.645
0.173503	301.657
0.20449	313.674
0.222193	319.678
0.25539	331.691
0.275311	339.704
0.301862	347.703
0.326203	355.707
0.350552	365.724
0.372683	373.732
0.397032	383.749
0.419163	391.757
0.443504	399.761
0.467845	407.765
0.492187	415.769
0.516528	423.772
0.543064	427.745
0.567391	431.722
0.591724	437.712
0.616043	439.676
0.642565	439.621
0.662464	441.594
0.713319	447.53
0.737638	449.493
0.764167	451.452
0.786276	453.42
0.810595	455.384
0.837124	457.343
0.863653	459.302
0.88798	463.279
0.910096	467.26
0.936633	471.233
0.958771	481.254
0.965483	503.388
0.97663	529.54
