Adsorption isotherm of Carbon Dioxide on Carbon KNC-A-K
DOI: 10.1021/Cm303072n
Adsorbate Carbon Dioxide: InChIKey CURLTUGMZLYLDI-UHFFFAOYSA-N
Temperature: 273 K
Tabular data in the source: 0
pressure (bar)	uptake (mmol/g)
0.00668151	0.625277
0.00890869	0.781585
0.013363	0.918306
0.0178174	1.15275
0.0289532	1.26979
0.0423163	1.60178
0.0534521	1.75791
0.064588	1.93359
0.0801782	2.07009
0.0935412	2.22618
0.104677	2.36278
0.120267	2.46019
0.140312	2.67478
0.14922	2.7137
0.164811	2.79157
0.184855	2.94753
0.191537	2.96694
0.209354	3.04477
0.227171	3.14214
0.247216	3.23947
0.265033	3.33684
0.273942	3.37575
0.293987	3.45354
0.305122	3.49241
0.325167	3.55065
0.345212	3.60889
0.351893	3.66739
0.363029	3.70626
0.383073	3.7645
0.405345	3.8227
0.434298	3.93939
0.443207	3.97831
0.463252	4.017
0.485523	4.05566
0.505568	4.1139
0.518931	4.19181
0.52784	4.19164
0.550111	4.23029
0.570156	4.28853
0.5902	4.34677
0.605791	4.36601
0.612472	4.38542
0.634744	4.42408
0.654788	4.48232
0.681514	4.52088
0.69265	4.55975
0.712695	4.5789
0.734967	4.61756
0.755011	4.65625
0.76392	4.69517
0.775056	4.71449
0.797327	4.7336
0.817372	4.7723
0.839644	4.79141
0.85078	4.81073
0.859688	4.8301
0.88196	4.86876
0.902004	4.88791
0.924276	4.90702
0.946548	4.94567
0.966592	4.98437
0.988864	5.00347
