Adsorption isotherm of Argon on Carbon SBA-C
DOI: 10.1021/Cm303072n
Adsorbate Argon: InChIKey XKRFYHLGVUSROY-UHFFFAOYSA-N
Temperature: 87 K
Tabular data in the source: 0
pressure (bar)	uptake (cm3(STP)/g)
0.00261064	108.719
0.00267739	126.84
0.0027293	140.934
0.00939681	150.987
0.0249197	165.05
0.0293697	173.094
0.0448926	187.156
0.0559581	191.16
0.0736763	201.191
0.0935972	209.204
0.113518	217.217
0.133424	221.203
0.153345	229.216
0.173266	237.228
0.19318	243.228
0.210883	249.232
0.233007	255.227
0.25071	261.231
0.270624	267.23
0.290545	275.243
0.308255	283.26
0.328169	289.26
0.345887	299.29
0.363605	309.321
0.383526	317.334
0.399027	325.356
0.41455	339.418
0.432268	349.449
0.447776	359.484
0.463299	373.546
0.478807	383.581
0.49433	397.643
0.512048	407.674
0.62053	457.787
0.640451	465.8
0.660372	473.813
0.680286	479.812
0.700199	485.812
0.720113	491.811
0.742229	495.793
0.759947	505.823
0.779853	509.809
0.799767	515.809
0.819688	523.822
0.841812	529.816
0.859522	537.834
0.879428	541.82
0.897139	549.837
0.91706	557.85
0.936974	563.849
0.952489	575.898
0.963592	589.969
0.972499	608.072
0.979152	614.098
