Adsorption isotherm of Carbon Dioxide on Carbon KNC-A-HCI
DOI: 10.1021/Cm303072n
Adsorbate Carbon Dioxide: InChIKey CURLTUGMZLYLDI-UHFFFAOYSA-N
Temperature: 298 K
Tabular data in the source: 0
pressure (bar)	uptake (mmol/g)
0.0277228	0.412256
0.0554455	0.668524
0.0633663	0.735376
0.0732673	0.824513
0.0851485	0.913649
0.0930693	1.00279
0.106931	1.06964
0.118812	1.14763
0.130693	1.23677
0.144554	1.31476
0.156436	1.39276
0.170297	1.47075
0.184158	1.5376
0.19604	1.6156
0.211881	1.69359
0.225743	1.76045
0.241584	1.8273
0.255446	1.90529
0.269307	1.961
0.283168	2.02786
0.29901	2.09471
0.314851	2.16156
0.330693	2.22841
0.344554	2.29526
0.360396	2.33983
0.378218	2.39554
0.394059	2.4624
0.409901	2.51811
0.425743	2.58496
0.441584	2.62953
0.459406	2.67409
0.475248	2.72981
0.493069	2.78552
0.508911	2.85237
0.526733	2.88579
0.544554	2.9415
0.562376	2.98607
0.580198	3.04178
0.59604	3.09749
0.613861	3.13092
0.631683	3.17549
0.649505	3.2312
0.667327	3.27577
0.683168	3.32033
0.70099	3.35376
0.718812	3.39833
0.736634	3.4429
0.754455	3.49861
0.772277	3.53203
0.792079	3.5766
0.809901	3.61003
0.827723	3.66574
0.845545	3.69916
0.863366	3.73259
0.881188	3.76602
0.89901	3.81058
0.916832	3.84401
0.936634	3.87744
0.954455	3.91086
0.972277	3.95543
0.99802	4
