Adsorption isotherm of Argon on Carbon KNC-A-K
DOI: 10.1021/Cm303072n
Adsorbate Argon: InChIKey XKRFYHLGVUSROY-UHFFFAOYSA-N
Temperature: 87 K
Tabular data in the source: 0
pressure (bar)	uptake (cm3(STP)/g)
0.00225071	0.00225071
0.00675213	132.886
0.0202564	151.007
0.0270085	155.034
0.0495156	159.06
0.0607692	163.087
0.0720228	165.101
0.0945299	167.114
0.117037	169.128
0.12604	169.128
0.148547	171.141
0.171054	173.154
0.193561	173.154
0.204815	175.168
0.216068	175.168
0.238575	177.181
0.261082	177.181
0.28359	179.195
0.294843	179.195
0.306097	181.208
0.328604	183.221
0.351111	183.221
0.384872	185.235
0.418632	187.248
0.441139	189.262
0.463646	189.262
0.4749	189.262
0.483903	191.275
0.50641	191.275
0.528917	193.289
0.551424	195.302
0.564928	195.302
0.573931	197.315
0.596438	199.329
0.618946	199.329
0.641453	201.342
0.652706	201.342
0.66396	203.356
0.686467	203.356
0.708974	205.369
0.731481	205.369
0.753988	207.383
0.765242	209.396
0.771994	209.396
0.794501	211.409
0.817008	213.423
0.837264	215.436
0.862022	217.45
0.884529	219.463
0.904786	223.49
0.922792	225.503
0.929544	225.503
0.952051	231.544
0.967806	237.584
0.976809	237.584
