Adsorption isotherm of Argon on Carbon SBA-NC
DOI: 10.1021/Cm303072n
Adsorbate Argon: InChIKey XKRFYHLGVUSROY-UHFFFAOYSA-N
Temperature: 87 K
Tabular data in the source: 0
pressure (bar)	uptake (cm3(STP)/g)
0.00267739	126.84
0.0116218	155.01
0.0492832	179.094
0.0979582	193.088
0.148836	205.064
0.17538	211.05
0.197496	215.031
0.22846	221.008
0.250577	224.989
0.27491	230.98
0.301447	234.952
0.325781	240.942
0.352325	246.928
0.370028	252.932
0.392152	258.927
0.414283	266.935
0.440842	276.948
0.46298	286.97
0.491756	298.991
0.516098	306.995
0.540446	317.012
0.567005	327.025
0.591354	337.042
0.617898	343.028
0.637818	351.04
0.664362	357.026
0.686486	363.021
0.713023	366.993
0.737356	372.984
0.761683	376.961
0.786009	380.938
0.810336	384.915
0.836872	388.887
0.861191	390.85
0.885517	394.827
0.909844	398.804
0.929757	404.804
0.954099	412.808
0.976267	430.883
