Adsorption isotherm of Carbon Dioxide on Carbon KNC-A-K
DOI: 10.1021/Cm303072n
Adsorbate Carbon Dioxide: InChIKey CURLTUGMZLYLDI-UHFFFAOYSA-N
Temperature: 298 K
Tabular data in the source: 0
pressure (bar)	uptake (mmol/g)
0.0019802	0.311978
0.0039604	0.445682
0.00990099	0.557103
0.0138614	0.657382
0.0158416	0.70195
0.0237624	0.802228
0.029703	0.913649
0.0336634	0.991643
0.0376238	1.03621
0.0475248	1.13649
0.0574257	1.24791
0.0633663	1.31476
0.0752475	1.39276
0.0871287	1.49304
0.0970297	1.58217
0.0990099	1.6156
0.10495	1.64903
0.118812	1.72702
0.132673	1.81616
0.140594	1.88301
0.146535	1.91643
0.160396	1.98329
0.176238	2.06128
0.190099	2.13928
0.205941	2.20613
0.221782	2.27298
0.237624	2.33983
0.253465	2.39554
0.261386	2.44011
0.271287	2.47354
0.287129	2.52925
0.30495	2.58496
0.320792	2.65181
0.338614	2.70752
0.346535	2.72981
0.354455	2.75209
0.372277	2.8078
0.388119	2.85237
0.405941	2.90808
0.423762	2.95265
0.433663	2.98607
0.441584	3.00836
0.459406	3.05292
0.477228	3.09749
0.49703	3.14206
0.510891	3.18663
0.520792	3.19777
0.538614	3.24234
0.556436	3.28691
0.576238	3.32033
0.594059	3.3649
0.6	3.38719
0.607921	3.40947
0.625743	3.43175
0.643564	3.46518
0.663366	3.49861
0.681188	3.54318
0.689109	3.55432
0.706931	3.58774
0.726733	3.62117
0.744554	3.6546
0.766337	3.69916
0.774257	3.71031
0.794059	3.73259
0.811881	3.76602
0.831683	3.79944
0.849505	3.83287
0.857426	3.84401
0.877228	3.8663
0.89505	3.88858
0.914851	3.91086
0.932673	3.94429
0.952475	3.96657
0.970297	4
1	4.04457
