Adsorption isotherm of Carbon Dioxide on Carbon SBA-NC
DOI: 10.1021/Cm303072n
Adsorbate Carbon Dioxide: InChIKey CURLTUGMZLYLDI-UHFFFAOYSA-N
Temperature: 273 K
Tabular data in the source: 0
pressure (bar)	uptake (mmol/g)
0.0111359	0.489978
0.0178174	0.568278
0.0311804	0.724879
0.0423163	0.881523
0.0556793	1.07734
0.064588	1.11638
0.0801782	1.23372
0.0979955	1.37063
0.104677	1.40971
0.124722	1.48775
0.140312	1.60509
0.178174	1.7416
0.187082	1.76104
0.207127	1.83908
0.227171	1.91711
0.249443	1.9755
0.265033	2.01441
0.271715	2.0535
0.291759	2.11193
0.314031	2.15071
0.331849	2.18957
0.345212	2.24813
0.35412	2.26757
0.374165	2.30639
0.396437	2.34517
0.416481	2.38399
0.427617	2.42299
0.438753	2.42277
0.461024	2.46155
0.481069	2.50037
0.501114	2.53919
0.514477	2.57815
0.521158	2.57802
0.54343	2.6168
0.563474	2.63601
0.583519	2.67483
0.592428	2.71387
0.605791	2.694
0.628062	2.73278
0.648107	2.77161
0.679287	2.81021
0.688196	2.82964
0.710468	2.84881
0.730512	2.86803
0.752784	2.8872
0.766147	2.90655
0.775056	2.92598
0.797327	2.96476
0.817372	2.98397
0.844098	3.04227
0.857461	3.0224
0.879733	3.06118
0.899777	3.0804
0.922049	3.09957
0.944321	3.11874
0.966592	3.13791
0.986637	3.15712
