Adsorption isotherm of Carbon Dioxide on Carbon SBA-C-A-K
DOI: 10.1021/Cm303072n
Adsorbate Carbon Dioxide: InChIKey CURLTUGMZLYLDI-UHFFFAOYSA-N
Temperature: 328 K
Tabular data in the source: 0
pressure (bar)	uptake (mmol/g)
0.0244083	0.0975606
0.0377272	0.136515
0.0577056	0.194947
0.0688095	0.214337
0.0910174	0.253117
0.102114	0.292115
0.119877	0.330983
0.13987	0.350199
0.182057	0.447411
0.19316	0.466801
0.213153	0.486017
0.235368	0.505189
0.255354	0.544013
0.270902	0.563316
0.284229	0.582662
0.306437	0.621442
0.326429	0.640658
0.34863	0.699046
0.361963	0.698785
0.384179	0.717957
0.406394	0.73713
0.428602	0.77591
0.441928	0.795256
0.464143	0.814429
0.486358	0.833601
0.51301	0.872294
0.526344	0.872032
0.548559	0.891205
0.568544	0.930029
0.595197	0.968722
0.608523	0.988068
0.628523	0.987676
0.648516	1.00689
0.679613	1.0455
0.690724	1.04528
0.712939	1.06445
0.735154	1.08362
0.755147	1.10284
0.766244	1.14184
0.779584	1.12197
0.8018	1.14114
0.824015	1.16031
0.848452	1.17944
0.861778	1.19879
0.883993	1.21796
0.906208	1.23713
0.926201	1.25635
0.948424	1.25591
0.970639	1.27509
0.992854	1.29426
