Adsorption isotherm of Carbon Dioxide on Carbon SBA-C
DOI: 10.1021/Cm303072n
Adsorbate Carbon Dioxide: InChIKey CURLTUGMZLYLDI-UHFFFAOYSA-N
Temperature: 328 K
Tabular data in the source: 0
pressure (bar)	uptake (mmol/g)
0.0400891	0.0980392
0.0601336	0.137255
0.077951	0.156863
0.0957684	0.176471
0.115813	0.196078
0.135857	0.235294
0.14922	0.235294
0.169265	0.27451
0.191537	0.294118
0.213808	0.313725
0.233853	0.333333
0.262806	0.392157
0.273942	0.392157
0.293987	0.392157
0.316258	0.431373
0.345212	0.470588
0.358575	0.470588
0.380846	0.490196
0.403118	0.509804
0.427617	0.529412
0.44098	0.54902
0.461024	0.54902
0.483296	0.568627
0.512249	0.588235
0.523385	0.607843
0.545657	0.627451
0.567929	0.627451
0.596882	0.666667
0.610245	0.666667
0.632517	0.686275
0.654788	0.705882
0.67706	0.72549
0.690423	0.72549
0.712695	0.745098
0.734967	0.745098
0.759465	0.784314
0.772829	0.784314
0.7951	0.803922
0.817372	0.803922
0.848552	0.823529
0.857461	0.843137
0.879733	0.843137
0.902004	0.862745
0.924276	0.882353
0.944321	0.882353
0.966592	0.901961
0.988864	0.921569
