Adsorption isotherm of Argon on Carbon SBA-C-A-HCI
DOI: 10.1021/Cm303072n
Adsorbate Argon: InChIKey XKRFYHLGVUSROY-UHFFFAOYSA-N
Temperature: 87 K
Tabular data in the source: 0
pressure (bar)	uptake (cm3(STP)/g)
0.000741658	201.341
0.00963414	215.416
0.0163016	225.47
0.0318245	239.532
0.042942	257.63
0.0584501	267.665
0.0783784	277.692
0.0960966	287.722
0.1138	293.726
0.133728	303.752
0.153649	311.765
0.17136	319.783
0.191274	325.782
0.208977	331.786
0.228898	339.799
0.246616	349.83
0.268732	353.811
0.288653	361.824
0.308574	369.837
0.326285	377.854
0.346199	383.853
0.363902	389.857
0.381613	397.875
0.401519	401.861
0.421447	411.887
0.439143	415.878
0.459049	419.864
0.476753	425.867
0.496666	431.867
0.516572	435.853
0.538674	435.808
0.565218	441.793
0.611645	445.725
0.638174	447.684
0.662486	447.634
0.686798	447.584
0.737653	453.52
0.759769	457.502
0.786298	459.461
0.837147	463.383
0.872531	469.351
0.89243	471.323
0.912351	479.336
0.932272	487.349
0.94778	497.384
0.961107	515.478
0.976667	539.607
