Adsorption isotherm of Carbon Dioxide on Carbon SBA-C-A-K
DOI: 10.1021/Cm303072n
Adsorbate Carbon Dioxide: InChIKey CURLTUGMZLYLDI-UHFFFAOYSA-N
Temperature: 273 K
Tabular data in the source: 0
pressure (bar)	uptake (mmol/g)
0.0198622	0.37216
0.026478	0.509285
0.0441906	0.685408
0.0574877	0.783187
0.0641326	0.84188
0.0818742	0.939571
0.0996013	1.07648
0.124002	1.19365
0.143966	1.29129
0.152841	1.33034
0.172812	1.40838
0.192783	1.48642
0.212754	1.56446
0.234947	1.64245
0.254933	1.68128
0.263793	1.75953
0.272674	1.77897
0.290438	1.81783
0.312638	1.87622
0.348143	2.01278
0.357032	2.01261
0.377011	2.07104
0.399211	2.12943
0.41919	2.18786
0.434716	2.26599
0.443613	2.2462
0.463591	2.30464
0.485799	2.34342
0.516881	2.42124
0.52577	2.42106
0.547971	2.47945
0.567949	2.53788
0.594594	2.59618
0.605705	2.59597
0.625684	2.6544
0.647891	2.69318
0.678981	2.75139
0.687863	2.77083
0.710071	2.80961
0.730056	2.84843
0.752271	2.8676
0.761146	2.90664
0.772257	2.90643
0.792235	2.96486
0.81445	2.98403
0.84997	3.08137
0.878852	3.10041
0.90106	3.13919
0.921045	3.17802
0.94326	3.19719
0.963246	3.23601
0.985454	3.2748
