Adsorption isotherm of Nitrogen on Carbon KNC-A-HCI
DOI: 10.1021/Cm303072n
Adsorbate Nitrogen: InChIKey IJGRMHOSHXDMSA-UHFFFAOYSA-N
Temperature: 298 K
Tabular data in the source: 0
pressure (bar)	uptake (mmol/g)
0.00890869	0.0392157
0.0289532	0.0588235
0.0512249	0.0196078
0.0712695	0.0588235
0.0935412	0.0588235
0.113586	0.0588235
0.135857	0.0784314
0.169265	0.0784314
0.202673	0.0980392
0.213808	0.0784314
0.23608	0.0980392
0.258352	0.0980392
0.278396	0.0980392
0.300668	0.117647
0.32294	0.117647
0.345212	0.137255
0.367483	0.137255
0.387528	0.156863
0.4098	0.156863
0.432071	0.156863
0.454343	0.176471
0.476615	0.176471
0.498886	0.176471
0.521158	0.196078
0.538976	0.196078
0.55902	0.215686
0.581292	0.215686
0.603563	0.235294
0.625835	0.235294
0.64588	0.254902
0.668151	0.254902
0.690423	0.254902
0.712695	0.254902
0.734967	0.27451
0.757238	0.27451
0.77951	0.294118
0.801782	0.294118
0.824053	0.294118
0.846325	0.313725
0.868597	0.313725
0.888641	0.333333
0.910913	0.333333
0.933185	0.333333
0.955457	0.352941
0.977728	0.352941
1	0.352941
