Adsorption isotherm of Carbon Dioxide on Carbon SBA-C
DOI: 10.1021/Cm303072n
Adsorbate Carbon Dioxide: InChIKey CURLTUGMZLYLDI-UHFFFAOYSA-N
Temperature: 298 K
Tabular data in the source: 0
pressure (bar)	uptake (mmol/g)
0.00594059	0.0557103
0.0158416	0.0779944
0.0356436	0.155989
0.0554455	0.245125
0.0653465	0.267409
0.0831683	0.32312
0.10495	0.401114
0.122772	0.423398
0.138614	0.467967
0.156436	0.490251
0.174257	0.545961
0.192079	0.568245
0.209901	0.601671
0.229703	0.635097
0.247525	0.668524
0.267327	0.70195
0.285149	0.735376
0.30495	0.75766
0.322772	0.791086
0.342574	0.824513
0.360396	0.846797
0.380198	0.869081
0.39802	0.891365
0.417822	0.924791
0.437624	0.935933
0.455446	0.969359
0.475248	0.980501
0.493069	1.01393
0.510891	1.04735
0.530693	1.0585
0.548515	1.08078
0.568317	1.10306
0.586139	1.12535
0.605941	1.13649
0.625743	1.15877
0.643564	1.18106
0.663366	1.20334
0.681188	1.22563
0.70099	1.23677
0.720792	1.25905
0.738614	1.27019
0.758416	1.29248
0.776238	1.31476
0.79604	1.33705
0.815842	1.34819
0.833663	1.37047
0.853465	1.38162
0.873267	1.4039
0.891089	1.41504
0.910891	1.43733
0.930693	1.44847
0.948515	1.45961
0.968317	1.48189
0.986139	1.50418
0.99604	1.51532
