Adsorption isotherm of Carbon Dioxide on Carbon SBA-C-A-HCI
DOI: 10.1021/Cm303072n
Adsorbate Carbon Dioxide: InChIKey CURLTUGMZLYLDI-UHFFFAOYSA-N
Temperature: 298 K
Tabular data in the source: 0
pressure (bar)	uptake (mmol/g)
0.00594059	0.0557103
0.0138614	0.100279
0.0574257	0.289694
0.0970297	0.445682
0.10495	0.456825
0.122772	0.501393
0.138614	0.568245
0.146535	0.579387
0.164356	0.623955
0.182178	0.679666
0.19802	0.713092
0.215842	0.75766
0.233663	0.791086
0.251485	0.846797
0.269307	0.869081
0.287129	0.913649
0.306931	0.947075
0.324752	0.991643
0.342574	1.02507
0.354455	1.04735
0.372277	1.08078
0.392079	1.11421
0.409901	1.14763
0.427723	1.20334
0.443564	1.21448
0.461386	1.24791
0.481188	1.27019
0.49901	1.30362
0.518812	1.32591
0.534653	1.35933
0.554455	1.39276
0.572277	1.41504
0.592079	1.44847
0.607921	1.47075
0.627723	1.50418
0.645545	1.52646
0.665347	1.54875
0.683168	1.58217
0.69901	1.60446
0.716832	1.62674
0.736634	1.64903
0.754455	1.68245
0.772277	1.69359
0.790099	1.71588
0.807921	1.73816
0.827723	1.77159
0.845545	1.79387
0.863366	1.81616
0.881188	1.83844
0.90099	1.86072
0.920792	1.88301
0.938614	1.89415
0.958416	1.91643
0.976238	1.93872
0.99604	1.961
