Adsorption isotherm of Nitrogen on Carbon SBA-C-A-HCI
DOI: 10.1021/Cm303072n
Adsorbate Nitrogen: InChIKey IJGRMHOSHXDMSA-UHFFFAOYSA-N
Temperature: 298 K
Tabular data in the source: 0
pressure (bar)	uptake (mmol/g)
0.0355483	0.0196721
0.0710965	0.0393443
0.135534	0.0590164
0.168867	0.0590164
0.215526	0.0786885
0.237749	0.0786885
0.279964	0.0983607
0.302186	0.0983607
0.324408	0.0983607
0.34663	0.0983607
0.366623	0.118033
0.388845	0.118033
0.402179	0.118033
0.411067	0.118033
0.43329	0.118033
0.455505	0.137705
0.477727	0.137705
0.499942	0.157377
0.522164	0.157377
0.535497	0.157377
0.544386	0.157377
0.564379	0.177049
0.586601	0.177049
0.608823	0.177049
0.631046	0.177049
0.65326	0.196721
0.67549	0.177049
0.695483	0.196721
0.717705	0.196721
0.739927	0.196721
0.762142	0.216393
0.784364	0.216393
0.806587	0.216393
0.828801	0.236066
0.851024	0.236066
0.873246	0.236066
0.895468	0.236066
0.917683	0.255738
0.939905	0.255738
0.962128	0.255738
0.98212	0.27541
