Adsorption isotherm of Nitrogen on Carbon SBA-NC
DOI: 10.1021/Cm303072n
Adsorbate Nitrogen: InChIKey IJGRMHOSHXDMSA-UHFFFAOYSA-N
Temperature: 298 K
Tabular data in the source: 0
pressure (bar)	uptake (mmol/g)
0.0334076	0.0189528
0.064588	0.0183414
0.13363	0.0365955
0.200445	0.0548932
0.216036	0.0545875
0.238307	0.0541508
0.267261	0.0535831
0.280624	0.0729289
0.302895	0.0724922
0.325167	0.0720555
0.347439	0.0912267
0.36971	0.09079
0.391982	0.109961
0.398664	0.10983
0.4098	0.109612
0.432071	0.109175
0.454343	0.108738
0.476615	0.12791
0.498886	0.127473
0.521158	0.127036
0.532294	0.126818
0.54343	0.126599
0.563474	0.145814
0.585746	0.145378
0.608018	0.144941
0.63029	0.144504
0.652561	0.163675
0.663697	0.183065
0.672606	0.163282
0.694878	0.162846
0.717149	0.162409
0.739421	0.18158
0.761693	0.181143
0.783964	0.180707
0.806236	0.18027
0.828508	0.199441
0.85078	0.199004
0.873051	0.198568
0.895323	0.198131
0.917595	0.197694
0.937639	0.216909
0.959911	0.216472
0.982183	0.216036
0.997773	0.235338
