Adsorption isotherm of Nitrogen on ZTOF-1
DOI: 10.1021/Ic400607w
Adsorbate Nitrogen: InChIKey IJGRMHOSHXDMSA-UHFFFAOYSA-N
Temperature: 77 K
Tabular data in the source: 0
pressure (bar)	uptake (cm3(STP)/g)
0.00794447	96.277
0.00985133	157.9
0.00985133	207.955
0.0180263	243.08
0.045199	256.095
0.0738019	260.599
0.108125	263.603
0.145309	266.606
0.186783	269.109
0.315496	274.114
0.419897	276.617
0.517146	278.619
0.612966	280.121
0.713076	281.623
0.814616	284.626
0.916156	287.629
0.960491	289.131
0.996244	292.635
