Adsorption isotherm of Carbon Dioxide on ZTOF-1
DOI: 10.1021/Ic400607w
Adsorbate Carbon Dioxide: InChIKey CURLTUGMZLYLDI-UHFFFAOYSA-N
Temperature: 195 K
Tabular data in the source: 0
pressure (bar)	uptake (cm3(STP)/g)
0.00968898	17.5806
0.0135027	38.9374
0.0192233	62.6301
0.0239904	102.34
0.0316178	151.728
0.0392453	168.079
0.0573604	185.432
0.0954976	197.779
0.144122	206.789
0.206095	212.461
0.289997	218.134
0.396781	222.472
0.460661	225.476
0.538842	227.478
0.637998	229.814
0.720947	231.482
0.805802	233.818
0.864914	234.819
0.928794	235.82
0.987907	236.154
