Adsorption isotherm of Carbon Dioxide on ZTOF-1
DOI: 10.1021/Ic400607w
Adsorbate Carbon Dioxide: InChIKey CURLTUGMZLYLDI-UHFFFAOYSA-N
Temperature: 273 K
Tabular data in the source: 0
pressure (bar)	uptake (cm3(STP)/g)
0.00873556	0.228218
0.0287576	1.89672
0.0583138	4.56632
0.0954976	7.23592
0.140309	10.2392
0.234698	18.248
0.353877	28.259
0.447313	35.9341
0.562678	45.2777
0.668508	53.2865
0.736202	58.292
0.814383	64.2986
0.892564	69.9715
0.979326	75.9781
