Adsorption isotherm of Argon on ZTOF-1
DOI: 10.1021/Ic400607w
Adsorbate Argon: InChIKey XKRFYHLGVUSROY-UHFFFAOYSA-N
Temperature: 77 K
Tabular data in the source: 0
pressure (bar)	uptake (cm3(STP)/g)
0.00658518	247.585
0.0108756	268.108
0.0223168	284.125
0.0537799	297.14
0.0780923	301.645
0.191074	312.657
0.288323	316.661
0.388433	320.665
0.494264	324.169
0.595804	326.672
0.693054	329.675
0.794594	332.178
0.844649	333.68
0.896134	335.181
0.994814	337.184
