Adsorption isotherm of Nitrogen on ZTOF-1
DOI: 10.1021/Ic400607w
Adsorbate Nitrogen: InChIKey IJGRMHOSHXDMSA-UHFFFAOYSA-N
Temperature: 77 K
Tabular data in the source: 0
pressure (bar)	uptake (cm3(STP)/g)
0.00515504	2.8162
0.00515504	111.936
0.00658518	212.046
0.00944547	242.079
0.0208866	254.092
0.0437689	260.599
0.075232	266.106
0.105265	268.608
0.176772	273.113
0.25829	277.118
0.3584	280.121
0.507135	282.624
0.605815	284.125
0.704495	286.128
0.803175	288.13
0.903285	291.133
0.947619	293.135
0.987663	296.639
