Adsorption isotherm of Hydrogen on ZTOF-1
DOI: 10.1021/Ic400607w
Adsorbate Hydrogen: InChIKey UFHFLCQGNIYNRP-UHFFFAOYSA-N
Temperature: 77 K
Tabular data in the source: 0
pressure (bar)	uptake (cm3(STP)/g)
0.0154096	5.23372
0.0354316	17.9143
0.0716618	32.2634
0.119333	46.6125
0.18798	62.2964
0.227071	69.9715
0.281416	78.9814
0.352923	89.9935
0.411082	98.336
0.473055	105.677
0.52454	110.683
0.596048	118.358
0.677089	125.366
0.75813	132.04
0.824871	136.378
0.913539	141.717
0.980279	145.721
