Adsorption isotherm of Carbon Dioxide on Brzeszcze 364 LW
DOI: 10.1016/j.coal.2010.08.013
Article source: Figure 3(a)- RWTH_Experiment2
Adsorbate Carbon Dioxide: InChIKey CURLTUGMZLYLDI-UHFFFAOYSA-N
Kind: experiment
Isotherm type: excess
Temperature: 318 K
Tabular data in the source: 0
pressure (bar)	uptake (mmol/g)
7.078	0.72775
45.173	1.28951
78.939	1.35943
86.814	1.32606
91.458	1.27278
94.634	1.22039
97.272	1.16256
99.225	1.12372
101.473	1.08759
103.769	1.04241
106.361	1.02527
109.05	0.99456
112.228	0.9729
115.309	0.95485
118.439	0.93861
121.521	0.92418
124.7	0.91608
127.635	0.90526
130.815	0.89625
133.554	0.88543
136.343	0.88455
138.789	0.88096
140.99	0.87466
