Adsorption isotherm of Carbon Dioxide on Selar Cornish semi-anthracite
DOI: 10.1016/j.coal.2010.08.013
Article source: Figure 5(a)- RWTH_Experiment1
Adsorbate Carbon Dioxide: InChIKey CURLTUGMZLYLDI-UHFFFAOYSA-N
Kind: experiment
Isotherm type: excess
Temperature: 318 K
Tabular data in the source: 0
pressure (bar)	uptake (mmol/g)
5.275	0.71043
18.208	1.06532
31.516	1.19569
69.906	1.27423
85.205	1.18527
91.896	1.06782
95.849	0.95038
98.631	0.8718
101.267	0.80271
103.66	0.76558
105.956	0.73708
108.204	0.71635
110.012	0.70253
113.141	0.6844
114.607	0.67317
115.389	0.6654
116.269	0.66022
116.757	0.65762
117.148	0.65331
118.224	0.65503
118.811	0.65762
119.544	0.65676
124.238	0.64294
132.792	0.6058
144.819	0.57556
