Adsorption isotherm of Carbon Dioxide on Selar Cornish semi-anthracite
DOI: 10.1016/j.coal.2010.08.013
Article source: Figure 5(a)- RWTH_Experiment2
Adsorbate Carbon Dioxide: InChIKey CURLTUGMZLYLDI-UHFFFAOYSA-N
Kind: experiment
Isotherm type: excess
Temperature: 318 K
Tabular data in the source: 0
pressure (bar)	uptake (mmol/g)
5.343	0.61704
13.386	0.9804
21.486	1.17976
29.102	1.29022
40.872	1.37218
51.47	1.41961
80.052	1.36427
90.661	1.20196
95.946	1.03017
100.25	0.91017
105.239	0.79881
111.448	0.69435
111.448	0.69434
118.828	0.63303
126.598	0.58985
135.442	0.55356
138.178	0.55441
