Adsorption isotherm of Carbon Dioxide on Velenje lignite
DOI: 10.1016/j.coal.2010.08.013
Article source: Figure 1(a)- TU Delft
Adsorbate Carbon Dioxide: InChIKey CURLTUGMZLYLDI-UHFFFAOYSA-N
Kind: experiment
Isotherm type: excess
Temperature: 318 K
Tabular data in the source: 0
pressure (bar)	uptake (mmol/g)
51.573	1.25998
78.107	1.30901
89.296	1.35421
94.808	1.22031
98.563	1.16123
102.558	1.10215
107.272	1.05881
112.946	1.05877
119.021	1.09416
125.973	1.09018
133.725	1.08422
141.557	1.08023
147.791	1.07625
