Adsorption isotherm of Carbon Dioxide on Selar Cornish semi-anthracite
DOI: 10.1016/j.coal.2010.08.013
Article source: Figure 5(a)- UMons_Experiment2
Adsorbate Carbon Dioxide: InChIKey CURLTUGMZLYLDI-UHFFFAOYSA-N
Kind: experiment
Isotherm type: excess
Temperature: 318 K
Tabular data in the source: 0
pressure (bar)	uptake (mmol/g)
1.032	0.06488
7.986	0.75311
16.447	1.06313
23.733	1.19095
32.728	1.27041
40.256	1.31102
48.321	1.3378
59.759	1.35424
68.997	1.33958
77.403	1.29469
82.876	1.25498
87.177	1.22304
92.113	1.19024
95.387	1.10563
98.074	1.04605
103.497	0.89408
110.338	0.80775
118.451	0.75941
122.801	0.75251
128.177	0.74043
136.047	0.73095
144.991	0.71975
