Adsorption isotherm of Carbon Dioxide on Selar Cornish semi-anthracite
DOI: 10.1016/j.coal.2010.08.013
Article source: Figure 5(a)- UMons_Experiment1
Adsorbate Carbon Dioxide: InChIKey CURLTUGMZLYLDI-UHFFFAOYSA-N
Kind: experiment
Isotherm type: excess
Temperature: 318 K
Tabular data in the source: 0
pressure (bar)	uptake (mmol/g)
2.165	0.10007
4.888	0.46062
8.23	0.67311
10.794	0.81979
13.59	0.93358
15.92	1.01857
18.327	1.08437
21.122	1.14195
24.15	1.19679
27.954	1.23517
30.438	1.26259
32.767	1.28041
35.406	1.29823
37.657	1.31331
40.374	1.32565
42.858	1.33799
45.109	1.34758
47.36	1.35307
49.766	1.35855
51.939	1.35992
54.501	1.36678
57.14	1.36541
59.623	1.37226
61.952	1.36541
63.814	1.36541
66.143	1.36541
68.161	1.35855
