Adsorption isotherm of Carbon Dioxide on Velenje lignite
DOI: 10.1016/j.coal.2010.08.013
Article source: Figure 1(a)- RWTH_Experiment1
Adsorbate Carbon Dioxide: InChIKey CURLTUGMZLYLDI-UHFFFAOYSA-N
Kind: experiment
Isotherm type: excess
Temperature: 318 K
Tabular data in the source: 0
pressure (bar)	uptake (mmol/g)
5.386	0.85901
14.14	1.20876
22.093	1.39693
28.686	1.51614
34.081	1.60284
38.556	1.66688
48.026	1.77328
71.478	1.82746
84.022	1.7319
90.531	1.5457
94.723	1.26492
97.677	1.06788
100.591	0.92108
103.347	0.82946
106.303	0.78808
109.658	0.74079
113.134	0.72798
116.889	0.70532
120.803	0.67084
124.639	0.66099
128.434	0.64326
132.309	0.62848
135.944	0.61272
139.42	0.59892
142.496	0.59301
145.687	0.58907
148.541	0.58281
