Adsorption isotherm of Carbon Dioxide on Brzeszcze 364 LW
DOI: 10.1016/j.coal.2010.08.013
Article source: Figure 3(a)- RWTH_Experiment1
Adsorbate Carbon Dioxide: InChIKey CURLTUGMZLYLDI-UHFFFAOYSA-N
Kind: experiment
Isotherm type: excess
Temperature: 318 K
Tabular data in the source: 0
pressure (bar)	uptake (mmol/g)
9.401	0.82123
28.159	1.15634
44.316	1.2898
55.847	1.34802
63.738	1.36861
64.725	1.37204
68.917	1.37892
72.492	1.3801
74.935	1.38269
76.566	1.38199
78.313	1.37986
80.682	1.37414
83.709	1.3548
85.922	1.34119
87.281	1.33547
88.289	1.31538
89.026	1.30104
89.803	1.291
90.385	1.28527
91.006	1.28456
92.714	1.26807
95.815	1.16477
99.303	1.05071
104.192	0.96609
112.46	0.91021
123.331	0.87661
136.183	0.84374
149.734	0.81878
