Adsorption isotherm of Carbon Dioxide on Brzeszcze 364 LW
DOI: 10.1016/j.coal.2010.08.013
Article source: Figure 3(a)- UMons_Experiment2
Adsorbate Carbon Dioxide: InChIKey CURLTUGMZLYLDI-UHFFFAOYSA-N
Kind: experiment
Isotherm type: excess
Temperature: 318 K
Tabular data in the source: 0
pressure (bar)	uptake (mmol/g)
1.091	0.31029
8.558	0.79744
16.143	0.98755
21.444	1.07863
29.027	1.17314
36.361	1.24261
42.032	1.28248
54.666	1.33377
62.493	1.35544
70.258	1.34866
75.865	1.34641
79.747	1.31912
83.937	1.29183
89.112	1.21334
93.177	1.13369
97.55	1.03129
100.568	0.9414
104.325	0.85834
107.221	0.82421
109.5	0.79122
114.183	0.76962
118.804	0.7321
126.198	0.71393
133.039	0.70259
145.61	0.68901
