Adsorption isotherm of Carbon Dioxide on Brzeszcze 364 LW
DOI: 10.1016/j.coal.2010.08.013
Article source: Figure 3(a)- TU Delft
Adsorbate Carbon Dioxide: InChIKey CURLTUGMZLYLDI-UHFFFAOYSA-N
Kind: experiment
Isotherm type: excess
Temperature: 318 K
Tabular data in the source: 0
pressure (bar)	uptake (mmol/g)
47.536	1.31508
54.876	1.33776
56.149	1.3441
65.396	1.35505
74.691	1.34251
83.397	1.30016
84.228	1.29926
90.192	1.22706
93.709	1.13585
96.591	1.04826
99.228	0.97963
104.705	0.9291
106.172	0.92279
111.551	0.88672
119.768	0.85249
129.797	0.83364
139.678	0.81207
149.315	0.79864
