Adsorption isotherm of Carbon Dioxide on Selar Cornish semi-anthracite
DOI: 10.1016/j.coal.2010.08.013
Article source: Figure 5(a)- TU Delft
Adsorbate Carbon Dioxide: InChIKey CURLTUGMZLYLDI-UHFFFAOYSA-N
Kind: experiment
Isotherm type: excess
Temperature: 318 K
Tabular data in the source: 0
pressure (bar)	uptake (mmol/g)
54.923	1.3631
83.118	1.26634
92.841	1.09453
98.216	0.98229
103.396	0.94257
109.211	0.91147
116.834	0.88728
125.727	0.86222
135.255	0.83889
144.799	0.82425
