Adsorption isotherm of Carbon Dioxide on Brzeszcze 364 LW
DOI: 10.1016/j.coal.2010.08.013
Article source: Figure 3(a)- UMons_Experiment1
Adsorbate Carbon Dioxide: InChIKey CURLTUGMZLYLDI-UHFFFAOYSA-N
Kind: experiment
Isotherm type: excess
Temperature: 318 K
Tabular data in the source: 0
pressure (bar)	uptake (mmol/g)
1	0.27573
1.937	0.39207
4.429	0.55007
9.874	0.76267
15.782	0.90921
21.533	1.01698
24.331	1.05721
29.459	1.12619
35.052	1.18513
39.48	1.22969
44.218	1.26994
49.578	1.30302
59.286	1.35481
64.49	1.3764
69.226	1.38219
73.963	1.37792
79.087	1.37223
84.057	1.37802
89.102	1.31918
93.836	1.27757
98.572	1.26613
98.961	1.2657
