Adsorption isotherm of Carbon Dioxide on Velenje lignite
DOI: 10.1016/j.coal.2010.08.013
Article source: Figure 1(a)- RWTH_Experiment2
Adsorbate Carbon Dioxide: InChIKey CURLTUGMZLYLDI-UHFFFAOYSA-N
Kind: experiment
Isotherm type: excess
Temperature: 318 K
Tabular data in the source: 0
pressure (bar)	uptake (mmol/g)
4.604	0.84325
13.398	1.18593
21.311	1.37497
27.865	1.49311
33.3	1.58072
37.776	1.64668
47.327	1.76382
70.743	1.79616
83.287	1.60009
