Adsorption isotherm of Nitrogen on AquaSorb 1000
DOI: 10.1016/j.carbon.2014.02.077
Article source: Figure 2a
Adsorbate Nitrogen: InChIKey IJGRMHOSHXDMSA-UHFFFAOYSA-N
Kind: experiment
Temperature: 77 K
Tabular data in the source: 0
pressure (bar)	uptake (cm3(STP)/g)
1e-06	-6e-06
7e-06	2.4155
1.1e-05	9.6767
1.3e-05	16.953
1.5e-05	24.255
1.7e-05	31.519
1.9e-05	38.795
2.3e-05	46.064
2.8e-05	53.319
3.4e-05	60.585
4.4e-05	67.867
5.6e-05	75.13
7.4e-05	82.399
9.1e-05	87.244
0.000132	94.603
0.000185	101.95
0.000266	109.27
0.000397	116.58
0.000608	123.92
0.000826	128.79
0.001143	133.66
0.002009	141.66
0.0035	149.34
0.004185	151.82
0.007192	159.56
0.011812	167.07
0.018719	174.45
0.029994	182.77
0.033761	185.01
0.051152	193.24
0.073964	201.14
0.098414	207.46
0.10801	209.62
0.153606	217.51
0.213184	224.72
0.277726	230.46
0.316128	233.29
0.4212	239.46
0.528399	244.61
0.632559	249.35
0.732565	254.2
0.829633	259.35
0.926092	264.94
0.968648	267.91
0.991446	270.74
1.00816	278.03
