Adsorption isotherm of N-Hexane on AquaSorb 1000
DOI: 10.1016/j.carbon.2014.02.077
Article source: Figure 2a
Adsorbate N-Hexane: InChIKey VLKZOEOYAKHREP-UHFFFAOYSA-N
Kind: experiment
Temperature: 298 K
Tabular data in the source: 0
pressure (bar)	uptake (cm3(STP)/g)
1e-05	0.000519
8.9e-05	0.3491
0.00015	0.6986
0.000226	1.4573
0.000599	4.4436
0.00111	8.6857
0.001532	12.832
0.001724	16.933
0.001765	25.443
0.001773	21.192
0.001794	29.654
0.001817	33.836
0.001826	38.026
0.001928	42.282
0.002594	46.764
0.003954	51.114
0.005939	54.381
0.011277	58.694
0.016177	60.865
0.020964	62.338
0.032238	64.627
0.04261	66.084
0.054385	67.39
0.061668	68.094
0.070655	68.858
0.080425	69.636
0.090716	70.395
0.100766	71.144
0.111439	71.848
0.12177	72.549
0.132282	73.222
0.142333	73.884
0.152785	74.522
0.163016	75.162
0.173106	75.792
0.182635	76.444
0.191562	77.149
0.197721	77.854
