Adsorption isotherm of N-Hexane on AquaSorb 1000
DOI: 10.1016/j.carbon.2014.02.077
Article source: Figure 2a
Adsorbate N-Hexane: InChIKey VLKZOEOYAKHREP-UHFFFAOYSA-N
Kind: experiment
Temperature: 298 K
Tabular data in the source: 0
pressure (bar)	uptake (cm3(STP)/g)
1.4e-05	-0.000674
0.000121	0.7161
0.000371	2.8572
0.000775	7.051
0.001087	11.128
0.001283	15.718
0.001454	20.202
0.001649	24.59
0.001849	28.941
0.002097	33.198
0.002548	37.886
0.003422	42.321
0.005355	46.444
0.010574	50.771
0.017946	53.476
0.023732	54.749
0.031897	56.064
0.04289	57.354
0.050413	58.092
0.064817	59.241
0.084397	60.552
0.104839	61.793
0.125702	62.975
0.146265	64.118
0.160769	64.87
0.185203	66.178
0.19401	66.715
0.200008	67.263
