Adsorption isotherm of Nitrogen on AquaSorb 1000
DOI: 10.1016/j.carbon.2014.02.077
Article source: Figure 2
Adsorbate Nitrogen: InChIKey IJGRMHOSHXDMSA-UHFFFAOYSA-N
Kind: experiment
Temperature: 77 K
Tabular data in the source: 0
pressure (bar)	uptake (cm3(STP)/g)
3e-06	0.7948
6e-06	5.1393
9e-06	13.901
1.3e-05	22.605
1.5e-05	31.33
1.8e-05	40.047
2.1e-05	48.783
2.7e-05	57.492
3e-05	61.836
3.7e-05	70.58
5e-05	79.289
6.7e-05	87.999
9.2e-05	96.728
0.000118	105.52
0.000175	114.27
0.000271	123.06
0.000423	131.83
0.00069	140.61
0.000886	144.96
0.001155	149.34
0.002044	158.45
0.003628	167.38
0.004765	171.74
0.008133	180.51
0.01042	184.81
0.01396	190.14
0.022623	199.56
0.027811	203.79
0.041372	212.69
0.058291	221.18
0.079078	229.07
0.090976	232.86
0.104363	236.71
0.167183	249.83
0.215514	256.89
0.323727	267.93
0.417451	274.69
0.522624	280.92
0.625771	286.7
0.726081	292.6
0.823553	298.77
0.917277	305.47
0.976247	311.23
0.993776	314.41
1.01384	322.25
