Adsorption isotherm of Carbon Dioxide on MIL-53(Al)
DOI: 10.1039/B613378a
Adsorbate Carbon Dioxide: InChIKey CURLTUGMZLYLDI-UHFFFAOYSA-N
Temperature: 300 K
Tabular data in the source: 0
pressure (bar)	uptake (molecules/unitcell)
0.188104	1.44385
0.542778	1.8767
0.982954	2.05675
1.60015	2.41712
2.03843	2.38057
2.74207	2.59645
3.3561	2.59582
3.79596	2.73977
4.58543	2.73895
5.639	2.84617
6.25398	2.95384
6.43068	3.09806
6.78314	3.2782
7.13908	3.85545
7.58306	4.46871
9.53282	6.74107
12.082	7.35216
14.541	7.67453
16.6485	7.92507
18.4921	8.10367
20.1597	8.21025
21.5642	8.31711
22.8806	8.38795
24.8994	8.53027
26.479	8.60085
27.7954	8.67169
29.1995	8.74245
30.3402	8.77737
31.5692	8.88441
