Adsorption isotherm of Nitrogen on [NH2(CH3)2][KZn(DMTDC)2]
DOI: 10.1016/j.inoche.2015.05.003
Article source: Figure 5- N2
Adsorbate Nitrogen: InChIKey IJGRMHOSHXDMSA-UHFFFAOYSA-N
Kind: experiment
Temperature: 77 K
Tabular data in the source: 0
pressure (bar)	uptake (cm3(STP)/g)
0.000365	21.848
0.000648	46.516
0.000831	50.623
0.008572	73.663
0.051899	72.432
0.08259	74.377
0.097525	81.754
0.107303	75.907
0.123059	82.512
0.132736	77.08
0.14758	83.522
0.157631	78.149
0.173205	84.28
0.18279	79.234
0.198283	85.186
0.208233	79.991
0.22409	85.884
0.234051	80.793
0.248976	86.553
0.258288	81.611
0.274418	87.296
0.284835	82.442
0.299588	87.92
0.309639	83.378
0.350473	89.302
0.360514	84.315
0.400801	90.505
0.411126	85.444
0.453065	91.664
0.463025	86.915
0.501468	94.916
0.511326	88.223
0.553265	95.63
0.562303	89.13
0.603411	96.211
0.613462	90.289
0.653465	96.939
0.663699	91.522
0.70583	97.92
0.714676	93.127
0.755976	99.109
0.764457	94.939
0.805747	100.105
0.815149	97.033
0.856916	101.635
0.864839	99.113
0.908814	103.329
0.916829	101.281
0.962091	107.323
0.965131	105.409
0.989287	113.172
0.989743	113.377
1.00182	127.955
1.00596	143.302
