Adsorption isotherm of Ni(II) on St-DVB-SH
DOI: 10.1007/s10450-019-00020-w
Article source: Figure 10e
Adsorbate Ni(II): InChIKey VEQPNABPJHWNSG-UHFFFAOYSA-N
Kind: experiment
Temperature: 313 K
Tabular data in the source: 0
pressure (bar)	uptake (mg/g)
1.01325	0
1.01325	16.3462
1.01325	20.6731
1.01325	24.0385
1.01325	28.8462
1.01325	34.1346
