Adsorption isotherm of Copper(II) Ion on Ambersep GT-74
DOI: 10.1007/s10450-019-00020-w
Article source: Figure 10a
Adsorbate Copper(II) Ion: InChIKey JPVYNHNXODAKFH-UHFFFAOYSA-N
Kind: experiment
Temperature: 293 K
Tabular data in the source: 0
pressure (bar)	uptake (mg/g)
1.01325	0.956938
1.01325	9.09091
1.01325	17.2249
1.01325	18.1818
1.01325	20.5742
1.01325	22.9665
