Adsorption isotherm of Copper(II) Ion on St-DVB-SH
DOI: 10.1007/s10450-019-00020-w
Article source: Figure 10a
Adsorbate Copper(II) Ion: InChIKey JPVYNHNXODAKFH-UHFFFAOYSA-N
Kind: experiment
Temperature: 313 K
Tabular data in the source: 0
pressure (bar)	uptake (mg/g)
1.01325	2.87081
1.01325	14.3541
1.01325	29.6651
1.01325	40.6699
1.01325	41.1483
