Adsorption isotherm of Cadmium(II) Ion on St-DVB-SH
DOI: 10.1007/s10450-019-00020-w
Article source: Figure 10c
Adsorbate Cadmium(II) Ion: InChIKey WLZRMCYVCSSEQC-UHFFFAOYSA-N
Kind: experiment
Temperature: 293 K
Tabular data in the source: 0
pressure (bar)	uptake (mg/g)
1.01325	0.966184
1.01325	33.3333
1.01325	41.0628
1.01325	43.9614
1.01325	50.2415
