Adsorption isotherm of Lead(II) Ion on St-DVB-SH
DOI: 10.1007/s10450-019-00020-w
Article source: Figure 10d
Adsorbate Lead(II) Ion: InChIKey RVPVRDXYQKGNMQ-UHFFFAOYSA-N
Kind: experiment
Temperature: 333 K
Tabular data in the source: 0
pressure (bar)	uptake (mg/g)
1.01325	0.961538
1.01325	19.2308
1.01325	51.9231
1.01325	85.0962
1.01325	98.0769
1.01325	113.942
1.01325	115.865
