Adsorption isotherm of Copper(II) Ion on Ambersep GT-74
DOI: 10.1007/s10450-019-00020-w
Article source: Figure 10a
Adsorbate Copper(II) Ion: InChIKey JPVYNHNXODAKFH-UHFFFAOYSA-N
Kind: experiment
Temperature: 333 K
Tabular data in the source: 0
pressure (bar)	uptake (mg/g)
1.01325	4.78469
1.01325	12.9187
1.01325	25.3589
1.01325	28.7081
1.01325	32.0574
1.01325	35.4067
