Adsorption isotherm of Zn(II) on St-DVB-SH
DOI: 10.1007/s10450-019-00020-w
Article source: Figure 10b
Adsorbate Zn(II): InChIKey PTFCDOFLOPIGGS-UHFFFAOYSA-N
Kind: experiment
Temperature: 293 K
Tabular data in the source: 0
pressure (bar)	uptake (mg/g)
1.01325	0.480769
1.01325	17.7885
1.01325	21.6346
1.01325	23.5577
1.01325	25.9615
