Adsorption isotherm of Lead(II) Ion on Ambersep GT-74
DOI: 10.1007/s10450-019-00020-w
Article source: Figure 10d
Adsorbate Lead(II) Ion: InChIKey RVPVRDXYQKGNMQ-UHFFFAOYSA-N
Kind: experiment
Temperature: 293 K
Tabular data in the source: 0
pressure (bar)	uptake (mg/g)
1.01325	0.480769
1.01325	1.92308
1.01325	39.9038
1.01325	54.3269
1.01325	63.4615
1.01325	62.9808
1.01325	71.6346
