Adsorption isotherm of Zn(II) on Ambersep GT-74
DOI: 10.1007/s10450-019-00020-w
Article source: Figure 10b
Adsorbate Zn(II): InChIKey PTFCDOFLOPIGGS-UHFFFAOYSA-N
Kind: experiment
Temperature: 313 K
Tabular data in the source: 0
pressure (bar)	uptake (mg/g)
1.01325	1.44231
1.01325	3.36539
1.01325	15.3846
1.01325	17.7885
1.01325	20.1923
1.01325	25
