Adsorption isotherm of Lead(II) Ion on Ambersep GT-74
DOI: 10.1007/s10450-019-00020-w
Article source: Figure 10d
Adsorbate Lead(II) Ion: InChIKey RVPVRDXYQKGNMQ-UHFFFAOYSA-N
Kind: experiment
Temperature: 313 K
Tabular data in the source: 0
pressure (bar)	uptake (mg/g)
1.01325	0.480769
1.01325	20.1923
1.01325	61.0577
1.01325	61.5385
1.01325	64.4231
1.01325	62.9808
