Adsorption isotherm of Zn(II) on St-DVB-SH
DOI: 10.1007/s10450-019-00020-w
Article source: Figure 10b
Adsorbate Zn(II): InChIKey PTFCDOFLOPIGGS-UHFFFAOYSA-N
Kind: experiment
Temperature: 313 K
Tabular data in the source: 0
pressure (bar)	uptake (mg/g)
1.01325	0
1.01325	4.80769
1.01325	16.3462
1.01325	24.0385
1.01325	26.9231
1.01325	28.3654
