Adsorption isotherm of Copper(II) Ion on St-DVB-SH
DOI: 10.1007/s10450-019-00020-w
Article source: Figure 10a
Adsorbate Copper(II) Ion: InChIKey JPVYNHNXODAKFH-UHFFFAOYSA-N
Kind: experiment
Temperature: 293 K
Tabular data in the source: 0
pressure (bar)	uptake (mg/g)
1.01325	4.30622
1.01325	17.2249
1.01325	30.1435
1.01325	40.1914
1.01325	39.7129
1.01325	41.1483
