Adsorption isotherm of Lead(II) Ion on St-DVB-SH
DOI: 10.1007/s10450-019-00020-w
Article source: Figure 10d
Adsorbate Lead(II) Ion: InChIKey RVPVRDXYQKGNMQ-UHFFFAOYSA-N
Kind: experiment
Temperature: 293 K
Tabular data in the source: 0
pressure (bar)	uptake (mg/g)
1.01325	0.961538
1.01325	55.2885
1.01325	80.2885
1.01325	82.6923
1.01325	90.8654
1.01325	92.3077
