Adsorption isotherm of Ni(II) on Ambersep GT-74
DOI: 10.1007/s10450-019-00020-w
Article source: Figure 10e
Adsorbate Ni(II): InChIKey VEQPNABPJHWNSG-UHFFFAOYSA-N
Kind: experiment
Temperature: 293 K
Tabular data in the source: 0
pressure (bar)	uptake (mg/g)
1.01325	0
1.01325	3.36539
1.01325	10.0962
1.01325	14.9038
1.01325	20.6731
1.01325	30.7692
