Adsorption isotherm of Copper(II) Ion on Ambersep GT-74
DOI: 10.1007/s10450-019-00020-w
Article source: Figure 10a
Adsorbate Copper(II) Ion: InChIKey JPVYNHNXODAKFH-UHFFFAOYSA-N
Kind: experiment
Temperature: 313 K
Tabular data in the source: 0
pressure (bar)	uptake (mg/g)
1.01325	4.78469
1.01325	15.7895
1.01325	21.0526
1.01325	22.0096
1.01325	24.8804
