Adsorption isotherm of Zn(II) on Ambersep GT-74
DOI: 10.1007/s10450-019-00020-w
Article source: Figure 10b
Adsorbate Zn(II): InChIKey PTFCDOFLOPIGGS-UHFFFAOYSA-N
Kind: experiment
Temperature: 333 K
Tabular data in the source: 0
pressure (bar)	uptake (mg/g)
1.01325	0.961538
1.01325	3.84615
1.01325	12.5
1.01325	18.75
1.01325	23.0769
1.01325	24.0385
