Adsorption isotherm of Ni(II) on St-DVB-SH
DOI: 10.1007/s10450-019-00020-w
Article source: Figure 10e
Adsorbate Ni(II): InChIKey VEQPNABPJHWNSG-UHFFFAOYSA-N
Kind: experiment
Temperature: 293 K
Tabular data in the source: 0
pressure (bar)	uptake (mg/g)
1.01325	0
1.01325	16.3462
1.01325	22.1154
1.01325	27.8846
1.01325	31.7308
1.01325	46.6346
