Adsorption isotherm of Zn(II) on St-DVB-SH
DOI: 10.1007/s10450-019-00020-w
Article source: Figure 10b
Adsorbate Zn(II): InChIKey PTFCDOFLOPIGGS-UHFFFAOYSA-N
Kind: experiment
Temperature: 333 K
Tabular data in the source: 0
pressure (bar)	uptake (mg/g)
1.01325	0.480769
1.01325	4.80769
1.01325	16.8269
1.01325	21.6346
1.01325	26.9231
1.01325	28.3654
1.01325	36.0577
