Adsorption isotherm of Lead(II) Ion on Ambersep GT-74
DOI: 10.1007/s10450-019-00020-w
Article source: Figure 10d
Adsorbate Lead(II) Ion: InChIKey RVPVRDXYQKGNMQ-UHFFFAOYSA-N
Kind: experiment
Temperature: 333 K
Tabular data in the source: 0
pressure (bar)	uptake (mg/g)
1.01325	0.961538
1.01325	13.4615
1.01325	48.5577
1.01325	64.4231
1.01325	64.4231
1.01325	65.3846
