Adsorption isotherm of Cadmium(II) Ion on Ambersep GT-74
DOI: 10.1007/s10450-019-00020-w
Article source: Figure 10c
Adsorbate Cadmium(II) Ion: InChIKey WLZRMCYVCSSEQC-UHFFFAOYSA-N
Kind: experiment
Temperature: 313 K
Tabular data in the source: 0
pressure (bar)	uptake (mg/g)
1.01325	0.483092
1.01325	21.7391
1.01325	25.1208
1.01325	27.5362
