Adsorption isotherm of Nitrogen on [Na2Co(ipa)2]n
DOI: 10.1021/Ic900919w
Adsorbate Nitrogen: InChIKey IJGRMHOSHXDMSA-UHFFFAOYSA-N
Temperature: 77 K
Tabular data in the source: 0
pressure (bar)	uptake (cm3(STP)/g)
0.0343755	0.012673
0.0656259	0.0241939
0.150002	0.0553003
0.250004	0.0921672
0.35627	0.500007
0.406256	0.149772
0.459382	0.169357
0.509382	0.187791
0.562508	0.207376
0.609384	0.224658
0.66251	0.244243
0.71251	0.262677
0.765636	0.282262
0.812512	0.299543
0.865637	0.319129
0.915624	-0.0311064
1.00626	0.370973
