Adsorption isotherm of Acetone on [Na2Co(ipa)2]n
DOI: 10.1021/Ic900919w
Adsorbate Acetone: InChIKey CSCPPACGZOOCGX-UHFFFAOYSA-N
Temperature: 298 K
Tabular data in the source: 0
pressure (bar)	uptake (mmol/g)
0.00215944	0.0230314
0.011482	0.00106503
0.0258412	0.025228
0.0322998	0.0258271
0.0488052	0.0273581
0.0775103	0.0300206
0.0932982	0.0314851
0.114834	0.0563137
0.137804	0.0812754
0.158615	0.0832058
0.180868	0.108101
0.203121	0.132996
0.223946	0.18059
0.244822	0.410837
