Adsorption isotherm of Nitrogen on [Na2Co(ipa)2]n
DOI: 10.1021/Ic900919w
Adsorbate Nitrogen: InChIKey IJGRMHOSHXDMSA-UHFFFAOYSA-N
Temperature: 77 K
Tabular data in the source: 0
pressure (bar)	uptake (cm3(STP)/g)
0.0219329	1.48274
0.0313369	2.22353
0.0438514	2.59681
0.0719768	2.60718
0.106367	2.98852
0.121992	2.99428
0.143853	2.63368
0.184493	3.01732
0.203258	3.39291
0.234479	2.66709
0.287619	3.05534
0.30012	3.05995
0.415761	3.47125
0.465761	3.48968
0.518901	3.87794
0.565792	4.26389
0.618932	4.65214
0.668947	5.03924
0.76902	6.91945
0.822175	7.67638
0.922263	9.92526
0.972307	11.0497
