Adsorption isotherm of Methanol on [Na2Co(ipa)2]n
DOI: 10.1021/Ic900919w
Adsorbate Methanol: InChIKey OKKJLVBELUTLKV-UHFFFAOYSA-N
Temperature: 298 K
Tabular data in the source: 0
pressure (bar)	uptake (mmol/g)
4.25e-05	0.433796
0.000610587	1.23296
0.00106685	0.890556
0.00113618	1.59833
0.0011742	1.98646
0.00177137	3.08243
0.00180492	3.4249
0.00184294	3.81304
0.00285388	4.13281
0.00580616	4.27019
0.00972913	4.31639
0.0146272	4.31705
0.0190378	4.34048
0.0239404	4.38681
0.0283487	4.3874
0.033249	4.4109
0.0376595	4.43433
0.0425599	4.45782
0.0469682	4.45842
0.0523584	4.48198
0.0611772	4.50601
0.0709779	4.553
0.0802865	4.57709
0.0895974	4.62401
0.0989083	4.67094
0.108707	4.6951
0.117038	4.74189
0.125857	4.76591
0.135658	4.8129
0.144971	4.88266
0.153302	4.92945
0.159699	5.22712
