Adsorption isotherm of Acetylene on [Na2Co(ipa)2]n
DOI: 10.1021/Ic900919w
Adsorbate Acetylene: InChIKey HSFWRNGVRCDJHI-UHFFFAOYSA-N
Temperature: 195 K
Tabular data in the source: 0
pressure (bar)	uptake (cm3(STP)/g)
0.0437506	0.0161293
0.118781	0.781117
0.175031	0.801855
0.278158	0.839874
0.315658	0.853699
0.368799	1.24195
0.518815	1.66592
0.621942	1.70394
0.715722	2.47584
0.821973	2.51501
0.922003	3.28922
1.00328	4.05651
