Adsorption isotherm of Acetonitrile on [Na2Co(ipa)2]n
DOI: 10.1021/Ic900919w
Adsorbate Acetonitrile: InChIKey WEVYAHXRMPXWCK-UHFFFAOYSA-N
Temperature: 298 K
Tabular data in the source: 0
pressure (bar)	uptake (mmol/g)
0.000287403	0.0913918
0.00114317	0.25141
0.00144346	0.571116
0.002026	0.890887
0.00260725	1.18783
0.00571713	1.27988
0.0116456	1.30411
0.0170109	1.35103
0.0243519	1.39842
0.031131	1.49134
0.0379089	1.56143
0.0419209	2.63543
0.0484203	2.77394
0.0549159	2.84396
0.0616963	2.95971
0.0681932	3.05257
0.0746913	3.16825
0.0811882	3.2611
0.0879673	3.35402
0.0944667	3.49253
