Adsorption isotherm of Ethanol on [Na2Co(ipa)2]n
DOI: 10.1021/Ic900919w
Adsorbate Ethanol: InChIKey LFQSCWFLJHTTHZ-UHFFFAOYSA-N
Temperature: 298 K
Tabular data in the source: 0
pressure (bar)	uptake (mmol/g)
0.00052572	0.205681
0.000532035	0.388332
0.000712011	0.593881
0.00177134	1.23356
0.00195053	1.41627
0.00212972	1.59899
0.00282752	1.78191
0.00335087	1.91909
0.00404709	2.05635
0.00508748	2.14807
0.00595737	2.30822
0.00699776	2.39995
0.00803972	2.53733
0.010115	2.56096
0.0113282	2.65275
0.0121973	2.79007
0.0128951	2.97299
0.0135921	3.13307
0.0141179	3.33875
0.014642	3.49877
0.015684	3.63616
0.0177655	3.84244
0.0213998	3.95799
0.0250325	4.02788
0.028838	4.09783
0.0328156	4.14502
0.0369654	4.16944
0.040943	4.21663
0.0449198	4.24099
0.0488975	4.28818
0.053048	4.33544
0.0568535	4.40539
