Adsorption isotherm of Carbon Dioxide on [Na2Co(ipa)2]n
DOI: 10.1021/Ic900919w
Adsorbate Carbon Dioxide: InChIKey CURLTUGMZLYLDI-UHFFFAOYSA-N
Temperature: 195 K
Tabular data in the source: 0
pressure (bar)	uptake (cm3(STP)/g)
0.0125578	1.47928
0.0250724	1.85256
0.0376013	2.59451
0.0532698	3.70627
0.0633218	21.0372
0.0729417	27.308
0.0888262	33.9498
0.104754	41.6976
0.133225	50.556
0.161681	59.0458
0.205749	67.1726
0.237172	71.6082
0.26223	73.0921
0.309207	75.69
0.362404	77.553
0.409309	78.3076
0.509368	79.8191
0.612523	80.5945
0.715693	81.7385
0.812598	82.5116
0.918893	83.6567
0.968908	84.0438
