Adsorption isotherm of Krypton on MOF-505
DOI: 10.1016/j.micromeso.2012.11.013
Adsorbate Krypton: InChIKey DNNSSWSSYDEUBZ-UHFFFAOYSA-N
Temperature: 298 K
Tabular data in the source: 0
pressure (bar)	uptake (mmol/g)
0.0944547	0.0654394
0.809526	0.726165
1.69621	1.30966
2.08235	1.54993
2.99764	1.82452
3.92724	2.12485
4.72812	2.26214
5.94374	2.47666
7.17366	2.61395
8.38928	2.74267
9.49049	2.82848
9.96244	2.87138
