Adsorption isotherm of Krypton on IRMOF-1
DOI: 10.1016/j.micromeso.2012.11.013
Adsorbate Krypton: InChIKey DNNSSWSSYDEUBZ-UHFFFAOYSA-N
Temperature: 298 K
Tabular data in the source: 0
pressure (bar)	uptake (mmol/g)
0.112524	0.0930492
0.732242	0.422627
1.66182	0.743753
2.68999	1.11558
3.74633	1.45361
4.7745	1.77474
5.68999	2.00291
6.5914	2.23953
7.56323	2.45925
8.66182	2.67051
9.60548	2.84798
9.94351	2.90713
