Adsorption isotherm of Copper(II) Ion, Cadmium(II) Ion, Water on amino-functionalized magnetic graphene oxide
DOI: 10.2166/wst.2017.354
Article source: Figure 8
Adsorbate Copper(II) Ion: InChIKey JPVYNHNXODAKFH-UHFFFAOYSA-N
Adsorbate Cadmium(II) Ion: InChIKey WLZRMCYVCSSEQC-UHFFFAOYSA-N
Adsorbate Water: InChIKey XLYOFNOQVPJJNP-UHFFFAOYSA-N
Kind: experiment
Temperature: 298 K
Tabular data in the source: 0
pressure (bar)	Copper(II) Ion fraction	Copper(II) Ion uptake (mg/g)	Cadmium(II) Ion fraction	Cadmium(II) Ion uptake (mg/g)	Water fraction	Water uptake (mg/g)	total uptake (mg/g)
1.01325	1.068	9.32	1.181	3.89			
1.01325	5.088	48.7	5.231	8.37			
1.01325	10.007	98.58	9.983	23.82			
1.01325	20.042	197.76	20.05	53.18			
1.01325	40.062	278.3	40.044	98.58			
1.01325	60	313.92	60.012	108.02			
1.01325	79.964	395.87	79.867	117.22			
1.01325	99.931	422.17	100.005	99.17			
1.01325	124.958	489.5	124.896	87.74			
1.01325	149.903	502.59	149.873	41.39			
