Adsorption isotherm of Copper(II) Ion, Cadmium(II) Ion, Water on magnetic graphene oxide
DOI: 10.2166/wst.2017.354
Article source: Figure 8
Adsorbate Copper(II) Ion: InChIKey JPVYNHNXODAKFH-UHFFFAOYSA-N
Adsorbate Cadmium(II) Ion: InChIKey WLZRMCYVCSSEQC-UHFFFAOYSA-N
Adsorbate Water: InChIKey XLYOFNOQVPJJNP-UHFFFAOYSA-N
Kind: experiment
Temperature: 298 K
Tabular data in the source: 0
pressure (bar)	Copper(II) Ion fraction	Copper(II) Ion uptake (mg/g)	Cadmium(II) Ion fraction	Cadmium(II) Ion uptake (mg/g)	Water fraction	Water uptake (mg/g)	total uptake (mg/g)
1.01325	1.015	4.62	0.93	9.16			
1.01325	4.876	12.92	4.904	48.79			
1.01325	9.977	26.53	9.921	97.58			
1.01325	19.926	65.22	19.926	132.24			
1.01325	39.993	95.51	40.078	194.46			
1.01325	59.778	93.53	60.032	218.59			
1.01325	79.873	97.03	79.845	274.98			
1.01325	100.025	97.36	100.053	313.49			
1.01325	125.052	88.44	125.08	332.57			
1.01325	150.192	64.63	150.023	352.33			
