Adsorption isotherm of Copper(II) Ion, Water on amino-functionalized magnetic graphene oxide
DOI: 10.2166/wst.2017.354
Article source: Figure 6
Adsorbate Copper(II) Ion: InChIKey JPVYNHNXODAKFH-UHFFFAOYSA-N
Adsorbate Water: InChIKey XLYOFNOQVPJJNP-UHFFFAOYSA-N
Kind: experiment
Temperature: 298 K
Tabular data in the source: 0
pressure (bar)	Copper(II) Ion fraction	Copper(II) Ion uptake (mg/g)	Water fraction	Water uptake (mg/g)	total uptake (mg/g)
1.01325	0.812	8.82			
1.01325	4.897	50.94			
1.01325	9.795	100.74			
1.01325	19.887	200.98			
1.01325	39.828	400.01			
1.01325	60.085	490.93			
1.01325	79.936	575.01			
1.01325	99.944	586.25			
1.01325	125.114	574.47			
1.01325	150.014	578.2			
