Adsorption isotherm of Copper(II) Ion, Water on magnetic graphene oxide
DOI: 10.2166/wst.2017.354
Article source: Figure 6
Adsorbate Copper(II) Ion: InChIKey JPVYNHNXODAKFH-UHFFFAOYSA-N
Adsorbate Water: InChIKey XLYOFNOQVPJJNP-UHFFFAOYSA-N
Kind: experiment
Temperature: 298 K
Tabular data in the source: 0
pressure (bar)	Copper(II) Ion fraction	Copper(II) Ion uptake (mg/g)	Water fraction	Water uptake (mg/g)	total uptake (mg/g)
1.01325	0.758	9.8			
1.01325	4.923	30.04			
1.01325	9.927	66.61			
1.01325	19.938	155.92			
1.01325	39.897	236.23			
1.01325	59.911	333.86			
1.01325	79.895	386.25			
1.01325	99.793	388.19			
1.01325	124.91	387.51			
1.01325	149.946	390.42			
