Adsorption isotherm of Cadmium(II) Ion, Water on amino-functionalized magnetic graphene oxide
DOI: 10.2166/wst.2017.354
Article source: Figure 6
Adsorbate Cadmium(II) Ion: InChIKey WLZRMCYVCSSEQC-UHFFFAOYSA-N
Adsorbate Water: InChIKey XLYOFNOQVPJJNP-UHFFFAOYSA-N
Kind: experiment
Temperature: 298 K
Tabular data in the source: 0
pressure (bar)	Cadmium(II) Ion fraction	Cadmium(II) Ion uptake (mg/g)	Water fraction	Water uptake (mg/g)	total uptake (mg/g)
1.01325	0.944	19.386			
1.01325	5.13	43.022			
1.01325	10.073	61.105			
1.01325	20.015	84.581			
1.01325	40.06	131.807			
1.01325	60.081	153.874			
1.01325	79.914	174.526			
1.01325	99.99	182.926			
1.01325	125.04	182.507			
1.01325	149.955	184.975			
