Adsorption isotherm of Cadmium(II) Ion, Water on magnetic graphene oxide
DOI: 10.2166/wst.2017.354
Article source: Figure 6
Adsorbate Cadmium(II) Ion: InChIKey WLZRMCYVCSSEQC-UHFFFAOYSA-N
Adsorbate Water: InChIKey XLYOFNOQVPJJNP-UHFFFAOYSA-N
Kind: experiment
Temperature: 298 K
Tabular data in the source: 0
pressure (bar)	Cadmium(II) Ion fraction	Cadmium(II) Ion uptake (mg/g)	Water fraction	Water uptake (mg/g)	total uptake (mg/g)
1.01325	1.053	6.317			
1.01325	4.995	39.319			
1.01325	10.182	51.793			
1.01325	20.151	73.69			
1.01325	40.008	110.243			
1.01325	60.111	129.37			
1.01325	80.024	149.477			
1.01325	100.128	160.327			
1.01325	124.988	162.25			
1.01325	150.092	161.995			
