Adsorption isotherm of Nitrogen on {[Cd(4-btapa)2]*2NO3}n
DOI: 10.1021/Ja067374y
Adsorbate Nitrogen: InChIKey IJGRMHOSHXDMSA-UHFFFAOYSA-N
Temperature: 77 K
Tabular data in the source: 0
pressure (bar)	uptake (ml/g)
0.00619484	0.568017
0.0717411	0.873899
0.135102	0.873899
0.233422	0.873899
0.351405	0.873899
0.43443	0.568017
0.51964	0.873899
0.639808	1.48566
0.764346	1.48566
0.882329	2.09743
0.969724	2.40331
