Adsorption isotherm of Methanol on {[Cd(4-btapa)2]*2NO3}n
DOI: 10.1021/Ja067374y
Adsorbate Methanol: InChIKey OKKJLVBELUTLKV-UHFFFAOYSA-N
Temperature: 298 K
Tabular data in the source: 0
pressure (bar)	uptake (ml/g)
0.00400996	0.873899
0.0105646	5.76802
0.021489	10.6621
0.108884	21.368
0.205018	33.2974
0.338296	47.9798
0.432245	59.2974
0.521825	73.368
0.589556	86.8268
0.679136	99.368
0.746867	105.792
0.803674	109.462
0.893254	124.45
