Adsorption isotherm of Nitrogen on S-ZrO2-1.4
DOI: 10.1007/s10853-017-0820-4
Article source: Figure 4
Adsorbate Nitrogen: InChIKey IJGRMHOSHXDMSA-UHFFFAOYSA-N
Kind: experiment
Temperature: 77 K
Tabular data in the source: 0
pressure (bar)	uptake (cm3(STP)/g)
0.005867	5.805
0.006505	6.659
0.018005	7.357
0.018583	6.503
0.031005	6.971
0.032373	7.825
0.043093	8.201
0.044167	7.457
0.053873	7.604
0.054532	8.596
0.064117	8.017
0.072497	8.861
0.078221	8.384
0.084655	9.219
0.092711	9.559
0.098587	8.612
0.11717	9.659
0.121648	8.961
0.137901	9.181
0.140687	9.833
0.15622	10.089
0.160445	9.354
0.179099	9.409
0.198482	9.527
0.204926	10.391
0.228879	10.325
0.249822	9.7
0.256732	10.407
0.286278	10.516
0.301152	9.763
0.307069	10.359
0.335643	10.432
0.358126	10.293
0.374003	9.723
0.382322	10.237
0.406062	10.319
0.421909	9.639
0.434362	10.245
0.458811	10.234
0.474455	9.738
0.485925	10.279
0.510597	10.159
0.52233	9.433
0.534813	10.232
0.561157	10.01
0.575839	9.55
0.587552	10.083
0.61271	9.953
0.626885	9.356
0.638112	9.897
0.66476	10.007
0.675085	9.565
0.687244	9.859
0.716546	9.968
0.730255	9.453
0.73832	9.875
0.768839	10.012
0.777239	9.571
0.785993	9.818
0.814596	10.056
0.828052	9.514
0.843169	10.11
0.858834	9.724
0.867619	10.146
0.899606	10.319
0.907783	10.062
0.921421	10.521
0.934208	10.291
0.937947	10.888
0.962538	11.686
0.979104	10.923
0.983279	12.65
0.996218	11.887
1.00634	12.998
1.01061	12.511
