Adsorption isotherm of Nitrogen on S-ZrO2-1.2
DOI: 10.1007/s10853-017-0820-4
Article source: Figure 4
Adsorbate Nitrogen: InChIKey IJGRMHOSHXDMSA-UHFFFAOYSA-N
Kind: experiment
Temperature: 77 K
Tabular data in the source: 0
pressure (bar)	uptake (cm3(STP)/g)
0.008096	31.604
0.013902	33.175
0.018491	35.036
0.022777	36.141
0.028887	37.595
0.036223	38.874
0.041725	39.92
0.049354	41.083
0.056994	42.129
0.065242	43.233
0.072578	44.163
0.080207	45.034
0.088455	45.906
0.097311	46.602
0.108	47.357
0.11564	49.217
0.123574	48.168
0.136097	49.038
0.151062	49.675
0.161428	48.16
0.170902	50.428
0.181885	48.33
0.20296	50.537
0.228909	51.405
0.247532	51.634
0.2979	51.215
0.326909	52.14
0.349493	50.622
0.377894	52.129
0.397429	51.95
0.42429	51.828
0.448405	51.59
0.46031	51.529
0.484131	52.048
0.507324	51.868
0.531753	51.805
0.579375	51.853
0.607462	52.196
0.635245	52.19
0.648366	51.78
0.68164	52.005
0.702705	52.35
0.72529	51.647
0.738726	52.051
0.780856	52.333
0.805589	52.502
0.8294	52.497
0.861458	52.839
0.883739	52.66
0.89992	53.006
0.905108	52.19
0.925261	54.048
0.934411	52.649
0.944189	54.626
0.964646	53.865
0.966794	56.193
0.984181	54.384
1.00342	55.428
1.01384	63.458
