Adsorption isotherm of Nitrogen on S-ZrO2-0.8
DOI: 10.1007/s10853-017-0820-4
Article source: Figure 4
Adsorbate Nitrogen: InChIKey IJGRMHOSHXDMSA-UHFFFAOYSA-N
Kind: experiment
Temperature: 77 K
Tabular data in the source: 0
pressure (bar)	uptake (cm3(STP)/g)
0.006677	29.856
0.014925	31.33
0.026222	33.296
0.033548	34.401
0.041796	35.506
0.051867	37.042
0.058585	37.901
0.068667	39.005
0.083328	40.353
0.095244	41.272
0.111121	42.435
0.1264	43.66
0.14473	45.13
0.173445	46.596
0.198796	47.447
0.222323	47.929
0.24738	48.534
0.275183	48.953
0.301456	48.572
0.325287	49.116
0.36837	48.667
0.380904	48.969
0.406255	49.451
0.417876	48.645
0.437118	49.437
0.452093	48.63
0.477758	48.927
0.499451	48.425
0.505257	48.73
0.55751	49.755
0.569729	49.072
0.577977	49.93
0.606702	48.748
0.629621	49.415
0.65712	49.034
0.664446	49.708
0.708754	49.812
0.723426	49.19
0.735342	49.431
0.751837	49.424
0.76589	49.295
0.812945	49.952
0.830058	50.19
0.855723	50.241
0.865501	50.298
0.881692	50.538
0.910103	50.895
0.927521	51.01
0.949822	51.493
0.957158	50.874
0.967847	53.271
0.9864	52.57
1.00026	53.651
1.00791	64.044
