Adsorption isotherm of Nitrogen on S-ZrO2-0.6
DOI: 10.1007/s10853-017-0820-4
Article source: Figure 4
Adsorbate Nitrogen: InChIKey IJGRMHOSHXDMSA-UHFFFAOYSA-N
Kind: experiment
Temperature: 77 K
Tabular data in the source: 0
pressure (bar)	uptake (cm3(STP)/g)
0.002422	0.1394
0.050915	0.3341
0.079782	0.3571
0.088992	0.5568
0.102579	0.3801
0.119794	0.6076
0.128538	0.3287
0.143088	0.5517
0.154497	0.3564
0.166362	0.6026
0.176079	0.3934
0.191835	0.6163
0.204703	0.4163
0.217307	0.6253
0.230662	0.4812
0.243986	0.6948
0.25273	0.5088
0.269215	0.6574
0.282326	0.4389
0.293229	0.6479
0.307546	0.5176
0.346109	0.7543
0.357265	0.6473
0.396558	0.777
0.409173	0.7119
0.446287	0.7952
0.453572	0.7068
0.499411	0.8226
0.51081	0.7713
0.550589	0.8546
0.558837	0.7755
0.598859	0.896
0.613663	0.8029
0.655377	0.9048
0.666057	0.8117
0.70074	0.9415
0.713841	0.8671
0.754583	1.0154
0.766954	0.9967
0.806977	1.08
0.81643	1.0892
0.85548	1.1864
0.863971	1.1445
0.907135	1.3625
0.921452	1.381
0.958779	1.7431
0.965811	1.7941
0.985184	2.4027
0.990757	2.4909
0.99412	2.8998
1.00063	3.6851
1.00466	5.1395
