Adsorption isotherm of Nitrogen on S-ZrO2-1.0
DOI: 10.1007/s10853-017-0820-4
Article source: Figure 4
Adsorbate Nitrogen: InChIKey IJGRMHOSHXDMSA-UHFFFAOYSA-N
Kind: experiment
Temperature: 77 K
Tabular data in the source: 0
pressure (bar)	uptake (cm3(STP)/g)
0.009342	33.878
0.014205	36.201
0.018461	37.014
0.021815	37.536
0.02912	38.406
0.03673	39.276
0.044957	40.437
0.056528	41.888
0.064137	42.874
0.074797	43.918
0.083024	44.614
0.095203	45.425
0.116228	45.655
0.129339	46.002
0.13939	46.116
0.157679	45.998
0.180841	45.878
0.196668	47.619
0.200954	45.818
0.226234	47.731
0.243925	45.812
0.273258	47.493
0.300585	47.305
0.347994	47.622
0.377266	47.848
0.398797	46.232
0.402658	48.352
0.45418	47.607
0.483686	48.156
0.50087	46.033
0.508125	47.554
0.558675	47.823
0.579709	48.512
0.601727	46.803
0.608495	47.863
0.633167	48.643
0.655671	46.796
0.678641	48.683
0.708146	48.356
0.714915	48.724
0.734987	49.136
0.757248	48.165
0.781677	48.807
0.807311	49.034
0.835611	48.8
0.856423	48.29
0.882544	48.886
0.906476	49.62
0.922688	50.125
0.935515	48.878
0.949528	50.951
0.957766	48.783
0.967412	52.7
0.986298	49.379
0.995478	51.175
1.00921	60.578
