Adsorption isotherm of Nitrogen on S-ZrO2-0
DOI: 10.1007/s10853-017-0820-4
Article source: Figure 4
Adsorbate Nitrogen: InChIKey IJGRMHOSHXDMSA-UHFFFAOYSA-N
Kind: experiment
Temperature: 77 K
Tabular data in the source: 0
pressure (bar)	uptake (cm3(STP)/g)
0.006353	11.05
0.021146	12.67
0.036912	13.08
0.044916	13.16
0.055586	13.41
0.067471	13.57
0.080572	13.9
0.092457	14.5
0.108709	14.82
0.125681	15.41
0.139268	16
0.151397	16.07
0.171773	16.4
0.176616	17.08
0.197965	18.01
0.228524	19.01
0.249629	18.82
0.275335	19.23
0.304445	20.4
0.330151	20.89
0.349311	21.56
0.372838	21.97
0.405099	22.97
0.427897	23.98
0.455062	24.82
0.478589	24.8
0.503322	25.98
0.529281	26.3
0.554257	26.02
0.577541	26.17
0.604219	26.84
0.631131	26.73
0.656847	27.65
0.683039	29.17
0.704631	29.49
0.737378	31.44
0.759689	32.88
0.787107	34.14
0.806754	35.49
0.809165	32.23
0.827353	32.22
0.831254	37.53
0.856493	41.62
0.858408	35.11
0.878795	39.03
0.88685	51.37
0.909931	63.18
0.910336	42.86
0.915788	72.26
0.92744	74.82
0.9328	79.88
0.932911	48.07
0.938393	82.96
0.944472	87.75
0.950308	91.95
0.956388	94.77
0.956722	58.17
0.962954	98.97
0.975335	102.47
0.976916	75.9
0.994941	94.06
0.998619	104.34
