Adsorption isotherm of Carbon Dioxide on TpPA-1
DOI: 10.1021/ja308278w
Article source: Figure S21
Adsorbate Carbon Dioxide: InChIKey CURLTUGMZLYLDI-UHFFFAOYSA-N
Kind: experiment
Temperature: 298 K
Tabular data in the source: 0
pressure (bar)	uptake (cm3(STP)/g)
0.0156	3.56828
0.03986	6.87225
0.06066	9.91189
0.07972	11.8943
0.10399	14.2731
0.11958	15.859
0.14211	17.8414
0.16291	19.4273
0.18544	21.2775
0.20191	22.533
0.22357	23.9207
0.2409	25.1101
0.25997	26.2996
0.28769	28.0176
0.30849	29.3392
0.32929	30.5286
0.35009	31.4537
0.36742	32.4449
0.38995	33.7004
0.41075	34.7577
0.43241	35.6828
0.45407	36.7401
0.47487	37.6652
0.4974	38.4581
0.51473	39.2511
0.53553	40.3084
0.55633	41.3656
0.57539	42.1586
0.59619	43.0837
0.61179	43.6123
0.63258	44.5374
0.65511	45.4626
0.67764	46.2555
0.69497	47.0485
0.71404	48.1057
0.73137	48.8987
0.75217	49.6916
0.77123	50.4846
0.79029	50.8811
0.80936	51.674
0.83016	52.467
0.85095	53.326
0.87348	54.0529
0.89601	54.8458
0.91508	55.5066
0.93501	56.1013
0.95321	56.5639
0.97314	57.0925
0.99307	57.8855
0.04593	13.1498
0.08666	18.1057
0.12652	22.0705
0.16464	25.5066
0.20277	28.0176
0.23917	30.3965
0.2773	33.0396
0.31716	35.4185
0.36049	37.9295
0.39341	39.3833
0.43328	40.9692
0.4714	42.8194
0.50953	44.6696
0.55026	46.2555
0.59099	47.4449
0.62912	48.6344
0.66724	50.0881
0.70537	51.5419
0.7487	52.6652
0.79376	53.6564
0.83016	54.5815
0.86482	55.6388
0.90901	56.8943
0.95147	57.7533
