Adsorption isotherm of Nitrogen on TpPA-1 in 9N HCl for a day
DOI: 10.1021/ja308278w
Article source: Figure 4 (d)
Adsorbate Nitrogen: InChIKey IJGRMHOSHXDMSA-UHFFFAOYSA-N
Kind: experiment
Temperature: 77 K
Tabular data in the source: 0
pressure (bar)	uptake (cm3(STP)/g)
0	0
0.009981	130.12
0.026618	141.687
0.039932	147.831
0.054908	150.361
0.064889	152.53
0.079864	155.422
0.093168	157.59
0.113139	159.759
0.128115	160.482
0.141419	161.205
0.154733	163.373
0.169709	164.096
0.184685	166.265
0.211303	167.711
0.229602	169.88
0.241255	169.88
0.266211	172.771
0.281177	174.217
0.292829	174.217
0.309467	174.94
0.319447	175.663
0.332761	175.663
0.342742	176.386
0.357718	177.831
0.373524	178.554
0.389331	179.639
0.401804	180
0.417611	180.723
0.440906	182.892
0.45422	183.614
0.467524	184.337
0.480007	185.422
0.494142	186.506
0.507456	186.506
0.524924	188.313
0.540731	189.036
0.552383	189.398
0.564026	190.12
0.57734	190.843
0.590644	191.566
0.600634	193.012
0.613938	193.735
0.627252	195.181
0.638895	195.904
0.652209	196.627
0.663851	197.349
0.677165	198.072
0.695464	200.241
0.708779	201.687
0.721252	202.771
0.732073	203.855
0.742054	203.855
0.752034	206.024
0.763676	207.47
0.780314	209.639
0.793628	211.084
0.803609	212.53
0.816923	214.699
0.830237	217.59
0.846874	219.759
0.856855	221.928
0.873492	225.542
0.883473	229.157
0.893453	232.048
0.901772	234.217
0.911763	237.831
0.92757	244.699
0.943366	252.289
0.955019	260.964
0.968333	273.253
0.983298	299.639
1.00659	341.928
0.044917	156.867
0.061565	158.313
0.113139	165.542
0.136434	169.88
0.164714	172.048
0.212965	176.386
0.289496	180.723
0.339418	184.337
0.366037	185.783
0.440906	190.843
0.504132	199.518
0.53075	200.964
0.564026	202.41
0.584828	204.578
0.646383	207.831
0.670508	211.084
0.695464	211.807
0.758691	218.313
0.785309	221.205
0.806942	224.819
0.868497	236.386
0.908429	253.735
0.943366	281.928
0.97498	319.518
