Adsorption isotherm of Nitrogen on TpPa-2
DOI: 10.1021/ja308278w
Article source: Figure S38
Adsorbate Nitrogen: InChIKey IJGRMHOSHXDMSA-UHFFFAOYSA-N
Kind: experiment
Temperature: 77 K
Tabular data in the source: 0
pressure (bar)	uptake (cm3(STP)/g)
0	19.9533
0	24.154
0	29.0548
0.001875	31.8553
0.001875	36.7561
0.001875	42.3571
0.001875	45.8576
0.001875	50.7585
0.001875	55.6593
0.003739	59.1599
0.004681	62.6604
0.005613	66.161
0.009352	71.0618
0.027135	77.713
0.051453	82.6138
0.078588	86.4644
0.102916	89.965
0.127244	92.0653
0.154369	94.5157
0.176832	96.266
0.202093	98.3664
0.227353	100.117
0.252613	101.867
0.278806	103.967
0.305009	105.718
0.328394	107.468
0.355529	109.568
0.379847	111.319
0.40605	113.069
0.429436	114.819
0.45657	116.569
0.482763	118.67
0.506159	120.07
0.531419	122.17
0.555747	124.271
0.582872	126.021
0.606268	127.771
0.632461	129.872
0.657721	131.972
0.682981	134.072
0.711048	136.873
0.735376	139.323
0.761579	142.474
0.786839	145.274
0.8121	148.775
0.836418	152.975
0.860746	157.876
0.887881	164.527
0.912209	172.579
0.935595	183.781
0.967411	206.184
0.994535	254.842
0.024328	84.3641
0.050521	89.965
0.078588	94.1657
0.101041	96.266
0.128176	99.4166
0.153436	101.867
0.179639	103.967
0.204899	105.718
0.23016	107.468
0.254478	109.568
0.279738	111.319
0.305941	113.069
0.329327	114.469
0.355529	116.569
0.380789	118.32
0.404175	120.07
0.43131	121.82
0.454696	123.571
0.482763	127.771
0.507091	133.722
0.532351	135.823
0.559486	136.873
0.581008	138.973
0.608132	141.424
0.635267	143.874
0.657721	145.974
0.682981	148.775
0.707309	151.575
0.733512	154.376
0.758772	157.876
0.784033	162.077
0.811157	166.278
0.83736	170.478
0.860746	176.079
0.886006	182.73
0.911266	192.882
0.940276	210.385
0.971149	234.889
