Adsorption isotherm of Carbon Dioxide on TpPa-2
DOI: 10.1021/ja308278w
Article source: Figure S21
Adsorbate Carbon Dioxide: InChIKey CURLTUGMZLYLDI-UHFFFAOYSA-N
Kind: experiment
Temperature: 298 K
Tabular data in the source: 0
pressure (bar)	uptake (cm3(STP)/g)
0	0.13216
0.01386	1.18943
0.02773	2.11454
0.04333	3.17181
0.05546	3.96476
0.06759	4.62555
0.08319	5.4185
0.09359	6.0793
0.11265	6.87225
0.12478	7.40088
0.13692	7.86344
0.15078	8.45815
0.16118	9.11894
0.17418	9.64758
0.19064	10.1762
0.20797	10.837
0.21837	11.2335
0.23744	12.0264
0.24523	12.3568
0.25563	12.9515
0.27383	13.6123
0.28596	13.8766
0.29809	14.4053
0.31716	14.9339
0.32929	15.5947
0.33969	15.9912
0.35182	16.3877
0.36395	16.7841
0.37782	17.3128
0.39515	18.1057
0.41075	18.6344
0.42201	19.0308
0.43328	19.5595
0.44887	19.9559
0.46274	20.3524
0.4766	20.8811
0.48527	21.1454
0.4974	21.8062
0.51473	22.3348
0.53206	22.8634
0.54073	23.2599
0.55546	23.6564
0.57192	24.185
0.58666	24.7137
0.59879	25.1101
0.61092	25.7709
0.62478	26.0352
0.63778	26.63
0.65338	26.9604
0.66724	27.489
0.68111	28.0176
0.69671	28.4141
0.70537	28.8106
0.71837	29.2731
0.73137	30
0.74523	30.3965
0.75737	30.7929
0.7695	31.3216
0.78163	31.7181
0.79723	32.1145
0.80936	32.6432
0.82236	33.1718
0.83969	33.7004
0.85095	34.0969
0.86482	34.4934
0.88215	35.2863
0.89255	35.6828
0.90815	36.0793
0.91681	36.4758
0.92721	36.7401
0.94107	37.3348
0.95494	38.0617
0.97054	38.5903
0.9792	39.2511
0.9948	39.7797
0.03813	10.5727
0.06759	12.0264
0.09532	13.4802
0.12305	14.8018
0.15251	16.1234
0.18024	17.4449
0.20797	18.5022
0.23224	19.6916
0.2565	21.0132
0.28596	22.3348
0.31196	23.5242
0.34489	24.7137
0.37088	25.7709
0.39861	26.696
0.42634	27.7533
0.45407	28.8106
0.48007	29.6035
0.50607	30.5286
0.5338	31.4537
0.56412	32.511
0.59272	33.1718
0.61698	33.9648
0.64125	34.6255
0.67071	35.2863
0.70104	35.9471
0.7305	36.6079
0.75823	37.1366
0.78336	37.6652
0.81023	38.0617
0.83709	38.6564
0.86482	39.1189
0.89255	39.5154
0.92201	40.044
0.95667	40.3084
