Adsorption isotherm of Nitrogen on TpPA-1 in 9N NaOH for a day
DOI: 10.1021/ja308278w
Article source: Figure 4 (f)
Adsorbate Nitrogen: InChIKey IJGRMHOSHXDMSA-UHFFFAOYSA-N
Kind: experiment
Temperature: 77 K
Tabular data in the source: 0
pressure (bar)	uptake (cm3(STP)/g)
0.000861	0
0.015482	76.125
0.02752	84
0.038706	89.25
0.053327	93
0.066236	95.625
0.084292	99
0.101497	101.25
0.115257	102.75
0.13074	104.25
0.142787	105.75
0.153102	107.25
0.166872	109.125
0.17891	110.25
0.192669	111
0.211597	112.5
0.226218	113.625
0.242562	115.5
0.252887	115.5
0.266647	116.25
0.282129	117.75
0.297612	118.5
0.307927	120
0.321697	120.75
0.333734	121.5
0.345782	122.25
0.357819	123
0.376747	124.5
0.399109	125.25
0.412869	126
0.428351	126.75
0.440389	127.5
0.454159	129
0.469641	129.75
0.488559	130.875
0.509209	132.75
0.522969	133.5
0.535006	134.25
0.548776	135.75
0.563397	136.5
0.575435	136.5
0.588344	137.25
0.600381	138
0.617586	138.75
0.631346	139.5
0.643383	141
0.653708	142.5
0.662311	142.5
0.672636	142.875
0.681238	143.25
0.698433	144.75
0.712203	146.25
0.722518	147
0.736288	149.25
0.752622	150.375
0.765531	151.5
0.781013	154.5
0.794773	155.25
0.811117	157.875
0.825738	159.75
0.837785	162
0.8481	164.25
0.867028	166.5
0.873908	169.5
0.885945	171.75
0.897993	174.75
0.906595	178.5
0.92379	183.75
0.940995	192
0.959923	202.5
0.973683	216.75
0.998629	253.125
0.03441	105.75
0.067087	112.5
0.097201	115.875
0.129017	120
0.156547	122.25
0.181493	123.75
0.21332	126
0.235682	127.5
0.264063	129
0.296751	130.875
0.319974	132
0.352662	134.25
0.375024	135
0.402544	137.25
0.428351	138.375
0.457594	141
0.485124	142.875
0.514366	144.75
0.545331	147
0.577157	148.5
0.605538	150
0.632207	152.25
0.660588	153.75
0.688118	156
0.714777	157.875
0.748326	160.5
0.774994	163.125
0.803376	166.875
0.83434	171.75
0.865305	177
0.894548	186
0.922939	197.25
0.942718	212.25
0.968525	234
