Adsorption isotherm of Nitrogen on TpPA-1 in water for a week
DOI: 10.1021/ja308278w
Article source: Figure 4 (b)
Adsorbate Nitrogen: InChIKey IJGRMHOSHXDMSA-UHFFFAOYSA-N
Kind: experiment
Temperature: 77 K
Tabular data in the source: 0
pressure (bar)	uptake (cm3(STP)/g)
0.011642	130.622
0.021633	140.67
0.03827	147.847
0.064889	152.871
0.086521	156.459
0.098164	157.895
0.113139	160.048
0.128115	161.483
0.141419	162.919
0.159729	165.072
0.166376	165.789
0.183013	166.148
0.191332	167.225
0.216288	168.66
0.241255	170.096
0.264539	171.531
0.281177	172.249
0.296153	172.967
0.317786	173.684
0.329428	175.12
0.346065	175.837
0.36021	176.555
0.372694	177.273
0.382674	177.273
0.392655	177.99
0.405969	178.708
0.41678	178.708
0.427591	178.708
0.440906	180.144
0.452548	180.861
0.4642	180.861
0.477504	181.579
0.490818	182.297
0.502461	183.014
0.52077	183.732
0.535746	185.167
0.550712	186.603
0.560702	186.603
0.570683	188.038
0.585658	188.038
0.598962	188.756
0.612277	190.191
0.620595	190.191
0.632238	190.909
0.645552	190.909
0.662189	193.062
0.685484	194.498
0.715436	195.574
0.737058	196.651
0.747039	197.368
0.762015	198.804
0.773667	200.239
0.786971	200.239
0.798623	201.675
0.810266	203.11
0.818584	204.545
0.830237	205.263
0.841879	205.981
0.85186	207.416
0.865174	208.134
0.875154	209.569
0.885135	212.44
0.895125	213.876
0.905937	216.746
0.91841	221.053
0.926729	223.923
0.933386	226.794
0.9467	231.818
0.960004	238.995
0.976651	249.761
0.991617	266.986
1.00244	295.694
1.00659	335.885
0.054908	161.483
0.083188	167.225
0.111478	169.378
0.134762	170.813
0.159729	173.684
0.212965	176.555
0.266211	180.144
0.339418	183.014
0.392655	185.167
0.419273	185.885
0.470026	189.474
0.519108	191.627
0.544065	193.062
0.570683	193.78
0.595639	195.215
0.618934	195.933
0.644721	198.086
0.670508	198.804
0.699629	200.598
0.732073	203.11
0.758691	204.187
0.784478	207.416
0.808604	209.569
0.838556	213.158
0.863512	217.464
0.893453	223.206
0.920082	234.689
0.953357	249.761
0.981637	279.187
