Adsorption isotherm of Hydrogen on TpPa-2
DOI: 10.1021/ja308278w
Article source: Figure S19
Adsorbate Hydrogen: InChIKey UFHFLCQGNIYNRP-UHFFFAOYSA-N
Kind: experiment
Temperature: 77 K
Tabular data in the source: 0
pressure (bar)	uptake (cm3(STP)/g)
0	0.3211
0	2.24771
0	3.85321
0	5.45872
0	7.06422
0	16.055
0	17.3395
0	19.2661
0.00182	21.5138
0.00364	24.0826
0.00729	26.9725
0.02277	31.3073
0.04736	35.6422
0.07286	39.9771
0.09836	43.9908
0.12386	47.844
0.14845	51.055
0.17304	53.945
0.19854	56.8349
0.22313	59.0826
0.24863	61.4908
0.27322	63.8991
0.29872	65.8257
0.32423	67.7523
0.34791	69.6789
0.37523	71.6055
0.39891	73.5321
0.4235	75.9404
0.44991	78.0275
0.47541	79.633
0.5	81.078
0.5255	82.5229
0.55009	84.1284
0.57559	85.5734
0.60109	86.6973
0.62568	87.8211
0.65027	88.9449
0.67577	89.9083
0.70128	91.5138
0.72587	92.7982
0.75046	94.0826
0.77596	95.0459
0.80146	96.3303
0.82514	97.2936
0.85064	98.2569
0.87614	99.2202
0.90164	100.183
0.92714	101.147
0.95264	102.11
0.97632	102.752
0.99636	103.716
0.02368	40.2982
0.04736	47.2018
0.07286	51.3761
0.09836	55.5505
0.12204	59.0826
0.14572	61.8119
0.17304	64.8624
0.19672	67.1101
0.22222	69.3578
0.24681	71.2844
0.27231	73.211
0.2969	74.8165
0.3224	76.7431
0.34791	78.6697
0.37341	80.2752
0.398	81.7202
0.42259	83.6468
0.44809	85.2523
0.47268	87.0183
0.49818	88.3027
0.52277	89.5872
0.54827	90.8716
0.57377	92.156
0.59836	93.4404
0.62295	94.7248
0.64845	95.6881
0.67395	96.6514
0.69854	97.6147
0.72313	98.578
0.74863	99.2202
0.77413	100.183
0.79872	100.665
0.82423	101.468
0.84882	102.11
0.8725	102.431
0.898	102.752
0.9235	103.395
0.95082	103.395
0.9745	104.037
