Adsorption isotherm of Nitrogen on TpPA-1
DOI: 10.1021/ja308278w
Article source: Figure 4 (d)
Adsorbate Nitrogen: InChIKey IJGRMHOSHXDMSA-UHFFFAOYSA-N
Kind: experiment
Temperature: 77 K
Tabular data in the source: 0
pressure (bar)	uptake (cm3(STP)/g)
0	23.6842
0	27.9904
0	34.4498
0	48.0861
0	53.8278
0	59.2105
0	71.0526
0	76.7943
0	81.8182
0	87.5598
0	93.3014
0.001662	104.067
0.001662	110.526
0.003323	115.55
0.003323	119.856
0.004995	124.163
0.008319	129.187
0.026618	143.541
0.049913	151.077
0.074869	155.742
0.100656	159.689
0.127284	162.56
0.153072	165.789
0.178028	167.943
0.201323	170.096
0.227941	172.249
0.254559	174.402
0.277853	175.837
0.304471	177.99
0.329428	179.426
0.354384	181.579
0.37851	183.014
0.405969	185.167
0.430925	186.603
0.455881	188.756
0.48333	189.833
0.505794	192.344
0.531581	193.78
0.55903	195.933
0.582325	197.727
0.608953	199.522
0.632238	201.675
0.660528	203.828
0.685484	206.699
0.712102	208.852
0.73872	211.722
0.762015	214.593
0.788643	218.182
0.813599	221.053
0.837725	225.359
0.865174	231.818
0.89013	240.431
0.912594	251.196
0.939212	268.78
0.976651	302.153
0.993289	335.885
0.022464	150
0.049913	159.33
0.074869	163.995
0.101487	167.943
0.124782	170.813
0.150569	172.967
0.178028	175.837
0.201323	177.632
0.227941	179.426
0.254559	181.579
0.279515	183.014
0.304471	185.167
0.327766	186.603
0.355215	188.397
0.381012	190.191
0.405969	191.986
0.428422	193.062
0.456712	195.574
0.481669	198.804
0.505794	202.392
0.534074	204.545
0.557369	206.699
0.584828	208.493
0.60645	210.287
0.632238	212.44
0.658866	214.593
0.683822	217.464
0.708779	219.976
0.735397	223.206
0.761184	226.435
0.784478	230.383
0.811927	235.407
0.838556	241.866
0.86184	249.043
0.889299	259.809
0.913425	273.445
0.945038	293.541
0.971656	324.402
