Adsorption isotherm of Carbon Dioxide on TpPa-2
DOI: 10.1021/ja308278w
Article source: Figure S20
Adsorbate Carbon Dioxide: InChIKey CURLTUGMZLYLDI-UHFFFAOYSA-N
Kind: experiment
Temperature: 273 K
Tabular data in the source: 0
pressure (bar)	uptake (cm3(STP)/g)
0	0
0.01307	2.98368
0.027	4.94172
0.04355	7.17949
0.05749	8.76457
0.06969	10.0699
0.08362	11.0023
0.0993	12.3077
0.11324	13.4266
0.12369	14.359
0.13937	15.1049
0.15331	16.2238
0.16812	17.2494
0.18118	17.9021
0.19338	18.8345
0.20906	19.5804
0.223	20.3263
0.23693	21.2587
0.24739	22.0047
0.25958	22.5641
0.27265	23.31
0.28223	24.0559
0.29443	24.6154
0.30749	25.1748
0.32056	25.7343
0.33624	26.8531
0.35192	27.5991
0.3676	28.345
0.38153	29.0909
0.3885	29.6504
0.40418	30.3963
0.41463	30.9557
0.42857	31.5152
0.44425	32.2611
0.45906	33.2867
0.47474	34.2191
0.4878	34.8718
0.50436	35.6177
0.51742	36.3636
0.52962	37.2028
0.54094	37.669
0.55226	38.4149
0.5662	39.3473
0.58014	40.0932
0.59408	41.0256
0.60453	41.5851
0.62021	42.4242
0.63589	43.3566
0.65331	44.1958
0.66376	44.9417
0.67944	45.8741
0.6899	46.8065
0.70209	47.366
0.71254	48.1119
0.72822	48.8578
0.74216	49.6037
0.75784	50.5361
0.77526	51.2821
0.78746	52.2145
0.79791	52.7739
0.80836	53.3333
0.8223	54.0793
0.83798	54.8252
0.85017	55.5711
0.86411	56.5035
0.88153	57.6224
0.89373	58.3683
0.90244	58.9277
0.91986	59.8601
0.93206	60.6061
0.94948	61.1655
0.95819	62.0979
0.97387	62.8438
0.9878	63.5897
1	64.3357
0.03833	21.2587
0.06446	23.4965
0.09582	25.5478
0.12369	28.1585
0.14634	29.8368
0.1777	31.7016
0.20383	33.38
0.23084	35.1515
0.25958	37.1096
0.28746	38.7879
0.31359	40.4662
0.34321	42.5175
0.36934	43.8228
0.39721	45.1282
0.42247	46.4336
0.44861	47.7389
0.47735	48.6713
0.50697	50.1632
0.53746	51.4685
0.5662	52.5874
0.59146	53.7063
0.61847	54.8252
0.64895	56.0373
0.67857	57.0629
0.7047	57.9953
0.73519	59.1142
0.76307	59.8601
0.79268	60.7925
0.81882	61.5385
0.84669	62.3776
0.87544	62.9371
0.89983	63.5897
0.92422	64.1492
0.95296	64.6154
