Adsorption isotherm of Nitrogen on TpPA-1
DOI: 10.1021/ja308278w
Article source: Figure S12
Adsorbate Nitrogen: InChIKey IJGRMHOSHXDMSA-UHFFFAOYSA-N
Kind: experiment
Temperature: 77 K
Tabular data in the source: 0
pressure (bar)	uptake (cm3(STP)/g)
0	56.7633
0	71.256
0	79.7101
0	88.1643
0.00182	94.2029
0.00364	102.657
0.00364	108.696
0.00546	117.15
0.00729	123.188
0.01002	129.227
0.02732	142.512
0.051	149.758
0.0765	154.589
0.102	158.213
0.1275	161.836
0.15301	165.459
0.1776	167.271
0.20036	169.082
0.22587	172.705
0.25137	175.121
0.27505	175.121
0.30055	177.536
0.32423	178.744
0.34973	181.159
0.37523	182.367
0.40073	183.575
0.42532	185.99
0.44991	187.198
0.47541	189.614
0.50091	190.821
0.52459	193.237
0.55191	194.444
0.57559	196.86
0.60109	198.068
0.62477	200.483
0.65209	202.899
0.6776	205.314
0.7031	206.522
0.7286	207.729
0.75228	210.145
0.77687	213.768
0.80237	217.995
0.82605	223.43
0.85155	230.676
0.87614	239.13
0.89982	250
0.92532	268.116
0.95082	301.932
0.97541	364.734
0.02368	149.758
0.05282	159.42
0.0765	163.043
0.10018	167.271
0.12386	170.29
0.14936	172.705
0.17668	175.121
0.20036	177.536
0.22678	179.952
0.25137	181.159
0.27687	182.367
0.30146	184.179
0.32514	185.99
0.35155	188.406
0.37705	189.614
0.40164	191.425
0.4235	193.237
0.45082	195.048
0.47632	198.068
0.5	201.691
0.52641	204.106
0.551	205.918
0.57559	207.729
0.59927	209.541
0.62477	211.353
0.65027	213.768
0.67486	216.787
0.69945	219.807
0.72495	222.222
0.75046	225.845
0.77413	230.072
0.80055	234.903
0.82696	241.546
0.84882	247.585
0.87705	259.662
0.90164	272.947
0.92714	295.894
0.95082	334.541
0.97632	404.589
0.99454	510.87
