Adsorption isotherm of Nitrogen on TpPA-2 in water for 1 week
DOI: 10.1021/ja308278w
Article source: Figure S38
Adsorbate Nitrogen: InChIKey IJGRMHOSHXDMSA-UHFFFAOYSA-N
Kind: experiment
Temperature: 77 K
Tabular data in the source: 0
pressure (bar)	uptake (cm3(STP)/g)
0.000932	15.4026
0.014966	57.0595
0.023386	64.4107
0.044907	70.7118
0.059883	73.8623
0.072974	76.6628
0.08795	78.7631
0.10479	80.8635
0.119756	82.2637
0.129108	82.9638
0.14221	84.3641
0.157175	85.7643
0.170277	87.1645
0.187117	88.5648
0.196479	89.965
0.21332	91.3652
0.226411	92.0653
0.241387	93.4656
0.252613	93.4656
0.269454	94.8658
0.28068	96.266
0.295646	96.9662
0.308747	97.6663
0.321849	99.0665
0.336814	99.7666
0.349916	101.167
0.359268	101.867
0.375176	102.567
0.391074	103.967
0.404175	104.667
0.415402	105.368
0.432242	106.768
0.443469	107.468
0.455638	108.168
0.471536	108.868
0.484637	110.268
0.497739	110.968
0.508966	111.669
0.522999	113.069
0.537033	113.769
0.551998	115.169
0.566974	116.569
0.58194	117.97
0.596906	118.67
0.608132	120.07
0.620302	121.12
0.632461	122.17
0.647436	122.87
0.659595	123.571
0.674561	124.621
0.68673	125.671
0.698889	126.371
0.716662	127.771
0.729763	129.172
0.744739	131.272
0.755966	131.972
0.767192	134.072
0.78309	135.473
0.798998	137.573
0.813964	140.373
0.823326	141.774
0.834553	143.874
0.847655	146.674
0.858881	148.775
0.873847	150.875
0.888813	154.376
0.901914	159.627
0.915015	163.477
0.928107	169.778
0.941208	176.779
0.954309	185.531
0.967411	196.383
0.994535	231.739
1.00295	284.597
0.056134	85.7643
0.084201	89.965
0.106655	93.4656
0.116017	94.1657
0.164663	99.0665
0.217058	102.567
0.228285	103.967
0.278806	108.168
0.306873	109.568
0.33494	110.968
0.363007	113.769
0.419151	117.97
0.443469	119.37
0.455638	121.12
0.505217	128.471
0.531419	129.872
0.55668	131.622
0.583814	133.372
0.616552	135.823
0.649301	138.973
0.673629	141.074
0.70357	143.874
0.731637	146.674
0.754091	148.775
0.778419	151.575
0.806486	155.076
0.834553	159.277
0.86262	164.177
0.890687	171.879
0.913141	180.98
0.935595	194.982
0.987057	245.041
