Adsorption isotherm of Nitrogen on TpPA-2 in 9N HCl for a day
DOI: 10.1021/ja308278w
Article source: Figure S40
Adsorbate Nitrogen: InChIKey IJGRMHOSHXDMSA-UHFFFAOYSA-N
Kind: experiment
Temperature: 77 K
Tabular data in the source: 0
pressure (bar)	uptake (cm3(STP)/g)
0	0
0.014094	61.5807
0.032596	73.1065
0.047582	77.3875
0.061677	80.6806
0.074008	83.9737
0.088994	85.9495
0.105733	87.2667
0.116301	88.584
0.130405	89.9012
0.145381	91.2184
0.160357	91.8771
0.169172	93.5236
0.18503	94.5115
0.199124	95.1701
0.211465	95.8288
0.22027	97.146
0.239654	98.4632
0.255511	98.4632
0.267853	99.1218
0.280184	99.7805
0.292525	101.427
0.304857	102.415
0.320714	102.415
0.336571	103.074
0.34715	103.732
0.361244	104.391
0.373585	105.708
0.389443	106.367
0.400011	107.025
0.414997	107.684
0.426447	108.013
0.439659	109.001
0.452882	109.66
0.466977	110.977
0.482834	111.636
0.498691	112.294
0.50927	112.953
0.522482	113.941
0.537458	114.929
0.5498	115.587
0.560368	116.246
0.574472	116.905
0.591211	117.892
0.606187	119.21
0.621163	119.21
0.632623	120.527
0.646717	121.515
0.662574	122.173
0.676679	122.832
0.688128	124.149
0.701341	124.808
0.715446	126.125
0.72954	127.442
0.741871	128.101
0.75245	129.089
0.766544	130.077
0.782401	132.053
0.79298	132.711
0.808837	134.687
0.823813	136.004
0.838799	137.98
0.85113	139.956
0.861698	141.932
0.877566	145.225
0.888134	147.201
0.905754	151.153
0.918096	155.104
0.93219	160.373
0.948047	166.959
0.958626	175.192
0.970957	184.742
0.979772	195.609
0.993867	218.661
0.052861	92.5357
0.072245	95.8288
0.107496	98.4632
0.137447	100.439
0.16212	103.074
0.196479	105.049
0.218507	107.025
0.244943	107.025
0.269616	109.66
0.30662	110.318
0.329529	111.636
0.361244	114.27
0.391206	114.929
0.418513	116.905
0.449356	118.88
0.478426	120.527
0.503099	122.832
0.532179	125.137
0.558605	126.125
0.585922	128.43
0.615884	130.077
0.644072	132.053
0.665219	133.37
0.694299	136.004
0.726014	138.639
0.748923	139.627
0.784164	143.249
0.805311	145.554
0.82822	148.518
0.859945	152.47
0.900475	163.008
0.929545	174.204
0.976246	224.918
