Adsorption isotherm of Hydrogen on TpPA-1
DOI: 10.1021/ja308278w
Article source: Figure S19
Adsorbate Hydrogen: InChIKey UFHFLCQGNIYNRP-UHFFFAOYSA-N
Kind: experiment
Temperature: 77 K
Tabular data in the source: 0
pressure (bar)	uptake (cm3(STP)/g)
0	0.3211
0	47.5229
0	49.7706
0	51.3761
0.00364	52.9817
0.00546	54.5872
0.02186	59.0826
0.04736	64.8624
0.07286	70
0.09836	74.1743
0.12386	78.3486
0.14936	82.0413
0.17395	84.7706
0.19945	87.6606
0.22222	89.9083
0.24954	92.4771
0.27322	94.4037
0.2969	96.6514
0.3224	98.2569
0.34791	100.183
0.37341	101.789
0.39891	103.555
0.42441	105.321
0.44809	106.605
0.47359	108.211
0.49909	109.495
0.52459	110.78
0.54827	112.064
0.57377	113.349
0.59927	114.312
0.62477	115.596
0.64845	116.56
0.67395	117.523
0.69945	118.807
0.72495	119.61
0.74863	120.413
0.77505	122.339
0.79964	123.303
0.82423	124.427
0.84973	125.229
0.87432	126.193
0.89982	126.995
0.92532	127.798
0.95082	128.761
0.9745	129.404
0.99454	129.725
0.02277	65.5046
0.04736	71.4449
0.07286	76.1009
0.09654	79.9541
0.12113	83.4862
0.14936	87.0183
0.17304	89.5872
0.20036	92.4771
0.22404	94.8853
0.24954	96.9725
0.27505	99.2202
0.29872	100.826
0.32423	102.752
0.34882	104.518
0.37341	106.284
0.39891	107.729
0.42441	109.174
0.44809	110.459
0.47359	111.743
0.49909	112.706
0.52459	113.991
0.54827	115.275
0.57377	116.239
0.59927	117.362
0.62386	118.165
0.64936	119.289
0.67395	120.092
0.69945	121.055
0.72404	122.018
0.74954	122.821
0.77596	123.624
0.79872	124.427
0.82423	125.229
0.84882	126.032
0.87432	126.835
0.898	127.477
0.92532	128.119
0.95264	128.761
0.97268	129.404
0.99454	129.725
