Adsorption isotherm of Carbon Dioxide on TpPA-1
DOI: 10.1021/ja308278w
Article source: Figure S20
Adsorbate Carbon Dioxide: InChIKey CURLTUGMZLYLDI-UHFFFAOYSA-N
Kind: experiment
Temperature: 273 K
Tabular data in the source: 0
pressure (bar)	uptake (cm3(STP)/g)
0	0.09324
0.01045	5.59441
0.02439	9.88345
0.04181	14.5455
0.05401	16.5967
0.0662	19.021
0.07753	20.8858
0.09669	23.5897
0.10801	25.5478
0.12456	27.2261
0.13763	28.718
0.15157	30.303
0.16551	31.8881
0.17422	32.634
0.18554	33.7529
0.20122	35.1515
0.21603	36.6434
0.22997	37.8555
0.24564	38.9744
0.25958	40.0932
0.27178	41.0256
0.28571	42.1445
0.29878	43.2634
0.3101	44.1958
0.32317	45.035
0.33711	45.8741
0.3493	46.8998
0.3615	47.6457
0.37544	48.3916
0.39373	49.4173
0.40244	50.3497
0.41986	51.0956
0.43206	51.8415
0.44425	52.7739
0.45819	53.5198
0.47038	54.4522
0.48606	55.0117
0.49652	55.7576
0.5122	56.69
0.52962	57.2494
0.54443	57.9021
0.55923	58.5548
0.57143	59.3007
0.58362	60.0466
0.59669	60.8858
0.61324	61.5385
0.62544	62.0979
0.63763	62.6573
0.64808	63.4033
0.66202	63.9627
0.67422	64.5221
0.68641	65.0816
0.70035	65.641
0.71254	66.3869
0.72822	67.1329
0.7439	67.6923
0.75958	68.4382
0.77003	68.9977
0.78571	69.5571
0.79965	70.303
0.81185	70.676
0.82578	71.2354
0.83624	71.9814
0.85192	72.7273
0.8676	73.2867
0.87631	73.6597
0.89199	74.4056
0.90767	75.1515
0.92334	75.5245
0.93728	76.0839
0.94948	76.6434
0.96341	77.2028
0.97387	77.7622
0.98606	78.1352
0.99826	78.6946
0.04181	22.5641
0.06794	27.7855
0.09582	32.2611
0.12544	35.9907
0.14634	38.7879
0.17944	42.1445
0.20383	44.5688
0.22997	46.62
0.26132	49.0443
0.29094	51.2821
0.3101	52.7739
0.33885	54.6387
0.36934	56.317
0.4007	58.1818
0.42509	59.4872
0.45122	60.979
0.47909	62.2844
0.50784	63.5897
0.5331	64.8951
0.5662	66.2005
0.59408	67.3194
0.62021	68.2517
0.6507	69.5571
0.67596	70.3963
0.70035	71.4219
0.73084	72.4475
0.75436	73.1002
0.78571	74.0326
0.81707	74.7785
0.83798	75.4312
0.86411	76.2704
0.8946	76.7366
0.92683	77.5758
0.95383	78.1352
