Adsorption isotherm of Nitrogen on TpPA-2 in 9N NaOH for a day
DOI: 10.1021/ja308278w
Article source: Figure S41
Adsorbate Nitrogen: InChIKey IJGRMHOSHXDMSA-UHFFFAOYSA-N
Kind: experiment
Temperature: 77 K
Tabular data in the source: 0
pressure (bar)	uptake (cm3(STP)/g)
0.01531	66.554
0.022514	71.9595
0.044137	78.7162
0.060349	82.0946
0.069347	84.7973
0.089166	88.1757
0.103574	89.527
0.116189	90.8784
0.132401	92.9054
0.145006	94.2568
0.166619	96.9595
0.190045	98.9865
0.204454	100.338
0.217058	101.014
0.235074	102.365
0.251286	103.716
0.265694	104.392
0.278309	105.743
0.290914	106.419
0.305323	107.095
0.317938	107.77
0.343157	109.797
0.370171	111.149
0.400801	112.5
0.413406	113.851
0.425119	115.203
0.438626	115.203
0.45574	116.216
0.467443	117.23
0.480058	117.905
0.493564	118.919
0.513383	119.595
0.523283	120.946
0.5368	121.959
0.549404	122.297
0.566518	123.311
0.576428	123.986
0.591738	124.662
0.606146	126.014
0.620555	127.365
0.631366	128.378
0.643981	129.054
0.660193	130.068
0.670994	131.419
0.688108	132.095
0.699821	133.446
0.716033	135.473
0.725933	136.149
0.73945	137.5
0.752054	139.189
0.768266	140.878
0.780881	142.23
0.79529	144.257
0.807895	145.946
0.824107	148.311
0.838525	151.689
0.85113	153.041
0.864637	156.757
0.878153	159.797
0.892562	165.203
0.904265	169.257
0.915978	175.338
0.926789	180.743
0.941198	189.527
0.953803	203.041
0.984433	251.014
0.985325	264.189
0.056742	95.6081
0.085559	99.6622
0.107182	101.689
0.114386	102.365
0.164825	106.419
0.173833	107.77
0.225164	110.811
0.25309	112.838
0.280103	113.851
0.298118	115.203
0.310733	115.878
0.365672	118.581
0.388186	119.932
0.39539	120.608
0.447634	123.986
0.474647	127.365
0.498073	132.77
0.563813	137.162
0.589934	138.851
0.616958	140.203
0.644873	142.905
0.670994	144.932
0.693509	146.622
0.703418	147.635
0.757465	153.041
0.786282	156.419
0.809698	160.135
0.837623	164.865
0.867342	171.284
0.875448	174.324
0.90697	188.176
0.946598	235.473
