Adsorption isotherm of Nitrogen on TpPa-2
DOI: 10.1021/ja308278w
Article source: Figure S12
Adsorbate Nitrogen: InChIKey IJGRMHOSHXDMSA-UHFFFAOYSA-N
Kind: experiment
Temperature: 77 K
Tabular data in the source: 0
pressure (bar)	uptake (cm3(STP)/g)
0	22.9469
0.001821	31.401
0.001821	39.8551
0.001821	48.3092
0.001821	56.7633
0.003643	61.5942
0.010929	70.0483
0.027322	77.2947
0.051913	82.1256
0.078324	85.7488
0.103825	89.372
0.126594	91.1836
0.153005	92.9952
0.176685	95.4106
0.200364	97.8261
0.225865	99.0338
0.251366	101.449
0.275046	103.865
0.301457	105.072
0.325137	106.884
0.349727	108.696
0.376138	110.507
0.400729	112.319
0.424408	114.13
0.449909	115.942
0.476321	118.357
0.5	119.565
0.525501	121.981
0.550091	123.792
0.576503	125.604
0.600182	128.019
0.624772	129.831
0.649362	132.246
0.674863	134.058
0.702186	136.473
0.726776	138.889
0.751366	141.908
0.776867	145.531
0.801457	148.551
0.826047	152.174
0.849727	157.609
0.876138	164.251
0.900729	172.705
0.925319	183.575
0.95082	206.522
0.974499	254.831
0.995446	444.444
0.02459	84.5411
0.05009	90.5797
0.0765	94.2029
0.10018	96.6184
0.12568	99.0338
0.15209	101.449
0.17668	103.865
0.20219	105.676
0.22769	107.488
0.25228	109.3
0.27687	111.111
0.30237	112.923
0.32605	114.734
0.35246	116.546
0.37523	118.357
0.40073	119.565
0.42623	121.981
0.44991	123.792
0.47632	127.415
0.50182	133.454
0.5255	135.266
0.55191	137.681
0.57468	138.889
0.60109	141.304
0.62659	143.116
0.65027	146.135
0.67486	148.551
0.69854	151.57
0.72495	154.589
0.74954	157.609
0.77413	161.836
0.80146	165.459
0.82696	170.29
0.85064	175.121
0.87523	182.367
0.89982	193.237
0.92623	208.937
0.95082	234.3
0.97632	301.932
