Adsorption isotherm of Hydrogen on Carbon
DOI: 10.1016/j.micromeso.2007.10.017
Adsorbate Hydrogen: InChIKey UFHFLCQGNIYNRP-UHFFFAOYSA-N
Temperature: 77 K
Tabular data in the source: 0
pressure (bar)	uptake (cm3(STP)/g)
0.0102039	25.0046
0.0115629	35.5794
0.0550506	64.7402
0.0958203	80.1217
0.216771	99.3486
0.306464	108.642
0.409747	118.255
0.510313	124.664
0.613596	130.752
0.719597	135.559
0.817445	139.084
0.919369	144.211
