Adsorption isotherm of Nitrogen on Carbon
DOI: 10.1016/j.micromeso.2007.10.017
Adsorbate Nitrogen: InChIKey IJGRMHOSHXDMSA-UHFFFAOYSA-N
Temperature: 77 K
Tabular data in the source: 0
pressure (bar)	uptake (cm3(STP)/g)
0.00511028	99.363
0.00948003	171.464
0.0225893	177.873
0.0590038	191.492
0.112897	207.514
0.182813	225.139
0.274578	251.576
0.370713	295.638
0.421693	326.881
0.449368	341.301
0.475586	350.915
0.53385	355.722
0.611049	358.125
0.713009	362.131
0.93878	368.539
0.98539	370.142
0.99413	375.75
