Adsorption isotherm of Nitrogen on SBA-15 Silica
DOI: 10.1016/j.micromeso.2007.10.017
Adsorbate Nitrogen: InChIKey IJGRMHOSHXDMSA-UHFFFAOYSA-N
Temperature: 77 K
Tabular data in the source: 0
pressure (bar)	uptake (cm3(STP)/g)
0.0149343	1.12343
0.0171192	120.418
0.0389679	140.081
0.0630016	155.813
0.154766	187.275
0.233422	208.249
0.336111	227.913
0.43006	244.955
0.526195	260.686
0.655102	300.014
0.70317	313.123
0.762161	520.25
0.947875	549.09
0.989388	562.199
