Adsorption isotherm of Nitrogen on Carbon
DOI: 10.1016/j.micromeso.2007.10.017
Adsorbate Nitrogen: InChIKey IJGRMHOSHXDMSA-UHFFFAOYSA-N
Temperature: 77 K
Tabular data in the source: 0
pressure (bar)	uptake (cm3(STP)/g)
0.00656687	171.464
0.00802345	223.537
0.00802345	245.968
0.0153064	270.002
0.0458946	295.638
0.0939618	313.262
0.223598	361.329
0.329928	412.601
0.407127	467.077
0.449368	486.304
0.477043	495.117
0.564438	499.122
0.718836	503.929
0.911105	512.741
0.959172	514.343
0.978108	517.548
0.99413	541.581
