Adsorption isotherm of Nitrogen on Carbon
DOI: 10.1016/j.micromeso.2007.10.017
Adsorbate Nitrogen: InChIKey IJGRMHOSHXDMSA-UHFFFAOYSA-N
Temperature: 77 K
Tabular data in the source: 0
pressure (bar)	uptake (cm3(STP)/g)
0.00802345	15.2454
0.00802345	98.5619
0.0225893	108.175
0.0721131	122.596
0.112897	132.209
0.162421	141.021
0.23525	153.839
0.283318	165.856
0.379452	187.486
0.426063	207.514
0.4785	241.962
0.52948	302.848
0.544046	314.864
0.576091	322.074
0.611049	322.876
0.715923	327.682
0.812057	330.086
0.886343	331.688
0.986847	334.091
