Adsorption isotherm of Hydrogen on Carbon
DOI: 10.1016/j.micromeso.2007.10.017
Adsorbate Hydrogen: InChIKey UFHFLCQGNIYNRP-UHFFFAOYSA-N
Temperature: 77 K
Tabular data in the source: 0
pressure (bar)	uptake (cm3(STP)/g)
0.0102039	47.7564
0.0550506	82.0444
0.0971793	97.4259
0.214053	120.178
0.306464	131.073
0.409747	139.084
0.51439	146.775
0.617673	153.184
0.718238	157.67
0.817445	162.477
0.920728	167.284
