Adsorption isotherm of Nitrogen on Carbon
DOI: 10.1016/j.micromeso.2007.10.017
Adsorbate Nitrogen: InChIKey IJGRMHOSHXDMSA-UHFFFAOYSA-N
Temperature: 77 K
Tabular data in the source: 0
pressure (bar)	uptake (cm3(STP)/g)
0.00619484	299.546
0.021489	324.017
0.0564469	351.546
0.113254	380.605
0.185355	409.664
0.257455	443.311
0.331741	478.487
0.43443	564.134
0.449724	588.605
0.473758	608.487
0.502161	626.84
0.537119	642.134
0.711909	651.311
0.910733	657.428
0.991573	663.546
