Adsorption isotherm of Hydrogen on Carbon
DOI: 10.1016/j.micromeso.2007.10.017
Adsorbate Hydrogen: InChIKey UFHFLCQGNIYNRP-UHFFFAOYSA-N
Temperature: 77 K
Tabular data in the source: 0
pressure (bar)	uptake (cm3(STP)/g)
0.00884487	15.7116
0.0142808	37.1816
0.0482556	62.497
0.110769	80.4421
0.208617	95.8236
0.317336	106.398
0.404311	112.487
0.507595	119.216
0.610878	124.344
0.715521	128.509
0.814727	132.675
0.916651	136.2
