Adsorption isotherm of Hydrogen on Carbon
DOI: 10.1016/j.micromeso.2007.10.017
Adsorbate Hydrogen: InChIKey UFHFLCQGNIYNRP-UHFFFAOYSA-N
Temperature: 77 K
Tabular data in the source: 0
pressure (bar)	uptake (cm3(STP)/g)
0.0115629	51.9222
0.0536916	95.8236
0.106692	123.382
0.214053	150.941
0.303746	166.963
0.404311	179.461
0.511672	189.715
0.613596	198.367
0.716879	204.776
0.816086	210.865
0.915292	216.312
