Adsorption isotherm of Hydrogen on Carbon
DOI: 10.1016/j.micromeso.2007.10.017
Adsorbate Hydrogen: InChIKey UFHFLCQGNIYNRP-UHFFFAOYSA-N
Temperature: 77 K
Tabular data in the source: 0
pressure (bar)	uptake (cm3(STP)/g)
0.00748588	10.9049
0.00748588	20.8388
0.0102039	28.85
0.0509736	51.2813
0.110769	65.7015
0.208617	80.1217
0.313259	91.0169
0.408388	98.3872
0.506236	103.194
0.614955	109.603
0.714162	113.769
0.813368	116.973
0.915292	120.498
