Adsorption isotherm of Nitrogen on Carbon
DOI: 10.1016/j.micromeso.2007.10.017
Adsorbate Nitrogen: InChIKey IJGRMHOSHXDMSA-UHFFFAOYSA-N
Temperature: 77 K
Tabular data in the source: 0
pressure (bar)	uptake (cm3(STP)/g)
0.00837971	106.84
0.0149343	259.781
0.0258587	276.605
0.0739259	298.017
0.137287	308.722
0.209388	313.311
0.309892	324.017
0.458464	331.664
0.60922	337.781
0.735943	345.428
0.838632	351.546
0.912918	356.134
0.95443	366.84
0.974094	380.605
