Adsorption isotherm of Benzene on C62H50Cd3K2N2O26
DOI: 10.1039/C3ce26788a
Adsorbate Benzene: InChIKey UHOVQNZJYSORNB-UHFFFAOYSA-N
Temperature: 298 K
Tabular data in the source: 0
pressure (bar)	uptake (wt%)
0.0053277	0.0893471
0.0163636	0.309278
0.0266385	0.419244
0.0361522	0.639175
0.0464271	0.914089
0.0563214	1.02405
0.0612685	1.13402
0.0665962	1.189
0.07611	1.24399
0.0860043	1.40893
0.0958986	1.5189
0.106173	1.62887
0.11074	1.68385
0.116068	1.73883
