Adsorption isotherm of Water on C62H50Cd3K2N2O26
DOI: 10.1039/C3ce26788a
Adsorbate Water: InChIKey XLYOFNOQVPJJNP-UHFFFAOYSA-N
Temperature: 298 K
Tabular data in the source: 0
pressure (bar)	uptake (wt%)
0.000284746	0.309278
0.00151865	1.29897
0.00227797	1.95876
0.00275255	2.45361
0.00332204	2.78351
0.00379662	3.38832
0.00446102	3.66323
0.00522035	4.04811
0.00588476	4.43299
0.00607459	4.76289
0.00711866	5.3677
0.00759323	5.64261
0.00806781	6.08247
0.00844747	6.46735
0.00911188	6.85223
0.00968137	7.2921
0.010061	7.73196
0.0108204	8.06186
0.0114848	8.44674
0.0120543	8.83162
0.0127187	9.10653
0.013478	9.49141
0.0140475	9.87629
0.0148068	10.0962
0.0154712	10.4261
0.0160407	10.811
0.0168	11.0309
0.0174644	11.3608
0.0181288	11.7457
0.0188882	11.9656
0.0197424	12.1856
0.0205966	12.2955
0.0215458	12.4055
0.0224	12.5155
0.0233492	12.6254
0.0242034	12.7904
0.0251526	12.8454
0.0261017	12.8454
