Adsorption isotherm of Cyclohexane on C62H50Cd3K2N2O26
DOI: 10.1039/C3ce26788a
Adsorbate Cyclohexane: InChIKey XDTMQSROBMDMFD-UHFFFAOYSA-N
Temperature: 298 K
Tabular data in the source: 0
pressure (bar)	uptake (wt%)
0.00507785	0.0343643
0.0101557	0.0893471
0.0191396	0.14433
0.0242175	0.199313
0.0304671	0.14433
0.0343732	0.199313
0.0398416	0.199313
0.0457007	0.14433
0.0492161	0.199313
0.0550752	0.309278
0.0597624	0.254296
0.0648403	0.364261
0.0687463	0.309278
0.0753866	0.364261
0.0789021	0.364261
0.089839	0.364261
0.0933544	0.364261
0.0984323	0.364261
0.104291	0.419244
0.109369	0.474227
0.114056	0.474227
0.118353	0.694158
