Adsorption isotherm of Carbon Dioxide on C62H50Cd3K2N2O26
DOI: 10.1039/C3ce26788a
Adsorbate Carbon Dioxide: InChIKey CURLTUGMZLYLDI-UHFFFAOYSA-N
Temperature: 273 K
Tabular data in the source: 0
pressure (bar)	uptake (cm3(STP)/g)
0.70714	0.183607
1.05882	0.445902
1.50031	0.603279
2.20745	0.786885
2.73701	0.996721
3.17879	1.12787
3.53221	1.23279
4.59307	1.49508
5.47663	1.75738
6.44942	1.96721
7.42192	2.20328
8.12877	2.41311
9.01291	2.62295
11.0477	2.99016
12.7282	3.33115
14.586	3.67213
16.4435	4.03934
18.1241	4.38033
20.5135	4.74754
22.725	5.16721
25.0251	5.58689
27.4142	5.98033
29.6261	6.37377
31.9259	6.81967
33.4303	7.05574
34.6685	7.31803
