Adsorption isotherm of Methanol on C62H50Cd3K2N2O26
DOI: 10.1039/C3ce26788a
Adsorbate Methanol: InChIKey OKKJLVBELUTLKV-UHFFFAOYSA-N
Temperature: 298 K
Tabular data in the source: 0
pressure (bar)	uptake (wt%)
1.39e-17	0.199313
0.00509033	0.52921
0.0117078	0.639175
0.0173071	0.804124
0.0249426	1.5189
0.0351233	2.23368
0.045304	2.23368
0.0554846	3.05842
0.0651563	3.60825
0.075846	4.15808
0.0844995	4.59794
0.0962073	5.09278
0.105879	5.53265
0.116569	6.02749
0.12624	6.46735
0.137439	6.6323
0.147111	6.90722
0.15271	7.67698
