Adsorption isotherm of Ethanol on C62H50Cd3K2N2O26
DOI: 10.1039/C3ce26788a
Adsorbate Ethanol: InChIKey LFQSCWFLJHTTHZ-UHFFFAOYSA-N
Temperature: 298 K
Tabular data in the source: 0
pressure (bar)	uptake (wt%)
0.000469199	0.309278
0.0018768	0.749141
0.00445739	1.62887
0.00938398	2.39863
0.0145452	2.83849
0.0194717	3.16838
0.0243983	3.49828
0.0295595	3.7732
0.0344861	4.10309
0.0396473	4.43299
0.0445739	4.7079
0.0492659	4.98282
0.0541925	5.3677
0.0593536	5.69759
0.0642802	6.02749
0.0692068	6.41237
0.0736642	7.18213
