Adsorption isotherm of Methane on C62H50Cd3K2N2O26
DOI: 10.1039/c3ce26788a
Article source: Figure 6
Adsorbate Methane: InChIKey VNWKTOKETHGBQD-UHFFFAOYSA-N
Kind: experiment
Temperature: 298 K
Tabular data in the source: 0
pressure (bar)	uptake (wt%)
0.137295	0.0314
0.178849	0.0369
0.224941	0.0423
0.275888	0.0423
0.319245	0.0532
0.367769	0.0586
0.41447	0.075
0.460259	0.075
0.508479	0.075
0.55518	0.0859
0.603086	0.0968
0.648875	0.1064
0.693458	0.1131
0.742277	0.1294
0.790193	0.1349
0.837502	0.1403
0.882075	0.1621
0.928167	0.173
