Adsorption isotherm of Carbon Dioxide on MMCF-1
DOI: 10.1039/C2ce25484k
Adsorbate Carbon Dioxide: InChIKey CURLTUGMZLYLDI-UHFFFAOYSA-N
Temperature: 273 K
Tabular data in the source: 0
pressure (bar)	uptake (cm3(STP)/g)
0.00576529	1.15789
0.0230612	1.89474
0.040357	2.57895
0.0605356	3.42105
0.0807141	3.78947
0.0864794	4.26316
0.106658	4.52632
0.118188	4.94737
0.135484	5.26316
0.155663	5.52632
0.164311	6
0.187372	6.26316
0.204668	6.52632
0.216198	6.94737
0.23926	7.10526
0.259438	7.36842
0.276734	7.68421
0.296913	7.94737
0.319974	8.05263
0.328622	8.31579
0.351683	8.52632
0.374744	8.68421
0.394922	8.89474
0.417984	9.10526
0.438162	9.36842
0.461223	9.57895
0.484284	9.73684
0.507346	9.89474
0.533289	10
0.556351	10.2105
0.579412	10.3684
0.602473	10.5789
0.625534	10.7368
0.648595	10.8947
0.671656	11.0526
0.694718	11.2105
0.720661	11.3158
0.743723	11.4211
0.769666	11.5789
0.79561	11.7368
0.818671	11.8947
0.844615	12.0526
0.867676	12.2105
0.89362	12.3684
0.919564	12.4737
0.942625	12.6316
0.968569	12.7895
0.994513	12.8947
1.01757	13.0526
1.04352	13.1579
1.06946	13.2632
1.08387	13.3684
