Adsorption isotherm of Carbon Dioxide on MMCF-1
DOI: 10.1039/C2ce25484k
Adsorbate Carbon Dioxide: InChIKey CURLTUGMZLYLDI-UHFFFAOYSA-N
Temperature: 298 K
Tabular data in the source: 0
pressure (bar)	uptake (cm3(STP)/g)
0.00864794	0.736842
0.0317091	1.21053
0.0576529	1.78947
0.0951273	2.31579
0.121071	2.68421
0.147015	3.05263
0.175841	3.42105
0.198903	3.73684
0.25079	4.36842
0.311326	4.94737
0.360331	5.36842
0.409336	5.84211
0.469871	6.15789
0.524642	6.52632
0.576529	6.89474
0.625534	7.15789
0.683187	7.42105
0.735075	7.73684
0.763901	7.84211
0.789845	8
0.815789	8.10526
0.844615	8.21053
0.870559	8.31579
0.89362	8.42105
0.919564	8.52632
0.94839	8.63158
0.974334	8.73684
1.00316	8.89474
1.0291	8.94737
1.08099	9.15789
