Adsorption isotherm of Nitrogen on MMCF-1
DOI: 10.1039/C2ce25484k
Adsorbate Nitrogen: InChIKey IJGRMHOSHXDMSA-UHFFFAOYSA-N
Temperature: 273 K
Tabular data in the source: 0
pressure (bar)	uptake (cm3(STP)/g)
0.0230612	0.0526316
0.0951273	0.0526316
0.121071	0.0526316
0.172959	0.0526316
0.221964	0.0526316
0.256555	-3.55e-15
0.282499	0.0526316
0.331504	0.0526316
0.360331	0.0526316
0.415101	0.105263
0.466989	0.105263
0.515994	0.105263
0.573647	0.105263
0.605356	0.105263
0.634182	0.105263
0.660126	0.105263
0.688952	0.105263
0.714896	0.105263
0.743723	0.157895
0.769666	0.157895
0.798493	0.157895
0.827319	0.157895
0.853263	0.105263
0.867676	0.210526
0.899385	0.157895
0.939743	0.157895
0.9801	0.210526
1.0291	0.210526
1.08387	0.263158
