Adsorption isotherm of Carbon Dioxide on MMCF-1
DOI: 10.1039/C2ce25484k
Adsorbate Carbon Dioxide: InChIKey CURLTUGMZLYLDI-UHFFFAOYSA-N
Temperature: 195 K
Tabular data in the source: 0
pressure (bar)	uptake (cm3(STP)/g)
0.00273113	0.00273113
0.0109245	56.8178
0.0300425	65.5244
0.0464292	70.1715
0.062816	73.0794
0.081934	75.4092
0.103783	77.7405
0.122901	80.65
0.14475	82.4017
0.166599	85.3127
0.188448	87.0643
0.210297	88.816
0.232146	91.1473
0.256726	92.9005
0.278575	94.6521
0.303156	95.8256
0.327736	98.1585
0.349585	100.49
0.371434	102.241
0.396014	103.415
0.420594	105.168
0.445175	106.342
0.467024	108.093
0.491604	110.426
0.516184	111.6
0.540764	113.353
0.565344	114.526
0.587193	115.698
0.611774	118.031
0.636354	119.784
0.658203	120.956
0.682783	122.709
0.707363	123.883
0.729212	125.635
0.753792	127.388
0.775642	129.139
0.800222	130.893
0.824802	132.066
0.849382	133.24
0.873962	134.993
0.895811	137.324
0.920392	139.077
0.944972	140.831
0.969552	142.004
