Adsorption isotherm of Nitrogen on PAMAM grafted alpha-Fe2O3 nanofiber
DOI: 10.1016/j.jtice.2017.04.018
Article source: Figure 4a
Adsorbate Nitrogen: InChIKey IJGRMHOSHXDMSA-UHFFFAOYSA-N
Kind: experiment
Temperature: 77 K
Tabular data in the source: 0
pressure (bar)	uptake (cm3(STP)/g)
0.000983	4.737
0.048595	6.646
0.100006	7.717
0.150789	8.738
0.202514	9.694
0.25806	10.732
0.306614	11.753
0.356758	12.808
0.406265	13.813
0.457686	14.867
0.508145	15.921
0.55987	16.811
0.609063	17.783
0.659207	18.821
0.709991	19.924
0.760449	20.847
0.811232	22.806
0.862664	26.656
0.913781	30.622
0.934441	35.754
0.955729	39.867
0.973522	42.713
0.993837	44.802
1.00401	46.875
1.01354	49.918
