Adsorption isotherm of Nitrogen on alpha-Fe2O3 nanofiber
DOI: 10.1016/j.jtice.2017.04.018
Article source: Figure 4a
Adsorbate Nitrogen: InChIKey IJGRMHOSHXDMSA-UHFFFAOYSA-N
Kind: experiment
Temperature: 77 K
Tabular data in the source: 0
pressure (bar)	uptake (cm3(STP)/g)
0.001601	2.878
0.049527	4.015
0.099986	5.036
0.151721	6.09
0.202818	6.964
0.257087	8.035
0.306917	9.105
0.358957	9.091
0.404025	9.964
0.457331	10.015
0.508429	11.02
0.559516	11.071
0.60966	12.142
0.66171	12.225
0.70995	13
0.759771	13.1
0.812134	13.974
0.862269	14.058
0.914004	15.046
0.931776	16.116
0.953358	17.005
0.972093	17.976
0.995265	19.045
1.01399	20.181
