Adsorption isotherm of Nitrogen on CaO-SiO2
DOI: 10.1016/j.jtice.2017.04.018
Article source: Figure 1
Adsorbate Nitrogen: InChIKey IJGRMHOSHXDMSA-UHFFFAOYSA-N
Kind: experiment
Temperature: 77 K
Tabular data in the source: 0
pressure (bar)	uptake (cm3(STP)/g)
0.01454	69.761
0.040235	72.089
0.072497	74.321
0.110746	75.438
0.160536	77.282
0.212728	78.739
0.270087	80.196
0.319887	81.41
0.367093	82.964
0.42425	84.47
0.503332	86.849
0.562089	88.597
0.625224	90.878
0.683586	93.547
0.757085	96.993
0.800502	99.613
0.846716	103.493
0.870618	108.779
0.880375	107.519
0.890335	115.518
0.901491	112.367
0.910053	121.724
0.922607	117.992
0.927582	132.972
0.933955	129.239
0.943915	144.559
0.947299	143.832
0.959053	156.001
