Adsorption isotherm of Nitrogen on Rh(0.6)/CaO-SiO2-Cl
DOI: 10.1016/j.jtice.2017.04.018
Article source: Figure 1
Adsorbate Nitrogen: InChIKey IJGRMHOSHXDMSA-UHFFFAOYSA-N
Kind: experiment
Temperature: 77 K
Tabular data in the source: 0
pressure (bar)	uptake (cm3(STP)/g)
0.013344	45.813
0.053184	48.869
0.102579	50.956
0.161934	52.849
0.217905	54.5
0.279246	55.909
0.350355	57.706
0.404937	59.405
0.461901	60.765
0.514285	62.271
0.588778	64.407
0.646735	66.301
0.725219	69.747
0.780785	72.464
0.84094	76.248
0.881368	82.067
0.894317	81.438
0.919618	91.523
0.928179	89.487
0.940531	101.849
0.943915	100.589
0.961241	112.419
