Adsorption isotherm of Nitrogen on vinyl-functionalized alpha-Fe2O3 nanofiber
DOI: 10.1016/j.jtice.2017.04.018
Article source: Figure 4a
Adsorbate Nitrogen: InChIKey IJGRMHOSHXDMSA-UHFFFAOYSA-N
Kind: experiment
Temperature: 77 K
Tabular data in the source: 0
pressure (bar)	uptake (cm3(STP)/g)
0.003222	7.878
0.048291	8.998
0.101921	9.872
0.151437	10.926
0.202849	11.931
0.256165	13.035
0.30631	13.826
0.355502	14.896
0.406599	15.967
0.45802	17.91
0.458963	17.104
0.509422	18.01
0.51007	20
0.558938	19.031
0.561806	21.877
0.611302	20.086
0.611322	23.984
0.661133	20.893
0.661811	28.903
0.711591	22.046
0.712949	35.944
0.761736	23.1
0.762141	37.887
0.811901	28.003
0.812286	38.957
0.862421	38.005
0.862755	39.946
0.913903	50.013
