Adsorption isotherm of Nitrogen on Rh(0.6)/CaO-SiO2-NCl
DOI: 10.1016/j.jtice.2017.04.018
Article source: Figure 1
Adsorbate Nitrogen: InChIKey IJGRMHOSHXDMSA-UHFFFAOYSA-N
Kind: experiment
Temperature: 77 K
Tabular data in the source: 0
pressure (bar)	uptake (cm3(STP)/g)
0.01454	3.152
0.047206	6.207
0.082862	8.294
0.126482	10.09
0.175876	11.207
0.218898	12.469
0.278253	13.684
0.333829	15.141
0.378046	16.549
0.433014	17.909
0.475043	19.172
0.517274	20.386
0.562089	21.745
0.605709	23.153
0.653706	24.901
0.695734	26.793
0.742343	29.171
0.788952	31.985
0.832774	35.72
0.866828	39.067
0.879777	45.709
0.893122	43.625
0.907662	55.793
0.922009	50.898
0.92519	67.235
0.933357	62.921
0.944118	74.605
0.946509	84.204
0.955466	87.258
0.960643	94.676
