Adsorption isotherm of Nitrogen on Rh(0.36)/CaO-SiO2-NCl
DOI: 10.1016/j.jtice.2017.04.018
Article source: Figure 1
Adsorbate Nitrogen: InChIKey IJGRMHOSHXDMSA-UHFFFAOYSA-N
Kind: experiment
Temperature: 77 K
Tabular data in the source: 0
pressure (bar)	uptake (cm3(STP)/g)
0.01534	12.702
0.050986	16.34
0.092022	18.184
0.135641	19.883
0.180851	20.806
0.22826	22.602
0.275669	23.816
0.3408	25.855
0.400945	27.603
0.45951	29.06
0.51389	30.76
0.571847	33.041
0.620644	35.031
0.677213	37.312
0.732981	39.981
0.808476	45.027
0.850495	49.295
0.876393	56.083
0.888542	55.017
0.902291	64.132
0.918817	63.017
0.925393	76.64
0.935353	76.35
0.940136	86.385
0.950683	90.555
0.959448	100.929
