Adsorption isotherm of Nitrogen on ZnFe2O4 nanoparticles by calcining @ 800 C
DOI: 10.1002/slct.201700643
Article source: Figure 3
Adsorbate Nitrogen: InChIKey IJGRMHOSHXDMSA-UHFFFAOYSA-N
Kind: experiment
Temperature: 77 K
Tabular data in the source: 0
pressure (bar)	uptake (cm3(STP)/g)
0.019555	0.4989
0.044825	0.9971
0.045271	0.8455
0.059477	1.0073
0.071291	1.0688
0.084453	1.2486
0.095963	1.4771
0.121831	1.6747
0.140231	1.9135
0.16311	2.0932
0.183293	2.278
0.203487	2.4834
0.243114	2.8016
0.283785	3.1507
0.324011	3.4613
0.404471	4.1107
0.415536	4.2134
0.484324	4.9655
0.485672	4.7138
0.526039	5.4277
0.565818	5.8872
0.56672	5.5199
0.607533	6.3853
0.646268	6.8654
0.647768	6.4415
0.687689	7.3814
0.688297	6.9114
0.70997	7.222
0.727307	7.8589
0.749152	7.7715
0.762901	8.357
0.770531	8.0231
0.789367	8.6857
0.810006	8.5879
0.814779	9.0657
0.833777	8.9423
0.844092	9.4688
0.860546	9.2992
0.866666	9.8103
0.887012	9.7716
0.893436	10.2442
0.906598	10.1285
0.915555	10.6525
0.932759	10.6935
0.937684	11.1276
0.956823	11.3073
0.961302	11.7413
0.975355	12.0906
0.98416	12.9022
0.992074	13.4724
1.00265	15.4502
