Adsorption isotherm of Water on C24H40N2O16Cl2Cd3
DOI: 10.1016/j.inoche.2006.02.029
Adsorbate Water: InChIKey XLYOFNOQVPJJNP-UHFFFAOYSA-N
Temperature: 298 K
Tabular data in the source: 0
pressure (bar)	uptake (mmol/g)
0.000136429	0.227493
0.000271945	0.379155
0.000474122	0.515652
0.000609638	0.667316
0.000678309	0.818976
0.00148611	1.28913
0.00175513	1.42563
0.00195749	1.57729
0.00222651	1.71378
0.00242869	1.85028
0.00256402	1.98677
0.00276565	2.07777
0.00303449	2.1991
0.00330352	2.3356
0.00357272	2.48726
0.0037749	2.62376
0.00411077	2.76025
0.00417925	2.89675
0.00458123	2.97258
0.00505024	3.06358
0.00558628	3.16974
0.00605547	3.2759
0.00632413	3.38207
0.00685925	3.4124
0.00752825	3.4579
0.0081304	3.5034
0.00873255	3.54889
0.00920082	3.57923
0.00973576	3.59439
0.0103377	3.62472
0.0110064	3.63989
0.011675	3.65506
0.012277	3.68539
0.0129456	3.70056
0.0135476	3.73089
0.0141495	3.76123
0.0145508	3.77639
0.0152194	3.79155
0.0158212	3.80672
0.0164896	3.80672
0.0171583	3.82189
0.01776	3.83706
0.0184287	3.85222
0.0190971	3.85222
0.0196991	3.88256
0.0201674	3.91289
0.0207688	3.89772
0.0214372	3.89772
0.0221059	3.91289
0.0227078	3.94322
0.0232424	3.92805
0.0238444	3.95839
0.024513	3.97355
0.025115	4.00388
0.0257168	4.01905
0.0263191	4.07972
0.0269212	4.12521
0.0274567	4.18588
0.027992	4.23138
0.0287953	4.32238
0.0291971	4.38304
0.0295996	4.50437
0.0300021	4.6257
0.0304713	4.73186
0.0308737	4.83803
0.0313439	5.03519
