Adsorption isotherm of Ethene on CuCl(5.0)@HY
DOI: 10.1007/s10934-016-0308-7
Article source: Figure 6
Adsorbate Ethene: InChIKey VGGSQFUCUMXWEO-UHFFFAOYSA-N
Kind: experiment
Temperature: 323 K
Tabular data in the source: 0
pressure (bar)	uptake (mmol/g)
0.0096	0.01134
0.1777	1.43121
0.3219	1.61363
0.5958	1.73036
0.8494	1.80227
1.0511	1.82938
1.5035	1.88358
2.0135	1.93455
3.0772	1.9922
4.13	2.032
5.0885	2.07993
