Adsorption isotherm of Ethene on CuCl(5.0)@HY
DOI: 10.1007/s10934-016-0308-7
Article source: Figure 3
Adsorbate Ethene: InChIKey VGGSQFUCUMXWEO-UHFFFAOYSA-N
Kind: experiment
Temperature: 453 K
Tabular data in the source: 0
pressure (bar)	uptake (mmol/g)
0.0201	0.01116
0.1616	1.59838
0.4001	1.85224
0.7289	1.95066
1.0476	2.00338
2.113	2.10513
3.0389	2.17572
4.854	2.26101
