Adsorption isotherm of Ethene on CuCl(5.0)@HY
DOI: 10.1007/s10934-016-0308-7
Article source: Figure 6
Adsorbate Ethene: InChIKey VGGSQFUCUMXWEO-UHFFFAOYSA-N
Kind: experiment
Temperature: 313 K
Tabular data in the source: 0
pressure (bar)	uptake (mmol/g)
0.0125	0.00494
0.1663	1.50325
0.3278	1.69527
0.6045	1.8152
0.8292	1.86791
1.0137	1.89983
1.5036	1.95402
2.1144	2.00654
3.0809	2.06077
4.0466	2.10667
5.0486	2.16264
