Adsorption isotherm of Ethene on CuCl(5.0)@HY
DOI: 10.1007/s10934-016-0308-7
Article source: Figure 1
Adsorbate Ethene: InChIKey VGGSQFUCUMXWEO-UHFFFAOYSA-N
Kind: experiment
Temperature: 303 K
Tabular data in the source: 0
pressure (bar)	uptake (mmol/g)
0.0287	0.01215
0.1564	1.78399
0.3681	2.02649
0.726	2.09282
1.0866	2.14296
1.6133	2.20022
2.0799	2.24133
3.0418	2.29839
4.9713	2.3424
