Adsorption isotherm of Ethene on CuCl(6.0)@HY
DOI: 10.1007/s10934-016-0308-7
Article source: Figure 1
Adsorbate Ethene: InChIKey VGGSQFUCUMXWEO-UHFFFAOYSA-N
Kind: experiment
Temperature: 303 K
Tabular data in the source: 0
pressure (bar)	uptake (mmol/g)
0.0144	0.01216
0.168	1.57912
0.3597	1.81984
0.6373	1.92573
0.8491	1.97415
1.1096	2.01896
1.6191	2.06724
2.1487	2.11731
3.1049	2.16178
4.081	2.21164
5.0887	2.25968
