Adsorption isotherm of Ethene on CuCl(5.0)@HY
DOI: 10.1007/s10934-016-0308-7
Article source: Figure 3
Adsorbate Ethene: InChIKey VGGSQFUCUMXWEO-UHFFFAOYSA-N
Kind: experiment
Temperature: 303 K
Tabular data in the source: 0
pressure (bar)	uptake (mmol/g)
0.0143	0.01435
0.4039	0.51198
0.7308	0.57253
1.0578	0.63308
1.5454	0.68403
2.1535	0.72538
3.1575	0.77621
4.1098	0.83344
5.045	0.83963
