Adsorption isotherm of Ethane on CuCl(6.0)@HY
DOI: 10.1007/s10934-016-0308-7
Article source: Figure 1
Adsorbate Ethane: InChIKey OTMSDBZUPAUEDD-UHFFFAOYSA-N
Kind: experiment
Temperature: 303 K
Tabular data in the source: 0
pressure (bar)	uptake (mmol/g)
0.0221	0.00926
0.2622	0.31816
0.577	0.45907
0.8347	0.525
1.1038	0.58193
1.5105	0.64483
2.1576	0.71966
3.1428	0.77942
4.105	0.85119
4.9813	0.89897
