Adsorption isotherm of Ethane on CuCl(5.0)@HY
DOI: 10.1007/s10934-016-0308-7
Article source: Figure 6
Adsorbate Ethane: InChIKey OTMSDBZUPAUEDD-UHFFFAOYSA-N
Kind: experiment
Temperature: 323 K
Tabular data in the source: 0
pressure (bar)	uptake (mmol/g)
0.0218	0.00619
0.2313	0.27859
0.5144	0.40867
0.7976	0.48386
1.0808	0.55295
1.5012	0.61593
2.1227	0.68295
3.0824	0.76214
4.0696	0.821
4.9929	0.8453
