Adsorption isotherm of Ethene on CuCl(5.0)@HY
DOI: 10.1007/s10934-016-0308-7
Article source: Figure 4
Adsorbate Ethene: InChIKey VGGSQFUCUMXWEO-UHFFFAOYSA-N
Kind: experiment
Temperature: 393 K
Tabular data in the source: 0
pressure (bar)	uptake (mmol/g)
0.0212	0.0032
0.2541	0.91546
0.5427	1.03343
0.7854	1.0882
1.0223	1.13032
1.5713	1.20192
2.1031	1.26299
3.0974	1.33457
4.1149	1.39351
5.0515	1.43981
