Adsorption isotherm of Ethene on CuCl(5.0)@HY
DOI: 10.1007/s10934-016-0308-7
Article source: Figure 3
Adsorbate Ethene: InChIKey VGGSQFUCUMXWEO-UHFFFAOYSA-N
Kind: experiment
Temperature: 393 K
Tabular data in the source: 0
pressure (bar)	uptake (mmol/g)
0.0143	0.01435
0.2482	1.1852
0.4775	1.37019
0.8158	1.46903
1.0682	1.51683
2.0492	1.63786
3.1392	1.7174
4.1374	1.77781
5.1471	1.82545
