Adsorption isotherm of Ethane on CuCl(5.0)@HY
DOI: 10.1007/s10934-016-0308-7
Article source: Figure 1
Adsorbate Ethane: InChIKey OTMSDBZUPAUEDD-UHFFFAOYSA-N
Kind: experiment
Temperature: 303 K
Tabular data in the source: 0
pressure (bar)	uptake (mmol/g)
0.0221	0.00926
0.2621	0.37815
0.4968	0.50708
0.7716	0.60301
1.0751	0.67492
1.5447	0.74081
2.106	0.80067
3.1426	0.89341
4.0705	0.95318
5.0327	1.00995
