Adsorption isotherm of Ethane on CuCl(2.0)@HY
DOI: 10.1007/s10934-016-0308-7
Article source: Figure 1
Adsorbate Ethane: InChIKey OTMSDBZUPAUEDD-UHFFFAOYSA-N
Kind: experiment
Temperature: 303 K
Tabular data in the source: 0
pressure (bar)	uptake (mmol/g)
0.0163	0.01226
0.2191	0.41416
0.3676	0.71409
0.5964	0.957
0.8167	1.11143
1.0456	1.24636
1.5207	1.48772
2.0875	1.64956
3.0954	1.8173
4.0462	1.92507
4.931	2.02084
