Adsorption isotherm of Ethene on CuCl(5.0)@HY
DOI: 10.1007/s10934-016-0308-7
Article source: Figure 4
Adsorbate Ethene: InChIKey VGGSQFUCUMXWEO-UHFFFAOYSA-N
Kind: experiment
Temperature: 373 K
Tabular data in the source: 0
pressure (bar)	uptake (mmol/g)
0.027	0.00741
0.2832	0.89228
0.5719	0.99129
0.7971	1.04606
1.0861	1.08607
1.5195	1.14504
2.2132	1.20189
3.1209	1.25872
4.0517	1.30713
5.0808	1.35764
