Adsorption isotherm of Ethene on CuCl(5.0)@HY
DOI: 10.1007/s10934-016-0308-7
Article source: Figure 4
Adsorbate Ethene: InChIKey VGGSQFUCUMXWEO-UHFFFAOYSA-N
Kind: experiment
Temperature: 323 K
Tabular data in the source: 0
pressure (bar)	uptake (mmol/g)
0.0096	0.00741
0.3424	0.58889
0.7006	0.6605
1.0588	0.74055
1.5096	0.78266
2.053	0.82266
3.0417	0.87528
4.0188	0.90472
5.0943	0.94048
