Adsorption isotherm of Ethane on CuCl(5.0)@HY
DOI: 10.1007/s10934-016-0308-7
Article source: Figure 6
Adsorbate Ethane: InChIKey OTMSDBZUPAUEDD-UHFFFAOYSA-N
Kind: experiment
Temperature: 303 K
Tabular data in the source: 0
pressure (bar)	uptake (mmol/g)
0.0144	0.00341
0.2265	0.37222
0.4911	0.50795
0.75	0.59501
1.0723	0.66669
1.5386	0.73708
2.1029	0.79978
3.1278	0.88164
4.0664	0.92381
5.0223	0.97494
