Adsorption isotherm of Ethane on CuCl(5.0)@HY
DOI: 10.1007/s10934-016-0308-7
Article source: Figure 6
Adsorbate Ethane: InChIKey OTMSDBZUPAUEDD-UHFFFAOYSA-N
Kind: experiment
Temperature: 313 K
Tabular data in the source: 0
pressure (bar)	uptake (mmol/g)
0.0236	0.00484
0.213	0.30908
0.496	0.46356
0.7883	0.55298
1.1355	0.618
1.5467	0.68504
2.1225	0.75004
3.1097	0.81703
4.1335	0.87588
5.0019	0.90832
