Adsorption isotherm of Ethene on CuCl(5.0)@HY
DOI: 10.1007/s10934-016-0308-7
Article source: Figure 3
Adsorbate Ethene: InChIKey VGGSQFUCUMXWEO-UHFFFAOYSA-N
Kind: experiment
Temperature: 473 K
Tabular data in the source: 0
pressure (bar)	uptake (mmol/g)
0.012	0.01331
0.1475	1.58297
0.3135	1.80603
0.6133	1.90847
0.8337	1.95666
1.0758	1.99882
1.5131	2.04898
2.0805	2.09709
2.984	2.14916
3.9851	2.20121
5.0368	2.25324
