Adsorption isotherm of Ethene on CuCl(5.0)@HY
DOI: 10.1007/s10934-016-0308-7
Article source: Figure 6
Adsorbate Ethene: InChIKey VGGSQFUCUMXWEO-UHFFFAOYSA-N
Kind: experiment
Temperature: 333 K
Tabular data in the source: 0
pressure (bar)	uptake (mmol/g)
0.0159	0.00627
0.1998	1.35809
0.3463	1.54479
0.6163	1.65138
0.8542	1.71479
1.076	1.74899
1.4923	1.80977
2.0984	1.86283
3.0658	1.92206
4.0824	1.96712
5.0506	2.00346
