Adsorption isotherm of Ethene on CuCl(5.0)@HY
DOI: 10.1007/s10934-016-0308-7
Article source: Figure 6
Adsorbate Ethene: InChIKey VGGSQFUCUMXWEO-UHFFFAOYSA-N
Kind: experiment
Temperature: 303 K
Tabular data in the source: 0
pressure (bar)	uptake (mmol/g)
0.011	0.00894
0.1447	1.58971
0.3149	1.80814
0.5973	1.90565
0.8221	1.96477
1.0671	1.99346
1.5051	2.04606
2.077	2.0922
2.9963	2.14777
3.9904	2.2089
5.0291	2.2524
