Adsorption isotherm of Ethene on CuCl(5.0)@HY
DOI: 10.1007/s10934-016-0308-7
Article source: Figure 3
Adsorbate Ethene: InChIKey VGGSQFUCUMXWEO-UHFFFAOYSA-N
Kind: experiment
Temperature: 353 K
Tabular data in the source: 0
pressure (bar)	uptake (mmol/g)
0.0201	0.01754
0.2257	0.80873
0.3632	0.99375
0.627	1.08302
1.0744	1.15631
2.1185	1.26457
3.0765	1.32499
4.0002	1.36946
5.1247	1.42984
