Adsorption isotherm of Ethene on CuCl(5.0)@HY
DOI: 10.1007/s10934-016-0308-7
Article source: Figure 4
Adsorbate Ethene: InChIKey VGGSQFUCUMXWEO-UHFFFAOYSA-N
Kind: experiment
Temperature: 303 K
Tabular data in the source: 0
pressure (bar)	uptake (mmol/g)
0.0183	0.0032
0.4035	0.5025
0.7299	0.57623
1.0506	0.6352
1.5535	0.68258
2.1547	0.72574
3.1549	0.77941
4.1001	0.82887
5.0398	0.84988
