Adsorption isotherm of Ethene on CuCl(5.0)@HY
DOI: 10.1007/s10934-016-0308-7
Article source: Figure 4
Adsorbate Ethene: InChIKey VGGSQFUCUMXWEO-UHFFFAOYSA-N
Kind: experiment
Temperature: 353 K
Tabular data in the source: 0
pressure (bar)	uptake (mmol/g)
0.027	0.00319
0.2954	0.73637
0.746	0.84801
1.0638	0.89224
1.5609	0.94278
2.0755	0.97857
3.2028	1.04592
4.0643	1.08591
5.0183	1.11746
