Adsorption isotherm of Ethene on HY
DOI: 10.1007/s10934-016-0308-7
Article source: Figure 1
Adsorbate Ethene: InChIKey VGGSQFUCUMXWEO-UHFFFAOYSA-N
Kind: experiment
Temperature: 303 K
Tabular data in the source: 0
pressure (bar)	uptake (mmol/g)
0.0201	0.01755
0.2084	1.05436
0.3915	1.33821
0.7348	1.61839
1.021	1.79257
1.4617	2.00441
2.1029	2.20179
3.1591	2.42413
4.1009	2.56385
5.057	2.6856
