Adsorption isotherm of Ethene on CuCl(3.0)@HY
DOI: 10.1007/s10934-016-0308-7
Article source: Figure 1
Adsorbate Ethene: InChIKey VGGSQFUCUMXWEO-UHFFFAOYSA-N
Kind: experiment
Temperature: 303 K
Tabular data in the source: 0
pressure (bar)	uptake (mmol/g)
0.0287	0.01575
0.2024	1.49824
0.3426	1.67249
0.6059	1.81613
0.8492	1.90407
1.0552	1.96507
1.476	2.05113
2.0657	2.14969
3.0304	2.24628
3.9865	2.32669
5.1487	2.40881
