Adsorption isotherm of Ethene on CuCl(4.0)@HY
DOI: 10.1007/s10934-016-0308-7
Article source: Figure 1
Adsorbate Ethene: InChIKey VGGSQFUCUMXWEO-UHFFFAOYSA-N
Kind: experiment
Temperature: 303 K
Tabular data in the source: 0
pressure (bar)	uptake (mmol/g)
0.0216	0.01018
0.1505	1.59842
0.3379	1.87456
0.6192	1.96499
0.8356	2.00564
1.1097	2.05533
1.6723	2.13657
2.1412	2.18616
3.1366	2.25361
4.1393	2.32559
5.0626	2.38403
