Adsorption isotherm of Ethane on CuCl(5.0)@HY
DOI: 10.1007/s10934-016-0308-7
Article source: Figure 6
Adsorbate Ethane: InChIKey OTMSDBZUPAUEDD-UHFFFAOYSA-N
Kind: experiment
Temperature: 323 K
Tabular data in the source: 0
pressure (bar)	uptake (mmol/g)
0.0181	0.00363
0.2243	0.23757
0.5215	0.36098
0.8333	0.44566
1.1052	0.50695
1.5331	0.57467
2.1461	0.64642
3.0928	0.71893
4.8788	0.80014
