Adsorption isotherm of Ethane on CuCl(4.0)@HY
DOI: 10.1007/s10934-016-0308-7
Article source: Figure 1
Adsorbate Ethane: InChIKey OTMSDBZUPAUEDD-UHFFFAOYSA-N
Kind: experiment
Temperature: 303 K
Tabular data in the source: 0
pressure (bar)	uptake (mmol/g)
0.0278	0.01525
0.2277	0.41716
0.4738	0.58208
0.7428	0.705
1.1092	0.8249
1.5444	0.90878
2.14	0.99863
3.0965	1.09439
4.0702	1.15416
5.0496	1.23792
