Adsorption isotherm of Ethane on HY
DOI: 10.1007/s10934-016-0308-7
Article source: Figure 1
Adsorbate Ethane: InChIKey OTMSDBZUPAUEDD-UHFFFAOYSA-N
Kind: experiment
Temperature: 303 K
Tabular data in the source: 0
pressure (bar)	uptake (mmol/g)
0.0192	0.00776
0.2191	0.42466
0.3904	0.81007
0.6163	1.05449
0.8137	1.22092
1.0626	1.39034
1.489	1.60621
2.0444	1.78606
3.0551	1.99129
4.0401	2.13504
5.0195	2.2398
