Adsorption isotherm of Ethene on CuCl(5.0)@HY
DOI: 10.1007/s10934-016-0308-7
Article source: Figure 3
Adsorbate Ethene: InChIKey VGGSQFUCUMXWEO-UHFFFAOYSA-N
Kind: experiment
Temperature: 433 K
Tabular data in the source: 0
pressure (bar)	uptake (mmol/g)
0.0201	0.01276
0.1904	1.51861
0.3824	1.72276
0.7781	1.83275
1.1108	1.88851
2.0115	1.98244
2.9896	2.05402
3.833	2.09372
4.9259	2.15092
