Adsorption isotherm of Ethene on CuCl(2.0)@HY
DOI: 10.1007/s10934-016-0308-7
Article source: Figure 1
Adsorbate Ethene: InChIKey VGGSQFUCUMXWEO-UHFFFAOYSA-N
Kind: experiment
Temperature: 303 K
Tabular data in the source: 0
pressure (bar)	uptake (mmol/g)
0.0129	0.01126
0.194	1.23587
0.3771	1.47569
0.6618	1.68492
0.8435	1.77199
1.1412	1.89495
1.5333	2.01606
2.0428	2.12814
3.079	2.29298
4.1038	2.41469
5.0656	2.51128
