Adsorption isotherm of Ethene on CuCl(5.0)@HY
DOI: 10.1007/s10934-016-0308-7
Article source: Figure 4
Adsorbate Ethene: InChIKey VGGSQFUCUMXWEO-UHFFFAOYSA-N
Kind: experiment
Temperature: 413 K
Tabular data in the source: 0
pressure (bar)	uptake (mmol/g)
0.0212	0.0053
0.2773	0.8986
0.5139	1.01026
0.8143	1.08398
1.0454	1.12821
1.5656	1.19982
2.1552	1.25456
3.0801	1.32193
4.167	1.3914
5.1152	1.42927
