Adsorption isotherm of Ethane on CuCl(3.0)@HY
DOI: 10.1007/s10934-016-0308-7
Article source: Figure 1
Adsorbate Ethane: InChIKey OTMSDBZUPAUEDD-UHFFFAOYSA-N
Kind: experiment
Temperature: 303 K
Tabular data in the source: 0
pressure (bar)	uptake (mmol/g)
0.0171	0.00614
0.2222	0.41047
0.4131	0.67498
0.633	0.8261
0.8855	0.91485
1.1019	0.98661
1.4915	1.06777
2.112	1.16211
3.0861	1.2677
4.1072	1.34871
4.919	1.42032
