Adsorption isotherm of Hydrogen on Pristine VO
DOI: 10.1016/j.ijhydene.2009.11.089
Adsorbate Hydrogen: InChIKey UFHFLCQGNIYNRP-UHFFFAOYSA-N
Temperature: 77 K
Tabular data in the source: 0
pressure (bar)	uptake (wt%)
2.8807	0.0430725
7.77482	0.0605515
13.7395	0.0649212
22.4572	0.0955095
25.3631	0.112988
28.4219	0.143577
34.5395	0.143577
40.3513	0.174165
46.316	0.169795
70.6336	0.152316
