Adsorption isotherm of Hydrogen on PANI
DOI: 10.1016/j.ijhydene.2009.11.089
Adsorbate Hydrogen: InChIKey UFHFLCQGNIYNRP-UHFFFAOYSA-N
Temperature: 77 K
Tabular data in the source: 0
pressure (bar)	uptake (wt%)
2.11599	0.0430725
7.46893	0.0561818
11.1395	0.0605515
16.6454	0.08677
19.8572	0.0911397
25.6689	0.112988
28.5748	0.147946
37.5983	0.143577
40.8101	0.161056
43.563	0.178535
46.4689	0.156686
70.7866	0.152316
