Adsorption isotherm of Hydrogen on PANI-VONC
DOI: 10.1016/j.ijhydene.2009.11.089
Adsorbate Hydrogen: InChIKey UFHFLCQGNIYNRP-UHFFFAOYSA-N
Temperature: 77 K
Tabular data in the source: 0
pressure (bar)	uptake (wt%)
1.0454	0.0955095
3.95129	0.126098
7.77482	0.169795
12.2101	0.26156
16.7983	0.230972
21.0807	0.344585
24.9042	0.357694
32.5513	0.493157
34.8454	0.576182
38.9748	0.659207
41.5748	0.729123
45.7042	0.61114
48.916	0.820888
51.363	0.925762
58.2454	1.19669
60.9983	1.36274
63.1395	1.51131
71.7042	1.72543
