Adsorption isotherm of Nitrogen on PANI-VONC
DOI: 10.1016/j.ijhydene.2009.11.089
Adsorbate Nitrogen: InChIKey IJGRMHOSHXDMSA-UHFFFAOYSA-N
Temperature: 77 K
Tabular data in the source: 0
pressure (bar)	uptake (cm3(STP)/g)
0.00619484	1.34832
0.021489	12.1853
0.0761108	16.0307
0.499976	27.2172
0.637623	31.7618
0.735943	37.355
0.799304	42.9483
0.886699	55.8828
0.941321	75.1097
0.960985	97.8324
0.967539	117.409
0.980649	138.733
0.982834	148.871
