Adsorption isotherm of Hydrogen on PANI-VONC
DOI: 10.1016/j.ijhydene.2009.11.089
Adsorbate Hydrogen: InChIKey UFHFLCQGNIYNRP-UHFFFAOYSA-N
Temperature: 298 K
Tabular data in the source: 0
pressure (bar)	uptake (wt%)
3.24133	0.0034458
6.08167	0.00204748
12.1993	0.00729118
17.2245	0.00274664
23.3422	0.0146324
32.7371	0.0310626
38.4178	0.0425987
40.8212	0.0495903
44.317	0.0544845
46.9388	0.0541349
56.3338	0.0810525
59.6111	0.0988811
62.0144	0.103076
65.9472	0.106572
69.006	0.11671
71.4094	0.115661
73.8128	0.116011
79.9304	0.131042
89.7623	0.16635
