Adsorption isotherm of Hydrogen on PANI-VONC
DOI: 10.1016/j.ijhydene.2009.11.089
Adsorbate Hydrogen: InChIKey UFHFLCQGNIYNRP-UHFFFAOYSA-N
Temperature: 77 K
Tabular data in the source: 0
pressure (bar)	uptake (wt%)
0.00533325	0.000506
0.037298	0.0117796
0.0721685	0.0176787
0.12738	0.0244955
0.162251	0.0277728
0.231992	0.0323611
0.32498	0.0376048
0.435404	0.0417997
0.531298	0.0453392
0.627192	0.0479611
0.760863	0.0516317
0.926498	0.0555644
0.993333	0.0566132
1.09504	0.0584485
