Adsorption isotherm of Ethanol on {(H2PIP)0.5[VO(CEP)]*H2O}
DOI: 10.1021/Ic200463k
Adsorbate Ethanol: InChIKey LFQSCWFLJHTTHZ-UHFFFAOYSA-N
Temperature: 298 K
Tabular data in the source: 0
pressure (bar)	uptake (mg/g)
0.119566	3.36632
0.266871	4.36742
0.414176	4.86797
0.604385	5.46863
0.747399	6.06929
0.95763	6.36962
