Adsorption isotherm of Water on {(H2PIP)0.5[VO(CEP)]*H2O}
DOI: 10.1021/Ic200463k
Adsorbate Water: InChIKey XLYOFNOQVPJJNP-UHFFFAOYSA-N
Temperature: 298 K
Tabular data in the source: 0
pressure (bar)	uptake (mg/g)
0.0866732	2.56544
0.15103	4.56764
0.195364	6.36962
0.222537	8.67215
0.236838	17.5819
0.25543	34.7008
0.301195	44.3113
0.395584	51.319
0.439919	53.2211
0.478532	55.0231
0.541459	56.5247
0.640139	58.627
0.771712	61.33
