Adsorption isotherm of Methanol on {(H2PIP)0.5[VO(CEP)]*H2O}
DOI: 10.1021/Ic200463k
Adsorbate Methanol: InChIKey OKKJLVBELUTLKV-UHFFFAOYSA-N
Temperature: 293 K
Tabular data in the source: 0
pressure (bar)	uptake (mg/g)
0.0823828	0.26291
0.136728	0.56324
0.188213	0.56324
0.243989	0.76346
0.308345	0.96368
0.404165	0.96368
0.504275	1.1639
0.638708	1.76456
0.741679	1.76456
0.860381	2.26511
0.919016	2.66555
0.971932	3.1661
