Adsorption isotherm of Nitrogen on Y3.5-MOF-5
DOI: 10.1016/j.snb.2014.05.051
Adsorbate Nitrogen: InChIKey IJGRMHOSHXDMSA-UHFFFAOYSA-N
Temperature: 77 K
Tabular data in the source: 0
pressure (bar)	uptake (cm3(STP)/g)
0.00835183	66.2115
0.0233881	67.0963
0.0410801	67.6256
0.0459162	68.5123
0.0939448	69.9237
0.144682	70.802
0.182722	71.5051
0.230855	72.5614
0.27426	72.3759
0.325049	73.0767
0.38604	73.7756
0.478333	80.6818
0.524287	80.4959
0.570135	80.6651
0.61593	81.0117
0.671926	81.3565
0.712726	81.3491
0.76102	81.8728
0.786467	82.0456
0.806656	82.752
0.842251	83.1005
0.846929	84.5198
0.884176	87.8858
0.908621	91.4316
0.938656	101.899
0.94743	106.691
