Adsorption isotherm of Nitrogen on IRMOF-1
DOI: 10.1016/j.snb.2014.05.051
Adsorbate Nitrogen: InChIKey IJGRMHOSHXDMSA-UHFFFAOYSA-N
Temperature: 77 K
Tabular data in the source: 0
pressure (bar)	uptake (cm3(STP)/g)
0.00543208	67.4546
0.0150514	69.4055
0.027432	70.6459
0.0347654	71.7096
0.0447543	72.4179
0.0877885	73.4751
0.143573	74.53
0.179063	75.2336
0.227303	75.9348
0.278145	76.4581
0.326438	76.9818
0.377228	77.6826
0.430304	79.2705
0.472335	83.7007
0.525886	83.6909
0.571681	84.0376
0.617529	84.2067
0.665875	84.5529
0.709173	84.7225
0.757518	85.0687
0.785517	85.2411
0.803156	85.9479
0.838804	86.1189
0.848951	86.2946
0.903996	89.8348
0.93806	95.3316
