Adsorption isotherm of Nitrogen on IRMOF-1
DOI: 10.1016/j.snb.2014.05.051
Adsorbate Nitrogen: InChIKey IJGRMHOSHXDMSA-UHFFFAOYSA-N
Temperature: 77 K
Tabular data in the source: 0
pressure (bar)	uptake (cm3(STP)/g)
0.00543208	67.4546
0.0150514	69.4055
0.027432	70.6459
0.0347654	71.7096
0.0447543	72.4179
0.100064	75.0705
0.13805	75.9511
0.198882	77.1826
0.226827	77.5325
0.290209	78.7635
0.328354	79.1116
0.379144	79.8124
0.430039	80.1581
0.478333	80.6818
0.531672	81.3821
0.582462	82.0829
0.623263	82.0755
0.671556	82.5992
0.714643	83.4789
0.773083	84.1783
0.813726	84.7034
0.859468	85.2276
0.904842	86.9944
0.93173	90.8948
0.94571	95.3302
