Adsorption isotherm of Nitrogen on Y3.5-MOF-5
DOI: 10.1016/j.snb.2014.05.051
Adsorbate Nitrogen: InChIKey IJGRMHOSHXDMSA-UHFFFAOYSA-N
Temperature: 77 K
Tabular data in the source: 0
pressure (bar)	uptake (cm3(STP)/g)
0.00835183	66.2115
0.0233881	67.0963
0.0410801	67.6256
0.0459162	68.5123
0.101384	70.6324
0.136662	72.046
0.192446	73.1009
0.23038	74.1591
0.291371	74.858
0.327177	74.4964
0.38567	75.0183
0.431466	75.365
0.479811	75.7111
0.533257	76.0564
0.584205	76.2246
0.624795	76.9273
0.670643	77.0964
0.718989	77.4426
0.772434	77.7879
0.815574	78.49
0.858608	79.5473
0.909081	81.3132
0.935072	88.2315
0.936211	101.545
0.942277	106.869
