Adsorption isotherm of Nitrogen on Cr-MIL(101)
DOI: 10.1021/Cs400681s
Adsorbate Nitrogen: InChIKey IJGRMHOSHXDMSA-UHFFFAOYSA-N
Temperature: 77 K
Tabular data in the source: 0
pressure (bar)	uptake (ml/g)
0.025177	349.85
0.0394785	397.045
0.065221	435.659
0.085243	468.552
0.131008	557.221
0.181063	600.125
0.228257	671.633
0.281173	687.364
0.328367	695.945
0.375562	701.666
0.55433	714.537
0.6573	721.688
0.75312	733.129
0.8518	735.989
0.920447	751.721
0.974792	778.893
0.993384	873.283
