Adsorption isotherm of Nitrogen on Cr-MIL(101)
DOI: 10.1021/Cs400681s
Adsorbate Nitrogen: InChIKey IJGRMHOSHXDMSA-UHFFFAOYSA-N
Temperature: 77 K
Tabular data in the source: 0
pressure (bar)	uptake (ml/g)
0.0266072	288.354
0.0480593	329.828
0.0881033	392.755
0.132438	462.832
0.183923	502.876
0.235408	564.372
0.282603	578.673
0.382713	588.684
0.561481	605.846
0.65873	610.136
0.75598	614.427
0.85609	618.717
0.931888	625.868
0.980513	660.191
0.994814	734.559
