Adsorption isotherm of Nitrogen on Cr-MIL(101)
DOI: 10.1021/Cs400681s
Adsorbate Nitrogen: InChIKey IJGRMHOSHXDMSA-UHFFFAOYSA-N
Temperature: 77 K
Tabular data in the source: 0
pressure (bar)	uptake (ml/g)
0.0137359	279.773
0.0266072	324.108
0.0466292	374.163
0.0866732	434.229
0.129577	521.468
0.182493	560.081
0.231118	630.159
0.278312	641.6
0.329798	648.75
0.378422	653.041
0.55862	668.772
0.6573	675.923
0.75026	684.504
0.85609	685.934
0.924737	695.945
0.977652	727.408
0.991954	813.217
