Adsorption isotherm of Nitrogen on Cr-MIL(101)
DOI: 10.1021/Cs400681s
Adsorbate Nitrogen: InChIKey IJGRMHOSHXDMSA-UHFFFAOYSA-N
Temperature: 77 K
Tabular data in the source: 0
pressure (bar)	uptake (ml/g)
0.00801532	5.186
0.0123058	103.866
0.0137359	159.641
0.0280373	231.149
0.065221	284.064
0.129577	359.861
0.171052	387.034
0.223967	435.659
0.275452	447.1
0.365551	454.251
0.547179	467.122
0.642999	469.982
0.735958	475.703
0.837498	479.993
0.904715	481.424
0.95763	512.887
1.00196	564.372
