Adsorption isotherm of Methane on CuBTC
DOI: 10.1016/j.micromeso.2010.07.020
Adsorbate Methane: InChIKey VNWKTOKETHGBQD-UHFFFAOYSA-N
Temperature: 353 K
Tabular data in the source: 0
pressure (bar)	uptake (molecules/unitcell)
5.79122	34.8799
14.3122	76.9387
34.6316	123.913
50.3627	143.577
77.2366	158.871
99.5223	164.334
128.363	163.787
152.615	159.964
189.321	152.863
201.119	149.04
