Adsorption isotherm of Methane on CuBTC
DOI: 10.1016/j.micromeso.2010.07.020
Adsorbate Methane: InChIKey VNWKTOKETHGBQD-UHFFFAOYSA-N
Temperature: 373 K
Tabular data in the source: 0
pressure (bar)	uptake (molecules/unitcell)
9.724	29.4177
23.4887	69.8378
31.3542	88.4093
41.8416	111.35
49.7072	120.09
73.9593	132.653
81.1694	139.208
107.388	143.577
146.06	136.477
153.926	144.67
180.8	131.561
192.598	138.661
226.682	121.182
242.413	129.922
290.917	112.989
