Adsorption isotherm of Methane on CuBTC
DOI: 10.1016/j.micromeso.2010.07.020
Adsorbate Methane: InChIKey VNWKTOKETHGBQD-UHFFFAOYSA-N
Temperature: 285 K
Tabular data in the source: 0
pressure (bar)	uptake (molecules/unitcell)
1.20299	44.7118
4.4803	89.5017
9.06854	109.712
10.3795	128.283
20.8669	183.451
34.6316	211.855
44.4635	226.603
83.7912	232.065
96.245	223.325
227.337	144.124
243.069	149.04
300.094	116.813
