Adsorption isotherm of Methane on CuBTC
DOI: 10.1016/j.micromeso.2010.07.020
Adsorbate Methane: InChIKey VNWKTOKETHGBQD-UHFFFAOYSA-N
Temperature: 303 K
Tabular data in the source: 0
pressure (bar)	uptake (molecules/unitcell)
5.79122	83.4933
15.6232	147.947
33.9761	202.023
53.64	217.863
62.161	218.409
74.6148	217.317
107.388	211.308
147.371	193.829
170.312	180.72
195.22	169.796
