Adsorption isotherm of Methane on CuBTC
DOI: 10.1016/j.micromeso.2010.07.020
Adsorbate Methane: InChIKey VNWKTOKETHGBQD-UHFFFAOYSA-N
Temperature: 353 K
Tabular data in the source: 0
pressure (bar)	uptake (molecules/unitcell)
2.51391	14.6698
9.724	52.9051
19.5559	85.6782
28.7324	110.258
52.9845	138.115
74.6148	151.771
96.245	156.687
136.228	153.409
184.077	147.947
287.64	120.636
