Adsorption isotherm of Methane on CuBTC
DOI: 10.1016/j.micromeso.2010.07.020
Adsorbate Methane: InChIKey VNWKTOKETHGBQD-UHFFFAOYSA-N
Temperature: 77 K
Tabular data in the source: 0
pressure (bar)	uptake (molecules/unitcell)
6.28e-06	4.30725
4.49e-05	10.4249
0.000122	29.2148
0.000366	34.0215
0.000602	37.5173
0.000964	68.1056
0.00176232	117.047
0.00745323	119.669
0.019154	126.223
0.0518739	158.559
0.1265	167.299
0.609936	175.601
