Adsorption isotherm of Methane on CuBTC
DOI: 10.1016/j.micromeso.2010.07.020
Adsorbate Methane: InChIKey VNWKTOKETHGBQD-UHFFFAOYSA-N
Temperature: 373 K
Tabular data in the source: 0
pressure (bar)	uptake (molecules/unitcell)
1.85845	1.01432
8.41307	41.4345
17.5895	67.653
41.8416	118.451
76.5811	142.485
98.2114	148.493
123.119	152.863
149.993	150.678
172.279	146.308
201.119	142.485
