Adsorption isotherm of Methane on CuBTC
DOI: 10.1016/j.micromeso.2010.07.020
Adsorbate Methane: InChIKey VNWKTOKETHGBQD-UHFFFAOYSA-N
Temperature: 285 K
Tabular data in the source: 0
pressure (bar)	uptake (molecules/unitcell)
5.79122	118.998
16.2786	192.737
37.2534	235.342
50.3627	241.897
79.203	238.619
129.674	208.577
151.959	197.107
178.178	177.443
