Adsorption isotherm of Methane on CuBTC
DOI: 10.1016/j.micromeso.2010.07.020
Adsorbate Methane: InChIKey VNWKTOKETHGBQD-UHFFFAOYSA-N
Temperature: 303 K
Tabular data in the source: 0
pressure (bar)	uptake (molecules/unitcell)
1.20299	32.1488
9.724	101.519
20.8669	152.317
32.6652	184.544
53.64	200.93
66.7492	210.762
91.6568	208.577
105.421	210.216
121.808	197.653
179.489	170.888
260.111	137.023
292.884	121.729
