Adsorption isotherm of Methane on CuBTC
DOI: 10.1016/j.micromeso.2010.07.020
Adsorbate Methane: InChIKey VNWKTOKETHGBQD-UHFFFAOYSA-N
Temperature: 333 K
Tabular data in the source: 0
pressure (bar)	uptake (molecules/unitcell)
10.3795	62.1908
20.8669	109.712
30.6988	135.384
45.119	154.502
63.4719	171.981
75.2702	170.342
89.6904	179.082
126.396	173.073
167.69	164.88
276.497	126.098
