Adsorption isotherm of Methane on CuBTC
DOI: 10.1016/j.micromeso.2010.07.020
Adsorbate Methane: InChIKey VNWKTOKETHGBQD-UHFFFAOYSA-N
Temperature: 87 K
Tabular data in the source: 0
pressure (bar)	uptake (molecules/unitcell)
0.00247805	13.4837
0.00275205	25.282
0.00357702	58.9291
0.00441178	74.6602
0.0047728	82.0888
0.00620353	90.3913
0.00636833	136.274
0.00726036	152.005
0.0177052	163.366
0.0492239	172.98
