Adsorption isotherm of Methane on CuBTC
DOI: 10.1016/j.micromeso.2010.07.020
Adsorbate Methane: InChIKey VNWKTOKETHGBQD-UHFFFAOYSA-N
Temperature: 77 K
Tabular data in the source: 0
pressure (bar)	uptake (molecules/unitcell)
0.00139189	7.36607
0.00162901	13.0467
0.00180914	29.6518
0.00200917	75.0972
0.00200917	91.2652
0.00268083	100.442
0.00339429	119.669
0.00441178	146.761
0.00516337	154.19
0.011639	174.29
0.0420588	186.963
