Adsorption isotherm of Methane on CuBTC
DOI: 10.1016/j.micromeso.2010.07.020
Adsorbate Methane: InChIKey VNWKTOKETHGBQD-UHFFFAOYSA-N
Temperature: 333 K
Tabular data in the source: 0
pressure (bar)	uptake (molecules/unitcell)
5.13576	52.3589
14.9677	104.25
33.9761	158.871
58.8837	190.006
75.2702	194.922
104.111	194.922
122.463	190.006
199.153	165.426
