Adsorption isotherm of Methane on CuBTC
DOI: 10.1016/j.micromeso.2010.07.020
Adsorbate Methane: InChIKey VNWKTOKETHGBQD-UHFFFAOYSA-N
Temperature: 87 K
Tabular data in the source: 0
pressure (bar)	uptake (molecules/unitcell)
6.28e-06	0.374478
4.61e-05	4.74423
0.0002	9.55095
0.000338	13.9207
0.000602	27.4669
0.00261146	39.7022
0.0047728	112.24
0.0177052	117.047
0.0518739	129.719
0.140488	159.433
0.659848	170.358
