Adsorption isotherm of Nitrogen on MOF-14 (2)
DOI: 10.1002/chem.201402923
Adsorbate Nitrogen: InChIKey IJGRMHOSHXDMSA-UHFFFAOYSA-N
Temperature: 77 K
Tabular data in the source: 0
pressure (bar)	uptake (cm3(STP)/g)
0.00416069	251.589
0.00624102	212.035
0.00832137	232.608
0.0166427	299.078
0.0353659	322.842
0.0582496	330.791
0.0811334	338.74
0.106098	341.945
0.126901	345.143
0.147704	345.177
0.210115	353.19
0.260043	354.854
0.312051	354.939
0.36198	358.184
0.409828	361.427
0.455595	361.502
0.505524	361.583
0.557532	361.668
0.60746	363.331
0.653228	366.57
0.703156	366.652
0.751003	368.312
0.798852	369.972
0.84878	370.053
0.896627	370.131
0.944476	373.374
