Adsorption isotherm of Nitrogen on MOF-14
DOI: 10.1002/chem.201402923
Adsorbate Nitrogen: InChIKey IJGRMHOSHXDMSA-UHFFFAOYSA-N
Temperature: 77 K
Tabular data in the source: 0
pressure (bar)	uptake (cm3(STP)/g)
0.00416069	306.969
0.00624102	322.795
0.018723	405.094
0.0291248	419.351
0.0374462	428.858
0.0582496	441.551
0.0769727	446.328
0.0936154	451.102
0.110258	455.876
0.128981	459.071
0.149785	460.687
0.197632	468.676
0.249641	471.926
0.299569	476.754
0.349498	480
0.399426	481.663
0.447273	484.906
0.495122	486.566
0.54713	488.233
0.597058	489.896
0.646987	493.142
0.696915	494.806
0.744762	494.884
0.792611	496.544
0.840458	499.787
0.890386	498.286
0.942395	501.535
0.959038	501.562
