Adsorption isotherm of Nitrogen on MOF-14 (4)
DOI: 10.1002/chem.201402923
Adsorbate Nitrogen: InChIKey IJGRMHOSHXDMSA-UHFFFAOYSA-N
Temperature: 77 K
Tabular data in the source: 0
pressure (bar)	uptake (cm3(STP)/g)
0.00416069	0.00428266
0.00624102	60.1367
0.00832137	99.6971
0.0208034	164.591
0.0249641	178.838
0.0353659	180.437
0.0520086	185.211
0.0748923	194.742
0.0998567	201.112
0.12274	202.732
0.143544	207.512
0.164347	210.711
0.208034	215.529
0.255882	220.353
0.30373	223.596
0.357819	225.266
0.409828	226.933
0.459755	228.597
0.511765	230.264
0.557532	231.921
0.60954	232.005
0.655308	233.662
0.703156	233.74
0.755164	236.989
0.803012	237.067
0.84878	237.142
0.896627	237.22
0.948636	238.887
