Adsorption isotherm of Nitrogen on MOF-14 (3)
DOI: 10.1002/chem.201402923
Adsorbate Nitrogen: InChIKey IJGRMHOSHXDMSA-UHFFFAOYSA-N
Temperature: 77 K
Tabular data in the source: 0
pressure (bar)	uptake (cm3(STP)/g)
0.00832137	142.419
0.0332854	199.421
0.0499283	205.778
0.0748923	212.147
0.0956958	218.51
0.11858	223.294
0.141463	226.496
0.164347	231.28
0.203873	236.092
0.249641	240.913
0.30165	245.744
0.355739	250.579
0.405667	253.825
0.459755	253.913
0.509684	257.159
0.559612	258.823
0.60746	260.483
0.657389	262.147
0.705236	263.807
0.751003	263.881
0.798852	265.542
0.846699	267.202
0.898708	270.451
0.946556	272.111
