Adsorption isotherm of Nitrogen on MOF-14 (1)
DOI: 10.1002/chem.201402923
Adsorbate Nitrogen: InChIKey IJGRMHOSHXDMSA-UHFFFAOYSA-N
Temperature: 77 K
Tabular data in the source: 0
pressure (bar)	uptake (cm3(STP)/g)
0.00416069	305.387
0.0145624	310.15
0.0228838	319.658
0.0603299	343.453
0.0769727	348.227
0.0977757	351.425
0.124821	354.634
0.147704	357.835
0.162267	359.441
0.210115	365.849
0.255882	369.088
0.30581	370.751
0.357819	374
0.405667	377.243
0.455595	378.907
0.499283	380.56
0.54921	383.806
0.601219	385.473
0.651148	388.719
0.694834	388.79
0.744762	392.036
0.792611	395.278
0.844619	396.945
0.896627	401.777
0.944476	400.272
