Adsorption isotherm of Nitrogen on MOF-14
DOI: 10.1002/chem.201402923
Adsorbate Nitrogen: InChIKey IJGRMHOSHXDMSA-UHFFFAOYSA-N
Temperature: 77 K
Tabular data in the source: 0
pressure (bar)	uptake (cm3(STP)/g)
0.00416069	259.5
0.00624102	267.415
0.0104017	292.738
0.0124821	310.147
0.0145624	305.403
0.0249641	322.825
0.0416069	329.182
0.0582496	333.956
0.085294	340.329
0.101937	343.52
0.128981	345.147
0.174749	349.968
0.218436	353.204
0.268364	354.867
0.312051	356.521
0.36198	359.767
0.413988	359.851
0.455595	363.084
0.501363	364.741
0.54921	366.401
0.594978	366.475
0.642826	368.136
0.690674	368.213
0.740602	368.295
0.78845	369.955
0.834217	370.03
0.882065	371.69
0.942395	371.788
