Adsorption isotherm of Nitrogen on MOF-14
DOI: 10.1002/chem.201402923
Adsorbate Nitrogen: InChIKey IJGRMHOSHXDMSA-UHFFFAOYSA-N
Temperature: 77 K
Tabular data in the source: 0
pressure (bar)	uptake (cm3(STP)/g)
0.0124821	311.729
0.0249641	329.155
0.0436872	337.096
0.0603299	345.035
0.0748923	348.223
0.0915351	349.833
0.110258	354.61
0.131062	357.808
0.172668	362.623
0.224677	365.872
0.270445	369.111
0.316212	372.35
0.372382	374.024
0.42439	382.02
0.457675	391.568
0.503443	391.643
0.54921	394.882
0.597058	394.96
0.644907	396.62
0.701075	396.711
0.736441	396.769
0.78637	396.85
0.836298	396.932
0.886226	400.178
0.940315	398.683
