Adsorption isotherm of Nitrogen on MOF-14
DOI: 10.1002/chem.201402923
Adsorbate Nitrogen: InChIKey IJGRMHOSHXDMSA-UHFFFAOYSA-N
Temperature: 77 K
Tabular data in the source: 0
pressure (bar)	uptake (cm3(STP)/g)
0.00208034	167.725
0.0104017	177.232
0.0166427	186.736
0.0249641	199.408
0.0416069	207.346
0.0603299	213.706
0.0832137	220.072
0.0977757	220.096
0.116499	223.291
0.141463	228.078
0.18515	234.479
0.230918	239.3
0.272525	242.532
0.320372	248.94
0.370301	252.185
0.42647	255.441
0.453514	261.815
0.497202	265.05
0.54297	265.125
0.592897	265.206
0.640746	268.449
0.698995	268.543
0.73228	267.015
0.78429	268.682
0.830057	268.757
0.879985	270.421
0.936154	272.094
