Adsorption isotherm of Nitrogen on MOF-14
DOI: 10.1002/chem.201402923
Adsorbate Nitrogen: InChIKey IJGRMHOSHXDMSA-UHFFFAOYSA-N
Temperature: 77 K
Tabular data in the source: 0
pressure (bar)	uptake (cm3(STP)/g)
0.00416069	0.00428266
0.00624102	349.694
0.00832137	375.014
0.0124821	387.679
0.0228838	414.594
0.0270445	425.677
0.0395265	435.191
0.066571	446.311
0.0894547	451.095
0.104017	455.866
0.12066	459.057
0.139383	460.67
0.18515	467.074
0.230918	471.895
0.276686	475.134
0.326613	479.962
0.376542	481.626
0.420229	486.444
0.459755	488.091
0.507604	491.333
0.553371	492.99
0.599138	493.064
0.649067	494.728
0.692754	494.799
0.740602	496.459
0.78845	496.537
0.838378	498.201
0.886226	498.279
0.931994	499.936
