Adsorption isotherm of Nitrogen on MOF-14
DOI: 10.1002/chem.201402923
Adsorbate Nitrogen: InChIKey IJGRMHOSHXDMSA-UHFFFAOYSA-N
Temperature: 77 K
Tabular data in the source: 0
pressure (bar)	uptake (cm3(STP)/g)
0.00624102	0.00642398
0.00832137	156.659
0.0104017	161.409
0.0166427	174.078
0.0249641	182.003
0.0374462	188.352
0.0624103	194.722
0.0811334	202.664
0.0998567	204.277
0.11858	210.636
0.139383	210.67
0.18099	217.067
0.222597	221.882
0.270445	223.542
0.314131	226.777
0.3599	228.434
0.411908	230.101
0.455595	233.337
0.497202	233.405
0.54713	235.068
0.594978	235.146
0.640746	236.803
0.690674	235.302
0.734361	238.538
0.78637	238.623
0.830057	238.694
0.879985	238.775
0.940315	240.456
