Adsorption isotherm of Nitrogen on MIL-53S
DOI: 10.1016/j.fuel.2012.06.016
Adsorbate Nitrogen: InChIKey IJGRMHOSHXDMSA-UHFFFAOYSA-N
Temperature: 298 K
Tabular data in the source: 0
pressure (bar)	uptake (mmol/g)
0.0347934	0.0213118
0.0521739	0
0.0753948	0.0639353
0.115985	0.085247
0.136286	0.106559
0.156576	0.106559
0.173967	0.106559
0.231971	0.170494
0.27546	0.191806
0.316061	0.234429
0.376941	0.255741
0.434934	0.298365
0.469727	0.319676
0.527709	0.340988
0.588611	0.404923
0.646604	0.447547
0.707484	0.468859
0.768376	0.511482
0.817662	0.532794
0.869857	0.575418
0.922053	0.618041
0.974227	0.618041
1.02352	0.660665
