Adsorption isotherm of Carbon Dioxide on MIL-53C
DOI: 10.1016/j.fuel.2012.06.016
Adsorbate Carbon Dioxide: InChIKey CURLTUGMZLYLDI-UHFFFAOYSA-N
Temperature: 298 K
Tabular data in the source: 0
pressure (bar)	uptake (mmol/g)
0.0261847	0.122548
0.0378549	0.217862
0.0552896	0.272328
0.0785323	0.34041
0.0959561	0.381259
0.10755	0.381259
0.154025	0.503807
0.206264	0.585505
0.258514	0.68082
0.307833	0.735286
0.357184	0.830601
0.412311	0.898683
0.461629	0.953148
0.508061	1.02123
0.560267	1.06208
0.615394	1.13016
0.661803	1.17101
0.714031	1.23909
0.763339	1.27994
0.818477	1.36164
0.861977	1.38887
0.919991	1.44334
0.975107	1.4978
