Adsorption isotherm of Carbon Dioxide on Amino-MIL-53(Al)
DOI: 10.1016/j.fuel.2012.06.016
Adsorbate Carbon Dioxide: InChIKey CURLTUGMZLYLDI-UHFFFAOYSA-N
Temperature: 323 K
Tabular data in the source: 0
pressure (bar)	uptake (mmol/g)
0.378358	0.210927
1.51234	0.738022
2.0817	1.23055
3.21313	1.51105
4.15428	1.5804
5.09544	1.64975
6.13027	1.68377
6.97702	1.718
8.01149	1.71679
9.14001	1.71546
10.2685	1.71414
11.1149	1.71314
12.1497	1.74716
12.9965	1.78139
13.9376	1.85074
15.2586	2.27193
16.1076	2.51754
17.0542	3.11531
18.0941	3.64251
19.1341	4.16972
20.1751	4.80261
21.0244	5.08344
22.1544	5.22303
23.2843	5.36261
24.2251	5.39674
26.0127	5.4651
27.2356	5.49889
28.0823	5.53312
29.2112	5.56703
30.246	5.60104
