Adsorption isotherm of Carbon Dioxide on MIL-53C
DOI: 10.1016/j.fuel.2012.06.016
Adsorbate Carbon Dioxide: InChIKey CURLTUGMZLYLDI-UHFFFAOYSA-N
Temperature: 273 K
Tabular data in the source: 0
pressure (bar)	uptake (mmol/g)
0.125256	0.776135
0.148499	0.844217
0.180459	0.939532
0.209488	0.993998
0.23564	1.0757
0.247245	1.08931
0.282093	1.17101
0.302405	1.19824
0.325626	1.23909
0.345948	1.27994
0.369169	1.32079
0.403995	1.37526
0.427205	1.40249
0.453336	1.45696
0.485252	1.4978
0.508451	1.51142
0.537469	1.55227
0.557792	1.59312
0.589698	1.62035
0.639016	1.67482
0.694121	1.71567
0.755045	1.78375
0.795658	1.8246
0.853661	1.86545
0.911676	1.91991
0.958074	1.94715
0.981273	1.96076
