Adsorption isotherm of Carbon Dioxide on MIL-53C
DOI: 10.1016/j.fuel.2012.06.016
Adsorbate Carbon Dioxide: InChIKey CURLTUGMZLYLDI-UHFFFAOYSA-N
Temperature: 273 K
Tabular data in the source: 0
pressure (bar)	uptake (mmol/g)
0.00881507	0.14978
0.0263475	0.326794
0.040938	0.449341
0.0613038	0.544656
0.0816914	0.667204
0.110742	0.748902
0.165934	0.898683
0.224024	1.04846
0.261771	1.13016
0.305314	1.21186
0.360452	1.29356
0.4156	1.38887
0.467817	1.44334
0.520056	1.52504
0.572285	1.59312
0.627401	1.64758
0.679607	1.68843
0.731835	1.75652
0.781154	1.81098
0.885567	1.89268
0.937784	1.94715
0.989991	1.988
