Adsorption isotherm of Nitrogen on Amino-MIL-53(Al)
DOI: 10.1016/j.fuel.2012.06.016
Adsorbate Nitrogen: InChIKey IJGRMHOSHXDMSA-UHFFFAOYSA-N
Temperature: 298 K
Tabular data in the source: 0
pressure (bar)	uptake (mmol/g)
0.037464	0.0213118
0.0979827	0.0426235
0.161383	0.0426235
0.195965	0.0426235
0.239193	0.0426235
0.279539	0.0639353
0.348703	0.085247
0.380403	0.085247
0.409222	0.127871
0.56196	0.149182
0.59366	0.149182
0.619597	0.170494
0.651297	0.170494
0.680115	0.191806
0.711816	0.191806
0.737752	0.191806
0.772334	0.191806
0.821326	0.213118
0.870317	0.234429
0.919308	0.255741
0.971182	0.255741
1.02305	0.255741
