Adsorption isotherm of Nitrogen on Amino-MIL-53(Al)
DOI: 10.1016/j.fuel.2012.06.016
Adsorbate Nitrogen: InChIKey IJGRMHOSHXDMSA-UHFFFAOYSA-N
Temperature: 298 K
Tabular data in the source: 0
pressure (bar)	uptake (mmol/g)
2.16371	0.106697
4.04493	0.158571
6.11351	0.0994107
9.12324	0.149203
10.3458	0.146947
11.1922	0.145386
12.133	0.198995
14.1075	0.140008
16.1764	0.136191
17.3053	0.189453
18.2458	0.187718
21.067	0.182513
22.1019	0.235949
23.23	0.178523
24.1715	0.342819
26.0538	0.560725
27.182	0.503299
28.2165	0.501391
30.0977	0.553265
