Adsorption isotherm of Carbon Dioxide on Amino-MIL-53(Al)
DOI: 10.1016/j.fuel.2012.06.016
Adsorbate Carbon Dioxide: InChIKey CURLTUGMZLYLDI-UHFFFAOYSA-N
Temperature: 298 K
Tabular data in the source: 0
pressure (bar)	uptake (mmol/g)
0.191731	0.35206
1.05233	1.72496
2.08935	1.97034
3.12419	2.00435
4.06534	2.07371
4.81769	2.07282
6.13501	2.14173
7.07617	2.21108
8.20505	2.24499
9.1462	2.31434
10.0888	2.5246
11.1288	3.05181
12.0765	3.75527
13.1186	4.49384
14.1589	5.05627
15.2958	5.86519
16.1451	6.14602
17.1818	6.35618
18.1236	6.49599
19.2529	6.56512
20.1	6.63458
20.9467	6.66881
22.2637	6.70249
23.2049	6.77185
24.0516	6.80608
25.2742	6.80465
26.1206	6.80365
27.3435	6.83744
28.2835	6.80111
29.2243	6.83524
30.0707	6.83424
