Adsorption isotherm of Carbon Dioxide on MIL-53S
DOI: 10.1016/j.fuel.2012.06.016
Adsorbate Carbon Dioxide: InChIKey CURLTUGMZLYLDI-UHFFFAOYSA-N
Temperature: 298 K
Tabular data in the source: 0
pressure (bar)	uptake (mmol/g)
0.0175103	0.149222
0.029191	0.257746
0.0379407	0.325574
0.0467121	0.420533
0.0670885	0.529058
0.0845339	0.596886
0.102012	0.705411
0.151417	0.868198
0.206619	1.03098
0.256003	1.16664
0.311172	1.28873
0.357647	1.41082
0.412795	1.50578
0.462167	1.62787
0.511518	1.72283
0.563779	1.83135
0.613119	1.91275
0.665369	2.00771
0.71472	2.10267
0.76697	2.19763
0.81923	2.30615
0.86857	2.38754
0.920798	2.45537
0.975925	2.5232
0.978845	2.55033
