Adsorption isotherm of Carbon Dioxide on MIL-53S
DOI: 10.1016/j.fuel.2012.06.016
Adsorbate Carbon Dioxide: InChIKey CURLTUGMZLYLDI-UHFFFAOYSA-N
Temperature: 273 K
Tabular data in the source: 0
pressure (bar)	uptake (mmol/g)
0.00895522	0.325574
0.0207117	0.529058
0.0382111	0.664714
0.0616158	0.936026
0.0849016	1.05812
0.108252	1.2616
0.125698	1.32943
0.146063	1.42439
0.180986	1.60074
0.20425	1.6957
0.236232	1.81779
0.288557	2.00771
0.329245	2.14336
0.375719	2.26545
0.425103	2.40111
0.454142	2.46894
0.477374	2.5232
0.509301	2.57746
0.535442	2.64529
0.558674	2.69955
0.584793	2.74025
0.610924	2.79451
0.639952	2.84877
0.660264	2.87591
0.69509	2.93017
0.715412	2.97086
0.738622	2.998
0.764763	3.06582
0.79668	3.10652
0.819879	3.12009
0.8431	3.16078
0.872128	3.21505
0.901146	3.25574
0.918559	3.28287
0.950476	3.32357
0.982382	3.3507
