Adsorption isotherm of Carbon Dioxide on MIL-53C
DOI: 10.1016/j.fuel.2012.06.016
Adsorbate Carbon Dioxide: InChIKey CURLTUGMZLYLDI-UHFFFAOYSA-N
Temperature: 298 K
Tabular data in the source: 0
pressure (bar)	uptake (mmol/g)
0.00877164	0.0953148
0.116268	0.408492
0.139489	0.449341
0.168539	0.53104
0.194659	0.571889
0.220778	0.612738
0.243999	0.653587
0.270119	0.694437
0.302035	0.735286
0.319459	0.776135
0.371698	0.857833
0.421028	0.925916
0.479043	0.980381
0.539966	1.04846
0.583488	1.10293
0.632807	1.15739
0.679216	1.19824
0.725636	1.25271
0.780763	1.32079
0.83297	1.36164
0.882288	1.41611
0.960593	1.47057
