Adsorption isotherm of Carbon Dioxide on Amino-MIL-53(Al)
DOI: 10.1016/j.fuel.2012.06.016
Adsorbate Carbon Dioxide: InChIKey CURLTUGMZLYLDI-UHFFFAOYSA-N
Temperature: 273 K
Tabular data in the source: 0
pressure (bar)	uptake (mmol/g)
0.00864553	0.0268966
0.0115274	0.135343
0.0201729	0.257199
0.0317003	0.365411
0.0461095	0.48711
0.0691643	0.608575
0.0864553	0.716631
0.121037	0.851349
0.175793	1.01265
0.213256	1.10659
0.285303	1.25386
0.325648	1.32059
0.371758	1.40074
0.420749	1.4808
0.472622	1.54722
0.527378	1.61356
0.579251	1.67998
0.634006	1.73276
0.685879	1.79918
0.731988	1.85219
0.789625	1.90489
0.838617	1.94426
0.893372	1.99704
0.939481	2.03648
0.994236	2.07569
