Adsorption isotherm of Carbon Dioxide on MIL-53C
DOI: 10.1016/j.fuel.2012.06.016
Adsorbate Carbon Dioxide: InChIKey CURLTUGMZLYLDI-UHFFFAOYSA-N
Temperature: 298 K
Tabular data in the source: 0
pressure (bar)	uptake (mmol/g)
0.00465143	0.288538
0.906448	1.69516
2.11873	1.91156
4.97761	2.01977
7.17774	2.16403
8.16734	2.2001
9.37787	2.3083
10.2605	2.52471
11.2582	3.06572
12.0391	3.78706
13.0391	4.47234
14.1479	5.08548
15.3689	5.84289
16.2539	6.20357
17.3562	6.41997
18.2377	6.56424
19.4471	6.60031
20.4361	6.60031
21.2065	6.67244
22.4164	6.74458
23.1857	6.74458
25.4939	6.78064
26.1538	6.81671
28.2423	6.85278
29.3412	6.85278
30.2198	6.81671
