Adsorption isotherm of Carbon Dioxide on MIL-53C
DOI: 10.1016/j.fuel.2012.06.016
Adsorbate Carbon Dioxide: InChIKey CURLTUGMZLYLDI-UHFFFAOYSA-N
Temperature: 298 K
Tabular data in the source: 0
pressure (bar)	uptake (mmol/g)
1.04582	1.12275
2.07771	1.44354
3.10635	1.5772
3.97755	1.73759
5.00619	1.87125
6.03437	1.97818
6.9822	2.00491
8.16827	2.11184
9.27585	2.2455
10.1485	2.48609
11.0981	2.61976
11.9698	2.80688
13.0811	3.1544
14.1139	3.52865
15.3116	4.30388
16.1122	4.94546
17.068	5.42664
18.0971	5.58703
19.206	5.80089
20.2337	5.88108
20.9452	5.93455
22.0514	5.98801
23.2365	6.04148
24.1844	6.06821
25.2107	6.06821
26.158	6.06821
27.1848	6.09494
27.9748	6.12167
29.08	6.12167
30.1862	6.17514
