Adsorption isotherm of Carbon Dioxide on MIL-53S
DOI: 10.1016/j.fuel.2012.06.016
Adsorbate Carbon Dioxide: InChIKey CURLTUGMZLYLDI-UHFFFAOYSA-N
Temperature: 273 K
Tabular data in the source: 0
pressure (bar)	uptake (mmol/g)
0.00299589	0.12209
0.00603504	0.298443
0.0148497	0.447665
0.0323816	0.624017
0.0411746	0.746108
0.0528877	0.895329
0.0703764	1.01742
0.087865	1.13951
0.114049	1.2616
0.166461	1.56004
0.224616	1.79066
0.268192	1.91275
0.30889	2.06197
0.361172	2.19763
0.413476	2.36041
0.465737	2.46894
0.523805	2.59103
0.576076	2.71312
0.631213	2.79451
0.680565	2.88947
0.729926	2.998
0.785075	3.09295
0.834415	3.17435
0.883766	3.26931
0.941791	3.33714
0.991131	3.41853
