Adsorption isotherm of Carbon Dioxide on MIL-53C
DOI: 10.1016/j.fuel.2012.06.016
Adsorbate Carbon Dioxide: InChIKey CURLTUGMZLYLDI-UHFFFAOYSA-N
Temperature: 298 K
Tabular data in the source: 0
pressure (bar)	uptake (mmol/g)
0.159752	0.106929
1.04396	1.01582
2.15526	1.36334
3.10542	1.52374
4.21254	1.63066
5.00341	1.71086
6.11146	1.87125
7.05975	1.92472
8.16548	1.95145
9.11424	2.03165
10.2209	2.11184
11.1687	2.13858
12.1184	2.27224
12.9906	2.48609
14.1	2.72668
15.2108	3.04747
16.0858	3.42172
17.0387	3.74251
18.1509	4.14349
19.1847	4.57121
20.2189	5.02565
21.1723	5.37317
22.2019	5.5603
23.23	5.66723
24.2577	5.74742
25.206	5.80089
26.1534	5.80089
27.1012	5.82762
28.1276	5.82762
29.1539	5.82762
30.1811	5.88108
