Adsorption isotherm of Carbon Dioxide on MIL-53S
DOI: 10.1016/j.fuel.2012.06.016
Adsorbate Carbon Dioxide: InChIKey CURLTUGMZLYLDI-UHFFFAOYSA-N
Temperature: 298 K
Tabular data in the source: 0
pressure (bar)	uptake (mmol/g)
0.43956	0.568059
1.0989	1.96239
3.07692	2.53045
4.28571	2.68537
5.16484	2.94358
6.26374	3.97641
7.14286	5.06089
8.24176	6.50686
9.23077	7.28149
10.3297	7.74626
11.3187	8.00447
12.1978	8.21104
13.1868	8.36596
14.2857	8.57253
15.3846	8.72745
16.1538	8.83074
17.2527	9.0373
18.3516	9.0373
19.2308	9.19223
20.2198	9.29551
22.0879	9.3988
24.1758	9.60536
25.1648	9.55372
26.2637	9.76029
27.1429	9.76029
28.2418	9.81193
29.2308	9.76029
30.1099	9.86357
