Adsorption isotherm of Carbon Dioxide on MIL-53C
DOI: 10.1016/j.fuel.2012.06.016
Adsorbate Carbon Dioxide: InChIKey CURLTUGMZLYLDI-UHFFFAOYSA-N
Temperature: 298 K
Tabular data in the source: 0
pressure (bar)	uptake (mmol/g)
1.05418	1.60393
2.16362	1.84452
2.95402	1.89799
3.98173	1.97818
9.03762	2.16531
10.305	2.4059
11.1033	2.91381
12.1416	3.60885
13.1796	4.27715
14.1376	4.89199
15.2545	5.5603
16.207	5.85435
17.0805	6.14841
18.1876	6.25533
19.2153	6.33553
20.1627	6.33553
21.111	6.38899
22.0593	6.44246
23.1655	6.49592
24.1923	6.52266
25.2975	6.52266
26.087	6.52266
27.1932	6.57612
28.1406	6.57612
29.3248	6.57612
30.1147	6.60285
