Adsorption isotherm of Carbon Dioxide on MIL-53C
DOI: 10.1016/j.fuel.2012.06.016
Adsorbate Carbon Dioxide: InChIKey CURLTUGMZLYLDI-UHFFFAOYSA-N
Temperature: 298 K
Tabular data in the source: 0
pressure (bar)	uptake (mmol/g)
0.21978	0.361492
1.0989	1.18776
2.1978	1.34269
3.2967	1.34269
4.28571	1.39433
5.38462	1.44597
6.26374	1.49761
7.25275	1.44597
8.02198	1.44597
9.01099	1.49761
10.4396	1.44597
11.3187	2.16895
12.3077	2.94358
13.1868	3.61492
14.2857	4.0797
15.1648	4.28626
16.2637	4.44119
17.2527	4.75104
18.1319	4.80268
19.4505	4.80268
20.5495	4.85432
22.3077	4.90597
23.1868	4.95761
24.1758	4.95761
25.2747	4.90597
26.044	4.90597
27.1429	4.90597
28.3516	4.95761
29.2308	4.95761
30.4396	4.95761
