Adsorption isotherm of Carbon Dioxide on MIL-53C
DOI: 10.1016/j.fuel.2012.06.016
Adsorbate Carbon Dioxide: InChIKey CURLTUGMZLYLDI-UHFFFAOYSA-N
Temperature: 298 K
Tabular data in the source: 0
pressure (bar)	uptake (mmol/g)
0.33374	0.252471
0.783185	0.865614
2.21583	1.11808
3.20716	1.26235
5.18751	1.40662
6.17827	1.51482
7.16728	1.51482
8.15745	1.58696
9.47671	1.62303
10.5762	1.65909
11.3466	1.73123
12.3368	1.80336
13.3287	1.9837
14.3218	2.23617
15.4242	2.45257
16.3085	2.77718
17.4121	3.06572
18.4057	3.35425
19.5104	3.71493
20.2861	4.11167
21.4995	4.4002
22.3815	4.58054
23.5915	4.65268
24.5817	4.72481
25.5718	4.79694
26.3405	4.76088
27.5499	4.79694
28.5389	4.79694
29.7477	4.79694
30.6274	4.83301
