Adsorption isotherm of Carbon Dioxide on Amino-MIL-53(Al)
DOI: 10.1016/j.fuel.2012.06.016
Adsorbate Carbon Dioxide: InChIKey CURLTUGMZLYLDI-UHFFFAOYSA-N
Temperature: 298 K
Tabular data in the source: 0
pressure (bar)	uptake (mmol/g)
0.0115607	0.0813936
0.0289017	0.203484
0.0606936	0.352706
0.121387	0.569755
0.16763	0.67828
0.202312	0.773239
0.248555	0.854633
0.300578	0.976723
0.355491	1.05812
0.407514	1.13951
0.456647	1.2209
0.508671	1.3023
0.552023	1.35656
0.609827	1.42439
0.65896	1.47865
0.713873	1.54648
0.765896	1.58717
0.820809	1.655
0.867052	1.70927
0.921965	1.7364
0.982659	1.80422
