Adsorption isotherm of Nitrogen on MIL-53C
DOI: 10.1016/j.fuel.2012.06.016
Adsorbate Nitrogen: InChIKey IJGRMHOSHXDMSA-UHFFFAOYSA-N
Temperature: 298 K
Tabular data in the source: 0
pressure (bar)	uptake (mmol/g)
0.0289964	0.0213916
0.0579819	0.0213916
0.075384	0.0427831
0.0956739	0.0427831
0.133355	0.0427831
0.176844	0.0641747
0.217424	0.0641747
0.258004	0.0641747
0.295706	0.106958
0.347891	0.128349
0.379786	0.149741
0.408772	0.149741
0.437768	0.171133
0.466754	0.171133
0.527645	0.213916
0.591424	0.235307
0.649395	0.235307
0.684188	0.256699
0.713195	0.299482
0.74217	0.27809
0.771166	0.299482
0.82334	0.299482
0.869728	0.320874
0.919014	0.342265
0.968311	0.385048
1.02049	0.385048
