Adsorption isotherm of Carbon Dioxide on Amino-MIL-53(Al)
DOI: 10.1016/j.fuel.2012.06.016
Adsorbate Carbon Dioxide: InChIKey CURLTUGMZLYLDI-UHFFFAOYSA-N
Temperature: 273 K
Tabular data in the source: 0
pressure (bar)	uptake (mmol/g)
0.135447	0.878089
0.167147	0.958622
0.198847	1.06629
0.224784	1.13341
0.25072	1.18697
0.268012	1.2272
0.29683	1.28068
0.308357	1.3075
0.334294	1.36106
0.357349	1.38756
0.380403	1.42763
0.40634	1.45406
0.43804	1.50746
0.458213	1.54761
0.481268	1.57412
0.512968	1.61395
0.544669	1.65379
0.567723	1.6803
0.590778	1.7068
0.616715	1.73323
0.642651	1.77322
0.668588	1.78608
0.697406	1.81243
0.717579	1.83902
0.755043	1.86513
0.775216	1.89172
0.804035	1.9045
0.824207	1.91752
0.853026	1.94387
0.873199	1.97045
0.907781	1.99664
0.927954	2.00966
0.962536	2.03586
0.979827	2.04895
