Adsorption isotherm of Carbon Dioxide on MIL-53S
DOI: 10.1016/j.fuel.2012.06.016
Adsorbate Carbon Dioxide: InChIKey CURLTUGMZLYLDI-UHFFFAOYSA-N
Temperature: 298 K
Tabular data in the source: 0
pressure (bar)	uptake (mmol/g)
0.00880381	0.135656
0.113617	0.718976
0.168841	0.908895
0.215315	1.03098
0.267618	1.19377
0.31989	1.31586
0.380878	1.46508
0.441845	1.58717
0.48541	1.6957
0.543467	1.80422
0.58992	1.89918
0.645068	1.99414
0.6683	2.0484
0.694419	2.0891
0.717629	2.11623
0.743749	2.15693
0.772777	2.21119
0.796009	2.26545
0.830824	2.30615
0.851146	2.34685
0.880164	2.38754
0.903374	2.41468
0.929505	2.46894
0.961421	2.50963
