Adsorption isotherm of Carbon Dioxide on Amino-MIL-53(Al)
DOI: 10.1016/j.fuel.2012.06.016
Adsorbate Carbon Dioxide: InChIKey CURLTUGMZLYLDI-UHFFFAOYSA-N
Temperature: 298 K
Tabular data in the source: 0
pressure (bar)	uptake (mmol/g)
0.0231214	0.162787
0.0404624	0.257746
0.0606936	0.352706
0.0809249	0.46123
0.106936	0.529058
0.176301	0.732542
0.222543	0.813936
0.268786	0.908895
0.320809	1.01742
0.372832	1.08525
0.424855	1.16664
0.482659	1.2616
0.531792	1.31586
0.583815	1.38369
0.635838	1.43795
0.690751	1.50578
0.739884	1.57361
0.794798	1.62787
0.846821	1.68213
0.893064	1.72283
0.947977	1.77709
0.99422	1.83136
