Adsorption isotherm of Carbon Dioxide on F-MOF-4
DOI: 10.1021/cg101414x
Adsorbate Carbon Dioxide: InChIKey CURLTUGMZLYLDI-UHFFFAOYSA-N
Temperature: 293 K
Tabular data in the source: 0
pressure (bar)	uptake (mmol/g)
0.0332798	0.0757336
0.0333086	0.0966032
0.0499215	0.114905
0.0698698	0.146258
0.0998105	0.206331
0.159677	0.316043
0.209592	0.42573
0.26282	0.532817
0.347636	0.692155
0.379247	0.760058
0.424141	0.838429
0.482306	0.916832
0.535462	0.971744
0.588625	1.03187
0.643426	1.07636
0.689932	1.12082
0.781251	1.18365
0.809471	1.19937
0.907396	1.24135
0.958839	1.25713
1.05176	1.27822
