Adsorption isotherm of Hydrogen on Cu-F-MOF-4B
DOI: 10.1021/cg101414x
Adsorbate Hydrogen: InChIKey UFHFLCQGNIYNRP-UHFFFAOYSA-N
Temperature: 77 K
Tabular data in the source: 0
pressure (bar)	uptake (wt%)
0.00606707	0.0207622
0.0256853	0.0484319
0.0483139	0.0772519
0.0558529	0.0853202
0.0649188	0.102617
0.0724839	0.12107
0.0996209	0.148731
0.14482	0.183294
0.196058	0.227081
0.244256	0.25818
0.327093	0.310007
0.352683	0.320362
0.396335	0.33762
0.447509	0.356022
0.492674	0.376739
0.546864	0.3986
0.629651	0.430812
0.658243	0.438856
0.750033	0.462981
0.796692	0.480235
0.846336	0.488254
0.899011	0.505501
0.948667	0.518136
