Adsorption isotherm of Hydrogen on F-MOF-4
DOI: 10.1021/cg101414x
Adsorbate Hydrogen: InChIKey UFHFLCQGNIYNRP-UHFFFAOYSA-N
Temperature: 77 K
Tabular data in the source: 0
pressure (bar)	uptake (wt%)
0.0150665	0.0115211
0.0814862	0.112983
0.098068	0.129118
0.144826	0.185602
0.193071	0.235162
0.266948	0.312384
0.30314	0.352727
0.343799	0.375757
0.420597	0.418361
0.456716	0.429858
0.507902	0.452875
0.550056	0.472442
0.641866	0.504644
0.72614	0.529931
0.756233	0.53682
0.799868	0.547154
0.849517	0.557481
0.897661	0.566657
0.944292	0.572372
