Adsorption isotherm of Carbon Dioxide on Cu-F-MOF-4B
DOI: 10.1021/cg101414x
Adsorbate Carbon Dioxide: InChIKey CURLTUGMZLYLDI-UHFFFAOYSA-N
Temperature: 293 K
Tabular data in the source: 0
pressure (bar)	uptake (mmol/g)
0.124732	0.235088
0.14799	0.261232
0.172947	0.316075
0.192907	0.355254
0.219508	0.399667
0.237801	0.433625
0.264392	0.470212
0.282671	0.493735
0.30426	0.512049
0.32088	0.535567
0.349111	0.559115
0.370697	0.57482
0.388976	0.598343
0.408906	0.616652
0.438789	0.634986
0.458726	0.658513
0.476994	0.67421
0.498573	0.684698
0.518517	0.713442
0.561681	0.739635
0.589902	0.755356
0.611487	0.771061
0.636387	0.784165
0.656317	0.802475
0.681217	0.815579
0.696153	0.820833
0.724373	0.836554
0.745951	0.847042
0.759229	0.852292
0.784125	0.862787
0.804044	0.873271
0.822305	0.88375
0.865458	0.902117
0.887025	0.904778
0.913587	0.920495
0.938476	0.925774
1.00486	0.949414
1.02477	0.95468
1.048	0.962563
