Adsorption isotherm of Hydrogen on Zn-F-MOF-4B
DOI: 10.1021/cg101414x
Adsorbate Hydrogen: InChIKey UFHFLCQGNIYNRP-UHFFFAOYSA-N
Temperature: 77 K
Tabular data in the source: 0
pressure (bar)	uptake (wt%)
0.028635	0.0253516
0.0376864	0.0368796
0.0482416	0.0484059
0.0663272	0.0645389
0.0889471	0.0898974
0.0979986	0.101425
0.147732	0.145214
0.189936	0.184396
0.271295	0.24661
0.305951	0.274262
0.346598	0.292677
0.397798	0.321464
0.448975	0.34102
0.497144	0.36058
0.578388	0.37664
0.608486	0.385836
0.653616	0.392707
0.700258	0.403038
0.743882	0.408757
0.822103	0.419051
0.85219	0.423632
0.90033	0.431653
0.977047	0.44195
