Adsorption isotherm of Carbon Dioxide on Zn-F-MOF-4B
DOI: 10.1021/cg101414x
Adsorbate Carbon Dioxide: InChIKey CURLTUGMZLYLDI-UHFFFAOYSA-N
Temperature: 293 K
Tabular data in the source: 0
pressure (bar)	uptake (mmol/g)
0.0149649	0.0261236
0.0398824	0.0522715
0.0631266	0.0679805
0.0780843	0.0888866
0.106337	0.128086
0.152869	0.190809
0.20604	0.256156
0.292418	0.345063
0.322337	0.389484
0.368854	0.441772
0.422014	0.499293
0.506729	0.585587
0.533302	0.60913
0.593075	0.651016
0.644554	0.692881
0.691036	0.719081
0.795624	0.781946
0.855365	0.800353
0.90516	0.823953
0.988138	0.852852
1.02797	0.865993
