Adsorption isotherm of Sodium Fluoride, Water on FeAl-OOH MB
DOI: 10.1016/j.colsurfa.2017.02.017
Article source: Figure 7
Adsorbate Sodium Fluoride: InChIKey PUZPDOWCWNUUKD-UHFFFAOYSA-M
Adsorbate Water: InChIKey XLYOFNOQVPJJNP-UHFFFAOYSA-N
Kind: experiment
Temperature: 298 K
Tabular data in the source: 0
pressure (bar)	Sodium Fluoride fraction	Sodium Fluoride uptake (mg/g)	Water fraction	Water uptake (mg/g)	total uptake (mg/g)
1	2.517	2.148			
1	6.538	7.634			
1	14.535	13.254			
1	31.374	21.772			
1	52.863	30.378			
1	67.92	34.542			
1	109.263	42.564			
1	151.834	49.885			
1	195.476	55.549			
