Adsorption isotherm of Sodium Fluoride, Water on FeAl-OOH MB
DOI: 10.1016/j.colsurfa.2017.02.017
Article source: Figure 7
Adsorbate Sodium Fluoride: InChIKey PUZPDOWCWNUUKD-UHFFFAOYSA-M
Adsorbate Water: InChIKey XLYOFNOQVPJJNP-UHFFFAOYSA-N
Kind: experiment
Temperature: 298 K
Tabular data in the source: 0
pressure (bar)	Sodium Fluoride fraction	Sodium Fluoride uptake (mg/g)	Water fraction	Water uptake (mg/g)	total uptake (mg/g)
1	1.23	1.922			
1	3	11.718			
1	6.561	22.556			
1	13.525	39.289			
1	29.23	54.248			
1	39.181	62.452			
1	72.972	79.714			
1	111.334	90.801			
1	152.08	99.239			
