Adsorption isotherm of Sodium Fluoride, Water on FeAl-OOH MB
DOI: 10.1016/j.colsurfa.2017.02.017
Article source: Figure 7
Adsorbate Sodium Fluoride: InChIKey PUZPDOWCWNUUKD-UHFFFAOYSA-M
Adsorbate Water: InChIKey XLYOFNOQVPJJNP-UHFFFAOYSA-N
Kind: experiment
Temperature: 298 K
Tabular data in the source: 0
pressure (bar)	Sodium Fluoride fraction	Sodium Fluoride uptake (mg/g)	Water fraction	Water uptake (mg/g)	total uptake (mg/g)
1	3.721	5.064			
1	3.923	9.464			
1	10.539	17.346			
1	23.708	29.625			
1	42.667	40.015			
1	57.121	45.379			
1	95.697	56.387			
1	136.799	65.03			
1	179.913	70.721			
