Adsorption isotherm of Sodium Fluoride, Water on FeAl-OOH MB
DOI: 10.1016/j.colsurfa.2017.02.017
Article source: Figure 7
Adsorbate Sodium Fluoride: InChIKey PUZPDOWCWNUUKD-UHFFFAOYSA-M
Adsorbate Water: InChIKey XLYOFNOQVPJJNP-UHFFFAOYSA-N
Kind: experiment
Temperature: 298 K
Tabular data in the source: 0
pressure (bar)	Sodium Fluoride fraction	Sodium Fluoride uptake (mg/g)	Water fraction	Water uptake (mg/g)	total uptake (mg/g)
1	1.729	2.123			
1	1.841	11.735			
1	3.365	26.241			
1	8.749	44.022			
1	18.353	63.204			
1	26.19	76.988			
1	53.615	98.752			
1	83.312	117.888			
1	121.073	129.459			
