Adsorption isotherm of Nitrogen on Fe3O4@MIL-101
DOI: 10.1134/S1070427215080194
Article source: Figure 3
Adsorbate Nitrogen: InChIKey IJGRMHOSHXDMSA-UHFFFAOYSA-N
Kind: experiment
Temperature: 77 K
Tabular data in the source: 0
pressure (bar)	uptake (cm3(STP)/g)
0.058788	9.25855
0.09035	10.9886
0.11351	11.5617
0.132463	11.8462
0.153516	12.4199
0.195623	13.5672
0.227215	13.848
0.260902	14.708
0.29879	16.1464
0.326163	16.7183
0.355643	17.2896
0.397731	19.3065
0.410376	19.013
0.45034	21.9002
0.45459	20.1598
0.471393	22.4738
0.505092	22.7541
0.561865	27.6654
0.570323	26.2137
0.578706	28.2402
0.578743	26.5011
0.656594	30.8267
0.66494	34.5924
0.667103	31.9831
0.683876	35.7464
0.740747	36.02
0.755444	38.3346
0.761697	41.5212
0.778518	42.9657
0.818531	43.534
0.833252	44.6892
0.839486	48.7454
0.866816	51.3462
0.898415	51.3372
0.917264	56.5492
0.92572	55.0975
0.965514	66.1006
0.980107	73.3428
0.988478	75.9491
0.996819	80.0047
