Adsorption isotherm of Nitrogen on TAT-COF-2
DOI: 10.1039/c5tc02256h
Article source: Figure 3e
Adsorbate Nitrogen: InChIKey IJGRMHOSHXDMSA-UHFFFAOYSA-N
Kind: experiment
Temperature: 273 K
Tabular data in the source: 0
pressure (bar)	uptake (cm3(STP)/g)
0.154014	0.178253
0.20265	0.494652
0.249579	1.15702
0.297842	1.12968
0.346283	1.51872
0.394101	2.00535
0.434537	2.02579
0.484227	2.70297
0.534813	2.85714
0.577286	3.06818
0.621033	3.44385
0.669647	3.93254
0.714875	3.99733
0.763137	4.38503
0.8114	4.75936
0.860561	5.17309
0.953522	5.78026
1.00076	6.39419
1.02818	6.68449
0.106658	0
0.063995	-0.213904
0.085326	-0.213904
0.976986	5.98931
0.883127	5.7754
0.921524	5.98931
