Adsorption isotherm of Carbon Dioxide on TAT-COF-2
DOI: 10.1039/c5tc02256h
Article source: Figure 3d
Adsorbate Carbon Dioxide: InChIKey CURLTUGMZLYLDI-UHFFFAOYSA-N
Kind: experiment
Temperature: 273 K
Tabular data in the source: 0
pressure (bar)	uptake (cm3(STP)/g)
0.001195	-0.019171
0.036177	3.02325
0.068621	5.79293
0.070191	1.70087
0.107606	7.35689
0.10608	3.71339
0.134621	8.90015
0.146068	5.33903
0.170582	10.582
0.18767	6.65868
0.20677	11.6765
0.217268	8.37175
0.25718	9.30987
0.295971	11.0529
0.336851	12.4273
0.376839	13.8345
0.416522	15.3368
0.441858	20.8745
0.449101	16.7204
0.483067	22.1001
0.486425	17.994
0.522674	23.5867
0.527024	19.3503
0.579222	21.5746
0.619445	23.023
0.658588	24.4541
0.698779	25.7341
0.73948	27.0969
0.782826	28.709
0.802417	32.7657
0.80867	30.2469
0.845277	33.0461
0.840671	30.8003
0.884652	34.3294
0.881117	32.5033
0.922631	36.112
0.926295	33.9446
0.964897	36.2558
1.00413	37.9988
1.03802	39.3304
0.016047	0.401338
0.043556	1.47157
0.238412	13.2441
0.270506	14.4482
0.304892	16.0535
0.343863	17.3913
0.375957	18.5953
0.417221	19.6656
0.552473	24.8829
0.593737	26.3545
0.625831	27.291
0.770253	31.8395
0.660217	28.495
0.696896	29.699
0.72899	30.6355
