Adsorption isotherm of Nitrogen on TAT-COF-1
DOI: 10.1039/c5tc02256h
Article source: Figure 3a
Adsorbate Nitrogen: InChIKey IJGRMHOSHXDMSA-UHFFFAOYSA-N
Kind: experiment
Temperature: 77 K
Tabular data in the source: 0
pressure (bar)	uptake (cm3(STP)/g)
0.00729	8.46561
0.034625	11.6402
0.061961	13.7566
0.080185	14.8148
0.100232	14.8148
0.134857	15.873
0.164015	16.9312
0.147614	14.8148
0.202286	17.9894
0.21322	17.9894
0.246023	17.9894
0.255135	19.0476
0.304339	22.2222
0.331675	22.2222
0.359011	21.164
0.400926	24.3386
0.411861	23.2804
0.455598	25.3968
0.481112	21.164
0.506625	24.3386
0.55583	25.3968
0.554007	23.2804
0.610501	24.3386
0.630548	26.455
0.659706	25.3968
0.707088	23.2804
0.708911	28.5714
0.758115	29.6296
0.770872	29.6296
0.794563	29.6296
0.812787	29.6296
0.829188	32.8042
0.84559	30.6878
0.854702	32.8042
0.872926	37.037
0.88386	38.0952
0.898439	40.2116
0.914841	43.3862
0.940354	49.7355
0.956756	38.0952
0.969513	46.5608
1.00049	53.9683
0.92942	35.9788
0.956756	53.9683
0.982269	68.7831
1.00414	75.1323
1.01507	81.4815
