Adsorption isotherm of Nitrogen on TAT-COF-2
DOI: 10.1039/c5tc02256h
Article source: Figure 3a
Adsorbate Nitrogen: InChIKey IJGRMHOSHXDMSA-UHFFFAOYSA-N
Kind: experiment
Temperature: 77 K
Tabular data in the source: 0
pressure (bar)	uptake (cm3(STP)/g)
0	7.40741
0	15.873
0	41.2698
-0.003645	53.9683
-0.001822	65.6085
-0.001822	75.1323
0	82.5397
0	93.1217
0	119.577
0.005467	148.148
0.005467	157.672
0.005467	168.254
0.00729	179.894
0.009112	185.185
0.030981	291.005
0.08383	333.333
0.105699	337.566
0.12939	341.799
0.142147	344.974
0.164015	347.09
0.200463	351.323
0.209575	351.323
0.255135	354.497
0.302517	361.905
0.326208	358.73
0.355366	361.905
0.395459	362.963
0.404571	362.963
0.453776	369.312
0.475644	369.312
0.499335	374.603
0.552185	372.487
0.55583	367.196
0.601389	375.661
0.63237	372.487
0.661528	376.72
0.690687	378.836
0.776339	372.487
0.756293	382.011
0.816432	382.011
0.827366	373.545
0.831011	384.127
0.84559	384.127
0.858347	376.72
0.874748	387.302
0.880215	377.778
0.905729	389.418
0.905729	377.778
0.927598	391.534
0.947644	382.011
0.953111	394.709
0.97498	389.418
0.982269	400
1.01325	402.116
1.00596	391.534
0.92213	384.127
0.710733	370.37
0.00729	211.64
0.009112	204.233
0.00729	195.767
0	133.333
-0.001822	105.82
-0.001822	28.5714
