Adsorption isotherm of Hydrogen on TAT-COF-2
DOI: 10.1039/c5tc02256h
Article source: Figure 3c
Adsorbate Hydrogen: InChIKey UFHFLCQGNIYNRP-UHFFFAOYSA-N
Kind: experiment
Temperature: 77 K
Tabular data in the source: 0
pressure (bar)	uptake (cm3(STP)/g)
0.001452	1.34254
0.009405	9.70921
0.04362	15.4761
0.082298	24.7678
0.114559	30.1806
0.159075	38.7232
0.211789	45.1627
0.251121	49.7259
0.28783	52.3405
0.407916	63.366
0.422354	69.1224
0.501275	72.7492
0.66205	83.3024
0.686417	87.1436
0.725684	89.5688
0.761172	90.9012
0.802959	93.9108
0.842202	97.8226
0.886305	101.873
0.961876	104.882
1.00082	110.229
0.045874	20.1383
0.004752	3.88658
0.007036	5.96127
0.027598	11.148
0.121265	31.5491
0.162387	36.0443
0.210363	43.9972
0.262908	52.6418
0.313168	59.2116
0.333729	56.7911
0.367998	63.0152
0.374851	60.9405
0.457096	68.2019
0.470803	72.6971
0.523348	77.1923
0.53934	76.1549
0.580462	81.6874
0.580462	79.2669
0.633007	86.5284
0.617015	81.3416
0.850041	100.36
0.868317	99.3223
0.916293	102.78
0.943708	105.892
