Adsorption isotherm of N-propane on Zeolite MOR
DOI: 10.3866/PKU.WHXB20070621
Adsorbate N-propane: InChIKey ATUOYWHBWRKTHZ-UHFFFAOYSA-N
Temperature: 300 K
Tabular data in the source: 0
pressure (bar)	uptake (molecules/unitcell)
0.000101	-0.00980955
0.000968	0.108174
0.0049382	0.511283
0.00973928	0.875064
0.0520103	1.87792
0.0980356	2.16305
0.986827	2.7628
9.9334	3.04792
95.5633	3.35271
510.334	3.42154
1006.5	3.52969
