Adsorption isotherm of Ethane on Zeolite MOR
DOI: 10.3866/PKU.WHXB20070621
Adsorbate Ethane: InChIKey OTMSDBZUPAUEDD-UHFFFAOYSA-N
Temperature: 330 K
Tabular data in the source: 0
pressure (bar)	uptake (molecules/unitcell)
0.00102554	0.0624214
0.00901189	0.149816
0.0893549	0.390152
0.429338	1.3515
0.80927	1.81032
8.52343	3.20864
37.4082	4.49772
77.195	5.37167
444.555	7.11956
890.098	7.4473
