Adsorption isotherm of N-Butane on Zeolite MOR
DOI: 10.3866/PKU.WHXB20070621
Adsorbate N-Butane: InChIKey IJDNQMDRQITEOD-UHFFFAOYSA-N
Temperature: 330 K
Tabular data in the source: 0
pressure (bar)	uptake (molecules/unitcell)
9.55e-06	-0.0294734
9.61e-05	-0.00980955
0.000925	0.206493
0.0047196	0.757081
0.00973928	1.09137
0.0936958	1.86809
0.986827	2.29086
9.9334	2.517
91.333	2.72347
487.742	2.77263
919.358	2.85128
