Adsorption isotherm of Methane on Zeolite MOR
DOI: 10.3866/PKU.WHXB20070621
Adsorbate Methane: InChIKey VNWKTOKETHGBQD-UHFFFAOYSA-N
Temperature: 300 K
Tabular data in the source: 0
pressure (bar)	uptake (molecules/unitcell)
0.0102123	0.00191717
0.0982469	0.111161
0.491449	0.504438
0.945175	0.919564
4.72794	3.38847
9.8057	4.6557
46.6433	6.97166
104.32	7.53973
