Adsorption isotherm of N-propane on Zeolite MOR
DOI: 10.3866/PKU.WHXB20070621
Adsorbate N-propane: InChIKey ATUOYWHBWRKTHZ-UHFFFAOYSA-N
Temperature: 330 K
Tabular data in the source: 0
pressure (bar)	uptake (molecules/unitcell)
9.61e-05	-0.0196415
0.000884	0.0295182
0.0049382	0.157333
0.0101904	0.304812
0.0454044	1.08153
0.0936958	1.51414
0.986827	2.4875
9.9334	2.87095
91.333	3.10691
510.334	3.21506
1006.5	3.32322
