Adsorption isotherm of Ethane on Zeolite MOR
DOI: 10.3866/PKU.WHXB20070621
Adsorbate Ethane: InChIKey OTMSDBZUPAUEDD-UHFFFAOYSA-N
Temperature: 300 K
Tabular data in the source: 0
pressure (bar)	uptake (molecules/unitcell)
0.00928807	0.127968
0.0920933	0.870825
0.416572	2.02881
0.80927	2.48763
7.7855	3.84225
38.5546	5.74309
74.8997	6.5078
418.511	7.62209
765.406	7.73133
