Adsorption isotherm of Methane on Zeolite MOR
DOI: 10.3866/PKU.WHXB20070621
Adsorbate Methane: InChIKey VNWKTOKETHGBQD-UHFFFAOYSA-N
Temperature: 330 K
Tabular data in the source: 0
pressure (bar)	uptake (molecules/unitcell)
0.00874393	0.0624214
0.0893549	0.0842701
0.404186	0.25906
0.83407	0.521245
4.00759	2.00696
7.55401	3.18679
37.4082	6.04898
79.5607	6.83553
418.511	7.97166
813.037	8.36494
