Adsorption isotherm of N-Butane on Zeolite MOR
DOI: 10.3866/PKU.WHXB20070621
Adsorbate N-Butane: InChIKey IJDNQMDRQITEOD-UHFFFAOYSA-N
Temperature: 300 K
Tabular data in the source: 0
pressure (bar)	uptake (molecules/unitcell)
1.14e-06	-0.0196415
8.39e-05	0.0885098
0.000491	0.383468
0.00110831	0.727585
0.00540625	1.44532
0.00973928	1.69111
0.0497079	2.0254
0.861488	2.45801
10.3935	2.63498
95.5633	2.85128
1053.12	2.96927
