Adsorption isotherm of Methane on Zeolite MOR
DOI: 10.3866/PKU.WHXB20070621
Adsorbate Methane: InChIKey VNWKTOKETHGBQD-UHFFFAOYSA-N
Temperature: 296 K
Tabular data in the source: 0
pressure (bar)	uptake (molecules/unitcell)
0.30473	0.264102
0.969251	0.919564
2.8588	2.27419
9.09296	4.19688
28.9219	6.18511
