Adsorption isotherm of Methane on Zeolite MOR
DOI: 10.3866/PKU.WHXB20070621
Adsorbate Methane: InChIKey VNWKTOKETHGBQD-UHFFFAOYSA-N
Temperature: 300 K
Tabular data in the source: 0
pressure (bar)	uptake (molecules/unitcell)
0.0920933	0.149816
0.429338	0.543094
0.859631	1.06746
4.25698	3.38343
7.7855	4.65066
39.7362	6.90108
77.195	7.4473
431.336	8.32125
890.098	8.69267
