Adsorption isotherm of Carbon Dioxide on COMOC-2(V^IV)
DOI: 10.1021/Ic301338a
Adsorbate Carbon Dioxide: InChIKey CURLTUGMZLYLDI-UHFFFAOYSA-N
Temperature: 303 K
Tabular data in the source: 0
pressure (bar)	uptake (mmol/g)
0.279261	0.277916
0.839591	0.382134
1.11913	0.590571
1.95928	0.833747
2.96695	1.25062
4.75884	1.87593
6.99905	2.57072
9.52019	3.12655
12.0415	3.64764
14.7318	3.9603
17.3103	4.20347
19.9451	4.37717
22.5799	4.55087
25.1022	4.82878
