Adsorption isotherm of Nitrogen on COMOC-2(V^IV)
DOI: 10.1021/Ic301338a
Adsorbate Nitrogen: InChIKey IJGRMHOSHXDMSA-UHFFFAOYSA-N
Temperature: 77 K
Tabular data in the source: 0
pressure (bar)	uptake (cm3(STP)/g)
0.00204962	110.895
0.00655878	152.042
0.0178317	155.436
0.0291046	162.26
0.0403775	165.654
0.053905	167.325
0.0606688	167.303
0.0719417	168.982
0.0832146	170.661
0.0922329	170.632
0.112524	170.567
0.130561	170.509
0.150852	175.589
0.171143	172.094
0.193689	175.452
0.261327	175.235
0.304164	178.527
0.353764	180.083
0.389838	181.682
0.437184	183.245
0.482276	191.676
0.531876	277.269
0.583732	333.698
0.631078	366.132
0.678424	388.276
0.725771	410.419
0.777626	429.118
0.827227	446.11
0.876828	456.241
0.924174	471.524
0.948974	495.455
