Adsorption isotherm of Nitrogen on COMOC-2(V^IV/V^III)
DOI: 10.1021/Ic301338a
Adsorbate Nitrogen: InChIKey IJGRMHOSHXDMSA-UHFFFAOYSA-N
Temperature: 77 K
Tabular data in the source: 0
pressure (bar)	uptake (cm3(STP)/g)
0.00204962	114.325
0.0043042	160.624
0.0133225	179.461
0.0155771	182.884
0.02685	187.992
0.0358684	189.679
0.0516504	194.773
0.0629233	194.737
0.0787054	198.116
0.103506	199.752
0.121542	201.409
0.141834	203.059
0.16438	202.986
0.182416	204.644
0.202707	204.578
0.265836	206.091
0.306418	205.961
0.356019	209.231
0.392092	209.116
0.439439	210.679
0.486785	212.242
0.536386	213.798
0.583732	217.076
0.631078	258.085
0.678424	338.54
0.725771	377.834
0.777626	406.823
0.824972	430.681
0.874573	451.103
0.921919	480.106
0.953483	504.016
