Adsorption isotherm of Carbon Dioxide on COMOC-2(V^IV)
DOI: 10.1021/Ic301338a
Adsorbate Carbon Dioxide: InChIKey CURLTUGMZLYLDI-UHFFFAOYSA-N
Temperature: 265 K
Tabular data in the source: 0
pressure (bar)	uptake (mmol/g)
0.670253	0.66005
0.837086	1.00744
1.28415	1.38958
2.066	2.18859
2.84743	3.09181
4.58032	4.44665
6.82011	5.24566
9.23021	5.52357
11.8076	6.04467
14.1006	7.53846
16.273	11.1861
18.8994	13.4442
21.8129	14.0347
23.718	14.4169
