Adsorption isotherm of Methane on COMOC-2(V^IV)
DOI: 10.1021/Ic301338a
Adsorbate Methane: InChIKey VNWKTOKETHGBQD-UHFFFAOYSA-N
Temperature: 303 K
Tabular data in the source: 0
pressure (bar)	uptake (mmol/g)
1.45326	0.245468
2.79625	0.281853
4.69811	0.423364
7.04633	0.739523
9.56468	0.777272
12.1941	0.919628
15.104	0.992658
18.2372	1.1356
21.3712	1.17406
24.6166	1.28231
27.5259	1.42499
