Adsorption isotherm of Methane on COMOC-2(V^IV)
DOI: 10.1021/Ic301338a
Adsorbate Methane: InChIKey VNWKTOKETHGBQD-UHFFFAOYSA-N
Temperature: 265 K
Tabular data in the source: 0
pressure (bar)	uptake (mmol/g)
2.45765	0.629719
3.29692	0.665519
4.91725	1.01566
7.09673	1.4361
9.50147	1.68267
11.8502	1.92918
14.5905	2.21097
17.2192	2.4578
19.7918	2.70457
22.3636	3.05581
25.0471	3.44201
27.0592	3.79261
