Adsorption isotherm of N-Hexane on COMOC-2(V^IV)
DOI: 10.1021/Ic301338a
Adsorbate N-Hexane: InChIKey VLKZOEOYAKHREP-UHFFFAOYSA-N
Temperature: 323 K
Tabular data in the source: 0
pressure (bar)	uptake (mmol/g)
0.0031672	0.0462282
0.00711394	1.41188
0.0166204	1.52742
0.0250802	1.58511
0.0324907	1.59652
0.0399013	1.60794
0.0462381	1.68882
0.0568257	1.70017
0.0727083	1.7114
0.0822344	1.73434
0.0938491	1.89613
0.117047	2.37017
0.149677	3.30696
0.182344	4.07015
0.22569	4.41644
0.272254	4.5659
0.326248	4.63418
0.388712	4.71386
0.453309	4.72404
0.538031	4.71065
