Adsorption isotherm of Hydrogen on MOF-505
DOI: 10.3969/j.issn.1001-4861.2013.00.200
Adsorbate Hydrogen: InChIKey UFHFLCQGNIYNRP-UHFFFAOYSA-N
Temperature: 77 K
Tabular data in the source: 0
pressure (bar)	uptake (cm3(STP)/g)
0.00961839	8.6357
0.0405095	39.6698
0.0885623	76.7105
0.146912	105.742
0.208694	129.769
0.28249	152.794
0.366582	174.818
0.448958	193.839
0.531335	209.857
0.610278	225.874
0.689222	240.891
0.773315	254.906
0.852259	267.921
0.932919	277.932
0.98612	285.94
1.04104	292.948
1.06678	294.95
