Adsorption isotherm of Acetylene on MOF-505
DOI: 10.3969/j.issn.1001-4861.2013.00.200
Adsorbate Acetylene: InChIKey HSFWRNGVRCDJHI-UHFFFAOYSA-N
Temperature: 273 K
Tabular data in the source: 0
pressure (bar)	uptake (cm3(STP)/g)
0.00984391	21.1313
0.0168862	38.4553
0.0436467	65.9201
0.0746326	85.7792
0.147872	111.131
0.223928	131.413
0.295759	147.469
0.370407	161.413
0.480266	180.427
0.587309	198.174
0.697168	213.807
0.770407	223.526
0.84083	232.399
0.918295	241.272
0.990126	247.61
1.06055	254.793
