Adsorption isotherm of Carbon Dioxide on MOF-505
DOI: 10.3969/j.issn.1001-4861.2013.00.200
Adsorbate Carbon Dioxide: InChIKey CURLTUGMZLYLDI-UHFFFAOYSA-N
Temperature: 273 K
Tabular data in the source: 0
pressure (bar)	uptake (cm3(STP)/g)
0.0387933	11.639
0.114305	29.6588
0.1881	46.6775
0.263612	60.6929
0.335691	74.7083
0.448958	94.7303
0.555361	114.752
0.665196	131.771
0.812787	152.794
0.922622	168.812
1.03074	182.827
1.06678	186.832
