Adsorption isotherm of Methane on MOF-505
DOI: 10.3969/j.issn.1001-4861.2013.00.200
Adsorbate Methane: InChIKey VNWKTOKETHGBQD-UHFFFAOYSA-N
Temperature: 273 K
Tabular data in the source: 0
pressure (bar)	uptake (cm3(STP)/g)
0.073409	10.4674
0.185532	14.4718
0.262188	15.1392
0.370879	15.8066
0.480714	19.1436
0.552793	21.1458
0.590549	22.4806
0.662628	25.1502
0.700384	25.8176
0.811363	28.4872
0.955521	33.159
1.03103	34.4938
1.0665	35.8286
