Adsorption isotherm of Acetylene on MOF-505
DOI: 10.3969/j.issn.1001-4861.2013.00.200
Adsorbate Acetylene: InChIKey HSFWRNGVRCDJHI-UHFFFAOYSA-N
Temperature: 295 K
Tabular data in the source: 0
pressure (bar)	uptake (cm3(STP)/g)
0.00421011	0.849644
0.0140693	13.1032
0.0422383	34.2299
0.0760411	51.5539
0.107027	62.5398
0.184492	82.3989
0.261957	95.9201
0.332379	105.638
0.408435	115.357
0.478858	124.23
0.552097	130.568
0.623928	137.751
0.699985	143.244
0.773224	148.314
0.845055	152.962
0.918295	155.92
0.990126	160.145
1.06336	162.681
