Adsorption isotherm of Methane on MOF-505
DOI: 10.3969/j.issn.1001-4861.2013.00.200
Adsorbate Methane: InChIKey VNWKTOKETHGBQD-UHFFFAOYSA-N
Temperature: 295 K
Tabular data in the source: 0
pressure (bar)	uptake (cm3(STP)/g)
0.0162032	5.12824
0.113453	6.46304
0.1821	7.13044
0.264476	7.79784
0.334267	9.13264
0.406346	11.8022
0.480714	13.8044
0.553937	15.8066
0.667204	17.1414
0.738139	18.4762
0.811363	21.1458
0.922342	23.148
1.03103	25.1502
1.06764	26.485
