Adsorption isotherm of Nitrogen on MOF-505
DOI: 10.3969/j.issn.1001-4861.2013.00.200
Adsorbate Nitrogen: InChIKey IJGRMHOSHXDMSA-UHFFFAOYSA-N
Temperature: 77 K
Tabular data in the source: 0
pressure (bar)	uptake (cm3(STP)/g)
0.00446987	387.052
0.00618604	207.855
0.00618604	503.179
0.0113346	604.29
0.0319286	633.322
0.0834138	641.331
0.131467	645.335
0.203546	649.34
0.285922	649.34
0.383744	649.34
0.457539	649.34
0.531335	650.341
0.634305	649.34
0.733843	650.341
0.812787	650.341
0.895163	649.34
0.968958	649.34
