Adsorption isotherm of Carbon Dioxide on MOF-505
DOI: 10.3969/j.issn.1001-4861.2013.00.200
Adsorbate Carbon Dioxide: InChIKey CURLTUGMZLYLDI-UHFFFAOYSA-N
Temperature: 273 K
Tabular data in the source: 0
pressure (bar)	uptake (cm3(STP)/g)
0.112371	12.6852
0.196878	33.812
0.506737	92.1218
0.985611	165.643
1.9997	281.418
2.98561	354.094
3.9997	391.277
5.04195	414.094
6.02786	429.305
7.01378	440.291
7.94336	447.896
9.01378	457.192
10.056	462.263
11.9434	469.023
13.9997	474.939
15.9715	477.474
17.9434	480.854
19.9152	484.234
