Adsorption isotherm of Hydrogen on MOF-505
DOI: 10.3969/j.issn.1001-4861.2013.00.200
Adsorbate Hydrogen: InChIKey UFHFLCQGNIYNRP-UHFFFAOYSA-N
Temperature: 77 K
Tabular data in the source: 0
pressure (bar)	uptake (cm3(STP)/g)
0.0842021	0.854218
0.14054	66.7697
0.168709	113.249
0.506737	186.77
1.01378	266.206
1.9997	355.784
2.98561	407.333
3.9997	444.516
5.9997	489.305
7.97153	515.502
9.97153	534.094
12.0279	545.08
13.9997	550.995
15.9434	556.065
17.9715	558.601
18.9574	558.601
19.9434	558.601
