Adsorption isotherm of Methane on MOF-505
DOI: 10.3969/j.issn.1001-4861.2013.00.200
Adsorbate Methane: InChIKey VNWKTOKETHGBQD-UHFFFAOYSA-N
Temperature: 273 K
Tabular data in the source: 0
pressure (bar)	uptake (cm3(STP)/g)
0.168709	1.69929
1.07012	26.2063
2.98561	79.4458
3.9997	105.643
5.9997	146.206
7.97153	181.699
10.0279	207.051
12.056	227.333
14.056	243.389
15.9715	258.601
17.9715	269.587
18.9856	272.967
19.9434	277.192
