Adsorption isotherm of Carbon Dioxide on MOF-505
DOI: 10.3969/j.issn.1001-4861.2013.00.200
Adsorbate Carbon Dioxide: InChIKey CURLTUGMZLYLDI-UHFFFAOYSA-N
Temperature: 295 K
Tabular data in the source: 0
pressure (bar)	uptake (cm3(STP)/g)
0.0164831	3.6302
0.153777	17.6456
0.22414	24.6533
0.297935	29.6588
0.375163	36.6665
0.44381	42.6731
0.555361	50.6819
0.66348	57.6896
0.775031	64.6973
0.812787	65.6984
0.920906	71.705
0.960377	73.7072
1.03074	77.7116
1.0685	79.7138
