Adsorption isotherm of Carbon Dioxide on Dry Coal
DOI: 10.1016/j.coal.2004.05.002
Adsorbate Carbon Dioxide: InChIKey CURLTUGMZLYLDI-UHFFFAOYSA-N
Temperature: 318 K
Tabular data in the source: 0
pressure (bar)	uptake (mmol/g)
1.70049	0.291721
3.39811	0.609967
8.77524	0.938701
13.0853	1.12423
20.2066	1.34151
27.1165	1.51104
33.1673	1.61694
38.1396	1.68574
42.6805	1.73864
46.5737	1.77564
49.6031	1.79146
52.4148	1.81789
54.1458	1.82844
55.2272	1.83902
56.3109	1.82837
