Adsorption isotherm of Methane on Dry Coal
DOI: 10.1016/j.coal.2004.05.002
Adsorbate Methane: InChIKey VNWKTOKETHGBQD-UHFFFAOYSA-N
Temperature: 318 K
Tabular data in the source: 0
pressure (bar)	uptake (mmol/g)
11.7073	0.446809
15.393	0.537234
33.1707	0.781915
48.7805	0.909574
61.5718	0.973404
71.3279	1.01596
78.6992	1.04255
