Adsorption isotherm of Methane on Dry Coal
DOI: 10.1016/j.coal.2004.05.002
Adsorbate Methane: InChIKey VNWKTOKETHGBQD-UHFFFAOYSA-N
Temperature: 318 K
Tabular data in the source: 0
pressure (bar)	uptake (mmol/g)
3.90244	0.106383
10.8401	0.292553
18.2114	0.484043
26.4499	0.702128
31.4363	0.734043
37.7236	0.781915
52.4661	0.87766
63.9566	0.909574
69.3767	0.920213
75.2304	0.941489
84.9864	0.952128
94.3089	0.968085
102.547	0.968085
109.919	0.973404
117.94	0.973404
123.577	0.973404
128.997	0.973404
134.201	0.973404
