Adsorption isotherm of Carbon Dioxide on Dry Coal
DOI: 10.1016/j.coal.2004.05.002
Adsorbate Carbon Dioxide: InChIKey CURLTUGMZLYLDI-UHFFFAOYSA-N
Temperature: 318 K
Tabular data in the source: 0
pressure (bar)	uptake (mmol/g)
0.423256	0.0901716
5.54368	0.790267
10.0611	1.06067
14.8031	1.2568
19.9826	1.41048
