Adsorption isotherm of Methane on Dry Coal
DOI: 10.1016/j.coal.2004.05.002
Adsorbate Methane: InChIKey VNWKTOKETHGBQD-UHFFFAOYSA-N
Temperature: 318 K
Tabular data in the source: 0
pressure (bar)	uptake (mmol/g)
14.0921	0.446809
20.3794	0.558511
28.4011	0.696809
42.0596	0.824468
53.9837	0.87766
