Adsorption isotherm of Carbon Dioxide on Dry Coal
DOI: 10.1016/j.coal.2004.05.002
Adsorbate Carbon Dioxide: InChIKey CURLTUGMZLYLDI-UHFFFAOYSA-N
Temperature: 318 K
Tabular data in the source: 0
pressure (bar)	uptake (mmol/g)
2.98117	0.46144
7.92126	0.827324
14.3884	1.08706
20.8653	1.2566
27.348	1.3731
33.4011	1.45778
38.1579	1.51598
42.6995	1.56357
46.8109	1.58465
49.8391	1.61108
52.6526	1.6216
54.383	1.63745
58.0619	1.65325
