Adsorption isotherm of Carbon Dioxide on Dry Coal
DOI: 10.1016/j.coal.2004.05.002
Adsorbate Carbon Dioxide: InChIKey CURLTUGMZLYLDI-UHFFFAOYSA-N
Temperature: 318 K
Tabular data in the source: 0
pressure (bar)	uptake (mmol/g)
2.33394	0.440241
4.05166	0.57281
6.19608	0.76372
11.7978	1.01818
18.057	1.19834
