Adsorption isotherm of Methane on Dry Coal
DOI: 10.1016/j.coal.2004.05.002
Adsorbate Methane: InChIKey VNWKTOKETHGBQD-UHFFFAOYSA-N
Temperature: 318 K
Tabular data in the source: 0
pressure (bar)	uptake (mmol/g)
3.25203	0.132979
5.85366	0.234043
9.5393	0.367021
11.7073	0.446809
18.645	0.547872
27.1003	0.648936
34.4715	0.707447
42.0596	0.760638
46.6125	0.787234
54.6341	0.824468
60.7046	0.845745
65.0407	0.867021
