Adsorption isotherm of Carbon Dioxide on Dry Coal
DOI: 10.1016/j.coal.2004.05.002
Adsorbate Carbon Dioxide: InChIKey CURLTUGMZLYLDI-UHFFFAOYSA-N
Temperature: 318 K
Tabular data in the source: 0
pressure (bar)	uptake (mmol/g)
0.423256	0.0901716
1.67809	0.498618
2.7503	0.594073
4.03213	0.753182
5.31741	0.88046
8.54438	1.07133
10.6986	1.17206
16.3048	1.38407
19.9752	1.47944
22.3504	1.53772
