Adsorption isotherm of Methane on Dry Coal
DOI: 10.1016/j.coal.2004.05.002
Adsorbate Methane: InChIKey VNWKTOKETHGBQD-UHFFFAOYSA-N
Temperature: 318 K
Tabular data in the source: 0
pressure (bar)	uptake (mmol/g)
2.60163	0.0691489
8.23848	0.202128
11.9241	0.292553
15.393	0.37234
17.7778	0.430851
21.4634	0.489362
26.4499	0.558511
31.0027	0.62234
34.6883	0.664894
40.9756	0.718085
45.7453	0.755319
50.2981	0.781915
