Adsorption isotherm of Methane on Dry Coal
DOI: 10.1016/j.coal.2004.05.002
Adsorbate Methane: InChIKey VNWKTOKETHGBQD-UHFFFAOYSA-N
Temperature: 318 K
Tabular data in the source: 0
pressure (bar)	uptake (mmol/g)
1.95122	0.0904255
7.37127	0.345745
14.0921	0.489362
17.561	0.558511
20.813	0.606383
31.2195	0.734043
38.374	0.797872
44.878	0.856383
46.8293	0.867021
69.3767	0.994681
77.3984	1.03191
83.252	1.05319
87.8049	1.06915
91.2737	1.07979
