Adsorption isotherm of Nitrogen on Bio-MOF-11
DOI: 10.1002/cssc.201000080
Adsorbate Nitrogen: InChIKey IJGRMHOSHXDMSA-UHFFFAOYSA-N
Temperature: 298 K
Tabular data in the source: 0
pressure (bar)	uptake (mmol/g)
0.251391	0.0967569
1.56232	0.260622
3.06988	0.348017
5.03627	0.348017
7.00265	0.380791
8.90349	0.380791
12.9674	0.369866
17.0968	0.369866
22.1438	0.369866
28.1085	0.358942
