Adsorption isotherm of Nitrogen on Bio-MOF-11
DOI: 10.1002/cssc.201000080
Adsorbate Nitrogen: InChIKey IJGRMHOSHXDMSA-UHFFFAOYSA-N
Temperature: 298 K
Tabular data in the source: 0
pressure (bar)	uptake (mmol/g)
0.408212	0.129842
0.504346	0.156061
0.607035	0.182279
0.70317	0.217237
0.808044	0.243456
0.906363	0.269674
1.00468	0.269674
