Adsorption isotherm of Carbon Dioxide on Bio-MOF-11
DOI: 10.1002/cssc.201000080
Adsorbate Carbon Dioxide: InChIKey CURLTUGMZLYLDI-UHFFFAOYSA-N
Temperature: 298 K
Tabular data in the source: 0
pressure (bar)	uptake (mmol/g)
0.841307	1.20012
1.56232	1.73541
2.80769	2.65306
4.83963	3.33037
7.0682	3.7018
9.03458	3.94214
13.0329	4.34634
17.0312	4.57575
22.0783	4.80516
28.043	4.93625
