Adsorption isotherm of Hydrogen on Bio-MOF-11
DOI: 10.1002/cssc.201000080
Adsorbate Hydrogen: InChIKey UFHFLCQGNIYNRP-UHFFFAOYSA-N
Temperature: 298 K
Tabular data in the source: 0
pressure (bar)	uptake (mmol/g)
4.05307	0.0767806
6.085	0.0898898
8.11694	0.0898898
15.0648	0.142327
19.9153	0.142327
24.9623	0.142327
29.9438	0.142327
