Adsorption isotherm of Carbon Dioxide on Bio-MOF-11
DOI: 10.1002/cssc.201000080
Adsorbate Carbon Dioxide: InChIKey CURLTUGMZLYLDI-UHFFFAOYSA-N
Temperature: 298 K
Tabular data in the source: 0
pressure (bar)	uptake (mmol/g)
0.382484	0.26031
0.513576	0.522495
0.841307	1.03376
2.08669	2.2267
3.92198	3.30165
6.01946	3.81292
9.95223	4.40283
14.9993	4.74367
19.8497	5.01897
29.7472	5.30737
