Adsorption isotherm of Carbon Dioxide on Bio-MOF-11
DOI: 10.1002/cssc.201000080
Adsorbate Carbon Dioxide: InChIKey CURLTUGMZLYLDI-UHFFFAOYSA-N
Temperature: 298 K
Tabular data in the source: 0
pressure (bar)	uptake (mmol/g)
0.298968	2.19236
0.401657	2.68178
0.504346	3.00514
0.60485	3.2848
0.707539	3.51203
0.906363	3.80917
1.00905	3.94026
