Adsorption isotherm of Hydrogen on Bio-MOF-11
DOI: 10.1002/cssc.201000080
Adsorbate Hydrogen: InChIKey UFHFLCQGNIYNRP-UHFFFAOYSA-N
Temperature: 298 K
Tabular data in the source: 0
pressure (bar)	uptake (mmol/g)
0.906854	0.0505621
3.06988	0.0767806
5.03627	0.102999
7.13374	0.116108
9.10013	0.129218
13.164	0.129218
17.0312	0.129218
22.0783	0.155436
27.9119	0.155436
