Adsorption isotherm of Carbon Dioxide on Bio-MOF-11
DOI: 10.1002/cssc.201000080
Adsorbate Carbon Dioxide: InChIKey CURLTUGMZLYLDI-UHFFFAOYSA-N
Temperature: 298 K
Tabular data in the source: 0
pressure (bar)	uptake (mmol/g)
0.710215	0.61426
1.03795	1.28283
1.56232	1.88586
2.61106	2.55443
2.87324	2.84283
5.16736	3.53762
7.00265	3.99644
9.16568	4.27174
13.0329	4.66502
22.0783	5.05829
27.8463	5.24182
