Adsorption isotherm of Nitrogen on Bio-MOF-11
DOI: 10.1002/cssc.201000080
Adsorbate Nitrogen: InChIKey IJGRMHOSHXDMSA-UHFFFAOYSA-N
Temperature: 298 K
Tabular data in the source: 0
pressure (bar)	uptake (mmol/g)
0.102329	0.0424475
0.200649	0.0599265
0.303338	0.086145
0.401657	0.121103
0.502161	0.129842
0.602665	0.156061
0.70317	0.182279
0.803674	0.208498
0.906363	0.217237
1.00687	0.225977
