Adsorption isotherm of Hydrogen on Bio-MOF-11
DOI: 10.1002/cssc.201000080
Adsorbate Hydrogen: InChIKey UFHFLCQGNIYNRP-UHFFFAOYSA-N
Temperature: 77 K
Tabular data in the source: 0
pressure (bar)	uptake (mmol/g)
0.0149343	0.313372
0.0586318	0.654212
0.156951	0.933876
0.266195	1.09119
0.410397	1.21354
0.561153	1.30967
0.716279	1.38833
0.814598	1.40581
0.86485	1.39707
0.921657	1.42329
0.967539	1.44951
