Adsorption isotherm of Hydrogen on Bio-MOF-11
DOI: 10.1002/cssc.201000080
Adsorbate Hydrogen: InChIKey UFHFLCQGNIYNRP-UHFFFAOYSA-N
Temperature: 77 K
Tabular data in the source: 0
pressure (bar)	uptake (mmol/g)
0.100144	0.627994
0.200649	0.890179
0.305523	1.04749
0.401657	1.16984
0.504346	1.25724
0.602665	1.30967
0.716279	1.38833
0.810228	1.44077
0.908548	1.50194
1.01124	1.5369
