Adsorption isotherm of Carbon Dioxide on Bio-MOF-11
DOI: 10.1002/cssc.201000080
Adsorbate Carbon Dioxide: InChIKey CURLTUGMZLYLDI-UHFFFAOYSA-N
Temperature: 298 K
Tabular data in the source: 0
pressure (bar)	uptake (mmol/g)
0.100144	0.960095
0.154766	1.34463
0.209388	1.63304
0.26401	1.94766
0.35796	2.37589
0.465018	2.76917
0.565523	3.09253
0.668212	3.35472
0.770901	3.58194
0.867035	3.78295
0.965355	3.95774
