Adsorption isotherm of Nitrogen on Bio-MOF-11
DOI: 10.1002/cssc.201000080
Adsorbate Nitrogen: InChIKey IJGRMHOSHXDMSA-UHFFFAOYSA-N
Temperature: 298 K
Tabular data in the source: 0
pressure (bar)	uptake (mmol/g)
0.775761	0.162303
2.21778	0.326169
4.05307	0.369866
5.95391	0.348017
7.98585	0.380791
10.0833	0.380791
14.9993	0.369866
20.1119	0.369866
25.0934	0.369866
30.0749	0.391715
