Adsorption isotherm of Carbon Dioxide on Bio-MOF-11
DOI: 10.1002/cssc.201000080
Adsorbate Carbon Dioxide: InChIKey CURLTUGMZLYLDI-UHFFFAOYSA-N
Temperature: 298 K
Tabular data in the source: 0
pressure (bar)	uptake (mmol/g)
0.120299	0.271547
0.644669	0.741295
0.775761	0.959782
2.02114	2.09592
4.05307	3.04634
6.01946	3.50516
7.98585	3.83289
9.95223	4.01861
15.1304	4.48835
20.1119	4.71777
24.9623	4.93625
30.0749	5.0018
