Adsorption isotherm of Nitrogen on UiO-66
DOI: 10.1039/C4ce00321g
Adsorbate Nitrogen: InChIKey IJGRMHOSHXDMSA-UHFFFAOYSA-N
Temperature: 77 K
Tabular data in the source: 0
pressure (bar)	uptake (cm3(STP)/g)
0.00421483	0.00433839
0.00632225	95.6876
0.0105371	270.841
0.0126445	281.669
0.0210742	296.084
0.0273965	306.896
0.0358262	317.7
0.0421483	326.706
0.0547929	333.882
0.06533	339.261
0.101156	348.157
0.145412	353.41
0.170701	358.733
0.198098	364.049
0.227601	365.745
0.259212	367.434
0.295039	374.524
0.328758	379.816
0.364583	379.683
0.406732	384.944
0.453095	391.995
0.482599	395.497
0.499458	395.434
0.516317	397.178
0.543714	402.493
0.569003	406.011
0.592184	407.731
0.611151	411.272
0.638548	416.588
0.651192	418.347
0.733382	437.906
0.754456	441.439
0.77553	446.778
0.788175	453.955
0.815571	464.688
0.836645	479.057
0.851397	491.643
0.861934	504.245
0.870364	509.631
0.878793	522.241
0.88933	534.843
0.893546	551.08
0.901975	565.496
0.908297	579.919
0.910405	596.164
0.91462	608.789
0.918834	625.027
0.920942	635.854
0.923049	666.546
0.927264	686.395
0.929372	699.028
0.933586	713.459
0.935694	738.734
0.937801	765.814
