Adsorption isotherm of Nitrogen on UiO-66
DOI: 10.1039/C4ce00321g
Adsorbate Nitrogen: InChIKey IJGRMHOSHXDMSA-UHFFFAOYSA-N
Temperature: 77 K
Tabular data in the source: 0
pressure (bar)	uptake (cm3(STP)/g)
0.00421483	99.3071
0.00632225	50.5408
0.00842968	265.431
0.0105371	149.848
0.0779745	339.214
0.0948339	342.763
0.143304	346.194
0.164378	346.116
0.200205	347.788
0.233924	351.275
0.265535	349.351
0.303468	351.016
0.356153	352.626
0.406732	356.05
0.497351	359.325
0.57111	359.051
0.781852	372.714
0.916727	399.301
0.950446	442.516
0.97152	630.248
0.973628	671.775
