Adsorption isotherm of Carbon Dioxide on PCN-200
DOI: 10.1039/C4ce00321g
Adsorbate Carbon Dioxide: InChIKey CURLTUGMZLYLDI-UHFFFAOYSA-N
Temperature: 296 K
Tabular data in the source: 0
pressure (bar)	uptake (molecules/8 unit cells)
0.0212475	0.205788
0.0472956	0.59164
0.0732757	0.861736
0.0968857	1.09325
0.122828	1.29904
0.151065	1.41479
0.17697	1.55627
0.205207	1.67203
0.231081	1.76206
0.254631	1.89068
0.28754	1.96785
0.311044	2.01929
0.339243	2.07074
0.365103	2.13505
0.388622	2.21222
0.421501	2.23794
0.445006	2.28939
0.470857	2.34084
0.494354	2.37942
0.524901	2.43087
0.55778	2.45659
0.583624	2.49518
0.604766	2.5209
0.630618	2.57235
0.651775	2.62379
0.679951	2.63666
0.710483	2.66238
0.736319	2.6881
0.766851	2.71383
0.795035	2.73955
0.818532	2.77814
