Adsorption isotherm of Carbon Dioxide on PCN-200
DOI: 10.1039/C4ce00321g
Adsorbate Carbon Dioxide: InChIKey CURLTUGMZLYLDI-UHFFFAOYSA-N
Temperature: 273 K
Tabular data in the source: 0
pressure (bar)	uptake (molecules/8 unit cells)
0.00243799	0.154341
0.00727624	0.398714
0.0738418	1.82637
0.109264	2.1865
0.139886	2.36656
0.154009	2.43087
0.179898	2.54662
0.203433	2.64952
0.231647	2.72669
0.255159	2.791
0.285713	2.85531
0.313905	2.89389
0.337417	2.9582
0.365608	2.99678
0.39146	3.04823
0.417304	3.08682
0.440786	3.09968
0.46897	3.1254
0.497162	3.16399
0.527693	3.18971
0.551168	3.18971
0.579359	3.2283
0.609891	3.25402
0.638075	3.27974
0.654514	3.2926
0.677996	3.30547
0.70852	3.31833
0.753136	3.34405
0.809512	3.40836
0.865858	3.42122
0.898721	3.42122
0.922211	3.44695
0.997343	3.47267
