Adsorption isotherm of Carbon Dioxide on PCN-200
DOI: 10.1039/C4ce00321g
Adsorbate Carbon Dioxide: InChIKey CURLTUGMZLYLDI-UHFFFAOYSA-N
Temperature: 273 K
Tabular data in the source: 0
pressure (bar)	uptake (molecules/8 unit cells)
0.0215193	0.66881
0.0478013	1.45338
0.0715396	1.90354
0.0998672	2.17363
0.125787	2.34084
0.151707	2.50804
0.179951	2.63666
0.201108	2.6881
0.234025	2.77814
0.257552	2.86817
0.283396	2.90675
0.311595	2.9582
0.3351	3.00965
0.367979	3.03537
0.391475	3.07395
0.417312	3.09968
0.445504	3.13826
0.47134	3.16399
0.501879	3.20257
0.523014	3.21543
0.551198	3.24116
0.579382	3.26688
0.600509	3.26688
0.631033	3.27974
0.656877	3.31833
0.685061	3.34405
0.706188	3.34405
0.736719	3.36977
0.764888	3.36977
0.790718	3.38264
0.818902	3.40836
0.844731	3.42122
0.870552	3.42122
0.891687	3.43408
0.919863	3.44695
0.94804	3.45981
0.971522	3.47267
