Adsorption isotherm of Nitrogen on PCN-200
DOI: 10.1039/C4ce00321g
Adsorbate Nitrogen: InChIKey IJGRMHOSHXDMSA-UHFFFAOYSA-N
Temperature: 296 K
Tabular data in the source: 0
pressure (bar)	uptake (molecules/8 unit cells)
0.0164706	8.88178e-16
0.0447059	8.88178e-16
0.0682353	8.88178e-16
0.0988235	8.88178e-16
0.127059	8.88178e-16
0.150588	8.88178e-16
0.204713	0.0128617
0.235294	8.88178e-16
0.261184	0.0128617
0.287066	0.0128617
0.343537	0.0128617
0.369419	0.0128617
0.400015	0.0257235
0.421184	0.0128617
0.451772	0.0128617
0.480008	0.0128617
0.50589	0.0128617
0.536478	0.0128617
0.560008	0.0128617
0.590588	8.88178e-16
0.616478	0.0128617
0.640008	0.0128617
0.670596	0.0128617
0.694118	8.88178e-16
0.750588	8.88178e-16
0.781176	8.88178e-16
0.807059	8.88178e-16
0.835294	8.88178e-16
0.887059	8.88178e-16
0.943529	8.88178e-16
