Adsorption isotherm of Nitrogen on UiO-66
DOI: 10.1039/C4ce00321g
Adsorbate Nitrogen: InChIKey IJGRMHOSHXDMSA-UHFFFAOYSA-N
Temperature: 77 K
Tabular data in the source: 0
pressure (bar)	uptake (cm3(STP)/g)
0.00632225	5.3941
0.0105371	191.383
0.0147519	213.038
0.0273965	231.049
0.0316113	238.257
0.0442557	241.822
0.0547929	245.394
0.06533	248.967
0.0779745	252.532
0.0885116	254.298
0.109586	256.026
0.128552	257.761
0.151734	255.869
0.179131	257.573
0.208635	259.27
0.244461	262.748
0.282394	262.607
0.32665	262.443
0.37512	265.874
0.438343	263.833
0.50578	267.194
0.581647	268.718
0.670159	268.389
0.77553	271.609
0.880901	276.635
0.95466	305.255
0.96309	334.117
