Adsorption isotherm of Nitrogen on PCN-200
DOI: 10.1039/C4ce00321g
Adsorbate Nitrogen: InChIKey IJGRMHOSHXDMSA-UHFFFAOYSA-N
Temperature: 296 K
Tabular data in the source: 0
pressure (bar)	uptake (molecules/8 unit cells)
0.00234742	8.88178e-16
0.185446	8.88178e-16
0.272308	0.0128617
0.323951	0.0128617
0.363857	0.0128617
0.436627	0.0128617
0.525822	8.88178e-16
0.57043	0.0128617
0.607989	0.0128617
0.650242	0.0128617
0.711275	0.0128617
0.732394	8.88178e-16
0.767613	0.0128617
0.819249	8.88178e-16
0.875587	8.88178e-16
0.92489	0.0128617
0.981221	8.88178e-16
