Adsorption isotherm of Carbon Dioxide on PCN-200
DOI: 10.1039/C4ce00321g
Adsorbate Carbon Dioxide: InChIKey CURLTUGMZLYLDI-UHFFFAOYSA-N
Temperature: 195 K
Tabular data in the source: 0
pressure (bar)	uptake (molecules/8 unit cells)
0.0608442	3.67846
0.0749513	3.71704
0.10549	3.75563
0.124292	3.79421
0.168916	3.8328
0.183008	3.84566
0.227609	3.84566
0.253438	3.85852
0.291004	3.87138
0.316833	3.88424
0.354392	3.88424
0.375526	3.89711
0.41544	3.90997
0.438907	3.89711
0.481168	3.90997
0.502302	3.92283
0.523429	3.92283
0.563335	3.92283
0.586809	3.92283
0.610276	3.90997
0.650182	3.90997
0.673664	3.92283
0.708875	3.92283
0.734704	3.93569
0.776958	3.93569
0.798084	3.93569
0.835651	3.94855
0.86382	3.94855
0.903718	3.93569
0.922497	3.93569
0.945987	3.96141
0.962419	3.96141
