Adsorption isotherm of Carbon Dioxide on PCN-200
DOI: 10.1039/C4ce00321g
Adsorbate Carbon Dioxide: InChIKey CURLTUGMZLYLDI-UHFFFAOYSA-N
Temperature: 195 K
Tabular data in the source: 0
pressure (bar)	uptake (molecules/8 unit cells)
0.00246064	0.192926
0.0076159	0.977492
0.00821974	2.00643
0.0109823	2.71383
0.0160017	3.26688
0.0890132	3.67846
0.103105	3.69132
0.128965	3.75563
0.147759	3.78135
0.159504	3.79421
0.187688	3.81994
0.20178	3.8328
0.232296	3.8328
0.251083	3.84566
0.272217	3.85852
0.298039	3.85852
0.314471	3.85852
0.330903	3.85852
0.356724	3.85852
0.375504	3.85852
0.396638	3.87138
0.417772	3.88424
0.443602	3.89711
0.467061	3.87138
0.4835	3.88424
0.499932	3.88424
0.521059	3.88424
0.544533	3.88424
0.563312	3.88424
0.591481	3.88424
0.617303	3.88424
0.624368	3.92283
0.687733	3.89711
0.751128	3.92283
0.814509	3.92283
0.880244	3.93569
0.992928	3.94855
