Adsorption isotherm of Nitrogen on UiO-66
DOI: 10.1039/C4ce00321g
Adsorbate Nitrogen: InChIKey IJGRMHOSHXDMSA-UHFFFAOYSA-N
Temperature: 77 K
Tabular data in the source: 0
pressure (bar)	uptake (cm3(STP)/g)
0.0231816	290.659
0.0337187	306.872
0.050578	315.839
0.0632225	319.404
0.0737596	321.17
0.0885116	322.922
0.0990484	324.688
0.118015	326.424
0.13909	326.345
0.158057	328.081
0.183345	327.987
0.208635	329.698
0.240246	331.387
0.280286	331.238
0.324542	334.685
0.37512	334.497
0.429913	336.099
0.491029	339.484
0.560574	341.031
0.638548	342.547
0.735489	345.798
0.826108	352.685
0.91462	370.415
0.95466	415.413
0.96309	458.722
0.967306	505.659
0.97152	550.79
