Adsorption isotherm of Nitrogen on UiO-66
DOI: 10.1039/C4ce00321g
Adsorbate Nitrogen: InChIKey IJGRMHOSHXDMSA-UHFFFAOYSA-N
Temperature: 77 K
Tabular data in the source: 0
pressure (bar)	uptake (cm3(STP)/g)
0.00632225	0.00650759
0.00842968	39.6978
0.0105371	131.789
0.0126445	202.21
0.0147519	225.679
0.0168594	245.536
0.0210742	287.055
0.0358262	333.953
0.0463632	342.943
0.0547929	346.523
0.06533	350.096
0.0821893	353.645
0.0969413	355.396
0.111693	355.341
0.124338	355.294
0.145412	357.021
0.193882	356.841
0.227601	360.328
0.261319	362.008
0.303468	361.852
0.354046	363.469
0.408839	365.072
0.476277	364.821
0.634333	369.651
0.731274	371.096
0.783959	372.706
0.83243	374.332
0.965197	417.179
