Adsorption isotherm of Nitrogen on UiO-66
DOI: 10.1039/C4ce00321g
Adsorbate Nitrogen: InChIKey IJGRMHOSHXDMSA-UHFFFAOYSA-N
Temperature: 77 K
Tabular data in the source: 0
pressure (bar)	uptake (cm3(STP)/g)
0.0105371	301.541
0.0168594	324.994
0.0295039	343.005
0.0442557	357.398
0.0569003	359.156
0.0674374	362.729
0.0779745	362.69
0.0927264	364.441
0.105371	368.006
0.124338	367.935
0.143304	369.67
0.168594	369.576
0.193882	371.288
0.223386	374.79
0.261319	372.843
0.301361	374.5
0.349832	372.514
0.406732	375.915
0.467847	375.687
0.541607	375.413
0.619581	375.123
0.710201	378.398
0.821893	381.595
0.927264	386.621
0.960983	420.807
0.969413	456.893
0.975736	489.375
