Adsorption isotherm of Carbon Dioxide on PCN-200
DOI: 10.1039/C4ce00321g
Adsorbate Carbon Dioxide: InChIKey CURLTUGMZLYLDI-UHFFFAOYSA-N
Temperature: 296 K
Tabular data in the source: 0
pressure (bar)	uptake (molecules/8 unit cells)
0.0165678	0.231511
0.0449708	0.630225
0.0709584	0.913183
0.0992407	1.10611
0.122836	1.3119
0.151103	1.4791
0.176992	1.59486
0.202889	1.72347
0.231111	1.8135
0.259341	1.9164
0.282853	1.98071
0.313429	2.0836
0.336934	2.13505
0.367495	2.21222
0.391007	2.27653
0.419199	2.31511
0.445051	2.36656
0.470895	2.40514
0.496747	2.45659
0.524938	2.49518
0.553123	2.5209
0.578967	2.55949
0.607151	2.58521
0.632995	2.62379
0.658832	2.64952
0.684669	2.67524
0.708158	2.70096
0.736342	2.72669
0.762171	2.73955
0.788015	2.77814
0.816192	2.791
0.844361	2.791
0.874908	2.84244
0.898382	2.84244
0.921863	2.85531
0.950048	2.88103
0.973529	2.89389
0.987614	2.89389
