Adsorption isotherm of Methane on COF-320
DOI: 10.1021/ja409033p
Article source: Figure 5
Adsorbate Methane: InChIKey VNWKTOKETHGBQD-UHFFFAOYSA-N
Kind: experiment
Isotherm type: excess
Temperature: 283 K
Tabular data in the source: 0
pressure (bar)	uptake (cm3(STP)/g)
0.639148	6.61994
2.23702	17.5234
5.43276	35.4361
8.6285	51.0125
12.3569	71.6511
16.2983	98.5202
20.3462	117.212
24.2876	130.062
28.229	140.576
31.4248	147.196
35.7923	155.374
44.9534	172.118
49.747	176.791
54.9667	181.075
59.6538	184.579
64.98	187.305
69.8802	189.642
74.6738	192.757
79.5739	193.146
25.4594	134.346
30.466	146.417
35.5792	156.542
40.2663	164.72
44.6338	170.561
49.3209	176.791
55.0732	182.632
59.6538	186.526
65.1931	189.642
72.1172	192.757
78.1891	193.925
