Adsorption isotherm of Methane on COF-320
DOI: 10.1021/ja409033p
Article source: Figure 5
Adsorbate Methane: InChIKey VNWKTOKETHGBQD-UHFFFAOYSA-N
Kind: experiment
Isotherm type: excess
Temperature: 298 K
Tabular data in the source: 0
pressure (bar)	uptake (cm3(STP)/g)
2.34354	14.0187
4.90013	24.1433
8.41545	38.9408
12.4634	54.5171
16.2983	71.6511
20.3462	92.6791
24.5007	109.034
28.3356	119.159
32.277	127.336
36.2184	135.903
40.2663	142.913
44.6338	150.312
49.747	156.542
54.9667	161.994
59.8668	165.498
64.5539	168.614
69.6671	170.95
74.7803	172.118
79.7869	174.844
25.3529	114.486
30.3595	125.389
35.1531	135.903
40.1598	144.86
45.1664	151.869
50.1731	158.879
54.7537	163.162
59.7603	166.667
65.5126	169.782
72.1172	171.729
77.763	173.287
