Adsorption isotherm of Methane on COF-320
DOI: 10.1021/ja409033p
Article source: Figure S22
Adsorbate Methane: InChIKey VNWKTOKETHGBQD-UHFFFAOYSA-N
Kind: experiment
Isotherm type: excess
Temperature: 283 K
Tabular data in the source: 0
pressure (bar)	uptake (cm3(STP)/g)
0.043097	0.24819
0.057462	0.387797
0.071828	0.527404
0.089066	0.682523
0.105347	0.82213
0.123543	0.961737
0.177175	1.44261
0.229848	1.90796
0.286353	2.37332
0.339984	2.82316
0.395531	3.27301
0.45012	3.66081
0.504709	4.12616
0.559298	4.52947
0.615802	4.94829
0.670391	5.36712
0.724022	5.78594
0.778611	6.18925
0.832243	6.56153
0.888747	6.98035
0.943336	7.36815
0.997925	7.72492
1.05251	8.14374
0.111093	0.946225
0.164725	1.36505
0.216441	1.81489
0.270072	2.26474
0.321788	2.69907
0.376377	3.11789
0.428093	3.53671
0.482682	3.94002
0.552594	4.49845
0.605267	4.88625
0.658899	5.28956
0.711572	5.69286
0.764246	6.09617
0.816919	6.48397
0.869593	6.90279
0.923224	7.32161
0.975898	7.72492
1.02761	8.14374
1.09657	8.54705
