Adsorption isotherm of Nitrogen on COF-320
DOI: 10.1021/ja409033p
Article source: Figure S21
Adsorbate Nitrogen: InChIKey IJGRMHOSHXDMSA-UHFFFAOYSA-N
Kind: experiment
Isotherm type: excess
Temperature: 77 K
Tabular data in the source: 0
pressure (bar)	uptake (cm3(STP)/g)
0.001013	8.73016
0.001013	24.6032
0.001013	39.6825
0.001013	53.1746
0	66.6667
0.001013	78.5714
0.001013	89.6825
0.001013	101.587
0.001013	112.698
0.002027	123.016
0.004053	133.333
0.007093	143.651
0.013172	153.175
0.024318	159.524
0.034451	165.079
0.045596	169.841
0.057755	174.603
0.069914	180.159
0.082073	184.921
0.095245	190.476
0.101325	193.651
0.150974	228.571
0.201637	321.429
0.253312	394.444
0.306001	449.206
0.356664	473.016
0.404287	484.127
0.455962	492.857
0.510678	500
0.563367	503.175
0.616056	504.762
0.667732	505.556
0.718394	507.936
0.768043	507.936
0.817693	508.73
0.869368	511.111
0.919018	515.079
0.965627	523.016
1.0021	559.524
0.011146	380.952
0.048636	447.619
0.091192	465.873
0.190491	484.921
0.301949	494.444
0.400234	500
0.501559	508.73
0.599844	512.698
0.701169	515.873
0.795401	519.048
0.89774	523.016
1.0021	558.73
