Adsorption isotherm of Methane on COF-320
DOI: 10.1021/ja409033p
Article source: Figure S22
Adsorbate Methane: InChIKey VNWKTOKETHGBQD-UHFFFAOYSA-N
Kind: experiment
Isotherm type: excess
Temperature: 298 K
Tabular data in the source: 0
pressure (bar)	uptake (cm3(STP)/g)
0.031604	0.046536
0.048843	0.139607
0.068955	0.24819
0.087151	0.356774
0.106305	0.465357
0.122586	0.57394
0.175259	0.915202
0.230806	1.22544
0.285395	1.50465
0.339984	1.81489
0.392658	2.10962
0.448204	2.40434
0.503751	2.68356
0.557382	2.94726
0.612929	3.22647
0.66656	3.5212
0.719234	3.80041
0.775738	4.0486
0.831285	4.34333
0.884916	4.62254
0.93759	4.88625
0.993136	5.18097
1.04677	5.41365
0.098643	0.527404
0.167598	0.89969
0.221229	1.19442
0.27486	1.45812
0.328492	1.76836
0.382123	2.04757
0.433839	2.31127
0.488428	2.62151
0.541101	2.88521
0.596648	3.14891
0.647406	3.42813
0.702953	3.70734
0.755626	3.97104
0.809258	4.25026
0.862889	4.52947
0.915563	4.80869
0.970152	5.07239
1.02474	5.33609
1.08986	5.66184
