Adsorption isotherm of Methane on COF-320
DOI: 10.1021/ja409033p
Article source: Figure 5
Adsorbate Methane: InChIKey VNWKTOKETHGBQD-UHFFFAOYSA-N
Kind: experiment
Isotherm type: excess
Temperature: 313 K
Tabular data in the source: 0
pressure (bar)	uptake (cm3(STP)/g)
0	0.778816
0.958722	4.6729
2.45007	10.514
5.32623	20.2492
8.6285	31.1526
12.3569	42.8349
16.4048	56.4642
20.3462	72.4299
24.1811	89.1745
28.3356	101.246
31.7443	108.645
35.8988	116.433
40.2663	122.664
44.8469	131.231
49.747	137.461
54.7537	143.302
59.9734	147.975
64.98	152.648
69.6671	154.206
74.6738	158.1
79.7869	160.047
25.5659	97.352
30.6791	107.087
35.0466	115.265
38.0293	119.548
41.7577	127.336
49.9601	140.187
54.6471	144.86
59.6538	149.143
65.2996	153.427
71.6911	156.542
77.5499	160.047
