Adsorption isotherm of Methane on COF-320
DOI: 10.1021/ja409033p
Article source: Figure 5
Adsorbate Methane: InChIKey VNWKTOKETHGBQD-UHFFFAOYSA-N
Kind: experiment
Isotherm type: excess
Temperature: 273 K
Tabular data in the source: 0
pressure (bar)	uptake (cm3(STP)/g)
0.639148	8.56698
2.34354	22.5857
5.43276	43.2243
8.73502	62.3053
12.3569	88.0062
16.1917	115.265
20.4527	134.346
24.5007	147.586
28.5486	158.1
32.3835	167.445
36.2184	177.57
40.1598	185.748
44.6338	191.199
49.747	195.872
54.7537	200.156
59.8668	203.66
65.0865	207.944
70.1997	210.28
74.8868	211.449
79.6804	211.059
25.4594	152.259
29.9334	163.162
34.8336	174.065
40.4794	185.358
45.0599	193.146
49.534	196.651
53.9015	200.935
59.1212	206.776
65.5126	210.67
72.1172	212.227
77.763	211.449
