Adsorption isotherm of Methane on COF-320
DOI: 10.1021/ja409033p
Article source: Figure S22
Adsorbate Methane: InChIKey VNWKTOKETHGBQD-UHFFFAOYSA-N
Kind: experiment
Isotherm type: excess
Temperature: 273 K
Tabular data in the source: 0
pressure (bar)	uptake (cm3(STP)/g)
0.001915	0.015512
0.017239	0.155119
0.030646	0.32575
0.042139	0.465357
0.062251	0.667011
0.072785	0.791107
0.085235	0.946225
0.099601	1.08583
0.112051	1.20993
0.124501	1.33402
0.174302	1.84591
0.228891	2.41986
0.284437	3.00931
0.339026	3.5212
0.392658	4.06412
0.448204	4.60703
0.501836	5.11893
0.557382	5.64633
0.611971	6.14271
0.667518	6.6546
0.722107	7.15098
0.775738	7.63185
0.831285	8.12823
0.885874	8.6091
0.939505	9.05894
0.995052	9.55533
1.04868	10.0052
0.01245	0.124095
0.0498	0.558428
0.102474	1.11686
0.155148	1.67528
0.206864	2.2182
0.275818	2.91624
0.328492	3.42813
0.380208	3.95553
0.432881	4.46742
0.484597	4.97932
0.537271	5.46019
0.588986	5.94105
0.659856	6.60807
0.711572	7.11996
0.764246	7.58532
0.815962	8.05067
0.868635	8.48501
0.921309	8.95036
0.973982	9.41572
1.02666	9.85005
1.09274	10.455
