Adsorption isotherm of Argon on COF-320
DOI: 10.1021/ja409033p
Article source: Figure 5
Adsorbate Argon: InChIKey XKRFYHLGVUSROY-UHFFFAOYSA-N
Kind: experiment
Isotherm type: excess
Temperature: 87 K
Tabular data in the source: 0
pressure (bar)	uptake (cm3(STP)/g)
0	2.53968
0	24.127
0	46.9841
0.001248	68.5714
0.001248	92.6984
0.001248	116.825
0.004991	138.413
0.007487	149.841
0.011231	167.619
0.01747	182.857
0.031196	196.825
0.043675	208.254
0.058649	218.413
0.071127	226.032
0.079862	232.381
0.086101	241.27
0.096084	250.159
0.117297	307.302
0.138511	356.825
0.159724	387.302
0.178442	410.159
0.198407	429.206
0.217125	449.524
0.238338	471.111
0.259552	501.587
0.277022	529.524
0.299483	557.46
0.326935	572.698
0.350644	584.127
0.376849	594.286
0.403054	600.635
0.455463	610.794
0.502881	615.873
0.551547	623.492
0.605205	628.571
0.66011	634.921
0.711272	638.73
0.754946	642.54
0.809851	647.619
0.857269	650.159
0.907183	655.238
0.963336	660.317
0	69.8413
-0.001248	95.2381
-0.001248	120.635
0.013726	384.762
0.052409	511.746
0.103571	581.587
0.150989	596.825
0.203399	608.254
0.305722	622.222
0.404302	631.111
0.501634	637.46
0.602709	642.54
0.703784	647.619
0.80486	652.698
0.909679	657.778
1.00327	669.206
