Adsorption isotherm of R-125 on Carbosieve G
DOI: 10.1016/s1387-1811(98)00109-7
Article source: Figure 2b
Adsorbate R-125: InChIKey GTLACDSXYULKMZ-UHFFFAOYSA-N
Kind: experiment
Temperature: 295 K
Tabular data in the source: 0
pressure (bar)	uptake (mg/g)
0	81.6952
0	90.7739
0.000228	34.4928
0.000414	62.6317
0.001977	148.862
0.002675	104.383
0.005981	154.301
0.012205	195.138
0.023466	247.766
0.032474	259.551
0.048571	293.109
0.065563	312.143
0.09356	344.773
0.135393	369.21
0.181164	389.102
0.270607	411.642
0.405685	433.198
0.456345	442.188
0.534773	449.317
0.669766	458.164
0.714449	463.534
0.807742	467.914
0.941725	474.04
