Adsorption isotherm of R-124 on Carbosieve G
DOI: 10.1016/s1387-1811(98)00109-7
Article source: Figure 2b
Adsorbate R-124: InChIKey BOUGCJDAQLKBQH-UHFFFAOYSA-N
Kind: experiment
Temperature: 295 K
Tabular data in the source: 0
pressure (bar)	uptake (mg/g)
0	108.926
0	215.13
0	255.976
0	282.301
0.002973	299.541
0.003196	333.126
0.006286	350.368
0.009485	383.948
0.01863	416.61
0.01869	425.687
0.032761	452.894
0.04279	469.216
0.0657	482.793
0.089644	502.722
0.138331	513.532
0.191998	527.056
0.267462	536.005
0.309168	541.38
0.405461	549.386
0.540449	557.325
0.564278	560.008
0.666488	562.557
0.811379	567.757
0.919566	573.926
