Adsorption isotherm of R-22 on Carbosieve G
DOI: 10.1016/s1387-1811(98)00109-7
Article source: Figure 2a
Adsorbate R-22: InChIKey VOPWNXZWBYDODV-UHFFFAOYSA-N
Kind: experiment
Temperature: 295 K
Tabular data in the source: 0
pressure (bar)	uptake (mg/g)
0	12.5016
0	56.2513
0	82.5027
0.002734	133.746
0.006131	179.99
0.009512	222.485
0.011682	232.482
0.032213	308.7
0.037633	332.441
0.067583	377.394
0.080416	396.124
0.102816	416.089
0.134782	437.289
0.160363	455.999
0.202947	475.933
0.268902	495.83
0.319939	505.75
0.404999	521.867
0.5315	540.419
0.666479	553.959
0.69516	553.914
0.80036	559.999
0.842875	564.933
0.936387	571.037
