Adsorption isotherm of R-115 on Carbosieve G
DOI: 10.1016/s1387-1811(98)00109-7
Article source: Figure 2b
Adsorbate R-115: InChIKey RFCAUADVODFSLZ-UHFFFAOYSA-N
Kind: experiment
Temperature: 295 K
Tabular data in the source: 0
pressure (bar)	uptake (mg/g)
0	11.8035
0	98.945
0	129.805
0	166.115
0.001357	205.141
0.00461	246.891
0.007838	285.009
0.013953	309.507
0.019082	334.915
0.031114	353.956
0.041162	373.001
0.068082	392.925
0.092026	412.854
0.133786	426.399
0.193429	443.544
0.264932	453.407
0.40097	470.422
0.448612	473.064
0.542902	478.35
0.667968	486.306
0.722561	489.844
0.803935	492.429
0.933938	496.746
