Adsorption isotherm of R-21 on Carbosieve G
DOI: 10.1016/s1387-1811(98)00109-7
Article source: Figure 2a
Adsorbate R-21: InChIKey UMNKXPULIDJLSU-UHFFFAOYSA-N
Kind: experiment
Temperature: 295 K
Tabular data in the source: 0
pressure (bar)	uptake (mg/g)
0	23.7515
0	77.5011
0	130.001
0	158.752
0.000201	277.5
0.001861	408.747
0.007343	446.239
0.011832	498.732
0.015161	529.976
0.034397	554.946
0.03447	571.196
0.066448	594.896
0.08561	603.616
0.102618	606.09
0.134545	618.54
0.164324	625.993
0.207896	629.675
0.268477	635.83
0.307823	644.519
0.400262	648.125
0.454475	655.54
0.530962	655.42
0.588338	657.831
0.666973	662.708
0.724355	666.368
0.794469	666.259
0.857163	669.911
0.928333	668.549
