Adsorption isotherm of R-23 on Carbosieve G
DOI: 10.1016/s1387-1811(98)00109-7
Article source: Figure 2a
Adsorbate R-23: InChIKey XPDWGBQVDMORPB-UHFFFAOYSA-N
Kind: experiment
Temperature: 295 K
Tabular data in the source: 0
pressure (bar)	uptake (mg/g)
0.001216	33.7481
0.006869	108.739
0.014459	142.477
0.033797	189.947
0.069059	234.892
0.110711	283.577
0.169258	309.736
0.274571	340.821
0.404276	363.118
0.532891	379.167
0.675287	388.945
0.803886	401.244
0.933523	408.541
