Adsorption isotherm of Nitrogen on IRMOF-1(CSA)@UTCS@SiO2
DOI: 10.1016/j.micromeso.2012.04.023
Adsorbate Nitrogen: InChIKey IJGRMHOSHXDMSA-UHFFFAOYSA-N
Temperature: 77 K
Tabular data in the source: 0
pressure (bar)	uptake (cm3(STP)/g)
0.00269154	0.355563
0.00307132	0.422935
0.00385649	0.46784
0.00503637	0.52771
0.00542468	0.565136
0.00660563	0.621263
0.00858668	0.669888
0.0105731	0.699796
0.0133574	0.729689
0.016545	0.744601
0.0201327	0.755762
0.0241214	0.759428
0.0277102	0.766846
0.0312989	0.774263
0.0352887	0.774186
0.0392775	0.777853
0.0536377	0.788806
0.0572296	0.784994
0.0612195	0.784917
0.0648092	0.788591
0.0684001	0.788522
0.071991	0.788453
0.0755818	0.788383
0.0795716	0.788307
0.100318	0.79165
0.104309	0.78783
0.108298	0.787753
0.110691	0.79145
0.114682	0.78763
0.118272	0.791304
0.122263	0.787484
0.126253	0.787407
0.130243	0.78733
0.134232	0.787254
0.138222	0.787177
0.142212	0.7871
0.146202	0.787023
0.149794	0.78321
0.153783	0.786877
0.157772	0.7868
0.161762	0.786723
0.165752	0.786646
0.170938	0.79029
0.179318	0.786385
0.183307	0.786308
0.187297	0.786231
0.189689	0.793672
0.193282	0.786116
0.197272	0.786039
