Adsorption isotherm of Nitrogen on SiO2
DOI: 10.1016/j.micromeso.2012.04.023
Adsorbate Nitrogen: InChIKey IJGRMHOSHXDMSA-UHFFFAOYSA-N
Temperature: 77 K
Tabular data in the source: 0
pressure (bar)	uptake (cm3(STP)/g)
0.000799605	0.00372791
0.00479763	0.00365089
0.0155923	-0.00030039
0.0179911	0.00339671
0.0219891	0.007063
0.0247878	0.00700909
0.0287858	0.0106754
0.0395804	0.0179541
0.0431787	0.0253714
0.0467769	0.025302
0.0507749	0.0289683
0.0547729	0.0326346
0.0583712	0.0325653
0.0623692	0.0362316
0.0663672	0.0398979
0.0699654	0.0435719
0.0739635	0.0472382
0.0779615	0.0471612
0.0819595	0.0508274
0.0859575	0.0544937
0.0899556	0.05816
0.0935538	0.0580907
0.0975518	0.0655003
0.10155	0.0654233
0.104748	0.0765916
0.108746	0.069028
0.112344	0.072702
0.116343	0.0763683
0.120341	0.0800346
0.124339	0.0837008
0.127937	0.0873748
0.131935	0.0910411
0.135933	0.0834775
0.139131	0.0946458
0.143129	0.0983121
0.147127	0.101978
0.151125	0.105645
0.154724	0.109319
0.158722	0.109242
0.16272	0.112908
0.166318	0.116582
0.170316	0.120248
0.173914	0.123922
0.177512	0.127596
0.18151	0.131263
0.185508	0.134929
0.189506	0.134852
0.193504	0.138518
0.195104	0.134744
