Adsorption isotherm of Nitrogen on MIL-150
DOI: 10.1002/ejic.201201508
Adsorbate Nitrogen: InChIKey IJGRMHOSHXDMSA-UHFFFAOYSA-N
Temperature: 77 K
Tabular data in the source: 0
pressure (bar)	uptake (cm3(STP)/g)
0.000865	43.0487
0.00229475	236.404
0.00515504	410.309
0.0123058	509.847
0.0266072	588.791
0.0523498	613.962
0.105265	635.7
0.182493	647.141
0.285463	660.87
0.407025	673.456
0.504275	680.32
0.604385	687.185
0.704495	694.05
0.806035	700.914
0.904715	714.644
0.95048	724.941
