Adsorption isotherm of Nitrogen on PMOF-2(Cu)
DOI: 10.1039/B909250a
Adsorbate Nitrogen: InChIKey IJGRMHOSHXDMSA-UHFFFAOYSA-N
Temperature: 77 K
Tabular data in the source: 0
pressure (bar)	uptake (cm3(STP)/g)
0.00182509	28.0909
0.00182509	198.511
0.00400996	631.116
0.0149343	749.099
0.0455226	853.973
0.0630016	893.301
0.165691	926.074
0.323002	939.183
0.583002	952.293
0.991573	956.662
