Adsorption isotherm of Hydrogen on PMOF-2(Cu)
DOI: 10.1039/B909250a
Adsorbate Hydrogen: InChIKey UFHFLCQGNIYNRP-UHFFFAOYSA-N
Temperature: 77 K
Tabular data in the source: 0
pressure (bar)	uptake (wt%)
0.418986	1.20787
1.72991	2.3746
2.82235	3.06939
5.11646	3.75107
7.9568	4.23611
10.9064	4.5114
15.3854	4.76048
21.3938	4.89157
26.7467	5.03577
35.9232	4.97023
51.2173	4.61628
