Adsorption isotherm of Hydrogen on PMOF-2(Cu)
DOI: 10.1039/B909250a
Adsorbate Hydrogen: InChIKey UFHFLCQGNIYNRP-UHFFFAOYSA-N
Temperature: 77 K
Tabular data in the source: 0
pressure (bar)	uptake (wt%)
0.200498	1.27342
1.72991	2.46636
2.7131	3.18737
5.00722	3.92149
7.73831	4.56384
11.1249	4.94401
14.6207	5.33728
21.1753	5.84855
26.7467	6.2156
50.9988	6.91039
