Adsorption isotherm of Methane on cs1000a
DOI: 10.1021/acs.jpcc.7b01925
Article source: Figure 1b
Adsorbate Methane: InChIKey VNWKTOKETHGBQD-UHFFFAOYSA-N
Kind: experiment
Isotherm type: absolute
Temperature: 303 K
Tabular data in the source: 0
pressure (bar)	uptake (mmol/g)
0.026	0.0157
0.411	0.1397
0.877	0.3145
1.709	0.7469
2.907	1.0345
5.073	1.5843
9.839	2.578
15.217	3.4251
20.006	4.1203
25.144	4.7203
29.998	5.2884
34.811	5.6961
40.15	6.1759
44.842	6.5676
