Adsorption isotherm of Nitrogen on CS1000_h
DOI: 10.1021/acs.jpcc.7b01925
Article source: Figure 1a
Adsorbate Nitrogen: InChIKey IJGRMHOSHXDMSA-UHFFFAOYSA-N
Kind: experiment
Isotherm type: absolute
Temperature: 303 K
Tabular data in the source: 0
pressure (bar)	uptake (mmol/g)
0.023	0.0028
1.401	0.0702
2.091	0.1477
2.74	0.1913
5.299	0.3025
10.052	0.4329
15.089	0.5487
20.167	0.6402
25.043	0.6979
30.203	0.7651
34.916	0.8131
39.995	0.8561
44.952	0.8895
