Adsorption isotherm of Methane on cs1000a_h
DOI: 10.1021/acs.jpcc.7b01925
Article source: Figure 1b
Adsorbate Methane: InChIKey VNWKTOKETHGBQD-UHFFFAOYSA-N
Kind: experiment
Isotherm type: absolute
Temperature: 303 K
Tabular data in the source: 0
pressure (bar)	uptake (mmol/g)
0.026	0.0157
0.222	0.125
0.748	0.3894
1.76	0.6617
3.014	0.982
5.037	1.4785
9.852	2.4313
14.949	3.2397
19.763	3.92
24.941	4.52
30.038	5.088
34.932	5.5438
39.988	5.9916
44.923	6.3833
