Adsorption isotherm of Methane on cs400
DOI: 10.1021/acs.jpcc.7b01925
Article source: Figure 1b
Adsorbate Methane: InChIKey VNWKTOKETHGBQD-UHFFFAOYSA-N
Kind: experiment
Isotherm type: absolute
Temperature: 303 K
Tabular data in the source: 0
pressure (bar)	uptake (mmol/g)
0.026	0.0157
3.054	0.5412
4.712	0.8053
10.213	1.277
14.743	1.5326
20.042	1.7959
25.016	1.9151
29.707	2.0504
34.844	2.1856
39.858	2.2326
44.954	2.3277
