Adsorption isotherm of Nitrogen on cs400_h
DOI: 10.1021/acs.jpcc.7b01925
Article source: Figure 1a
Adsorbate Nitrogen: InChIKey IJGRMHOSHXDMSA-UHFFFAOYSA-N
Kind: experiment
Isotherm type: absolute
Temperature: 303 K
Tabular data in the source: 0
pressure (bar)	uptake (mmol/g)
0.023	0.0028
2.132	0.0846
2.782	0.1233
4.813	0.2007
10.215	0.3553
15.049	0.4808
19.924	0.5772
25.084	0.6784
29.959	0.7603
34.753	0.8373
40.198	0.8949
44.911	0.9283
