Adsorption isotherm of Nitrogen on cs1000
DOI: 10.1021/acs.jpcc.7b01925
Article source: Figure 1a
Adsorbate Nitrogen: InChIKey IJGRMHOSHXDMSA-UHFFFAOYSA-N
Kind: experiment
Isotherm type: absolute
Temperature: 303 K
Tabular data in the source: 0
pressure (bar)	uptake (mmol/g)
0.023	0.0028
0.848	0.0542
1.187	0.0773
1.944	0.1426
3.088	0.2118
5.07	0.3136
10.115	0.5285
15.064	0.6492
19.917	0.7449
25.076	0.8328
29.876	0.8913
34.995	0.9683
40.074	1.0113
44.747	1.0398
