Adsorption isotherm of Methane on CS1000_h
DOI: 10.1021/acs.jpcc.7b01925
Article source: Figure 1b
Adsorbate Methane: InChIKey VNWKTOKETHGBQD-UHFFFAOYSA-N
Kind: experiment
Isotherm type: absolute
Temperature: 303 K
Tabular data in the source: 0
pressure (bar)	uptake (mmol/g)
0.026	0.0157
0.707	0.1569
0.991	0.237
1.921	0.4292
3.013	0.5332
4.874	0.6931
10.051	0.8363
14.863	0.9234
19.797	1.0186
24.933	1.0495
29.867	1.0726
34.922	1.1116
39.977	1.1586
44.911	1.1496
