Adsorption isotherm of Methane on cs1000
DOI: 10.1021/acs.jpcc.7b01925
Article source: Figure 1b
Adsorbate Methane: InChIKey VNWKTOKETHGBQD-UHFFFAOYSA-N
Kind: experiment
Isotherm type: absolute
Temperature: 303 K
Tabular data in the source: 0
pressure (bar)	uptake (mmol/g)
0.026	0.0157
0.627	0.189
0.991	0.2531
1.598	0.3972
2.892	0.5572
4.955	0.7572
9.97	0.9805
15.147	1.1077
19.959	1.1868
24.893	1.282
29.948	1.321
34.882	1.336
39.816	1.383
45.033	1.406
