Adsorption isotherm of Methane on cs400_h
DOI: 10.1021/acs.jpcc.7b01925
Article source: Figure 1b
Adsorbate Methane: InChIKey VNWKTOKETHGBQD-UHFFFAOYSA-N
Kind: experiment
Isotherm type: absolute
Temperature: 303 K
Tabular data in the source: 0
pressure (bar)	uptake (mmol/g)
0.026	0.0157
0.95	0.1328
1.638	0.2609
3.094	0.4129
4.55	0.5649
9.97	0.8283
15.187	1.0756
20.121	1.1547
24.812	1.274
29.908	1.3771
34.963	1.4241
39.937	1.4471
44.912	1.5182
