Adsorption isotherm of Nitrogen on cs400
DOI: 10.1021/acs.jpcc.7b01925
Article source: Figure 1a
Adsorbate Nitrogen: InChIKey IJGRMHOSHXDMSA-UHFFFAOYSA-N
Kind: experiment
Isotherm type: absolute
Temperature: 303 K
Tabular data in the source: 0
pressure (bar)	uptake (mmol/g)
0.023	0.0028
3.146	0.2106
5.055	0.3171
10.172	0.5735
15.086	0.767
20.041	0.941
25.078	1.0907
29.791	1.1969
35.031	1.3175
40.15	1.4236
45.025	1.5103
