Adsorption isotherm of Nitrogen on cs1000a_h
DOI: 10.1021/acs.jpcc.7b01925
Article source: Figure 1a
Adsorbate Nitrogen: InChIKey IJGRMHOSHXDMSA-UHFFFAOYSA-N
Kind: experiment
Isotherm type: absolute
Temperature: 303 K
Tabular data in the source: 0
pressure (bar)	uptake (mmol/g)
0.023	0.0028
0.547	0.0532
1.008	0.1427
2.232	0.2677
3.101	0.4197
5.065	0.6754
10.008	1.2292
14.985	1.7349
19.978	2.1731
25.037	2.5575
30.095	2.9303
35.025	3.2839
39.923	3.6105
44.822	3.9102
