Adsorption isotherm of Nitrogen on cs1000a
DOI: 10.1021/acs.jpcc.7b01925
Article source: Figure 1a
Adsorbate Nitrogen: InChIKey IJGRMHOSHXDMSA-UHFFFAOYSA-N
Kind: experiment
Isotherm type: absolute
Temperature: 303 K
Tabular data in the source: 0
pressure (bar)	uptake (mmol/g)
0.023	0.0028
0.547	0.0532
1.032	0.1295
2.003	0.2822
2.974	0.4043
5.097	0.6851
9.605	1.2851
15.242	1.8003
19.848	2.2347
25.068	2.6422
29.901	2.9996
34.895	3.3494
40.051	3.6952
45.143	3.9795
