Adsorption isotherm of Nitrogen on {[HDMA]2[Zn3(BDC)4]}
DOI: 10.1016/j.micromeso.2014.08.010
Adsorbate Nitrogen: InChIKey IJGRMHOSHXDMSA-UHFFFAOYSA-N
Temperature: 77 K
Tabular data in the source: 0
pressure (bar)	uptake (mg/g)
0.139418	70.8314
0.194704	71.4964
0.237972	72.8266
0.302874	72.8266
0.329315	73.4917
0.387006	73.4917
0.442292	74.8219
0.487963	77.4822
0.531231	77.8147
0.591325	79.1449
0.636997	81.1401
0.687476	82.4703
0.725935	84.133
0.776415	87.1259
0.802856	88.1235
0.82449	89.4537
0.853336	92.4466
0.874969	95.4394
0.884584	99.4299
0.913429	106.413
0.935063	109.074
