Adsorption isotherm of Nitrogen on {Li2[Zn3(BDC)4]}
DOI: 10.1016/j.micromeso.2014.08.010
Adsorbate Nitrogen: InChIKey IJGRMHOSHXDMSA-UHFFFAOYSA-N
Temperature: 77 K
Tabular data in the source: 0
pressure (bar)	uptake (mg/g)
6.93555e-06	0.45308
0.00236502	14.5002
0.00289905	49.3874
0.0760968	71.1918
0.121109	71.6799
0.191844	72.641
0.281853	72.711
0.378314	74.1452
0.564762	74.2901
0.650485	74.3567
0.819789	74.4883
0.87125	76.3406
0.965574	78.2262
