Adsorption isotherm of Nitrogen on {[HDMA]2[Zn3(BDC)4]}
DOI: 10.1016/j.micromeso.2014.08.010
Adsorbate Nitrogen: InChIKey IJGRMHOSHXDMSA-UHFFFAOYSA-N
Temperature: 77 K
Tabular data in the source: 0
pressure (bar)	uptake (mg/g)
0.0144226	62.8504
0.0360564	66.8409
0.0745166	68.171
0.0889392	69.5012
0.103362	70.1663
0.117784	70.8314
0.168263	71.4964
0.348545	73.8242
0.490367	75.4869
0.538443	76.152
0.596132	75.8195
0.636997	77.1496
0.687476	78.8124
0.73555	80.4751
0.783626	82.1378
0.80526	83.4679
0.836509	85.1306
0.860546	86.1283
0.88218	88.1235
0.90141	90.4513
0.925448	95.4394
0.949486	103.088
0.961505	107.411
0.963908	112.399
0.97112	117.72
