Adsorption isotherm of Methanol on Bituminous Coal
DOI: 10.1021/ef00033a001
Article source: Figure 1
Adsorbate Methanol: InChIKey OKKJLVBELUTLKV-UHFFFAOYSA-N
Kind: experiment
Temperature: 303 K
Tabular data in the source: 0
pressure (bar)	uptake (mmol/g)
0.000987	0.1219
0.002761	0.248636
0.004287	0.346117
0.005816	0.43872
0.00736	0.502054
0.008901	0.570266
0.012012	0.653031
0.014879	0.701661
0.017997	0.769791
0.020859	0.828178
0.02399	0.871917
0.027645	0.920506
0.030779	0.959367
0.033651	0.998241
0.036522	1.03712
0.038875	1.06138
0.042535	1.10022
0.045414	1.12446
0.047768	1.14872
0.051435	1.17292
0.054314	1.19716
0.057454	1.22627
0.060593	1.25537
0.063477	1.26985
0.066617	1.29896
0.069761	1.3183
0.073166	1.34252
0.076048	1.36188
0.083643	1.41514
0.091502	1.46839
0.0991	1.51677
0.106178	1.55543
0.113776	1.60381
0.121377	1.64731
0.128715	1.69083
0.136049	1.74411
0.143912	1.7876
0.151508	1.84086
0.159102	1.899
0.166437	1.9474
0.174035	1.99578
0.18162	2.06856
0.188951	2.12671
0.196519	2.23363
0.201175	2.37485
