Adsorption isotherm of Methanol on Bituminous Coal
DOI: 10.1021/ef00033a001
Article source: Figure 1
Adsorbate Methanol: InChIKey OKKJLVBELUTLKV-UHFFFAOYSA-N
Kind: experiment
Temperature: 284 K
Tabular data in the source: 0
pressure (bar)	uptake (mmol/g)
0.000898	0.292636
0.00164	0.380402
0.002656	0.448642
0.003409	0.516895
0.003899	0.585162
0.004662	0.633903
0.005685	0.687508
0.006448	0.736248
0.007211	0.784989
0.00824	0.828838
0.00875	0.858079
0.009521	0.892185
0.010029	0.926305
0.011065	0.955519
0.011838	0.984747
0.01338	1.05296
0.014663	1.11143
0.016748	1.14547
0.0183	1.19417
0.019849	1.24774
0.020878	1.29159
0.0227	1.32564
0.02452	1.36457
0.025811	1.40841
0.027371	1.44247
0.028933	1.47166
0.03049	1.5106
0.031789	1.5398
0.033614	1.56897
0.035173	1.60304
0.03647	1.63712
0.038037	1.65655
0.039338	1.68087
0.0409	1.71006
0.042192	1.75389
0.044279	1.78305
0.045581	1.80737
0.04688	1.83657
0.048442	1.86576
0.050002	1.89983
0.051564	1.92901
0.053126	1.9582
0.054688	1.98739
0.055987	2.01659
0.057551	2.04089
0.059116	2.0652
0.060673	2.10415
0.062232	2.13821
0.063789	2.17715
0.065609	2.21608
0.067171	2.24527
0.068722	2.29397
0.070019	2.32805
0.071571	2.37675
0.073383	2.43031
0.074929	2.48877
0.076713	2.59599
0.077685	2.74716
0.0784	2.88859
