Adsorption isotherm of Nitrogen on CuBTC 75/110
DOI: 10.1039/c5ra01890k
Article source: Figure 2
Adsorbate Nitrogen: InChIKey IJGRMHOSHXDMSA-UHFFFAOYSA-N
Kind: experiment
Temperature: 77 K
Tabular data in the source: 0
pressure (bar)	uptake (cm3(STP)/g)
0.010765	297.899
0.021922	308.879
0.034455	315.641
0.048366	319.028
0.077583	327.491
0.115123	330.898
0.135978	332.603
0.154062	336.837
0.163797	338.533
0.183252	337.705
0.204104	338.567
0.220786	339.424
0.230515	339.432
0.24581	341.133
0.25832	341.143
0.284731	342.009
0.309759	344.562
0.331997	344.58
0.358412	346.29
0.383431	346.311
0.407056	345.487
0.432086	348.883
0.458493	348.061
0.482127	349.769
0.508541	351.478
0.511326	353.168
0.534941	348.969
0.534959	354.032
0.559962	349.833
0.559972	352.365
0.584996	354.074
0.586377	351.543
0.607244	356.624
0.611398	352.408
0.661438	353.293
0.693406	353.32
0.717045	355.871
0.760135	356.751
0.78654	355.929
0.812958	358.483
0.837999	365.255
0.868589	368.656
0.89501	372.053
0.924202	372.922
0.945056	374.627
0.977024	374.653
0.992322	377.198
