Adsorption isotherm of Hydrogen on CuBTC 75/80
DOI: 10.1039/c5ra01890k
Article source: Figure 6
Adsorbate Hydrogen: InChIKey UFHFLCQGNIYNRP-UHFFFAOYSA-N
Kind: experiment
Temperature: 298 K
Tabular data in the source: 0
pressure (bar)	uptake (wt%)
1.17069	0.031409
3.19695	0.070689
7.0138	0.135122
11.6101	0.215266
16.6716	0.292288
21.8869	0.361471
27.263	0.458895
32.7106	0.524948
36.8334	0.565861
40.0237	0.60204
46.7973	0.699507
