Adsorption isotherm of Hydrogen on CuBTC 75/140
DOI: 10.1039/c5ra01890k
Article source: Figure 6
Adsorbate Hydrogen: InChIKey UFHFLCQGNIYNRP-UHFFFAOYSA-N
Kind: experiment
Temperature: 298 K
Tabular data in the source: 0
pressure (bar)	uptake (wt%)
2.25674	0.026738
5.76151	0.083318
9.57532	0.132065
13.8602	0.207494
17.9063	0.253111
22.4228	0.322272
27.6378	0.389887
33.0823	0.440254
38.2203	0.511003
43.5138	0.583326
