Adsorption isotherm of Nitrogen on CuBTC 75/140
DOI: 10.1039/c5ra01890k
Article source: Figure 2
Adsorbate Nitrogen: InChIKey IJGRMHOSHXDMSA-UHFFFAOYSA-N
Kind: experiment
Temperature: 77 K
Tabular data in the source: 0
pressure (bar)	uptake (cm3(STP)/g)
0.009284	271.738
0.027382	280.192
0.046867	287.803
0.063558	291.192
0.087199	294.587
0.115015	299.674
0.190094	306.487
0.224839	305.672
0.29296	309.949
0.306862	310.804
0.384709	314.244
0.418067	314.272
0.47228	316.005
0.479276	329.513
0.489053	343.023
0.51537	316.885
0.562751	352.367
0.615465	322.875
0.639203	354.119
0.711376	324.643
0.726788	360.099
0.748915	328.05
0.781007	363.52
0.783681	333.142
0.805926	334.848
0.810196	363.544
0.818459	341.61
0.8449	350.915
0.849122	366.108
0.892215	367.832
0.918624	367.854
0.943643	367.875
0.970057	369.584
1.00482	372.989
