Adsorption isotherm of Hydrogen on CuBTC 75/80
DOI: 10.1039/c5ra01890k
Article source: Figure 7
Adsorbate Hydrogen: InChIKey UFHFLCQGNIYNRP-UHFFFAOYSA-N
Kind: experiment
Temperature: 298 K
Tabular data in the source: 0
pressure (bar)	uptake (wt%)
3.44186	0.072437
6.88372	0.131148
11.5349	0.215309
16.9302	0.289643
22.0465	0.362025
27.2558	0.455972
32.5581	0.522465
36.9302	0.557617
40.3721	0.600641
46.8837	0.692585
