Adsorption isotherm of Hydrogen on CuBTC 75/110
DOI: 10.1039/c5ra01890k
Article source: Figure 5
Adsorbate Hydrogen: InChIKey UFHFLCQGNIYNRP-UHFFFAOYSA-N
Kind: experiment
Temperature: 298 K
Tabular data in the source: 0
pressure (bar)	uptake (wt%)
2.32558	0.062014
5.96899	0.107598
9.53488	0.171055
14.186	0.22082
18.6047	0.276073
23.1783	0.376717
27.5969	0.429219
33.0233	0.507907
38.3721	0.545333
44.5736	0.650193
