Adsorption isotherm of Hydrogen on CuBTC 75/80
DOI: 10.1039/c5ra01890k
Article source: Figure 7
Adsorbate Hydrogen: InChIKey UFHFLCQGNIYNRP-UHFFFAOYSA-N
Kind: experiment
Temperature: 288 K
Tabular data in the source: 0
pressure (bar)	uptake (wt%)
1.11628	0.047022
3.06977	0.10186
6.7907	0.158602
11.3488	0.236884
16.2791	0.321037
21.2093	0.395385
26.4186	0.489333
32	0.559739
36.9302	0.645852
42.1395	0.708427
48.4651	0.792534
