Adsorption isotherm of Hydrogen on CuBTC 50/110
DOI: 10.1039/c5ra01890k
Article source: Figure 5
Adsorbate Hydrogen: InChIKey UFHFLCQGNIYNRP-UHFFFAOYSA-N
Kind: experiment
Temperature: 298 K
Tabular data in the source: 0
pressure (bar)	uptake (wt%)
0.387597	0.008273
1.93798	0.01661
4.72868	0.036016
8.52713	0.055479
13.1008	0.070858
18.7597	0.108301
25.5039	0.144429
32.8682	0.184716
39.9225	0.223611
46.8992	0.276254
