Adsorption isotherm of Hydrogen on CuBTC 100/100
DOI: 10.1039/c5ra01890k
Article source: Figure 5
Adsorbate Hydrogen: InChIKey UFHFLCQGNIYNRP-UHFFFAOYSA-N
Kind: experiment
Temperature: 298 K
Tabular data in the source: 0
pressure (bar)	uptake (wt%)
0.465116	0.013778
1.24031	0.030324
3.79845	0.059345
7.05426	0.129661
11.3953	0.189036
15.5039	0.277277
19.9225	0.299524
24.031	0.371263
29.6124	0.425205
34.7287	0.499749
39.6124	0.567405
45.4264	0.65024
