Adsorption isotherm of Nitrogen on CuBTC 75/80
DOI: 10.1039/c5ra01890k
Article source: Figure 2
Adsorbate Nitrogen: InChIKey IJGRMHOSHXDMSA-UHFFFAOYSA-N
Kind: experiment
Temperature: 77 K
Tabular data in the source: 0
pressure (bar)	uptake (cm3(STP)/g)
0.006645	312.421
0.01224	322.526
0.033115	330.105
0.062327	336.842
0.081803	341.895
0.106836	346.105
0.129081	347.789
0.148539	347.789
0.165225	349.474
0.181907	350.316
0.205544	352.842
0.241681	352.842
0.259757	354.526
0.35428	357.053
0.459925	360.421
0.562794	364.632
0.665651	365.474
0.754611	367.158
0.810211	368
0.863034	369.684
0.893612	369.684
0.92419	369.684
0.956163	371.368
0.97423	370.526
0.986745	372.211
1.00203	372.211
