Adsorption isotherm of Hydrogen on CuBTC 75/110
DOI: 10.1039/c5ra01890k
Article source: Figure 6
Adsorbate Hydrogen: InChIKey UFHFLCQGNIYNRP-UHFFFAOYSA-N
Kind: experiment
Temperature: 298 K
Tabular data in the source: 0
pressure (bar)	uptake (wt%)
2.1855	0.059676
5.76669	0.109985
9.42826	0.174413
13.9408	0.223182
18.5329	0.281366
23.0543	0.375625
27.8007	0.429107
33.0954	0.507705
38.4596	0.543952
44.6142	0.65238
