Adsorption isotherm of Hydrogen on CuBTC 75/80
DOI: 10.1039/c5ra01890k
Article source: Figure 7
Adsorbate Hydrogen: InChIKey UFHFLCQGNIYNRP-UHFFFAOYSA-N
Kind: experiment
Temperature: 308 K
Tabular data in the source: 0
pressure (bar)	uptake (wt%)
3.53488	0.058708
7.06977	0.115455
11.5349	0.170211
16.6512	0.246515
21.7674	0.299289
27.2558	0.37558
32.3721	0.426393
38.0465	0.48111
42.9767	0.53389
50.0465	0.608168
