Adsorption isotherm of Carbon Dioxide on Ammonium ZSM-5
DOI: 10.1007/s10450-018-9958-x
Article source: Figure 2A
Adsorbate Carbon Dioxide: InChIKey CURLTUGMZLYLDI-UHFFFAOYSA-N
Kind: experiment
Isotherm type: excess
Temperature: 293 K
Tabular data in the source: 0
pressure (bar)	uptake (mmol/g)
0.051256	0.479566
0.205174	1.1126
0.446116	1.63516
1.31741	2.36392
2.47805	2.70498
3.57316	2.87272
6.5817	3.11376
9.85348	3.24968
12.9516	3.33439
15.8556	3.39204
17.9616	3.42738
19.947	3.45299
22.9682	3.48293
26.7658	3.51167
29.6292	3.53278
33.4022	3.54947
35.4951	3.56623
36.5688	3.57149
