Adsorption isotherm of Carbon Dioxide on Ammonium ZSM-5
DOI: 10.1007/s10450-018-9958-x
Article source: Figure 2A
Adsorbate Carbon Dioxide: InChIKey CURLTUGMZLYLDI-UHFFFAOYSA-N
Kind: experiment
Isotherm type: excess
Temperature: 293 K
Tabular data in the source: 0
pressure (bar)	uptake (mmol/g)
0	0
0.003074	0.038822
0.005034	0.064361
0.009227	0.111049
0.021971	0.225892
0.047756	0.398056
0.103751	0.663013
0.16252	0.871818
0.409165	1.43738
0.699541	1.80819
0.89819	1.97921
1.30149	2.2166
1.9225	2.44091
3.29839	2.70883
6.74343	2.9897
9.97515	3.10614
12.9616	3.20685
