Adsorption isotherm of Carbon Dioxide on Ammonium ZSM-5
DOI: 10.1007/s10450-018-9958-x
Article source: Figure 2A
Adsorbate Carbon Dioxide: InChIKey CURLTUGMZLYLDI-UHFFFAOYSA-N
Kind: experiment
Isotherm type: excess
Temperature: 293 K
Tabular data in the source: 0
pressure (bar)	uptake (mmol/g)
0.068443	0.572883
0.185562	1.03147
0.339265	1.40508
0.524445	1.70061
0.726317	1.9206
0.93414	2.08611
1.15165	2.21337
1.6388	2.41402
2.13103	2.54824
2.7188	2.66349
3.32085	2.75056
4.2401	2.85014
5.16643	2.92622
7.19973	3.04276
9.47565	3.13004
11.6678	3.19416
15.048	3.26601
18.4045	3.31896
21.753	3.36042
25.086	3.38595
28.4007	3.41021
31.713	3.42865
35.0008	3.43974
38.2878	3.44461
41.5588	3.44766
44.8317	3.44133
47.817	3.38465
