Adsorption isotherm of Carbon Dioxide on Ammonium ZSM-5
DOI: 10.1007/s10450-018-9958-x
Article source: Figure 2A
Adsorbate Carbon Dioxide: InChIKey CURLTUGMZLYLDI-UHFFFAOYSA-N
Kind: experiment
Isotherm type: excess
Temperature: 293 K
Tabular data in the source: 0
pressure (bar)	uptake (mmol/g)
1.02038	2.1619
2.02852	2.55665
3.02407	2.74773
4.02577	2.87087
5.01137	2.95843
6.01523	3.02783
7.01103	3.08337
8.01262	3.12995
9.00729	3.16948
10.0085	3.2041
11.0081	3.23445
12.0053	3.26117
13.0069	3.2854
14.0063	3.3076
15.0036	3.32733
16.0047	3.34542
17.0014	3.3629
18.0004	3.37797
19.0001	3.39298
20.0024	3.40628
20.9976	3.41952
21.9986	3.43085
22.9941	3.4416
23.9945	3.45298
24.9915	3.46163
25.9935	3.47185
26.9918	3.47988
27.9889	3.48723
28.9884	3.4944
29.9873	3.50137
30.9878	3.50732
31.9793	3.51385
32.9806	3.51935
33.9776	3.52222
34.9756	3.5301
35.9763	3.53265
36.9738	3.53697
37.9662	3.54155
38.9658	3.54378
39.9675	3.54807
40.9581	3.55035
41.9605	3.55463
42.9586	3.55678
43.9564	3.55932
44.9575	3.56155
