Adsorption isotherm of Carbon Dioxide on Ammonium ZSM-5
DOI: 10.1007/s10450-018-9958-x
Article source: Figure 2A
Adsorbate Carbon Dioxide: InChIKey CURLTUGMZLYLDI-UHFFFAOYSA-N
Kind: experiment
Isotherm type: excess
Temperature: 293 K
Tabular data in the source: 0
pressure (bar)	uptake (mmol/g)
0	0
0.063	0.503
0.108	0.696
0.22	1.085
0.344	1.37
0.59	1.732
0.645	1.812
3.375	2.77
7.648	3.096
9.301	3.169
11.718	3.239
14.195	3.305
21.855	3.437
30.478	3.531
