Adsorption isotherm of Carbon Dioxide on Ammonium ZSM-5
DOI: 10.1007/s10450-018-9958-x
Article source: Figure 2A
Adsorbate Carbon Dioxide: InChIKey CURLTUGMZLYLDI-UHFFFAOYSA-N
Kind: experiment
Isotherm type: excess
Temperature: 293 K
Tabular data in the source: 0
pressure (bar)	uptake (mmol/g)
0.195188	1.02222
0.386651	1.46662
0.703885	1.88838
0.894546	2.04767
1.27267	2.27219
1.89592	2.49016
2.60089	2.64767
3.29063	2.75044
6.87074	3.03228
10.4645	3.17486
13.636	3.25384
16.8676	3.31211
20.7218	3.36365
23.6954	3.39339
25.1638	3.40633
27.3797	3.42393
30.1034	3.44118
33.1932	3.46078
36.3496	3.4761
40.444	3.49695
43.8511	3.51576
49.1087	3.55667
50.0846	3.5707
