Adsorption isotherm of Carbon Dioxide on Ammonium ZSM-5
DOI: 10.1007/s10450-018-9958-x
Article source: Figure 2A
Adsorbate Carbon Dioxide: InChIKey CURLTUGMZLYLDI-UHFFFAOYSA-N
Kind: experiment
Isotherm type: excess
Temperature: 293 K
Tabular data in the source: 0
pressure (bar)	uptake (mmol/g)
0	0
0.21	1.08
0.67	1.85
1.36	2.3
2.21	2.57
3.14	2.74
4.11	2.85
5.1	2.94
6.11	3.01
7.12	3.06
8.13	3.11
9.15	3.14
10.17	3.18
11.18	3.21
12.24	3.23
13.26	3.26
14.3	3.28
15.29	3.3
16.32	3.32
17.32	3.34
18.35	3.36
19.36	3.36
20.4	3.38
21.46	3.4
22.5	3.4
23.51	3.42
24.38	3.42
25.48	3.43
26.59	3.44
27.64	3.44
28.55	3.46
29.49	3.45
30.51	3.47
31.52	3.47
32.42	3.48
33.53	3.48
34.58	3.49
35.55	3.5
36.53	3.5
37.57	3.5
38.7	3.52
39.72	3.52
40.69	3.52
41.81	3.53
42.8	3.53
43.84	3.54
44.84	3.53
45.82	3.53
