Adsorption isotherm of Carbon Dioxide on Ammonium ZSM-5
DOI: 10.1007/s10450-018-9958-x
Article source: Figure 2A
Adsorbate Carbon Dioxide: InChIKey CURLTUGMZLYLDI-UHFFFAOYSA-N
Kind: experiment
Isotherm type: excess
Temperature: 293 K
Tabular data in the source: 0
pressure (bar)	uptake (mmol/g)
0.032224	0.337957
0.168285	0.951333
0.293321	1.30234
0.400354	1.48133
0.600239	1.74964
0.694839	1.84642
0.849075	1.97456
1.10745	2.12879
1.60872	2.33869
2.61083	2.56429
5.0239	2.82441
8.29071	3.01558
11.3339	3.11556
14.2937	3.18191
17.6444	3.238
19.73	3.26344
22.5541	3.29242
26.4725	3.32933
27.0034	3.33321
29.6202	3.35421
