Adsorption isotherm of Carbon Dioxide on Ammonium ZSM-5
DOI: 10.1007/s10450-018-9958-x
Article source: Figure 2A
Adsorbate Carbon Dioxide: InChIKey CURLTUGMZLYLDI-UHFFFAOYSA-N
Kind: experiment
Isotherm type: excess
Temperature: 293 K
Tabular data in the source: 0
pressure (bar)	uptake (mmol/g)
0.001	0
0.007	0.131
0.024	0.363
0.055	0.629
0.105	0.891
0.188	1.172
0.37	1.546
0.684	1.892
1.013	2.101
1.978	2.414
3.37	2.625
5.89	2.819
8.438	2.933
10.793	3.005
13.51	3.068
15.887	3.111
19.579	3.162
25.953	3.229
30.791	3.266
35.083	3.295
38.303	3.316
41.065	3.334
43.219	3.349
45.008	3.363
46.343	3.376
47.5	3.387
48.469	3.399
49.342	3.411
50.029	3.423
50.626	3.433
51.183	3.444
51.633	3.455
52.07	3.466
52.414	3.476
52.742	3.487
53.061	3.498
