Adsorption isotherm of Carbon Dioxide on Ammonium ZSM-5
DOI: 10.1007/s10450-018-9958-x
Article source: Figure 2A
Adsorbate Carbon Dioxide: InChIKey CURLTUGMZLYLDI-UHFFFAOYSA-N
Kind: experiment
Isotherm type: excess
Temperature: 293 K
Tabular data in the source: 0
pressure (bar)	uptake (mmol/g)
0.002108	0
0.017108	0.183069
0.315874	1.31681
0.417969	1.50303
0.711991	1.86758
0.904888	2.02346
1.30451	2.24792
1.50299	2.3277
1.90004	2.45321
3.00103	2.67755
3.29873	2.71982
4.99849	2.89587
6.69701	3.01136
9.9945	3.16401
12.9938	3.25798
14.9927	3.31011
15.9939	3.3205
17.492	3.33488
19.9988	3.36182
