Adsorption isotherm of Carbon Dioxide on Ammonium ZSM-5
DOI: 10.1007/s10450-018-9958-x
Article source: Figure 2A
Adsorbate Carbon Dioxide: InChIKey CURLTUGMZLYLDI-UHFFFAOYSA-N
Kind: experiment
Isotherm type: excess
Temperature: 293 K
Tabular data in the source: 0
pressure (bar)	uptake (mmol/g)
0.000901	0.026705
0.521318	1.6951
0.686252	1.86906
0.896349	2.04527
1.49844	2.35484
2.50514	2.62104
3.49729	2.77052
4.50382	2.87475
5.50284	2.95165
6.49471	3.01283
7.48583	3.06355
8.47688	3.10575
9.47245	3.14255
10.4617	3.17475
11.4544	3.20383
12.446	3.22922
13.4362	3.2527
14.4311	3.274
15.4235	3.29352
16.4189	3.31155
17.4133	3.32828
18.4095	3.34418
19.4053	3.35808
18.5313	3.34564
17.5294	3.33163
16.5409	3.31379
15.5425	3.29697
14.5504	3.27764
13.5555	3.25571
12.5597	3.23331
11.5686	3.20957
10.5811	3.18116
9.59039	3.14967
8.59924	3.1161
7.60843	3.07352
6.611	3.0231
5.62319	2.96934
4.63835	2.89611
3.62665	2.79769
2.65411	2.65944
1.63369	2.41703
0.936031	2.0901
0.77682	1.96325
0.657326	1.85008
