Adsorption isotherm of Carbon Dioxide on Ammonium ZSM-5
DOI: 10.1007/s10450-018-9958-x
Article source: Figure 2A
Adsorbate Carbon Dioxide: InChIKey CURLTUGMZLYLDI-UHFFFAOYSA-N
Kind: experiment
Isotherm type: excess
Temperature: 293 K
Tabular data in the source: 0
pressure (bar)	uptake (mmol/g)
0.000272	0
0.403224	1.5051
0.669511	1.85502
0.935657	2.07712
1.31924	2.32955
1.83423	2.49808
3.34297	2.76682
6.64775	3.0253
9.97842	3.16063
13.2351	3.24567
16.5757	3.31177
19.8826	3.36138
23.2706	3.39886
26.6473	3.43004
29.8913	3.45542
33.5364	3.47917
36.14	3.49671
40.0179	3.51983
43.9182	3.5436
