Adsorption isotherm of Carbon Dioxide on Ammonium ZSM-5
DOI: 10.1007/s10450-018-9958-x
Article source: Figure 2A
Adsorbate Carbon Dioxide: InChIKey CURLTUGMZLYLDI-UHFFFAOYSA-N
Kind: experiment
Isotherm type: excess
Temperature: 293 K
Tabular data in the source: 0
pressure (bar)	uptake (mmol/g)
0.07525	0.56975
0.26625	1.2065
0.56925	1.72475
0.8825	2.025
1.604	2.382
2.8435	2.67375
4.18125	2.8395
5.6515	2.95375
7.547	3.05125
9.25	3.1175
13.1447	3.22675
16.482	3.2875
20.1185	3.32575
24.4947	3.36375
