Adsorption isotherm of Nitrogen on IRMOF-1-CSA
DOI: 10.1002/chem.201100642
Adsorbate Nitrogen: InChIKey IJGRMHOSHXDMSA-UHFFFAOYSA-N
Temperature: 77 K
Tabular data in the source: 0
pressure (bar)	uptake (cm3(STP)/g)
0.0051045	4.54985
0.00526462	1.5558
0.00574496	12.5737
0.00589867	9.69939
0.0087936	15.5671
0.012995	17.0033
0.0204436	17.7204
0.0289746	18.1976
0.038588	18.4352
0.0482013	18.6727
0.0588842	18.9101
0.0685038	19.0278
0.0781236	19.1456
0.0866742	19.2636
0.0941484	19.5016
0.103774	19.4996
0.11447	19.4974
0.12302	19.6154
0.133709	19.733
0.144406	19.7308
0.152962	19.7291
0.163651	19.8466
0.174347	19.8444
0.185043	19.8422
0.1936	19.8405
0.204289	19.958
0.214985	19.9558
0.224605	20.0736
0.235294	20.1912
0.245989	20.189
0.256685	20.1868
0.267381	20.1846
0.278077	20.1824
0.287703	20.1804
0.297323	20.2982
0.308006	20.5355
0.317626	20.6533
0.327239	20.8909
0.337928	21.0084
0.347548	21.1262
0.358237	21.2438
0.368933	21.2416
0.379628	21.2394
0.389242	21.4769
0.399944	21.355
0.410633	21.4725
0.421323	21.5901
0.432019	21.5879
0.441645	21.5859
0.451271	21.5839
0.461967	21.5817
0.472656	21.6993
0.483358	21.5773
0.494054	21.5751
0.50475	21.5729
0.515446	21.5707
0.526135	21.6883
0.535761	21.6863
0.546457	21.6841
0.557146	21.8017
0.567848	21.6797
0.578544	21.6775
