Adsorption isotherm of Nitrogen on Fused-Silica Capillary
DOI: 10.1002/chem.201100642
Adsorbate Nitrogen: InChIKey IJGRMHOSHXDMSA-UHFFFAOYSA-N
Temperature: 77 K
Tabular data in the source: 0
pressure (bar)	uptake (cm3(STP)/g)
0.0117589	0.117345
0.0224547	0.115147
0.033144	0.232711
0.0427702	0.230734
0.0523964	0.228756
0.0630924	0.226559
0.0727182	0.224581
0.082338	0.342365
0.0919704	0.220625
0.0994704	-0.0204364
0.10909	0.0973477
0.11871	0.215132
0.128336	0.213154
0.139032	0.210957
0.149721	0.328521
0.159341	0.446305
0.168974	0.324565
0.1786	0.322588
0.198909	0.557936
0.20425	0.676599
0.214946	0.674402
0.225642	0.672204
0.236338	0.670007
0.247033	0.667809
0.258805	0.54563
0.269494	0.663195
0.28019	0.660997
0.290879	0.778562
0.301576	0.776364
0.311201	0.774386
0.321897	0.772189
0.332593	0.769991
0.343289	0.767794
0.353984	0.765597
0.36468	0.763399
0.375376	0.761202
0.386072	0.759004
0.396767	0.756807
0.407463	0.754609
0.418159	0.752412
0.423507	0.751313
0.434196	0.868877
0.44381	1.10642
0.454493	1.34375
0.464106	1.5813
0.474795	1.69886
0.485485	1.81642
0.49618	1.81423
0.50687	1.93179
0.517565	1.92959
0.528261	1.9274
0.538957	1.9252
0.549653	1.923
0.559273	2.04078
0.569968	2.03859
0.580664	2.03639
