Adsorption isotherm of Carbon Dioxide, Methane on Coal
DOI: 10.2118/78146-pa
Article source: Figure 4
Adsorbate Carbon Dioxide: InChIKey CURLTUGMZLYLDI-UHFFFAOYSA-N
Adsorbate Methane: InChIKey VNWKTOKETHGBQD-UHFFFAOYSA-N
Kind: experiment
Temperature: 301 K
Tabular data in the source: 0
pressure (bar)	Carbon Dioxide fraction	Carbon Dioxide uptake (molefraction (adsorbed phase))	Methane fraction	Methane uptake (molefraction (adsorbed phase))	total uptake (molefraction (adsorbed phase))
124.106			0.21426	0.11711	0.11711
124.106			0.43552	0.23153	0.23153
124.106			0.64282	0.38521	0.38521
124.106			0.83011	0.64046	0.64046
