Adsorption isotherm of Oxygen on IH3
DOI: 10.3390/en10060827
Article source: Figure 2f
Adsorbate Oxygen: InChIKey MYMOFIZGZYHOMD-UHFFFAOYSA-N
Kind: experiment
Temperature: 343 K
Tabular data in the source: 0
pressure (bar)	uptake (mmol/g)
0.00409	0.00163
0.02278	0.00421
0.0438	0.00856
0.09841	0.01902
0.14775	0.0284
0.19681	0.03899
0.2485	0.04878
0.29872	0.05842
0.34748	0.0678
0.39654	0.07867
0.44881	0.08872
0.49553	0.09783
0.54605	0.10842
0.59715	0.11467
0.64591	0.12636
0.69906	0.13546
0.74753	0.14348
0.79921	0.15543
0.84886	0.16522
0.8982	0.17351
0.95106	0.18397
0.99924	0.19171
1.04537	0.20014
1.09764	0.21128
1.15049	0.21902
1.19634	0.2288
