Adsorption isotherm of Water on Norit R2030
DOI: 10.3390/en10060827
Article source: Figure 3e
Adsorbate Water: InChIKey XLYOFNOQVPJJNP-UHFFFAOYSA-N
Kind: experiment
Temperature: 343 K
Tabular data in the source: 0
pressure (bar)	uptake (mmol/g)
0.003464	0.1693
0.018061	0.3502
0.01897	0.5517
0.035157	0.7615
0.038111	0.6035
0.046289	0.953
0.054696	0.7989
0.067929	1.3142
0.069122	1.0409
0.079856	1.5561
0.08281	1.3009
0.094737	1.8665
0.102235	1.6584
0.115069	2.4219
0.116434	1.976
0.131142	3.0598
0.131939	2.4232
0.147666	4.7588
0.14784	3.32
0.162999	5.6053
0.163727	9.2708
0.179232	9.9194
0.18126	15.6677
0.191823	16.3411
0.196715	13.9098
0.211875	15.767
0.212043	16.6196
0.22664	16.8221
0.231072	16.4231
0.240499	17.0137
0.24618	16.6004
0.256572	17.1911
0.261799	16.8785
0.275827	17.3796
0.276339	17.135
0.285483	17.3515
0.28588	17.4163
0.295422	17.5392
