Adsorption isotherm of Carbon Dioxide on IH2
DOI: 10.3390/en10060827
Article source: Figure 2c
Adsorbate Carbon Dioxide: InChIKey CURLTUGMZLYLDI-UHFFFAOYSA-N
Kind: experiment
Temperature: 343 K
Tabular data in the source: 0
pressure (bar)	uptake (mmol/g)
0.00342	0.0146
0.01597	0.0477
0.03934	0.1059
0.09095	0.2223
0.14483	0.3185
0.19272	0.4009
0.2466	0.4866
0.29449	0.5513
0.34324	0.6176
0.39712	0.6846
0.44501	0.7364
0.49319	0.7857
0.54621	0.8374
0.59438	0.8802
0.64541	0.9303
0.69672	0.9772
0.74404	1.02
0.79792	1.0596
0.84438	1.1008
0.89398	1.1282
0.94899	1.1703
0.99489	1.2018
1.04962	1.2308
1.09181	1.2672
1.14967	1.3011
1.19642	1.3318
