Adsorption isotherm of Carbon Dioxide on IH3
DOI: 10.3390/en10060827
Article source: Figure 2d
Adsorbate Carbon Dioxide: InChIKey CURLTUGMZLYLDI-UHFFFAOYSA-N
Kind: experiment
Temperature: 323 K
Tabular data in the source: 0
pressure (bar)	uptake (mmol/g)
0.00514	0.0122
0.01856	0.1125
0.04625	0.2381
0.07395	0.3499
0.09936	0.4371
0.13363	0.5554
0.14762	0.5888
0.18732	0.6981
0.23015	0.8017
0.249	0.8539
0.29727	0.9575
0.34525	1.0636
0.39751	1.1606
0.4492	1.2422
0.49661	1.3246
0.54659	1.4021
0.59686	1.469
0.64656	1.5449
0.69768	1.6069
0.74538	1.6713
0.79707	1.7276
0.84791	1.7888
0.89704	1.8411
0.94759	1.8916
0.99529	1.9398
1.04642	1.9912
1.09754	2.0369
1.14524	2.0875
1.19523	2.1283
