Adsorption isotherm of Water on IH3
DOI: 10.3390/en10060827
Article source: Figure 3a
Adsorbate Water: InChIKey XLYOFNOQVPJJNP-UHFFFAOYSA-N
Kind: experiment
Temperature: 323 K
Tabular data in the source: 0
pressure (bar)	uptake (mmol/g)
0.00893	0.4177
0.01587	0.6051
0.01752	0.8355
0.02141	0.7012
0.02637	1.1428
0.02662	0.9317
0.03191	1.4213
0.03348	1.2726
0.03803	1.9637
0.03993	1.8534
0.0453	2.9381
0.04613	2.6598
0.05167	4.4786
0.05249	4.0612
0.05861	6.595
0.05894	6.0096
0.06555	9.4841
0.06613	8.2988
0.07126	11.6436
0.07374	9.4267
0.07795	12.2869
0.07853	10.0795
0.08341	12.9636
0.08547	10.7083
0.0906	13.698
0.09068	11.5914
0.09581	14.1013
0.09647	12.7289
0.10234	14.5429
0.10474	13.7704
0.10779	14.8502
0.11044	14.5336
0.11209	15.0615
0.11466	14.8552
0.11871	15.1672
