Adsorption isotherm of Water on Norit R2030
DOI: 10.3390/en10060827
Article source: Figure 3e
Adsorbate Water: InChIKey XLYOFNOQVPJJNP-UHFFFAOYSA-N
Kind: experiment
Temperature: 323 K
Tabular data in the source: 0
pressure (bar)	uptake (mmol/g)
0.001022	0.1152
0.006757	0.6444
0.009086	0.8244
0.012607	1.0333
0.014027	0.8751
0.018059	1.2963
0.02107	1.1274
0.025101	1.5989
0.026351	1.3005
0.030837	1.8511
0.034245	1.6823
0.037765	2.2401
0.04072	2.0209
0.045489	2.6975
0.046683	2.3954
0.050542	3.3921
0.052588	3.0002
0.058318	5.5294
0.0594	4.5295
0.064105	7.724
0.065003	11.3968
0.069703	16.6093
0.071306	12.1958
0.076575	16.8472
0.078227	15.3222
0.08339	17.0851
0.084244	16.4953
0.089978	17.3518
0.090207	16.9669
0.095431	17.4997
0.09776	17.2372
0.102757	17.716
0.104348	17.4607
0.109289	17.9071
0.1098	17.6842
0.11264	17.9901
0.115025	17.9076
0.116956	18.0983
