Adsorption isotherm of Nitrogen on IH3
DOI: 10.3390/en10060827
Article source: Figure 2b
Adsorbate Nitrogen: InChIKey IJGRMHOSHXDMSA-UHFFFAOYSA-N
Kind: experiment
Temperature: 343 K
Tabular data in the source: 0
pressure (bar)	uptake (mmol/g)
0.00474	0.00183
0.01949	0.00463
0.0445	0.01085
0.09717	0.02145
0.1472	0.03181
0.19671	0.04242
0.24806	0.05315
0.29677	0.06387
0.34602	0.07326
0.39895	0.08496
0.44635	0.09325
0.49717	0.10129
0.54799	0.11067
0.5975	0.12043
0.64595	0.13127
0.69835	0.14212
0.7476	0.157
0.80184	0.16736
0.88611	0.18393
0.89822	0.18601
0.98723	0.1999
0.99882	0.2027
1.04753	0.21379
1.09862	0.22903
1.15128	0.2383
1.19763	0.24097
