Adsorption isotherm of Water on IH2
DOI: 10.3390/en10060827
Article source: Figure 3c
Adsorbate Water: InChIKey XLYOFNOQVPJJNP-UHFFFAOYSA-N
Kind: experiment
Temperature: 343 K
Tabular data in the source: 0
pressure (bar)	uptake (mmol/g)
0.00057	0.0255
0.00308	0.2584
0.00859	0.1404
0.01848	0.4212
0.02456	0.2744
0.03242	0.5424
0.0402	0.4052
0.05041	0.7179
0.05649	0.552
0.06662	0.8774
0.07083	0.6924
0.07861	1.0657
0.08177	0.8838
0.09515	1.3465
0.10114	1.2348
0.11095	1.8187
0.11792	1.7421
0.13227	2.444
0.13268	3.0279
0.14639	5.0412
0.14808	4.1797
0.16236	6.3462
0.16245	7.1981
0.17923	8.2893
0.18255	7.7277
0.19301	8.5988
0.19535	7.983
0.21157	8.8508
0.21634	8.334
0.22316	9.004
0.22988	8.586
0.2439	8.7934
0.24431	9.1859
0.258	9.3613
0.26384	9.1476
0.27429	9.4411
0.27916	9.3677
0.28369	9.5209
0.28669	9.473
0.29674	9.5879
