Adsorption isotherm of Carbon Dioxide on IH2
DOI: 10.3390/en10060827
Article source: Figure 2c
Adsorbate Carbon Dioxide: InChIKey CURLTUGMZLYLDI-UHFFFAOYSA-N
Kind: experiment
Temperature: 303 K
Tabular data in the source: 0
pressure (bar)	uptake (mmol/g)
0.00342	0.0146
0.0174	0.1835
0.03309	0.2951
0.0425	0.3598
0.06218	0.469
0.08528	0.5692
0.0964	0.6202
0.12178	0.7228
0.14459	0.8069
0.17909	0.9112
0.19335	0.9597
0.23554	1.0697
0.28458	1.1925
0.2937	1.2152
0.34302	1.3219
0.39405	1.4181
0.4428	1.5046
0.49326	1.5765
0.54344	1.6581
0.59475	1.7236
0.64407	1.7866
0.69424	1.8505
0.74527	1.9143
0.79572	1.9612
0.84418	2.0178
0.89549	2.0719
0.9468	2.1172
0.99526	2.1527
1.04515	2.202
1.09532	2.2448
1.1472	2.2844
1.19509	2.3151
