Adsorption isotherm of Carbon Dioxide on IH2
DOI: 10.3390/en10060827
Article source: Figure 2c
Adsorbate Carbon Dioxide: InChIKey CURLTUGMZLYLDI-UHFFFAOYSA-N
Kind: experiment
Temperature: 323 K
Tabular data in the source: 0
pressure (bar)	uptake (mmol/g)
0.00342	0.0146
0.01626	0.093
0.04392	0.2094
0.07414	0.3177
0.09666	0.3808
0.13316	0.4907
0.17963	0.5934
0.19217	0.6266
0.24406	0.7333
0.29509	0.8311
0.34327	0.9095
0.39772	0.9935
0.44533	1.0639
0.49379	1.1285
0.5471	1.1948
0.59527	1.2497
0.64345	1.3071
0.69733	1.3645
0.74465	1.4114
0.79824	1.459
0.84755	1.5002
0.89316	1.539
0.94846	1.5883
0.99835	1.6271
1.04481	1.6618
1.09612	1.6998
1.1443	1.7337
1.19504	1.7725
