Adsorption isotherm of Water on IH2
DOI: 10.3390/en10060827
Article source: Figure 3c
Adsorbate Water: InChIKey XLYOFNOQVPJJNP-UHFFFAOYSA-N
Kind: experiment
Temperature: 303 K
Tabular data in the source: 0
pressure (bar)	uptake (mmol/g)
0.00162	0.0702
0.00365	0.4755
0.00616	0.6095
0.00778	0.7021
0.00973	0.9605
0.01014	0.8457
0.01257	1.0946
0.01265	1.3467
0.01517	1.835
0.01525	1.5254
0.01695	2.4126
0.01769	2.9105
0.0194	4.2445
0.0194	5.1541
0.02168	6.7434
0.02193	7.7807
0.02396	7.937
0.02437	8.4859
0.02542	8.7285
0.02664	8.3966
0.02753	8.9168
0.02818	8.6551
0.02996	9.1019
0.03069	8.8401
0.03272	9.3891
0.03288	9.1178
0.03556	9.3763
0.03742	9.5869
0.03977	9.7592
