Adsorption isotherm of Nitrogen on IH2
DOI: 10.3390/en10060827
Article source: Figure 2a
Adsorbate Nitrogen: InChIKey IJGRMHOSHXDMSA-UHFFFAOYSA-N
Kind: experiment
Temperature: 323 K
Tabular data in the source: 0
pressure (bar)	uptake (mmol/g)
0.00662	0.00196
0.09633	0.02556
0.14971	0.03974
0.1991	0.05053
0.25115	0.06439
0.30005	0.07619
0.34852	0.08683
0.39804	0.09894
0.44783	0.11117
0.49682	0.12193
0.54953	0.13551
0.60011	0.14627
0.64381	0.15556
0.70128	0.16767
0.74657	0.17843
0.79901	0.18882
0.84933	0.19921
0.89885	0.21034
0.95129	0.2211
1.00108	0.23052
1.04902	0.24067
1.10252	0.24971
1.14913	0.25888
1.19786	0.2683
