Adsorption isotherm of Water on IH2
DOI: 10.3390/en10060827
Article source: Figure 3c
Adsorbate Water: InChIKey XLYOFNOQVPJJNP-UHFFFAOYSA-N
Kind: experiment
Temperature: 323 K
Tabular data in the source: 0
pressure (bar)	uptake (mmol/g)
0.00057	0.0255
0.00414	0.1819
0.00616	0.3478
0.01386	0.4977
0.01864	0.4307
0.02002	0.6158
0.02384	0.7498
0.02546	0.7051
0.02967	0.938
0.03397	0.9221
0.03689	1.2539
0.03794	1.1614
0.04427	1.7676
0.04589	1.7102
0.0502	2.7695
0.05133	2.6227
0.05687	4.8913
0.05784	4.6839
0.06315	7.348
0.06606	7.2555
0.07045	8.4361
0.07085	7.9064
0.07645	8.6626
0.07766	8.2957
0.08302	8.9019
0.08464	8.5382
0.08934	9.0806
0.09031	8.7711
0.09632	9.2497
0.0985	9.0901
0.09972	9.3613
0.10377	9.3007
0.10912	9.4953
0.11269	9.6006
0.11861	9.7315
