Adsorption isotherm of Nitrogen on IH3
DOI: 10.3390/en10060827
Article source: Figure 2b
Adsorbate Nitrogen: InChIKey IJGRMHOSHXDMSA-UHFFFAOYSA-N
Kind: experiment
Temperature: 323 K
Tabular data in the source: 0
pressure (bar)	uptake (mmol/g)
0.00606	0.00195
0.02291	0.00976
0.04556	0.01622
0.09796	0.03219
0.1472	0.0467
0.19618	0.06219
0.24753	0.07706
0.29704	0.09023
0.34681	0.10364
0.39842	0.11864
0.44766	0.13083
0.49691	0.14424
0.54852	0.15643
0.59724	0.16691
0.64542	0.18057
0.69756	0.19349
0.74707	0.20678
0.79947	0.21775
0.84793	0.22835
0.89796	0.24103
0.94984	0.25164
0.99934	0.26322
1.04832	0.27639
1.09941	0.28809
1.14891	0.29808
1.19789	0.30783
