Adsorption isotherm of Carbon Dioxide on IH3
DOI: 10.3390/en10060827
Article source: Figure 2d
Adsorbate Carbon Dioxide: InChIKey CURLTUGMZLYLDI-UHFFFAOYSA-N
Kind: experiment
Temperature: 343 K
Tabular data in the source: 0
pressure (bar)	uptake (mmol/g)
0.00514	0.0122
0.0177	0.084
0.04512	0.1599
0.08767	0.2765
0.09966	0.3107
0.14793	0.4143
0.19876	0.5188
0.24903	0.6044
0.29786	0.6982
0.34642	0.7733
0.39754	0.8516
0.44923	0.9177
0.49636	0.9813
0.54691	1.0482
0.59775	1.1029
0.64574	1.1608
0.698	1.2187
0.74684	1.2685
0.79968	1.3256
0.84767	1.3746
0.89622	1.4121
0.94821	1.4603
0.9979	1.5035
1.04532	1.5419
1.09759	1.5843
1.145	1.6235
1.19641	1.6643
