Adsorption isotherm of Water on Norit R2030
DOI: 10.3390/en10060827
Article source: Figure 3e
Adsorbate Water: InChIKey XLYOFNOQVPJJNP-UHFFFAOYSA-N
Kind: experiment
Temperature: 303 K
Tabular data in the source: 0
pressure (bar)	uptake (mmol/g)
0.001022	0.1152
0.003121	1.0578
0.004372	0.7305
0.006585	1.5005
0.008004	1.7272
0.008346	1.2524
0.010786	2.1159
0.011014	1.6483
0.013115	1.9578
0.013227	2.5189
0.015271	2.9507
0.015897	2.4112
0.017824	3.9653
0.017884	2.9617
0.01913	4.0661
0.019691	6.5374
0.022246	6.8074
0.022396	13.9333
0.023996	10.7931
0.024887	16.9766
0.026371	14.5523
0.026874	17.2717
0.029091	16.5309
0.029543	17.5345
0.030509	17.2072
0.032723	17.8189
0.033405	17.5492
0.035449	17.7939
0.036244	18.1141
0.036812	17.9955
0.038799	18.1539
0.039424	18.3302
