Adsorption isotherm of Water on IH3
DOI: 10.3390/en10060827
Article source: Figure 3a
Adsorbate Water: InChIKey XLYOFNOQVPJJNP-UHFFFAOYSA-N
Kind: experiment
Temperature: 343 K
Tabular data in the source: 0
pressure (bar)	uptake (mmol/g)
0.00174	0.072
0.01736	0.2548
0.02306	0.2982
0.03307	0.428
0.04265	0.4714
0.05034	0.7596
0.05555	0.6733
0.06671	0.9856
0.07109	0.9377
0.07977	1.2834
0.08547	1.2116
0.09556	1.6774
0.10201	1.6584
0.1135	2.4888
0.11763	2.4122
0.13077	3.8426
0.13317	3.5787
0.14805	6.0552
0.14896	5.2731
0.16177	7.8216
0.16334	6.9722
0.17988	10.3606
0.18013	8.5898
0.19649	9.2621
0.19666	11.5511
0.21129	12.2089
0.21203	9.7904
0.22617	12.7996
0.22791	10.5922
0.24411	13.4047
0.24485	11.9267
0.25899	13.7986
0.26213	13.0837
0.2761	14.2022
0.2775	13.7895
0.28536	14.3656
0.28833	14.1737
0.29569	14.505
