Adsorption isotherm of Oxygen on IH2
DOI: 10.3390/en10060827
Article source: Figure 2e
Adsorbate Oxygen: InChIKey MYMOFIZGZYHOMD-UHFFFAOYSA-N
Kind: experiment
Temperature: 303 K
Tabular data in the source: 0
pressure (bar)	uptake (mmol/g)
0.00266	0.00121
0.02364	0.01245
0.04728	0.02316
0.09724	0.04258
0.14808	0.06186
0.19715	0.08021
0.24976	0.1007
0.29646	0.11797
0.34731	0.13565
0.40052	0.15252
0.44752	0.16913
0.49629	0.18587
0.54892	0.20153
0.59651	0.2176
0.64706	0.23381
0.69968	0.24907
0.74668	0.26421
0.79783	0.28041
0.84897	0.29474
0.89598	0.30907
0.9486	0.3238
0.99915	0.33746
1.04616	0.35072
1.09819	0.36492
1.14786	0.37804
1.19487	0.39143
