Adsorption isotherm of Oxygen on IH3
DOI: 10.3390/en10060827
Article source: Figure 2f
Adsorbate Oxygen: InChIKey MYMOFIZGZYHOMD-UHFFFAOYSA-N
Kind: experiment
Temperature: 323 K
Tabular data in the source: 0
pressure (bar)	uptake (mmol/g)
0.00409	0.00163
0.01752	0.00842
0.04643	0.01563
0.09987	0.03234
0.14952	0.04783
0.19828	0.06087
0.24939	0.07595
0.29845	0.08927
0.34896	0.10136
0.39715	0.11685
0.44942	0.12853
0.49497	0.13927
0.54812	0.15299
0.59747	0.16522
0.64653	0.17717
0.69909	0.19049
0.74727	0.20231
0.80042	0.21481
0.84977	0.22609
0.89883	0.23804
0.95168	0.24878
0.99782	0.26073
1.0495	0.27147
1.09885	0.28397
1.14879	0.29592
1.19755	0.30652
