Adsorption isotherm of Oxygen on IH2
DOI: 10.3390/en10060827
Article source: Figure 2e
Adsorbate Oxygen: InChIKey MYMOFIZGZYHOMD-UHFFFAOYSA-N
Kind: experiment
Temperature: 323 K
Tabular data in the source: 0
pressure (bar)	uptake (mmol/g)
0.00266	0.00121
0.02364	0.01138
0.04611	0.01888
0.09815	0.0304
0.14752	0.04473
0.1963	0.05651
0.24922	0.06951
0.29594	0.08209
0.3462	0.09401
0.40001	0.10701
0.44672	0.11866
0.49698	0.12964
0.54873	0.14156
0.59722	0.15214
0.64659	0.16245
0.69863	0.17464
0.74623	0.18496
0.79857	0.19728
0.84913	0.20786
0.89643	0.21724
0.94936	0.22822
0.99903	0.2396
1.04486	0.24925
1.09779	0.25996
1.14776	0.27054
1.19536	0.27912
