Adsorption isotherm of Oxygen on IH3
DOI: 10.3390/en10060827
Article source: Figure 2f
Adsorbate Oxygen: InChIKey MYMOFIZGZYHOMD-UHFFFAOYSA-N
Kind: experiment
Temperature: 303 K
Tabular data in the source: 0
pressure (bar)	uptake (mmol/g)
0.00409	0.00163
0.02162	0.01617
0.04702	0.02677
0.09813	0.04986
0.14836	0.0716
0.19772	0.09239
0.24941	0.11399
0.29906	0.13302
0.3452	0.15272
0.40039	0.17337
0.44712	0.19266
0.49676	0.20992
0.54816	0.23016
0.59781	0.2481
0.64687	0.26508
0.70002	0.28424
0.7482	0.30068
0.80048	0.31807
0.85012	0.3356
0.89918	0.35245
0.95146	0.36902
1.00052	0.38383
1.04607	0.40054
1.09864	0.41644
1.14974	0.43139
1.19705	0.44755
