Adsorption isotherm of Nitrogen on IH2
DOI: 10.3390/en10060827
Article source: Figure 2a
Adsorbate Nitrogen: InChIKey IJGRMHOSHXDMSA-UHFFFAOYSA-N
Kind: experiment
Temperature: 343 K
Tabular data in the source: 0
pressure (bar)	uptake (mmol/g)
0.00662	0.00196
0.02187	0.00678
0.04626	0.01202
0.09881	0.02173
0.18037	0.03745
0.1955	0.04017
0.24848	0.04929
0.29809	0.05783
0.34475	0.06676
0.39731	0.07549
0.44574	0.08461
0.49765	0.09268
0.5485	0.10209
0.59829	0.1104
0.64491	0.11798
0.70053	0.12605
0.74661	0.13241
0.80118	0.14096
0.84991	0.14879
0.89944	0.15612
0.95029	0.1648
0.99982	0.17434
1.04484	0.184
1.10099	0.19194
1.1476	0.19866
1.19819	0.20502
