Adsorption isotherm of Oxygen on IH2
DOI: 10.3390/en10060827
Article source: Figure 2e
Adsorbate Oxygen: InChIKey MYMOFIZGZYHOMD-UHFFFAOYSA-N
Kind: experiment
Temperature: 343 K
Tabular data in the source: 0
pressure (bar)	uptake (mmol/g)
0.00266	0.00121
0.02099	0.00857
0.04553	0.01393
0.09786	0.02277
0.14665	0.03241
0.19721	0.04179
0.24955	0.04969
0.29627	0.0592
0.34743	0.06724
0.39977	0.07635
0.44767	0.08412
0.49468	0.09242
0.54939	0.1014
0.59581	0.11078
0.64578	0.11881
0.70049	0.12685
0.74544	0.13449
0.79659	0.14306
0.84923	0.1507
0.89595	0.15673
0.94858	0.16584
0.99885	0.17454
1.04468	0.18405
1.0988	0.19075
1.14434	0.19866
1.19549	0.20549
