Adsorption isotherm of Water on IH3
DOI: 10.3390/en10060827
Article source: Figure 3a
Adsorbate Water: InChIKey XLYOFNOQVPJJNP-UHFFFAOYSA-N
Kind: experiment
Temperature: 303 K
Tabular data in the source: 0
pressure (bar)	uptake (mmol/g)
0.00215	0.3888
0.00645	0.7344
0.01017	1.0608
0.01223	1.8622
0.01347	1.6319
0.01604	2.7597
0.01612	2.3614
0.01752	3.7003
0.0186	4.3386
0.02	5.6103
0.02009	6.4356
0.02257	9.8428
0.0243	11.4696
0.02505	9.1902
0.02695	9.7997
0.02918	12.7606
0.02943	10.438
0.03158	13.3797
0.03166	11.2923
0.03265	13.8068
0.0334	12.2185
0.03447	14.0948
0.03546	13.3366
0.03753	14.0133
0.03836	14.4164
0.04092	14.7572
