Adsorption isotherm of Nitrogen on IH3
DOI: 10.3390/en10060827
Article source: Figure 2b
Adsorbate Nitrogen: InChIKey IJGRMHOSHXDMSA-UHFFFAOYSA-N
Kind: experiment
Temperature: 303 K
Tabular data in the source: 0
pressure (bar)	uptake (mmol/g)
0.00606	0.00195
0.0237	0.01634
0.04608	0.02842
0.09822	0.05403
0.1472	0.07781
0.19645	0.10001
0.24832	0.1233
0.2973	0.14464
0.34654	0.16684
0.39868	0.1883
0.44793	0.20794
0.49691	0.22684
0.54905	0.24684
0.59776	0.26598
0.64621	0.28391
0.69862	0.30305
0.74786	0.32037
0.79895	0.33952
0.84845	0.35573
0.8977	0.37268
0.94984	0.39012
0.99882	0.40621
1.04832	0.42085
1.1002	0.43718
1.14733	0.45316
1.19789	0.46925
