Adsorption isotherm of Nitrogen on IH2
DOI: 10.3390/en10060827
Article source: Figure 2a
Adsorbate Nitrogen: InChIKey IJGRMHOSHXDMSA-UHFFFAOYSA-N
Kind: experiment
Temperature: 303 K
Tabular data in the source: 0
pressure (bar)	uptake (mmol/g)
0.00662	0.00196
0.04607	0.01823
0.09903	0.03866
0.14828	0.05884
0.1978	0.07768
0.25049	0.09799
0.30027	0.11634
0.34582	0.13396
0.39851	0.15304
0.44803	0.16845
0.49729	0.1857
0.54945	0.20234
0.5995	0.21848
0.64876	0.2334
0.70066	0.24943
0.747	0.2646
0.8005	0.28062
0.84949	0.29567
0.89848	0.30863
0.9525	0.32355
0.99991	0.33615
1.04943	0.34838
1.10187	0.36452
1.14874	0.37578
1.19906	0.38898
