Adsorption isotherm of Carbon Dioxide on IH3
DOI: 10.3390/en10060827
Article source: Figure 2d
Adsorbate Carbon Dioxide: InChIKey CURLTUGMZLYLDI-UHFFFAOYSA-N
Kind: experiment
Temperature: 303 K
Tabular data in the source: 0
pressure (bar)	uptake (mmol/g)
0.00514	0.0122
0.01227	0.1264
0.01998	0.2063
0.03453	0.3229
0.04823	0.4281
0.06679	0.535
0.08535	0.6418
0.09991	0.7291
0.12303	0.8359
0.14816	0.9395
0.17386	1.0447
0.1967	1.1279
0.22726	1.2307
0.24953	1.3041
0.2858	1.4093
0.29836	1.4419
0.33806	1.5406
0.38032	1.6556
0.40031	1.6956
0.44601	1.7951
0.4937	1.9003
0.54797	1.9958
0.59652	2.0733
0.6445	2.1589
0.69848	2.2429
0.7456	2.3155
0.79673	2.3865
0.84871	2.4502
0.89641	2.5056
0.94696	2.5742
0.99466	2.6288
1.04635	2.6876
1.09891	2.7374
1.14546	2.7912
1.19487	2.8328
