Adsorption isotherm of Toluene on MGBC6
DOI: 10.1021/acs.iecr.6b00056
Article source: Figure 8B
Adsorbate Toluene: InChIKey YXFVVABEGXRONW-UHFFFAOYSA-N
Kind: experiment
Temperature: 283 K
Tabular data in the source: 0
pressure (bar)	uptake (mmol/g)
4.9e-05	4.07447
7.1e-05	4.40901
0.000104	4.74357
0.000198	5.08675
0.000478	5.42151
0.001726	5.71422
0.002122	5.74029
0.002501	5.80924
0.00293	5.81818
0.003364	5.84429
0.003826	5.87042
0.004327	5.89658
0.004788	5.92271
