Adsorption isotherm of Nitrogen on MGBC6
DOI: 10.1021/acs.iecr.6b00056
Article source: Figure 5
Adsorbate Nitrogen: InChIKey IJGRMHOSHXDMSA-UHFFFAOYSA-N
Kind: experiment
Temperature: 77 K
Tabular data in the source: 0
pressure (bar)	uptake (mmol/g)
1.01439	2.56499
1.01407	3.92194
1.01439	5.13778
1.0143	6.62838
1.01453	7.49913
1.01439	8.95627
1.01464	10.3702
1.01447	11.9164
1.01487	12.7724
1.01469	14.3407
1.01574	15.6085
1.01683	16.8589
1.0204	17.9284
1.02707	18.774
1.03788	19.9658
1.08458	21.3944
1.16043	22.06
1.22038	22.7492
1.27474	22.7476
1.3452	22.571
1.41476	22.5697
1.48774	22.7435
1.54486	22.919
1.60146	22.9184
1.78279	23.0943
2.00262	23.452
2.26069	23.4507
2.6368	23.269
3.08523	23.4481
3.87973	23.8113
4.83676	23.4453
6.12126	23.6258
