Adsorption isotherm of Toluene on MGBC6
DOI: 10.1021/acs.iecr.6b00056
Article source: Figure 8B
Adsorbate Toluene: InChIKey YXFVVABEGXRONW-UHFFFAOYSA-N
Kind: experiment
Temperature: 313 K
Tabular data in the source: 0
pressure (bar)	uptake (mmol/g)
4.4e-05	2.73637
4.9e-05	2.92508
7.1e-05	3.13096
0.000104	3.354
0.000137	3.56847
0.00017	3.79151
0.000231	3.98027
0.000346	4.20339
0.0005	4.4008
0.000742	4.59829
0.001154	4.80451
0.001858	4.81369
0.003123	4.84908
