Adsorption isotherm of Benzene on USY
DOI: 10.1021/acs.iecr.6b00056
Article source: Figure 7A
Adsorbate Benzene: InChIKey UHOVQNZJYSORNB-UHFFFAOYSA-N
Kind: experiment
Temperature: 298 K
Tabular data in the source: 0
pressure (bar)	uptake (mmol/g)
0.000642	1.26116
0.005665	1.58923
0.010355	1.64103
