Adsorption isotherm of Toluene on UiO-66
DOI: 10.1021/acs.iecr.6b00056
Article source: Figure 7B
Adsorbate Toluene: InChIKey YXFVVABEGXRONW-UHFFFAOYSA-N
Kind: experiment
Temperature: 298 K
Tabular data in the source: 0
pressure (bar)	uptake (mmol/g)
0.00025	0.270987
0.000433	0.860088
0.000864	1.69661
0.001225	2.46245
0.001903	3.26362
0.002413	3.41679
0.003833	3.49926
