Adsorption isotherm of Toluene on MIL-101
DOI: 10.1021/acs.iecr.6b00056
Article source: Figure 7B
Adsorbate Toluene: InChIKey YXFVVABEGXRONW-UHFFFAOYSA-N
Kind: experiment
Temperature: 298 K
Tabular data in the source: 0
pressure (bar)	uptake (mmol/g)
6.2e-05	0.494845
0.000483	1.10751
0.001294	2.74521
0.001933	5.25479
0.002259	6.20913
0.002418	6.88071
0.003071	7.5405
0.003725	8.08247
