Adsorption isotherm of Toluene on CuBTC
DOI: 10.1021/acs.iecr.6b00056
Article source: Figure 7B
Adsorbate Toluene: InChIKey YXFVVABEGXRONW-UHFFFAOYSA-N
Kind: experiment
Temperature: 298 K
Tabular data in the source: 0
pressure (bar)	uptake (mmol/g)
-2e-06	-0.070692
9.2e-05	0.282769
0.000186	1.22533
0.000933	5.27835
0.001517	5.78498
0.001997	5.97349
0.003022	6.07953
0.003952	6.12666
