Adsorption isotherm of Toluene on MGBC4
DOI: 10.1021/acs.iecr.6b00056
Article source: Figure 8A
Adsorbate Toluene: InChIKey YXFVVABEGXRONW-UHFFFAOYSA-N
Kind: experiment
Temperature: 298 K
Tabular data in the source: 0
pressure (bar)	uptake (mmol/g)
4e-05	2.06744
3.6e-05	2.29599
5.1e-05	2.52454
7.7e-05	2.7671
0.000118	2.97701
0.000281	3.19634
0.000893	3.64451
0.00326	3.80002
