Adsorption isotherm of Toluene on MGBC6
DOI: 10.1021/acs.iecr.6b00056
Article source: Figure 7B
Adsorbate Toluene: InChIKey YXFVVABEGXRONW-UHFFFAOYSA-N
Kind: experiment
Temperature: 298 K
Tabular data in the source: 0
pressure (bar)	uptake (mmol/g)
3.7e-05	2.757
4.7e-05	3.03976
6.2e-05	3.2754
7.2e-05	3.52283
9.2e-05	3.78203
0.000126	4.02946
0.000191	4.27688
0.000299	4.55965
0.000497	4.77172
0.000933	5.05449
0.001977	5.41973
0.004363	5.67894
