Adsorption isotherm of Benzene on CuBTC
DOI: 10.1021/acs.iecr.6b00056
Article source: Figure 7A
Adsorbate Benzene: InChIKey UHOVQNZJYSORNB-UHFFFAOYSA-N
Kind: experiment
Temperature: 298 K
Tabular data in the source: 0
pressure (bar)	uptake (mmol/g)
9.2e-05	0.035224
0.000386	1.08849
0.000749	3.02236
0.001504	6.9937
0.003755	9.03117
0.005632	9.20383
0.007491	9.25563
0.011246	9.4283
