Adsorption isotherm of Benzene on MGCB4
DOI: 10.1021/acs.iecr.6b00056
Article source: Figure 7A
Adsorbate Benzene: InChIKey UHOVQNZJYSORNB-UHFFFAOYSA-N
Kind: experiment
Temperature: 298 K
Tabular data in the source: 0
pressure (bar)	uptake (mmol/g)
0.000208	3.02236
0.000228	3.52309
0.000286	4.02383
0.00179	4.38643
0.006559	4.69723
0.009282	4.99076
0.010294	5.1289
