Adsorption isotherm of Toluene on MGBC4
DOI: 10.1021/acs.iecr.6b00056
Article source: Figure 7B
Adsorbate Toluene: InChIKey YXFVVABEGXRONW-UHFFFAOYSA-N
Kind: experiment
Temperature: 298 K
Tabular data in the source: 0
pressure (bar)	uptake (mmol/g)
3.2e-05	2.26215
5.2e-05	2.53314
6.7e-05	2.72165
0.000111	2.96907
0.00027	3.18115
0.000893	3.42857
0.003235	3.79381
