Adsorption isotherm of Nitrogen on PDA
DOI: 10.1021/acs.iecr.6b00056
Article source: Figure 5
Adsorbate Nitrogen: InChIKey IJGRMHOSHXDMSA-UHFFFAOYSA-N
Kind: experiment
Temperature: 77 K
Tabular data in the source: 0
pressure (bar)	uptake (mmol/g)
1.03788	2.58214
1.09377	3.01195
1.19558	3.40695
1.22305	3.4598
1.27135	3.56805
1.32789	3.62334
1.41476	3.79481
1.47459	3.79466
1.55254	3.88338
1.66524	3.94359
1.79468	3.9434
2.06905	3.88269
2.26069	3.7645
2.55127	3.62181
2.89613	3.5938
3.12591	3.48446
3.39269	3.37844
4.005	3.20061
5.21276	3.15139
6.12126	3.4839
