Adsorption isotherm of Toluene on ZSM-5
DOI: 10.1021/acs.iecr.6b00056
Article source: Figure 7B
Adsorbate Toluene: InChIKey YXFVVABEGXRONW-UHFFFAOYSA-N
Kind: experiment
Temperature: 298 K
Tabular data in the source: 0
pressure (bar)	uptake (mmol/g)
4.7e-05	0.365243
0.000893	0.836524
0.001319	1.42563
0.002225	1.87334
0.004323	2.07364
