Adsorption isotherm of Benzene on MGBC6
DOI: 10.1021/acs.iecr.6b00056
Article source: Figure 7A
Adsorbate Benzene: InChIKey UHOVQNZJYSORNB-UHFFFAOYSA-N
Kind: experiment
Temperature: 298 K
Tabular data in the source: 0
pressure (bar)	uptake (mmol/g)
2.2e-05	2.00363
0.00012	2.95329
0.000296	5.3879
0.000807	5.99223
0.001849	6.1131
0.004021	6.2685
0.007669	6.75196
0.012604	6.97643
