Adsorption isotherm of Toluene on MGBC4
DOI: 10.1021/acs.iecr.6b00056
Article source: Figure 8A
Adsorbate Toluene: InChIKey YXFVVABEGXRONW-UHFFFAOYSA-N
Kind: experiment
Temperature: 313 K
Tabular data in the source: 0
pressure (bar)	uptake (mmol/g)
3.6e-05	1.94151
5.8e-05	2.28201
8.1e-05	2.61318
0.000177	2.96772
0.000511	3.30843
0.002715	3.57111
