Adsorption isotherm of Toluene on MGBC6
DOI: 10.1021/acs.iecr.6b00056
Article source: Figure 8B
Adsorbate Toluene: InChIKey YXFVVABEGXRONW-UHFFFAOYSA-N
Kind: experiment
Temperature: 298 K
Tabular data in the source: 0
pressure (bar)	uptake (mmol/g)
4.9e-05	3.07089
5.5e-05	3.26818
6.6e-05	3.5341
9.9e-05	3.80003
0.000132	4.03165
0.000198	4.28903
0.000308	4.5293
0.000517	4.78681
0.000935	5.08309
0.001996	5.23411
0.004371	5.28761
0.00497	5.25381
