Adsorption isotherm of Toluene on NaY
DOI: 10.1021/acs.iecr.6b00056
Article source: Figure 7B
Adsorbate Toluene: InChIKey YXFVVABEGXRONW-UHFFFAOYSA-N
Kind: experiment
Temperature: 298 K
Tabular data in the source: 0
pressure (bar)	uptake (mmol/g)
-2.2e-05	0
0.000121	0.671576
0.000131	1.23711
0.004328	1.55523
