Adsorption isotherm of Benzene on MIL-101
DOI: 10.1021/acs.iecr.6b00056
Article source: Figure 7A
Adsorbate Benzene: InChIKey UHOVQNZJYSORNB-UHFFFAOYSA-N
Kind: experiment
Temperature: 298 K
Tabular data in the source: 0
pressure (bar)	uptake (mmol/g)
-3.1e-05	0.043857
-7e-06	1.15756
0.001457	2.15903
0.003727	4.49003
0.005613	9.54917
0.007431	11.224
0.011204	14.591
