Adsorption isotherm of Toluene on MGBC4
DOI: 10.1021/acs.iecr.6b00056
Article source: Figure 8A
Adsorbate Toluene: InChIKey YXFVVABEGXRONW-UHFFFAOYSA-N
Kind: experiment
Temperature: 283 K
Tabular data in the source: 0
pressure (bar)	uptake (mmol/g)
2.1e-05	2.78105
4.7e-05	3.00495
7e-05	3.21485
8.4e-05	3.48072
0.000218	3.69536
0.000841	3.91033
0.003501	4.12201
0.003916	4.12695
0.004555	4.1507
