Adsorption isotherm of Benzene on NDA-201
DOI: 10.1021/acs.iecr.6b00056
Article source: Figure 7A
Adsorbate Benzene: InChIKey UHOVQNZJYSORNB-UHFFFAOYSA-N
Kind: experiment
Temperature: 298 K
Tabular data in the source: 0
pressure (bar)	uptake (mmol/g)
0.000907	1.74463
0.001811	3.05689
0.003207	3.22956
0.003649	3.52309
0.006146	3.66123
0.007719	3.93749
0.012045	4.23103
