Adsorption isotherm of Nitrogen on MGBC4
DOI: 10.1021/acs.iecr.6b00056
Article source: Figure 5
Adsorbate Nitrogen: InChIKey IJGRMHOSHXDMSA-UHFFFAOYSA-N
Kind: experiment
Temperature: 77 K
Tabular data in the source: 0
pressure (bar)	uptake (mmol/g)
1.01325	0.351053
1.01325	0.699162
1.01325	1.05468
1.01325	1.3923
1.01325	1.73837
1.01325	2.07681
1.01325	2.37247
1.01325	2.77209
1.01326	3.13223
1.01326	3.38517
1.01326	3.7412
1.01326	4.1806
1.01326	4.41917
1.01327	4.82966
1.01336	7.61294
1.01344	8.41221
1.01347	8.79418
1.02063	12.3967
1.02432	12.395
1.03017	12.8134
1.03623	13.1
1.06739	13.6916
1.08597	14.1544
1.10296	14.1535
1.13228	14.4703
1.19669	14.4682
1.28942	14.7916
1.33503	14.7909
1.38191	14.9556
1.44517	14.9549
1.53164	14.9541
1.69464	15.2891
1.943	15.8062
2.37642	15.8047
2.92777	15.9802
3.97176	15.9788
5.3934	15.9777
6.44286	16.1557
