Adsorption isotherm of Carbon Dioxide on Sulcis coal
DOI: 10.1002/ep.10169
Article source: Table 1
Adsorbate Carbon Dioxide: InChIKey CURLTUGMZLYLDI-UHFFFAOYSA-N
Kind: experiment
Isotherm type: excess
Temperature: 318 K
Tabular data in the source: 1
pressure (bar)	uptake (mmol/g)
5	1.16
12	1.55
24	1.9
36	2.05
46	2.12
56	2.15
64	2.15
68	2.14
79	2.08
85	2.02
90	1.95
94	1.86
96	1.78
98	1.72
100	1.68
101	1.63
105	1.55
110	1.48
119	1.4
135	1.32
161	1.24
201	1.17
