Adsorption isotherm of Carbon Dioxide on Sulcis coal
DOI: 10.1002/ep.10169
Article source: Figure 1
Adsorbate Carbon Dioxide: InChIKey CURLTUGMZLYLDI-UHFFFAOYSA-N
Kind: experiment
Temperature: 273 K
Tabular data in the source: 0
pressure (bar)	uptake (cm3(STP)/g)
0.074521	3.69877
0.142055	5.80741
0.204932	7.08642
0.274796	8.36543
0.349317	9.50617
0.421508	10.4741
0.489042	11.2346
0.556577	11.9951
0.62877	12.6864
0.698632	13.2049
0.766166	13.8617
0.840688	14.3802
0.905893	14.9333
0.980414	15.4173
1.04562	15.8667
1.11781	16.2815
