Adsorption isotherm of Carbon Dioxide on Sulcis coal
DOI: 10.1002/ep.10169
Article source: Table 1
Adsorbate Carbon Dioxide: InChIKey CURLTUGMZLYLDI-UHFFFAOYSA-N
Kind: experiment
Isotherm type: excess
Temperature: 333 K
Tabular data in the source: 1
pressure (bar)	uptake (mmol/g)
10	1.24
28	1.71
44	1.87
60	1.95
77	1.95
89	1.91
108	1.78
114	1.71
118	1.66
124	1.59
128	1.54
138	1.45
150	1.37
166	1.29
191	1.21
229	1.14
