Adsorption isotherm of Methane on Sulcis coal
DOI: 10.1002/ep.10169
Article source: Table 2
Adsorbate Methane: InChIKey VNWKTOKETHGBQD-UHFFFAOYSA-N
Kind: experiment
Isotherm type: excess
Temperature: 333 K
Tabular data in the source: 1
pressure (bar)	uptake (mmol/g)
2	0.42
3	0.47
5	0.56
7	0.63
9	0.68
11	0.73
17	0.83
27	0.95
38	1.04
48	1.1
59	1.15
71	1.2
87	1.23
107	1.25
128	1.26
153	1.27
174	1.26
199	1.25
