Adsorption isotherm of Methane on Sulcis coal
DOI: 10.1002/ep.10169
Article source: Table 2
Adsorbate Methane: InChIKey VNWKTOKETHGBQD-UHFFFAOYSA-N
Kind: experiment
Isotherm type: excess
Temperature: 318 K
Tabular data in the source: 1
pressure (bar)	uptake (mmol/g)
2	0.54
4	0.65
6	0.72
8	0.79
10	0.85
15	0.96
25	1.12
35	1.21
45	1.28
55	1.33
67	1.38
81	1.42
100	1.44
121	1.45
141	1.45
161	1.44
183	1.43
200	1.42
