Adsorption isotherm of Carbon Dioxide on N-COF
DOI: 10.1002/cjoc.201400550
Article source: Figure S8/4
Adsorbate Carbon Dioxide: InChIKey CURLTUGMZLYLDI-UHFFFAOYSA-N
Kind: experiment
Temperature: 298 K
Tabular data in the source: 0
pressure (bar)	uptake (cm3(STP)/g)
0.075994	2.26068
0.101325	3.08451
0.126656	3.82988
0.151987	4.61448
0.177319	5.43832
0.20265	6.22292
0.227981	7.04675
0.253312	7.83135
0.278644	8.65518
0.303975	9.43978
0.329306	10.2636
0.354637	11.0482
0.379969	11.872
0.4053	12.6959
0.430631	13.5197
0.455962	14.3435
0.481294	15.1674
0.506625	15.9912
0.531956	16.8935
0.557288	17.6781
0.582619	18.4627
0.60795	19.2865
0.633281	20.1496
0.658613	21.0126
0.683944	21.7973
0.709275	22.6603
0.734606	23.4841
0.759937	24.3864
0.785269	25.2103
0.8106	25.9949
0.835931	26.8933
0.861262	27.7326
0.886594	28.5956
0.911925	29.4851
0.937256	30.3481
0.962587	31.1829
0.987919	31.9578
0.091159	2.88909
0.050682	1.58276
0.039213	1.14731
0.029768	0.929593
0.023697	0.711871
0.0183	0.530437
0.008855	0.312715
0.998527	32.4629
0.993805	32.5718
0.959399	31.846
0.050662	6.4583
0.101325	8.10596
0.151987	9.75362
0.20265	11.3228
0.253312	12.8528
0.303975	14.3828
0.354637	15.8735
0.4053	17.2858
0.455962	18.6981
0.506625	20.1888
0.557288	21.5226
0.60795	22.9349
0.658613	24.2295
0.709275	25.6026
0.759937	26.8579
0.8106	28.1525
0.861262	29.3687
0.911925	30.5456
0.959318	31.7836
0.993319	32.5152
