Adsorption isotherm of Nitrogen on N-COF
DOI: 10.1002/cjoc.201400550
Article source: Figure S9/4
Adsorbate Nitrogen: InChIKey IJGRMHOSHXDMSA-UHFFFAOYSA-N
Kind: experiment
Temperature: 273 K
Tabular data in the source: 0
pressure (bar)	uptake ()
0.99854	3.87572
0.994539	3.8006
0.986536	3.8006
0.962528	3.72548
0.960928	3.8006
0.935319	3.8006
0.912912	3.8006
0.911311	3.8006
0.888103	3.95083
0.863295	3.87572
0.859294	3.87572
0.835286	3.87572
0.812078	3.95083
0.807276	3.95083
0.785669	3.95083
0.761661	3.87572
0.75926	3.87572
0.736053	3.95083
0.708844	3.87572
0.707243	3.87572
0.683235	4.02595
0.657627	4.02595
0.656826	3.8006
0.632818	3.8006
0.609611	3.95083
0.604009	3.72548
0.581601	3.8006
0.557593	3.72548
0.555993	3.50013
0.532785	3.65036
0.507977	3.50013
0.504776	3.27478
0.480768	3.42501
0.45756	3.3499
0.454359	3.12454
0.430351	3.19966
0.405542	3.12454
0.403142	2.89919
0.379134	2.97431
0.355926	2.82407
0.352725	2.59872
0.329517	2.67384
0.304709	2.52361
0.302308	2.29825
0.2791	2.37337
0.251091	1.84755
0.253492	2.22314
0.228683	2.0729
0.199874	1.47196
0.203075	1.77243
0.175866	1.69731
0.150257	1.17149
0.153458	1.47196
0.12705	1.09638
0.100641	0.645672
0.103842	0.946141
0.093438	0.946141
0.075833	0.72079
0.047023	0.270086
0.051825	0.42032
0.041421	0.345203
0.032618	0.270086
0.025416	0.270086
0.019014	0.270086
0.00941	0.270086
0.005409	0.270086
