Adsorption isotherm of Nitrogen on N-COF
DOI: 10.1002/cjoc.201400550
Article source: Figure 3
Adsorbate Nitrogen: InChIKey IJGRMHOSHXDMSA-UHFFFAOYSA-N
Kind: experiment
Temperature: 77 K
Tabular data in the source: 0
pressure (bar)	uptake (cm3(STP)/g)
0.151987	443.662
0.177319	447.994
0.20265	452.327
0.227981	455.215
0.253312	458.826
0.278644	460.992
0.303975	463.88
0.329306	466.768
0.354637	469.657
0.379969	471.823
0.4053	474.711
0.430631	479.044
0.455962	483.376
0.481294	493.485
0.506625	496.374
0.531956	497.818
0.557288	500.706
0.582619	502.872
0.60795	505.039
0.633281	507.205
0.658613	510.093
0.683944	512.259
0.709275	514.426
0.734606	517.314
0.759937	520.924
0.785269	524.535
0.8106	528.145
0.835931	533.2
0.861262	538.976
0.886594	547.641
0.911925	558.473
0.937256	582.301
0.962587	622.738
0.987919	694.223
0.138936	443.044
0.126305	441.871
0.116482	439.524
0.105255	434.831
0.096834	433.657
0.08701	430.137
0.07859	427.791
0.07017	425.444
0.060346	423.098
0.051926	417.231
0.040698	411.364
0.028068	404.324
0.018244	387.898
0.00842	366.778
0.002807	332.752
0.151426	433.011
0.176757	438.065
0.202089	444.564
0.22742	446.73
0.252751	450.341
0.278082	453.951
0.303975	455.431
0.329306	457.598
0.354637	462.941
0.379969	464.385
0.4053	466.985
0.430631	469.873
0.455962	473.086
0.481294	477.419
0.506625	480.307
0.531956	483.195
0.557288	486.084
0.582619	488.972
0.60795	491.86
0.633281	493.305
0.658613	495.471
0.683944	499.081
0.709275	501.247
0.734606	504.136
0.759937	508.468
0.785269	512.079
0.809477	519.227
0.834809	523.559
0.86014	528.614
0.885471	535.835
0.933327	553.417
0.962587	583.023
0.985182	635.468
0.993602	709.387
0.912206	545.122
0.139937	435.084
0.130461	433.953
0.12031	429.992
0.109481	428.86
0.100006	427.163
0.089177	425.465
0.079702	422.636
0.070227	417.543
0.059398	413.582
0.04857	409.056
0.041125	405.095
0.028266	393.778
0.02126	380.759
0.007944	356.527
0.007944	350.633
0.00716	343.757
0.005985	339.173
0.00481	325.42
0.004647	309.702
0.001905	293.984
0.002689	269.426
0.001122	229.804
0.001514	223.255
0.001514	218.016
0.00073	209.175
0.000339	199.024
0.001122	187.89
0.001122	171.518
0.001514	151.216
0.001122	122.728
0.001122	79.1766
0.000339	67.0609
0.000339	55.2727
0.000339	42.5021
0.000339	24.8198
