Adsorption isotherm of Methane on N-COF
DOI: 10.1002/cjoc.201400550
Article source: Figure S8/4
Adsorbate Methane: InChIKey VNWKTOKETHGBQD-UHFFFAOYSA-N
Kind: experiment
Temperature: 298 K
Tabular data in the source: 0
pressure (bar)	uptake (cm3(STP)/g)
0.227981	2.45683
0.253312	2.73144
0.278644	2.96682
0.303975	3.24143
0.329306	3.47681
0.354637	3.79065
0.379969	4.06526
0.4053	4.45756
0.430631	4.84986
0.455962	5.20294
0.481294	5.43832
0.506625	5.63447
0.531956	5.86985
0.557288	6.14446
0.582619	6.57599
0.60795	6.81137
0.633281	7.20367
0.658613	7.51751
0.683944	7.75289
0.709275	7.90981
0.734606	8.26288
0.759937	8.49826
0.785269	8.89056
0.8106	9.08671
0.835931	9.51824
0.861262	9.91054
0.886594	10.1852
0.911925	10.499
0.937256	10.7344
0.962587	11.0482
0.987919	11.3228
0.200882	2.10384
0.178499	1.80286
0.15192	1.57713
0.128139	1.27615
0.104358	1.05041
0.093167	0.899925
0.077779	0.749436
0.049801	0.373213
0.040008	0.222724
0.028817	0.147479
0.021823	0.147479
0.049801	0.674191
0.100161	1.35139
0.149123	2.02859
0.200882	2.55531
0.249843	3.15726
0.301602	3.90971
0.351963	4.43642
0.402323	5.03837
0.454082	5.56509
0.503044	6.16704
0.554803	6.69376
0.603764	7.22047
0.655524	7.82242
0.705884	8.34914
0.757643	8.87585
0.808004	9.4778
0.995456	11.4342
0.998254	11.5094
