Adsorption isotherm of Methane on N-COF
DOI: 10.1002/cjoc.201400550
Article source: Figure S9/4
Adsorbate Methane: InChIKey VNWKTOKETHGBQD-UHFFFAOYSA-N
Kind: experiment
Temperature: 273 K
Tabular data in the source: 0
pressure (bar)	uptake (cm3(STP)/g)
0.126656	4.47751
0.151987	5.35433
0.177319	6.31087
0.20265	7.10798
0.227981	8.06451
0.253312	8.94133
0.278644	9.81815
0.303975	10.695
0.329306	11.5718
0.354637	12.5283
0.379969	13.3254
0.4053	14.282
0.430631	15.0791
0.455962	16.0356
0.481294	16.8327
0.506625	17.7893
0.531956	18.5864
0.557288	19.5429
0.582619	20.4197
0.60795	21.2965
0.633281	22.0937
0.658613	23.0502
0.683944	23.8473
0.709275	24.8038
0.734606	25.6009
0.759937	26.5575
0.785269	27.3546
0.8106	28.2314
0.835931	29.1082
0.861262	29.9851
0.886594	30.8619
0.911925	31.659
0.937256	32.4561
0.962587	33.3576
0.987919	34.2097
0.996324	34.4548
0.10023	3.61371
0.091933	3.30218
0.075338	2.83489
0.050447	1.90031
0.04215	1.43302
0.030534	1.1215
0.017258	0.809969
