Adsorption isotherm of Carbon Dioxide on N-COF
DOI: 10.1002/cjoc.201400550
Article source: Figure S9/4
Adsorbate Carbon Dioxide: InChIKey CURLTUGMZLYLDI-UHFFFAOYSA-N
Kind: experiment
Temperature: 273 K
Tabular data in the source: 0
pressure (bar)	uptake (cm3(STP)/g)
0.126656	8.14422
0.151987	9.65873
0.177319	11.253
0.20265	12.7675
0.227981	14.282
0.253312	15.7965
0.278644	17.3907
0.303975	18.9849
0.329306	20.4994
0.354637	22.0139
0.379969	23.6082
0.4053	25.1227
0.430631	26.6372
0.455962	28.2314
0.481294	29.7459
0.506625	31.1807
0.531956	32.7749
0.557288	34.2894
0.582619	35.804
0.60795	37.3185
0.633281	38.9127
0.658613	40.3475
0.683944	41.9417
0.709275	43.5359
0.734606	45.0504
0.759937	46.5649
0.785269	48.2782
0.8106	49.8725
0.835931	51.1882
0.861262	52.7824
0.886594	54.5434
0.911925	55.8114
0.937256	57.5376
0.962587	58.9202
0.987919	60.4347
0.997983	61.4019
0.101889	6.72897
0.091933	6.10592
0.076998	5.01558
0.050447	3.30218
0.04049	2.99065
0.030534	2.3676
0.025555	1.90031
0.018918	1.27726
0.007302	0.809969
0.050662	8.7022
0.101325	12.3689
0.151987	15.3182
0.20265	18.1878
0.253312	21.2168
0.303975	24.2459
0.354637	27.2749
0.4053	29.9851
0.455962	33.0141
0.506625	35.7242
0.557288	38.5938
0.60795	41.3837
0.658613	44.0939
0.709275	46.8041
0.759937	49.3548
0.8106	51.9853
0.861262	54.6158
0.911925	57.1665
0.959816	59.8442
