Adsorption isotherm of Nitrogen on N-COF
DOI: 10.1002/cjoc.201400550
Article source: Figure S8/4
Adsorbate Nitrogen: InChIKey IJGRMHOSHXDMSA-UHFFFAOYSA-N
Kind: experiment
Temperature: 298 K
Tabular data in the source: 0
pressure (bar)	uptake (cm3(STP)/g)
0.582619	2.26068
0.60795	2.29991
0.633281	2.4176
0.658613	2.49606
0.683944	2.57452
0.709275	2.65298
0.734606	2.8099
0.759937	2.88836
0.785269	2.96682
0.8106	3.08451
0.835931	3.12374
0.861262	3.31989
0.886594	3.43758
0.911925	3.43758
0.937256	3.51604
0.962587	3.63373
0.987919	3.67296
0.991259	3.90971
0.999653	3.90971
0.531022	2.10384
0.501645	1.8781
0.507241	2.02859
0.480661	1.95335
0.454082	1.65237
0.45688	1.80286
0.433099	1.72761
0.400924	1.42664
0.40652	1.65237
0.379941	1.50188
0.351963	1.27615
0.354761	1.50188
0.330979	1.42664
0.300204	1.05041
0.3044	1.2009
0.27922	1.12566
0.249843	0.82468
0.25404	0.899925
0.22886	0.82468
0.199483	0.674191
0.20368	0.674191
0.178499	0.598947
0.150521	0.523702
0.15192	0.523702
0.128139	0.448457
0.098762	0.222724
0.102959	0.297968
0.091768	0.297968
0.077779	0.147479
0.053997	0.072235
0.048402	0.00301
0.042806	0.00301
0.033014	0.072235
0.021823	0.072235
0.013429	0.072235
0.005036	0.072235
0.654125	2.55531
0.603764	2.32957
0.704485	2.63055
0.704485	2.70579
0.754846	2.85628
0.808004	3.08202
0.858364	3.30775
0.910123	3.45824
0.956287	3.68397
0.553404	2.17908
0.559	2.32957
