Adsorption isotherm of Nitrogen on Zn2(NDC)2(DPNI)
DOI: 10.1021/La800555x
Adsorbate Nitrogen: InChIKey IJGRMHOSHXDMSA-UHFFFAOYSA-N
Temperature: 77 K
Tabular data in the source: 0
pressure (bar)	uptake (cm3(STP)/g)
0.00400996	71.0083
0.00619484	45.0083
0.00837971	113.832
0.00837971	178.832
0.100144	201.008
0.305523	225.479
0.502161	249.949
0.705355	279.773
0.851741	304.244
0.952245	320.302
