Adsorption isotherm of Carbon Dioxide on Zn2(NDC)2(DPNI)
DOI: 10.1021/La800555x
Adsorbate Carbon Dioxide: InChIKey CURLTUGMZLYLDI-UHFFFAOYSA-N
Temperature: 296 K
Tabular data in the source: 0
pressure (bar)	uptake (mmol/g)
0.0365018	0.051187
0.254989	0.444464
0.866754	0.802784
1.8718	1.16984
3.6197	1.51942
6.06675	1.86026
9.12558	2.16615
12.1844	2.41959
15.0684	2.6643
17.4718	2.84783
19.8315	3.02262
