Adsorption isotherm of Methane on Zn2(NDC)2(DPNI)
DOI: 10.1021/La800555x
Adsorbate Methane: InChIKey VNWKTOKETHGBQD-UHFFFAOYSA-N
Temperature: 296 K
Tabular data in the source: 0
pressure (bar)	uptake (mmol/g)
0	0.0162291
2.35247	0.129842
5.41129	0.234716
8.38272	0.33959
10.3928	0.409506
12.4903	0.505641
15.1995	0.601775
17.2096	0.680431
19.0886	0.750347
19.8315	0.811523
