Adsorption isotherm of Methane on Zn2(NDC)2(DPNI)
DOI: 10.1021/La800555x
Adsorbate Methane: InChIKey VNWKTOKETHGBQD-UHFFFAOYSA-N
Temperature: 296 K
Tabular data in the source: 0
pressure (bar)	uptake (mmol/g)
0.167594	0.00748956
0.648266	0.129842
2.22138	0.287153
4.44995	0.453204
6.37264	0.549338
8.33902	0.645473
10.3054	0.750347
12.2281	0.855221
14.1945	0.942616
16.2483	1.04749
17.8651	1.13488
19.8752	1.25724
