Adsorption isotherm of Methane on Zn2(NDC)2(DPNI)
DOI: 10.1021/La800555x
Adsorbate Methane: InChIKey VNWKTOKETHGBQD-UHFFFAOYSA-N
Temperature: 296 K
Tabular data in the source: 0
pressure (bar)	uptake (mmol/g)
0.308146	0.148566
1.01604	0.42386
1.95991	0.668566
4.47689	1.34151
6.04999	1.58621
7.74109	1.92268
9.94344	2.28974
12.2638	2.59563
14.7414	2.96268
17.3371	3.32974
