Adsorption isotherm of Carbon Dioxide on Zn2(NDC)2(DPNI)
DOI: 10.1021/La800555x
Adsorbate Carbon Dioxide: InChIKey CURLTUGMZLYLDI-UHFFFAOYSA-N
Temperature: 296 K
Tabular data in the source: 0
pressure (bar)	uptake (mmol/g)
0.0801993	0.0774055
0.604569	0.496901
1.52222	1.03875
2.92054	1.57186
4.75583	2.07001
7.63986	2.55068
9.69364	2.80413
12.534	3.14497
15.5054	3.41589
18.3457	3.68682
19.9189	3.82665
