Adsorption isotherm of Methane on Zn2(NDC)2(DPNI)
DOI: 10.1021/La800555x
Adsorbate Methane: InChIKey VNWKTOKETHGBQD-UHFFFAOYSA-N
Temperature: 296 K
Tabular data in the source: 0
pressure (bar)	uptake (mmol/g)
0.123897	0.0568017
0.823056	0.60739
1.91549	0.790919
4.88692	0.913272
9.95583	0.852096
14.981	0.729743
20.0063	0.760331
