Adsorption isotherm of Nitrogen on Zn2(NDC)2(DPNI)
DOI: 10.1021/La800555x
Adsorbate Nitrogen: InChIKey IJGRMHOSHXDMSA-UHFFFAOYSA-N
Temperature: 77 K
Tabular data in the source: 0
pressure (bar)	uptake (cm3(STP)/g)
0.00619484	2.94945
0.00837971	36.5965
0.108884	45.0083
0.25527	51.1259
0.410397	59.5377
0.563338	69.4789
0.707539	82.4789
0.814598	92.42
0.908548	103.891
0.96317	112.302
