Adsorption isotherm of Carbon Dioxide on Zn2(NDC)2(DPNI)
DOI: 10.1021/La800555x
Adsorbate Carbon Dioxide: InChIKey CURLTUGMZLYLDI-UHFFFAOYSA-N
Temperature: 296 K
Tabular data in the source: 0
pressure (bar)	uptake (mmol/g)
0.347473	0.729743
0.976717	1.3721
1.99924	2.10621
3.13974	2.62621
4.51621	3.05445
6.08932	3.4521
7.93773	3.81915
9.86478	4.18621
12.3031	4.55327
14.9381	5.04268
17.2977	5.44033
