Adsorption isotherm of Methane on Zn2(NDC)2(DPNI)
DOI: 10.1021/La800555x
Adsorbate Methane: InChIKey VNWKTOKETHGBQD-UHFFFAOYSA-N
Temperature: 296 K
Tabular data in the source: 0
pressure (bar)	uptake (mmol/g)
0.997846	0.42386
2.00289	0.729743
3.18272	1.0968
4.49364	1.3721
6.02306	1.67798
7.77096	1.98386
9.91213	2.28974
12.2281	2.68739
14.8062	2.99327
17.4281	3.39092
