Adsorption isotherm of Carbon Dioxide on Zn2(NDC)2(DPNI)
DOI: 10.1021/La800555x
Adsorbate Carbon Dioxide: InChIKey CURLTUGMZLYLDI-UHFFFAOYSA-N
Temperature: 296 K
Tabular data in the source: 0
pressure (bar)	uptake (mmol/g)
0.937389	1.24974
1.99924	1.58621
3.10041	1.92268
4.55554	2.22857
6.04999	2.47327
7.74109	2.74857
9.90411	3.05445
12.3424	3.42151
14.8201	3.75798
17.4157	4.2168
