Adsorption isotherm of Methane on Zn2(NDC)2(DPNI)
DOI: 10.1021/La800555x
Adsorbate Methane: InChIKey VNWKTOKETHGBQD-UHFFFAOYSA-N
Temperature: 296 K
Tabular data in the source: 0
pressure (bar)	uptake (mmol/g)
1.05537	0.332096
1.92058	0.515625
3.13974	0.760331
4.47689	0.974449
6.01067	1.18857
7.74109	1.40268
9.86478	1.64739
12.2638	1.8921
14.7414	2.1368
17.2977	2.4121
