Adsorption isotherm of Methane on Zn2(NDC)2(DPNI)
DOI: 10.1021/La800555x
Adsorbate Methane: InChIKey VNWKTOKETHGBQD-UHFFFAOYSA-N
Temperature: 296 K
Tabular data in the source: 0
pressure (bar)	uptake (mmol/g)
0.0801993	0.117978
1.56591	0.637978
3.5323	0.852096
5.76087	0.913272
8.03314	0.913272
9.60625	0.882684
12.5777	0.821508
14.8499	0.790919
17.297	0.821508
19.9189	0.882684
