Adsorption isotherm of Carbon Dioxide on Zn2(NDC)2(DPNI)
DOI: 10.1021/La800555x
Adsorbate Carbon Dioxide: InChIKey CURLTUGMZLYLDI-UHFFFAOYSA-N
Temperature: 296 K
Tabular data in the source: 0
pressure (bar)	uptake (mmol/g)
0.0801993	0.974449
0.211292	1.95327
0.429779	3.26857
0.691964	4.40033
1.04154	5.44033
2.04659	7.79563
15.0684	11.4662
19.9189	11.558
