Adsorption isotherm of Carbon Dioxide on Zn2(NDC)2(DPNI)
DOI: 10.1021/La800555x
Adsorbate Carbon Dioxide: InChIKey CURLTUGMZLYLDI-UHFFFAOYSA-N
Temperature: 296 K
Tabular data in the source: 0
pressure (bar)	uptake (mmol/g)
0	0.0873899
0.560872	1.67798
0.823056	2.19798
1.04154	2.77915
1.95919	3.94151
4.97432	4.98151
9.99953	5.59327
15.0684	5.71563
19.9189	5.83798
