Adsorption isotherm of Carbon Dioxide on Zn2(NDC)2(DPNI)
DOI: 10.1021/La800555x
Adsorbate Carbon Dioxide: InChIKey CURLTUGMZLYLDI-UHFFFAOYSA-N
Temperature: 296 K
Tabular data in the source: 0
pressure (bar)	uptake (mmol/g)
0	0.699155
0.150835	1.83092
0.426129	3.08504
0.819406	4.7368
1.33067	6.32739
1.92058	7.55092
2.98243	8.3768
4.3589	9.35563
5.02747	9.81445
7.85907	10.4568
9.39285	10.8239
11.6739	11.038
14.1122	11.2827
17.809	11.4356
