Adsorption isotherm of Carbon Dioxide on Zn2(NDC)2(DPNI)
DOI: 10.1021/La800555x
Adsorbate Carbon Dioxide: InChIKey CURLTUGMZLYLDI-UHFFFAOYSA-N
Temperature: 296 K
Tabular data in the source: 0
pressure (bar)	uptake (mmol/g)
0.0365018	0.576802
0.123897	1.18857
0.386082	1.8921
0.823056	2.99327
1.8718	4.76739
4.84322	7.30621
9.86843	8.92739
15.0247	9.63092
20.0499	9.96739
