Adsorption isotherm of Carbon Dioxide on Zn2(NDC)2(DPNI)
DOI: 10.1021/La800555x
Adsorbate Carbon Dioxide: InChIKey CURLTUGMZLYLDI-UHFFFAOYSA-N
Temperature: 296 K
Tabular data in the source: 0
pressure (bar)	uptake (mmol/g)
0.167594	1.40268
1.08524	3.66621
2.17768	5.50151
3.13902	6.5721
4.93062	7.64268
7.24659	8.34621
9.60625	8.80504
14.5878	9.47798
19.9189	9.84504
