Adsorption isotherm of Methane on Zn2(NDC)2(DPNI)
DOI: 10.1021/La800555x
Adsorbate Methane: InChIKey VNWKTOKETHGBQD-UHFFFAOYSA-N
Temperature: 296 K
Tabular data in the source: 0
pressure (bar)	uptake (mmol/g)
0.954149	0.729743
1.95919	1.12739
4.93062	2.01445
10.0432	2.80974
15.0247	3.20739
19.9189	3.36033
