Adsorption isotherm of Methane on Zn2(NDC)2(DPNI)
DOI: 10.1021/La800555x
Adsorbate Methane: InChIKey VNWKTOKETHGBQD-UHFFFAOYSA-N
Temperature: 296 K
Tabular data in the source: 0
pressure (bar)	uptake (mmol/g)
0.150835	0.332096
1.8026	2.01445
3.61168	3.14621
5.22411	4.12504
7.66243	4.79798
9.94344	5.47092
12.3424	5.86857
14.1515	6.14386
15.7246	6.38857
17.7697	6.51092
