Adsorption isotherm of Carbon Dioxide on Zn2(NDC)2(DPNI)
DOI: 10.1021/La800555x
Adsorbate Carbon Dioxide: InChIKey CURLTUGMZLYLDI-UHFFFAOYSA-N
Temperature: 296 K
Tabular data in the source: 0
pressure (bar)	uptake (mmol/g)
0.997846	1.43327
2.00289	2.1368
3.13902	2.6568
4.53734	3.08504
6.06675	3.42151
7.81465	3.84974
9.91213	4.2168
12.2281	4.61445
14.7626	5.0121
17.4718	5.5321
