Adsorption isotherm of Methane on SNU-150'
DOI: 10.1002/chem.201303086
Adsorbate Methane: InChIKey VNWKTOKETHGBQD-UHFFFAOYSA-N
Temperature: 195 K
Tabular data in the source: 0
pressure (bar)	uptake (cm3(STP)/g)
0.0393071	7.87402
0.0567769	11.0236
0.0829817	15.748
0.113554	18.8976
0.148494	26.7717
0.214005	39.3701
0.25768	47.2441
0.318824	58.2677
0.371234	67.7165
0.410541	74.0157
0.467318	85.0394
0.519727	91.3386
0.563402	99.2126
0.607077	103.937
0.672588	113.386
0.768672	129.134
0.860389	137.008
0.917166	144.882
0.965208	151.181
1.01762	155.906
