Adsorption isotherm of Carbon Dioxide on SNU-151'
DOI: 10.1002/chem.201303086
Adsorbate Carbon Dioxide: InChIKey CURLTUGMZLYLDI-UHFFFAOYSA-N
Temperature: 273 K
Tabular data in the source: 0
pressure (bar)	uptake (cm3(STP)/g)
0.0322388	2.47666
0.053862	7.17845
0.079741	11.2134
0.107734	14.5801
0.152988	20.86
0.206869	28.4849
0.252191	36.3274
0.301817	44.6191
0.355669	51.5743
0.407331	57.4121
0.461136	63.2512
0.510608	67.9714
0.562261	73.5859
0.613885	78.5307
0.661215	83.2495
0.717124	88.1972
0.766577	92.4709
0.813926	97.6361
0.865493	101.242
0.919259	106.188
0.972968	109.795
1.02027	113.844
