Adsorption isotherm of Methane on SNU-150'
DOI: 10.1002/chem.201303086
Adsorbate Methane: InChIKey VNWKTOKETHGBQD-UHFFFAOYSA-N
Temperature: 231 K
Tabular data in the source: 0
pressure (bar)	uptake (cm3(STP)/g)
0.0524095	1.5748
0.0786142	3.14961
0.109186	3.14961
0.165963	6.29921
0.209638	9.44882
0.262047	12.5984
0.314457	12.5984
0.362499	17.3228
0.410541	15.748
0.46295	20.4724
0.51536	23.622
0.567769	25.1969
0.615811	26.7717
0.668221	28.3465
0.711895	29.9213
0.764305	33.0709
0.812347	34.6457
0.864756	37.7953
0.917166	37.7953
0.969575	40.9449
1.00452	42.5197
