Adsorption isotherm of Carbon Dioxide on SNU-151'
DOI: 10.1002/chem.201303086
Adsorbate Carbon Dioxide: InChIKey CURLTUGMZLYLDI-UHFFFAOYSA-N
Temperature: 231 K
Tabular data in the source: 0
pressure (bar)	uptake (cm3(STP)/g)
0.00881087	15.6114
0.0176217	37.4728
0.0264326	53.0842
0.0528652	71.7935
0.0616761	87.4049
0.0792978	98.3152
0.101325	113.906
0.158596	149.755
0.198245	177.819
0.255515	196.481
0.303975	210.469
0.361246	224.443
0.4053	233.75
0.458165	239.918
0.506625	246.094
0.55949	252.262
0.60795	256.875
0.660815	261.481
0.71368	266.087
0.766546	267.568
0.8106	272.188
0.863465	273.668
0.91633	276.712
0.96479	282.887
1.02206	282.799
