Adsorption isotherm of Carbon Dioxide on SNU-151'
DOI: 10.1002/chem.201303086
Adsorbate Carbon Dioxide: InChIKey CURLTUGMZLYLDI-UHFFFAOYSA-N
Temperature: 298 K
Tabular data in the source: 0
pressure (bar)	uptake (cm3(STP)/g)
0.0398221	3.11143
0.0575207	3.96096
0.0752194	5.93989
0.0907058	7.91852
0.110617	9.61541
0.161501	13.2931
0.20796	17.676
0.256631	22.7652
0.305302	28.5602
0.360611	32.8032
0.415919	36.7638
0.462378	40.4409
0.513262	43.4127
0.566358	46.6671
0.612817	49.7795
0.668126	52.8931
0.716797	55.7234
0.769893	58.6955
0.820777	61.5261
0.867236	64.3561
0.920332	67.0459
0.971216	69.7353
