Adsorption isotherm of Nitrogen on SNU-151'
DOI: 10.1002/chem.201303086
Adsorbate Nitrogen: InChIKey IJGRMHOSHXDMSA-UHFFFAOYSA-N
Temperature: 298 K
Tabular data in the source: 0
pressure (bar)	uptake (mmol/g)
0.0303034	0.002696
0.0568827	0.00807
0.0947137	0.009162
0.109871	0.010778
0.162939	0.017238
0.212294	0.026912
0.261558	0.032298
0.314694	0.041974
0.367796	0.050042
0.413279	0.055426
0.470242	0.067248
0.515793	0.075848
0.568793	0.079092
0.625698	0.088234
0.671182	0.093618
0.716711	0.101146
0.777408	0.110826
0.822926	0.117818
0.872247	0.125884
0.925349	0.133952
0.974636	0.14041
