Adsorption isotherm of Hydrogen on SNU-151'
DOI: 10.1002/chem.201303086
Adsorbate Hydrogen: InChIKey UFHFLCQGNIYNRP-UHFFFAOYSA-N
Temperature: 77 K
Tabular data in the source: 0
pressure (bar)	uptake (cm3(STP)/g)
0.0122818	11.6347
0.0184227	16.533
0.0245636	24.4949
0.0399159	31.8386
0.0491273	38.5732
0.0583386	44.0824
0.0736909	51.426
0.0859727	58.7715
0.101325	65.5025
0.150452	85.6933
0.20572	101.591
0.239495	113.213
0.294764	125.434
0.346961	137.045
0.396089	148.045
0.445216	156.594
0.512766	167.582
0.564964	174.903
0.60795	181.005
0.663218	187.099
0.706205	192.588
0.758402	198.071
0.80753	203.556
0.859727	208.426
0.908855	212.686
0.957982	217.558
1.01325	221.201
