Adsorption isotherm of Methane on SNU-151'
DOI: 10.1002/chem.201303086
Adsorbate Methane: InChIKey VNWKTOKETHGBQD-UHFFFAOYSA-N
Temperature: 231 K
Tabular data in the source: 0
pressure (bar)	uptake (cm3(STP)/g)
0.0349397	7.87402
0.0698793	12.5984
0.0960841	17.3228
0.109186	20.4724
0.161596	26.7717
0.209638	33.0709
0.253312	37.7953
0.310089	45.6693
0.349397	50.3937
0.410541	55.1181
0.454216	59.8425
0.502258	66.1417
0.5503	69.2913
0.607077	72.4409
0.650751	80.315
0.703161	83.4646
0.75557	85.0394
0.803612	88.189
0.856022	91.3386
0.904064	94.4882
0.956473	99.2126
1.00888	100.787
