Adsorption isotherm of Carbon Dioxide on SNU-151'
DOI: 10.1002/chem.201303086
Adsorbate Carbon Dioxide: InChIKey CURLTUGMZLYLDI-UHFFFAOYSA-N
Temperature: 195 K
Tabular data in the source: 0
pressure (bar)	uptake (cm3(STP)/g)
0.00864916	58.6449
0.00878235	31.829
0.0234002	88.7881
0.0321825	120.617
0.043945	152.441
0.0468087	175.9
0.0616096	195.987
0.0794074	212.718
0.0852928	227.792
0.109076	239.484
0.150698	259.527
0.20723	277.87
0.251891	286.176
0.302504	296.148
0.353134	302.768
0.406743	309.383
0.46037	312.646
0.511	319.267
0.555685	322.545
0.615272	325.798
0.659958	329.076
0.710613	330.668
0.764231	335.607
0.811905	337.205
0.86852	338.787
0.913223	338.713
0.963869	341.981
