Adsorption isotherm of Carbon Dioxide on SNU-150'
DOI: 10.1002/chem.201303086
Adsorbate Carbon Dioxide: InChIKey CURLTUGMZLYLDI-UHFFFAOYSA-N
Temperature: 231 K
Tabular data in the source: 0
pressure (bar)	uptake (cm3(STP)/g)
0.0352435	3.07065
0.070487	6.1413
0.10573	12.337
0.158596	21.6304
0.20265	30.9375
0.255515	40.231
0.30838	49.5245
0.352435	58.8315
0.4053	69.6875
0.458165	82.106
0.519841	92.9484
0.568301	106.936
0.60795	114.688
0.665221	130.224
0.71368	144.212
0.757735	155.082
0.828222	170.598
0.867871	178.349
0.920736	186.08
0.960385	195.394
1.01766	203.118
