Adsorption isotherm of Nitrogen on SNU-151'
DOI: 10.1002/chem.201303086
Adsorbate Nitrogen: InChIKey IJGRMHOSHXDMSA-UHFFFAOYSA-N
Temperature: 298 K
Tabular data in the source: 0
pressure (bar)	uptake (cm3(STP)/g)
0.0530961	0.00739789
0.0907058	0.0126381
0.108404	0.015104
0.17035	0.306088
0.23672	0.597688
0.314152	0.89083
0.367248	1.18058
0.415919	1.32854
0.47344	1.76008
0.519899	2.04891
0.570783	1.91482
0.650427	2.6318
0.712372	2.92278
0.725646	2.92463
0.765468	3.21254
0.822989	3.5029
0.876085	3.5103
0.915907	3.7982
0.924757	3.79943
0.969003	3.8056
0.982277	4.0898
