Adsorption isotherm of Nitrogen on SNU-150'
DOI: 10.1002/chem.201303086
Adsorbate Nitrogen: InChIKey IJGRMHOSHXDMSA-UHFFFAOYSA-N
Temperature: 298 K
Tabular data in the source: 0
pressure (bar)	uptake (cm3(STP)/g)
0.0530961	0.00739789
0.123891	0.0172618
0.17035	0.306088
0.23672	0.597688
0.305302	0.889597
0.373885	1.18151
0.446892	1.33285
0.519899	1.90773
0.581844	1.91636
0.650427	2.6318
0.712372	2.92278
0.765468	3.21254
0.822989	3.5029
0.898209	3.79574
0.964579	3.80498
1.01325	4.23529
