Adsorption isotherm of Methane on SNU-150'
DOI: 10.1002/chem.201303086
Adsorbate Methane: InChIKey VNWKTOKETHGBQD-UHFFFAOYSA-N
Temperature: 298 K
Tabular data in the source: 0
pressure (bar)	uptake (cm3(STP)/g)
0.0929181	1.42471
0.163713	1.43457
0.203535	1.5813
0.267693	2.15494
0.314152	3.14965
0.358398	4.00288
0.415919	4.71677
0.469015	5.1477
0.517687	5.86036
0.570783	6.71482
0.617242	7.14482
0.670338	7.8581
0.721222	8.71225
0.774318	8.86083
0.827414	9.71528
0.87166	10.2862
0.922544	11.1403
0.97564	11.7124
