Adsorption isotherm of Nitrogen on SNU-150'
DOI: 10.1002/chem.201303086
Adsorbate Nitrogen: InChIKey IJGRMHOSHXDMSA-UHFFFAOYSA-N
Temperature: 77 K
Tabular data in the source: 0
pressure (bar)	uptake (cm3(STP)/g)
0.00124035	350.277
0.00700091	390.491
0.012853	412.269
0.0246821	430.685
0.0424966	444.064
0.0722317	457.422
0.0990033	467.434
0.107935	469.095
0.155577	477.396
0.203226	484.021
0.250876	490.646
0.301497	498.943
0.355132	500.53
0.405761	507.15
0.453427	510.423
0.510026	515.358
0.554711	518.636
0.605366	520.228
0.656004	525.172
0.709622	530.111
0.760268	533.379
0.804938	540.009
0.855559	548.306
0.912132	558.268
0.962737	569.916
