Adsorption isotherm of Nitrogen on SNU-151'
DOI: 10.1002/chem.201303086
Adsorbate Nitrogen: InChIKey IJGRMHOSHXDMSA-UHFFFAOYSA-N
Temperature: 77 K
Tabular data in the source: 0
pressure (bar)	uptake (cm3(STP)/g)
0.0016316	271.506
0.00188966	219.55
0.00726729	336.859
0.0161079	356.957
0.0339057	373.687
0.0606856	382.023
0.0874822	387.006
0.102375	388.657
0.144055	396.968
0.200645	403.579
0.25726	405.161
0.304935	406.758
0.358545	413.373
0.409191	416.642
0.459837	419.91
0.50156	419.841
0.555169	426.456
0.608812	426.367
0.656495	426.288
0.710122	429.552
0.76076	434.496
0.811414	436.088
0.862069	437.68
0.906755	440.958
0.960373	445.898
