Adsorption isotherm of Hydrogen on SNU-151'
DOI: 10.1002/chem.201303086
Adsorbate Hydrogen: InChIKey UFHFLCQGNIYNRP-UHFFFAOYSA-N
Temperature: 87 K
Tabular data in the source: 0
pressure (bar)	uptake (cm3(STP)/g)
0.0245636	6.72534
0.0429864	12.2289
0.06755	20.1797
0.0921136	26.2923
0.104395	30.5741
0.150452	37.8992
0.196509	47.6753
0.264059	58.6638
0.307045	64.7653
0.356173	73.314
0.4053	80.6373
0.457498	86.1204
0.506625	92.8309
0.558823	98.314
0.60795	103.799
0.657077	108.059
0.712345	112.927
0.761473	117.187
0.81367	122.057
0.862798	126.316
0.908855	129.352
0.970264	134.217
1.01325	136.642
