Adsorption isotherm of Nitrogen on SNU-150'
DOI: 10.1002/chem.201303086
Adsorbate Nitrogen: InChIKey IJGRMHOSHXDMSA-UHFFFAOYSA-N
Temperature: 298 K
Tabular data in the source: 0
pressure (bar)	uptake (mmol/g)
0.0151801	0.002688
0.0455289	0.007528
0.0758663	0.011832
0.109996	0.016674
0.159306	0.024204
0.21612	0.029058
0.265464	0.038196
0.311027	0.047332
0.364117	0.054864
0.417208	0.062396
0.458956	0.069922
0.523389	0.07746
0.568906	0.084452
0.614447	0.092516
0.671318	0.10005
0.720628	0.10758
0.769915	0.114038
0.82682	0.12318
0.87236	0.131244
0.917912	0.139844
0.978564	0.14738
