Adsorption isotherm of Carbon Dioxide on SNU-150'
DOI: 10.1002/chem.201303086
Adsorbate Carbon Dioxide: InChIKey CURLTUGMZLYLDI-UHFFFAOYSA-N
Temperature: 195 K
Tabular data in the source: 0
pressure (bar)	uptake (cm3(STP)/g)
0.0267133	21.7435
0.029577	45.2025
0.0473914	58.5808
0.0561571	93.7619
0.0649061	132.295
0.0736219	177.532
0.0852096	244.552
0.144497	308.141
0.180167	326.518
0.230772	338.166
0.299241	353.136
0.352842	361.428
0.406469	364.691
0.457098	371.311
0.501776	376.265
0.552422	379.533
0.603069	382.801
0.659675	386.06
0.71033	387.652
0.757996	390.925
0.814611	392.507
0.856333	392.438
0.909951	397.378
0.966566	398.96
1.01125	402.238
