Adsorption isotherm of Methane on SNU-151'
DOI: 10.1002/chem.201303086
Adsorbate Methane: InChIKey VNWKTOKETHGBQD-UHFFFAOYSA-N
Temperature: 195 K
Tabular data in the source: 0
pressure (bar)	uptake (cm3(STP)/g)
0.0262047	11.0236
0.0349397	14.1732
0.0786142	34.6457
0.104819	39.3701
0.157228	51.9685
0.209638	64.5669
0.25768	75.5906
0.310089	83.4646
0.362499	92.9134
0.410541	99.2126
0.458583	107.087
0.506625	111.811
0.559034	119.685
0.611444	124.409
0.663853	130.709
0.711895	133.858
0.768672	138.583
0.816714	141.732
0.873491	143.307
0.921533	149.606
0.973943	154.331
