Adsorption isotherm of Methane on SNU-150'
DOI: 10.1002/chem.201303086
Adsorbate Methane: InChIKey VNWKTOKETHGBQD-UHFFFAOYSA-N
Temperature: 273 K
Tabular data in the source: 0
pressure (bar)	uptake (cm3(STP)/g)
0.08787	0.950929
0.117852	0.747529
0.162896	2.11658
0.210054	2.81739
0.2658	3.97031
0.312968	4.89434
0.360164	6.48803
0.413748	7.19308
0.458755	7.66926
0.516643	8.82358
0.565953	9.74903
0.617405	10.6759
0.666724	11.8246
0.718166	12.5282
0.769618	13.4551
0.818938	14.6037
0.872532	15.532
0.923984	16.4589
0.973274	16.9379
