Adsorption isotherm of Carbon Dioxide on SNU-150'
DOI: 10.1002/chem.201303086
Adsorbate Carbon Dioxide: InChIKey CURLTUGMZLYLDI-UHFFFAOYSA-N
Temperature: 298 K
Tabular data in the source: 0
pressure (bar)	uptake (cm3(STP)/g)
0.106192	2.83833
0.150439	3.9739
0.20796	5.81721
0.256631	7.09458
0.309727	8.51374
0.360611	10.2149
0.413707	11.6341
0.464591	12.9118
0.515474	14.7542
0.561933	16.4548
0.619454	17.7334
0.668126	19.7166
0.716797	20.7116
0.765468	22.6949
0.820777	24.1144
0.87166	26.0979
0.920332	27.6576
0.977853	29.2186
