Adsorption isotherm of Hydrogen on SNU-150'
DOI: 10.1002/chem.201303086
Adsorbate Hydrogen: InChIKey UFHFLCQGNIYNRP-UHFFFAOYSA-N
Temperature: 87 K
Tabular data in the source: 0
pressure (bar)	uptake (cm3(STP)/g)
0.0307045	6.72163
0.0491273	10.387
0.0859727	14.6539
0.110536	18.3155
0.156593	23.8024
0.20572	31.1256
0.257918	38.447
0.310116	43.3174
0.353102	50.6443
0.411441	56.1237
0.460568	61.6087
0.509695	65.8682
0.555752	70.7423
0.614091	76.8345
0.663218	81.7068
0.715416	84.1262
0.767614	88.9966
0.819811	94.4797
0.872009	98.7374
0.918066	102.386
0.967193	106.033
1.01325	110.294
