Adsorption isotherm of Hydrogen on SNU-150'
DOI: 10.1002/chem.201303086
Adsorbate Hydrogen: InChIKey UFHFLCQGNIYNRP-UHFFFAOYSA-N
Temperature: 77 K
Tabular data in the source: 0
pressure (bar)	uptake (cm3(STP)/g)
0.0399159	18.971
0.0614091	25.6982
0.0859727	31.8108
0.107466	37.9252
0.144311	48.9323
0.196509	61.7684
0.248707	74.6045
0.310116	84.984
0.356173	94.1474
0.40837	102.081
0.460568	110.016
0.503555	116.73
0.552682	123.44
0.60795	129.534
0.657077	135.632
0.709275	142.953
0.758402	147.826
0.80753	152.698
0.853586	157.572
0.905784	161.217
0.964123	167.309
1.01018	169.732
