Adsorption isotherm of Methane on SNU-151'
DOI: 10.1002/chem.201303086
Adsorbate Methane: InChIKey VNWKTOKETHGBQD-UHFFFAOYSA-N
Temperature: 298 K
Tabular data in the source: 0
pressure (bar)	uptake (cm3(STP)/g)
0.0575207	1.70213
0.0884934	2.55351
0.106192	2.9795
0.161501	3.97544
0.20796	4.6878
0.263268	5.68374
0.314152	6.53789
0.362823	7.53291
0.413707	8.52823
0.469015	9.383
0.515474	10.2365
0.566358	11.0907
0.619454	11.9451
0.668126	12.6578
0.723434	14.0773
0.769893	14.6484
0.820777	15.5026
0.87166	16.4979
0.924757	17.4936
0.97564	18.4889
