Adsorption isotherm of Carbon Dioxide on SNU-150'
DOI: 10.1002/chem.201303086
Adsorbate Carbon Dioxide: InChIKey CURLTUGMZLYLDI-UHFFFAOYSA-N
Temperature: 273 K
Tabular data in the source: 0
pressure (bar)	uptake (cm3(STP)/g)
0.0665528	3.3922
0.10518	4.98023
0.152443	8.13646
0.20182	10.6245
0.259766	13.1181
0.307038	16.4976
0.356434	19.432
0.410095	21.9228
0.453074	25.0762
0.504602	27.7888
0.551865	30.9451
0.607698	34.107
0.654951	37.04
0.70865	40.4237
0.760208	43.806
0.818192	47.1925
0.865455	50.3488
0.914889	54.1761
0.962142	57.1091
1.01156	60.49
