Adsorption isotherm of Methane on SNU-151'
DOI: 10.1002/chem.201303086
Adsorbate Methane: InChIKey VNWKTOKETHGBQD-UHFFFAOYSA-N
Temperature: 273 K
Tabular data in the source: 0
pressure (bar)	uptake (cm3(STP)/g)
0.0450348	1.14583
0.0729126	1.8339
0.105084	2.74802
0.162973	3.90235
0.210159	5.27282
0.257375	7.31295
0.315282	8.91372
0.362478	10.5074
0.411788	11.4329
0.469695	13.0336
0.512626	15.0709
0.570514	16.2253
0.619815	16.9275
0.66702	18.7444
0.718491	20.1177
0.774266	21.9403
0.823566	22.6425
0.868601	23.7883
0.924376	25.6109
0.975837	26.761
