Adsorption isotherm of Tetrahydrofuran on [Ni(pca)(bdc)0.5(H2O)2]
DOI: 10.1021/Ic301481p
Adsorbate Tetrahydrofuran: InChIKey WYURNTSHIVDZCO-UHFFFAOYSA-N
Temperature: 298 K
Tabular data in the source: 0
pressure (bar)	uptake (ml/g)
0.0144561	0.163013
0.0573604	0.40137
0.262348	2.06987
0.369132	1.3548
0.455894	2.30823
0.514053	3.0233
0.566491	3.97673
0.613209	4.93016
0.661834	6.3603
0.701878	7.55208
0.760991	11.6042
0.803895	13.2727
0.859194	17.3247
0.912586	20.9001
0.959304	22.3302
