Adsorption isotherm of Methanol on [Ni(pca)(bdc)0.5(H2O)2]
DOI: 10.1021/Ic301481p
Adsorbate Methanol: InChIKey OKKJLVBELUTLKV-UHFFFAOYSA-N
Temperature: 298 K
Tabular data in the source: 0
pressure (bar)	uptake (ml/g)
0.00515504	4.15679
0.0280373	7.01707
0.0537799	9.51982
0.0995445	10.5924
0.15389	12.0226
0.285463	14.1678
0.391294	15.2404
0.482823	16.313
0.582933	17.3856
0.680183	17.7431
0.781723	18.8158
0.839172	19.2316
0.938329	19.9467
