Adsorption isotherm of Toluene on [Ni(pca)(bdc)0.5(H2O)2]
DOI: 10.1021/Ic301481p
Adsorbate Toluene: InChIKey YXFVVABEGXRONW-UHFFFAOYSA-N
Temperature: 298 K
Tabular data in the source: 0
pressure (bar)	uptake (ml/g)
0.0335247	0.639727
0.0773824	1.11644
0.194654	1.11644
0.276649	1.11644
0.38248	0.878084
0.48545	1.3548
0.651347	0.878084
0.795314	1.83151
0.967885	0.878084
