Adsorption isotherm of Water on [Ni(pca)(bdc)0.5(H2O)2]
DOI: 10.1021/Ic301481p
Adsorbate Water: InChIKey XLYOFNOQVPJJNP-UHFFFAOYSA-N
Temperature: 298 K
Tabular data in the source: 0
pressure (bar)	uptake (ml/g)
0.00229475	5.94446
0.0280373	17.3856
0.0709416	34.1898
0.138158	47.7761
0.191074	58.1447
0.229687	62.7926
0.25543	69.9434
0.332658	78.8818
0.394154	88.5352
0.434198	103.909
0.487113	109.987
0.528587	121.071
0.590084	128.579
0.612966	137.875
0.65015	146.098
0.65301	152.534
0.663021	159.327
0.704495	166.836
0.808895	172.199
0.874682	180.422
0.907575	199.729
0.95334	214.03
