Adsorption isotherm of Ethanol on [Ni(pca)(bdc)0.5(H2O)2]
DOI: 10.1021/Ic301481p
Adsorbate Ethanol: InChIKey LFQSCWFLJHTTHZ-UHFFFAOYSA-N
Temperature: 298 K
Tabular data in the source: 0
pressure (bar)	uptake (ml/g)
0.049733	1.3548
0.15747	1.11644
0.216583	1.3548
0.343389	1.11644
0.548376	1.3548
0.743829	2.06987
0.899238	2.54658
0.933561	6.83701
0.934515	13.0343
0.934515	17.3247
