Adsorption isotherm of Nitrogen on Zr-MOF
DOI: 10.1016/S1872-2067(11)60475-0
Adsorbate Nitrogen: InChIKey IJGRMHOSHXDMSA-UHFFFAOYSA-N
Temperature: 77 K
Tabular data in the source: 0
pressure (bar)	uptake (cm3(STP)/g)
0.00184882	2.10675
0.00848865	21.7706
0.0151285	28.8715
0.0660339	33.2412
0.119153	34.8799
0.209897	38.7034
0.298428	39.7958
0.431225	42.5269
0.541888	45.258
0.637059	46.3504
0.721164	49.6278
0.787562	54.5437
0.845107	58.9135
0.904866	66.0143
0.957985	80.7622
0.984544	99.8799
1.00004	132.107
1.00446	157.779
