Adsorption isotherm of Nitrogen on Ru@Zr-MOF
DOI: 10.1016/S1872-2067(11)60475-0
Adsorbate Nitrogen: InChIKey IJGRMHOSHXDMSA-UHFFFAOYSA-N
Temperature: 77 K
Tabular data in the source: 0
pressure (bar)	uptake (cm3(STP)/g)
0.00627537	38.7034
0.0151285	55.6362
0.0416878	65.4681
0.110299	72.0227
0.185551	77.4849
0.289575	82.4009
0.380319	84.5857
0.484343	87.3168
0.614927	93.3252
0.727804	98.7874
0.800842	105.342
0.871667	111.35
0.915932	123.913
0.951345	138.661
0.984544	171.981
0.993397	186.729
1.00225	217.317
