Adsorption isotherm of Carbon Dioxide on CuBTC
DOI: 10.1021/Cm900049x
Adsorbate Carbon Dioxide: InChIKey CURLTUGMZLYLDI-UHFFFAOYSA-N
Temperature: 298 K
Tabular data in the source: 0
pressure (bar)	uptake (mmol/g)
0.27769	0.94883
1.00246	2.97204
1.05188	3.13215
1.35935	3.59792
1.78213	4.23836
2.63319	5.11169
2.92419	5.25725
4.19803	6.02869
5.53776	6.58179
