Adsorption isotherm of Carbon Dioxide on CuBTC
DOI: 10.1021/Cm900049x
Adsorbate Carbon Dioxide: InChIKey CURLTUGMZLYLDI-UHFFFAOYSA-N
Temperature: 298 K
Tabular data in the source: 0
pressure (bar)	uptake (mmol/g)
0.738907	2.92837
0.991478	3.99092
2.08961	5.99958
3.11637	7.06212
4.20901	7.87723
5.19184	8.35756
