Adsorption isotherm of Carbon Dioxide on CuBTC
DOI: 10.1021/Cm900049x
Adsorbate Carbon Dioxide: InChIKey CURLTUGMZLYLDI-UHFFFAOYSA-N
Temperature: 298 K
Tabular data in the source: 0
pressure (bar)	uptake (mmol/g)
0.184589	0.288495
1.32362	1.12303
1.82158	1.41132
2.39396	2.0486
3.05219	2.80727
3.74476	3.35351
4.76359	4.52186
