Adsorption isotherm of Carbon Dioxide on CuBTC
DOI: 10.1021/Cm900049x
Adsorbate Carbon Dioxide: InChIKey CURLTUGMZLYLDI-UHFFFAOYSA-N
Temperature: 298 K
Tabular data in the source: 0
pressure (bar)	uptake (mmol/g)
0.256713	3.53809
0.656128	6.19515
1.03293	8.27284
2.22364	12.4282
3.02247	14.1064
3.74594	14.5259
4.7181	15.345
