Adsorption isotherm of Carbon Dioxide on CuBTC
DOI: 10.1021/Cm900049x
Adsorbate Carbon Dioxide: InChIKey CURLTUGMZLYLDI-UHFFFAOYSA-N
Temperature: 298 K
Tabular data in the source: 0
pressure (bar)	uptake (mmol/g)
0.0186006	0.0608953
0.0529431	0.288495
0.0872857	0.485749
0.196037	0.774043
0.287617	1.04716
0.402092	1.30511
0.499396	1.57823
0.590976	1.821
0.694004	2.01826
0.797031	2.29138
0.905783	2.48863
1.00309	2.7314
1.50105	3.86941
2.01619	5.00741
3.0064	7.20754
4.00233	9.07386
5.02116	10.3636
