Adsorption isotherm of Carbon Dioxide on CuBTC
DOI: 10.1021/Cm900049x
Adsorbate Carbon Dioxide: InChIKey CURLTUGMZLYLDI-UHFFFAOYSA-N
Temperature: 298 K
Tabular data in the source: 0
pressure (bar)	uptake (mmol/g)
0.299065	2.20034
0.64249	3.6418
0.991639	5.0681
1.67277	6.94959
2.35389	8.43658
3.05219	9.51389
3.74476	10.3636
4.75787	11.274
