Adsorption isotherm of Carbon Dioxide on CuBTC
DOI: 10.1021/Cm900049x
Adsorbate Carbon Dioxide: InChIKey CURLTUGMZLYLDI-UHFFFAOYSA-N
Temperature: 295 K
Tabular data in the source: 0
pressure (bar)	uptake (mmol/g)
0.0251191	0.206501
0.101989	0.643165
0.156895	1.00705
0.250237	1.44372
0.343578	1.92405
0.44241	2.44804
0.590658	3.29226
0.777341	4.04914
0.920099	4.63136
