Adsorption isotherm of Carbon Dioxide on CuBTC
DOI: 10.1021/Cm900049x
Adsorbate Carbon Dioxide: InChIKey CURLTUGMZLYLDI-UHFFFAOYSA-N
Temperature: 298 K
Tabular data in the source: 0
pressure (bar)	uptake (mmol/g)
0.104457	0.819563
0.201761	1.38098
0.304788	1.71479
0.402092	2.12447
0.499396	2.47346
0.613871	2.82244
0.699727	3.11074
0.802755	3.42938
0.900059	3.7025
1.00881	3.97562
1.5125	5.32605
2.01047	6.57026
3.01212	8.46693
4.00806	9.77184
5.00399	10.6367
