Adsorption isotherm of Carbon Dioxide on CuBTC
DOI: 10.1021/Cm900049x
Adsorbate Carbon Dioxide: InChIKey CURLTUGMZLYLDI-UHFFFAOYSA-N
Temperature: 303 K
Tabular data in the source: 0
pressure (bar)	uptake (mmol/g)
0.19533	0.846942
0.398485	1.60383
0.585168	2.28793
0.980496	3.46692
1.20012	4.10737
1.55702	4.93703
1.96333	5.7958
2.25433	6.17424
2.58377	6.6109
5.4554	9.391
