Adsorption isotherm of Water on Palas Soot
DOI: 10.1016/s0021-8502(03)00366-5
Article source: Figure 2
Adsorbate Water: InChIKey XLYOFNOQVPJJNP-UHFFFAOYSA-N
Kind: experiment
Temperature: 303 K
Tabular data in the source: 0
pressure (bar)	uptake (mmol/g)
9.3e-05	0.722179
0.00074	0.725888
0.002405	1.69762
0.003885	1.46555
0.007031	2.20522
0.009436	2.94064
0.011194	3.43181
0.013044	4.16406
0.014802	4.17412
0.016467	4.66476
0.019057	5.40124
0.021278	6.13561
0.023313	7.10947
0.025256	8.08279
0.027106	9.29614
0.029419	10.5121
0.031269	11.4849
0.032194	12.2119
0.033581	13.182
0.035154	14.1532
0.036727	15.365
0.03793	18.2585
0.04015	23.8038
0.041075	30.5445
0.041537	37.7637
0.041907	38.0063
