Adsorption isotherm of Water on Combustor Soot
DOI: 10.1016/s0021-8502(03)00366-5
Article source: Figure 2
Adsorbate Water: InChIKey XLYOFNOQVPJJNP-UHFFFAOYSA-N
Kind: experiment
Temperature: 303 K
Tabular data in the source: 0
pressure (bar)	uptake (mmol/g)
0.00074	0.725888
0.002405	1.45707
0.003885	1.46555
0.005643	4.12167
0.009159	4.1418
0.013692	7.77601
0.019612	12.8615
0.024238	16.7368
0.027568	26.1373
0.032194	50.6999
0.038947	70.7042
