Adsorption isotherm of Water on Palas Soot
DOI: 10.1016/s0021-8502(03)00366-5
Article source: Figure 1a
Adsorbate Water: InChIKey XLYOFNOQVPJJNP-UHFFFAOYSA-N
Kind: experiment
Temperature: 303 K
Tabular data in the source: 0
pressure (bar)	uptake (mmol/g)
0.002463	0.365854
0.004019	0.402439
0.004407	0.292683
0.00713	0.621951
0.009463	0.219512
0.009593	0.841463
0.011278	0.95122
0.013222	1.17073
0.013481	0.621951
0.014778	1.20732
0.016463	1.35366
0.018407	1.2439
0.019185	1.57317
0.021519	1.79268
0.023333	2.08537
0.023852	2.12195
0.025278	2.37805
0.027222	2.70732
0.029556	3.07317
0.029815	3.32927
0.03137	3.47561
0.032278	3.69512
0.033704	3.95122
0.035389	4.28049
0.035519	4.53659
0.037593	6.32927
0.037981	5.4878
0.040315	7.2439
0.041093	9.32927
0.041222	10.6829
0.041741	11.561
0.042	11.6341
