Adsorption isotherm of Water on Palas Soot
DOI: 10.1016/s0021-8502(03)00366-5
Article source: Figure 1b
Adsorbate Water: InChIKey XLYOFNOQVPJJNP-UHFFFAOYSA-N
Kind: experiment
Temperature: 303 K
Tabular data in the source: 0
pressure (bar)	uptake (mmol/g)
0.000119	0.169817
0.000588	0.170291
0.00423	0.767909
0.005868	0.260473
0.010798	0.519998
0.012917	1.41305
0.01702	1.03537
0.019844	2.01398
0.023007	1.55051
0.027469	2.02169
0.027589	2.23393
0.030885	3.59483
0.031697	2.53505
0.034521	3.51366
0.035706	4.91485
0.036288	4.40635
0.037705	5.42596
0.038298	6.1902
0.039477	6.9126
0.039718	7.67648
0.040459	12.1318
0.040669	9.16229
0.041041	11.5808
0.041058	13.5748
