Adsorption isotherm of Water on Palas Soot
DOI: 10.1016/s0021-8502(03)00366-5
Article source: Figure 1c
Adsorbate Water: InChIKey XLYOFNOQVPJJNP-UHFFFAOYSA-N
Kind: experiment
Temperature: 291 K
Tabular data in the source: 0
pressure (bar)	uptake (mmol/g)
9e-05	0.464265
0.000226	0.556572
0.002533	1.01053
0.003619	0.726676
0.004117	1.09611
0.005972	0.994554
0.006921	1.73364
0.008189	1.26306
0.011175	2.08562
0.011761	4.59219
0.012667	3.10099
0.013886	5.88343
0.013923	14.8052
0.01497	8.20181
0.015137	23.3497
0.015421	9.87258
0.016096	13.494
0.0165	17.4884
0.017253	35.7934
0.017397	26.4991
0.01815	43.7818
0.018521	34.1147
0.019327	43.5905
0.01945	57.3446
0.019682	51.7673
