Adsorption isotherm of Water on Palas Soot
DOI: 10.1016/s0021-8502(03)00366-5
Article source: Figure 1a
Adsorbate Water: InChIKey XLYOFNOQVPJJNP-UHFFFAOYSA-N
Kind: experiment
Temperature: 303 K
Tabular data in the source: 0
pressure (bar)	uptake (mmol/g)
0	0.072948
0.002852	0.072948
0.007	0.291793
0.010759	0.474164
0.015944	0.693009
0.021389	1.1307
0.028519	1.38602
0.034093	2.88146
0.0385	5.28875
0.039796	9.99392
