Adsorption isotherm of Water on Palas Soot
DOI: 10.1016/s0021-8502(03)00366-5
Article source: Figure 1c
Adsorbate Water: InChIKey XLYOFNOQVPJJNP-UHFFFAOYSA-N
Kind: experiment
Temperature: 279 K
Tabular data in the source: 0
pressure (bar)	uptake (mmol/g)
0	0.651558
0.000125	0.187487
0.001794	0.483707
0.003171	0.776971
0.00459	1.34999
0.004798	4.33161
0.005633	1.9192
0.006092	9.37264
0.006446	2.85854
0.00701	19.0654
0.007114	3.51706
0.007489	24.9361
0.007781	4.92047
0.007802	30.8983
0.007886	37.2306
0.008553	9.58377
0.009075	15.455
0.009158	47.7649
