Adsorption isotherm of Water on Palas Soot
DOI: 10.1016/s0021-8502(03)00366-5
Article source: Figure 1c
Adsorbate Water: InChIKey XLYOFNOQVPJJNP-UHFFFAOYSA-N
Kind: experiment
Temperature: 303 K
Tabular data in the source: 0
pressure (bar)	uptake (mmol/g)
0	0.371959
0.002089	0.552997
0.002565	0.366072
0.005225	0.453121
0.007411	0.63416
0.010356	0.720579
0.015011	1.17496
0.017101	1.35621
0.019666	1.90816
0.022326	2.18108
0.02242	2.64556
0.026502	5.05288
0.027549	4.21413
0.029344	9.69343
0.030668	12.6645
0.031628	7.64377
0.032561	16.6566
0.035513	13.5831
0.035981	16.9278
