Adsorption isotherm of Water on Silica Gel
DOI: 10.1016/s0021-8502(03)00366-5
Article source: Figure 2
Adsorbate Water: InChIKey XLYOFNOQVPJJNP-UHFFFAOYSA-N
Kind: experiment
Temperature: 303 K
Tabular data in the source: 0
pressure (bar)	uptake (mmol/g)
9.3e-05	0.722179
0.000555	2.16813
0.001573	3.13616
0.002775	4.34579
0.004533	5.55861
0.006661	6.29244
0.009344	7.27001
0.011841	8.24651
0.017947	10.2059
