Adsorption isotherm of Water on Zeolite 13X
DOI: 10.1007/s10450-020-00199-3
Article source: Table S1 / Figure 2a
Adsorbate Water: InChIKey XLYOFNOQVPJJNP-UHFFFAOYSA-N
Kind: experiment
Isotherm type: excess
Temperature: 303 K
Tabular data in the source: 1
pressure (bar)	uptake (mmol/g)
0	0
0.0011	11.4635
0.0012	11.4849
0.00195	12.5355
0.004026	14.6244
0.0072	15.4299
0.00725	15.3012
0.007749	15.3294
0.014038	16.1597
0.014279	16.057
0.017805	16.4487
0.020256	16.5922
0.0211	16.4973
