Adsorption isotherm of Water on Zeolite 13X
DOI: 10.1007/s10450-020-00199-3
Article source: Table S1 / Figure 2a
Adsorbate Water: InChIKey XLYOFNOQVPJJNP-UHFFFAOYSA-N
Kind: experiment
Isotherm type: excess
Temperature: 373 K
Tabular data in the source: 1
pressure (bar)	uptake (mmol/g)
0	0
0.0012	4.07008
0.00122	4.08773
0.00183	4.96409
0.004229	7.12926
0.00823	8.77747
0.014264	10.6215
0.017282	11.0319
0.018751	11.2197
