Adsorption isotherm of Water on Zeolite 13X
DOI: 10.1007/s10450-020-00199-3
Article source: Table S1 / Figure 2a
Adsorbate Water: InChIKey XLYOFNOQVPJJNP-UHFFFAOYSA-N
Kind: experiment
Isotherm type: excess
Temperature: 295 K
Tabular data in the source: 1
pressure (bar)	uptake (mmol/g)
0	0
1.6e-05	2.01858
1.6e-05	1.00922
1.7e-05	3.0279
1.9e-05	4.03719
2.2e-05	5.04635
2.6e-05	6.05533
3.1e-05	7.06428
3.8e-05	8.07291
4.8e-05	9.08123
7e-05	10.0887
0.000146	11.0939
0.00028	12.3021
0.000423	12.0911
0.000499	12.2491
0.000702	13.0211
0.000748	12.6346
0.000998	12.936
0.001025	12.1014
0.00117	12.1006
0.001248	13.1843
0.001393	13.7195
0.001516	13.4084
0.001745	13.573
0.00195	13.2068
0.002034	13.7504
0.002084	14.1478
0.002282	13.8832
0.002496	13.9859
0.002765	14.4491
0.004001	15.5486
0.004125	14.8677
0.005003	14.7779
0.006748	15.3941
0.00725	16.0088
0.007557	15.2151
0.007821	16.0086
0.009413	15.8721
0.012287	16.1979
0.012543	15.8819
0.013729	16.7764
0.013889	16.8599
0.014982	16.1874
0.015194	16.5103
0.017149	16.7273
0.017656	16.5648
0.018362	17.2721
0.020195	16.923
0.020249	17.5341
0.020825	17.2517
0.0212	17.4297
0.022523	17.4264
0.023149	17.7122
0.023408	17.7605
0.023676	17.8086
