Adsorption isotherm of Water on Zeolite 13X
DOI: 10.1007/s10450-020-00199-3
Article source: Table S1 / Figure 2a
Adsorbate Water: InChIKey XLYOFNOQVPJJNP-UHFFFAOYSA-N
Kind: experiment
Isotherm type: excess
Temperature: 348 K
Tabular data in the source: 1
pressure (bar)	uptake (mmol/g)
0	0
0.00108	6.1068
0.001175	5.8556
0.00193	7.73494
0.004226	10.6921
0.007687	11.7958
0.014377	12.8079
0.017124	13.0335
0.018988	13.1969
