Adsorption isotherm of Carbon Dioxide, Water on Zeolite 13X
DOI: 10.1007/s10450-020-00199-3
Article source: Figure 4a
Adsorbate Carbon Dioxide: InChIKey CURLTUGMZLYLDI-UHFFFAOYSA-N
Adsorbate Water: InChIKey XLYOFNOQVPJJNP-UHFFFAOYSA-N
Kind: experiment
Isotherm type: excess
Temperature: 295 K
Tabular data in the source: 1
pressure (bar)	Carbon Dioxide fraction	Carbon Dioxide uptake (mmol/g)	Water fraction	Water uptake (mmol/g)	total uptake (mmol/g)
0.956			0.00974	15.46	
0.952			0.0096	15.47	
1			0.013	18.56	
0.983			0.0189	17.26	
0.966			0.0197	18.09	
0.958			0.0243	18.27	
0.952			0.0243	17.91	
0.967	0.996	0.2371			
0.982	0.993	0.1581			
0.947	0.99	0.1777			
0.946	0.988	0.127			
0.955	0.982	0.1137			
0.984	0.978	0.0983			
0.95	1	5.236	0	0	
