Adsorption isotherm of Water on Zeolite 13X
DOI: 10.1007/s10450-020-00199-3
Article source: Table S1 / Figure 2a
Adsorbate Water: InChIKey XLYOFNOQVPJJNP-UHFFFAOYSA-N
Kind: experiment
Isotherm type: excess
Temperature: 323 K
Tabular data in the source: 1
pressure (bar)	uptake (mmol/g)
0	0
0.00113	9.59728
0.001209	9.82022
0.00187	10.8815
0.004255	13.073
0.00725	13.7371
0.007917	13.7234
0.014035	14.6289
0.014316	14.5428
0.018346	14.9448
0.018964	14.9889
0.021089	15.0002
