Adsorption isotherm of Carbon Dioxide, Water on Zeolite 13X
DOI: 10.1007/s10450-020-00199-3
Article source: Table S3 / Figure 4a
Adsorbate Carbon Dioxide: InChIKey CURLTUGMZLYLDI-UHFFFAOYSA-N
Adsorbate Water: InChIKey XLYOFNOQVPJJNP-UHFFFAOYSA-N
Kind: experiment
Isotherm type: excess
Temperature: 295 K
Tabular data in the source: 1
pressure (bar)	Carbon Dioxide fraction	Carbon Dioxide uptake (mmol/g)	Water fraction	Water uptake (mmol/g)	total uptake (mmol/g)
0.99	0.99893	0.7457	0.00107	13.56	
0.99	0.99801	0.4836	0.00199	14.23	
0.99	0.99749	0.192	0.00251	14.51	
0.99	0.99634	0.1375	0.00366	14.97	
0.99	0.99307	0.0993	0.00693	16.09	
0.99	0.9807	0.0741	0.0193	16.93	
0.99	0.9804	0.0577	0.0196	17.16	
