Adsorption isotherm of Water on Zeolite 13X
DOI: 10.1007/s10450-020-00199-3
Article source: Table S1 / Figure 2a
Adsorbate Water: InChIKey XLYOFNOQVPJJNP-UHFFFAOYSA-N
Kind: experiment
Isotherm type: excess
Temperature: 313 K
Tabular data in the source: 1
pressure (bar)	uptake (mmol/g)
0	0
0.00113	10.8858
0.001203	10.8651
0.00191	11.8398
0.004101	13.826
0.00725	14.5206
0.007808	14.5308
0.013789	15.3166
0.014128	15.3846
0.01774	15.6241
0.019503	15.7685
0.020962	15.704
