Adsorption isotherm of Arsenite       on CS@Zr0.52Al0.48OOH
DOI: 10.1002/slct.201701072
Article source: Figure 8b
Adsorbate Arsenite      : InChIKey OWTFKEBRIAXSMO-UHFFFAOYSA-N
Kind: experiment
Temperature: 298 K
Tabular data in the source: 0
pressure (bar)	uptake (mmol/g)
1.01325	0.00172
1.01325	0.5791
1.01325	0.64448
1.01325	0.65265
