Adsorption isotherm of Fluoride Ion on CS@Zr0.52Al0.48OOH
DOI: 10.1002/slct.201701072
Article source: Figure 8a
Adsorbate Fluoride Ion: InChIKey KRHYYFGTRYWZRS-UHFFFAOYSA-M
Kind: experiment
Temperature: 298 K
Tabular data in the source: 0
pressure (bar)	uptake (mmol/g)
1.01325	0.00476
1.01325	0.25377
1.01325	0.45317
1.01325	0.63381
1.01325	0.92098
1.01325	0.99299
