Adsorption isotherm of Hydrogen on MWCNT (Acid 4)
DOI: 10.1016/j.jssc.2013.11.026
Article source: Figure 5
Adsorbate Hydrogen: InChIKey UFHFLCQGNIYNRP-UHFFFAOYSA-N
Kind: experiment
Temperature: 77 K
Tabular data in the source: 0
pressure (bar)	uptake (wt%)
0.004246	0.018286
0.023355	0.041143
0.044586	0.059429
0.076433	0.082286
0.127389	0.110857
0.178344	0.137143
0.231423	0.157714
0.282378	0.177143
0.363057	0.204571
0.460722	0.230857
0.564756	0.256
0.66879	0.278857
0.766454	0.297143
0.870488	0.314286
0.970276	0.330286
