Adsorption isotherm of Hydrogen on MWCNT (Acid 2)
DOI: 10.1016/j.jssc.2013.11.026
Article source: Figure 5
Adsorbate Hydrogen: InChIKey UFHFLCQGNIYNRP-UHFFFAOYSA-N
Kind: experiment
Temperature: 77 K
Tabular data in the source: 0
pressure (bar)	uptake (wt%)
0.004246	0.021714
0.023355	0.045714
0.044586	0.066286
0.091295	0.101714
0.135881	0.129143
0.18896	0.156571
0.244161	0.179429
0.292994	0.2
0.363057	0.224
0.467091	0.253714
0.569002	0.278857
0.664544	0.300571
0.766454	0.32
0.868365	0.338286
0.970276	0.355429
