Adsorption isotherm of Hydrogen on MWCNT (Acid 5)
DOI: 10.1016/j.jssc.2013.11.026
Article source: Figure 5
Adsorbate Hydrogen: InChIKey UFHFLCQGNIYNRP-UHFFFAOYSA-N
Kind: experiment
Temperature: 77 K
Tabular data in the source: 0
pressure (bar)	uptake (wt%)
0.006369	0.011429
0.027601	0.024
0.048832	0.034286
0.082803	0.048
0.131635	0.065143
0.18259	0.081143
0.233546	0.092571
0.284501	0.104
0.358811	0.117714
0.458599	0.134857
0.56051	0.148571
0.664544	0.16
0.764331	0.171429
0.868365	0.180571
0.968153	0.189714
