Adsorption isotherm of Hydrogen on MWCNT (Acid 1)
DOI: 10.1016/j.jssc.2013.11.026
Article source: Figure 5
Adsorbate Hydrogen: InChIKey UFHFLCQGNIYNRP-UHFFFAOYSA-N
Kind: experiment
Temperature: 77 K
Tabular data in the source: 0
pressure (bar)	uptake (wt%)
0.042463	0.050286
0.091295	0.083429
0.138004	0.106286
0.195329	0.131429
0.237792	0.148571
0.288747	0.164571
0.37155	0.188571
0.469214	0.212571
0.566879	0.234286
0.66879	0.253714
0.766454	0.269714
0.868365	0.284571
0.963907	0.298286
