Adsorption isotherm of Hydrogen on MWCNT
DOI: 10.1016/j.jssc.2013.11.026
Article source: Figure 5
Adsorbate Hydrogen: InChIKey UFHFLCQGNIYNRP-UHFFFAOYSA-N
Kind: experiment
Temperature: 77 K
Tabular data in the source: 0
pressure (bar)	uptake (wt%)
0.002123	0.006857
0.021231	0.018286
0.042463	0.032
0.087049	0.049143
0.138004	0.066286
0.18896	0.08
0.244161	0.093714
0.295117	0.104
0.418259	0.125714
0.515924	0.139429
0.619958	0.153143
0.715499	0.163429
0.819533	0.173714
0.915074	0.181714
