Adsorption isotherm of Hydrogen on MWCNT (Acid 3)
DOI: 10.1016/j.jssc.2013.11.026
Article source: Figure 5
Adsorbate Hydrogen: InChIKey UFHFLCQGNIYNRP-UHFFFAOYSA-N
Kind: experiment
Temperature: 77 K
Tabular data in the source: 0
pressure (bar)	uptake (wt%)
0.027601	0.029714
0.046709	0.042286
0.078556	0.058286
0.129512	0.08
0.180467	0.098286
0.233546	0.113143
0.284501	0.125714
0.36518	0.144
0.467091	0.164571
0.56051	0.180571
0.666667	0.196571
0.768577	0.209143
0.868365	0.221714
0.96603	0.230857
