Adsorption isotherm of Oxygen on C54H41Cu6NO36
DOI: 10.1039/C2ce06384k
Adsorbate Oxygen: InChIKey MYMOFIZGZYHOMD-UHFFFAOYSA-N
Temperature: 77 K
Tabular data in the source: 0
pressure (bar)	uptake (cm3(STP)/g)
0.00401379	579.895
0.00789821	592.591
0.0117901	597.604
0.015295	599.92
0.0195803	601.044
0.0246473	599.878
0.0281543	600
0.0320547	596.233
0.0351736	594.755
0.0390741	590.988
0.058184	574.943
0.0722258	561.161
0.0769079	555.104
0.0843217	544.873
0.0929042	535.049
0.101488	524.127
0.109681	513.801
0.118266	501.781
0.126069	492.051
0.135044	479.436
0.144018	467.917
0.152212	456.494
0.160797	444.474
0.168991	433.051
0.177576	421.031
0.182258	414.974
0.18694	408.917
0.192401	402.765
0.194734	407.967
