Adsorption isotherm of Nitrogen on C54H41Cu6NO36
DOI: 10.1039/C2ce06384k
Adsorbate Nitrogen: InChIKey IJGRMHOSHXDMSA-UHFFFAOYSA-N
Temperature: 77 K
Tabular data in the source: 0
pressure (bar)	uptake (cm3(STP)/g)
0.00171298	343.305
0.0018184	321.354
0.00344705	382.219
0.00356828	356.976
0.00524964	406.866
0.00546574	361.868
0.0107997	451.173
0.0353454	540.005
0.0506885	545.112
0.0814063	548.743
0.0986995	547.767
0.117911	547.292
0.139052	545.124
0.15828	541.357
0.177497	539.784
0.198653	534.323
0.240946	527.791
0.290944	516.679
0.342866	504.971
0.387103	493.453
0.433264	481.338
0.487115	467.936
0.533281	454.724
0.581371	440.916
0.700626	408.34
0.727549	402.187
0.792959	381.916
0.823734	373.473
0.866058	360.356
0.891062	353.703
0.917991	346.453
0.958385	335.03
