Adsorption isotherm of Methane on MIL-101(Cl@Cr)
DOI: 10.1021/acs.jpcc.5b02861
Article source: Figure 3
Adsorbate Methane: InChIKey VNWKTOKETHGBQD-UHFFFAOYSA-N
Kind: experiment
Isotherm type: absolute
Temperature: 297 K
Tabular data in the source: 0
pressure (bar)	uptake (wt%)
0	0
4.13793	3.71277
8.7069	6.13367
13.3621	8.12415
18.1034	9.82759
22.7586	11.5313
27.3276	13.2354
32.2414	14.2214
