Adsorption isotherm of Methane on MIL-101(Cl@Cr)
DOI: 10.1021/acs.jpcc.5b02861
Article source: Figure 3
Adsorbate Methane: InChIKey VNWKTOKETHGBQD-UHFFFAOYSA-N
Kind: experiment
Isotherm type: absolute
Temperature: 223 K
Tabular data in the source: 0
pressure (bar)	uptake (wt%)
0	0
3.10345	9.73798
6.2069	14.458
9.74138	18.0296
13.2759	21.0277
16.8966	23.1652
20.431	24.7296
23.8793	26.0076
28.2759	27.4255
