Adsorption isotherm of Hydrogen on MIL-101(Cl@Cr)
DOI: 10.1021/acs.jpcc.5b02861
Article source: Figure S5
Adsorbate Hydrogen: InChIKey UFHFLCQGNIYNRP-UHFFFAOYSA-N
Kind: experiment
Isotherm type: excess
Temperature: 79 K
Tabular data in the source: 0
pressure (bar)	uptake (wt%)
1.52318	1.79936
4.03974	2.5
6.55629	2.85032
9.2053	3.1051
12.053	3.32803
14.9669	3.48726
18.2119	3.61465
21.5232	3.75796
25.0993	3.8535
28.543	3.9172
