Adsorption isotherm of Methane on Cr-MIL(101)
DOI: 10.1021/acs.jpcc.5b02861
Article source: Figure 3
Adsorbate Methane: InChIKey VNWKTOKETHGBQD-UHFFFAOYSA-N
Kind: experiment
Isotherm type: absolute
Temperature: 198 K
Tabular data in the source: 0
pressure (bar)	uptake (wt%)
0	0
2.58621	12.7506
5.77586	19.1908
9.48276	23.0484
13.0172	26.62
16.6379	28.6142
20.1724	29.4617
