Adsorption isotherm of Hydrogen on Cr-MIL(101)
DOI: 10.1021/acs.jpcc.5b02861
Article source: Figure S5
Adsorbate Hydrogen: InChIKey UFHFLCQGNIYNRP-UHFFFAOYSA-N
Kind: experiment
Isotherm type: excess
Temperature: 79 K
Tabular data in the source: 0
pressure (bar)	uptake (wt%)
0	-0.015924
1.65563	1.65605
4.10596	2.34076
6.82119	2.64331
9.27152	2.86624
11.9868	3.08917
14.9669	3.24841
18.2119	3.42357
21.5232	3.59873
25.0993	3.72611
28.543	3.82166
