Adsorption isotherm of Methane on MIL-101FF(Cr)
DOI: 10.1021/acs.jpcc.5b02861
Article source: Figure 3
Adsorbate Methane: InChIKey VNWKTOKETHGBQD-UHFFFAOYSA-N
Kind: experiment
Isotherm type: absolute
Temperature: 297 K
Tabular data in the source: 0
pressure (bar)	uptake (wt%)
0	0
4.05172	3.42634
8.7069	5.27345
13.3621	6.9772
18.0172	8.96768
22.6724	10.5281
27.4138	11.8014
32.1552	13.0747
