Adsorption isotherm of Hydrogen on MIL-101FF(Cr)
DOI: 10.1021/acs.jpcc.5b02861
Article source: Figure S5
Adsorbate Hydrogen: InChIKey UFHFLCQGNIYNRP-UHFFFAOYSA-N
Kind: experiment
Isotherm type: excess
Temperature: 79 K
Tabular data in the source: 0
pressure (bar)	uptake (wt%)
0	-0.015924
1.52318	1.44904
3.90728	2.10191
6.55629	2.48408
9.13907	2.72293
11.9868	2.97771
14.9669	3.13694
18.2119	3.28025
21.5232	3.47134
25.0331	3.59873
28.4768	3.72611
