Adsorption isotherm of Methane on MIL-101FF(Cr)
DOI: 10.1021/acs.jpcc.5b02861
Article source: Figure 3
Adsorbate Methane: InChIKey VNWKTOKETHGBQD-UHFFFAOYSA-N
Kind: experiment
Isotherm type: absolute
Temperature: 198 K
Tabular data in the source: 0
pressure (bar)	uptake (wt%)
0	0
2.58621	10.7434
5.68966	17.0405
9.31034	21.6154
12.931	24.6132
16.5517	26.8941
20.2586	27.741
