Adsorption isotherm of Methane on MIL-101(Cr)
DOI: 10.1021/acs.jpcc.5b02861
Article source: Figure S6
Adsorbate Methane: InChIKey VNWKTOKETHGBQD-UHFFFAOYSA-N
Kind: experiment
Isotherm type: excess
Temperature: 297 K
Tabular data in the source: 0
pressure (bar)	uptake (wt%)
0.065574	-0.000163
4.13115	2.76596
8.78689	4.53913
13.5738	5.91536
18.0984	7.1931
22.8197	8.5695
27.541	9.64845
32.2623	10.5291
