Adsorption isotherm of Methane on MIL-101(Cl@Cr)
DOI: 10.1021/acs.jpcc.5b02861
Article source: Figure S6
Adsorbate Methane: InChIKey VNWKTOKETHGBQD-UHFFFAOYSA-N
Kind: experiment
Isotherm type: excess
Temperature: 297 K
Tabular data in the source: 0
pressure (bar)	uptake (wt%)
0.065574	-0.000163
4.06557	3.26188
8.78689	5.33233
13.5738	6.90686
18.2951	8.18411
22.8852	9.56084
27.541	10.7391
32.2623	11.6197
