Adsorption isotherm of Methane on Cr-MIL(101)
DOI: 10.1021/acs.jpcc.5b02861
Article source: Figure S6
Adsorbate Methane: InChIKey VNWKTOKETHGBQD-UHFFFAOYSA-N
Kind: experiment
Isotherm type: excess
Temperature: 223 K
Tabular data in the source: 0
pressure (bar)	uptake (wt%)
0.065574	-0.000163
3.34426	8.22117
6.36066	12.0806
9.96721	15.0461
13.4426	17.318
17.0492	19.0937
20.5246	20.2749
24.0656	21.3568
28.3934	22.0401
