Adsorption isotherm of Nitrogen on Cr-MIL(101)
DOI: 10.1021/acs.jpcc.5b02861
Article source: Figure S3a
Adsorbate Nitrogen: InChIKey IJGRMHOSHXDMSA-UHFFFAOYSA-N
Kind: experiment
Isotherm type: excess
Temperature: 77 K
Tabular data in the source: 0
pressure (bar)	uptake (cm3(STP)/g)
0.00205	127.101
0.004085	271.152
0.006157	372.829
0.014716	465.977
0.023319	508.277
0.034074	559.033
0.044852	584.366
0.059934	626.611
0.070704	660.418
0.081481	685.75
0.096563	727.995
0.107326	770.277
0.120248	812.54
0.133193	829.38
0.146137	846.219
0.161234	871.515
0.176346	879.861
0.193602	905.139
0.204394	913.522
0.206547	921.978
0.215142	972.753
0.228087	989.592
0.247503	1014.85
0.249678	997.884
0.269116	997.719
0.279916	997.628
0.290715	997.536
0.305834	997.408
0.316626	1005.79
0.329555	1039.58
0.37921	1064.58
0.385719	1030.63
0.415942	1047.32
0.433184	1089.55
0.450492	1055.5
0.480708	1080.67
0.50443	1122.84
0.513113	1071.92
0.543292	1139.46
0.547656	1088.58
0.584322	1147.59
0.584358	1105.22
0.612422	1121.93
0.629656	1172.63
0.644819	1121.65
0.655575	1172.41
0.677195	1146.8
0.683638	1189.12
0.709549	1197.38
0.713905	1154.97
0.741932	1214.05
0.744128	1171.66
0.778664	1196.79
0.798066	1239
0.811054	1204.99
0.832601	1264.13
0.843422	1238.62
0.864977	1289.28
0.875813	1246.82
0.899512	1314.41
0.910348	1271.95
0.934019	1373.44
0.938397	1305.61
0.959849	1474.92
0.972845	1432.43
0.974777	1695.13
0.985342	1966.23
0.991573	2254.31
0.992056	1694.98
