Adsorption isotherm of Hydrogen on MIL-101(Cl@Cr)
DOI: 10.1021/acs.jpcc.5b02861
Article source: Figure S5
Adsorbate Hydrogen: InChIKey UFHFLCQGNIYNRP-UHFFFAOYSA-N
Kind: experiment
Isotherm type: excess
Temperature: 297 K
Tabular data in the source: 0
pressure (bar)	uptake (wt%)
0	-0.015924
4.50331	0.079618
9.07285	0.063694
13.7086	0.111465
18.3444	0.175159
22.9139	0.22293
27.6159	0.22293
32.3179	0.270701
