Adsorption isotherm of Hydrogen on MIL-101(Cl@Cr)
DOI: 10.1021/acs.jpcc.5b02861
Article source: Figure 2
Adsorbate Hydrogen: InChIKey UFHFLCQGNIYNRP-UHFFFAOYSA-N
Kind: experiment
Isotherm type: absolute
Temperature: 79 K
Tabular data in the source: 0
pressure (bar)	uptake (wt%)
0	0
1.45299	1.86956
4.01709	2.64533
6.66667	3.08097
9.23077	3.44379
12.0513	3.75786
14.9573	4.02331
18.2051	4.26425
21.5385	4.50514
25.0427	4.69734
28.547	4.93813
