Adsorption isotherm of Methane on MIL-101FF(Cr)
DOI: 10.1021/acs.jpcc.5b02861
Article source: Figure S6
Adsorbate Methane: InChIKey VNWKTOKETHGBQD-UHFFFAOYSA-N
Kind: experiment
Isotherm type: excess
Temperature: 223 K
Tabular data in the source: 0
pressure (bar)	uptake (wt%)
0.065574	-0.000163
3.34426	5.94072
6.42623	9.40333
9.83607	12.2702
13.377	14.7402
16.8525	16.6155
20.5246	17.3004
24	18.3824
28.2623	19.76
