Adsorption isotherm of Hydrogen on MIL-101FF(Cr)
DOI: 10.1021/acs.jpcc.5b02861
Article source: Figure S5
Adsorbate Hydrogen: InChIKey UFHFLCQGNIYNRP-UHFFFAOYSA-N
Kind: experiment
Isotherm type: excess
Temperature: 297 K
Tabular data in the source: 0
pressure (bar)	uptake (wt%)
0	-0.015924
4.50331	0.079618
9.07285	0.063694
13.7748	0.063694
18.4106	0.111465
23.0464	0.143312
27.6159	0.191083
32.3179	0.191083
