Adsorption isotherm of Nitrogen on MIL-101(Cl@Cr)
DOI: 10.1021/acs.jpcc.5b02861
Article source: Figure S3c
Adsorbate Nitrogen: InChIKey IJGRMHOSHXDMSA-UHFFFAOYSA-N
Kind: experiment
Isotherm type: excess
Temperature: 77 K
Tabular data in the source: 0
pressure (bar)	uptake (cm3(STP)/g)
0.018367	23.0058
0.026531	45.9339
0.034694	99.3498
0.053061	122.356
0.069388	137.724
0.079592	175.912
0.091837	206.493
0.106122	244.711
0.122449	267.702
0.128571	290.614
0.144898	305.982
0.159184	321.335
0.169388	329.035
0.179592	336.735
0.191837	336.828
0.208163	375.062
0.222449	436.147
0.236735	459.121
0.240816	436.287
0.253061	444.002
0.269388	444.126
0.273469	482.267
0.283673	444.235
0.304082	452.013
0.316327	505.46
0.365306	521.077
0.367347	475.361
0.402041	490.869
0.420408	536.741
0.434694	506.362
0.465306	514.217
0.489796	567.758
0.497959	522.088
0.526531	590.903
0.532653	545.218
0.563265	614.049
0.597959	599.07
0.604082	637.226
0.612245	599.179
0.638776	667.978
0.657143	622.387
0.663265	683.409
0.683673	645.455
0.691837	698.871
0.718367	676.207
0.75102	706.944
0.769388	768.059
0.785714	737.696
0.804082	798.812
0.818367	768.433
0.834694	821.911
0.853061	806.807
0.871429	860.301
0.887755	852.803
0.906122	906.297
0.92449	891.193
0.938776	975.143
0.957143	960.039
0.961224	1120.13
0.979592	1402.28
0.987755	1707.22
0.991837	2065.49
0.995918	2057.9
0.997959	1570.11
