Adsorption isotherm of Methane on MIL-101(Cr)
DOI: 10.1021/acs.jpcc.5b02861
Article source: Figure 3
Adsorbate Methane: InChIKey VNWKTOKETHGBQD-UHFFFAOYSA-N
Kind: experiment
Isotherm type: absolute
Temperature: 297 K
Tabular data in the source: 0
pressure (bar)	uptake (wt%)
0	0
4.13793	3.42603
8.7931	5.84662
13.4483	7.69373
18.0172	9.54116
22.6724	11.2449
27.4138	12.6616
32.1552	14.0783
