Adsorption isotherm of Hydrogen on MIL-101(Cl@Cr)
DOI: 10.1021/acs.jpcc.5b02861
Article source: Figure 2
Adsorbate Hydrogen: InChIKey UFHFLCQGNIYNRP-UHFFFAOYSA-N
Kind: experiment
Isotherm type: absolute
Temperature: 297 K
Tabular data in the source: 0
pressure (bar)	uptake (wt%)
0	0
4.52991	0.118707
9.1453	0.164487
13.6752	0.258902
18.2906	0.377556
22.9915	0.447576
27.6923	0.493304
32.3932	0.611907
