Adsorption isotherm of Nitrogen on MIL-101FF(Cr)
DOI: 10.1021/acs.jpcc.5b02861
Article source: Figure S3b
Adsorbate Nitrogen: InChIKey IJGRMHOSHXDMSA-UHFFFAOYSA-N
Kind: experiment
Isotherm type: excess
Temperature: 77 K
Tabular data in the source: 0
pressure (bar)	uptake (cm3(STP)/g)
0	-0.018077
2.9e-05	34.1299
5.1e-05	59.7274
8e-05	93.8573
0.000101	119.455
0.000123	145.052
0.000137	162.117
0.002278	187.733
0.004425	221.881
0.004447	247.478
0.00658	264.561
0.010839	290.195
0.012979	315.81
0.017231	332.912
0.025728	358.581
0.027853	367.132
0.034217	375.719
0.042699	384.323
0.049069	401.443
0.057551	410.047
0.061803	427.148
0.070292	444.286
0.078781	461.423
0.083018	461.459
0.093626	478.615
0.097878	495.716
0.104241	504.302
0.108485	512.871
0.114856	529.99
0.119108	547.091
0.125464	547.146
0.131834	564.265
0.142435	572.888
0.153035	581.511
0.165747	581.619
0.176362	607.307
0.191186	598.901
0.201793	616.056
0.201808	633.121
0.212423	658.809
0.223023	667.432
0.229386	676.019
0.242113	693.192
0.254825	693.301
0.26753	684.877
0.276004	684.949
0.286605	693.572
0.295087	702.177
0.312029	693.789
0.381973	728.515
0.384106	745.598
0.413768	745.851
0.415872	728.804
0.443407	720.507
0.443429	746.104
0.475194	729.311
0.475209	746.376
0.502759	755.143
0.504863	738.096
0.536643	738.367
0.536657	755.432
0.568415	730.106
0.572682	764.272
0.602321	738.928
0.602343	764.525
0.627752	747.677
0.627774	773.275
0.659525	739.416
0.659554	773.546
0.697661	739.741
0.69769	773.871
0.731581	765.628
0.731596	782.693
0.765472	757.385
0.76762	791.533
0.799385	774.739
0.799414	808.869
0.901124	826.801
0.903221	801.222
0.949948	938.139
0.954149	895.513
0.962804	1108.9
0.977975	1510.05
0.986442	1501.59
0.986623	1714.9
0.99509	1706.44
1.00162	1911.28
1.00814	2107.58
