Adsorption isotherm of Hydrogen on MIL-101FF(Cr)
DOI: 10.1021/acs.jpcc.5b02861
Article source: Figure 2
Adsorbate Hydrogen: InChIKey UFHFLCQGNIYNRP-UHFFFAOYSA-N
Kind: experiment
Isotherm type: absolute
Temperature: 297 K
Tabular data in the source: 0
pressure (bar)	uptake (wt%)
0	0
4.44444	0.14305
9.1453	0.188778
13.7607	0.210267
18.2906	0.304682
23.0769	0.37465
27.6068	0.444773
32.3077	0.514793
