Adsorption isotherm of Methane on MIL-101(Cl@Cr)
DOI: 10.1021/acs.jpcc.5b02861
Article source: Figure S6
Adsorbate Methane: InChIKey VNWKTOKETHGBQD-UHFFFAOYSA-N
Kind: experiment
Isotherm type: excess
Temperature: 198 K
Tabular data in the source: 0
pressure (bar)	uptake (wt%)
0.065574	-0.000163
2.36066	13.9743
5.63934	21.105
9.37705	25.6566
13.2459	28.6216
16.7213	30.3976
20.3279	30.3887
