Adsorption isotherm of Methane on MIL-101FF(Cr)
DOI: 10.1021/acs.jpcc.5b02861
Article source: Figure S6
Adsorbate Methane: InChIKey VNWKTOKETHGBQD-UHFFFAOYSA-N
Kind: experiment
Isotherm type: excess
Temperature: 198 K
Tabular data in the source: 0
pressure (bar)	uptake (wt%)
0.065574	-0.000163
2.62295	10.4043
5.70492	16.5439
9.37705	20.5008
13.0492	23.3671
16.6557	24.8454
20.3279	25.1337
