Adsorption isotherm of Hydrogen on Cr-MIL(101)
DOI: 10.1021/acs.jpcc.5b02861
Article source: Figure 2
Adsorbate Hydrogen: InChIKey UFHFLCQGNIYNRP-UHFFFAOYSA-N
Kind: experiment
Isotherm type: absolute
Temperature: 79 K
Tabular data in the source: 0
pressure (bar)	uptake (wt%)
0	0
1.7094	1.72366
4.10256	2.49953
6.75214	2.91088
9.23077	3.22516
12.0513	3.56353
14.9573	3.85326
18.2051	4.1185
21.5385	4.45656
24.9573	4.74598
28.547	4.96242
