Adsorption isotherm of Methane on MIL-101FF(Cr)
DOI: 10.1021/acs.jpcc.5b02861
Article source: Figure 3
Adsorbate Methane: InChIKey VNWKTOKETHGBQD-UHFFFAOYSA-N
Kind: experiment
Isotherm type: absolute
Temperature: 223 K
Tabular data in the source: 0
pressure (bar)	uptake (wt%)
0	0
3.27586	6.58324
6.2931	10.1567
9.65517	13.2987
13.1897	16.0101
16.7241	18.4347
20.5172	19.8548
23.8793	21.2764
28.1034	22.695
