Adsorption isotherm of Methane on Cr-MIL(101)
DOI: 10.1021/acs.jpcc.5b02861
Article source: Figure S6
Adsorbate Methane: InChIKey VNWKTOKETHGBQD-UHFFFAOYSA-N
Kind: experiment
Isotherm type: excess
Temperature: 198 K
Tabular data in the source: 0
pressure (bar)	uptake (wt%)
0.065574	-0.000163
2.68852	12.4863
5.96721	18.4271
9.57377	21.7893
13.1148	24.8542
16.7213	26.1342
20.3279	26.4227
