Adsorption isotherm of Methane on Cr-MIL(101)
DOI: 10.1021/acs.jpcc.5b02861
Article source: Figure S6
Adsorbate Methane: InChIKey VNWKTOKETHGBQD-UHFFFAOYSA-N
Kind: experiment
Isotherm type: excess
Temperature: 297 K
Tabular data in the source: 0
pressure (bar)	uptake (wt%)
0.065574	-0.000163
4.13115	3.16256
8.85246	4.73726
13.5738	6.21281
18.1639	7.58954
22.8852	8.96594
27.541	10.045
32.1311	11.1243
