Adsorption isotherm of Hydrogen on MIL-101FF(Cr)
DOI: 10.1021/acs.jpcc.5b02861
Article source: Figure 2
Adsorbate Hydrogen: InChIKey UFHFLCQGNIYNRP-UHFFFAOYSA-N
Kind: experiment
Isotherm type: absolute
Temperature: 79 K
Tabular data in the source: 0
pressure (bar)	uptake (wt%)
0	0
1.53846	1.50514
3.93162	2.25672
6.5812	2.71665
9.1453	3.03088
11.9658	3.36925
14.9573	3.61035
18.1197	3.89993
21.5385	4.23793
24.9573	4.45448
28.4615	4.69527
