Adsorption isotherm of Methane on Cr-MIL(101)
DOI: 10.1021/acs.jpcc.5b02861
Article source: Figure 3
Adsorbate Methane: InChIKey VNWKTOKETHGBQD-UHFFFAOYSA-N
Kind: experiment
Isotherm type: absolute
Temperature: 223 K
Tabular data in the source: 0
pressure (bar)	uptake (wt%)
0	0
3.36207	9.02021
6.2931	12.7373
9.82759	16.1655
13.3621	19.0202
16.8966	21.0147
20.431	22.8658
23.8793	24.2872
28.2759	25.7051
