Adsorption isotherm of Methane on MIL-101(Cl@Cr)
DOI: 10.1021/acs.jpcc.5b02861
Article source: Figure 3
Adsorbate Methane: InChIKey VNWKTOKETHGBQD-UHFFFAOYSA-N
Kind: experiment
Isotherm type: absolute
Temperature: 198 K
Tabular data in the source: 0
pressure (bar)	uptake (wt%)
0	0
2.41379	14.1849
5.68966	21.6284
9.31034	26.6333
13.0172	30.0609
16.5517	32.3421
20.2586	33.189
