Adsorption isotherm of Methane on MIL-101(Cl@Cr)
DOI: 10.1021/acs.jpcc.5b02861
Article source: Figure S6
Adsorbate Methane: InChIKey VNWKTOKETHGBQD-UHFFFAOYSA-N
Kind: experiment
Isotherm type: excess
Temperature: 223 K
Tabular data in the source: 0
pressure (bar)	uptake (wt%)
0.065574	-0.000163
3.14754	9.41146
6.29508	13.7663
9.77049	17.0296
13.377	19.7969
16.918	21.3745
20.5246	22.4562
24	23.4391
28.3934	24.1223
