Adsorption isotherm of Hydrogen on IRMOF-1
DOI: 10.1016/j.chemphys.2008.03.034
Adsorbate Hydrogen: InChIKey UFHFLCQGNIYNRP-UHFFFAOYSA-N
Temperature: 55 K
Tabular data in the source: 0
pressure (bar)	uptake (wt%)
0.0210076	0.771739
0.0340925	0.923913
0.0596549	0.98913
0.085107	1.01087
0.12334	1.06522
0.161573	1.11957
0.269703	1.19565
0.371484	1.27174
0.479614	1.34783
0.600414	1.41304
0.746611	1.47826
0.873734	1.53261
0.937308	1.56522
1.00718	1.57609
1.07072	1.59783
1.1279	1.6087
1.22324	1.65217
1.37568	1.67391
1.49643	1.71739
1.64889	1.75
1.77593	1.77174
1.92204	1.80435
