Adsorption isotherm of Hydrogen on IRMOF-1
DOI: 10.1016/j.chemphys.2008.03.034
Adsorbate Hydrogen: InChIKey UFHFLCQGNIYNRP-UHFFFAOYSA-N
Temperature: 60 K
Tabular data in the source: 0
pressure (bar)	uptake (wt%)
0.013637	0.369565
0.0328778	0.445652
0.0839199	0.543478
0.128558	0.619565
0.17314	0.673913
0.236853	0.76087
0.313292	0.858696
0.4151	0.945652
0.485052	0.98913
0.574134	1.06522
0.650435	1.1087
0.745783	1.15217
0.847536	1.21739
0.942912	1.27174
1.04461	1.31522
1.19716	1.38043
1.34968	1.43478
1.47674	1.46739
1.60381	1.5
1.71183	1.53261
1.80077	1.55435
