Adsorption isotherm of Hydrogen on IRMOF-1
DOI: 10.1016/j.chemphys.2008.03.034
Adsorbate Hydrogen: InChIKey UFHFLCQGNIYNRP-UHFFFAOYSA-N
Temperature: 55 K
Tabular data in the source: 0
pressure (bar)	uptake (wt%)
0.000855763	0.336957
0.00668047	0.130435
0.00750863	0.456522
0.00814355	0.706522
0.0141339	0.565217
0.014686	0.782609
0.0339821	0.880435
0.0595997	0.967391
0.0979158	1.05435
0.16795	1.13043
0.244279	1.18478
0.326984	1.25
0.390614	1.30435
0.473264	1.34783
0.549565	1.3913
0.613112	1.41304
0.670311	1.43478
0.71481	1.45652
0.740262	1.47826
0.784734	1.48913
0.988075	1.55435
1.15329	1.6087
1.28671	1.6413
1.39473	1.67391
1.51545	1.70652
1.61077	1.73913
1.68698	1.75
1.78865	1.78261
1.85855	1.80435
1.9348	1.82609
