Adsorption isotherm of Hydrogen on IRMOF-1
DOI: 10.1016/j.chemphys.2008.03.034
Adsorbate Hydrogen: InChIKey UFHFLCQGNIYNRP-UHFFFAOYSA-N
Temperature: 25 K
Tabular data in the source: 0
pressure (bar)	uptake (wt%)
0.00151829	0.597826
0.00259489	1.02174
0.00817115	0.717391
0.00933057	1.17391
0.00966184	1.30435
0.00996549	1.42391
0.054686	1.53261
0.105645	1.59783
0.175652	1.66304
0.245604	1.70652
0.309206	1.75
0.417281	1.80435
0.506308	1.8587
0.582581	1.8913
0.728806	1.96739
0.849579	2.02174
0.983023	2.06522
1.07199	2.09783
1.16734	2.1413
1.21193	2.19565
1.28185	2.22826
1.35812	2.26087
1.41535	2.29348
1.48527	2.32609
1.5552	2.3587
1.59972	2.3913
1.6633	2.42391
