Adsorption isotherm of Hydrogen on IRMOF-1
DOI: 10.1016/j.chemphys.2008.03.034
Adsorbate Hydrogen: InChIKey UFHFLCQGNIYNRP-UHFFFAOYSA-N
Temperature: 60 K
Tabular data in the source: 0
pressure (bar)	uptake (wt%)
0.000386473	0.152174
0.0457143	0.5
0.243313	0.804348
0.389703	0.945652
1.04467	1.33696
1.46404	1.46739
1.80072	1.53261
1.80726	1.6087
