Adsorption isotherm of Arsenate, Water on MF4/6-10
DOI: 10.1039/c6ra26806d
Article source: Figure 5
Adsorbate Arsenate: InChIKey HAYXDMNJJFVXCI-UHFFFAOYSA-N
Adsorbate Water: InChIKey XLYOFNOQVPJJNP-UHFFFAOYSA-N
Kind: experiment
Temperature: 298 K
Tabular data in the source: 0
pressure (bar)	Arsenate fraction	Arsenate uptake (mg/g)	Water fraction	Water uptake (mg/g)	total uptake (mg/g)
1.01325	2.3742	30.156			
1.01325	2.8182	37.068			
1.01325	4.3668	37.965			
1.01325	5.983	39.994			
1.01325	7.201	43.393			
1.01325	9.1779	43.397			
