Adsorption isotherm of As(III), Water on MF4/6-10
DOI: 10.1039/c6ra26806d
Article source: Figure 5
Adsorbate As(III): InChIKey LULLIKNODDLMDQ-UHFFFAOYSA-N
Adsorbate Water: InChIKey XLYOFNOQVPJJNP-UHFFFAOYSA-N
Kind: experiment
Temperature: 298 K
Tabular data in the source: 0
pressure (bar)	As(III) fraction	As(III) uptake (mg/g)	Water fraction	Water uptake (mg/g)	total uptake (mg/g)
1.01325	0.3679	37.779			
1.01325	1.9092	42.132			
1.01325	2.5785	46.304			
1.01325	3.9091	48.154			
1.01325	5.4803	49.885			
1.01325	6.9538	52.39			
