Adsorption isotherm of Hydrogen on KC24
DOI: 10.1103/PhysRevB.79.054305
Article source: Figure 2a
Adsorbate Hydrogen: InChIKey UFHFLCQGNIYNRP-UHFFFAOYSA-N
Kind: experiment
Isotherm type: excess
Temperature: 87 K
Tabular data in the source: 0
pressure (bar)	uptake (mol/mol)
0.003231	-0.003527
0.009609	0.042328
0.012801	0.063492
0.019201	0.095238
0.025602	0.126984
0.028759	0.169312
0.035023	0.285714
0.035114	0.229277
0.044587	0.356261
0.05089	0.447972
0.053951	0.550265
0.060226	0.659612
0.069682	0.797178
0.079155	0.924162
0.088622	1.05467
0.104517	1.19929
0.126831	1.36508
0.162121	1.48501
0.236144	1.59083
0.323059	1.7037
0.445503	1.78836
0.609894	1.86596
0.780804	1.90123
1.03559	1.93651
1.44521	1.96825
2.30967	2.00353
