Adsorption isotherm of Hydrogen on KC24
DOI: 10.1103/PhysRevB.79.054305
Article source: Figure 2a
Adsorbate Hydrogen: InChIKey UFHFLCQGNIYNRP-UHFFFAOYSA-N
Kind: experiment
Isotherm type: excess
Temperature: 77 K
Tabular data in the source: 0
pressure (bar)	uptake (mol/mol)
0.003101	0.077601
0.003231	-0.003527
0.006105	0.215168
0.00623	0.137566
0.008944	0.455026
0.011902	0.620811
0.012403	0.310406
0.014781	0.835979
0.017477	1.16402
0.029795	1.52734
0.106753	1.81305
0.138869	1.90123
0.287114	1.98942
0.422575	2.00353
0.622552	2.01764
0.764465	2.03175
