Adsorption isotherm of Methanol on C13H20N12O11Zn3
DOI: 10.1021/Cg100183y
Adsorbate Methanol: InChIKey OKKJLVBELUTLKV-UHFFFAOYSA-N
Temperature: 298 K
Tabular data in the source: 0
pressure (bar)	uptake (cm3(STP)/g)
0.0145095	1.0989
0.0266008	1.86813
0.0435286	2.41758
0.065293	2.74725
0.084639	2.85714
0.106403	3.18681
0.128168	3.40659
0.154768	3.84615
0.193461	4.3956
0.212807	4.50549
0.234571	4.83516
0.253917	4.94505
0.2781	5.27473
0.382085	6.59341
0.420777	7.14286
0.440123	7.47253
0.464305	7.69231
0.546526	8.79121
0.565872	8.9011
0.585218	9.23077
0.604564	9.56044
0.621492	10
0.640838	10.5495
0.660184	10.8791
0.681949	11.3187
0.696458	11.6484
0.718223	12.0879
0.73515	12.4176
0.752078	12.7473
0.773842	13.1868
0.79077	13.956
0.802862	14.8352
0.822208	15.3846
0.836717	16.044
0.856063	16.5934
0.865736	17.6923
0.880246	18.6813
0.892337	19.8901
0.904428	20.5495
0.911683	21.8681
0.928611	25.2747
0.931029	26.9231
0.935866	30.3297
0.938284	28.1319
0.940702	34.0659
