Adsorption isotherm of Carbon Dioxide on IRMOF-1
DOI: 10.1021/acs.jctc.5b00093
Article source: Figure 2- experiment
Adsorbate Carbon Dioxide: InChIKey CURLTUGMZLYLDI-UHFFFAOYSA-N
Kind: experiment
Temperature: 298 K
Tabular data in the source: 0
pressure (bar)	uptake (mmol/g)
2.0744	1.8375
3.1513	2.8429
4.0404	3.6896
5.2402	4.9171
6.2305	6.1252
7.1305	7.0794
8.1714	8.4144
9.3678	10.0813
10.3654	11.536
11.4677	12.9832
12.2629	13.9912
13.3543	15.1846
14.3807	16.0362
15.4829	16.8682
16.5886	17.5708
17.5462	18.1002
18.5941	18.5758
19.6565	19.0124
20.5707	19.3806
21.5643	19.6536
23.9057	20.2678
25.6545	20.6186
27.8838	20.996
30.0878	21.3076
32.0027	21.5094
34.0622	21.6745
36.1614	21.7907
38.1847	21.8948
40.2947	21.9452
42.1843	21.959
