Adsorption isotherm of Nitrogen on [{Fe(NCS)2}3(TPB)4]
DOI: 10.1039/C3cc45180a
Adsorbate Nitrogen: InChIKey IJGRMHOSHXDMSA-UHFFFAOYSA-N
Temperature: 273 K
Tabular data in the source: 0
pressure (bar)	uptake (cm3(STP)/g)
0.0130441	0.116286
0.0721662	0.187793
0.155544	0.473821
0.243469	0.75985
0.298043	0.831357
0.354133	1.04588
0.413255	1.18889
0.46783	1.11739
0.552723	1.40341
0.611845	1.40341
0.667935	1.54643
0.724025	1.68944
0.808919	1.68944
0.866525	1.83246
0.924131	1.97547
0.996897	2.04698
