Adsorption isotherm of Nitrogen on [{Fe(NCS)2}3(TPB)4]
DOI: 10.1039/C3cc45180a
Adsorbate Nitrogen: InChIKey IJGRMHOSHXDMSA-UHFFFAOYSA-N
Temperature: 77 K
Tabular data in the source: 0
pressure (bar)	uptake (cm3(STP)/g)
0.00837971	162.487
0.0411528	182.369
0.0870352	196.134
0.146027	202.252
0.205018	205.311
0.303338	216.017
0.395102	222.134
0.499976	232.84
0.598296	242.017
0.696615	252.722
0.764346	263.428
0.818968	275.664
0.858296	284.84
0.888884	301.664
0.915102	326.134
0.932581	368.958
0.934766	399.546
0.945691	524.958
0.95006	604.487
0.9588	722.252
0.965355	760.487
0.995943	784.958
