Adsorption isotherm of Carbon Dioxide on [{Fe(NCS)2}3(TPB)4]
DOI: 10.1039/C3cc45180a
Adsorbate Carbon Dioxide: InChIKey CURLTUGMZLYLDI-UHFFFAOYSA-N
Temperature: 273 K
Tabular data in the source: 0
pressure (bar)	uptake (cm3(STP)/g)
0.00546434	0.831357
0.0266877	3.19109
0.0645865	6.2659
0.110065	9.76975
0.160091	13.4166
0.211634	16.3484
0.267724	19.2802
0.372325	24.4287
0.475409	29.0052
0.596685	33.5816
0.730089	38.0866
0.858945	42.377
0.928679	44.3077
1.00599	46.4529
