Adsorption isotherm of Carbon Dioxide on [{Fe(NCS)2}3(TPB)4]
DOI: 10.1039/C3cc45180a
Adsorbate Carbon Dioxide: InChIKey CURLTUGMZLYLDI-UHFFFAOYSA-N
Temperature: 298 K
Tabular data in the source: 0
pressure (bar)	uptake (cm3(STP)/g)
0.0312355	2.04698
0.0706503	4.12069
0.110065	6.2659
0.187379	9.62674
0.243469	11.7004
0.319266	14.7037
0.373841	16.4914
0.425383	18.2791
0.479957	19.8523
0.595169	23.0701
0.731605	26.7885
0.861977	29.7918
0.927163	31.2934
1.00751	33.2241
