Adsorption isotherm of Methane on [{Fe(NCS)2}3(TPB)4]
DOI: 10.1039/C3cc45180a
Adsorbate Methane: InChIKey VNWKTOKETHGBQD-UHFFFAOYSA-N
Temperature: 273 K
Tabular data in the source: 0
pressure (bar)	uptake (cm3(STP)/g)
0.046395	0.974371
0.13432	1.61794
0.21315	2.18999
0.272272	2.69054
0.352617	3.47712
0.410223	3.90616
0.499665	4.62124
0.552723	5.12179
0.610329	5.55083
0.667935	5.97987
0.720994	6.33741
0.808919	6.98097
0.951418	7.98207
1.00751	8.33961
