Adsorption isotherm of Carbon Dioxide on 13XBF
DOI: 10.1007/s10450-019-00192-5
Article source: Figure 1A
Adsorbate Carbon Dioxide: InChIKey CURLTUGMZLYLDI-UHFFFAOYSA-N
Kind: experiment
Temperature: 348 K
Tabular data in the source: 0
pressure (bar)	uptake (mmol/g)
0.009417	0.116271
0.0131	0.235866
0.020653	0.355287
0.020398	0.519969
0.022216	0.594738
0.022077	0.684564
0.02378	0.834189
0.040402	1.34242
0.063012	1.73063
0.083942	1.95424
0.09534	2.08846
0.116363	2.25219
0.16419	2.59435
0.22763	2.84599
0.287387	2.97804
0.331692	3.09581
0.385577	3.27303
0.451137	3.40482
0.510894	3.53686
0.568879	3.5642
0.622763	3.74142
0.680655	3.82864
0.730856	3.88627
0.786907	3.91369
0.844891	3.94103
0.898938	4.01345
0.931706	4.08683
0.96261	4.11538
0.987757	4.11425
