Adsorption isotherm of Carbon Dioxide on 13XBF
DOI: 10.1007/s10450-019-00192-5
Article source: Figure 1A
Adsorbate Carbon Dioxide: InChIKey CURLTUGMZLYLDI-UHFFFAOYSA-N
Kind: experiment
Temperature: 398 K
Tabular data in the source: 0
pressure (bar)	uptake (mmol/g)
0.038201	0.264679
0.019158	0.070923
0.116977	0.605452
0.161167	0.798078
0.203561	0.900965
0.282453	1.16688
0.34799	1.31364
0.386515	1.4167
0.44443	1.48895
0.490716	1.57669
0.556369	1.64859
0.594848	1.7816
0.631416	1.89971
0.697068	1.97162
0.756987	1.99887
0.802399	2.02677
0.840026	2.08496
0.903722	2.17192
0.938378	2.27515
0.988602	2.3178
