Adsorption isotherm of Carbon Dioxide on 13XBF
DOI: 10.1007/s10450-019-00192-5
Article source: Figure 1A
Adsorbate Carbon Dioxide: InChIKey CURLTUGMZLYLDI-UHFFFAOYSA-N
Kind: experiment
Temperature: 298 K
Tabular data in the source: 0
pressure (bar)	uptake (mmol/g)
0.017201	0.085981
0.018904	0.235605
0.016784	0.355461
0.016599	0.47523
0.016506	0.535114
0.016321	0.654883
0.016089	0.804594
0.0139	0.969363
0.009776	1.13422
0.009544	1.28393
0.007402	1.41876
0.005236	1.56855
0.012602	1.80774
0.014143	2.06217
0.019552	2.31641
0.03578	3.07916
0.054406	3.54239
0.073286	3.84095
0.084661	3.99014
0.111394	4.21349
0.166912	4.58525
0.238043	4.86648
0.280368	5.01428
0.343994	5.14615
0.409531	5.29291
0.457704	5.41051
0.505948	5.48319
0.552257	5.55596
0.602388	5.6585
0.668041	5.7304
0.714373	5.7882
0.758818	5.81615
0.837988	5.90241
0.897907	5.92966
0.911448	5.92905
0.961695	5.95674
0.992598	5.98529
