Adsorption isotherm of Nitrogen on 13XBF
DOI: 10.1007/s10450-019-00192-5
Article source: Figure 1B
Adsorbate Nitrogen: InChIKey IJGRMHOSHXDMSA-UHFFFAOYSA-N
Kind: experiment
Temperature: 323 K
Tabular data in the source: 0
pressure (bar)	uptake (mmol/g)
0.050003	0.011227
0.067982	0.015727
0.087981	0.019072
0.10397	0.022435
0.125958	0.026917
0.185996	0.033515
0.232033	0.037887
0.294046	0.046767
0.348072	0.053393
0.408038	0.06572
0.462048	0.073492
0.51815	0.07438
0.580091	0.088989
0.626171	0.089923
0.682201	0.09654
0.736269	0.099729
0.802333	0.105154
0.864375	0.111743
0.904386	0.117288
0.928421	0.118323
0.96438	0.127323
0.992424	0.12834
