Adsorption isotherm of Carbon Dioxide on 13XBF
DOI: 10.1007/s10450-019-00192-5
Article source: Figure 1A
Adsorbate Carbon Dioxide: InChIKey CURLTUGMZLYLDI-UHFFFAOYSA-N
Kind: experiment
Temperature: 373 K
Tabular data in the source: 0
pressure (bar)	uptake (mmol/g)
0.037761	0.54913
0.091182	1.02577
0.194758	1.58998
0.275561	1.87078
0.337252	2.00274
0.379554	2.16552
0.439334	2.28259
0.497203	2.38478
0.530017	2.42822
0.59369	2.53015
0.643752	2.6776
0.688219	2.69058
0.748022	2.79268
0.809783	2.87973
0.861942	2.9223
0.908274	2.98009
0.956471	3.08272
0.016222	0.09351
