Adsorption isotherm of Nitrogen on 13XBF
DOI: 10.1007/s10450-019-00192-5
Article source: Figure 1B
Adsorbate Nitrogen: InChIKey IJGRMHOSHXDMSA-UHFFFAOYSA-N
Kind: experiment
Temperature: 348 K
Tabular data in the source: 0
pressure (bar)	uptake (mmol/g)
0.066036	0.011153
0.08005	0.012235
0.118114	0.013206
0.142149	0.014241
0.18216	0.019786
0.2502	0.027493
0.29429	0.027291
0.352381	0.029316
0.398433	0.032542
0.458485	0.037995
0.520484	0.048021
0.570644	0.043209
0.632672	0.050944
0.688773	0.051832
0.744831	0.056158
0.80285	0.063911
0.855029	0.057944
0.909068	0.063424
0.939058	0.069015
0.971167	0.065431
0.995116	0.07334
