Adsorption isotherm of Carbon Dioxide on 13XBF
DOI: 10.1007/s10450-019-00192-5
Article source: Figure 1A
Adsorbate Carbon Dioxide: InChIKey CURLTUGMZLYLDI-UHFFFAOYSA-N
Kind: experiment
Temperature: 323 K
Tabular data in the source: 0
pressure (bar)	uptake (mmol/g)
0.019043	0.145779
0.01683	0.325519
0.016645	0.445287
0.018417	0.549998
0.018301	0.624854
0.018	0.819478
0.017792	0.954218
0.021521	1.04387
0.021197	1.25347
0.020942	1.41815
0.040969	2.22563
0.061576	2.65884
0.076796	2.82283
0.091993	3.00178
0.107259	3.13583
0.178182	3.55181
0.231997	3.77394
0.285812	3.99607
0.3417	4.12829
0.393697	4.27566
0.451519	4.40779
0.513257	4.50981
0.559566	4.58258
0.615524	4.66989
0.68691	4.78644
0.738976	4.8889
0.781532	4.88698
0.835625	4.92946
0.893494	5.03166
0.930154	5.08989
0.961035	5.13341
0.982266	5.1624
