Adsorption isotherm of Nitrogen on 13XBF
DOI: 10.1007/s10450-019-00192-5
Article source: Figure 1B
Adsorbate Nitrogen: InChIKey IJGRMHOSHXDMSA-UHFFFAOYSA-N
Kind: experiment
Temperature: 298 K
Tabular data in the source: 0
pressure (bar)	uptake (mmol/g)
0.035873	0.019311
0.061798	0.029502
0.08171	0.039721
0.099632	0.048804
0.11754	0.059032
0.181299	0.088525
0.237099	0.113472
0.286929	0.13501
0.336674	0.163422
0.406459	0.191741
0.456218	0.219008
0.52002	0.245064
0.565842	0.26662
0.627683	0.289248
0.687476	0.315323
0.745295	0.339115
0.79315	0.35837
0.852972	0.382154
0.906811	0.403673
0.938719	0.416128
0.958645	0.425202
0.988535	0.438812
