Adsorption isotherm of Carbon Dioxide on Zeolite 13X
DOI: 10.1007/s10450-020-00296-3
Article source: Figure A.6
Adsorbate Carbon Dioxide: InChIKey CURLTUGMZLYLDI-UHFFFAOYSA-N
Kind: experiment
Temperature: 423 K
Tabular data in the source: 0
pressure (bar)	uptake (mmol/g)
0.00522	0.04612
0.00707	0.06292
0.01087	0.09165
0.01473	0.11905
0.0189	0.14486
0.03883	0.26526
0.082	0.4701
0.1581	0.61922
0.21143	0.76868
0.26476	0.91103
0.32	1.00356
0.37429	1.1032
0.42286	1.19573
0.47905	1.27402
0.53143	1.35231
0.58476	1.42349
0.63905	1.48754
0.72	1.58719
0.79714	1.6726
0.85048	1.7153
0.90381	1.77224
0.98571	1.82918
