Adsorption isotherm of Carbon Dioxide on Zeolite 13X
DOI: 10.1007/s10450-020-00296-3
Article source: Figure A.6
Adsorbate Carbon Dioxide: InChIKey CURLTUGMZLYLDI-UHFFFAOYSA-N
Kind: experiment
Temperature: 283 K
Tabular data in the source: 0
pressure (bar)	uptake (mmol/g)
1e-05	0.03669
2e-05	0.0729
2e-05	0.11152
3e-05	0.14967
4e-05	0.18817
5e-05	0.26096
7e-05	0.33349
9e-05	0.40577
0.00012	0.51855
0.00016	0.63096
0.0002	0.74303
0.00029	0.88943
0.00039	1.03043
0.00065	1.27446
0.0012	1.55072
0.00616	2.45103
0.01375	2.93397
0.02112	3.34395
0.03623	3.68862
0.05413	3.93791
0.08088	4.20406
0.15238	4.53381
0.21619	4.76157
0.27238	4.90391
0.33238	5.02491
0.40476	5.13167
0.45524	5.20996
0.50476	5.2669
0.55619	5.31673
0.60667	5.37367
0.65714	5.41637
0.70952	5.45196
0.75905	5.48754
0.80952	5.52313
0.8619	5.56584
0.91238	5.58719
0.96286	5.62278
