Adsorption isotherm of Carbon Dioxide on Zeolite 13X
DOI: 10.1007/s10450-020-00296-3
Article source: Figure A.6
Adsorbate Carbon Dioxide: InChIKey CURLTUGMZLYLDI-UHFFFAOYSA-N
Kind: experiment
Temperature: 448 K
Tabular data in the source: 0
pressure (bar)	uptake (mmol/g)
0.00529	0.02918
0.0092	0.04612
0.01283	0.05991
0.0189	0.08174
0.03883	0.14967
0.082	0.27408
0.1581	0.37011
0.21048	0.47687
0.26476	0.54804
0.31714	0.64769
0.37238	0.71886
0.42571	0.80427
0.4781	0.84698
0.53143	0.91815
0.58571	0.98221
0.6381	1.05338
0.71905	1.11744
0.79905	1.19573
0.85238	1.24555
0.90476	1.28826
0.98571	1.3452
