Adsorption isotherm of Carbon Dioxide on Zeolite 13X
DOI: 10.1007/s10450-020-00296-3
Article source: Figure A.6
Adsorbate Carbon Dioxide: InChIKey CURLTUGMZLYLDI-UHFFFAOYSA-N
Kind: experiment
Temperature: 348 K
Tabular data in the source: 0
pressure (bar)	uptake (mmol/g)
0.00019	0.03669
0.00048	0.07532
0.00079	0.11152
0.0012	0.15979
0.0019	0.22525
0.00317	0.33349
0.00454	0.44034
0.00418	0.6736
0.00679	0.56272
0.01494	0.88943
0.03027	1.27446
0.0446	1.52557
0.07867	1.82616
0.15048	2.13523
0.20286	2.37011
0.25619	2.5694
0.31524	2.72598
0.35143	2.81139
0.40476	2.9395
0.45429	3.03915
0.50381	3.12456
0.55524	3.2242
0.60762	3.29537
0.6581	3.35231
0.70857	3.42349
0.76	3.48754
0.81238	3.53737
0.86	3.59431
0.91333	3.65125
0.96286	3.70107
