Adsorption isotherm of Carbon Dioxide on Zeolite 13X
DOI: 10.1007/s10450-020-00296-3
Article source: Figure A.6
Adsorbate Carbon Dioxide: InChIKey CURLTUGMZLYLDI-UHFFFAOYSA-N
Kind: experiment
Temperature: 398 K
Tabular data in the source: 0
pressure (bar)	uptake (mmol/g)
0.00529	0.0947
0.00908	0.15214
0.01301	0.20757
0.01943	0.27859
0.03883	0.49373
0.082	0.79325
0.15905	1.02491
0.21143	1.21708
0.26571	1.35231
0.31905	1.48043
0.37524	1.60142
0.42667	1.70819
0.4819	1.80071
0.53143	1.879
0.58762	1.96441
0.63714	2.02847
0.71905	2.13523
0.79905	2.22776
0.85429	2.2847
0.90571	2.3274
0.98762	2.41993
