Adsorption isotherm of Carbon Dioxide on Zeolite 13X
DOI: 10.1007/s10450-020-00296-3
Article source: Figure A.6
Adsorbate Carbon Dioxide: InChIKey CURLTUGMZLYLDI-UHFFFAOYSA-N
Kind: experiment
Temperature: 323 K
Tabular data in the source: 0
pressure (bar)	uptake (mmol/g)
7e-05	0.03729
0.00015	0.0741
0.00024	0.11335
0.00033	0.14967
0.00043	0.18512
0.00064	0.25672
0.0012	0.41246
0.00185	0.572
0.00313	0.78038
0.00448	0.93414
0.00616	1.10007
0.01453	1.52557
0.02824	1.91796
0.04398	2.22201
0.07867	2.57425
0.14952	2.9395
0.20571	3.20285
0.26095	3.39502
0.34857	3.63701
0.40381	3.75801
0.45333	3.85053
0.50571	3.94306
0.55619	4.02135
0.60857	4.09253
0.6581	4.14235
0.70857	4.19929
0.7581	4.24911
0.81048	4.29181
0.86	4.34164
0.91143	4.39858
0.9619	4.41281
