Adsorption isotherm of Acetylene on Zeolite 13X
DOI: 10.1007/s10450-020-00296-3
Article source: Figure A.7
Adsorbate Acetylene: InChIKey HSFWRNGVRCDJHI-UHFFFAOYSA-N
Kind: experiment
Temperature: 305 K
Tabular data in the source: 0
pressure (bar)	uptake (mmol/g)
0.01232	0.14192
0.02817	0.29476
0.04754	0.48581
0.06954	0.69869
0.09067	0.90066
0.11532	1.13537
0.14261	1.36463
0.17165	1.58843
0.20511	1.81769
0.24472	2.04148
0.29313	2.26528
0.35211	2.48362
0.42518	2.68013
0.52377	2.87118
0.6338	3.04585
0.75088	3.16048
