Adsorption isotherm of Carbon Dioxide on Zeolite 13X
DOI: 10.1007/s10450-020-00296-3
Article source: Figure A.6
Adsorbate Carbon Dioxide: InChIKey CURLTUGMZLYLDI-UHFFFAOYSA-N
Kind: experiment
Temperature: 473 K
Tabular data in the source: 0
pressure (bar)	uptake (mmol/g)
0.01943	0.0425
0.03883	0.0741
0.05882	0.1011
0.0843	0.13132
0.1619	0.18505
0.21429	0.24199
0.26476	0.29181
0.32095	0.3274
0.37429	0.39146
0.42762	0.43416
0.47905	0.46263
0.53429	0.52669
0.59143	0.55516
0.64095	0.59075
0.7219	0.64057
0.80381	0.69039
0.85429	0.7331
0.90762	0.75445
0.98667	0.79715
