Adsorption isotherm of Carbon Dioxide on Zeolite 13X
DOI: 10.1007/s10450-020-00296-3
Article source: Figure A.6
Adsorbate Carbon Dioxide: InChIKey CURLTUGMZLYLDI-UHFFFAOYSA-N
Kind: experiment
Temperature: 373 K
Tabular data in the source: 0
pressure (bar)	uptake (mmol/g)
0.00529	0.2042
0.00651	0.21447
0.00707	0.26963
0.00883	0.32808
0.01301	0.42617
0.01764	0.51855
0.0189	0.572
0.03883	0.90409
0.082	1.29547
0.15714	1.55872
0.20952	1.77224
0.26381	1.92883
0.31905	2.07829
0.37048	2.20641
0.42667	2.30605
0.48095	2.40569
0.5381	2.50534
0.58476	2.58363
0.63714	2.66192
0.71905	2.76868
0.7981	2.86833
0.85238	2.93238
0.90857	2.98932
0.98381	3.0605
