Adsorption isotherm of Carbon Dioxide on Zeolite 13X
DOI: 10.1007/s10450-020-00296-3
Article source: Figure A.6
Adsorbate Carbon Dioxide: InChIKey CURLTUGMZLYLDI-UHFFFAOYSA-N
Kind: experiment
Temperature: 273 K
Tabular data in the source: 0
pressure (bar)	uptake (mmol/g)
1e-05	0.03729
1e-05	0.0741
1e-05	0.11152
2e-05	0.14725
2e-05	0.18512
3e-05	0.26096
4e-05	0.33349
5e-05	0.41246
6e-05	0.5271
8e-05	0.63096
0.0001	0.74303
0.00014	0.90409
0.00019	1.04741
0.00027	1.21345
0.00042	1.38302
0.00061	1.57628
0.00122	1.88686
0.00247	2.29587
0.00454	2.88639
0.01536	3.45511
0.02904	4.06881
0.05339	4.48819
0.07976	4.63737
0.15429	4.90391
0.22	5.11744
0.27524	5.24555
0.34952	5.37367
0.40571	5.45196
0.45429	5.51601
0.50571	5.56584
0.55524	5.61566
0.60667	5.65836
0.65714	5.70107
0.70857	5.73665
0.75905	5.77224
0.81048	5.80783
0.86095	5.82918
0.91143	5.85765
0.96286	5.88612
