Adsorption isotherm of Carbon Dioxide on [Cd(btzb)(bib)(H2O)]n·(DMAC)n·(H2O)2n
DOI: 10.1039/c6ce00057f
Article source: Figure 5
Adsorbate Carbon Dioxide: InChIKey CURLTUGMZLYLDI-UHFFFAOYSA-N
Kind: experiment
Temperature: 273 K
Tabular data in the source: 0
pressure (bar)	uptake (cm3(STP)/g)
0.010891	0.2001
0.021804	0.6959
0.031668	0.5383
0.036705	1.7412
0.064971	1.257
0.067737	3.263
0.093626	2.064
0.098879	4.6482
0.125884	2.848
0.1308	5.8974
0.157006	3.7049
0.161285	6.9916
0.189075	4.5196
0.193085	7.9406
0.220386	5.3113
0.224019	8.8122
0.250085	6.199
0.254571	9.7115
0.282686	7.0958
0.286642	10.5954
0.31451	7.9514
0.317763	11.4716
0.346201	8.8276
0.349643	12.2863
0.375993	9.6731
0.380194	13.0549
0.408632	10.4647
0.410368	13.8773
0.438805	11.2717
0.443006	14.6612
0.470496	12.1864
0.473746	15.4452
0.503263	13.0222
0.503349	16.1677
0.533687	13.8336
0.536748	16.9978
0.564864	14.651
0.568059	17.7894
0.596191	15.3769
0.598475	18.5369
0.628574	16.2493
0.629199	16.2835
0.6599	17.0484
0.66128	17.1876
0.69043	17.8355
0.693059	20.7391
0.72269	18.6733
0.723934	21.4651
0.753241	19.4419
0.754455	22.1417
0.784742	20.2643
0.785415	22.7663
0.816432	23.3971
0.817211	23.4393
0.847741	24.0308
0.848292	24.0591
0.877913	22.5086
0.880209	24.7515
0.909982	25.2911
0.91045	25.3179
0.940913	24.0688
0.941171	24.0664
0.95396	25.9571
0.972224	24.7913
0.984682	26.509
1.00315	25.46
1.016	27.0368
