Adsorption isotherm of Carbon Dioxide on [Cd(btzb)(bib)(H2O)]n·(DMAC)n·(H2O)2n
DOI: 10.1039/c6ce00057f
Article source: Figure 5
Adsorbate Carbon Dioxide: InChIKey CURLTUGMZLYLDI-UHFFFAOYSA-N
Kind: experiment
Temperature: 296 K
Tabular data in the source: 0
pressure (bar)	uptake (cm3(STP)/g)
0.005537	1.6896
0.009819	0.1696
0.011514	1.9411
0.015817	2.1152
0.017228	0.334
0.022272	2.3667
0.029894	0.4497
0.036376	2.8309
0.064307	0.71
0.0696	3.5849
0.093223	0.9898
0.098997	4.1551
0.124767	1.2598
0.131263	4.6381
0.155835	1.6073
0.162092	5.0727
0.188815	1.9741
0.193637	5.3912
0.219883	2.2829
0.223272	5.7484
0.252146	2.6594
0.254818	6.0862
0.28154	2.9198
0.286363	6.3562
0.312369	3.2383
0.317669	6.6747
0.343914	3.5567
0.34801	6.9769
0.377133	3.9041
0.379117	7.2371
0.406528	4.213
0.409844	7.4743
0.438789	4.5411
0.443606	7.7575
0.471529	4.8304
0.474333	8.0177
0.502177	5.2124
0.504301	8.1935
0.534043	5.4956
0.536167	8.423
0.565529	5.802
0.568411	8.6063
0.59531	6.1083
0.59724	8.8282
0.627364	6.3455
0.629863	8.9962
0.65961	6.6979
0.661348	9.1488
0.689837	6.9095
0.692138	9.3344
0.721741	7.2328
0.724756	9.4834
0.752927	7.5222
0.754627	9.6083
0.783636	7.7584
0.786409	9.7573
0.81554	8.101
0.816995	9.8677
0.846726	8.342
0.847942	9.9925
0.877196	8.5831
0.879724	10.1367
0.90898	8.887
0.911028	10.2131
0.940644	9.2054
0.941733	9.1939
0.9538	10.2795
0.971712	9.4851
0.983192	10.3609
1.00409	9.7987
1.01569	10.3646
