Adsorption isotherm of Nitrogen on [Cd(btzb)(bib)(H2O)]n·(DMAC)n·(H2O)2n
DOI: 10.1039/c6ce00057f
Article source: Figure 5
Adsorbate Nitrogen: InChIKey IJGRMHOSHXDMSA-UHFFFAOYSA-N
Kind: experiment
Temperature: 273 K
Tabular data in the source: 0
pressure (bar)	uptake (cm3(STP)/g)
0.003922	0.0486
0.012558	0.1174
0.026125	0.1629
0.037416	0.2469
0.049751	0.3001
0.060566	0.2996
0.077643	0.3295
0.124415	0.3427
0.149652	0.3607
0.210861	0.3398
0.23441	0.3581
0.293375	0.3523
0.335843	0.3381
0.378313	0.3727
0.419428	0.4074
0.484788	0.4227
0.550149	0.4562
0.614905	0.38
0.660239	0.5487
0.744729	0.7826
0.809488	0.8101
0.873551	0.8366
0.916105	0.854
1.00324	0.8742
