Adsorption isotherm of Carbon Dioxide on [Zn12(SO3)2(BTB)6(HCO2)3].15DEF
DOI: 10.1021/ic502254c
Article source: Figure 2a- CO2 at 273 K
Adsorbate Carbon Dioxide: InChIKey CURLTUGMZLYLDI-UHFFFAOYSA-N
Kind: experiment
Temperature: 273 K
Tabular data in the source: 0
pressure (bar)	uptake (cm3(STP)/g)
0.018385	2.134
0.034251	3.052
0.049819	4.997
0.065461	6.266
0.081696	8.021
0.097413	9.561
0.113723	10.965
0.129959	12.424
0.145304	14.152
0.161317	15.53
0.177033	16.934
0.192751	18.338
0.208615	20.067
0.22411	21.498
0.24079	23.119
0.257471	24.604
0.27326	26.198
0.288978	27.737
0.304916	29.412
0.322264	30.627
0.33798	32.436
0.35466	34.138
0.370451	36.029
0.386316	37.541
0.402032	39.027
0.418712	40.971
0.434651	42.781
0.45148	44.375
0.46816	46.319
0.48484	48.156
0.501669	49.695
0.517904	51.451
0.534511	53.18
0.55082	55.016
0.5675	56.88
0.584255	58.554
0.600416	60.202
0.616725	62.201
0.633109	63.929
0.649492	65.739
0.665803	67.305
0.68226	69.304
0.69931	71.033
0.715472	73.005
0.731633	75.085
0.74809	76.948
0.764697	78.461
0.781006	80.595
0.797464	82.134
0.813848	83.917
0.830082	85.969
0.846689	87.752
0.862628	89.589
0.878566	91.858
0.895097	93.667
0.911258	95.45
0.928309	97.557
0.943804	99.502
0.960706	101.014
0.978425	102.77
0.993177	105.066
1.00919	106.957
1.02565	108.901
1.04151	110.522
1.05775	112.359
0.054038	13.319
0.103781	21.342
0.15293	27.285
0.202749	32.47
0.251826	37.953
0.301497	42.815
0.350943	47.676
0.400318	52.673
0.449839	57.588
0.500399	62.477
0.548958	67.338
0.599072	72.011
0.648891	76.683
0.698488	81.193
0.748158	85.73
0.797458	90.241
0.847129	94.481
0.877376	97.181
0.926824	101.448
0.97694	105.553
