Adsorption isotherm of Nitrogen on [Zn12(SO3)2(BTB)6(HCO2)3].15DEF
DOI: 10.1021/ic502254c
Article source: Figure 2a- N2
Adsorbate Nitrogen: InChIKey IJGRMHOSHXDMSA-UHFFFAOYSA-N
Kind: experiment
Temperature: 77 K
Tabular data in the source: 0
pressure (bar)	uptake (cm3(STP)/g)
0.001237	31.859
0.001675	42.127
0.00174	52.396
0.002021	73.527
0.002177	63.124
0.002814	103.846
0.002896	82.612
0.002904	83.687
0.003104	113.628
0.003913	122.87
0.006056	131.544
0.011015	142.136
0.032275	168.049
0.061691	192.043
0.078514	201.014
0.10045	213.443
0.106749	217.523
0.117344	226.521
0.123644	228.223
0.145216	232.491
0.152853	233.085
0.167234	235.138
0.173536	235.111
0.188734	236.948
0.203561	238.203
0.205562	238.406
0.233734	239.756
0.254196	240.998
0.30624	243.832
0.355393	245.911
0.357247	245.911
0.406252	247.827
0.45763	249.9
0.458222	249.932
0.507822	250.875
0.558383	252.737
0.558829	252.748
0.608799	253.41
0.659584	254.164
0.65988	254.176
0.710518	255.54
0.750924	255.916
0.751145	255.927
0.78132	256.671
0.811272	257.696
0.811347	257.698
0.831661	257.641
0.851751	257.78
0.851901	257.775
0.87214	258.423
0.887264	258.212
0.887414	258.206
0.90276	258.881
0.917958	259.42
0.91833	259.375
0.927745	259.528
0.937976	259.798
0.938199	258.663
0.947466	259.662
0.947614	259.663
0.953174	260.175
0.960292	260.418
0.966519	260.58
0.972969	260.552
0.977714	260.498
0.982311	260.876
0.987797	261.2
0.99573	261.038
1.01233	266.793
