Adsorption isotherm of Carbon Dioxide on [Zn12(SO3)2(BTB)6(HCO2)3].15DEF
DOI: 10.1021/ic502254c
Article source: Figure 2a- CO2 at 298 K
Adsorbate Carbon Dioxide: InChIKey CURLTUGMZLYLDI-UHFFFAOYSA-N
Kind: experiment
Temperature: 298 K
Tabular data in the source: 0
pressure (bar)	uptake (cm3(STP)/g)
0.011418	0.459
0.016013	0.567
0.023354	0.593
0.031361	0.539
0.038182	0.566
0.043816	0.619
0.05123	0.646
0.058867	0.673
0.066948	0.807
0.073398	0.591
0.081108	1.05
0.088003	1.076
0.095861	1.427
0.10298	1.373
0.110246	1.697
0.117214	2.183
0.124406	1.939
0.130781	2.182
0.13827	2.398
0.145832	2.425
0.151912	2.586
0.15851	2.802
0.166294	2.829
0.172966	3.558
0.179861	3.666
0.186682	3.936
0.193873	4.314
0.201065	4.746
0.207144	4.962
0.214482	5.637
0.22123	6.123
0.228199	6.393
0.235093	6.906
0.241321	6.851
0.248068	7.419
0.254814	7.58
0.261486	8.066
0.268306	8.498
0.275127	8.66
0.281726	8.849
0.289214	9.497
0.29685	9.524
0.303151	9.956
0.31049	10.631
0.317905	10.928
0.324355	11.279
0.331249	11.468
0.337699	12.116
0.34615	12.629
0.352452	12.926
0.358605	13.196
0.366019	13.601
0.372321	13.925
0.380254	14.329
0.387741	14.599
0.395451	15.193
0.402791	15.436
0.409834	15.949
0.416951	16.3
0.423994	16.759
0.431186	17.002
0.438007	17.434
0.445198	18.028
0.452983	18.325
0.459506	18.46
0.467291	19.027
0.474704	19.783
0.48234	20.485
0.489828	20.62
0.497167	21.322
0.504359	21.457
0.510661	21.646
0.518296	22.483
0.524821	22.888
0.53216	23.59
0.540093	23.86
0.547062	24.454
0.555365	24.832
0.56137	25.237
0.568932	25.912
0.576938	26.29
0.583165	26.641
0.590357	27.127
0.597919	27.803
0.605778	27.91
0.613191	28.802
0.621124	29.315
0.627722	29.693
0.635729	30.016
0.642623	30.529
0.650778	30.556
0.657303	31.258
0.663011	31.717
0.670573	32.447
0.67821	32.906
0.68577	33.284
0.69363	33.634
0.70134	34.553
0.708827	34.931
0.716834	35.444
0.723951	35.795
0.731068	36.335
0.738407	37.172
0.744783	37.928
0.752863	38.198
0.758868	38.982
0.76643	39.359
0.773326	39.873
0.780961	40.521
0.788968	40.791
0.803945	41.222
0.830189	42.221
0.856212	43.111
0.881789	44.055
0.907737	45.162
0.933389	46.269
0.958373	47.159
0.984544	48.536
1.01012	49.832
1.03555	50.884
1.06165	52.18
0.233443	32.415
0.252053	32.603
0.301429	34.438
0.35073	35.976
0.401367	37.676
0.449704	39.051
0.500415	40.697
0.549791	42.37
0.599316	43.556
0.648915	44.77
0.698513	46.091
0.748038	47.116
0.79786	48.275
0.847162	49.218
0.877115	49.541
0.927084	50.322
0.976684	50.779
