Adsorption isotherm of Hydrogen on [Zn12(SO3)2(BTB)6(HCO2)3].15DEF
DOI: 10.1021/ic502254c
Article source: Figure 2a- H2
Adsorbate Hydrogen: InChIKey UFHFLCQGNIYNRP-UHFFFAOYSA-N
Kind: experiment
Temperature: 77 K
Tabular data in the source: 0
pressure (bar)	uptake (cm3(STP)/g)
0.002965	-0.081
0.00437	5.107
0.005405	10.241
0.00555	14.484
0.006658	19.348
0.008435	23.347
0.009543	28.778
0.015315	42.937
0.022425	53.07
0.028203	60.231
0.033463	65.095
0.061472	86.819
0.063619	90.791
0.094007	104.058
0.11891	113.676
0.127284	118.702
0.155675	125.105
0.184955	132.588
0.189624	135.696
0.216608	139.396
0.249522	145.745
0.281028	150.905
0.310457	155.551
0.342187	159.765
0.370726	165.276
0.372581	163.114
0.400603	166.598
0.431295	169.839
0.459985	172.702
0.492306	175.668
0.493123	175.565
0.523816	178.185
0.551987	180.534
0.582235	182.667
0.612778	186.53
0.613224	184.828
0.644287	186.961
0.675647	189.121
0.706265	191.011
0.736439	192.306
0.737921	194.414
0.766909	194.332
0.796638	195.816
0.827553	197.544
0.857949	199.029
0.889014	200.459
0.901986	202.323
0.920003	202.079
0.950474	203.294
0.981611	204.724
1.01045	205.912
1.02313	207.289
1.04166	207.342
1.07213	208.638
1.08555	209.556
1.10268	209.717
1.1267	210.662
