Adsorption isotherm of Carbon Dioxide on MIL-53(Fe)
DOI: 10.1039/C2cc35348b
Adsorbate Carbon Dioxide: InChIKey CURLTUGMZLYLDI-UHFFFAOYSA-N
Temperature: 283 K
Tabular data in the source: 0
pressure (bar)	uptake (mmol/g)
0.150872	0.429043
0.606351	1.15512
1.31996	1.28713
2.13579	1.38614
2.8499	1.41914
3.56385	1.48515
4.22695	1.51815
4.88836	1.88119
4.93854	2.0462
5.14111	2.34323
5.29215	2.73927
5.90338	2.93729
6.51495	3.06931
6.87193	3.10231
7.38196	3.13531
7.892	3.16832
8.35101	3.20132
8.86122	3.20132
9.37125	3.23432
9.88146	3.23432
10.3405	3.26733
10.8505	3.30033
11.3095	3.33333
11.9218	3.33333
12.0747	3.36634
12.5849	3.36634
13.0949	3.39934
13.6051	3.39934
14.1151	3.43234
14.5743	3.43234
15.0844	3.46535
15.5946	3.46535
16.0536	3.49835
16.7167	3.53135
16.9718	3.53135
17.482	3.53135
17.992	3.56436
18.451	3.59736
18.9612	3.59736
19.4714	3.59736
19.9815	3.63036
20.5937	3.63036
