Adsorption isotherm of Carbon Dioxide on MIL-53(Cr-Fe)
DOI: 10.1039/C2cc35348b
Adsorbate Carbon Dioxide: InChIKey CURLTUGMZLYLDI-UHFFFAOYSA-N
Temperature: 283 K
Tabular data in the source: 0
pressure (bar)	uptake (mmol/g)
0.503469	1.32013
0.756887	1.65017
0.908433	1.94719
1.57018	2.24422
1.97734	2.44224
2.53755	2.64026
2.99555	2.87129
3.65663	3.30033
3.96174	3.49835
4.36721	4.0264
4.72233	4.42244
4.97542	4.81848
5.637	5.14851
5.94177	5.41254
6.50249	5.51155
7.01169	5.70957
7.57257	5.77558
7.98006	5.90759
9.61154	6.13861
10.0194	6.20462
10.7843	6.27063
11.5493	6.33663
12.0083	6.36964
12.7733	6.43564
13.5383	6.50165
14.0481	6.56766
14.7621	6.63366
15.5272	6.66667
16.3944	6.69967
17.2104	6.76568
17.9755	6.79868
18.7913	6.89769
19.5053	6.9637
19.9136	6.93069
