Adsorption isotherm of Carbon Dioxide on MIL-53(Cr-Fe)
DOI: 10.1039/C2cc35348b
Adsorbate Carbon Dioxide: InChIKey CURLTUGMZLYLDI-UHFFFAOYSA-N
Temperature: 283 K
Tabular data in the source: 0
pressure (bar)	uptake (mmol/g)
0.0974944	0.891089
0.0998518	0.429043
0.298208	1.55116
0.346366	2.11221
0.497744	2.44224
0.650131	2.57426
0.853371	2.73927
0.954065	3.0033
1.25884	3.26733
1.61565	3.33333
1.92093	3.49835
2.42962	3.79538
2.93864	4.0264
3.39732	4.12541
3.95753	4.32343
4.26315	4.42244
5.28204	4.71947
6.25008	4.9835
6.70859	5.11551
7.26898	5.28053
7.72749	5.41254
8.18549	5.64356
8.54146	5.87459
9.15134	6.33663
9.45612	6.60066
9.70971	6.89769
10.1667	7.32673
10.523	7.49175
10.8788	7.75578
11.2349	7.9538
11.5909	8.18482
11.9469	8.41584
12.5061	8.81188
13.321	9.07591
14.0347	9.20792
14.7991	9.37294
15.4615	9.53795
16.4818	9.57096
17.3488	9.63696
17.9609	9.66997
18.6243	9.63696
19.5934	9.70297
