Adsorption isotherm of Nitrogen on MIL-53(Cr-Fe)
DOI: 10.1039/C2cc35348b
Adsorbate Nitrogen: InChIKey IJGRMHOSHXDMSA-UHFFFAOYSA-N
Temperature: 77 K
Tabular data in the source: 0
pressure (bar)	uptake (cm3(STP)/g)
0.000229	179.672
0.000391	165.245
0.000715	136.392
0.004078	237.372
0.004431	205.896
0.012749	266.212
0.023699	292.427
0.034619	321.265
0.059106	343.527
0.068013	351.384
0.090385	361.845
0.119532	369.675
0.144182	377.51
0.171095	384.031
0.200287	387.926
0.222761	389.207
0.247455	393.109
0.272179	394.387
0.292404	395.671
0.341822	400.85
0.389019	403.409
0.445228	404.645
0.499158	408.507
0.539624	409.763
0.593568	412.313
0.636254	416.19
0.683451	418.75
0.730649	421.309
0.784564	426.482
0.829499	430.356
0.87214	438.167
0.916912	456.467
