Adsorption isotherm of Carbon Dioxide on MIL-53(Cr)
DOI: 10.1039/C2cc35348b
Adsorbate Carbon Dioxide: InChIKey CURLTUGMZLYLDI-UHFFFAOYSA-N
Temperature: 283 K
Tabular data in the source: 0
pressure (bar)	uptake (mmol/g)
0.100694	0.264026
0.251061	0.792079
0.299555	1.28713
0.551121	1.9802
0.651984	2.21122
0.956422	2.54125
1.46427	3.0033
1.97245	3.39934
2.68472	3.79538
3.44733	4.32343
4.05435	5.34653
4.61103	6.23762
4.91379	6.89769
5.88115	7.29373
6.64478	7.62376
7.50993	8.05281
8.01947	8.18482
9.03886	8.38284
9.49754	8.48185
10.313	8.64686
10.8229	8.71287
11.2817	8.77888
11.7916	8.84488
12.0464	8.91089
13.0151	9.0429
14.0857	9.20792
14.5449	9.20792
15.0039	9.24092
15.5137	9.30693
15.7687	9.33993
16.2787	9.37294
16.6357	9.40594
17.1457	9.43894
17.6558	9.47195
17.8597	9.50495
18.5738	9.53795
19.3896	9.63696
