Adsorption isotherm of Water on Silicalite MFI
DOI: 10.1007/s10853-009-3579-4
Adsorbate Water: InChIKey XLYOFNOQVPJJNP-UHFFFAOYSA-N
Temperature: 298 K
Tabular data in the source: 0
pressure (bar)	uptake (ml/g)
237.908	0.000860389
283.66	0.00130648
393.464	0.00173866
462.092	0.00217978
530.719	0.00307693
599.346	0.00306203
640.523	0.00350912
727.451	0.00485832
796.078	0.00712354
841.83	0.00893771
883.007	0.0185053
896.732	0.0230626
928.758	0.0344563
942.484	0.0440299
951.634	0.0517803
974.51	0.0677363
1033.99	0.0832282
1079.74	0.0868665
1120.92	0.0900497
1157.52	0.0914099
1207.84	0.0941351
1258.17	0.0968603
1299.35	0.0977634
1363.4	0.0991176
1464.05	0.101832
1564.71	0.103634
1679.08	0.104977
1802.61	0.106775
1894.12	0.107211
1958.17	0.107197
2058.82	0.108087
