Adsorption isotherm of Nitrogen on Silicalite-CB A
DOI: 10.1007/s10853-009-3579-4
Adsorbate Nitrogen: InChIKey IJGRMHOSHXDMSA-UHFFFAOYSA-N
Temperature: 77 K
Tabular data in the source: 0
pressure (bar)	uptake (cm3(STP)/g)
0.0106526	144.306
0.0213053	146.566
0.0383495	146.546
0.0511326	147.667
0.0852211	148.764
0.0980042	148.749
0.129962	150.984
0.153398	170.275
0.172573	172.525
0.198139	173.632
0.247141	175.847
0.294013	176.929
0.338754	176.876
0.385625	177.958
0.44528	177.888
0.490021	178.972
0.534762	178.92
0.583764	178.863
0.628505	179.947
0.686029	178.743
0.717987	180.978
0.754206	179.8
0.777642	179.772
0.805339	179.74
0.822383	179.72
0.835166	179.705
0.856472	179.68
0.879907	180.789
0.901213	180.764
0.922518	181.875
0.950215	181.843
0.969389	181.821
