Adsorption isotherm of Water on Silicalite-CB A
DOI: 10.1007/s10853-009-3579-4
Adsorbate Water: InChIKey XLYOFNOQVPJJNP-UHFFFAOYSA-N
Temperature: 298 K
Tabular data in the source: 0
pressure (bar)	uptake (ml/g)
59.4771	0.00135516
123.529	0.000885227
219.608	0.00177642
265.359	0.00176648
315.686	0.00175555
379.739	0.00219767
448.366	0.00172674
521.569	0.00216687
567.32	0.00215693
635.948	0.00351011
677.124	0.00395719
750.327	0.00439732
805.229	0.00575348
841.83	0.00756964
873.856	0.00938678
896.732	0.012118
928.758	0.0235117
933.333	0.0344553
942.484	0.0449419
951.634	0.0613569
956.209	0.0540595
979.085	0.0704714
1006.54	0.0786739
1043.14	0.0859624
1088.89	0.0927929
1143.79	0.0982532
1216.99	0.10143
1303.92	0.104147
1381.7	0.105954
1468.63	0.107303
1550.98	0.108653
1642.48	0.109546
1701.96	0.110445
1788.89	0.111338
1875.82	0.111775
1962.75	0.112668
2054.25	0.113104
