Adsorption isotherm of Nitrogen on Silicalite MFI
DOI: 10.1007/s10853-009-3579-4
Adsorbate Nitrogen: InChIKey IJGRMHOSHXDMSA-UHFFFAOYSA-N
Temperature: 77 K
Tabular data in the source: 0
pressure (bar)	uptake (cm3(STP)/g)
0.00426105	89.7677
0.0170442	92.0255
0.0362189	93.1395
0.0511326	94.2584
0.0639158	96.5161
0.0766989	95.3648
0.0980042	98.749
0.127832	99.8505
0.149137	104.371
0.168312	112.303
0.193878	116.819
0.240749	117.9
0.266316	119.007
0.298274	118.969
0.360059	120.033
0.411192	119.974
0.460194	121.053
0.487891	118.748
0.553937	120.943
0.605069	120.883
0.632766	119.714
0.690291	120.783
0.720118	120.749
0.749945	120.714
0.784034	121.81
0.813861	120.639
0.847949	121.735
0.867124	121.713
0.901213	121.673
0.916126	121.656
0.93104	121.638
0.950215	123.889
0.958737	121.606
0.973651	120.452
