Adsorption isotherm of Nitrogen on Silicalite-CB B
DOI: 10.1007/s10853-009-3579-4
Adsorbate Nitrogen: InChIKey IJGRMHOSHXDMSA-UHFFFAOYSA-N
Temperature: 77 K
Tabular data in the source: 0
pressure (bar)	uptake (cm3(STP)/g)
0.00852211	187.49
0.0191747	189.75
0.0340884	190.869
0.0553937	190.844
0.0788295	190.817
0.0980042	190.794
0.127832	194.169
0.157659	210.043
0.191747	212.276
0.249272	213.345
0.294013	212.156
0.343015	214.372
0.389886	215.453
0.458063	215.373
0.502804	215.321
0.532632	214.15
0.602939	214.067
0.654072	214.008
0.700943	213.953
0.737162	213.91
0.76912	213.873
0.798947	212.702
0.815992	214.955
0.835166	214.932
0.858602	213.768
0.871385	214.89
0.903343	214.852
0.918257	213.699
0.933171	213.681
0.948084	213.664
0.97152	215.909
