Adsorption isotherm of Nitrogen on Silicalite-CB C
DOI: 10.1007/s10853-009-3579-4
Adsorbate Nitrogen: InChIKey IJGRMHOSHXDMSA-UHFFFAOYSA-N
Temperature: 77 K
Tabular data in the source: 0
pressure (bar)	uptake (cm3(STP)/g)
0.00639158	230.674
0.0191747	232.932
0.0319579	232.917
0.0468716	234.036
0.0639158	235.153
0.0745684	235.14
0.0958737	236.251
0.127832	241.896
0.16192	253.22
0.196008	254.316
0.245011	255.395
0.294013	255.338
0.343015	255.281
0.394147	256.357
0.438888	256.305
0.504935	256.228
0.553937	256.17
0.605069	254.974
0.658333	256.048
0.705204	255.993
0.741423	254.815
0.771251	255.916
0.777642	254.772
0.818122	254.725
0.839427	254.7
0.873516	254.66
0.899082	255.767
0.918257	255.744
0.941693	257.989
0.956606	261.381
0.967259	263.641
