Adsorption isotherm of Nitrogen on Silicalite-CB D
DOI: 10.1007/s10853-009-3579-4
Adsorbate Nitrogen: InChIKey IJGRMHOSHXDMSA-UHFFFAOYSA-N
Temperature: 77 K
Tabular data in the source: 0
pressure (bar)	uptake (cm3(STP)/g)
0.00426105	262.495
0.00852211	268.172
0.0213053	269.293
0.04048	271.544
0.0553937	271.526
0.0724379	273.779
0.0980042	276.022
0.125701	283.944
0.153398	288.457
0.176834	288.43
0.198139	288.405
0.24288	290.625
0.291882	290.568
0.340884	290.51
0.389886	290.453
0.438888	291.532
0.487891	291.475
0.536893	291.417
0.588025	291.358
0.630636	291.308
0.677507	292.389
0.722248	292.337
0.749945	292.305
0.779773	294.542
0.794686	292.252
0.818122	292.225
0.841558	293.334
0.852211	293.321
0.867124	293.304
0.89056	294.413
0.911865	297.797
0.943823	302.305
0.952345	306.841
0.962998	314.783
0.967259	320.46
