Adsorption isotherm of Nitrogen on JUC-564
DOI: 10.1021/jacs.0c06485
Article source: Table S1
Adsorbate Nitrogen: InChIKey IJGRMHOSHXDMSA-UHFFFAOYSA-N
Kind: experiment
Temperature: 77 K
Tabular data in the source: 0
pressure (bar)	uptake (cm3(STP)/g)
4e-06	50.2708
1.5e-05	100.771
4.9e-05	150.409
0.000115	199.418
0.000241	247.085
0.000461	292.527
0.000839	336.753
0.001553	384.622
0.002641	427.252
0.004205	464.36
0.006699	501.184
0.010494	536.88
0.021508	595.827
0.032902	634.601
0.038992	651.255
0.049952	676.943
0.082147	734.354
0.117945	783.672
0.155298	828.668
0.190401	871.888
0.224186	923.481
0.2755	1032.53
0.295763	1062.43
0.336814	1085.51
0.387746	1096.74
0.423792	1103.55
0.440267	1106.86
0.475946	1112.48
0.511074	1117.88
0.546635	1123.25
0.582103	1128.65
0.617758	1133.4
0.653122	1138.14
0.688615	1142.9
0.724073	1147.7
0.759513	1152.67
0.794998	1157.78
0.830357	1163.8
0.865826	1170.71
0.900961	1179.88
0.93593	1194.01
0.969649	1221.7
1.00207	1309.27
1.00577	1337.3
1.00651	1347.09
1.00724	1354.87
1.0077	1362.22
0.050449	721.375
0.084054	784.695
0.119935	835.444
0.15567	878.858
0.184966	914.602
0.221283	968.469
0.263758	1059.51
0.295633	1100.98
0.329685	1117.15
0.364974	1124.93
0.3818	1128.24
0.434717	1136.41
0.472568	1141.88
0.50691	1153.36
0.54229	1157.88
0.577776	1161.87
0.613327	1165.57
0.648751	1169.32
0.684279	1173.12
0.71961	1176.99
0.75522	1181.03
0.790759	1185.71
0.807387	1188.28
0.843246	1194.76
0.879637	1203.41
0.918082	1217.62
0.962181	1248.99
0.995327	1321.61
