Adsorption isotherm of Hydrogen, Carbon monoxide on Zeolite 5A
DOI: 10.1016/0009-2509(90)80179-i
Article source: Table 3
Adsorbate Hydrogen: InChIKey UFHFLCQGNIYNRP-UHFFFAOYSA-N
Adsorbate Carbon monoxide: InChIKey UGFAIRIUMAVXCW-UHFFFAOYSA-N
Kind: experiment
Temperature: 298 K
Tabular data in the source: 0
pressure (bar)	Hydrogen fraction	Hydrogen uptake (cm3(STP)/g)	Carbon monoxide fraction	Carbon monoxide uptake (cm3(STP)/g)	total uptake (cm3(STP)/g)
14.7893	0.39	2.537	0.61	43.942	
14.7893	0.53	4.297	0.47	40.064	
14.7893	0.6	4.494	0.4	38.548	
14.7893	0.69	5.476	0.31	33.516	
14.7893	0.73	5.479	0.27	32.204	
14.7893	0.87	6.528	0.13	24.995	
14.7893	0.9	6.765	0.1	23.327	
