Adsorption isotherm of Carbon monoxide on Zeolite 5A
DOI: 10.1016/0009-2509(90)80179-i
Article source: Table 1
Adsorbate Carbon monoxide: InChIKey UGFAIRIUMAVXCW-UHFFFAOYSA-N
Kind: experiment
Temperature: 373 K
Tabular data in the source: 0
pressure (bar)	uptake (cm3(STP)/g)
1.4479	6.4
3.2819	11.43
4.63328	15.78
6.86718	24.49
14.7961	38.02
28.1375	46.64
