Adsorption isotherm of Carbon monoxide on Zeolite 5A
DOI: 10.1016/0009-2509(90)80179-i
Article source: Table 1
Adsorbate Carbon monoxide: InChIKey UGFAIRIUMAVXCW-UHFFFAOYSA-N
Kind: experiment
Temperature: 298 K
Tabular data in the source: 0
pressure (bar)	uptake (cm3(STP)/g)
1.72369	26.42
2.65586	30.94
6.86718	43.43
14.8003	52.73
21.695	57.24
