Adsorption isotherm of Carbon monoxide, Methane on Zeolite 5A
DOI: 10.1016/0009-2509(90)80179-i
Article source: Table 3
Adsorbate Carbon monoxide: InChIKey UGFAIRIUMAVXCW-UHFFFAOYSA-N
Adsorbate Methane: InChIKey VNWKTOKETHGBQD-UHFFFAOYSA-N
Kind: experiment
Temperature: 373 K
Tabular data in the source: 0
pressure (bar)	Carbon monoxide fraction	Carbon monoxide uptake (cm3(STP)/g)	Methane fraction	Methane uptake (cm3(STP)/g)	total uptake (cm3(STP)/g)
21.6909	0.108	4.322	0.892	24.62	
21.6909	0.345	14.594	0.655	20.358	
21.6909	0.514	22.59	0.486	15.453	
21.6909	0.639	25.802	0.361	11.419	
21.6909	0.735	33.115	0.265	9.362	
