Adsorption isotherm of Hydrogen, Carbon monoxide on Zeolite 5A
DOI: 10.1016/0009-2509(90)80179-i
Article source: Table 3
Adsorbate Hydrogen: InChIKey UFHFLCQGNIYNRP-UHFFFAOYSA-N
Adsorbate Carbon monoxide: InChIKey UGFAIRIUMAVXCW-UHFFFAOYSA-N
Kind: experiment
Temperature: 373 K
Tabular data in the source: 0
pressure (bar)	Hydrogen fraction	Hydrogen uptake (cm3(STP)/g)	Carbon monoxide fraction	Carbon monoxide uptake (cm3(STP)/g)	total uptake (cm3(STP)/g)
21.684	0.2	1.389	0.8	34.715	
21.684	0.45	4.261	0.55	31.85	
21.684	0.52	5.044	0.48	30.283	
21.684	0.61	7.365	0.39	26.73	
21.684	0.79	8.384	0.21	18.955	
21.684	0.9	9.213	0.1	12.702	
