Adsorption isotherm of Carbon monoxide, Methane on Zeolite 5A
DOI: 10.1016/0009-2509(90)80179-i
Article source: Table 3
Adsorbate Carbon monoxide: InChIKey UGFAIRIUMAVXCW-UHFFFAOYSA-N
Adsorbate Methane: InChIKey VNWKTOKETHGBQD-UHFFFAOYSA-N
Kind: experiment
Temperature: 298 K
Tabular data in the source: 0
pressure (bar)	Carbon monoxide fraction	Carbon monoxide uptake (cm3(STP)/g)	Methane fraction	Methane uptake (cm3(STP)/g)	total uptake (cm3(STP)/g)
21.6978	0.108	10.029	0.892	47.305	
21.6978	0.345	27.461	0.655	29.956	
21.6978	0.514	35.597	0.486	21.618	
21.6978	0.639	42.211	0.361	15.802	
21.6978	0.735	46.027	0.265	11.556	
