Adsorption isotherm of Hydrogen on Zeolite 5A
DOI: 10.1016/0009-2509(90)80179-i
Article source: Table 1
Adsorbate Hydrogen: InChIKey UFHFLCQGNIYNRP-UHFFFAOYSA-N
Kind: experiment
Temperature: 298 K
Tabular data in the source: 0
pressure (bar)	uptake (cm3(STP)/g)
7.7635	4
14.7893	6.79
23.6973	8.53
29.8336	9.81
33.4396	11.24
37.0042	12.8
42.3683	13.91
44.1747	14.72
51.5521	16
