Adsorption isotherm of Carbon Dioxide, Carbon monoxide on Zeolite 5A
DOI: 10.1016/0009-2509(90)80179-i
Article source: Table 3
Adsorbate Carbon Dioxide: InChIKey CURLTUGMZLYLDI-UHFFFAOYSA-N
Adsorbate Carbon monoxide: InChIKey UGFAIRIUMAVXCW-UHFFFAOYSA-N
Kind: experiment
Temperature: 298 K
Tabular data in the source: 0
pressure (bar)	Carbon Dioxide fraction	Carbon Dioxide uptake (cm3(STP)/g)	Carbon monoxide fraction	Carbon monoxide uptake (cm3(STP)/g)	total uptake (cm3(STP)/g)
21.6978	0.856	88.641	0.144	0.77	
21.6978	0.734	86.412	0.266	1.049	
21.6978	0.622	84.908	0.378	1.562	
21.6978	0.495	82.278	0.505	1.641	
21.6978	0.1	50.56	0.9	21.049	
