Adsorption isotherm of Methane on Zeolite 5A
DOI: 10.1016/0009-2509(90)80179-i
Article source: Table 1
Adsorbate Methane: InChIKey VNWKTOKETHGBQD-UHFFFAOYSA-N
Kind: experiment
Temperature: 298 K
Tabular data in the source: 0
pressure (bar)	uptake (cm3(STP)/g)
1.66853	17.24
6.0467	34.76
14.2515	46.85
25.2831	51.02
34.591	52.22
43.0026	53.06
50.311	54.06
57.6884	54.34
