Adsorption isotherm of Methane on Zeolite 5A
DOI: 10.1016/0009-2509(90)80179-i
Article source: Table 1
Adsorbate Methane: InChIKey VNWKTOKETHGBQD-UHFFFAOYSA-N
Kind: experiment
Temperature: 373 K
Tabular data in the source: 0
pressure (bar)	uptake (cm3(STP)/g)
3.77143	10.62
9.63198	21.95
16.6646	30.12
25.352	35.4
34.3842	39.61
42.451	43.17
50.38	43.54
57.4816	45.51
