Adsorption isotherm of Hydrogen, Carbon monoxide on Zeolite 5A
DOI: 10.1016/0009-2509(90)80179-i
Article source: Table 3
Adsorbate Hydrogen: InChIKey UFHFLCQGNIYNRP-UHFFFAOYSA-N
Adsorbate Carbon monoxide: InChIKey UGFAIRIUMAVXCW-UHFFFAOYSA-N
Kind: experiment
Temperature: 298 K
Tabular data in the source: 0
pressure (bar)	Hydrogen fraction	Hydrogen uptake (cm3(STP)/g)	Carbon monoxide fraction	Carbon monoxide uptake (cm3(STP)/g)	total uptake (cm3(STP)/g)
21.6564	0.2	2.098	0.8	53.218	
21.6564	0.45	4.238	0.55	46.921	
21.6564	0.52	5.114	0.48	44.339	
21.6564	0.61	5.229	0.39	40.787	
21.6564	0.79	7.071	0.21	33.492	
21.6564	0.9	8.479	0.1	26.049	
