Adsorption isotherm of Carbon Dioxide on Zeolite 5A
DOI: 10.1016/0009-2509(90)80179-i
Article source: Table 1
Adsorbate Carbon Dioxide: InChIKey CURLTUGMZLYLDI-UHFFFAOYSA-N
Kind: experiment
Temperature: 298 K
Tabular data in the source: 0
pressure (bar)	uptake (cm3(STP)/g)
2.1029	82.08
3.68869	85.67
5.10901	88.33
6.37765	89.57
14.0791	94.13
21.5461	98.8
26.138	103.82
38.0108	110.63
