Adsorption isotherm of Carbon Dioxide, Methane on Zeolite 5A
DOI: 10.1016/0009-2509(90)80179-i
Article source: Table 3
Adsorbate Carbon Dioxide: InChIKey CURLTUGMZLYLDI-UHFFFAOYSA-N
Adsorbate Methane: InChIKey VNWKTOKETHGBQD-UHFFFAOYSA-N
Kind: experiment
Temperature: 298 K
Tabular data in the source: 0
pressure (bar)	Carbon Dioxide fraction	Carbon Dioxide uptake (cm3(STP)/g)	Methane fraction	Methane uptake (cm3(STP)/g)	total uptake (cm3(STP)/g)
14.7893	0.771	89.746	0.229	1.1	
14.7893	0.608	85.242	0.392	1.57	
14.7893	0.308	79.67	0.693	2.9	
14.7893	0.122	73.182	0.878	7.587	
