Adsorption isotherm of Nitrogen on ZSM-5
DOI: 10.1016/j.micromeso.2015.05.044
Article source: Figure 2c, Figure 2d
Adsorbate Nitrogen: InChIKey IJGRMHOSHXDMSA-UHFFFAOYSA-N
Kind: experiment
Temperature: 318 K
Tabular data in the source: 0
pressure (bar)	uptake (mmol/g)
0.246	0.0351
0.491	0.0642
0.747	0.0911
0.998	0.117
1.49	0.167
1.97	0.211
2.7	0.272
3.79	0.354
4.99	0.433
7	0.547
9.89	0.677
