Adsorption isotherm of Carbon Dioxide, Nitrogen on ZSM-5
DOI: 10.1016/j.micromeso.2015.05.044
Article source: Table S2.1
Adsorbate Carbon Dioxide: InChIKey CURLTUGMZLYLDI-UHFFFAOYSA-N
Adsorbate Nitrogen: InChIKey IJGRMHOSHXDMSA-UHFFFAOYSA-N
Kind: experiment
Temperature: 318 K
Tabular data in the source: 0
pressure (bar)	Carbon Dioxide fraction	Carbon Dioxide uptake (mmol/g)	Nitrogen fraction	Nitrogen uptake (mmol/g)	total uptake (mmol/g)
1.226	0.157	0.345	0.843	0.085	
1.254	0.159	0.35	0.841	0.092	
1.216	0.391	0.608	0.609	0.058	
1.205	0.672	0.859	0.328	0.023	
