Adsorption isotherm of Carbon Dioxide, Nitrogen on ZSM-5
DOI: 10.1016/j.micromeso.2015.05.044
Article source: Table S2.1
Adsorbate Carbon Dioxide: InChIKey CURLTUGMZLYLDI-UHFFFAOYSA-N
Adsorbate Nitrogen: InChIKey IJGRMHOSHXDMSA-UHFFFAOYSA-N
Kind: experiment
Temperature: 298 K
Tabular data in the source: 0
pressure (bar)	Carbon Dioxide fraction	Carbon Dioxide uptake (mmol/g)	Nitrogen fraction	Nitrogen uptake (mmol/g)	total uptake (mmol/g)
3	0.162	0.851	0.838	0.202	
3.2	0.409	1.395	0.591	0.126	
3.1	0.691	1.716	0.309	0.031	
