Adsorption isotherm of Carbon Dioxide, Nitrogen on ZSM-5
DOI: 10.1016/j.micromeso.2015.05.044
Article source: Table S2.1
Adsorbate Carbon Dioxide: InChIKey CURLTUGMZLYLDI-UHFFFAOYSA-N
Adsorbate Nitrogen: InChIKey IJGRMHOSHXDMSA-UHFFFAOYSA-N
Kind: experiment
Temperature: 298 K
Tabular data in the source: 0
pressure (bar)	Carbon Dioxide fraction	Carbon Dioxide uptake (mmol/g)	Nitrogen fraction	Nitrogen uptake (mmol/g)	total uptake (mmol/g)
9.9	0.202	1.504	0.798	0.227	
9.9	0.458	1.977	0.542	0.086	
9.9	0.727	2.206	0.273	0.039	
10	0.727	2.215	0.273	0.027	
