Adsorption isotherm of Carbon Dioxide, Nitrogen on ZSM-5
DOI: 10.1016/j.micromeso.2015.05.044
Article source: Table S2.1
Adsorbate Carbon Dioxide: InChIKey CURLTUGMZLYLDI-UHFFFAOYSA-N
Adsorbate Nitrogen: InChIKey IJGRMHOSHXDMSA-UHFFFAOYSA-N
Kind: experiment
Temperature: 298 K
Tabular data in the source: 0
pressure (bar)	Carbon Dioxide fraction	Carbon Dioxide uptake (mmol/g)	Nitrogen fraction	Nitrogen uptake (mmol/g)	total uptake (mmol/g)
1.2	0.134	0.455	0.866	0.126	
1.22	0.36	0.848	0.64	0.091	
1.206	0.644	1.189	0.356	0.025	
