Adsorption isotherm of Carbon Dioxide, Nitrogen on Zeolite 13X
DOI: 10.1016/j.micromeso.2015.05.044
Article source: Table S2.2
Adsorbate Carbon Dioxide: InChIKey CURLTUGMZLYLDI-UHFFFAOYSA-N
Adsorbate Nitrogen: InChIKey IJGRMHOSHXDMSA-UHFFFAOYSA-N
Kind: experiment
Temperature: 298 K
Tabular data in the source: 0
pressure (bar)	Carbon Dioxide fraction	Carbon Dioxide uptake (mmol/g)	Nitrogen fraction	Nitrogen uptake (mmol/g)	total uptake (mmol/g)
3.1	0.013	2.913	0.987	0.284	
3.3	0.236	5.063	0.764	0.063	
3.2	0.233	5.001	0.767	0.091	
3.2	0.606	5.516	0.394	0.016	
