Adsorption isotherm of Nitrogen on ZSM-5
DOI: 10.1016/j.micromeso.2015.05.044
Article source: Figure 2c, Figure 2d
Adsorbate Nitrogen: InChIKey IJGRMHOSHXDMSA-UHFFFAOYSA-N
Kind: experiment
Temperature: 298 K
Tabular data in the source: 0
pressure (bar)	uptake (mmol/g)
0.0993	0.0243
0.249	0.0522
0.252	0.05
0.496	0.096
0.745	0.134
0.998	0.171
1	0.169
1.49	0.239
1.99	0.299
2.79	0.385
3.79	0.484
4.99	0.582
6.99	0.716
9.98	0.871
