Adsorption isotherm of Carbon Dioxide, Nitrogen on ZSM-5
DOI: 10.1016/j.micromeso.2015.05.044
Article source: Table S2.1
Adsorbate Carbon Dioxide: InChIKey CURLTUGMZLYLDI-UHFFFAOYSA-N
Adsorbate Nitrogen: InChIKey IJGRMHOSHXDMSA-UHFFFAOYSA-N
Kind: experiment
Temperature: 318 K
Tabular data in the source: 0
pressure (bar)	Carbon Dioxide fraction	Carbon Dioxide uptake (mmol/g)	Nitrogen fraction	Nitrogen uptake (mmol/g)	total uptake (mmol/g)
10	0.209	1.207	0.791	0.212	
9.9	0.463	1.654	0.537	0.125	
10.1	0.729	1.946	0.271	0.026	
10.1	0.73	1.925	0.27	0.05	
