Adsorption isotherm of Carbon Dioxide on ZSM-5
DOI: 10.1016/j.micromeso.2015.05.044
Article source: Figure 2a, Figure 2b
Adsorbate Carbon Dioxide: InChIKey CURLTUGMZLYLDI-UHFFFAOYSA-N
Kind: experiment
Temperature: 298 K
Tabular data in the source: 0
pressure (bar)	uptake (mmol/g)
0.0411	0.216
0.042	0.232
0.0916	0.344
0.0925	0.353
0.188	0.533
0.199	0.565
0.204	0.567
0.49	0.948
0.786	1.21
0.991	1.34
1	1.36
1.01	1.35
1.48	1.57
2	1.72
2.68	1.86
2.69	1.87
3.6	1.99
4.31	2.07
5.01	2.12
5.11	2.13
6.02	2.2
8.03	2.3
10	2.38
