Adsorption isotherm of Nitrogen on Zeolite 13X
DOI: 10.1016/j.micromeso.2015.05.044
Article source: Figure 3d, Figure 3c
Adsorbate Nitrogen: InChIKey IJGRMHOSHXDMSA-UHFFFAOYSA-N
Kind: experiment
Temperature: 298 K
Tabular data in the source: 0
pressure (bar)	uptake (mmol/g)
0.048	0.0201
0.0961	0.0401
0.195	0.0812
0.392	0.16
0.596	0.238
1	0.382
1.5	0.548
2.44	0.815
3.99	1.18
6.08	1.54
9.97	2.04
