Adsorption isotherm of Carbon Dioxide on Zeolite 13X
DOI: 10.1016/j.micromeso.2015.05.044
Article source: Figure 3a, Figure 3b
Adsorbate Carbon Dioxide: InChIKey CURLTUGMZLYLDI-UHFFFAOYSA-N
Kind: experiment
Temperature: 298 K
Tabular data in the source: 0
pressure (bar)	uptake (mmol/g)
0.0253	2.73
0.033	2.91
0.056	3.33
0.0867	3.69
0.099	3.84
0.198	4.32
0.286	4.59
0.31	4.68
0.484	4.93
0.737	5.17
1.01	5.35
1.01	5.39
1.51	5.58
2.01	5.73
2.8	5.89
2.83	5.93
3.81	6.06
5.01	6.19
7.01	6.34
10	6.49
