Adsorption isotherm of Carbon Dioxide on ZSM-5
DOI: 10.1016/j.micromeso.2015.05.044
Article source: Figure 2a, Figure 2b
Adsorbate Carbon Dioxide: InChIKey CURLTUGMZLYLDI-UHFFFAOYSA-N
Kind: experiment
Temperature: 318 K
Tabular data in the source: 0
pressure (bar)	uptake (mmol/g)
0.0505	0.151
0.101	0.23
0.199	0.354
0.3	0.458
0.496	0.633
0.745	0.811
0.994	0.957
0.999	0.968
1.28	1.1
1.59	1.22
1.98	1.34
2.02	1.35
2.79	1.52
3.8	1.68
5	1.81
6.51	1.93
8.02	2.02
10	2.11
