Adsorption isotherm of Nitrogen on Clinoptilolite
DOI: 10.1002/cjce.5450730515
Article source: Figure 8
Adsorbate Nitrogen: InChIKey IJGRMHOSHXDMSA-UHFFFAOYSA-N
Kind: experiment
Temperature: 303 K
Tabular data in the source: 0
pressure (bar)	uptake (ml(STP)/g)
0.0132	1.06
0.0175	1.52
0.0263	1.87
0.0351	2.17
0.0526	2.42
0.0702	3.03
0.101	3.33
0.127	3.79
0.149	4.04
0.202	4.65
0.254	5.15
0.303	5.61
0.355	6.06
0.408	6.46
0.452	6.82
0.509	7.12
0.557	7.42
0.61	7.73
0.715	8.23
0.811	8.64
0.912	9.09
