Adsorption isotherm of Carbon monoxide on Clinoptilolite
DOI: 10.1002/cjce.5450730515
Article source: Figure 9
Adsorbate Carbon monoxide: InChIKey UGFAIRIUMAVXCW-UHFFFAOYSA-N
Kind: experiment
Temperature: 303 K
Tabular data in the source: 0
pressure (bar)	uptake (ml(STP)/g)
0	0
0.0103	7.78
0.0194	9.05
0.0329	9.82
0.0419	10.5
0.0553	11.1
0.0777	11.9
0.1	12.9
0.127	13.4
0.154	14
0.203	15
0.252	15.8
0.301	16.7
0.354	17.2
0.403	17.6
0.457	17.9
0.505	18.3
0.554	18.7
0.608	18.9
0.71	19.6
0.808	19.9
0.906	20.2
