Adsorption isotherm of Nitrogen, Carbon monoxide on Clinoptilolite
DOI: 10.1002/cjce.5450730515
Article source: Figure 6
Adsorbate Nitrogen: InChIKey IJGRMHOSHXDMSA-UHFFFAOYSA-N
Adsorbate Carbon monoxide: InChIKey UGFAIRIUMAVXCW-UHFFFAOYSA-N
Kind: experiment
Temperature: 303 K
Tabular data in the source: 0
pressure (bar)	Nitrogen fraction	Nitrogen uptake (ml(STP)/g)	Carbon monoxide fraction	Carbon monoxide uptake (ml(STP)/g)	total uptake (ml(STP)/g)
1.013	0	0	1	20.4	
1.013	0.013129	0.253	0.986871	20.2	
1.013	0.109576	0.624	0.890424	18.9	
1.013	0.412636	2.75	0.587364	14.6	
1.013	0.675222	5.53	0.324778	10.8	
1.013	0.811451	7.68	0.188549	8.44	
1.013	0.88154	8.94	0.11846	6.9	
1.013	0.917078	9.58	0.082922	5.49	
1.013	0.938796	9.83	0.061204	4.47	
1.013	0.951629	9.83	0.048371	3.58	
1.013	0.965449	9.82	0.034551	2.94	
1.013	0.969398	9.44	0.030602	2.3	
1.013	0.978282	9.44	0.021718	1.79	
1.013	0.983218	9.31	0.016782	1.28	
1.013	0.983218	9.2	0.016782	0.766	
1.013	0.987167	9.06	0.012833	0.128	
