Adsorption isotherm of Nitrogen on ZIF-8
DOI: 10.1021/Am5028346
Adsorbate Nitrogen: InChIKey IJGRMHOSHXDMSA-UHFFFAOYSA-N
Temperature: 333 K
Tabular data in the source: 0
pressure (bar)	uptake (cm3(STP)/g)
-1.12493e-16	2.98507
0.00904687	226.866
0.0180937	277.612
0.0361875	292.537
0.0542812	325.373
0.0995156	343.284
0.153797	349.254
0.199032	355.224
0.253312	358.209
0.298547	361.194
0.370921	364.179
0.416156	370.149
0.46139	373.134
0.506625	373.134
0.551859	373.134
0.597094	376.119
0.624234	376.119
0.660422	379.104
0.705657	382.09
0.75089	385.075
0.805172	391.045
0.859453	400
0.913735	414.925
0.968015	471.642
0.986109	537.313
