Adsorption isotherm of Nitrogen on ZIF-8
DOI: 10.1021/Am5028346
Adsorbate Nitrogen: InChIKey IJGRMHOSHXDMSA-UHFFFAOYSA-N
Temperature: 298 K
Tabular data in the source: 0
pressure (bar)	uptake (cm3(STP)/g)
-3.33833e-05	2.95203
0.0064096	233.21
0.0066099	215.498
0.0152895	247.97
0.0422966	259.779
0.0512434	268.635
0.0962441	289.299
0.150358	304.059
0.204573	309.963
0.258787	315.867
0.303988	318.819
0.358237	321.771
0.41245	327.675
0.457652	330.627
0.502853	333.579
0.557068	339.483
0.602235	345.387
0.66553	348.339
0.701717	348.339
0.755931	354.244
0.801099	360.148
0.85528	369.004
0.909462	377.86
0.963475	401.476
