Adsorption isotherm of Nitrogen on ZIF-8
DOI: 10.1021/Am5028346
Adsorbate Nitrogen: InChIKey IJGRMHOSHXDMSA-UHFFFAOYSA-N
Temperature: 273 K
Tabular data in the source: 0
pressure (bar)	uptake (cm3(STP)/g)
-4.49973e-16	-1.13687e-13
0.0151116	263.704
0.0153126	245.926
0.0420847	278.519
0.0510311	287.407
0.105045	311.111
0.150211	317.037
0.195312	328.889
0.249559	331.852
0.303774	337.778
0.339928	340.741
0.394176	343.704
0.430296	349.63
0.466416	355.556
0.511651	355.556
0.547839	355.556
0.611066	364.444
0.665281	370.37
0.710481	373.333
0.764696	379.259
0.800783	388.148
0.854963	397.037
0.909043	414.815
0.962923	450.37
