Adsorption isotherm of Carbon Dioxide, Water on Zeolite 13X
DOI: 10.1021/je100053g
Article source: Table 1
Adsorbate Carbon Dioxide: InChIKey CURLTUGMZLYLDI-UHFFFAOYSA-N
Adsorbate Water: InChIKey XLYOFNOQVPJJNP-UHFFFAOYSA-N
Kind: experiment
Temperature: 323 K
Tabular data in the source: 0
pressure (bar)	Carbon Dioxide fraction	Carbon Dioxide uptake (mmol/g)	Water fraction	Water uptake (mmol/g)	total uptake (mmol/g)
0.02282	0.981157	0.0603	0.018843	9.4	
0.04565	0.990581	0.0905	0.009419	9.4	
0.07693	0.994411	0.1227	0.005589	9.4	
0.11133	0.996138	0.1485	0.003862	9.4	
0.18033	0.997615	0.1999	0.002385	9.4	
