Adsorption isotherm of Carbon Dioxide, Water on Zeolites 5A
DOI: 10.1021/je100053g
Article source: Table 2
Adsorbate Carbon Dioxide: InChIKey CURLTUGMZLYLDI-UHFFFAOYSA-N
Adsorbate Water: InChIKey XLYOFNOQVPJJNP-UHFFFAOYSA-N
Kind: experiment
Temperature: 298 K
Tabular data in the source: 0
pressure (bar)	Carbon Dioxide fraction	Carbon Dioxide uptake (mmol/g)	Water fraction	Water uptake (mmol/g)	total uptake (mmol/g)
0.006057	0.998597	0.2145	0.001403	3.4	
0.011559	0.999265	0.308	0.000735	3.4	
0.017149	0.999504	0.401	0.000496	3.4	
0.031809	0.999733	0.567	0.000267	3.4	
0.045608	0.999814	0.738	0.000186	3.4	
0.055908	0.999848	0.805	0.000152	3.4	
0.300708	0.999972	1.783	2.8e-05	3.4	
0.388509	0.999978	1.908	2.2e-05	3.4	
