Adsorption isotherm of Carbon Dioxide, Water on Zeolite 13X
DOI: 10.1021/je100053g
Article source: Table 1
Adsorbate Carbon Dioxide: InChIKey CURLTUGMZLYLDI-UHFFFAOYSA-N
Adsorbate Water: InChIKey XLYOFNOQVPJJNP-UHFFFAOYSA-N
Kind: experiment
Temperature: 298 K
Tabular data in the source: 0
pressure (bar)	Carbon Dioxide fraction	Carbon Dioxide uptake (mmol/g)	Water fraction	Water uptake (mmol/g)	total uptake (mmol/g)
0.003681	0.999753	0.533	0.000247	1	
0.014601	0.999938	0.885	6.2e-05	1	
0.043201	0.999979	1.41	2.1e-05	1	
0.099901	0.999991	1.9	9e-06	1	
0.255001	0.999996	2.37	4e-06	1	
