Adsorption isotherm of Carbon Dioxide, Water on Zeolites 5A
DOI: 10.1021/je100053g
Article source: Table 2
Adsorbate Carbon Dioxide: InChIKey CURLTUGMZLYLDI-UHFFFAOYSA-N
Adsorbate Water: InChIKey XLYOFNOQVPJJNP-UHFFFAOYSA-N
Kind: experiment
Temperature: 273 K
Tabular data in the source: 0
pressure (bar)	Carbon Dioxide fraction	Carbon Dioxide uptake (mmol/g)	Water fraction	Water uptake (mmol/g)	total uptake (mmol/g)
0.009768	0.99913	0.691	0.00087	3.4	
0.018638	0.999544	0.994	0.000456	3.4	
0.035748	0.999762	1.288	0.000238	3.4	
0.046909	0.999819	1.472	0.000181	3.4	
0.081609	0.999896	1.77	0.000104	3.4	
0.132109	0.999936	2.1	6.4e-05	3.4	
0.212208	0.99996	2.26	4e-05	3.4	
0.299009	0.999972	2.38	2.8e-05	3.4	
