Adsorption isotherm of Carbon Dioxide, Water on Zeolites 5A
DOI: 10.1021/je100053g
Article source: Table 2
Adsorbate Carbon Dioxide: InChIKey CURLTUGMZLYLDI-UHFFFAOYSA-N
Adsorbate Water: InChIKey XLYOFNOQVPJJNP-UHFFFAOYSA-N
Kind: experiment
Temperature: 298 K
Tabular data in the source: 0
pressure (bar)	Carbon Dioxide fraction	Carbon Dioxide uptake (mmol/g)	Water fraction	Water uptake (mmol/g)	total uptake (mmol/g)
0.004801	0.99981	0.604	0.00019	1	
0.009861	0.999908	0.829	9.2e-05	1	
0.021601	0.999958	1.14	4.2e-05	1	
0.044001	0.999979	1.53	2.1e-05	1	
0.095401	0.99999	2	1e-05	1	
0.198001	0.999995	2.46	5e-06	1	
0.371001	0.999998	2.78	2e-06	1	
