Adsorption isotherm of Carbon Dioxide, Water on Zeolite 13X
DOI: 10.1021/je100053g
Article source: Table 1
Adsorbate Carbon Dioxide: InChIKey CURLTUGMZLYLDI-UHFFFAOYSA-N
Adsorbate Water: InChIKey XLYOFNOQVPJJNP-UHFFFAOYSA-N
Kind: experiment
Temperature: 298 K
Tabular data in the source: 0
pressure (bar)	Carbon Dioxide fraction	Carbon Dioxide uptake (mmol/g)	Water fraction	Water uptake (mmol/g)	total uptake (mmol/g)
0.02887	0.985106	0.1245	0.014894	9.4	
0.05005	0.991409	0.1769	0.008591	9.4	
0.07613	0.994352	0.2193	0.005648	9.4	
0.13123	0.996723	0.298	0.003277	9.4	
