Adsorption isotherm of Carbon Dioxide, Water on Zeolites 5A
DOI: 10.1021/je100053g
Article source: Table 2
Adsorbate Carbon Dioxide: InChIKey CURLTUGMZLYLDI-UHFFFAOYSA-N
Adsorbate Water: InChIKey XLYOFNOQVPJJNP-UHFFFAOYSA-N
Kind: experiment
Temperature: 323 K
Tabular data in the source: 0
pressure (bar)	Carbon Dioxide fraction	Carbon Dioxide uptake (mmol/g)	Water fraction	Water uptake (mmol/g)	total uptake (mmol/g)
0.007589	0.99888	0.1075	0.00112	3.4	
0.012009	0.999292	0.158	0.000708	3.4	
0.020908	0.999593	0.207	0.000407	3.4	
0.040808	0.999792	0.343	0.000208	3.4	
0.106608	0.99992	0.594	8e-05	3.4	
0.166009	0.999949	0.92	5.1e-05	3.4	
0.288009	0.99997	1.27	3e-05	3.4	
