Adsorption isotherm of Carbon Dioxide, Water on Zeolites 5A
DOI: 10.1021/je100053g
Article source: Table 2
Adsorbate Carbon Dioxide: InChIKey CURLTUGMZLYLDI-UHFFFAOYSA-N
Adsorbate Water: InChIKey XLYOFNOQVPJJNP-UHFFFAOYSA-N
Kind: experiment
Temperature: 323 K
Tabular data in the source: 0
pressure (bar)	Carbon Dioxide fraction	Carbon Dioxide uptake (mmol/g)	Water fraction	Water uptake (mmol/g)	total uptake (mmol/g)
0.016441	0.999945	0.539	5.5e-05	1	
0.047401	0.999981	0.875	1.9e-05	1	
0.077601	0.999988	1.09	1.2e-05	1	
0.125501	0.999993	1.34	7e-06	1	
0.229001	0.999996	1.67	4e-06	1	
