Adsorption isotherm of Carbon Dioxide, Water on Zeolite 13X
DOI: 10.1021/je100053g
Article source: Table 1
Adsorbate Carbon Dioxide: InChIKey CURLTUGMZLYLDI-UHFFFAOYSA-N
Adsorbate Water: InChIKey XLYOFNOQVPJJNP-UHFFFAOYSA-N
Kind: experiment
Temperature: 323 K
Tabular data in the source: 0
pressure (bar)	Carbon Dioxide fraction	Carbon Dioxide uptake (mmol/g)	Water fraction	Water uptake (mmol/g)	total uptake (mmol/g)
0.006511	0.99986	0.346	0.00014	1	
0.016401	0.999945	0.508	5.5e-05	1	
0.031101	0.999971	0.697	2.9e-05	1	
0.060001	0.999985	0.94	1.5e-05	1	
0.108001	0.999992	1.22	8e-06	1	
0.179001	0.999995	1.5	5e-06	1	
0.271001	0.999997	1.8	3e-06	1	
