Adsorption isotherm of Carbon Dioxide, Water on Zeolite 13X
DOI: 10.1021/je100053g
Article source: Table 1
Adsorbate Carbon Dioxide: InChIKey CURLTUGMZLYLDI-UHFFFAOYSA-N
Adsorbate Water: InChIKey XLYOFNOQVPJJNP-UHFFFAOYSA-N
Kind: experiment
Temperature: 273 K
Tabular data in the source: 0
pressure (bar)	Carbon Dioxide fraction	Carbon Dioxide uptake (mmol/g)	Water fraction	Water uptake (mmol/g)	total uptake (mmol/g)
0.005549	0.998468	0.43	0.001532	3.4	
0.012909	0.999342	0.659	0.000658	3.4	
0.033308	0.999745	1.08	0.000255	3.4	
0.144009	0.999941	1.78	5.9e-05	3.4	
