Adsorption isotherm of Carbon Dioxide, Water on Zeolite 13X
DOI: 10.1021/je100053g
Article source: Table 1
Adsorbate Carbon Dioxide: InChIKey CURLTUGMZLYLDI-UHFFFAOYSA-N
Adsorbate Water: InChIKey XLYOFNOQVPJJNP-UHFFFAOYSA-N
Kind: experiment
Temperature: 273 K
Tabular data in the source: 0
pressure (bar)	Carbon Dioxide fraction	Carbon Dioxide uptake (mmol/g)	Water fraction	Water uptake (mmol/g)	total uptake (mmol/g)
0.003351	0.999728	0.941	0.000272	1	
0.012301	0.999926	1.57	7.4e-05	1	
0.029801	0.999969	2.15	3.1e-05	1	
0.068401	0.999987	2.74	1.3e-05	1	
0.195001	0.999995	3.34	5e-06	1	
