Adsorption isotherm of Carbon Dioxide, Water on Zeolite 13X
DOI: 10.1021/je100053g
Article source: Table 1
Adsorbate Carbon Dioxide: InChIKey CURLTUGMZLYLDI-UHFFFAOYSA-N
Adsorbate Water: InChIKey XLYOFNOQVPJJNP-UHFFFAOYSA-N
Kind: experiment
Temperature: 273 K
Tabular data in the source: 0
pressure (bar)	Carbon Dioxide fraction	Carbon Dioxide uptake (mmol/g)	Water fraction	Water uptake (mmol/g)	total uptake (mmol/g)
0.01153	0.962706	0.1605	0.037294	9.4	
0.02144	0.979944	0.2362	0.020056	9.4	
0.03562	0.987928	0.3027	0.012072	9.4	
0.06693	0.993575	0.43	0.006425	9.4	
