Adsorption isotherm of Carbon Dioxide, Water on Zeolites 5A
DOI: 10.1021/je100053g
Article source: Table 2
Adsorbate Carbon Dioxide: InChIKey CURLTUGMZLYLDI-UHFFFAOYSA-N
Adsorbate Water: InChIKey XLYOFNOQVPJJNP-UHFFFAOYSA-N
Kind: experiment
Temperature: 273 K
Tabular data in the source: 0
pressure (bar)	Carbon Dioxide fraction	Carbon Dioxide uptake (mmol/g)	Water fraction	Water uptake (mmol/g)	total uptake (mmol/g)
0.001491	0.99939	0.874	0.00061	1	
0.003891	0.999766	1.23	0.000234	1	
0.009841	0.999908	1.7	9.2e-05	1	
0.023101	0.999961	2.25	3.9e-05	1	
0.052301	0.999983	2.84	1.7e-05	1	
0.134001	0.999993	3.39	7e-06	1	
