Adsorption isotherm of Carbon Dioxide, Water on Zeolite 13X
DOI: 10.1021/je100053g
Article source: Table 1
Adsorbate Carbon Dioxide: InChIKey CURLTUGMZLYLDI-UHFFFAOYSA-N
Adsorbate Water: InChIKey XLYOFNOQVPJJNP-UHFFFAOYSA-N
Kind: experiment
Temperature: 323 K
Tabular data in the source: 0
pressure (bar)	Carbon Dioxide fraction	Carbon Dioxide uptake (mmol/g)	Water fraction	Water uptake (mmol/g)	total uptake (mmol/g)
0.009149	0.999071	0.1085	0.000929	3.4	
0.019289	0.999559	0.156	0.000441	3.4	
0.034208	0.999752	0.202	0.000248	3.4	
0.066709	0.999873	0.278	0.000127	3.4	
0.119208	0.999929	0.368	7.1e-05	3.4	
