Adsorption isotherm of Carbon Dioxide on NOTT-101
DOI: 10.1002/asia.201500509
Article source: Figure 3a
Adsorbate Carbon Dioxide: InChIKey CURLTUGMZLYLDI-UHFFFAOYSA-N
Kind: experiment
Temperature: 273 K
Tabular data in the source: 0
pressure (bar)	uptake (wt%)
0	0
0.063291	2.65306
0.108861	4.38776
0.227848	8.67347
0.301266	11.1224
0.402532	14.1837
0.526582	17.6531
0.625316	20
0.724051	22.551
0.822785	24.898
0.918987	27.2449
1.02278	29.4898
