Adsorption isotherm of Carbon Dioxide on NOTT-101
DOI: 10.1002/asia.201500509
Article source: Figure 3a
Adsorbate Carbon Dioxide: InChIKey CURLTUGMZLYLDI-UHFFFAOYSA-N
Kind: experiment
Temperature: 293 K
Tabular data in the source: 0
pressure (bar)	uptake (wt%)
0	0
0.050633	1.01695
0.124051	2.44068
0.235443	4.57627
0.326582	6.40678
0.427848	8.23729
0.524051	9.9661
0.627848	11.4915
0.724051	13.1186
0.805063	14.2373
0.926582	16.0678
1	17.1864
