Adsorption isotherm of Methane on NOTT-101
DOI: 10.1002/asia.201500509
Article source: Figure 3b
Adsorbate Methane: InChIKey VNWKTOKETHGBQD-UHFFFAOYSA-N
Kind: experiment
Temperature: 293 K
Tabular data in the source: 0
pressure (bar)	uptake (wt%)
0	0
0.068354	0.11727
0.222785	0.376913
0.336709	0.569556
0.4	0.661616
0.536709	0.845651
0.622785	0.988024
0.696203	1.09683
0.797468	1.23066
0.893671	1.38978
1.02532	1.55703
