Adsorption isotherm of Methane on NOTT-101
DOI: 10.1002/asia.201500509
Article source: Figure 3b
Adsorbate Methane: InChIKey VNWKTOKETHGBQD-UHFFFAOYSA-N
Kind: experiment
Temperature: 273 K
Tabular data in the source: 0
pressure (bar)	uptake (wt%)
0	0
0.071066	0.152027
0.104061	0.244932
0.233503	0.532095
0.294416	0.692568
0.401015	0.9375
0.545685	1.24155
0.629442	1.43581
0.703046	1.59628
0.837563	1.875
0.931472	2.06081
1	2.21284
