Adsorption isotherm of Methane on NPC-6
DOI: 10.1002/asia.201500509
Article source: Figure 3b
Adsorbate Methane: InChIKey VNWKTOKETHGBQD-UHFFFAOYSA-N
Kind: experiment
Temperature: 293 K
Tabular data in the source: 0
pressure (bar)	uptake (wt%)
0	0
0.058228	0.092905
0.111392	0.185811
0.162025	0.27027
0.207595	0.346284
0.324051	0.540541
0.417722	0.684122
0.516456	0.844595
0.61519	0.996622
0.718987	1.14865
0.81519	1.30068
0.913924	1.44426
1.01519	1.58784
