Adsorption isotherm of Carbon Dioxide on NPC-6
DOI: 10.1002/asia.201500509
Article source: Figure 3a
Adsorbate Carbon Dioxide: InChIKey CURLTUGMZLYLDI-UHFFFAOYSA-N
Kind: experiment
Temperature: 273 K
Tabular data in the source: 0
pressure (bar)	uptake (wt%)
0	0
0.022785	1.73469
0.055696	3.97959
0.113924	7.2449
0.212658	12.6531
0.313924	16.6327
0.41519	20.3061
0.511392	22.7551
0.617722	25.4082
0.716456	27.3469
0.810127	29.0816
0.918987	30.8163
1.01013	32.1429
