Adsorption isotherm of Nitrogen on NPC-6
DOI: 10.1002/asia.201500509
Article source: Figure 3b
Adsorbate Nitrogen: InChIKey IJGRMHOSHXDMSA-UHFFFAOYSA-N
Kind: experiment
Temperature: 293 K
Tabular data in the source: 0
pressure (bar)	uptake (wt%)
0	0
0.065657	0.016949
0.118687	0.033898
0.232323	0.09322
0.401515	0.152542
0.598485	0.211864
0.843434	0.330508
1.04545	0.389831
