Adsorption isotherm of Carbon Dioxide on NPC-6
DOI: 10.1002/asia.201500509
Article source: Figure 3a
Adsorbate Carbon Dioxide: InChIKey CURLTUGMZLYLDI-UHFFFAOYSA-N
Kind: experiment
Temperature: 293 K
Tabular data in the source: 0
pressure (bar)	uptake (wt%)
0	0
0.03038	1.02041
0.058228	1.93878
0.108861	3.57143
0.217722	6.63265
0.318987	9.08163
0.417722	11.3265
0.513924	13.3673
0.61519	15.2041
0.713924	16.9388
0.812658	18.4694
0.913924	19.7959
1.01772	21.2245
