Adsorption isotherm of Methane on NPC-6
DOI: 10.1002/asia.201500509
Article source: Figure 3b
Adsorbate Methane: InChIKey VNWKTOKETHGBQD-UHFFFAOYSA-N
Kind: experiment
Temperature: 273 K
Tabular data in the source: 0
pressure (bar)	uptake (wt%)
0	0
0.020305	0.067169
0.058376	0.159441
0.111675	0.318925
0.159898	0.4532
0.208122	0.587474
0.322335	0.872708
0.416244	1.10761
0.522843	1.35924
0.619289	1.59411
0.718274	1.80372
0.812183	2.0302
0.92132	2.23972
1.01777	2.44935
