Adsorption isotherm of Nitrogen on NOTT-101
DOI: 10.1002/asia.201500509
Article source: Figure 3b
Adsorbate Nitrogen: InChIKey IJGRMHOSHXDMSA-UHFFFAOYSA-N
Kind: experiment
Temperature: 293 K
Tabular data in the source: 0
pressure (bar)	uptake (wt%)
0	0
0.085859	0.040506
0.10101	0.040252
0.169192	0.064275
0.214646	0.080291
0.323232	0.103637
0.401515	0.127491
0.502525	0.159354
0.598485	0.191301
0.729798	0.231044
0.820707	0.254686
0.921717	0.278159
1.02525	0.30159
