Adsorption isotherm of Nitrogen on IRMOF-1
DOI: 10.1126/science.1192160
Adsorbate Nitrogen: InChIKey IJGRMHOSHXDMSA-UHFFFAOYSA-N
Temperature: 77 K
Tabular data in the source: 0
pressure (bar)	uptake (cm3(STP)/g)
0.00658518	6.97713
0.015166	830.74
0.0266072	925.129
0.15103	993.776
0.248279	1015.23
0.407025	1032.39
0.548609	1049.55
0.6573	1053.84
0.75455	1062.42
0.801745	1058.13
0.85466	1066.71
0.901855	1066.71
0.95334	1071
0.986233	1071
