Adsorption isotherm of Methane on IRMOF-1
DOI: 10.1126/science.1192160
Adsorbate Methane: InChIKey VNWKTOKETHGBQD-UHFFFAOYSA-N
Temperature: 298 K
Tabular data in the source: 0
pressure (bar)	uptake (mg/g)
0.674837	0.427109
8.33681	32.5398
18.703	74.7933
26.1396	98.4553
33.1255	116.624
36.3931	123.385
40.6748	129.723
45.9706	138.596
49.4636	144.089
52.7312	147.892
56.6748	152.54
66.0269	158.878
71.21	162.681
84.7312	163.526
