Adsorption isotherm of Methane on MOF-210
DOI: 10.1126/science.1192160
Adsorbate Methane: InChIKey VNWKTOKETHGBQD-UHFFFAOYSA-N
Temperature: 298 K
Tabular data in the source: 0
pressure (bar)	uptake (mg/g)
5.29456	26.2018
10.9284	50.7088
15.9988	74.7933
25.6889	111.554
30.4213	132.681
40.4495	167.751
45.2946	184.652
49.4636	196.906
59.9424	226.906
65.0129	237.469
74.703	256.906
79.0974	263.244
