Adsorption isotherm of Nitrogen on MOF-210
DOI: 10.1126/science.1192160
Adsorbate Nitrogen: InChIKey IJGRMHOSHXDMSA-UHFFFAOYSA-N
Temperature: 77 K
Tabular data in the source: 0
pressure (bar)	uptake (cm3(STP)/g)
0.065221	1169.68
0.0809526	1354.17
0.103835	1581.56
0.135298	1697.41
0.185353	1838.99
0.242559	1963.41
0.25829	2100.71
0.275452	2255.16
0.298334	2263.74
0.394154	2289.49
0.494264	2332.39
0.693054	2353.84
0.886123	2379.58
