Adsorption isotherm of Hydrogen on MOF-210
DOI: 10.1126/science.1192160
Adsorbate Hydrogen: InChIKey UFHFLCQGNIYNRP-UHFFFAOYSA-N
Temperature: 77 K
Tabular data in the source: 0
pressure (bar)	uptake (cm3(STP)/g)
0.449485	0.846595
1.46357	12.9593
4.84385	30.2832
9.68892	47.3255
15.8861	61.9734
22.534	70.5649
30.534	78.1705
39.8861	83.1001
50.5903	85.6353
55.0974	85.917
64.6748	85.6353
74.9284	83.8043
79.5481	82.9593
