Adsorption isotherm of Nitrogen on MOF-210
DOI: 10.1126/science.1192160
Adsorbate Nitrogen: InChIKey IJGRMHOSHXDMSA-UHFFFAOYSA-N
Temperature: 77 K
Tabular data in the source: 0
pressure (bar)	uptake (cm3(STP)/g)
0.0337579	337.34
0.0637909	753.512
0.0766622	916.548
0.100975	1234.04
0.123857	1439.98
0.136728	1495.76
0.182493	1628.76
0.216816	1723.15
0.233978	1766.05
0.319786	2238
0.9562	2345.26
