Adsorption isotherm of Hydrogen on IRMOF-1
DOI: 10.1126/science.1192160
Adsorbate Hydrogen: InChIKey UFHFLCQGNIYNRP-UHFFFAOYSA-N
Temperature: 77 K
Tabular data in the source: 0
pressure (bar)	uptake (cm3(STP)/g)
0.562161	0.98744
1.23822	8.02969
6.9847	32.6776
7.99878	36.0579
10.8157	40.9874
13.4072	44.2269
16.2241	46.1987
22.9847	50.2832
30.872	52.255
39.21	53.1001
46.196	53.6635
59.4917	51.9734
65.9143	51.5508
72.4495	50.4241
78.534	49.8607
85.2946	48.7339
