Adsorption isotherm of Carbon Dioxide on IRMOF-1
DOI: 10.1126/science.1192160
Adsorbate Carbon Dioxide: InChIKey CURLTUGMZLYLDI-UHFFFAOYSA-N
Temperature: 298 K
Tabular data in the source: 0
pressure (bar)	uptake (mg/g)
0	8.49644
7.94275	295.82
11.8301	456.384
13.1822	549.341
15.7174	638.074
18.5061	714.13
24.2526	798.637
26.7878	811.313
33.3794	853.567
39.6329	857.792
42.8442	870.468
45.8864	866.243
49.0132	866.243
56.3653	840.891
