Adsorption isotherm of Hydrogen on MOF-200
DOI: 10.1126/science.1192160
Adsorbate Hydrogen: InChIKey UFHFLCQGNIYNRP-UHFFFAOYSA-N
Temperature: 77 K
Tabular data in the source: 0
pressure (bar)	uptake (cm3(STP)/g)
1.57625	9.15645
2.70301	17.0438
4.16779	24.2269
8.33681	36.9029
13.8579	49.4381
24.2241	61.1283
29.2946	65.4945
40.3368	71.1283
45.6326	72.6776
55.7734	73.8043
64.7875	73.3818
74.365	73.1001
79.7734	70.7057
