Adsorption isotherm of Methane on MOF-177
DOI: 10.1126/science.1192160
Adsorbate Methane: InChIKey VNWKTOKETHGBQD-UHFFFAOYSA-N
Temperature: 298 K
Tabular data in the source: 0
pressure (bar)	uptake (mg/g)
9.57625	47.3285
20.3931	100.568
32.9002	154.652
39.0974	174.934
44.0551	190.145
48.1115	198.596
57.0129	217.61
61.1819	223.526
69.7453	234.512
73.9143	239.16
78.0833	243.385
