Adsorption isotherm of Hydrogen on MOF-205
DOI: 10.1126/science.1192160
Adsorbate Hydrogen: InChIKey UFHFLCQGNIYNRP-UHFFFAOYSA-N
Temperature: 77 K
Tabular data in the source: 0
pressure (bar)	uptake (cm3(STP)/g)
1.57625	16.7621
2.92836	26.0579
4.05512	34.3677
6.42132	42.3959
7.77343	46.1987
15.0974	57.748
20.5058	63.1001
26.4777	67.6072
34.9284	70.0015
39.6608	70.0015
45.9706	70.5649
59.6044	68.3114
71.9988	66.1987
84.7312	62.9593
