Adsorption isotherm of Methane on MOF-205
DOI: 10.1126/science.1192160
Adsorbate Methane: InChIKey VNWKTOKETHGBQD-UHFFFAOYSA-N
Temperature: 298 K
Tabular data in the source: 0
pressure (bar)	uptake (mg/g)
2.02695	14.3708
6.75934	38.8778
13.0692	72.2581
16.6748	93.8074
19.9424	109.019
26.1396	137.329
31.7734	158.033
40.1115	188.878
46.3086	205.357
59.2664	233.667
65.6889	243.385
72.1115	250.145
84.7312	255.638
