Adsorption isotherm of Carbon Dioxide on MOF-210
DOI: 10.1126/science.1192160
Adsorbate Carbon Dioxide: InChIKey CURLTUGMZLYLDI-UHFFFAOYSA-N
Temperature: 298 K
Tabular data in the source: 0
pressure (bar)	uptake (mg/g)
3.46387	93.0035
11.9991	338.074
18.1681	591.595
21.6329	811.313
24.5061	1056.38
27.8019	1314.13
30.9287	1550.75
33.3794	1732.44
36.5906	1960.61
43.8582	2302.86
56.1118	2395.82
