Adsorption isotherm of Hydrogen on MOF-177
DOI: 10.1126/science.1192160
Adsorbate Hydrogen: InChIKey UFHFLCQGNIYNRP-UHFFFAOYSA-N
Temperature: 77 K
Tabular data in the source: 0
pressure (bar)	uptake (cm3(STP)/g)
0.562161	3.24096
5.29456	34.086
7.09737	39.7198
10.703	49.0156
13.7453	54.7903
19.8298	62.9593
27.041	68.1705
33.6889	70.8466
39.6608	72.1142
51.7171	73.1001
64.6748	72.3959
74.703	71.8325
