Adsorption isotherm of Hydrogen on IRMOF-1
DOI: 10.1126/science.1192160
Adsorbate Hydrogen: InChIKey UFHFLCQGNIYNRP-UHFFFAOYSA-N
Temperature: 77 K
Tabular data in the source: 0
pressure (bar)	uptake (cm3(STP)/g)
0.900189	14.5086
2.70301	26.7621
4.50582	37.0438
6.64667	46.6212
8.78751	53.6635
11.4917	60.5649
14.0833	64.5086
19.9424	70.8466
26.1396	73.9452
32.2241	75.2128
38.3086	76.0579
48.4495	75.2128
61.8579	73.8043
72.2241	71.8325
87.3227	67.748
