Adsorption isotherm of Methane on MOF-200
DOI: 10.1126/science.1192160
Adsorbate Methane: InChIKey VNWKTOKETHGBQD-UHFFFAOYSA-N
Temperature: 298 K
Tabular data in the source: 0
pressure (bar)	uptake (mg/g)
0.562161	0.849644
5.85794	21.9764
9.12554	38.8778
12.7312	51.9764
16.3368	67.1877
20.6185	81.9764
24.5622	94.2299
29.0692	108.596
36.9565	137.329
49.1255	171.976
59.9424	198.174
64.5622	207.892
74.365	224.371
79.0974	234.512
