Adsorption isotherm of Nitrogen on MOF-205
DOI: 10.1126/science.1192160
Adsorbate Nitrogen: InChIKey IJGRMHOSHXDMSA-UHFFFAOYSA-N
Temperature: 77 K
Tabular data in the source: 0
pressure (bar)	uptake (cm3(STP)/g)
0.00372489	251.532
0.0137359	513.248
0.0194565	714.898
0.0380483	873.644
0.0666512	1040.97
0.0909636	1208.3
0.249709	1345.59
0.35125	1371.33
0.45279	1392.79
0.548609	1397.08
0.65587	1409.95
0.745969	1418.53
0.85037	1418.53
0.95334	1414.24
0.996244	1439.98
