Adsorption isotherm of Nitrogen on MOF-200
DOI: 10.1126/science.1192160
Adsorbate Nitrogen: InChIKey IJGRMHOSHXDMSA-UHFFFAOYSA-N
Temperature: 77 K
Tabular data in the source: 0
pressure (bar)	uptake (cm3(STP)/g)
0.0180263	538.99
0.065221	925.129
0.118136	1225.46
0.141019	2439.65
0.178202	2504.01
0.238268	2572.65
0.279743	2602.69
0.296904	2615.56
0.394154	2649.88
0.492834	2662.75
0.685903	2688.5
0.887553	2727.11
