Adsorption isotherm of Carbon Dioxide on MOF-205
DOI: 10.1126/science.1192160
Adsorbate Carbon Dioxide: InChIKey CURLTUGMZLYLDI-UHFFFAOYSA-N
Temperature: 298 K
Tabular data in the source: 0
pressure (bar)	uptake (mg/g)
2.19627	93.0035
5.49204	211.313
10.3089	473.285
12.0836	583.144
14.2808	769.06
16.3935	895.82
20.1963	1149.34
22.7315	1271.88
31.3512	1478.92
34.3935	1491.59
37.0132	1491.59
39.5484	1487.37
43.8582	1436.67
47.8301	1377.51
55.9427	1123.99
