Adsorption isotherm of Nitrogen on MOF-200
DOI: 10.1126/science.1192160
Adsorbate Nitrogen: InChIKey IJGRMHOSHXDMSA-UHFFFAOYSA-N
Temperature: 77 K
Tabular data in the source: 0
pressure (bar)	uptake (cm3(STP)/g)
0.00372489	28.4293
0.0180263	315.888
0.05521	547.571
0.118136	843.611
0.139588	1345.59
0.15103	1971.99
0.226827	2165.06
0.348389	2233.71
0.444209	2263.74
0.547179	2280.9
0.65301	2306.65
0.75312	2310.94
0.844649	2345.26
0.943329	2340.97
0.990524	2353.84
