Adsorption isotherm of Carbon Dioxide on MOF-177
DOI: 10.1126/science.1192160
Adsorbate Carbon Dioxide: InChIKey CURLTUGMZLYLDI-UHFFFAOYSA-N
Temperature: 298 K
Tabular data in the source: 0
pressure (bar)	uptake (mg/g)
7.43571	325.398
9.97092	473.285
13.1822	714.13
15.8864	900.046
21.1258	1149.34
23.8301	1212.72
26.5343	1242.3
29.9991	1293
36.9287	1335.26
39.9709	1356.38
43.0132	1347.93
46.1399	1347.93
