Adsorption isotherm of Carbon Dioxide on MOF-200
DOI: 10.1126/science.1192160
Adsorbate Carbon Dioxide: InChIKey CURLTUGMZLYLDI-UHFFFAOYSA-N
Temperature: 298 K
Tabular data in the source: 0
pressure (bar)	uptake (mg/g)
0	12.7218
4.22444	122.581
7.26669	194.412
11.0695	308.496
16.5625	511.313
20.0273	663.426
23.2385	849.341
27.9709	1267.65
32.0273	1736.67
34.7315	2007.09
37.6892	2188.78
46.0554	2400.05
49.6047	2408.5
53.0695	2416.95
56.1118	2416.95
