Adsorption isotherm of Nitrogen on MOF-177
DOI: 10.1126/science.1192160
Adsorbate Nitrogen: InChIKey IJGRMHOSHXDMSA-UHFFFAOYSA-N
Temperature: 77 K
Tabular data in the source: 0
pressure (bar)	uptake (cm3(STP)/g)
0.0108756	925.129
0.0308976	1053.84
0.0609306	1135.36
0.15389	1178.26
0.243989	1208.3
0.34982	1225.46
0.447069	1238.33
0.55147	1242.62
0.65444	1242.62
0.75026	1251.2
0.85466	1255.49
0.95048	1264.07
