Adsorption isotherm of Nitrogen on CuMG-n
DOI: 10.1007/s10450-010-9267-5
Adsorbate Nitrogen: InChIKey IJGRMHOSHXDMSA-UHFFFAOYSA-N
Temperature: 77 K
Tabular data in the source: 0
pressure (bar)	uptake (cm3(STP)/g)
0.0036537	2.05454
0.00656687	287.035
0.0225893	301.309
0.061917	309.466
0.166791	317.623
0.254186	320.172
0.380909	322.211
0.439172	324.251
0.562981	326.29
0.625614	325.78
0.666399	329.858
0.777099	325.27
0.924214	331.388
0.959172	332.407
0.98976	335.976
