Adsorption isotherm of Nitrogen on ZnMG-n
DOI: 10.1007/s10450-010-9267-5
Adsorbate Nitrogen: InChIKey IJGRMHOSHXDMSA-UHFFFAOYSA-N
Temperature: 77 K
Tabular data in the source: 0
pressure (bar)	uptake (cm3(STP)/g)
0.0109366	167.231
0.026959	177.937
0.0531775	183.545
0.0997882	187.623
0.130376	189.153
0.195923	192.721
0.251273	192.721
0.318276	193.741
0.41004	194.251
0.490152	196.29
0.58483	196.29
0.683878	196.8
0.780012	197.309
0.868864	198.839
0.957715	203.427
0.988304	208.525
