Adsorption isotherm of Nitrogen on IRMOF-1
DOI: 10.1007/s10450-010-9267-5
Adsorbate Nitrogen: InChIKey IJGRMHOSHXDMSA-UHFFFAOYSA-N
Temperature: 77 K
Tabular data in the source: 0
pressure (bar)	uptake (cm3(STP)/g)
0.0153064	231.976
0.0371551	242.172
0.0691999	248.29
0.102701	250.839
0.171161	253.898
0.227967	256.447
0.286231	257.976
0.322645	257.976
0.377995	257.976
0.439172	258.486
0.493065	258.486
0.602309	258.486
0.753794	260.015
0.87032	261.035
0.922757	260.015
0.991217	262.055
