Adsorption isotherm of Nitrogen on ZnMG-n
DOI: 10.1007/s10450-010-9267-5
Adsorbate Nitrogen: InChIKey IJGRMHOSHXDMSA-UHFFFAOYSA-N
Temperature: 77 K
Tabular data in the source: 0
pressure (bar)	uptake (cm3(STP)/g)
0.0123932	204.447
0.0415248	214.643
0.0706565	220.251
0.105614	222.8
0.134746	224.839
0.168248	226.878
0.255643	227.898
0.324102	228.917
0.407127	230.447
0.497435	231.466
0.558612	232.486
0.624158	231.976
0.686791	232.486
0.812057	232.996
0.925671	233.506
0.98976	235.545
