Adsorption isotherm of Nitrogen on CuBTC
DOI: 10.1007/s10450-010-9267-5
Adsorbate Nitrogen: InChIKey IJGRMHOSHXDMSA-UHFFFAOYSA-N
Temperature: 77 K
Tabular data in the source: 0
pressure (bar)	uptake (cm3(STP)/g)
0.0138498	275.309
0.0371551	283.466
0.0648302	289.074
0.127463	291.623
0.191553	294.172
0.306623	295.702
0.375082	296.211
0.471217	297.231
0.475586	296.721
0.577547	303.349
0.58046	296.211
0.659116	303.349
0.6999	296.211
0.797491	296.211
0.852841	303.349
0.890712	296.211
0.954802	301.819
0.9985	305.388
