Adsorption isotherm of Nitrogen on CuMG-n
DOI: 10.1007/s10450-010-9267-5
Adsorbate Nitrogen: InChIKey IJGRMHOSHXDMSA-UHFFFAOYSA-N
Temperature: 77 K
Tabular data in the source: 0
pressure (bar)	uptake (cm3(STP)/g)
0.00219712	4.09375
0.0109366	295.192
0.026959	302.329
0.0662868	309.466
0.096875	312.525
0.163878	316.604
0.321189	320.172
0.408584	321.192
0.494522	322.721
0.628528	322.721
0.683878	322.211
0.87032	325.78
0.919844	329.349
0.963542	330.368
0.997043	330.368
