Adsorption isotherm of 1,2-Dichloroethane on MIL-101
DOI: 10.1080/01496395.2012.738756
Adsorbate 1,2-Dichloroethane: InChIKey WSLDOOZREJYCGB-UHFFFAOYSA-N
Temperature: 288 K
Tabular data in the source: 0
pressure (bar)	uptake (mmol/g)
0.000529	2.19298
0.000799	5.12193
0.00188069	9.51534
0.00282696	13.2892
0.00417878	14.472
0.00634169	18.2458
0.00809906	18.9781
0.0124249	19.2034
0.01621	19.485
0.0202654	19.7103
0.0286467	20.1046
0.0347299	20.2172
0.0413538	20.4426
0.0491944	20.8368
