Adsorption isotherm of 1,2-Dichloroethane on MIL-101
DOI: 10.1080/01496395.2012.738756
Adsorbate 1,2-Dichloroethane: InChIKey WSLDOOZREJYCGB-UHFFFAOYSA-N
Temperature: 308 K
Tabular data in the source: 0
pressure (bar)	uptake (mmol/g)
0.000123	0.0526027
0.000799	2.75624
0.00215105	4.78397
0.00512505	7.82557
0.00769351	9.79697
0.0110731	12.8386
0.0152637	14.4157
0.0208062	17.1193
0.0260783	17.9642
0.0352706	18.3585
0.0428408	18.4711
0.0520332	18.6401
