Adsorption isotherm of Nitrogen on MIL-101
DOI: 10.1080/01496395.2012.738756
Adsorbate Nitrogen: InChIKey IJGRMHOSHXDMSA-UHFFFAOYSA-N
Temperature: 77 K
Tabular data in the source: 0
pressure (bar)	uptake (mmol/g)
0.00208205	0.105205
0.00208205	5.96309
0.00436438	10.9198
0.0134937	16.327
0.0340346	20.3825
0.0614224	23.3114
0.0979396	27.0289
0.136739	30.0705
0.136739	31.3097
0.175539	34.3513
0.218903	36.0411
0.257702	39.9839
0.390077	41.3357
0.561251	41.7863
0.702755	42.1243
0.848824	42.4622
0.949246	42.9128
1.0063	43.2508
