Adsorption isotherm of 1,2-Dichloroethane on MIL-101
DOI: 10.1080/01496395.2012.738756
Adsorbate 1,2-Dichloroethane: InChIKey WSLDOOZREJYCGB-UHFFFAOYSA-N
Temperature: 288 K
Tabular data in the source: 0
pressure (bar)	uptake (mmol/g)
0.000259	0.165254
0.000934	4.16439
0.00147514	8.7831
0.00242141	11.881
0.00350287	13.8524
0.00526024	15.9928
0.00728797	17.3446
0.0103972	18.4148
0.0152637	19.654
0.0226987	20.2736
0.0321614	20.8368
0.0421649	21.1185
0.0529795	21.3438
0.0589275	21.4564
