Adsorption isotherm of 1,2-Dichloroethane on MIL-101
DOI: 10.1080/01496395.2012.738756
Adsorbate 1,2-Dichloroethane: InChIKey WSLDOOZREJYCGB-UHFFFAOYSA-N
Temperature: 298 K
Tabular data in the source: 0
pressure (bar)	uptake (mmol/g)
0.000259	0.165254
0.00120478	5.12193
0.00228623	8.67045
0.00458433	11.9374
0.00796388	14.472
0.0110731	16.2744
0.0158044	17.5136
0.0204006	18.4148
0.0255375	19.2034
0.0321614	19.7103
0.0395965	20.0483
0.0481129	20.3862
0.0539257	20.6115
