Adsorption isotherm of 1,2-Dichloroethane on MIL-101
DOI: 10.1080/01496395.2012.738756
Adsorbate 1,2-Dichloroethane: InChIKey WSLDOOZREJYCGB-UHFFFAOYSA-N
Temperature: 318 K
Tabular data in the source: 0
pressure (bar)	uptake (mmol/g)
0.000123	0.165254
0.00106959	2.13666
0.0025566	3.26317
0.00809906	7.037
0.0120193	9.17739
0.0168859	12.2753
0.0241857	14.1904
0.0283764	15.7112
0.0317559	16.6124
0.0368928	17.401
0.0436519	17.7389
0.048924	18.0205
