Adsorption isotherm of 1,2-Dichloroethane on MIL-101
DOI: 10.1080/01496395.2012.738756
Adsorbate 1,2-Dichloroethane: InChIKey WSLDOOZREJYCGB-UHFFFAOYSA-N
Temperature: 308 K
Tabular data in the source: 0
pressure (bar)	uptake (mmol/g)
0.000123	0.165254
0.00120478	4.67132
0.00309732	7.26231
0.00634169	9.17739
0.0105323	11.4304
0.0163452	13.5145
0.0224283	15.2606
0.0301337	17.0067
0.0377039	18.5275
0.0460852	20.0483
0.0514925	21.0058
