Adsorption isotherm of 1,2-Dichloroethane on MIL-101
DOI: 10.1080/01496395.2012.738756
Adsorbate 1,2-Dichloroethane: InChIKey WSLDOOZREJYCGB-UHFFFAOYSA-N
Temperature: 298 K
Tabular data in the source: 0
pressure (bar)	uptake (mmol/g)
0.000123	0.0526027
0.000664	3.0942
0.00133996	5.23458
0.00309732	8.5578
0.00471951	10.6982
0.00647687	13.7961
0.00931569	15.7112
0.0133712	18.2458
0.019184	18.9218
0.0256727	19.2034
0.032567	19.4287
0.0450037	19.654
0.0552776	19.823
