Adsorption isotherm of 1,2-Dichloroethane on MIL-101
DOI: 10.1080/01496395.2012.738756
Adsorbate 1,2-Dichloroethane: InChIKey WSLDOOZREJYCGB-UHFFFAOYSA-N
Temperature: 318 K
Tabular data in the source: 0
pressure (bar)	uptake (mmol/g)
0.000123	0.108929
0.00309732	3.88276
0.00796388	7.65659
0.0118842	9.96595
0.0168859	12.1063
0.0213469	13.7961
0.0279708	15.3169
0.0327022	16.4434
0.0398668	17.5699
0.0486536	18.6964
