Adsorption isotherm of 1,2-Dichloroethane on MIL-101
DOI: 10.1080/01496395.2012.738756
Adsorbate 1,2-Dichloroethane: InChIKey WSLDOOZREJYCGB-UHFFFAOYSA-N
Temperature: 298 K
Tabular data in the source: 0
pressure (bar)	uptake (mmol/g)
0.000529	0.277906
0.000664	5.0656
0.00133996	7.65659
0.00336769	9.90962
0.00755833	12.4443
0.0121545	14.3594
0.0187784	16.4434
0.0244561	17.9079
0.0317559	19.4287
0.0390557	20.5552
0.0485185	22.1887
0.0543313	22.8646
