Adsorption isotherm of 1,2-Dichloroethane on MIL-101
DOI: 10.1080/01496395.2012.738756
Adsorbate 1,2-Dichloroethane: InChIKey WSLDOOZREJYCGB-UHFFFAOYSA-N
Temperature: 288 K
Tabular data in the source: 0
pressure (bar)	uptake (mmol/g)
0.000123	0.22158
0.000529	4.05174
0.00120478	7.82557
0.00188069	10.1349
0.00417878	12.2753
0.00742315	14.3594
0.0109379	16.2181
0.0166155	18.1332
0.0229691	19.7103
0.0322966	21.4564
0.0397316	22.6956
0.0454093	23.4278
0.0570349	24.836
