Adsorption isotherm of 1,2-Dichloroethane on MIL-101
DOI: 10.1080/01496395.2012.738756
Adsorbate 1,2-Dichloroethane: InChIKey WSLDOOZREJYCGB-UHFFFAOYSA-N
Temperature: 308 K
Tabular data in the source: 0
pressure (bar)	uptake (mmol/g)
0.000123	0.108929
0.00120478	3.77011
0.00336769	7.09333
0.00526024	9.29004
0.00863979	12.1063
0.0122897	13.9651
0.0168859	15.4296
0.0220228	16.5561
0.0270245	17.3446
0.0354058	18.3585
0.0425705	18.8654
0.0500055	19.316
