Adsorption isotherm of 1,2-Dichloroethane on MIL-101
DOI: 10.1080/01496395.2012.738756
Adsorbate 1,2-Dichloroethane: InChIKey WSLDOOZREJYCGB-UHFFFAOYSA-N
Temperature: 318 K
Tabular data in the source: 0
pressure (bar)	uptake (mmol/g)
0.000123	0.0526027
0.00106959	3.0942
0.00377323	5.17825
0.00782869	7.20598
0.0137767	9.90962
0.0202654	12.5006
0.0298634	15.1479
0.0381095	17.1757
0.044463	18.8654
0.0482481	19.7103
