Adsorption isotherm of Sb(III), Arsenate, As(III), Sb(V) on Ferrihydrite
DOI: 10.1016/j.jhazmat.2017.02.016
Article source: Figure 4
Adsorbate Sb(III): InChIKey FAWGZAFXDJGWBB-UHFFFAOYSA-N
Adsorbate Arsenate: InChIKey HAYXDMNJJFVXCI-UHFFFAOYSA-N
Adsorbate As(III): InChIKey LULLIKNODDLMDQ-UHFFFAOYSA-N
Adsorbate Sb(V): InChIKey ZDINGUUTWDGGFF-UHFFFAOYSA-N
Kind: experiment
Temperature: 293 K
Tabular data in the source: 0
pressure (bar)	Sb(III) fraction	Sb(III) uptake (mg/g)	Arsenate fraction	Arsenate uptake (mg/g)	As(III) fraction	As(III) uptake (mg/g)	Sb(V) fraction	Sb(V) uptake (mg/g)	total uptake (mg/g)
1.01325	0.01	25.107	0.0499	9.832	0.2406	9.39	0.7565	7.835	
1.01325	0.031	9.927	1.9925	19.639	2.6007	18.386	3.0597	17.175	
1.01325	0.7859	35.189	6.2807	21.64	5.095	24.514	7.5048	18.607	
1.01325	1.1037	46.867	9.1145	26.739	7.5558	30.988	12.4675	18.794	
1.01325	1.1658	59.144	13.526	28.504	11.8826	32.471	16.017	22.343	
