Adsorption isotherm of Water on Sonicated Fenton MWCNT
DOI: 10.1260/0263-6174.28.10.903
Adsorbate Water: InChIKey XLYOFNOQVPJJNP-UHFFFAOYSA-N
Temperature: 298 K
Tabular data in the source: 0
pressure (bar)	uptake (mmol/g)
0.00213369	0.233954
0.00291988	0.268734
0.00370571	0.298884
0.0043343	0.322079
0.00504087	0.340649
0.00559057	0.356893
0.00645402	0.37779
0.00708189	0.391725
0.0085732	0.426558
0.00920052	0.433548
0.00975004	0.447478
0.01077	0.466071
0.0122608	0.493959
0.0136732	0.521841
0.0152421	0.547419
0.0165762	0.575295
0.0172824	0.589236
0.0179886	0.603177
0.0186165	0.617112
0.0195579	0.633385
0.0201858	0.647321
0.0225398	0.69379
0.0231677	0.707726
0.0242666	0.733269
0.0248944	0.747205
0.0259933	0.772749
0.0266213	0.788999
0.0275629	0.807586
0.0281125	0.821516
0.0289759	0.842413
0.029604	0.858663
0.0306246	0.886516
0.0311745	0.905075
