Adsorption isotherm of Water on MWCNT
DOI: 10.1260/0263-6174.28.10.903
Adsorbate Water: InChIKey XLYOFNOQVPJJNP-UHFFFAOYSA-N
Temperature: 298 K
Tabular data in the source: 0
pressure (bar)	uptake (mmol/g)
0.000942704	0.0324769
0.00486115	0.0466545
0.00572296	0.046718
0.00736843	0.049154
0.00877886	0.0515728
0.0100326	0.0539799
0.0116782	0.0587308
0.012932	0.061138
0.0137155	0.0611957
0.0152042	0.0636203
0.0165365	0.068348
0.0181821	0.0730989
0.0195144	0.0778267
0.0210035	0.0848809
0.0215522	0.0872361
0.0231974	0.0873573
0.0246081	0.0920909
0.0259407	0.101448
0.0273511	0.103867
0.0286052	0.110904
0.0297023	0.1133
