Adsorption isotherm of Water on MWCNT
DOI: 10.1260/0263-6174.28.10.903
Adsorbate Water: InChIKey XLYOFNOQVPJJNP-UHFFFAOYSA-N
Temperature: 298 K
Tabular data in the source: 0
pressure (bar)	uptake (mmol/g)
0.000629316	0.0324538
0.00149113	0.0325173
0.0021968	0.0395137
0.00305862	0.0395772
0.00392062	0.0419555
0.00470427	0.0443281
0.00783888	0.0538183
0.00940582	0.0539338
0.0109735	0.0633085
0.0126969	0.0611207
0.0142642	0.0658658
0.0158316	0.0706109
0.0174772	0.0753618
0.0190451	0.0870514
0.0206118	0.084852
0.0220224	0.0895856
0.0236683	0.0966513
0.0252356	0.101396
0.0267243	0.103821
0.0284483	0.108578
0.0300943	0.117958
0.0312699	0.122674
