Adsorption isotherm of Water on Sonicated Fenton MWCNT
DOI: 10.1260/0263-6174.28.10.903
Adsorbate Water: InChIKey XLYOFNOQVPJJNP-UHFFFAOYSA-N
Temperature: 298 K
Tabular data in the source: 0
pressure (bar)	uptake (mmol/g)
0.000796891	0.171355
0.00158417	0.220024
0.00236982	0.24786
0.00323399	0.278016
0.00401964	0.305852
0.00472622	0.324422
0.00637477	0.36621
0.00794443	0.401048
0.00943575	0.43588
0.0110834	0.466094
0.0126532	0.503247
0.0143009	0.533461
0.0158704	0.565984
0.01744	0.600822
0.0189308	0.62871
0.0205008	0.668177
0.0221486	0.700706
0.0237178	0.728599
0.0253656	0.761128
0.0268567	0.793645
0.0285047	0.828489
0.0301531	0.867962
0.0312521	0.895821
