Adsorption isotherm of Nitrogen Dioxide on MOF-177
DOI: 10.1063/1.4726255
Adsorbate Nitrogen Dioxide: InChIKey JCXJVPUVTGWSNB-UHFFFAOYSA-N
Temperature: 298 K
Tabular data in the source: 0
pressure (bar)	uptake (mmol/g)
0.479505	0.634184
1.01898	1.359
1.49835	1.94773
1.97772	2.53646
2.51693	3.17038
2.9967	3.89547
3.50579	4.43861
4.01487	4.98175
4.52423	5.6158
5.0036	6.20453
5.51214	6.56585
5.99164	7.20004
6.53058	7.74304
7.03966	8.28618
7.51889	8.82946
8.05674	9.00883
8.50667	9.73406
9.01507	10.0499
9.52294	10.184
10.0317	10.6362
