Adsorption isotherm of Nitrogen Dioxide on IRMOF-1
DOI: 10.1063/1.4726255
Adsorbate Nitrogen Dioxide: InChIKey JCXJVPUVTGWSNB-UHFFFAOYSA-N
Temperature: 298 K
Tabular data in the source: 0
pressure (bar)	uptake (mmol/g)
0.478555	0.316007
1.01668	0.586288
1.46538	0.90243
1.97379	1.2183
2.51177	1.44313
3.02031	1.80445
3.49887	2.12046
4.00714	2.39088
4.48583	2.75234
4.96425	3.02289
5.50237	3.29317
6.01091	3.6545
6.51931	3.97037
6.9976	4.19547
7.506	4.51134
8.01427	4.78175
8.49269	5.05231
9.00123	5.41363
9.50923	5.59314
10.0176	5.90901
