Adsorption isotherm of Nitric oxide on COF-105
DOI: 10.1063/1.4726255
Adsorbate Nitric oxide: InChIKey MWUXSHHQAYIFBG-UHFFFAOYSA-N
Temperature: 298 K
Tabular data in the source: 0
pressure (bar)	uptake (mmol/g)
0.537313	0.152542
1.01493	0.335593
1.55224	0.518644
2	0.716949
2.50746	0.884746
3.01493	1.08305
3.49254	1.25085
3.97015	1.41864
4.50746	1.64746
5.01493	1.81525
5.49254	1.95254
6	2.13559
6.53731	2.34915
6.98507	2.50169
7.52239	2.66949
8	2.83729
8.50746	3.08136
9.01493	3.21864
9.49254	3.38644
10	3.55424
