Adsorption isotherm of Carbon monoxide on COF-108
DOI: 10.1063/1.4726255
Adsorbate Carbon monoxide: InChIKey UGFAIRIUMAVXCW-UHFFFAOYSA-N
Temperature: 298 K
Tabular data in the source: 0
pressure (bar)	uptake (mmol/g)
0.472086	0.173985
0.973899	0.328796
1.50544	0.464434
1.97753	0.638418
2.47934	0.79323
2.98101	0.967271
3.48254	1.16054
3.9845	1.29612
4.48631	1.45094
4.98755	1.68267
5.48951	1.81825
5.99175	1.91537
6.49342	2.08941
6.99538	2.22499
7.49676	2.43749
7.999	2.53461
8.50053	2.72789
9.0022	2.90193
9.47458	3.03745
9.97653	3.17303
