Adsorption isotherm of Carbon monoxide on IRMOF-1
DOI: 10.1063/1.4726255
Adsorbate Carbon monoxide: InChIKey UGFAIRIUMAVXCW-UHFFFAOYSA-N
Temperature: 298 K
Tabular data in the source: 0
pressure (bar)	uptake (mmol/g)
0.502098	0.11635
0.974184	0.290335
1.50587	0.406742
1.94837	0.58067
2.45061	0.67779
2.98201	0.832658
3.4841	0.949008
3.98578	1.12305
4.48787	1.2394
5.01942	1.37504
5.49179	1.51056
5.9643	1.62685
6.4957	1.78172
6.96821	1.89802
7.49975	2.03365
8.00185	2.15
8.4745	2.24707
9.00562	2.4404
9.50786	2.53752
9.98009	2.69227
