Adsorption isotherm of Carbon monoxide on MOF-177
DOI: 10.1063/1.4726255
Adsorbate Carbon monoxide: InChIKey UGFAIRIUMAVXCW-UHFFFAOYSA-N
Temperature: 298 K
Tabular data in the source: 0
pressure (bar)	uptake (mmol/g)
0.471517	0.250907
0.972762	0.48264
1.47372	0.752834
1.97468	1.02303
2.47578	1.27399
2.97717	1.48649
3.47813	1.75669
3.97909	2.02688
4.48048	2.23939
4.98172	2.47112
5.48297	2.70285
5.98464	2.87689
6.48546	3.16632
6.95754	3.3403
7.45893	3.55281
7.99004	3.74613
8.46113	4.05473
8.99253	4.2096
9.46362	4.5182
9.99545	4.61538
