Adsorption isotherm of Hydrogen on IRMOF-1
DOI: 10.1063/1.4726255
Adsorbate Hydrogen: InChIKey UFHFLCQGNIYNRP-UHFFFAOYSA-N
Temperature: 298 K
Tabular data in the source: 0
pressure (bar)	uptake (wt%)
7.41451	0.0411581
12.3575	0.0685968
17.5535	0.106964
22.5066	0.150785
27.7027	0.189152
33.388	0.222072
38.0847	0.249504
43.7683	0.279693
49.7033	0.318081
55.1422	0.350994
60.8191	0.370261
66.7491	0.400457
71.94	0.430633
77.8616	0.447177
83.5452	0.477366
89.4768	0.510293
96.1389	0.529587
