Adsorption isotherm of Hydrogen on IRMOF-1
DOI: 10.1063/1.4726255
Adsorbate Hydrogen: InChIKey UFHFLCQGNIYNRP-UHFFFAOYSA-N
Temperature: 298 K
Tabular data in the source: 0
pressure (bar)	uptake (wt%)
5.44067	0.0356434
10.1424	0.0712667
15.3368	0.106903
20.0351	0.137066
24.9798	0.167235
29.9279	0.202865
35.3635	0.230317
40.0652	0.26594
44.7602	0.290642
50.4422	0.318101
55.1389	0.345533
59.8339	0.370234
65.5158	0.397693
70.2108	0.422395
75.1555	0.452564
80.3331	0.460896
85.0298	0.488328
89.9744	0.518498
95.1554	0.532291
100.093	0.551538
