Adsorption isotherm of Nitric oxide on COF-108
DOI: 10.1063/1.4726255
Adsorbate Nitric oxide: InChIKey MWUXSHHQAYIFBG-UHFFFAOYSA-N
Temperature: 298 K
Tabular data in the source: 0
pressure (bar)	uptake (mmol/g)
0.507463	0.10678
1.07463	0.228814
1.49254	0.366102
2.02985	0.50339
2.50746	0.625424
2.98507	0.747458
3.49254	0.884746
4	1.00678
4.47761	1.12881
5.01493	1.2661
5.52239	1.40339
6	1.52542
6.47761	1.6322
7.01493	1.78475
7.52239	1.92203
8	2.04407
8.50746	2.13559
9.01493	2.25763
9.49254	2.37966
10	2.50169
