Adsorption isotherm of Hydrogen on MOF-177
DOI: 10.1063/1.4726255
Adsorbate Hydrogen: InChIKey UFHFLCQGNIYNRP-UHFFFAOYSA-N
Temperature: 298 K
Tabular data in the source: 0
pressure (bar)	uptake (wt%)
0.739763	0.00275057
9.89433	0.136789
20.2619	0.210792
30.1353	0.279321
40.0111	0.356041
