Adsorption isotherm of Nitrogen Dioxide on COF-108
DOI: 10.1063/1.4726255
Adsorbate Nitrogen Dioxide: InChIKey JCXJVPUVTGWSNB-UHFFFAOYSA-N
Temperature: 298 K
Tabular data in the source: 0
pressure (bar)	uptake (mmol/g)
0.47842	0.270553
0.986689	0.54097
1.49523	0.902294
1.97351	1.12739
2.51163	1.39767
3.02004	1.71355
3.4986	2.02955
4.00687	2.29997
4.48542	2.61598
4.99396	2.9773
5.47252	3.29331
6.04049	3.56345
6.51877	3.78855
7.02745	4.19533
7.50587	4.46588
8.01387	4.64539
8.49256	5.00685
9.03081	5.32259
9.50978	5.77496
10.0178	5.95446
