Adsorption isotherm of Hydrogen on COF-108
DOI: 10.1063/1.4726255
Adsorbate Hydrogen: InChIKey UFHFLCQGNIYNRP-UHFFFAOYSA-N
Temperature: 298 K
Tabular data in the source: 0
pressure (bar)	uptake (wt%)
4.86322	0.0533333
9.72644	0.111111
14.8936	0.164444
19.7568	0.222222
24.924	0.266667
30.0912	0.328889
34.6505	0.373333
40.1216	0.417778
44.9848	0.466667
49.848	0.52
54.7112	0.56
60.1824	0.591111
65.0456	0.644444
69.9088	0.68
75.076	0.711111
79.9392	0.764444
85.1064	0.786667
90.2736	0.835556
94.8328	0.88
100.304	0.884444
