Adsorption isotherm of Nitric oxide on IRMOF-1
DOI: 10.1063/1.4726255
Adsorbate Nitric oxide: InChIKey MWUXSHHQAYIFBG-UHFFFAOYSA-N
Temperature: 298 K
Tabular data in the source: 0
pressure (bar)	uptake (mmol/g)
0.477612	0.0610169
1.01493	0.152542
1.52239	0.244068
2.02985	0.335593
2.53731	0.442373
3.01493	0.518644
3.49254	0.610169
4	0.701695
4.50746	0.79322
5.01493	0.869492
5.52239	0.961017
6	1.03729
6.50746	1.11356
7.01493	1.20508
7.52239	1.29661
8.02985	1.38814
8.50746	1.46441
8.98507	1.52542
9.52239	1.6322
10.0299	1.69322
