Adsorption isotherm of Hydrogen on COF-105
DOI: 10.1063/1.4726255
Adsorbate Hydrogen: InChIKey UFHFLCQGNIYNRP-UHFFFAOYSA-N
Temperature: 298 K
Tabular data in the source: 0
pressure (bar)	uptake (wt%)
4.86322	0.0533333
9.72644	0.102222
14.8936	0.151111
20.0608	0.195556
24.3161	0.235556
30.0912	0.297778
34.9544	0.32
39.8176	0.36
44.9848	0.413333
50.4559	0.44
55.0152	0.471111
59.5745	0.515556
65.0456	0.56
69.9088	0.573333
74.772	0.613333
79.9392	0.64
85.1064	0.671111
89.9696	0.702222
95.4407	0.72
100.304	0.755556
