Adsorption isotherm of Carbon monoxide on COF-105
DOI: 10.1063/1.4726255
Adsorbate Carbon monoxide: InChIKey UGFAIRIUMAVXCW-UHFFFAOYSA-N
Temperature: 298 K
Tabular data in the source: 0
pressure (bar)	uptake (mmol/g)
0.47237	0.135524
1.03335	0.290449
1.38767	0.387284
1.97781	0.599957
2.47977	0.735538
2.98172	0.871119
3.48354	1.02593
3.98549	1.16151
4.48716	1.33555
4.95953	1.47108
5.46149	1.60666
5.99275	1.78076
6.4947	1.91634
6.96721	2.03263
7.46903	2.18744
7.97084	2.34225
8.4728	2.47783
8.97447	2.65187
9.47642	2.78745
9.97852	2.9038
