Adsorption isotherm of Nitric oxide on MOF-177
DOI: 10.1063/1.4726255
Adsorbate Nitric oxide: InChIKey MWUXSHHQAYIFBG-UHFFFAOYSA-N
Temperature: 298 K
Tabular data in the source: 0
pressure (bar)	uptake (mmol/g)
0.507463	0.152542
1.01493	0.335593
1.55224	0.50339
2.02985	0.701695
2.53731	0.854237
3.01493	1.03729
4.02985	1.38814
4.53731	1.54068
4.98507	1.69322
5.52239	1.89153
6	2.02881
6.50746	2.18136
7.01493	2.3339
7.49254	2.5322
8.02985	2.63898
8.53731	2.83729
9.04478	2.98983
9.52239	3.0661
10.0299	3.20339
