Adsorption isotherm of Hydrogen on MOF-177
DOI: 10.1063/1.4726255
Adsorbate Hydrogen: InChIKey UFHFLCQGNIYNRP-UHFFFAOYSA-N
Temperature: 298 K
Tabular data in the source: 0
pressure (bar)	uptake (wt%)
4.69497	0.0492749
9.88172	0.0958329
15.3165	0.147858
20.2577	0.19714
24.9519	0.243685
30.1386	0.290243
35.0774	0.331333
40.0153	0.369693
44.7086	0.413507
49.892	0.449144
54.5827	0.484767
59.767	0.523134
64.9512	0.5615
69.8891	0.59986
75.0683	0.621845
80.0087	0.668396
85.1888	0.693111
89.8779	0.723273
94.8133	0.753442
100.241	0.783624
