Adsorption isotherm of Nitrogen Dioxide on COF-105
DOI: 10.1063/1.4726255
Adsorbate Nitrogen Dioxide: InChIKey JCXJVPUVTGWSNB-UHFFFAOYSA-N
Temperature: 298 K
Tabular data in the source: 0
pressure (bar)	uptake (mmol/g)
0.478284	0.225099
0.956568	0.450197
1.49469	0.720479
2.00296	0.990896
2.48138	1.26145
3.01963	1.57718
3.5275	1.71124
4.0359	2.02711
4.48447	2.2978
5.02246	2.52263
5.50101	2.83863
6.00915	3.06359
6.4877	3.3796
7.02609	3.74079
7.53382	3.82939
8.01224	4.09994
8.52064	4.41582
9.02891	4.68623
9.53732	5.0021
10.0456	5.27252
