Adsorption isotherm of Nitrogen on FIR-3b-ht
DOI: 10.1021/Ic3017529
Adsorbate Nitrogen: InChIKey IJGRMHOSHXDMSA-UHFFFAOYSA-N
Temperature: 77 K
Tabular data in the source: 0
pressure (bar)	uptake (cm3(STP)/g)
0.00514139	0.00514139
0.00771208	39.3842
0.0128535	44.8418
0.0257069	54.1961
0.033419	58.4828
0.066838	61.5895
0.0848329	61.5825
0.125964	62.7364
0.143959	63.5093
0.174807	64.2772
0.187661	64.6622
0.200514	64.2672
0.251928	65.0271
0.303342	65.397
0.347044	64.99
0.401028	65.7489
0.455013	66.1178
0.508997	65.7068
0.552699	66.4697
0.604113	66.4496
0.655527	66.8196
0.701799	66.4116
0.750643	67.1725
0.81491	67.1474
0.874036	67.1243
0.928021	67.1033
0.979434	68.6431
