Adsorption isotherm of Nitrogen on FIR-3a-ht
DOI: 10.1021/Ic3017529
Adsorbate Nitrogen: InChIKey IJGRMHOSHXDMSA-UHFFFAOYSA-N
Temperature: 77 K
Tabular data in the source: 0
pressure (bar)	uptake (cm3(STP)/g)
0.0102828	3.89571
0.0205656	4.28167
0.0488432	4.66062
0.0719794	5.04157
0.105398	5.02854
0.120823	5.41249
0.141388	5.40447
0.205656	5.76938
0.254499	5.75033
0.300771	5.73229
0.339332	6.10722
0.354756	6.49118
0.424165	6.46411
0.475578	5.66412
0.521851	6.03605
0.573265	6.40597
0.622108	6.77689
0.66581	6.75985
0.688946	6.36086
0.717224	6.34983
0.768638	6.71975
0.81491	5.53179
0.825193	6.30772
0.871465	6.28968
0.899743	6.66862
0.938303	6.65359
0.969152	6.25158
0.974293	6.24958
