Adsorption isotherm of Carbon Dioxide on FIR-3a-ht
DOI: 10.1021/Ic3017529
Adsorbate Carbon Dioxide: InChIKey CURLTUGMZLYLDI-UHFFFAOYSA-N
Temperature: 273 K
Tabular data in the source: 0
pressure (bar)	uptake (cm3(STP)/g)
0.0153112	0.605187
0.0331815	1.4121
0.056119	1.91643
0.0816083	2.52161
0.0994713	3.22767
0.130072	4.13545
0.160643	4.63977
0.188669	5.14409
0.214158	5.74928
0.23964	6.2536
0.262592	6.95965
0.331368	7.9683
0.395062	9.07781
0.46383	9.98559
0.524972	10.9942
0.591196	11.902
0.659972	12.9107
0.723636	13.6167
0.792405	14.5245
0.856084	15.4323
0.92483	16.0375
1.00124	17.0461
