Adsorption isotherm of Carbon Dioxide on FIR-3c-ht
DOI: 10.1021/Ic3017529
Adsorbate Carbon Dioxide: InChIKey CURLTUGMZLYLDI-UHFFFAOYSA-N
Temperature: 273 K
Tabular data in the source: 0
pressure (bar)	uptake (cm3(STP)/g)
0.0894545	5.44669
0.10731	6.05187
0.132843	7.26225
0.155832	8.47262
0.18391	9.683
0.211966	10.5908
0.237492	11.7003
0.26301	12.7089
0.32933	14.928
0.395649	17.147
0.461946	19.0634
0.528257	21.1816
0.594525	22.6945
0.66083	24.7118
0.72456	26.3256
0.790835	27.9395
0.857118	29.6542
0.92593	31.1671
0.99219	32.5793
