Adsorption isotherm of Carbon Dioxide on FIR-3b-ht
DOI: 10.1021/Ic3017529
Adsorbate Carbon Dioxide: InChIKey CURLTUGMZLYLDI-UHFFFAOYSA-N
Temperature: 273 K
Tabular data in the source: 0
pressure (bar)	uptake (cm3(STP)/g)
0.025526	1.10951
0.0459262	1.7147
0.0637819	2.31988
0.0765339	2.72334
0.102045	3.63112
0.130094	4.43804
0.158135	5.14409
0.186191	6.05187
0.211687	6.75793
0.237177	7.36311
0.260143	8.27089
0.316211	9.48127
0.369756	10.9942
0.423279	12.2046
0.474265	13.5159
0.527788	14.7262
0.591511	16.2392
0.660309	17.5504
0.726555	18.7608
0.790271	20.1729
0.859039	21.0807
0.927851	22.5937
1.00428	23.9049
