Adsorption isotherm of Nitrogen on FIR-3c-ht
DOI: 10.1021/Ic3017529
Adsorbate Nitrogen: InChIKey IJGRMHOSHXDMSA-UHFFFAOYSA-N
Temperature: 77 K
Tabular data in the source: 0
pressure (bar)	uptake (cm3(STP)/g)
0.00257069	30.0269
0.00514139	47.9646
0.00771208	67.4622
0.0102828	82.2801
0.0179949	90.0765
0.033419	107.619
0.0771208	114.232
0.120823	117.334
0.161954	118.098
0.182519	119.26
0.208226	119.64
0.254499	120.792
0.300771	121.164
0.357326	122.702
0.403599	123.464
0.455013	124.224
0.506427	125.374
0.562982	125.741
0.609254	126.503
0.663239	127.262
0.706941	128.025
0.748072	128.009
0.85347	129.528
0.904884	129.508
0.966581	129.874
