Adsorption isotherm of Nitrogen on CuBTC-MW@H3PW12O40
DOI: 10.1002/cphc.201300215
Adsorbate Nitrogen: InChIKey IJGRMHOSHXDMSA-UHFFFAOYSA-N
Temperature: 77 K
Tabular data in the source: 0
pressure (bar)	uptake (cm3(STP)/g)
-0.000862	-0.326117
-0.000862	50.3405
0.000826	165.007
0.00589089	177.674
0.00926756	183.674
0.0193976	187.674
0.0329042	188.341
0.0565409	189.674
0.0936842	189.007
0.127451	189.674
0.152776	189.674
0.179789	190.341
0.218621	189.674
0.267583	192.341
0.291219	192.341
0.336804	197.007
0.372259	199.674
0.417844	203.007
0.471871	211.674
0.522521	221.674
0.569794	239.007
0.627198	256.341
0.671094	273.674
0.720056	290.341
0.789278	315.007
0.872006	338.341
0.926033	355.674
0.969929	371.007
0.993566	386.341
1.00876	405.007
