Adsorption isotherm of Nitrogen on CuBTC-MW
DOI: 10.1002/cphc.201300215
Adsorbate Nitrogen: InChIKey IJGRMHOSHXDMSA-UHFFFAOYSA-N
Temperature: 77 K
Tabular data in the source: 0
pressure (bar)	uptake (cm3(STP)/g)
-0.000862	-0.326117
-0.000862	50.3405
0.000826	165.007
0.000826	186.341
0.0126442	191.674
0.0261509	195.007
0.0430342	195.007
0.0903076	195.674
0.147711	197.674
0.191608	197.674
0.230439	198.341
0.259141	199.007
0.301349	199.674
0.370571	201.674
0.414468	206.341
0.475248	217.674
0.527586	231.007
0.571483	242.341
0.623821	251.007
0.669406	264.341
0.725121	277.674
0.774083	287.674
0.819668	300.341
0.866941	315.007
0.932786	330.341
0.973306	340.341
0.995254	352.341
1.00876	365.674
