Adsorption isotherm of Nitrogen on CuBTC-MW
DOI: 10.1002/cphc.201300215
Adsorbate Nitrogen: InChIKey IJGRMHOSHXDMSA-UHFFFAOYSA-N
Temperature: 77 K
Tabular data in the source: 0
pressure (bar)	uptake (cm3(STP)/g)
0.000826	-0.992784
0.000826	278.341
0.00251422	189.674
0.00251422	317.007
0.00757923	326.341
0.0210859	334.341
0.0396576	340.341
0.0599176	345.674
0.0903076	348.341
0.122386	351.674
0.154464	353.674
0.186543	356.341
0.210179	359.007
0.257453	361.674
0.289531	363.007
0.340181	365.007
0.419533	365.674
0.520833	367.674
0.623821	369.007
0.728498	370.341
0.826421	372.341
0.922656	374.341
0.978371	375.674
0.998631	378.341
1.01214	379.674
