Adsorption isotherm of Ethanol, Water on TPAOH/HF
DOI: 10.1016/s0167-2991(02)80329-9
Article source: Figure 5
Adsorbate Ethanol: InChIKey LFQSCWFLJHTTHZ-UHFFFAOYSA-N
Adsorbate Water: InChIKey XLYOFNOQVPJJNP-UHFFFAOYSA-N
Kind: experiment
Temperature: 300 K
Tabular data in the source: 0
pressure (bar)	Ethanol fraction	Ethanol uptake (g/g)	Water fraction	Water uptake (g/g)	total uptake (g/g)
9.8e-05	0.5	0.000415	0.5	0.000415	0.000415
0.001816	0.5	0.001452	0.5	0.000622	0.001452
0.003927	0.5	0.002281	0.5	0.00083	0.002281
0.005351	0.5	0.004356	0.5	0.001244	0.004356
0.006775	0.5	0.006222	0.5	0.001244	0.006222
0.007806	0.5	0.008711	0.5	0.001244	0.008711
0.00923	0.5	0.010578	0.5	0.001037	0.010578
0.010752	0.5	0.012859	0.5	0.001037	0.012859
0.012127	0.5	0.014726	0.5	0.001659	0.016178
0.012961	0.5	0.018044	0.5	0.001452	0.019289
0.014483	0.5	0.020119	0.5	0.001452	0.021985
0.016201	0.5	0.023022	0.5	0.002281	0.024889
0.017674	0.5	0.025096	0.5	0.002696	0.028207
0.018656	0.5	0.028207	0.5	0.003111	0.031733
0.019834	0.5	0.031319	0.5	0.003526	0.034844
0.020914	0.5	0.035052	0.5	0.003941	0.038785
0.021797	0.5	0.038163	0.5	0.004563	0.042726
0.022926	0.5	0.042104	0.5	0.005185	0.047911
0.02376	0.5	0.046459	0.5	0.006222	0.053096
0.02479	0.5	0.050607	0.5	0.007259	0.057244
0.025821	0.5	0.054133	0.5	0.007881	0.062222
0.027342	0.5	0.058281	0.5	0.008711	0.067615
0.028864	0.5	0.06243	0.5	0.010163	0.072385
