Adsorption isotherm of Ethanol on 0.1TPABr-0.05Na20-SiO2-40H2O
DOI: 10.1016/S0167-2991(02)80329-9
Adsorbate Ethanol: InChIKey LFQSCWFLJHTTHZ-UHFFFAOYSA-N
Temperature: 300 K
Tabular data in the source: 0
pressure (bar)	uptake (mmol/g)
0.00076233	0.115057
0.00122013	0.18953
0.00168502	0.359179
0.00206745	0.433703
0.00237552	0.521874
0.00321018	0.596092
0.00434887	0.704094
0.00548706	0.805298
0.00677498	0.892805
0.00821566	1.0074
0.00988197	1.11505
0.0114724	1.21594
0.0132136	1.31674
0.0146558	1.45173
0.0163226	1.56617
0.0183657	1.67356
0.0201074	1.78115
0.0223762	1.88159
0.0252485	1.98841
0.0282715	2.09513
