Adsorption isotherm of Ethanol on 0.36TPAOH-0.39HF-SIO2-34H20
DOI: 10.1016/S0167-2991(02)80329-9
Adsorbate Ethanol: InChIKey LFQSCWFLJHTTHZ-UHFFFAOYSA-N
Temperature: 300 K
Tabular data in the source: 0
pressure (bar)	uptake (cm3(STP)/g)
4.46e-05	3.00669
0.000368127	9.83939
0.000428891	13.9394
0.000509909	19.4061
0.000815247	25.0088
0.00158543	31.9768
0.004336	37.5718
0.00861225	41.1119
0.0106311	42.3357
0.0121953	42.8775
0.01866	44.0873
0.0202181	44.219
0.0271254	45.2908
0.0360273	45.9462
0.0453738	46.6003
0.0542737	47.119
0.0627208	47.0926
0.071841	47.474
0.0800719	47.8582
