Adsorption isotherm of Water on TPABr
DOI: 10.1016/s0167-2991(02)80329-9
Article source: Figure 4
Adsorbate Water: InChIKey XLYOFNOQVPJJNP-UHFFFAOYSA-N
Kind: experiment
Temperature: 300 K
Tabular data in the source: 0
pressure (bar)	uptake (g/g)
0	0
0.000545	0
0.002995	0
0.004907	0
0.005857	0
0.008284	0
0.008632	0
0.010884	0
0.014606	0
0.01807	0
0.021707	0
0.025085	0
0.028463	0
0.030984	0
0.031721	0
0.031879	0
