Adsorption isotherm of Water on 0.1TPABr-0.05Na20-SiO2-40H2O
DOI: 10.1016/S0167-2991(02)80329-9
Adsorbate Water: InChIKey XLYOFNOQVPJJNP-UHFFFAOYSA-N
Temperature: 300 K
Tabular data in the source: 0
pressure (bar)	uptake (mmol/g)
0.00106855	0.137388
0.00181782	0.326606
0.00256661	0.481362
0.00320802	0.58447
0.00438253	0.670119
0.0059837	0.755586
0.00726488	0.841191
0.00865225	0.892286
0.0111067	0.97738
0.0130279	1.06271
0.015376	1.16508
0.0196441	1.26663
0.0248731	1.43669
0.0303154	1.60665
0.0322363	1.67475
0.0330899	1.69161
0.0356511	1.77666
0.0368244	1.77616
