Adsorption isotherm of Ethanol on 0.1TPABr-0.05Na20-SiO2-40H2O
DOI: 10.1016/S0167-2991(02)80329-9
Adsorbate Ethanol: InChIKey LFQSCWFLJHTTHZ-UHFFFAOYSA-N
Temperature: 300 K
Tabular data in the source: 0
pressure (bar)	uptake (cm3(STP)/g)
0.000392432	11.4794
0.000962599	19.9514
0.00155505	29.9268
0.00347113	39.2146
0.00662578	42.0749
0.00841628	42.8893
0.0160148	45.599
0.0186904	46.1373
0.0258119	46.6616
0.0271518	47.0675
0.0347179	47.5904
0.0440603	47.9711
0.0520649	48.0827
0.0609607	48.3281
0.0702971	48.2989
0.0791969	48.8176
