Adsorption isotherm of Water on 0.36TPAOH-0.39HF-SIO2-34H20
DOI: 10.1016/S0167-2991(02)80329-9
Adsorbate Water: InChIKey XLYOFNOQVPJJNP-UHFFFAOYSA-N
Temperature: 300 K
Tabular data in the source: 0
pressure (bar)	uptake (cm3(STP)/g)
0.00319509	0.675676
0.00399606	1.21622
0.00709852	1.21622
0.00754492	1.75676
0.0104709	1.89189
0.0110922	2.02703
0.0141962	2.2973
0.0176572	2.97297
0.0214712	3.37838
0.0246703	4.72973
0.0277848	6.75676
0.0298499	11.2162
0.0310549	20.1351
0.031582	34.3243
0.0317784	52.5676
