Adsorption isotherm of Ethanol on 0.1TPAOH-SiO2-40H20
DOI: 10.1016/S0167-2991(02)80329-9
Adsorbate Ethanol: InChIKey LFQSCWFLJHTTHZ-UHFFFAOYSA-N
Temperature: 300 K
Tabular data in the source: 0
pressure (bar)	uptake (cm3(STP)/g)
0.000220775	14.8968
0.000597004	25.2829
0.00164214	35.8035
0.0106757	45.3424
0.0158087	46.693
0.018258	46.9587
0.0256058	47.7557
0.02717	48.2975
0.03473	48.4104
0.0440724	48.7911
0.0520771	48.9027
0.0616418	49.2827
0.0703133	49.3922
0.0785422	49.6397
