Adsorption isotherm of Water on 0.36TPAOH-0.39HF-SIO2-34H20
DOI: 10.1016/S0167-2991(02)80329-9
Adsorbate Water: InChIKey XLYOFNOQVPJJNP-UHFFFAOYSA-N
Temperature: 300 K
Tabular data in the source: 0
pressure (bar)	uptake (mmol/g)
0.00195	0
0.00405	0
0.00525034	0.0350053
0.00660017	0.0175026
0.0078	0
0.00922517	0.0175026
0.0107253	0.0350053
0.0120755	0.0525079
0.0130503	0.0350053
0.0144003	0.0350053
0.0161255	0.0525079
0.017776	0.105016
0.0187515	0.157524
0.0198767	0.175026
0.021002	0.210031
0.0217524	0.245037
0.0229524	0.245037
0.023703	0.315048
0.0248282	0.33255
0.0257289	0.402561
0.0274544	0.455069
0.0290301	0.525079
