Adsorption isotherm of Water on 0.1TPABr-0.05Na20-SiO2-40H2O
DOI: 10.1016/S0167-2991(02)80329-9
Adsorbate Water: InChIKey XLYOFNOQVPJJNP-UHFFFAOYSA-N
Temperature: 300 K
Tabular data in the source: 0
pressure (bar)	uptake (cm3(STP)/g)
0.000180466	0.538638
0.0007378	4.85112
0.00298725	10.5055
0.00486382	13.0601
0.00575261	13.4612
0.00824727	15.609
0.00860422	16.0121
0.0109192	17.7561
0.014567	20.0344
0.0180375	22.3133
0.0217731	24.4563
0.0249784	26.8711
0.0283619	29.42
0.0310426	33.0502
0.0315336	41.1382
0.0317842	53.5418
