Adsorption isotherm of Water on 0.1TPABr-0.05Na20-SiO2-40H2O
DOI: 10.1016/S0167-2991(02)80329-9
Adsorbate Water: InChIKey XLYOFNOQVPJJNP-UHFFFAOYSA-N
Temperature: 300 K
Tabular data in the source: 0
pressure (bar)	uptake (mmol/g)
0.00143462	0.0844316
0.00204064	0.187689
0.00264565	0.256178
0.00332501	0.289768
0.00430689	0.357601
0.00551387	0.390273
0.00672136	0.440329
0.00822932	0.455093
0.00996493	0.521616
0.0115493	0.571015
0.0132085	0.602904
0.0145677	0.687466
0.016226	0.684585
0.0183389	0.767836
0.0201504	0.851609
0.0223367	0.865198
0.0252788	0.947006
0.0281435	0.959412
