Adsorption isotherm of Water on 0.1TPAOH-SiO2-40H20
DOI: 10.1016/S0167-2991(02)80329-9
Adsorbate Water: InChIKey XLYOFNOQVPJJNP-UHFFFAOYSA-N
Temperature: 300 K
Tabular data in the source: 0
pressure (bar)	uptake (cm3(STP)/g)
0.000120585	5.40541
0.00121383	10.4054
0.0022919	12.8378
0.00318471	13.9189
0.00523944	16.6216
0.00595336	17.4324
0.00639897	17.8378
0.00684457	18.2432
0.00916043	20.1351
0.00969388	20.4054
0.0123635	22.1622
0.0156584	24.7297
0.0189525	27.1622
0.0223369	29.8649
0.0257204	32.4324
0.0290169	35.2703
0.0309096	40.5405
0.0315836	49.5946
