Adsorption isotherm of Ethanol on 0.36TPAOH-0.39HF-SIO2-34H20
DOI: 10.1016/S0167-2991(02)80329-9
Adsorbate Ethanol: InChIKey LFQSCWFLJHTTHZ-UHFFFAOYSA-N
Temperature: 300 K
Tabular data in the source: 0
pressure (bar)	uptake (mmol/g)
0.0870061	0.271336
0.10928	0.413787
0.163089	0.501971
0.174297	0.583372
0.217563	0.685123
0.239267	0.746173
0.261113	0.827574
0.28296	0.908974
0.304901	1.00394
0.348167	1.10569
0.370203	1.21423
0.392287	1.32954
0.425057	1.45165
0.479103	1.57375
0.575798	1.70941
0.651358	1.86543
0.865264	2.02823
1.50551	2.30635
2.05937	2.40132
2.75133	2.46915
3.51767	2.52342
