Adsorption isotherm of Ethanol on TPAOH/HF
DOI: 10.1016/s0167-2991(02)80329-9
Article source: Figure 4
Adsorbate Ethanol: InChIKey LFQSCWFLJHTTHZ-UHFFFAOYSA-N
Kind: experiment
Temperature: 300 K
Tabular data in the source: 0
pressure (bar)	uptake (g/g)
0.000862	0.352
0.000867	1.255
0.000953	25.38
0.000981	9.437
0.000992	9.685
0.001258	19.192
0.001663	32.106
0.004404	37.484
0.008746	41.157
0.011932	42.678
0.019033	44.106
0.019902	44.464
0.027006	44.995
0.035703	45.793
0.044982	46.501
0.053681	46.671
0.06209	47.021
0.071223	47.64
0.079777	48.169
