Adsorption isotherm of Water on 0.36TPAOH-0.39HF-SIO2-34H20
DOI: 10.1016/S0167-2991(02)80329-9
Adsorbate Water: InChIKey XLYOFNOQVPJJNP-UHFFFAOYSA-N
Temperature: 300 K
Tabular data in the source: 0
pressure (bar)	uptake (mmol/g)
0.191679	0.0693855
0.500237	0.0867318
0.744966	0.104078
1.01092	0.104078
1.09603	0.104078
1.23433	0.104078
1.39385	0.0867318
1.51092	0.104078
1.68118	0.121425
1.8409	0.173464
2.05367	0.173464
2.22388	0.173464
2.34095	0.19081
2.50062	0.225503
2.66014	0.208156
2.80918	0.242849
2.97939	0.242849
3.21362	0.312235
3.33069	0.329581
3.42648	0.346927
3.51183	0.433659
3.59717	0.520391
3.7036	0.537737
