Adsorption isotherm of Ethanol on TPAOH
DOI: 10.1016/s0167-2991(02)80329-9
Article source: Figure 4
Adsorbate Ethanol: InChIKey LFQSCWFLJHTTHZ-UHFFFAOYSA-N
Kind: experiment
Temperature: 300 K
Tabular data in the source: 0
pressure (bar)	uptake (g/g)
0.000857	0.361
0.000869	0.448
0.001278	11.299
0.001389	19.897
0.001402	19.819
0.001957	30.043
0.00353	39.1
0.006714	41.787
0.007728	42.201
0.008597	42.502
0.01613	45.454
0.018014	45.721
0.024972	46.611
0.026856	46.968
0.034395	47.409
0.043093	47.938
0.051503	48.108
0.060637	48.458
0.069482	48.449
0.078181	48.798
