Adsorption isotherm of Ethanol on 0.1TPABr-0.05Na20-SiO2-40H2O
DOI: 10.1016/S0167-2991(02)80329-9
Adsorbate Ethanol: InChIKey LFQSCWFLJHTTHZ-UHFFFAOYSA-N
Temperature: 300 K
Tabular data in the source: 0
pressure (bar)	uptake (mmol/g)
0.00172605	0.552248
0.00215815	0.707155
0.0028017	0.80812
0.00280548	0.915932
0.00323546	1.0102
0.00334591	1.11799
0.00366922	1.21227
0.003993	1.32003
0.00453035	1.43449
0.00464127	1.55576
0.00507172	1.6635
0.00550288	1.79145
0.00636094	1.92607
0.00679186	2.04729
0.00818325	2.18182
0.00989416	2.30281
0.017796	2.54406
0.0231316	2.61055
0.029214	2.67691
0.037642	2.71592
