Adsorption isotherm of Ethanol on 0.36TPAOH-0.39HF-SIO2-34H20
DOI: 10.1016/S0167-2991(02)80329-9
Adsorbate Ethanol: InChIKey LFQSCWFLJHTTHZ-UHFFFAOYSA-N
Temperature: 300 K
Tabular data in the source: 0
pressure (bar)	uptake (mmol/g)
0.00165084	0.0342226
0.00375118	0.0479116
0.00510253	0.102668
0.0065277	0.109512
0.00757905	0.164268
0.00908041	0.219024
0.0106568	0.27378
0.0120078	0.314847
0.0129096	0.390137
0.0143361	0.451737
0.016062	0.48596
0.0175637	0.554404
0.0184652	0.616006
0.0198169	0.68445
0.0208686	0.752896
0.0218454	0.828186
0.0228226	0.917165
0.0236498	1.00614
0.0247022	1.10197
0.0256789	1.17041
0.0274811	1.25939
0.0289833	1.34837
