Adsorption isotherm of Ethanol on TPAOH
DOI: 10.1016/s0167-2991(02)80329-9
Article source: Figure 4
Adsorbate Ethanol: InChIKey LFQSCWFLJHTTHZ-UHFFFAOYSA-N
Kind: experiment
Temperature: 300 K
Tabular data in the source: 0
pressure (bar)	uptake (g/g)
0.000722	0.896
0.000854	6.636
0.001257	19.64
0.00127	14.707
0.001957	35.329
0.002378	36.051
0.007438	42.324
0.010619	45.55
0.015257	46.621
0.017721	46.798
0.025114	48.046
0.026563	48.044
0.034102	48.664
0.043381	48.924
0.051936	49.005
0.06049	49.444
0.069189	49.525
0.077743	49.875
