Adsorption isotherm of Ethanol, Water on TPABr
DOI: 10.1016/s0167-2991(02)80329-9
Article source: Figure 5
Adsorbate Ethanol: InChIKey LFQSCWFLJHTTHZ-UHFFFAOYSA-N
Adsorbate Water: InChIKey XLYOFNOQVPJJNP-UHFFFAOYSA-N
Kind: experiment
Temperature: 300 K
Tabular data in the source: 0
pressure (bar)	Ethanol fraction	Ethanol uptake (g/g)	Water fraction	Water uptake (g/g)	total uptake (g/g)
0.000197	0.5	0.00103	0.5	0.00103	0.00103
0.001379	0.5	0.006177	0.5	0.0006	0.00618
0.002019	0.5	0.011949	0.5	0.00245	0.019383
0.002363	0.5	0.019583	0.5	0.003478	0.023096
0.002757	0.5	0.023295	0.5	0.004298	0.027634
0.003397	0.5	0.027003	0.5	0.004909	0.0332
0.004579	0.5	0.031738	0.5	0.006132	0.03814
0.005564	0.5	0.036678	0.5	0.006325	0.043081
0.006845	0.5	0.040792	0.5	0.007133	0.049465
0.008273	0.5	0.045728	0.5	0.008146	0.0544
0.009997	0.5	0.051281	0.5	0.009361	0.05954
0.011671	0.5	0.055594	0.5	0.009751	0.066746
0.013248	0.5	0.060321	0.5	0.010555	0.073328
0.014626	0.5	0.06629	0.5	0.011775	0.078679
0.016203	0.5	0.072256	0.5	0.012579	0.085056
0.01837	0.5	0.076977	0.5	0.013582	0.091017
0.020093	0.5	0.0817	0.5	0.014797	0.096981
0.022211	0.5	0.086627	0.5	0.016007	0.103557
0.025117	0.5	0.09175	0.5	0.016999	0.109301
0.028073	0.5	0.096044	0.5	0.017578	0.115248
