Adsorption isotherm of Water on TPAOH/HF
DOI: 10.1016/s0167-2991(02)80329-9
Article source: Figure 4
Adsorbate Water: InChIKey XLYOFNOQVPJJNP-UHFFFAOYSA-N
Kind: experiment
Temperature: 300 K
Tabular data in the source: 0
pressure (bar)	uptake (g/g)
0	0
0.003111	1.025
0.003975	1.281
0.007084	1.782
0.007515	1.778
0.010621	1.886
0.010967	2.015
0.014247	2.384
0.017701	2.882
0.021327	3.379
0.024526	4.665
0.027728	6.476
0.029823	10.783
0.030824	19.815
0.031509	33.959
0.031788	52.428
