Adsorption isotherm of Water on TPAOH
DOI: 10.1016/s0167-2991(02)80329-9
Article source: Figure 4
Adsorbate Water: InChIKey XLYOFNOQVPJJNP-UHFFFAOYSA-N
Kind: experiment
Temperature: 300 K
Tabular data in the source: 0
pressure (bar)	uptake (g/g)
0	0
0.00012	0
0.001182	0
0.00249	0
0.003013	0
0.005186	0
0.005964	0
0.006571	0
0.007006	0
0.009261	0
0.00978	0
0.012463	0
0.015583	0
0.01896	0
0.02234	0
0.025633	0
0.0291	0
0.030854	0
0.031598	0
