Adsorption isotherm of N-propane on Beta-CuL2
DOI: 10.1021/Ja002767x
Adsorbate N-propane: InChIKey ATUOYWHBWRKTHZ-UHFFFAOYSA-N
Temperature: 298 K
Tabular data in the source: 0
pressure (bar)	uptake (mol/mol)
0.00885536	0.0281124
0.0206625	0.0787149
0.041325	0.163052
0.0590357	0.213655
0.08265	0.283936
0.103313	0.328916
0.123975	0.385141
0.135782	0.413253
0.156445	0.441365
0.180059	0.466667
0.203673	0.489157
0.233191	0.508835
0.253854	0.522892
0.306986	0.54257
0.345359	0.553815
0.401443	0.567871
0.430961	0.576305
0.472286	0.584739
0.510659	0.58755
0.560839	0.595984
0.655297	0.601606
0.714332	0.601606
0.758609	0.604418
0.791079	0.61004
0.864874	0.607229
0.912102	0.612851
0.977041	0.612851
1.01837	0.615663
