Adsorption isotherm of Dichloromethane on Beta-CuL2
DOI: 10.1021/Ja002767x
Adsorbate Dichloromethane: InChIKey YMWUJEATGCHHMB-UHFFFAOYSA-N
Temperature: 298 K
Tabular data in the source: 0
pressure (bar)	uptake (mol/mol)
0.00270578	0.0542636
0.00540079	0.116667
0.0071556	0.189922
0.0107729	0.255039
0.0125672	0.29845
0.0207921	0.379845
0.0253245	0.453101
0.0317444	0.499225
0.0391118	0.52907
0.0455604	0.553488
0.0529349	0.577907
0.0594051	0.586047
0.0667904	0.602326
0.0806602	0.615891
0.0954594	0.626744
0.113043	0.632171
0.135257	0.637597
0.161177	0.64031
0.173209	0.643023
0.193574	0.645736
0.212088	0.64845
0.241715	0.64845
0.262999	0.656589
0.282442	0.656589
0.297252	0.659302
0.307436	0.659302
0.320394	0.662016
