Adsorption isotherm of Carbon Dioxide on PEI-50/SBA-15
DOI: 10.1016/j.micromeso.2012.09.023
Adsorbate Carbon Dioxide: InChIKey CURLTUGMZLYLDI-UHFFFAOYSA-N
Temperature: 348 K
Tabular data in the source: 0
pressure (bar)	uptake (mmol/g)
0.189062	1.88791
0.288827	2.33038
0.290366	2.18289
0.598592	2.65487
1.01428	2.83186
1.43059	2.94985
2.47381	3.00885
4.97749	3.15634
7.48209	3.21534
9.9867	3.27434
14.9968	3.30383
20.1117	3.30383
25.018	3.27434
29.82	3.24484
34.831	3.18584
39.8427	3.06785
44.6465	2.86136
45.0638	2.89086
