Adsorption isotherm of Carbon Dioxide on Carbon SBA-15
DOI: 10.1016/j.micromeso.2012.09.023
Adsorbate Carbon Dioxide: InChIKey CURLTUGMZLYLDI-UHFFFAOYSA-N
Temperature: 348 K
Tabular data in the source: 0
pressure (bar)	uptake (mmol/g)
1.04076	0.294985
1.45737	0.383481
2.39437	0.619469
5.20843	1.03245
7.60495	1.44543
10.0033	1.68142
12.5058	1.9469
15.0085	2.18289
17.6157	2.41888
20.119	2.59587
22.623	2.71386
24.9179	2.86136
27.9442	2.94985
30.2397	3.03835
34.9364	3.09735
39.738	3.09735
44.6447	3.03835
