Adsorption isotherm of Nitrogen on PEI-15/SBA-15
DOI: 10.1016/j.micromeso.2012.09.023
Adsorbate Nitrogen: InChIKey IJGRMHOSHXDMSA-UHFFFAOYSA-N
Temperature: 77 K
Tabular data in the source: 0
pressure (bar)	uptake (cm3(STP)/g)
0.00773093	56.2237
0.0283467	76.0064
0.0592705	92.4452
0.0747323	92.3925
0.0979251	102.24
0.115964	102.179
0.139157	112.026
0.154619	111.973
0.172657	115.221
0.190696	121.777
0.242236	131.528
0.293775	141.279
0.337584	154.365
0.386546	160.816
0.438086	170.567
0.476741	183.67
0.487048	183.635
0.533434	193.404
0.541165	199.995
0.572089	213.125
0.584974	206.464
0.628782	229.476
0.677745	252.471
0.726707	288.701
0.767939	434.149
0.785978	503.573
0.845248	533.151
0.873595	539.672
0.891634	549.537
0.922557	549.431
0.950904	572.497
0.963789	588.997
