Adsorption isotherm of Carbon Dioxide on PEI-50/SBA-15
DOI: 10.1016/j.micromeso.2012.09.023
Adsorbate Carbon Dioxide: InChIKey CURLTUGMZLYLDI-UHFFFAOYSA-N
Temperature: 298 K
Tabular data in the source: 0
pressure (bar)	uptake (mmol/g)
0.611525	1.41593
1.7579	1.59292
2.69644	1.68142
4.88789	1.74041
7.49687	1.79941
10.0018	1.82891
12.7158	1.82891
15.1163	1.85841
18.1431	1.88791
20.1261	1.9174
22.9442	1.9469
25.0316	1.9764
27.8502	1.9469
29.9379	1.9469
32.5472	1.9764
34.8434	2.0059
37.1395	2.0354
39.7491	2.0354
42.4628	2.0649
44.7589	2.0944
47.2629	2.21239
49.6631	2.27139
