Adsorption isotherm of Nitrogen on Carbon SBA-15
DOI: 10.1016/j.micromeso.2012.09.023
Adsorbate Nitrogen: InChIKey IJGRMHOSHXDMSA-UHFFFAOYSA-N
Temperature: 77 K
Tabular data in the source: 0
pressure (bar)	uptake (cm3(STP)/g)
0.0128849	152.162
0.0257698	185.206
0.0618474	211.554
0.0798863	221.419
0.0979251	231.284
0.118541	244.449
0.139157	250.997
0.159773	260.853
0.177811	267.409
0.198427	270.648
0.239659	283.743
0.296352	300.094
0.340161	316.489
0.389123	329.557
0.438086	342.626
0.494779	362.285
0.533434	378.698
0.577243	405.019
0.631359	418.07
0.672591	447.709
0.72413	629.519
0.796286	735.156
0.819478	764.856
0.829786	771.439
0.855556	777.968
0.876172	781.207
0.899365	784.437
0.91998	784.367
0.94575	794.205
0.963789	804.07
