Adsorption isotherm of Nitrogen on PEI-30/SBA-15
DOI: 10.1016/j.micromeso.2012.09.023
Adsorbate Nitrogen: InChIKey IJGRMHOSHXDMSA-UHFFFAOYSA-N
Temperature: 77 K
Tabular data in the source: 0
pressure (bar)	uptake (cm3(STP)/g)
0.00773093	26.4443
0.0257698	42.9269
0.0592705	56.0481
0.0798863	62.5956
0.0927711	65.8605
0.115964	69.0903
0.157196	75.5676
0.175234	78.8149
0.19585	82.0536
0.239659	88.522
0.291198	91.6553
0.347892	101.389
0.386546	107.875
0.440663	114.308
0.484472	124.085
0.533434	133.845
0.582397	140.296
0.628782	153.373
0.682899	176.351
0.731861	321.772
0.778247	354.702
0.793709	348.032
0.809171	357.906
0.827209	357.844
0.852979	364.374
0.868441	370.939
0.889057	374.178
0.91998	374.073
0.943173	387.229
0.961212	403.712
