Adsorption isotherm of Nitrogen on PEI-50/SBA-15
DOI: 10.1016/j.micromeso.2012.09.023
Adsorbate Nitrogen: InChIKey IJGRMHOSHXDMSA-UHFFFAOYSA-N
Temperature: 77 K
Tabular data in the source: 0
pressure (bar)	uptake (cm3(STP)/g)
0.0103079	6.58254
0.0309237	13.13
0.0618474	16.3335
0.0979251	16.2106
0.115964	19.458
0.154619	19.3263
0.17008	22.5825
0.198427	25.7948
0.239659	28.9632
0.291198	32.0965
0.340161	28.6209
0.389123	31.763
0.435509	34.9138
0.479318	34.7646
0.530857	37.8979
0.57982	44.3488
0.628782	47.4908
0.677745	53.9417
0.72413	80.2543
0.773093	96.6317
0.804017	96.5264
0.827209	99.7562
0.852979	106.286
0.871018	106.225
0.891634	112.772
0.925134	115.967
0.938019	122.541
0.956058	129.097
0.968943	132.362
