Adsorption isotherm of Carbon Dioxide on Carbon SBA-15
DOI: 10.1016/j.micromeso.2012.09.023
Adsorbate Carbon Dioxide: InChIKey CURLTUGMZLYLDI-UHFFFAOYSA-N
Temperature: 298 K
Tabular data in the source: 0
pressure (bar)	uptake (mmol/g)
0.411994	0.530973
0.827683	0.707965
1.0343	0.914454
1.44845	1.23894
2.48736	1.71091
4.98273	2.65487
7.58494	3.36283
9.87523	3.9528
14.9796	4.95575
20.0858	5.78171
24.8788	6.60767
29.7772	7.34513
32.5919	7.69912
34.8846	8.0531
39.783	8.79056
42.3883	9.20354
44.5763	9.58702
46.2431	9.9115
47.9105	10.177
