Adsorption isotherm of Nitrogen on PEI-65/SBA-15
DOI: 10.1016/j.micromeso.2012.09.023
Adsorbate Nitrogen: InChIKey IJGRMHOSHXDMSA-UHFFFAOYSA-N
Temperature: 77 K
Tabular data in the source: 0
pressure (bar)	uptake (cm3(STP)/g)
0.0335007	9.81237
0.0670014	9.69828
0.118541	12.8316
0.159773	9.38231
0.190696	12.5858
0.237082	9.11901
0.582397	7.94293
0.631359	7.77617
0.685476	7.59186
0.780824	7.26712
0.809171	7.17058
0.832363	7.09159
0.855556	10.3214
0.963789	9.9528
