Adsorption isotherm of Nitrogen on PEI-80/SBA-15
DOI: 10.1016/j.micromeso.2012.09.023
Adsorbate Nitrogen: InChIKey IJGRMHOSHXDMSA-UHFFFAOYSA-N
Temperature: 77 K
Tabular data in the source: 0
pressure (bar)	uptake (cm3(STP)/g)
0.0154619	6.56499
0.0695784	9.6895
0.118541	12.8316
0.157196	9.39109
0.193273	5.95939
0.244813	5.78386
0.324699	2.20296
0.3917	5.28359
0.435509	8.4432
0.487048	8.26767
0.536011	4.79209
0.584974	7.93416
0.680322	4.30059
0.72413	7.46021
0.783401	10.5672
0.852979	10.3302
0.901942	6.85462
