Adsorption isotherm of Carbon Dioxide on AmGND-bio-MOF-1
DOI: 10.1039/C3cc47031h
Adsorbate Carbon Dioxide: InChIKey CURLTUGMZLYLDI-UHFFFAOYSA-N
Temperature: 313 K
Tabular data in the source: 0
pressure (bar)	uptake (cm3(STP)/g)
0.0211115	0.733004
0.111252	3.94427
0.305619	11.2119
0.408435	14.7612
0.508435	18.3668
0.612661	22.0288
0.708435	25.4654
0.809844	28.5077
0.908435	31.8316
1.00139	34.7612
