Adsorption isotherm of Nitrogen on DiAmGND-bio-MOF-1
DOI: 10.1039/C3cc47031h
Adsorbate Nitrogen: InChIKey IJGRMHOSHXDMSA-UHFFFAOYSA-N
Temperature: 77 K
Tabular data in the source: 0
pressure (bar)	uptake (cm3(STP)/g)
0.00229475	194.947
0.00372489	300.778
0.00515504	85.5413
0.00515504	162.054
0.00515504	280.041
0.00944547	339.392
0.0323278	352.978
0.0966842	369.425
0.249709	383.726
0.292614	387.301
0.397014	392.307
0.548609	400.888
0.600095	403.033
0.698774	408.039
0.844649	414.474
0.903285	419.48
0.999104	420.91
