Adsorption isotherm of Carbon Dioxide on Bio-MOF-1
DOI: 10.1039/C3cc47031h
Adsorbate Carbon Dioxide: InChIKey CURLTUGMZLYLDI-UHFFFAOYSA-N
Temperature: 273 K
Tabular data in the source: 0
pressure (bar)	uptake (cm3(STP)/g)
0.0535059	6.76239
0.105619	13.523
0.154914	19.2694
0.205619	24.5089
0.252097	29.2413
0.307027	34.8187
0.40421	43.4384
0.507027	51.8892
0.611252	60.0018
0.705619	67.6075
0.811252	75.0441
0.912661	81.8046
1.00421	88.2272
