Adsorption isotherm of Carbon Dioxide on Bio-MOF-1
DOI: 10.1039/C3cc47031h
Adsorbate Carbon Dioxide: InChIKey CURLTUGMZLYLDI-UHFFFAOYSA-N
Temperature: 313 K
Tabular data in the source: 0
pressure (bar)	uptake (cm3(STP)/g)
0.160548	4.733
0.207027	6.31047
0.260548	8.00061
0.311252	9.63441
0.356323	11.1555
0.408435	12.733
0.454914	14.2541
0.556323	17.2964
0.657731	20.1133
0.757731	22.9865
0.856323	25.8598
0.914069	27.4372
0.963365	28.7893
1.0028	29.9161
