Adsorption isotherm of Nitrogen on GND-bio-MOF-1
DOI: 10.1039/C3cc47031h
Adsorbate Nitrogen: InChIKey IJGRMHOSHXDMSA-UHFFFAOYSA-N
Temperature: 77 K
Tabular data in the source: 0
pressure (bar)	uptake (cm3(STP)/g)
0.000865	329.381
0.00515504	373
0.0237469	385.156
0.0623608	397.312
0.0995445	403.033
0.345529	422.34
0.548609	431.636
0.75026	440.217
