Adsorption isotherm of Carbon Dioxide on GND-bio-MOF-1
DOI: 10.1039/C3cc47031h
Adsorbate Carbon Dioxide: InChIKey CURLTUGMZLYLDI-UHFFFAOYSA-N
Temperature: 313 K
Tabular data in the source: 0
pressure (bar)	uptake (cm3(STP)/g)
0.0239284	0.113286
0.156323	5.63441
0.356323	12.9584
0.457731	16.6203
0.560548	20.0569
0.65914	23.6626
0.75914	26.8738
0.85914	30.0288
0.960548	33.1837
