Adsorption isotherm of Nitrogen on Bio-MOF-1
DOI: 10.1039/C3cc47031h
Adsorbate Nitrogen: InChIKey IJGRMHOSHXDMSA-UHFFFAOYSA-N
Temperature: 77 K
Tabular data in the source: 0
pressure (bar)	uptake (cm3(STP)/g)
0.15246	408.039
0.302625	419.48
0.498554	429.491
0.698774	436.641
0.898994	444.507
0.996244	450.228
