Adsorption isotherm of Carbon Dioxide on AmGND-bio-MOF-1
DOI: 10.1039/C3cc47031h
Adsorbate Carbon Dioxide: InChIKey CURLTUGMZLYLDI-UHFFFAOYSA-N
Temperature: 273 K
Tabular data in the source: 0
pressure (bar)	uptake (cm3(STP)/g)
0.0168862	2.03
0.107027	15.2131
0.147872	22.4807
0.205619	29.9173
0.30421	41.5793
0.407027	52.5652
0.507027	63.0441
0.608435	74.03
0.711252	83.3258
0.812661	92.4525
1.00703	109.016
