Adsorption isotherm of Nitrogen on AmGND-bio-MOF-1
DOI: 10.1039/C3cc47031h
Adsorbate Nitrogen: InChIKey IJGRMHOSHXDMSA-UHFFFAOYSA-N
Temperature: 77 K
Tabular data in the source: 0
pressure (bar)	uptake (cm3(STP)/g)
0.000865	204.958
0.000865	290.767
0.000865	350.833
0.00229475	86.2564
0.00229475	165.629
0.025177	373
0.102405	390.162
0.199654	401.603
0.248279	405.178
0.398444	414.474
0.495694	419.48
0.547179	420.91
0.697344	426.63
0.793164	430.206
0.847509	432.351
0.997674	440.217
