Adsorption isotherm of Carbon Dioxide on DiAmGND-bio-MOF-1
DOI: 10.1039/C3cc47031h
Adsorbate Carbon Dioxide: InChIKey CURLTUGMZLYLDI-UHFFFAOYSA-N
Temperature: 273 K
Tabular data in the source: 0
pressure (bar)	uptake (cm3(STP)/g)
0.00561856	1.18493
0.0408298	6.93141
0.102802	16.9032
0.152097	24.0018
0.250689	36.8469
0.405619	54.7624
0.457731	60.1708
0.55914	71.1568
0.715478	86.368
0.760548	91.1004
0.864774	100.734
1.00844	114.086
