Adsorption isotherm of Carbon Dioxide on GND-bio-MOF-1
DOI: 10.1039/C3cc47031h
Adsorbate Carbon Dioxide: InChIKey CURLTUGMZLYLDI-UHFFFAOYSA-N
Temperature: 273 K
Tabular data in the source: 0
pressure (bar)	uptake (cm3(STP)/g)
0.250689	35.3258
0.353506	47.4948
0.456323	58.1427
0.55914	68.2835
0.660548	77.7483
0.714069	82.4807
0.761957	86.537
0.811252	90.7624
0.863365	95.1568
1.00421	106.819
