Adsorption isotherm of Carbon Dioxide on DiAmGND-bio-MOF-1
DOI: 10.1039/C3cc47031h
Adsorbate Carbon Dioxide: InChIKey CURLTUGMZLYLDI-UHFFFAOYSA-N
Temperature: 313 K
Tabular data in the source: 0
pressure (bar)	uptake (cm3(STP)/g)
0.0408298	0.169624
0.109844	3.21188
0.154914	5.18371
0.205619	7.26822
0.253506	9.35272
0.360548	13.6344
0.45914	17.5781
0.557731	21.5217
0.660548	25.4654
0.757731	29.1274
0.853506	32.902
0.911252	34.8738
0.960548	36.6203
1.0028	37.9724
