Adsorption isotherm of N-Hexane on Activated Carbon AT800R15t120
DOI: 10.1016/j.fuproc.2013.01.001
Adsorbate N-Hexane: InChIKey VLKZOEOYAKHREP-UHFFFAOYSA-N
Temperature: 298 K
Tabular data in the source: 0
pressure (bar)	uptake (mmol/g)
0.00262197	1.30876
0.00394648	1.45313
0.00559092	1.60695
0.00792059	1.76991
0.0113922	1.95726
0.0158966	2.14709
0.0208782	2.31772
0.0258091	2.47188
0.0354726	2.68988
0.0494982	2.95077
0.0690695	3.23695
0.085382	3.39712
0.099343	3.62308
0.124679	3.84854
0.14728	4.00659
