Adsorption isotherm of Toluene on Activated Carbon AT800R15t120
DOI: 10.1016/j.fuproc.2013.01.001
Adsorbate Toluene: InChIKey YXFVVABEGXRONW-UHFFFAOYSA-N
Temperature: 298 K
Tabular data in the source: 0
pressure (bar)	uptake (mmol/g)
0.00254254	1.3451
0.00450991	1.52022
0.00707511	1.73931
0.0110089	2.06439
0.0156545	2.36189
0.0198497	2.63693
0.0231906	2.83785
0.0279959	3.12977
0.0316541	3.45172
0.0329768	3.59545
0.034922	3.88523
0.0363812	4.31999
0.0369819	4.86256
0.0375924	5.56331
