Adsorption isotherm of N-Hexane on Activated Carbon AT600R1t30
DOI: 10.1016/j.fuproc.2013.01.001
Adsorbate N-Hexane: InChIKey VLKZOEOYAKHREP-UHFFFAOYSA-N
Temperature: 298 K
Tabular data in the source: 0
pressure (bar)	uptake (mmol/g)
0.000894646	1.70009
0.00258256	1.89525
0.0051832	2.0624
0.0117426	2.32707
0.0163855	2.42263
0.0258091	2.58377
0.033897	2.70073
0.0550338	2.97461
0.0756396	3.13439
0.0963792	3.31607
0.112138	3.48016
0.142886	3.71163
0.173977	4.07162
0.184842	4.27309
0.196385	4.48452
