Adsorption isotherm of Toluene on Activated Carbon AT400R1t75
DOI: 10.1016/j.fuproc.2013.01.001
Adsorbate Toluene: InChIKey YXFVVABEGXRONW-UHFFFAOYSA-N
Temperature: 298 K
Tabular data in the source: 0
pressure (bar)	uptake (mmol/g)
0.00238089	2.14802
0.00288145	2.25771
0.00333236	2.38377
0.00410692	2.53977
0.0049254	2.68158
0.00580062	2.84416
0.00728	3.04404
0.00881055	3.25796
0.00991527	3.36287
0.0114669	3.51864
0.0129047	3.66498
0.0151978	3.81741
0.0169486	3.95822
0.0192479	4.12285
0.0214654	4.25562
0.0241568	4.41259
0.027937	4.57535
0.0305945	4.76565
0.0347449	5.10056
0.0363598	5.48378
