Adsorption isotherm of N-Hexane on Activated Carbon AT800R15t120
DOI: 10.1016/j.fuproc.2013.01.001
Adsorbate N-Hexane: InChIKey VLKZOEOYAKHREP-UHFFFAOYSA-N
Temperature: 298 K
Tabular data in the source: 0
pressure (bar)	uptake (mmol/g)
0.00262197	1.26729
0.00550689	1.73465
0.0124759	2.09587
0.0182179	2.25333
0.0282642	2.47188
0.0344143	2.58377
0.0584707	2.88036
0.0779657	3.08434
0.0978499	3.25001
0.117351	3.43839
0.149527	3.66709
0.179327	4.05526
0.184842	4.23883
0.187662	4.61266
0.190526	4.97923
0.193433	5.10093
