Adsorption isotherm of Toluene on Activated Carbon AT400R1t75
DOI: 10.1016/j.fuproc.2013.01.001
Adsorbate Toluene: InChIKey YXFVVABEGXRONW-UHFFFAOYSA-N
Temperature: 298 K
Tabular data in the source: 0
pressure (bar)	uptake (mmol/g)
0.00238089	2.41637
0.00445689	2.66947
0.00708423	2.92249
0.0110576	3.27274
0.0151978	3.55064
0.0199603	3.85214
0.022875	4.01236
0.028192	4.29433
0.0317269	4.65897
0.0323088	4.74412
0.0341191	4.98639
0.0370267	6.08565
