Adsorption isotherm of N-Hexane on Activated Carbon AT600R1t30
DOI: 10.1016/j.fuproc.2013.01.001
Adsorbate N-Hexane: InChIKey VLKZOEOYAKHREP-UHFFFAOYSA-N
Temperature: 298 K
Tabular data in the source: 0
pressure (bar)	uptake (mmol/g)
0.000894646	1.50673
0.00159068	1.67294
0.00225349	1.79141
0.00309725	1.88764
0.00487853	2.04586
0.00640734	2.16445
0.00949911	2.32707
0.0130558	2.47188
0.0202553	2.66832
0.0319046	2.89198
0.0451988	3.08434
0.0584707	3.27627
0.0907141	3.50828
0.12096	3.69673
0.161289	3.911
