Adsorption isotherm of Toluene on Activated Carbon AT600R1t30
DOI: 10.1016/j.fuproc.2013.01.001
Adsorbate Toluene: InChIKey YXFVVABEGXRONW-UHFFFAOYSA-N
Temperature: 298 K
Tabular data in the source: 0
pressure (bar)	uptake (mmol/g)
0.00258378	1.35967
0.00449758	1.67451
0.00721415	2.00698
0.0112604	2.46054
0.0150603	2.79311
0.0192479	3.11374
0.0232946	3.43987
0.027937	3.783
0.0314399	4.1982
0.0335047	4.41259
0.035062	4.78728
0.036031	5.19378
0.0373646	5.584
0.0377057	5.92255
