Adsorption isotherm of Toluene on Activated Carbon AT600R1t30
DOI: 10.1016/j.fuproc.2013.01.001
Adsorbate Toluene: InChIKey YXFVVABEGXRONW-UHFFFAOYSA-N
Temperature: 298 K
Tabular data in the source: 0
pressure (bar)	uptake (mmol/g)
0.00258378	1.21966
0.00315554	1.35353
0.00398315	1.52331
0.00503683	1.72632
0.00599809	1.88843
0.00698854	2.03786
0.00832227	2.21713
0.00943546	2.39257
0.0112362	2.59597
0.012879	2.80139
0.0153368	3.04782
0.0180655	3.32497
0.0212797	3.6372
0.0245243	3.91434
0.0288876	4.24712
0.0329309	4.55832
