Adsorption isotherm of N-Hexane on Activated Carbon AT400R1t75
DOI: 10.1016/j.fuproc.2013.01.001
Adsorbate N-Hexane: InChIKey VLKZOEOYAKHREP-UHFFFAOYSA-N
Temperature: 298 K
Tabular data in the source: 0
pressure (bar)	uptake (mmol/g)
0.000867955	2.23527
0.00243076	2.50191
0.00502856	2.71162
0.0117426	3.01075
0.0161392	3.17247
0.0258091	3.38348
0.0344143	3.52243
0.0575918	3.84854
0.0733829	4.03897
0.0963792	4.30762
0.117351	4.46651
0.145066	4.68752
0.173977	5.16289
0.190526	5.48418
0.193433	5.80206
