Adsorption isotherm of N-Hexane on Activated Carbon AT400R1t75
DOI: 10.1016/j.fuproc.2013.01.001
Adsorbate N-Hexane: InChIKey VLKZOEOYAKHREP-UHFFFAOYSA-N
Temperature: 298 K
Tabular data in the source: 0
pressure (bar)	uptake (mmol/g)
0.000829403	1.93377
0.00110594	2.0624
0.00152002	2.14709
0.00221962	2.31772
0.00349617	2.512
0.00534259	2.71162
0.00804145	2.90364
0.0110523	3.09678
0.0154224	3.25001
0.0215203	3.48016
0.0309527	3.68188
0.0406525	3.89529
0.0558736	4.12108
0.0840987	4.39518
0.115587	4.64994
0.156477	4.91947
