Adsorption isotherm of Toluene on Activated Carbon AT800R15t120
DOI: 10.1016/j.fuproc.2013.01.001
Adsorbate Toluene: InChIKey YXFVVABEGXRONW-UHFFFAOYSA-N
Temperature: 298 K
Tabular data in the source: 0
pressure (bar)	uptake (mmol/g)
0.00248085	1.12867
0.00292223	1.21964
0.00367515	1.35612
0.00458437	1.51404
0.0054	1.6294
0.00679132	1.82658
0.00806537	1.94978
0.0100607	2.15914
0.0114689	2.3427
0.0145424	2.56269
0.0172706	2.83785
0.0218989	3.14257
0.0260072	3.40973
0.0308861	3.66954
0.0363812	3.99778
