Adsorption isotherm of Nitrogen on Ni/MWCNT
DOI: 10.1016/j.materresbull.2013.09.022
Article source: Figure 5b
Adsorbate Nitrogen: InChIKey IJGRMHOSHXDMSA-UHFFFAOYSA-N
Kind: experiment
Temperature: 77 K
Tabular data in the source: 0
pressure (bar)	uptake (cm3(STP)/g)
0.006957	39.2523
0.008284	28.0374
0.03703	54.2056
0.03835	41.1215
0.057462	42.9907
0.0575	54.2056
0.079303	44.8598
0.079341	56.0748
0.103866	44.8598
0.103911	57.9439
0.127078	48.5981
0.127116	59.8131
0.150283	50.4673
0.150316	59.8131
0.172124	52.3364
0.172149	59.8131
0.196688	52.3364
0.196713	59.8131
0.218522	52.3364
0.21856	63.5514
0.240369	56.0748
0.240401	65.4206
0.264946	59.8131
0.286786	61.6822
0.327726	61.6822
0.327789	80.3738
0.371471	84.1121
0.376859	63.5514
0.417875	85.9813
0.423289	72.8972
0.464286	89.7196
0.469693	74.7664
0.512061	93.4579
0.514739	78.5047
0.557114	99.0654
0.561163	85.9813
0.600795	102.804
0.60485	91.5888
0.648589	112.15
0.64989	93.4579
0.695006	117.757
0.696321	102.804
0.737362	132.71
0.741379	110.28
0.748254	125.234
0.751034	140.187
0.772817	125.234
0.793319	134.579
0.815191	145.794
0.827683	207.477
0.839825	166.355
0.8508	183.178
0.852521	287.85
0.865135	385.047
0.876447	500.935
0.882474	267.29
0.883576	590.654
0.889354	684.112
0.892421	783.178
0.895068	358.879
0.899614	891.589
0.900826	446.729
0.905302	558.879
0.905436	998.131
0.908421	672.897
0.910162	783.178
0.913274	895.327
0.914887	968.224
0.915014	1005.61
0.927303	1007.48
