Adsorption isotherm of Nitrogen on MWCNT
DOI: 10.1016/j.materresbull.2013.09.022
Article source: Figure 5a
Adsorbate Nitrogen: InChIKey IJGRMHOSHXDMSA-UHFFFAOYSA-N
Kind: experiment
Temperature: 77 K
Tabular data in the source: 0
pressure (bar)	uptake (cm3(STP)/g)
0.009553	21.2219
0.028658	50.1608
0.055951	52.09
0.081879	57.8778
0.09689	69.4534
0.105078	55.9486
0.120089	71.3826
0.129641	55.9486
0.141923	73.3119
0.151476	59.8071
0.166487	75.2412
0.176039	61.7363
0.185592	77.1704
0.195145	61.7363
0.210155	77.1704
0.218343	59.8071
0.233355	79.0997
0.241543	67.5241
0.256554	84.8875
0.266106	69.4534
0.283847	86.8167
0.289305	69.4534
0.327515	90.6752
0.334338	73.3119
0.372549	94.5338
0.380737	81.0289
0.421676	98.3923
0.427135	86.8167
0.465344	106.109
0.473532	90.6752
0.513107	109.968
0.51993	98.3923
0.560869	115.756
0.566329	106.109
0.607268	121.543
0.611362	111.897
0.650936	129.26
0.657759	115.756
0.697334	140.836
0.700064	125.402
0.709616	142.765
0.745097	156.27
0.753285	142.765
0.761473	165.916
0.787401	187.138
0.794224	158.199
0.8106	206.431
0.820153	229.582
0.825611	181.35
0.835163	192.926
0.846081	206.431
0.852904	324.116
0.861092	231.511
0.870644	445.659
0.881562	551.768
0.888385	657.878
0.889749	339.55
0.892479	775.563
0.902032	906.752
0.903395	451.447
0.906125	571.061
0.90749	1028.3
0.908855	667.524
0.910219	1072.67
0.912948	858.521
0.915678	951.125
0.917043	1088.1
0.918407	1041.8
0.926595	1084.24
0.933418	1088.1
