Adsorption isotherm of Carbon Dioxide on [Co2(pbdc)2(bimb)0.5 (H2O)4 (DMF)0.25]n
DOI: 10.1039/C4ta01900h
Adsorbate Carbon Dioxide: InChIKey CURLTUGMZLYLDI-UHFFFAOYSA-N
Temperature: 273 K
Tabular data in the source: 0
pressure (bar)	uptake (cm3(STP)/g)
0.0494103	7.26886
0.101582	12.4486
0.153726	17.1477
0.200042	20.7371
0.249213	23.8398
0.301246	26.616
0.356133	28.9055
0.399494	31.219
0.451481	33.194
0.500577	35.0148
0.552537	36.5091
0.604496	38.0035
0.650683	39.3495
0.705533	40.9981
0.751683	41.7032
0.800752	43.0433
0.855583	44.3714
