Adsorption isotherm of Nitrogen on [Co2(pbdc)2(bimb)0.5 (H2O)4 (DMF)0.25]n
DOI: 10.1039/C4ta01900h
Adsorbate Nitrogen: InChIKey IJGRMHOSHXDMSA-UHFFFAOYSA-N
Temperature: 77 K
Tabular data in the source: 0
pressure (bar)	uptake (cm3(STP)/g)
0.0218831	1.40365
0.0292577	1.382
0.0440068	1.3387
0.0562977	1.30261
0.075903	1.61203
0.090592	1.93588
0.105281	2.25973
0.154385	2.48254
0.203428	3.07251
0.252471	3.66247
0.299057	4.25965
0.345582	5.22398
0.397143	5.43958
0.451043	6.38226
0.49523	6.61951
0.546732	7.20226
0.600692	7.77779
0.64236	8.3894
0.701297	8.58335
0.75034	9.17331
0.801842	9.75606
0.850825	10.7132
0.895012	10.9504
0.949032	11.1588
0.990761	11.4033
