Adsorption isotherm of Methane on [Co2(pbdc)2(bimb)0.5 (H2O)4 (DMF)0.25]n
DOI: 10.1039/C4ta01900h
Adsorbate Methane: InChIKey VNWKTOKETHGBQD-UHFFFAOYSA-N
Temperature: 273 K
Tabular data in the source: 0
pressure (bar)	uptake (cm3(STP)/g)
0.0517241	1.97557
0.103448	2.6691
0.152299	3.52886
0.204023	4.22239
0.25	4.60737
0.304598	5.45517
0.356322	5.98843
0.405172	6.52769
0.451149	7.07293
0.505747	7.60021
0.551724	8.14545
0.597701	8.53043
0.652299	9.05771
0.701149	9.43671
0.75	9.65545
0.804598	10.1827
0.856322	10.2352
0.905172	10.454
0.956897	10.827
