Adsorption isotherm of Carbon Dioxide on [Co2(pbdc)2(bimb)0.5 (H2O)4 (DMF)0.25]n
DOI: 10.1039/C4ta01900h
Adsorbate Carbon Dioxide: InChIKey CURLTUGMZLYLDI-UHFFFAOYSA-N
Temperature: 273 K
Tabular data in the source: 0
pressure (bar)	uptake (cm3(STP)/g)
0.00294615	1.11566
0.0116368	1.89883
0.0261459	3.63143
0.040655	5.36402
0.0464642	6.1532
0.058064	7.41108
0.0638917	8.52074
0.0754823	9.61839
0.0899545	10.71
0.0986728	11.9739
0.150789	16.1923
0.202869	19.7697
0.25492	22.8664
0.301209	25.975
0.353214	28.2705
0.40522	30.566
0.448535	32.0784
0.503403	34.0474
0.555381	35.8622
0.604459	37.3625
0.650646	38.7086
0.705478	40.0367
0.754546	41.3767
0.803615	42.7168
0.852656	43.5762
0.904597	44.75
0.953656	45.9299
0.999797	46.4748
