Adsorption isotherm of Hydrogen on [Co2(pbdc)2(bimb)0.5 (H2O)4 (DMF)0.25]n
DOI: 10.1039/C4ta01900h
Adsorbate Hydrogen: InChIKey UFHFLCQGNIYNRP-UHFFFAOYSA-N
Temperature: 77 K
Tabular data in the source: 0
pressure (bar)	uptake (cm3(STP)/g)
0.00557038	10.9928
0.00605149	8.05563
0.00899079	5.11122
0.00976508	15.3842
0.0161173	21.6041
0.0276264	26.3409
0.0363766	32.9207
0.0429694	37.672
0.0546589	41.3074
0.0613719	45.3244
0.0753994	49.6869
0.0799549	51.8754
0.08433	55.1653
0.141763	64.5379
0.189603	72.4709
0.237985	77.0995
0.286187	82.8295
0.339545	87.0766
0.383131	90.9853
0.431693	94.5125
0.482894	96.931
0.534035	99.7166
0.58038	101.782
0.629182	103.841
0.6853	106.245
0.734103	108.304
0.783026	109.628
0.831708	112.421
0.878173	113.752
0.929615	114.702
0.980876	116.753
