Adsorption isotherm of Nitrogen on [Co2(pbdc)2(bimb)0.5 (H2O)4 (DMF)0.25]n
DOI: 10.1039/C4ta01900h
Adsorbate Nitrogen: InChIKey IJGRMHOSHXDMSA-UHFFFAOYSA-N
Temperature: 273 K
Tabular data in the source: 0
pressure (bar)	uptake (cm3(STP)/g)
0.0143678	-0.510702
0.0373563	-0.398338
0.0603448	-0.285975
0.0862069	-0.339854
0.106322	-0.38176
0.155172	-0.00276304
0.201149	0.221964
0.25	0.280449
0.301724	0.493203
0.356322	0.539714
0.408046	0.752468
0.451149	0.502413
0.505747	0.548924
0.557471	0.601422
0.606322	0.820163
0.658046	0.872661
0.704023	0.776875
0.755747	0.989629
0.813218	1.03015
0.859195	1.09462
0.908046	0.992853
0.954023	1.21758
1.00575	1.10982
