Adsorption isotherm of Carbon Dioxide on [Co2(pbdc)2(bimb)0.5 (H2O)4 (DMF)0.25]n
DOI: 10.1039/C4ta01900h
Adsorbate Carbon Dioxide: InChIKey CURLTUGMZLYLDI-UHFFFAOYSA-N
Temperature: 195 K
Tabular data in the source: 0
pressure (bar)	uptake (cm3(STP)/g)
-0.00220649	56.0008
-0.000973049	24.696
-0.000822295	20.8699
-0.000685246	17.3915
-0.000575607	14.6089
-0.000137049	3.47831
-8.22295e-05	2.08699
6.85246e-06	59.8261
0.00050023	47.3042
0.00110325	31.9996
0.0012403	28.5213
0.00200777	9.04278
0.00220649	63.9992
0.00417315	74.0855
0.00425538	71.9985
0.00443354	67.4767
0.00866836	79.997
0.0133143	82.0823
0.017974	83.8198
0.0344268	86.2489
0.0461513	88.6796
0.0555118	91.1111
0.0743286	93.5394
0.095537	95.2711
0.119109	97.002
0.145087	97.6887
0.171079	98.0275
0.197056	98.7141
0.223061	98.705
0.246675	99.3925
0.270288	100.08
0.293929	100.072
0.319934	100.063
0.343562	100.402
0.369553	100.741
0.397922	100.731
0.42155	101.071
0.445204	100.715
0.468832	101.054
0.492459	101.394
0.520814	101.732
0.546819	101.723
0.57046	101.715
0.596466	101.706
0.620106	101.697
0.655541	102.381
0.676817	102.373
0.700445	102.713
0.724086	102.705
0.750091	102.696
0.76899	103.037
0.797359	103.027
0.821	103.019
0.851733	103.008
0.872997	103.349
0.901366	103.339
0.922629	103.679
0.948607	104.366
0.976962	104.704
0.988783	104.7
