Adsorption isotherm of Carbon Dioxide on [Co2(pbdc)2(bimb)0.5 (H2O)4 (DMF)0.25]n
DOI: 10.1039/C4ta01900h
Adsorbate Carbon Dioxide: InChIKey CURLTUGMZLYLDI-UHFFFAOYSA-N
Temperature: 195 K
Tabular data in the source: 0
pressure (bar)	uptake (cm3(STP)/g)
0.0436502	92.1587
0.0694908	96.3237
0.0954274	98.0538
0.119027	99.089
0.145005	99.7757
0.170983	100.462
0.194596	101.15
0.222965	101.14
0.244242	101.132
0.270234	101.471
0.293847	102.159
0.322203	102.497
0.34348	102.489
0.364756	102.482
0.395476	102.819
0.419103	103.159
0.44038	103.151
0.468749	103.141
0.492377	103.481
0.520732	103.819
0.546751	103.462
0.568014	103.802
0.594019	103.793
0.620011	104.132
0.648366	104.47
0.676735	104.46
0.695662	104.106
0.724017	104.444
0.747644	104.783
0.768908	105.124
0.797277	105.114
0.825646	105.104
0.844545	105.445
0.872914	105.436
0.896555	105.427
0.927289	105.417
0.950916	105.756
