Adsorption isotherm of Hydrogen on [Co2(pbdc)2(bimb)0.5 (H2O)4 (DMF)0.25]n
DOI: 10.1039/C4ta01900h
Adsorbate Hydrogen: InChIKey UFHFLCQGNIYNRP-UHFFFAOYSA-N
Temperature: 87 K
Tabular data in the source: 0
pressure (bar)	uptake (cm3(STP)/g)
0.00257846	-0.741515
0.00461567	1.82131
0.00923135	3.64262
0.0207405	8.37948
0.0250554	12.0365
0.036745	15.6719
0.0484345	19.3073
0.0576659	22.95
0.0694155	26.2182
0.076309	29.1338
0.083443	30.5807
0.0930351	32.0204
0.150348	42.1274
0.198489	48.2246
0.241955	52.8677
0.292734	57.8562
0.341357	61.0162
0.389859	64.9105
0.438542	67.7034
0.489743	70.1219
0.540943	72.5403
0.58483	74.6133
0.636091	76.6647
0.692329	78.3344
0.746108	80.0114
0.794911	82.07
0.834001	83.4231
0.887901	84.3658
0.934306	86.0644
0.978312	87.4031
