Adsorption isotherm of Methane on [Co2(pbdc)2(bimb)0.5 (H2O)4 (DMF)0.25]n
DOI: 10.1039/C4ta01900h
Adsorbate Methane: InChIKey VNWKTOKETHGBQD-UHFFFAOYSA-N
Temperature: 273 K
Tabular data in the source: 0
pressure (bar)	uptake (cm3(STP)/g)
0.0143678	-0.029933
0.0344828	0.248674
0.0574713	0.521294
0.0747126	0.805887
0.0948276	1.08449
0.106322	1.2208
0.158046	1.75407
0.201149	2.46555
0.252874	3.15908
0.301724	3.85859
0.356322	4.38587
0.402299	5.25162
0.454023	5.78489
0.502874	6.16389
0.551724	6.54288
0.600575	7.40265
0.655172	7.92993
0.701149	8.31491
0.747126	8.6999
0.804598	9.06093
0.853448	9.27968
0.908046	9.96721
0.956897	10.3462
1	10.7372
