Adsorption isotherm of Nitrogen on [Zn9(Me2bta)12(NO3)6*3DMF]
DOI: 10.1039/C3ta01322g
Adsorbate Nitrogen: InChIKey IJGRMHOSHXDMSA-UHFFFAOYSA-N
Temperature: 77 K
Tabular data in the source: 0
pressure (bar)	uptake (cm3(STP)/g)
-8.01495e-05	1.48711
0.0034264	36.4262
0.0135452	48.679
0.0295551	51.6295
0.0617151	54.928
0.0831952	56.3835
0.0993052	57.4751
0.11815	57.8192
0.13967	58.5311
0.158496	59.247
0.180056	59.2153
0.201576	59.9272
0.260827	60.5838
0.301232	60.8962
0.352417	61.1928
0.406278	61.8573
0.454768	62.1579
0.505934	62.8263
0.55714	62.7511
0.608305	63.4196
0.65949	63.7162
0.710675	64.0128
0.761841	64.6812
0.813006	65.3496
0.834527	66.0615
0.864152	66.3898
0.885672	67.1017
0.915237	68.5453
0.939452	69.2533
0.966363	69.9573
0.985148	71.4167
0.995868	72.5162
1.00118	73.9954
1.00649	75.4746
