Adsorption isotherm of Methane on [Zn9(Me2bta)12(NO3)6*3DMF]
DOI: 10.1039/C3ta01322g
Adsorbate Methane: InChIKey VNWKTOKETHGBQD-UHFFFAOYSA-N
Temperature: 195 K
Tabular data in the source: 0
pressure (bar)	uptake (cm3(STP)/g)
0.00564413	0.901495
0.0112882	1.80299
0.0455422	1.75689
0.105486	1.67622
0.133999	2.09239
0.168221	2.50088
0.245293	2.39716
0.288077	2.79412
0.405079	3.09121
0.456395	3.93124
0.530548	4.74053
0.599056	4.64833
0.670321	5.91606
0.738764	6.73304
0.80432	8.00845
0.875617	8.82159
0.946786	11.4531
1.01805	12.7208
