Adsorption isotherm of Nitrogen on [Zn9(Me2bta)12(NO3)6*3DMF]
DOI: 10.1039/C3ta01322g
Adsorbate Nitrogen: InChIKey IJGRMHOSHXDMSA-UHFFFAOYSA-N
Temperature: 87 K
Tabular data in the source: 0
pressure (bar)	uptake (cm3(STP)/g)
-0.000200374	3.71777
0.0636186	19.6092
0.0824639	19.9533
0.103984	20.6652
0.125524	21.0054
0.14435	21.7212
0.163214	21.6936
0.184755	22.0337
0.206295	22.3738
0.254766	23.0462
0.305931	23.7146
0.357116	24.0112
0.408301	24.3079
0.459467	24.9763
0.510673	24.9011
0.561838	25.5695
0.613003	26.2379
0.661494	26.5385
0.715375	26.8312
0.763845	27.5036
0.81499	28.5437
0.836511	29.2557
0.866116	29.9557
0.893046	30.2879
0.917221	31.7394
0.944091	33.187
0.968226	35.3821
0.994835	41.6627
1.0026	47.5993
1.00276	44.6251
1.01038	53.1641
