Adsorption isotherm of Hydrogen on [Zn9(Me2bta)12(NO3)6*3DMF]
DOI: 10.1039/C3ta01322g
Adsorbate Hydrogen: InChIKey UFHFLCQGNIYNRP-UHFFFAOYSA-N
Temperature: 77 K
Tabular data in the source: 0
pressure (bar)	uptake (cm3(STP)/g)
-0.00555035	2.98212
-0.00325607	10.4137
-0.00301562	5.95238
0.00201375	12.6364
0.00448837	16.722
0.0120925	25.6328
0.0123932	20.0562
0.0149278	23.0264
0.0200374	28.2234
0.0253072	30.4461
0.0305369	33.4124
0.0385018	35.6312
0.0465268	36.7347
0.0545116	38.5817
0.0651715	40.7966
0.0758515	42.6396
0.0865114	44.8545
0.105256	47.0574
0.121306	49.2644
0.140072	51.0956
0.164227	52.9188
0.193772	54.7342
0.225972	57.2892
0.263602	59.0927
0.303907	61.264
0.360383	63.4116
0.419532	65.9271
0.494894	67.6752
0.572948	69.4194
0.672545	71.5037
0.78294	73.2004
0.914897	74.8655
