Adsorption isotherm of Carbon Dioxide on [Zn9(Me2bta)12(NO3)6*3DMF]
DOI: 10.1039/C3ta01322g
Adsorbate Carbon Dioxide: InChIKey CURLTUGMZLYLDI-UHFFFAOYSA-N
Temperature: 195 K
Tabular data in the source: 0
pressure (bar)	uptake (cm3(STP)/g)
-0.00100556	14.0923
-0.00064875	9.09178
-0.00038925	5.45507
0.00123263	22.7256
0.001557	18.1797
0.00376274	27.2677
0.00606581	34.9918
0.00632531	31.3551
0.0115477	38.1663
0.0392818	49.4926
0.107044	59.8559
0.129652	63.0073
0.163679	66.1434
0.234652	71.5024
0.28292	75.0738
0.399468	81.7351
0.450687	83.9389
0.527467	87.9265
0.59286	91.4749
0.661141	94.5648
0.732244	98.1055
0.803315	102.101
0.868709	105.649
0.93699	108.739
1.00521	112.738
