Adsorption isotherm of Hydrogen on [Zn9(Me2bta)12(NO3)6*3DMF]
DOI: 10.1039/C3ta01322g
Adsorbate Hydrogen: InChIKey UFHFLCQGNIYNRP-UHFFFAOYSA-N
Temperature: 87 K
Tabular data in the source: 0
pressure (bar)	uptake (cm3(STP)/g)
0.00518968	3.70986
0.00774444	6.30834
0.0155891	10.7578
0.0157093	8.52713
0.0234537	14.8355
0.0368086	17.0464
0.0447534	19.6369
0.0553934	22.2235
0.0687282	24.8062
0.071343	26.2894
0.0766129	28.5121
0.0873329	29.6116
0.106158	30.3275
0.122208	32.5344
0.140972	34.3656
0.167783	36.9285
0.191898	39.4953
0.226813	41.6746
0.261748	43.482
0.307443	45.6455
0.358509	48.1728
0.420334	51.056
0.487609	52.816
0.573731	54.9201
0.67061	57.3802
0.780927	60.564
