Adsorption isotherm of Methane on AlPO4-5
DOI: 10.1021/Jp010702q
Adsorbate Methane: InChIKey VNWKTOKETHGBQD-UHFFFAOYSA-N
Temperature: 77 K
Tabular data in the source: 0
pressure (bar)	uptake (molecules/unitcell)
1.07e-08	0.133017
1.05e-07	1.3801
1.09e-06	2.81024
1.16e-05	3.89715
0.00123096	4.00012
0.0112538	4.01157
0.107033	4.801
0.940614	5.80782
11.7967	6.01377
12365.8	6.09385
