Adsorption isotherm of Methane on AlPO4-5
DOI: 10.1021/Jp010702q
Adsorbate Methane: InChIKey VNWKTOKETHGBQD-UHFFFAOYSA-N
Temperature: 77 K
Tabular data in the source: 0
pressure (bar)	uptake (molecules/unitcell)
1.2e-08	0.0872525
4.25e-08	0.224546
1.23e-07	2.90177
3.45e-07	3.7713
1.13e-06	3.97724
1.16e-05	4.05733
3.12e-05	4.25183
6.61e-05	5.30441
0.000216	5.64765
0.000516	5.84215
0.00138589	5.95656
