Adsorption isotherm of Methane on AlPO4-5
DOI: 10.1021/Jp010702q
Adsorbate Methane: InChIKey VNWKTOKETHGBQD-UHFFFAOYSA-N
Temperature: 77 K
Tabular data in the source: 0
pressure (bar)	uptake (molecules/unitcell)
1.17e-06	0.0758114
5.27e-06	0.213105
9.54e-06	0.590663
1.21e-05	1.36866
2.37e-05	4.48065
3.51e-05	5.12136
4.82e-05	5.78494
5.22e-05	5.89935
0.00012	5.99088
