Adsorption isotherm of Methane on AlPO4-5
DOI: 10.1021/Jp010702q
Adsorbate Methane: InChIKey VNWKTOKETHGBQD-UHFFFAOYSA-N
Temperature: 77 K
Tabular data in the source: 0
pressure (bar)	uptake (molecules/unitcell)
1.71e-08	0.808045
5.6e-08	1.31146
9e-08	1.62037
1.5e-07	2.1581
2.32e-07	2.7416
2.72e-07	2.9933
4.2e-07	3.40518
7.03e-07	3.48527
4.5e-06	3.66833
9.92e-06	3.78274
2.1e-05	3.90859
4.45e-05	4.13742
6.35e-05	4.51498
7.74e-05	4.9955
9.07e-05	5.19
0.000253	5.30441
0.000321	5.3845
0.00128057	5.48747
0.00231649	5.60188
0.00317779	5.54468
0.00552572	5.61333
0.0131809	5.61333
0.0167077	5.99088
