Adsorption isotherm of Nitrogen on Zeolite 4A
DOI: 10.1021/Jp0012101
Adsorbate Nitrogen: InChIKey IJGRMHOSHXDMSA-UHFFFAOYSA-N
Temperature: 283 K
Tabular data in the source: 0
pressure (bar)	uptake (mmol/g)
0.0292296	0.00709666
0.553599	0.251803
0.775	0.363668
0.914832	0.405618
1.4159	0.587399
3.36189	1.01039
3.87461	1.09429
5.3778	1.27957
