Adsorption isotherm of Methane on Zeolite 4A
DOI: 10.1021/Jp0012101
Adsorbate Methane: InChIKey VNWKTOKETHGBQD-UHFFFAOYSA-N
Temperature: 283 K
Tabular data in the source: 0
pressure (bar)	uptake (mmol/g)
0.227463	0.225527
0.303503	0.300919
0.401439	0.401515
0.549868	0.549972
0.672287	0.643664
0.779971	0.708615
