Adsorption isotherm of Nitrogen on Zeolite 4A
DOI: 10.1021/Jp0012101
Adsorbate Nitrogen: InChIKey IJGRMHOSHXDMSA-UHFFFAOYSA-N
Temperature: 283 K
Tabular data in the source: 0
pressure (bar)	uptake (mmol/g)
0.115043	0.0862365
0.153502	0.114064
0.217738	0.169023
0.298244	0.225527
0.415721	0.317119
0.545083	0.419449
0.660639	0.490906
