Adsorption isotherm of Krypton on Zeolite 4A
DOI: 10.1021/Jp0012101
Adsorbate Krypton: InChIKey DNNSSWSSYDEUBZ-UHFFFAOYSA-N
Temperature: 283 K
Tabular data in the source: 0
pressure (bar)	uptake (mmol/g)
0.343005	0.241859
0.482309	0.334192
0.594864	0.405039
0.746623	0.517335
0.858676	0.569538
