Adsorption isotherm of Krypton on Zeolite 4A
DOI: 10.1021/Jp0012101
Adsorbate Krypton: InChIKey DNNSSWSSYDEUBZ-UHFFFAOYSA-N
Temperature: 283 K
Tabular data in the source: 0
pressure (bar)	uptake (mmol/g)
0.110798	0.0280715
0.180714	0.0770126
1.03136	0.377651
1.82374	0.643332
3.31528	1.13974
4.70195	1.37395
5.80895	1.62216
