Adsorption isotherm of Methane on Zeolite 4A
DOI: 10.1021/Jp0012101
Adsorbate Methane: InChIKey VNWKTOKETHGBQD-UHFFFAOYSA-N
Temperature: 283 K
Tabular data in the source: 0
pressure (bar)	uptake (mmol/g)
0.0641876	0.0560378
0.145756	0.12945
0.308893	0.248307
0.541947	0.468542
0.728389	0.625853
1.00805	0.804139
1.40424	0.947466
3.43181	1.60468
5.38945	1.96125
