Adsorption isotherm of Nitrogen on (me2NH2)6[In10(TTCA)12]*24DMF*15H2O
DOI: 10.1021/Ic501413r
Adsorbate Nitrogen: InChIKey IJGRMHOSHXDMSA-UHFFFAOYSA-N
Temperature: 77 K
Tabular data in the source: 0
pressure (bar)	uptake (cm3(STP)/g)
-0.00459521	35.7165
-0.00207762	52.526
-0.00139323	65.1276
-0.00119769	73.5307
-0.000953261	84.0346
-0.000684393	95.589
-0.000464409	105.043
-0.000195541	116.597
4.88852e-05	127.101
0.000244426	135.504
0.000488852	146.008
0.000733278	156.512
0.000977709	167.016
0.00119769	176.469
0.00144211	186.973
0.00168654	197.477
0.00779719	210.076
0.0108036	214.274
0.0138345	219.523
0.0431167	227.895
0.057709	229.98
0.0693926	232.068
0.0839848	234.153
0.104395	236.232
0.127688	237.257
0.150958	237.232
0.200429	238.229
0.249901	239.226
0.296464	240.226
0.345936	241.223
0.395408	242.22
0.444879	243.216
0.494327	243.163
0.54089	244.163
0.590363	245.16
0.6369	245.11
0.689257	245.053
0.735795	245.003
0.785243	244.949
0.83469	244.896
0.881253	245.896
0.948202	247.924
0.968538	246.852
