Adsorption isotherm of Nitrogen on (me2NH2)6[In10(TTCA)12]*24DMF*15H2O
DOI: 10.1021/Ic501413r
Adsorbate Nitrogen: InChIKey IJGRMHOSHXDMSA-UHFFFAOYSA-N
Temperature: 273 K
Tabular data in the source: 0
pressure (bar)	uptake (cm3(STP)/g)
0.156284	1.61587
0.176537	2.02764
0.208382	2.01443
0.260492	1.99282
0.312578	2.81156
0.361794	2.79115
0.419671	3.60749
0.619404	4.365
0.674385	5.18254
0.726483	5.5811
0.778582	5.97966
0.827798	5.95926
0.882803	5.93645
0.932007	6.33621
0.984117	6.3146
1.03332	6.71437
