Adsorption isotherm of Methane on (me2NH2)6[In10(TTCA)12]*24DMF*15H2O
DOI: 10.1021/Ic501413r
Adsorbate Methane: InChIKey VNWKTOKETHGBQD-UHFFFAOYSA-N
Temperature: 273 K
Tabular data in the source: 0
pressure (bar)	uptake (cm3(STP)/g)
0.0404819	1.66389
0.0607228	2.49583
0.0780686	3.32897
0.0983096	4.16091
0.196643	7.48148
0.225558	8.73
0.312323	11.6352
0.373058	13.7108
0.407774	14.5368
0.439595	15.3639
0.468522	16.1923
0.50033	17.4396
0.532151	18.2667
0.561077	19.0951
0.592886	20.3424
0.624719	20.7493
0.653646	21.5777
0.685467	22.4048
0.717288	23.232
0.746225	23.6401
0.775139	24.8887
0.838794	26.1228
0.870615	26.9499
0.902448	27.3569
0.931374	28.1852
0.960312	28.5934
0.98925	29.0015
1.02107	29.8287
