Adsorption isotherm of Carbon Dioxide on (me2NH2)6[In10(TTCA)12]*24DMF*15H2O
DOI: 10.1021/Ic501413r
Adsorbate Carbon Dioxide: InChIKey CURLTUGMZLYLDI-UHFFFAOYSA-N
Temperature: 195 K
Tabular data in the source: 0
pressure (bar)	uptake (cm3(STP)/g)
-0.00192816	7.35276
0.000182393	13.6551
0.000338729	23.1087
0.000573234	30.4614
0.000755627	47.2709
0.00463799	61.9701
0.00495065	74.5748
0.00521122	85.0787
0.0116731	95.5764
0.01209	112.383
0.0153731	119.732
0.0155816	128.135
0.01579	136.539
0.0252744	143.882
0.0317624	155.43
0.0475264	165.918
0.0663388	174.302
0.0850732	179.536
0.110035	185.813
0.131792	187.892
0.162903	192.062
0.18776	194.137
0.209517	196.216
0.259206	199.317
0.315096	202.412
0.367886	205.509
0.395818	206.531
0.420649	207.557
0.445481	208.582
0.476514	209.601
0.498245	210.629
0.52615	210.601
0.554083	211.623
0.578941	213.699
0.603745	213.673
0.631678	214.695
0.659584	214.667
0.684415	215.692
0.70612	215.67
0.737153	216.689
0.786764	216.639
0.839527	218.686
0.892264	219.683
0.994587	219.579
