Adsorption isotherm of Carbon Dioxide on (me2NH2)6[In10(TTCA)12]*24DMF*15H2O
DOI: 10.1021/Ic501413r
Adsorbate Carbon Dioxide: InChIKey CURLTUGMZLYLDI-UHFFFAOYSA-N
Temperature: 273 K
Tabular data in the source: 0
pressure (bar)	uptake (cm3(STP)/g)
0.0975144	1.67949
0.194195	4.19933
0.292126	5.45865
0.684683	9.65558
1.37145	17.2103
1.96154	22.2452
2.74998	27.2776
3.44009	31.471
4.92071	38.5959
6.59929	46.1386
7.48735	50.7497
9.66143	58.7066
10.7495	61.6346
12.7269	67.9132
13.9141	70.84
14.9034	73.349
15.8928	75.8581
16.9813	78.3659
17.971	80.4547
19.0595	82.9626
20.1488	84.6301
21.1381	87.1391
22.2274	88.8066
23.3172	90.0539
24.3069	92.1428
25.3962	93.8102
26.486	95.0576
27.3769	96.7275
28.5663	97.5534
29.6556	99.2209
30.547	100.471
31.6367	101.718
32.7264	102.965
33.8166	103.792
34.8071	105.041
