Adsorption isotherm of Hydrogen on (me2NH2)6[In10(TTCA)12]*24DMF*15H2O
DOI: 10.1021/Ic501413r
Adsorbate Hydrogen: InChIKey UFHFLCQGNIYNRP-UHFFFAOYSA-N
Temperature: 77 K
Tabular data in the source: 0
pressure (bar)	uptake (cm3(STP)/g)
0.00313557	4.19843
0.00627116	8.39686
0.00639861	13.6488
0.0186605	18.8882
0.0279653	27.2819
0.0402527	33.5717
0.0496084	44.0662
0.0955714	62.9261
0.135314	75.49
0.190276	90.1389
0.242154	102.69
0.281743	108.952
0.30308	113.131
0.351796	120.434
0.403521	126.683
0.458253	131.878
0.509926	136.026
0.558566	140.177
0.664946	148.47
0.713585	152.622
0.813822	157.77
0.862437	160.871
0.914059	162.918
0.962673	166.019
1.00519	168.076
