Adsorption isotherm of Water on Ni-MOF-74
DOI: 10.1016/j.ces.2010.10.002
Adsorbate Water: InChIKey XLYOFNOQVPJJNP-UHFFFAOYSA-N
Temperature: 298 K
Tabular data in the source: 0
pressure (bar)	uptake (g/g)
0.000317	0.0625444
0.000609	0.0836711
0.00119852	0.093812
0.00182697	0.104798
0.00241007	0.110713
0.00301261	0.120854
0.00361514	0.129305
0.00420472	0.137756
