Adsorption isotherm of Water on Zn-MOF-74
DOI: 10.1016/j.ces.2010.10.002
Adsorbate Water: InChIKey XLYOFNOQVPJJNP-UHFFFAOYSA-N
Temperature: 298 K
Tabular data in the source: 0
pressure (bar)	uptake (g/g)
0.000654	0.189305
0.0010819	0.201981
0.00151599	0.218037
0.00193063	0.234094
0.0023388	0.244235
0.00274697	0.264516
0.0031681	0.303389
0.00360866	0.316065
0.00401035	0.327896
0.00445092	0.341418
