Adsorption isotherm of Water on Mg-MOF-74
DOI: 10.1016/j.ces.2010.10.002
Adsorbate Water: InChIKey XLYOFNOQVPJJNP-UHFFFAOYSA-N
Temperature: 298 K
Tabular data in the source: 0
pressure (bar)	uptake (g/g)
0.000317	0.153812
0.000609	0.245925
0.00122444	0.267896
0.00177514	0.290713
0.00241007	0.312685
0.00299317	0.349868
0.0036281	0.391277
0.00423063	0.43184
