Adsorption isotherm of Nitrogen on MOF-74-Co
DOI: 10.1016/j.ces.2010.10.002
Adsorbate Nitrogen: InChIKey IJGRMHOSHXDMSA-UHFFFAOYSA-N
Temperature: 77 K
Tabular data in the source: 0
pressure (bar)	uptake (cm3(STP)/g)
0.0966842	271.987
0.15246	274.561
0.192504	275.849
0.254	277.779
0.302625	278.423
0.407025	280.354
0.524297	283.571
0.594374	285.502
0.691624	287.433
0.791734	290.651
0.897564	291.938
0.987663	297.086
