Adsorption isotherm of Nitrogen on Mg-MOF-74
DOI: 10.1016/j.ces.2010.10.002
Adsorbate Nitrogen: InChIKey IJGRMHOSHXDMSA-UHFFFAOYSA-N
Temperature: 77 K
Tabular data in the source: 0
pressure (bar)	uptake (cm3(STP)/g)
0.0938239	341.492
0.165331	343.423
0.208235	345.354
0.25829	347.928
0.301195	347.928
0.399875	351.146
0.525727	353.076
0.648719	356.938
0.778862	363.373
0.901855	370.453
0.989093	383.324
