Adsorption isotherm of Nitrogen on MOF-74-Ni
DOI: 10.1016/j.ces.2010.10.002
Adsorbate Nitrogen: InChIKey IJGRMHOSHXDMSA-UHFFFAOYSA-N
Temperature: 77 K
Tabular data in the source: 0
pressure (bar)	uptake (cm3(STP)/g)
0.0995445	186.393
0.15103	189.611
0.203945	191.542
0.25114	192.829
0.387003	196.69
0.502845	198.621
0.604385	201.195
0.688763	201.839
0.807465	203.769
0.888983	204.413
0.990524	207.631
