Adsorption isotherm of Nitrogen on Zn-MOF-74
DOI: 10.1016/j.ces.2010.10.002
Adsorbate Nitrogen: InChIKey IJGRMHOSHXDMSA-UHFFFAOYSA-N
Temperature: 77 K
Tabular data in the source: 0
pressure (bar)	uptake (cm3(STP)/g)
0.146739	160.007
0.165331	160.651
0.205375	162.581
0.25257	163.868
0.298334	165.799
0.401305	168.373
0.524297	169.017
0.645859	172.235
0.780293	174.809
0.897564	174.809
0.991954	178.67
