Adsorption isotherm of Water on Co-MOF-74
DOI: 10.1016/j.ces.2010.10.002
Adsorbate Water: InChIKey XLYOFNOQVPJJNP-UHFFFAOYSA-N
Temperature: 298 K
Tabular data in the source: 0
pressure (bar)	uptake (g/g)
0.000324	0.226488
0.000648	0.458882
0.00127627	0.476629
0.00192416	0.485925
0.00256556	0.494375
0.00322641	0.498601
0.0038419	0.507051
0.00448331	0.515502
