Adsorption isotherm of N-propane on ZIF-4
DOI: 10.1021/acs.langmuir.5b02907
Article source: Figure 3
Adsorbate N-propane: InChIKey ATUOYWHBWRKTHZ-UHFFFAOYSA-N
Kind: experiment
Temperature: 293 K
Tabular data in the source: 0
pressure (bar)	uptake (mmol/g)
0	0
0.008698	1.69211
0.049203	2.2201
0.106326	2.32188
0.17983	2.36005
0.210872	2.36641
0.277861	2.37277
0.315438	2.37913
0.364454	2.3855
0.398763	2.39186
0.449417	2.39186
0.500071	2.39186
0.55072	2.39822
0.59974	2.39822
0.650393	2.39822
0.699413	2.39822
0.750067	2.39822
0.797456	2.39186
0.848114	2.3855
0.89713	2.39186
0.947783	2.39186
0.987003	2.3855
