Adsorption isotherm of Propene on ZIF-4
DOI: 10.1021/acs.langmuir.5b02907
Article source: Figure 3
Adsorbate Propene: InChIKey QQONPFPTGQHPMA-UHFFFAOYSA-N
Kind: experiment
Temperature: 293 K
Tabular data in the source: 0
pressure (bar)	uptake (mmol/g)
0	0
0.010403	1.58397
0.047619	2.14377
0.096551	2.27735
0.176579	2.33461
0.212518	2.34733
0.284397	2.37277
0.321974	2.37913
0.37099	2.3855
0.398763	2.39186
0.449417	2.39186
0.498433	2.39822
0.549086	2.39822
0.599736	2.40458
0.650389	2.40458
0.699409	2.40458
0.750062	2.40458
0.799082	2.40458
0.849731	2.41094
0.898751	2.41094
0.949409	2.40458
0.988624	2.40458
