Adsorption isotherm of Ethane on ZIF-4
DOI: 10.1021/acs.langmuir.5b02907
Article source: Figure 3
Adsorbate Ethane: InChIKey OTMSDBZUPAUEDD-UHFFFAOYSA-N
Kind: experiment
Temperature: 293 K
Tabular data in the source: 0
pressure (bar)	uptake (mmol/g)
0	0
0.009475	0.502545
0.011247	0.292621
0.048097	1.41221
0.048388	0.966921
0.095245	1.77481
0.100413	1.36768
0.145791	1.9402
0.146032	1.57125
0.198224	1.71756
0.209437	2.06107
0.256973	1.83206
0.268215	2.13104
0.31738	1.9084
0.322112	2.16921
0.371264	1.96565
0.377642	2.20738
0.395757	1.99109
0.39888	2.21374
0.449654	2.02926
0.451155	2.23282
0.498653	2.06107
0.500162	2.25191
0.549178	2.25827
0.549294	2.08015
0.599931	2.1056
0.601457	2.27099
0.650468	2.28372
0.650572	2.12468
0.699484	2.29008
0.699583	2.1374
0.750133	2.29644
0.751863	2.15013
0.79924	2.16285
0.800782	2.3028
0.849802	2.3028
0.849885	2.17557
0.898822	2.3028
0.900535	2.18193
0.949467	2.31552
0.94955	2.1883
0.988687	2.30916
0.988762	2.19466
