Adsorption isotherm of Ethane on ZIF-4
DOI: 10.1021/acs.langmuir.5b02907
Article source: Figure 3
Adsorbate Ethane: InChIKey OTMSDBZUPAUEDD-UHFFFAOYSA-N
Kind: experiment
Temperature: 293 K
Tabular data in the source: 0
pressure (bar)	uptake (mmol/g)
0	0
0.00948	0.496183
0.048097	1.41221
0.095245	1.77481
0.144157	1.9402
0.207803	2.06107
0.268215	2.13104
0.320478	2.16921
0.376012	2.20102
0.395612	2.21374
0.449521	2.23282
0.498528	2.25191
0.549173	2.26463
0.598185	2.27735
0.648834	2.28372
0.699484	2.29008
0.748499	2.29644
0.799148	2.3028
0.848164	2.30916
0.898818	2.30916
0.949467	2.31552
0.988683	2.31552
