Adsorption isotherm of Ethene on ZIF-4
DOI: 10.1021/acs.langmuir.5b02907
Article source: Figure 3
Adsorbate Ethene: InChIKey VGGSQFUCUMXWEO-UHFFFAOYSA-N
Kind: experiment
Temperature: 293 K
Tabular data in the source: 0
pressure (bar)	uptake (mmol/g)
0	0
0.011247	0.292621
0.050017	0.973282
0.098783	1.36132
0.146032	1.57125
0.198224	1.71756
0.256973	1.83206
0.315746	1.9084
0.371264	1.96565
0.395757	1.99109
0.449658	2.0229
0.500287	2.06107
0.549294	2.08015
0.599935	2.09924
0.648942	2.11832
0.699583	2.1374
0.751863	2.15013
0.79924	2.16285
0.849885	2.17557
0.898901	2.18193
0.94955	2.1883
0.988762	2.19466
