Adsorption isotherm of Carbon Dioxide on BioMil-3
DOI: 10.1039/C3cc41987h
Adsorbate Carbon Dioxide: InChIKey CURLTUGMZLYLDI-UHFFFAOYSA-N
Temperature: 298 K
Tabular data in the source: 0
pressure (bar)	uptake (mmol/g)
0.000129473	0.00851284
0.0459629	0.0220589
0.119843	0.129699
0.266439	0.268365
0.458739	0.412064
0.689395	0.577692
0.882018	0.742673
