Adsorption isotherm of Nitric oxide on BioMil-3
DOI: 10.1039/C3cc41987h
Adsorbate Nitric oxide: InChIKey MWUXSHHQAYIFBG-UHFFFAOYSA-N
Temperature: 298 K
Tabular data in the source: 0
pressure (bar)	uptake (mmol/g)
5.30542	20.7447
7.104	37.9477
9.65816	47.3774
19.9569	55.8819
28.5638	63.2047
39.9138	66.7639
51.2145	69.8518
68.7405	72.4823
87.7365	74.1736
116.267	77.0641
158.867	79.5146
210.804	81.279
261.173	83.0399
309.923	84.326
358.6	84.9051
410.439	85.7269
459.116	86.306
509.386	87.1243
559.656	87.9426
609.877	88.2895
661.691	88.8756
715.049	89.2296
762.132	89.5696
