Adsorption isotherm of Styrene on DynaMOF-100
DOI: 10.1021/acs.inorgchem.5b00206
Article source: Figure 2
Adsorbate Styrene: InChIKey PPBRXRYQALVLMV-UHFFFAOYSA-N
Kind: experiment
Temperature: 298 K
Tabular data in the source: 0
pressure (bar)	uptake (ml/g)
0	0
0.000123	0.204064
0.000282	77.1929
0.000317	0.20887
0.000458	79.0063
0.000475	0.212803
0.000704	80.4195
0.000722	0.620931
0.000792	80.6227
0.000968	81.6321
0.001021	3.44243
0.001109	81.6356
0.00125	8.67424
0.001303	82.0424
0.001514	16.52
0.001602	82.6528
0.001761	19.7422
0.001902	20.7507
0.00199	83.2655
0.002078	25.7802
0.002201	36.4365
0.002272	83.4735
0.002641	84.0856
0.002677	47.9056
0.003029	58.7686
0.003187	84.3002
0.003451	69.6334
0.003821	84.9189
0.003909	76.2779
0.004349	78.4999
0.005635	82.5519
0.008012	86.229
