Adsorption isotherm of Ethylbenzene on DynaMOF-100
DOI: 10.1021/acs.inorgchem.5b00206
Article source: Figure 2
Adsorbate Ethylbenzene: InChIKey YNQLUTRBYVCPMQ-UHFFFAOYSA-N
Kind: experiment
Temperature: 298 K
Tabular data in the source: 0
pressure (bar)	uptake (ml/g)
0	0
0.001035	0.183901
0.001389	0.178222
0.001579	1.62934
0.002396	0.840441
0.003268	0.252919
0.003758	0.862282
0.004874	1.48169
0.005174	1.4865
0.006453	2.50953
0.008169	3.53955
0.008795	4.5521
0.010075	4.97363
0.011762	7.60721
0.012089	7.41195
0.012361	9.42132
