Adsorption isotherm of P-Xylene on MIL-47
DOI: 10.1021/La203374a
Adsorbate P-Xylene: InChIKey URLKBWYHVLBVBO-UHFFFAOYSA-N
Temperature: 343 K
Tabular data in the source: 0
pressure (bar)	uptake (molecules/unitcell)
0.000484195	1.45136
0.0049916	1.98792
0.0272973	2.14448
0.0501695	2.34186
