Adsorption isotherm of O-Xylene on MIL-53(Al)
DOI: 10.1021/La203374a
Adsorbate O-Xylene: InChIKey CTQNGGLPUBDAKN-UHFFFAOYSA-N
Temperature: 383 K
Tabular data in the source: 0
pressure (bar)	uptake (mmol/g)
3.98e-05	0.521919
7.83e-05	1.49976
0.00011324	1.55492
0.00018995	1.61936
0.000269836	1.65624
0.000355959	1.70217
0.000773802	1.73034
0.00150512	1.78579
0.0027303	3.38456
0.00387659	3.47623
0.00501718	3.58607
0.0068661	3.65944
0.0087263	3.73274
0.0110935	3.77864
0.0143645	3.83369
