Adsorption isotherm of P-Xylene on MIL-47
DOI: 10.1021/La203374a
Adsorbate P-Xylene: InChIKey URLKBWYHVLBVBO-UHFFFAOYSA-N
Temperature: 343 K
Tabular data in the source: 0
pressure (bar)	uptake (mmol/g)
0.000105276	0.538549
0.000115242	0.5839
0.000126151	0.629252
0.000140168	0.668934
0.000153437	0.714286
0.000167962	0.759637
0.000183861	0.804989
0.000204305	0.85034
0.000223635	0.890023
0.000244805	0.935374
0.000272026	0.980726
0.000297776	1.02608
0.000325964	1.07143
0.000356796	1.11111
0.00039647	1.15646
0.000434	1.20181
0.000475084	1.24717
0.00053592	1.29819
0.00059547	1.33787
0.000651838	1.38322
0.000724269	1.4229
0.000804804	1.46825
0.000894232	1.50794
0.000978881	1.55329
0.00107142	1.5873
0.00115539	1.63265
0.00142672	1.72902
0.00204739	1.85941
0.00230733	1.83107
0.00280511	1.87642
0.00297954	1.91043
0.00326145	1.95011
0.00357018	1.99546
0.00385026	2.04649
0.0043433	2.09751
0.00482592	2.13719
0.00614002	2.22789
0.00735309	2.26757
0.00907424	2.31293
0.0113642	2.3356
0.0126203	2.32993
0.0144431	2.3356
0.0162836	2.34127
0.0186359	2.34694
0.0216501	2.35261
0.0247776	2.35828
0.0287826	2.35828
0.0334357	2.35828
0.0388428	2.36395
0.0451222	2.36395
0.0524192	2.36961
