Adsorption isotherm of Ethylbenzene on MIL-53(Al)
DOI: 10.1021/La203374a
Adsorbate Ethylbenzene: InChIKey YNQLUTRBYVCPMQ-UHFFFAOYSA-N
Temperature: 383 K
Tabular data in the source: 0
pressure (bar)	uptake (mmol/g)
0.000797132	0.386378
0.00197424	0.527434
0.00246422	0.57203
0.00307581	0.579313
0.00391742	0.608968
0.00488967	0.631177
0.00635419	0.64589
0.00793122	0.653173
0.0118686	0.675234
0.0157377	0.682468
0.0196436	0.682289
0.0595141	0.696316
0.115733	0.70324
