Adsorption isotherm of Ethylbenzene on MIL-47
DOI: 10.1021/La203374a
Adsorbate Ethylbenzene: InChIKey YNQLUTRBYVCPMQ-UHFFFAOYSA-N
Temperature: 383 K
Tabular data in the source: 0
pressure (bar)	uptake (mmol/g)
0.00067	1.68661
0.000869	1.75499
0.0011	1.82336
0.0015	1.89174
0.0018	1.91453
0.00227	1.96011
0.00279	2.02849
0.00344	2.05128
0.00423	2.18803
0.00508	2.23362
0.00625	2.2792
0.00769	2.34758
0.00922	2.46154
0.012	2.50712
0.014	2.59829
0.0191	2.66667
0.0247434	2.71225
0.0346865	2.73504
0.0449811	2.73504
0.0539473	2.78063
0.0630551	2.75783
