Adsorption isotherm of M-Xylene on MIL-53(Al)
DOI: 10.1021/La203374a
Adsorbate M-Xylene: InChIKey IVSZLXZYQVIEFR-UHFFFAOYSA-N
Temperature: 383 K
Tabular data in the source: 0
pressure (bar)	uptake (mmol/g)
1.04e-05	0.283582
1.2e-05	0.328358
1.39e-05	0.373134
1.61e-05	0.41791
1.87e-05	0.462687
2.16e-05	0.507463
2.5e-05	0.552239
2.85e-05	0.597015
3.3e-05	0.641791
3.75e-05	0.69403
4.26e-05	0.746269
4.84e-05	0.798507
5.51e-05	0.850746
6.38e-05	0.910448
7.25e-05	0.962687
8.25e-05	1.00746
9.38e-05	1.0597
0.000108608	1.10448
0.000125777	1.14925
0.000145663	1.18657
0.000171815	1.23134
0.000198976	1.26866
0.000230436	1.31343
0.000271807	1.35075
0.000314782	1.38806
0.000371296	1.41791
0.000446067	1.4403
0.000526163	1.46269
0.000632121	1.48507
0.000759416	1.5
0.000895757	1.52239
0.00117953	1.55224
0.00139133	1.54478
0.00167151	1.55224
0.00236865	1.58955
0.00284564	1.58209
0.0033566	1.61194
0.00450184	1.69403
0.00540842	1.87313
0.00561048	1.94776
0.00582023	2.02239
0.00603782	2.08955
0.0062634	2.16418
0.0066179	2.36567
0.0071218	2.5597
0.00725371	2.63433
0.00752471	2.70896
0.00780603	2.82836
0.00809786	2.90299
0.0084004	3.06716
0.00855599	3.14179
0.00955169	3.23881
0.0104694	3.29851
0.0123489	3.33582
0.0145663	3.34328
0.0226246	3.34328
0.0271807	3.34328
0.0326543	3.34328
