Adsorption isotherm of O-Xylene on MIL-53(Al)
DOI: 10.1021/La203374a
Adsorbate O-Xylene: InChIKey CTQNGGLPUBDAKN-UHFFFAOYSA-N
Temperature: 383 K
Tabular data in the source: 0
pressure (bar)	uptake (mmol/g)
0.000813355	0.401287
0.00205547	0.549789
0.00251443	0.572014
0.00295434	0.594272
0.00354185	0.60905
0.0040785	0.616398
0.00460278	0.69839
0.00498919	1.1834
0.00563054	1.66838
0.00610323	1.76533
0.00688763	1.83239
0.00793122	1.86213
0.0121102	1.93641
0.0157377	1.96605
0.0204513	1.99569
0.0595141	2.06199
0.120493	2.0838
