Adsorption isotherm of M-Xylene on MIL-53(Al)
DOI: 10.1021/La203374a
Adsorbate M-Xylene: InChIKey IVSZLXZYQVIEFR-UHFFFAOYSA-N
Temperature: 383 K
Tabular data in the source: 0
pressure (bar)	uptake (mmol/g)
5.31e-05	0.425373
0.000104694	1.43284
0.000151105	1.47761
0.000252575	1.52239
0.000262017	1.49254
0.000357915	1.52985
0.000462743	1.55224
0.00101852	1.58955
0.00212173	1.6194
0.00374723	1.64925
0.00441998	1.64925
0.00550858	1.73881
0.00674047	2.36567
0.0079506	2.89552
0.00990878	3.10448
0.0114752	3.14925
0.0181535	3.34328
0.0195362	3.37313
