Adsorption isotherm of P-Xylene on MIL-53(Al)
DOI: 10.1021/La203374a
Adsorbate P-Xylene: InChIKey URLKBWYHVLBVBO-UHFFFAOYSA-N
Temperature: 383 K
Tabular data in the source: 0
pressure (bar)	uptake (mmol/g)
1.06e-05	0.379717
1.21e-05	0.429245
1.42e-05	0.478774
1.65e-05	0.536557
1.89e-05	0.586085
2.21e-05	0.635613
2.58e-05	0.693396
2.95e-05	0.742925
3.44e-05	0.800708
3.94e-05	0.850236
4.51e-05	0.908019
5.16e-05	0.965802
5.91e-05	1.02358
7.17e-05	1.08962
8.2e-05	1.13915
9.57e-05	1.19693
0.00011392	1.22995
0.000135544	1.27123
0.000223924	1.38679
0.000266428	1.41981
0.000673116	1.52712
0.000816488	1.53538
0.000971449	1.55189
0.00129781	1.56014
0.0015742	1.5684
0.0019095	1.57665
0.0026007	1.58491
0.00315464	1.59316
0.00429655	1.61792
0.00511211	1.63443
0.00596596	1.68396
0.00723669	1.80778
0.008284	2.01415
0.00861014	2.11321
0.00912368	2.22877
0.00930144	2.22877
0.00948287	2.31132
0.00966763	2.38561
0.0102442	2.54245
0.0104441	2.74057
0.0106476	2.625
0.0117268	2.93042
0.0121885	3.05425
0.0147846	3.14505
0.0182831	3.20283
0.0230505	3.19458
0.0279602	3.19458
0.0339156	3.19458
