Adsorption isotherm of P-Xylene on MIL-47
DOI: 10.1021/La203374a
Adsorbate P-Xylene: InChIKey URLKBWYHVLBVBO-UHFFFAOYSA-N
Temperature: 383 K
Tabular data in the source: 0
pressure (bar)	uptake (mmol/g)
0.000124	0.322807
0.000371517	1.34737
0.00111455	2.07719
0.00148607	2.32982
0.0022291	2.52632
0.00297214	2.66667
0.00396285	2.82105
0.00532508	3.03158
0.0073065	3.14386
0.00978328	3.24211
0.0126316	3.34035
0.0163467	3.39649
0.0210526	3.46667
0.0265015	3.50877
