Adsorption isotherm of P-Xylene on MIL-53(Al)
DOI: 10.1021/La203374a
Adsorbate P-Xylene: InChIKey URLKBWYHVLBVBO-UHFFFAOYSA-N
Temperature: 383 K
Tabular data in the source: 0
pressure (bar)	uptake (mmol/g)
6.9e-05	0.990566
0.000138185	1.4033
0.000195614	1.43632
0.0003359	1.46108
0.000457488	1.46934
0.000599487	1.51061
0.00115582	1.53538
0.00231622	1.5684
0.00390113	1.63443
0.00737768	1.84906
0.00797021	1.93986
0.00861014	2.03892
0.00948287	2.30307
0.011067	2.81486
0.0119556	3.02123
0.015073	3.11203
0.0197515	3.20283
0.0302051	3.38443
