Adsorption isotherm of O-Xylene on MIL-53(Al)
DOI: 10.1021/La203374a
Adsorbate O-Xylene: InChIKey CTQNGGLPUBDAKN-UHFFFAOYSA-N
Temperature: 383 K
Tabular data in the source: 0
pressure (bar)	uptake (mmol/g)
1.11e-05	0.420198
1.29e-05	0.475138
1.49e-05	0.530079
1.7e-05	0.585001
2.04e-05	0.649111
2.33e-05	0.704033
2.7e-05	0.768107
3.12e-05	0.823047
3.55e-05	0.87797
4.12e-05	0.942043
4.68e-05	1.0061
5.33e-05	1.06102
6.18e-05	1.12509
7.03e-05	1.18002
8.14e-05	1.24409
9.43e-05	1.29903
0.00010934	1.34484
0.000126721	1.39065
0.00014962	1.42734
0.000176644	1.47317
0.000208545	1.51899
0.000390607	1.6566
0.000461307	1.6659
0.000544766	1.68433
0.000643369	1.69363
0.000880765	1.73047
0.0010596	1.73978
0.0012517	1.72168
0.00174554	1.75854
0.00198596	1.80433
0.00213683	1.8866
0.00225704	1.96884
0.00234013	2.0602
0.00242622	2.15156
0.00256248	2.24294
0.00260832	2.32515
0.00270433	2.41651
0.00280388	2.50787
0.00285378	2.59921
0.00295883	2.69057
0.00306775	2.78193
0.00312234	2.87328
0.00323758	2.9555
0.00329519	3.04684
0.00341649	3.1382
0.00354079	3.27523
0.0036664	3.50357
0.00401652	3.64065
0.00465586	3.66819
0.00661561	3.67767
0.0103119	3.67811
0.0124057	3.68743
0.0149262	3.68761
0.0179585	3.6878
0.0216068	3.68798
0.0259962	3.68816
0.0312774	3.68835
