Adsorption isotherm of M-Xylene on MIL-47
DOI: 10.1021/La203374a
Adsorbate M-Xylene: InChIKey IVSZLXZYQVIEFR-UHFFFAOYSA-N
Temperature: 343 K
Tabular data in the source: 0
pressure (bar)	uptake (mmol/g)
0.000100307	0.255102
0.000146036	0.340136
0.000185703	0.385488
0.000250767	0.442177
0.00034902	0.521542
0.000437301	0.5839
0.000500749	0.634921
0.000591112	0.725624
0.000657204	0.816327
0.000719714	0.895692
0.000764839	0.969388
0.000837934	1.08277
0.000890533	1.16213
0.000946433	1.2415
0.00100552	1.29252
0.00118626	1.3322
0.0013992	1.35488
0.00160155	1.37188
0.0018608	1.38889
0.00200697	1.44558
0.00226256	1.44558
0.00258952	1.45692
0.00296163	1.4059
0.00359857	1.4059
0.00450422	1.38322
0.00547066	1.34921
0.0072721	1.34354
0.00883609	1.34354
0.0110629	1.34354
0.0140611	1.34921
0.0163354	1.35488
0.0189758	1.35488
0.0220435	1.35488
0.0256083	1.36054
0.0297482	1.36054
0.0345573	1.36054
0.0401458	1.36621
0.0466359	1.36621
0.0541739	1.36621
