Adsorption isotherm of P-Xylene on MIL-47
DOI: 10.1021/La203374a
Adsorbate P-Xylene: InChIKey URLKBWYHVLBVBO-UHFFFAOYSA-N
Temperature: 343 K
Tabular data in the source: 0
pressure (bar)	uptake (molecules/unitcell)
0.000535883	1.21272
0.000708304	1.33947
0.000984895	1.50841
0.0012374	1.63509
0.00151572	1.7477
0.00200336	1.88849
0.00245397	1.95896
0.00293062	1.98727
0.00397301	2.02977
0.00538617	2.08632
0.00768175	2.1008
0.0112372	2.12936
0.0164384	2.15791
0.0201354	2.14411
0.0294551	2.17267
0.0389323	2.2011
0.0584144	2.18755
