Adsorption isotherm of Ethylbenzene on MIL-47
DOI: 10.1021/La203374a
Adsorbate Ethylbenzene: InChIKey YNQLUTRBYVCPMQ-UHFFFAOYSA-N
Temperature: 383 K
Tabular data in the source: 0
pressure (bar)	uptake (mmol/g)
0.000687	1.91453
0.00469429	2.39316
0.0190893	2.5755
0.0320516	3.05413
0.0645818	3.39601
