Adsorption isotherm of Nitrogen on OMe-TPBP-COF
DOI: 10.1002/chem.202000552
Article source: Figure 2a
Adsorbate Nitrogen: InChIKey IJGRMHOSHXDMSA-UHFFFAOYSA-N
Kind: experiment
Temperature: 77 K
Tabular data in the source: 0
pressure (bar)	uptake (cm3(STP)/g)
0.002636	16.9269
0.003472	5.91026
0.001143	153.066
0.000546	140.076
0.000546	129.979
0.000546	119.882
0.000546	109.784
0.000546	99.6873
0.000546	89.5901
0.000546	79.493
0.000546	69.3959
0.000546	59.2988
0.000546	49.2017
0.000546	39.1045
0.0005	29.4041
0.006996	174.037
0.0056	161.734
0.005307	185.765
0.01555	195.43
0.02628	205.202
0.048085	214.275
0.189088	228.173
0.215802	231.419
0.267224	231.314
0.32035	231.358
0.374039	233.626
0.428471	235.039
0.480855	236.026
0.533531	236.924
0.641809	238.382
0.748624	239.583
0.853976	240.542
0.15479	227.679
0.140126	226.233
0.111844	222.619
0.091942	222.619
0.078325	220.45
0.061566	218.282
0.014087	220.095
0.037498	230.866
0.055057	233.222
0.072615	234.198
0.090174	235.914
0.107733	239.364
0.125291	242.057
0.14285	243.538
0.160409	243.824
0.177968	243.807
0.195526	243.79
0.212952	244.145
0.230644	243.824
0.265761	243.824
0.31873	244.995
0.371113	245.591
0.423124	247.908
0.476465	247.358
0.529141	247.526
0.634493	248.653
0.687169	249.377
0.739845	249.377
0.792521	249.327
0.897873	247.021
0.574824	247.195
0.588441	247.917
0.852403	247.917
0.962387	246.472
