Adsorption isotherm of Nitrogen on OH-TPBP-COF
DOI: 10.1002/chem.202000552
Article source: Figure 2a
Adsorbate Nitrogen: InChIKey IJGRMHOSHXDMSA-UHFFFAOYSA-N
Kind: experiment
Temperature: 77 K
Tabular data in the source: 0
pressure (bar)	uptake (cm3(STP)/g)
0.1164	45.4291
0.144313	48.4473
0.175041	51.7673
0.220401	55.1477
0.276003	59.3731
0.328679	62.7535
0.382819	66.979
0.435495	70.4121
0.555479	77.1201
0.657904	82.3717
0.762444	90.5007
0.869863	97.6438
0.094037	42.9495
0.078325	41.4371
0.061566	37.5048
0.045854	35.3874
0.023857	31.7576
0.003955	26.6153
0.000235	22.3805
0.000235	16.6333
0.001282	12.3985
0.001282	8.4662
0.000813	4.2314
0.000813	18.7507
0.361163	79.4582
0.422082	82.4348
0.521825	87.72
0.583524	89.5735
0.62425	92.9555
0.690827	94.3741
0.741308	97.9657
0.784473	99.0397
0.845782	101.501
0.969896	108.457
0.905824	103.144
0.480552	86.2049
0.462745	85.2974
0.319243	78.3403
0.257442	75.6179
0.22916	74.1055
0.201926	72.2906
0.185167	71.3831
0.176787	70.7782
0.15898	69.8707
0.149553	69.2657
0.129651	68.3583
0.10137	65.9384
0.087753	65.3334
0.074135	64.426
0.058423	62.6111
0.043759	61.7036
