Adsorption isotherm of Nitrogen on OMe-OH-TPBP-COF-2
DOI: 10.1002/chem.202000552
Article source: Figure S17a
Adsorbate Nitrogen: InChIKey IJGRMHOSHXDMSA-UHFFFAOYSA-N
Kind: experiment
Temperature: 77 K
Tabular data in the source: 0
pressure (bar)	uptake (cm3(STP)/g)
0.110921	56.5688
0.139725	57.4584
0.17237	58.2542
0.195413	58.9003
0.235739	59.9982
0.270304	60.8175
0.322152	61.9762
0.374	62.2922
0.431608	63.5211
0.481536	64.3404
0.535304	65.3236
0.64476	66.274
0.750376	67.6995
0.857912	69.7478
0.092528	55.2127
0.074283	54.8791
0.062554	53.8782
0.045613	53.211
0.013032	50.2085
0.002606	45.8716
0.001303	41.8682
0.001303	36.8641
0.001303	32.8607
0.002606	29.191
0.002606	27.1893
0.002606	22.1852
0.002606	16.8474
0.002606	13.5113
0.001303	8.50709
0.001303	4.17014
0.96047	75.2294
0.903128	73.5613
0.849696	74.5621
0.801477	74.2285
0.735014	75.8966
0.690704	75.8966
0.638576	75.2294
0.578628	77.5646
0.531712	77.5646
0.47828	76.5638
0.467854	76.8974
0.417029	77.231
0.367507	77.5646
0.317985	77.5646
0.304952	77.5646
0.25934	77.8982
0.228063	77.231
0.213727	77.231
0.185057	77.231
0.172024	77.231
0.153779	77.231
0.143354	76.8974
0.102954	76.5638
0.086012	75.8966
0.06907	75.2294
0.056038	74.8957
0.039096	74.2285
0.023458	71.5596
