Adsorption isotherm of Nitrogen on OMe-OH-TPBP-COF
DOI: 10.1002/chem.202000552
Article source: Figure 2a
Adsorbate Nitrogen: InChIKey IJGRMHOSHXDMSA-UHFFFAOYSA-N
Kind: experiment
Temperature: 77 K
Tabular data in the source: 0
pressure (bar)	uptake (cm3(STP)/g)
0.002756	74.9246
0.002073	65.283
0.002073	58.4523
0.002073	52.0433
0.00061	44.9837
0.002073	37.876
0.002073	31.1297
0.000935	24.1772
0.002073	6.88504
0.003536	92.2777
0.005292	84.4594
0.003536	17.2274
0.001765	0.893777
0.005833	107.291
0.021628	115.991
0.043351	120.223
0.066763	122.711
0.090174	125.536
0.111447	128.186
0.140607	130.334
0.161872	131.875
0.183155	133.045
0.213085	134.614
0.268125	137.008
0.321363	138.806
0.374039	140.733
0.427278	142.613
0.481755	144.066
0.534431	145.623
0.643272	148.829
0.748624	151.431
0.853976	155.383
0.014087	152.92
0.031645	156.454
0.049204	158.242
0.066763	159.955
0.084321	160.592
0.10188	162.447
0.119439	163.264
0.136997	163.152
0.154556	162.595
0.172115	163.661
0.189673	164.943
0.207232	164.651
0.224791	165.55
0.259908	165.888
0.312584	168.324
0.36526	167.499
0.420862	167.462
0.471875	168.374
0.522241	169.24
0.583604	168.548
0.67839	167.522
0.744033	167.593
0.796264	166.942
0.847078	167.015
0.893591	164.509
0.910102	164.006
0.962255	163.302
0.63453	167.818
