Adsorption isotherm of Carbon Dioxide on CPM-12
DOI: 10.1002/anie.201101957
Adsorbate Carbon Dioxide: InChIKey CURLTUGMZLYLDI-UHFFFAOYSA-N
Temperature: 298 K
Tabular data in the source: 0
pressure (bar)	uptake (cm3(STP)/g)
0.0184644	1.37694
0.0454508	3.71773
0.0596542	4.81928
0.0738576	5.92083
0.0866406	7.02238
0.117888	8.6747
0.134932	9.36317
0.164759	11.4286
0.194586	12.8055
0.20879	13.3563
0.238617	14.7332
0.25424	15.5594
0.271285	16.1102
0.299691	17.3494
0.316735	18.1756
0.333779	18.7263
0.37923	20.1033
0.411898	21.2048
0.460189	22.9948
0.477233	23.2702
0.509901	24.2341
0.525525	24.6472
0.559613	25.611
0.607905	26.988
0.641993	27.401
0.67466	28.2272
0.688864	28.6403
0.724372	29.4664
0.739996	29.6041
0.774084	30.2926
0.789708	30.7057
0.825216	31.5318
0.843681	31.8072
0.855043	32.0826
0.891972	32.4957
0.907596	33.0465
0.92606	33.1842
0.954467	33.5972
0.972931	34.6988
0.989975	34.6988
1.00844	34.9742
