Adsorption isotherm of Hydrogen on CPM-13
DOI: 10.1002/anie.201101957
Adsorbate Hydrogen: InChIKey UFHFLCQGNIYNRP-UHFFFAOYSA-N
Temperature: 77 K
Tabular data in the source: 0
pressure (bar)	uptake (cm3(STP)/g)
0.00452817	8.94436
0.00905634	17.8887
0.0158975	23.8478
0.0363948	45.7024
0.059205	64.5718
0.0797284	82.4491
0.104852	98.3332
0.127701	111.237
0.15055	124.14
0.173419	134.061
0.196275	145.97
0.21915	154.896
0.242019	164.816
0.264895	173.742
0.287764	183.663
0.310646	191.595
0.331241	198.534
0.354129	205.472
0.377017	212.409
0.402193	220.339
0.422801	225.29
0.445683	233.222
0.468578	239.165
0.491479	244.114
0.516668	250.054
0.539562	255.998
0.557877	260.951
0.583065	266.892
0.60596	272.835
0.628862	277.784
0.65177	281.738
0.695279	291.638
0.741089	300.541
0.786898	309.445
0.835008	317.351
0.855622	321.308
0.924346	333.172
0.947254	337.126
0.970169	340.086
0.993077	344.041
1.00911	347.008
