Adsorption isotherm of Carbon Dioxide on CPM-12
DOI: 10.1002/anie.201101957
Adsorbate Carbon Dioxide: InChIKey CURLTUGMZLYLDI-UHFFFAOYSA-N
Temperature: 273 K
Tabular data in the source: 0
pressure (bar)	uptake (cm3(STP)/g)
0.00568135	1.10155
0.0113627	3.85542
0.0213051	6.88468
0.0326678	9.36317
0.0468711	12.3924
0.0639152	15.284
0.0795389	17.7625
0.0951626	20.5164
0.115047	22.8571
0.129251	24.7849
0.147715	26.988
0.163339	28.9157
0.184644	30.9811
0.20879	33.0465
0.234356	35.3873
0.267023	38.1411
0.29259	40.4819
0.332359	42.8227
0.360766	44.7504
0.389173	47.2289
0.440305	50.2582
0.474393	52.1859
0.517003	54.389
0.570976	57.4182
0.619267	59.8967
0.659037	62.0998
0.722952	64.9914
0.771243	67.1945
0.795389	68.5714
0.805331	68.9845
0.859304	71.3253
0.893392	73.1153
0.941684	75.3184
0.974352	76.9707
1.00418	77.7969
