Adsorption isotherm of Carbon Dioxide on CPM-13
DOI: 10.1002/anie.201101957
Adsorbate Carbon Dioxide: InChIKey CURLTUGMZLYLDI-UHFFFAOYSA-N
Temperature: 273 K
Tabular data in the source: 0
pressure (bar)	uptake (cm3(STP)/g)
0.0183212	3.95905
0.0755976	12.851
0.0985121	15.8111
0.11454	19.7725
0.137454	22.7326
0.158082	24.7008
0.176416	26.6712
0.197031	30.6279
0.233686	36.5574
0.254314	38.5255
0.272641	41.4902
0.295556	44.4504
0.31389	46.4208
0.334518	48.3889
0.352839	52.348
0.371173	54.3184
0.394088	57.2786
0.412422	59.249
0.43075	62.2137
0.451371	65.1762
0.471992	68.1386
0.492619	70.1067
0.513247	72.0749
0.552202	77.0077
0.575117	79.9679
0.614066	85.8951
0.657608	90.8233
0.818016	110.55
0.840924	114.505
0.882172	119.435
0.9005	122.4
0.918834	124.37
0.941749	127.331
0.962376	129.299
0.98301	130.272
1.00133	134.232
1.02424	138.186
