Adsorption isotherm of Nitrogen on CPM-13
DOI: 10.1002/anie.201101957
Adsorbate Nitrogen: InChIKey IJGRMHOSHXDMSA-UHFFFAOYSA-N
Temperature: 77 K
Tabular data in the source: 0
pressure (bar)	uptake (cm3(STP)/g)
0.000996849	197.868
0.00306873	231.673
0.00519925	256.529
0.0119882	270.443
0.0142426	276.406
0.0256444	286.338
0.0370658	293.287
0.04392	297.257
0.0576478	302.215
0.0690953	305.187
0.0828297	309.151
0.0988575	313.112
0.114885	317.073
0.137793	321.028
0.158414	323.99
0.176742	326.955
0.197363	329.917
0.215697	331.888
0.236325	333.856
0.275293	336.8
0.506855	347.507
0.527496	347.487
0.566477	348.442
0.623806	349.38
0.644447	349.359
0.683434	349.32
0.763697	350.235
0.800385	351.193
0.839366	352.148
0.882935	353.099
0.919623	354.057
0.958597	356.007
0.997585	355.968
