Adsorption isotherm of Methane on CPM-13
DOI: 10.1002/anie.201101957
Adsorbate Methane: InChIKey VNWKTOKETHGBQD-UHFFFAOYSA-N
Temperature: 273 K
Tabular data in the source: 0
pressure (bar)	uptake (cm3(STP)/g)
0.0596155	1.92935
0.0802561	1.90883
0.105477	2.87807
0.128405	3.84959
0.151326	5.81543
0.17426	5.79263
0.194894	6.76642
0.220115	7.73566
0.240749	8.70946
0.261389	8.68894
0.28661	9.65818
0.311838	9.63309
0.332472	10.6069
0.357699	10.5818
0.380627	11.5533
0.401261	12.5271
0.426482	13.4964
0.447116	14.4702
0.47005	14.4474
0.492984	14.4245
0.515912	15.3961
0.538839	16.3676
0.564067	16.3425
0.584701	17.3163
0.605335	18.2901
0.630562	18.265
0.653483	20.2309
0.674124	20.2103
0.694758	21.1841
0.742913	22.1306
0.788768	24.0736
0.832343	24.0303
0.859857	24.9972
0.905725	24.9516
0.926359	25.9254
0.949287	26.8969
0.972208	28.8628
0.997435	28.8377
1.0112	28.824
