Adsorption isotherm of P-Xylene on Silicalite MFI
DOI: 10.1002/Aic.10040
Adsorbate P-Xylene: InChIKey URLKBWYHVLBVBO-UHFFFAOYSA-N
Temperature: 300 K
Tabular data in the source: 0
pressure (bar)	uptake (molecules/unitcell)
1.07e-08	0.0674161
1.8e-07	0.259685
6.99e-07	1.0812
2.06e-06	2.70674
3.16e-06	3.33599
1.29e-05	3.94775
3.54e-05	3.94775
6e-05	3.93027
0.000427	3.93027
