Adsorption isotherm of P-Xylene on Silicalite MFI
DOI: 10.1002/Aic.10040
Adsorbate P-Xylene: InChIKey URLKBWYHVLBVBO-UHFFFAOYSA-N
Temperature: 300 K
Tabular data in the source: 0
pressure (bar)	uptake (molecules/unitcell)
1.75e-07	0.294643
7.54e-07	1.34338
2.01e-06	3.87784
3.24e-06	5.4859
1.29e-05	7.44355
3.91e-05	7.67078
5.56e-05	7.58338
0.000427	7.88053
