Adsorption isotherm of P-Xylene on Silicalite MFI
DOI: 10.1002/Aic.10040
Adsorbate P-Xylene: InChIKey URLKBWYHVLBVBO-UHFFFAOYSA-N
Temperature: 300 K
Tabular data in the source: 0
pressure (bar)	uptake (molecules/unitcell)
1.75e-07	0.0674161
7.17e-07	0.242206
2.11e-06	1.18607
3.24e-06	2.09498
1.26e-05	3.51078
3.91e-05	3.72053
5.7e-05	3.61565
0.000438	3.94775
