Adsorption isotherm of Nitrogen on MOF-GO SA
DOI: 10.1039/c5ta01359c
Article source: Figure 1b
Adsorbate Nitrogen: InChIKey IJGRMHOSHXDMSA-UHFFFAOYSA-N
Kind: experiment
Temperature: 77 K
Tabular data in the source: 0
pressure (bar)	uptake (cm3(STP)/g)
0	3.367
0	8.41751
0	13.468
0	16.835
0	21.8855
0	26.936
0	31.9865
1e-06	37.037
1e-06	42.0875
1e-06	45.4545
1e-06	50.5051
1e-06	55.5556
1e-06	60.6061
1e-06	65.6566
1e-06	69.0236
2e-06	74.0741
2e-06	80.8081
2e-06	85.8586
2e-06	90.9091
2e-06	95.9596
3e-06	101.01
3e-06	107.744
3e-06	111.111
4e-06	116.162
4e-06	119.529
5e-06	124.579
5e-06	129.63
6e-06	134.68
8e-06	139.731
9e-06	144.781
1.1e-05	148.148
1.2e-05	154.882
1.3e-05	158.249
1.4e-05	161.616
1.7e-05	168.35
1.9e-05	171.717
2e-05	176.768
2.1e-05	181.818
2.3e-05	188.552
2.4e-05	191.919
2.7e-05	196.97
3e-05	202.02
3.1e-05	207.071
3.3e-05	212.121
3.5e-05	215.488
3.6e-05	220.539
3.8e-05	225.589
4e-05	228.956
4.2e-05	234.007
4.5e-05	244.108
4.7e-05	247.475
5e-05	252.525
5.2e-05	259.259
5.8e-05	265.993
6.1e-05	272.727
6.4e-05	276.094
6.7e-05	281.145
7.5e-05	286.195
8.3e-05	289.562
9.1e-05	294.613
0.000107	299.663
0.020741	370.37
0.044684	378.788
0.067288	383.838
0.09147	385.522
0.112243	388.889
0.160589	392.256
0.187234	392.256
0.229759	393.939
0.267879	395.623
0.312324	397.306
0.345979	397.306
0.364144	398.99
0.383261	398.99
0.403382	398.99
0.42456	400.673
0.446849	400.673
0.495	402.357
0.520988	400.673
0.54834	402.357
0.577129	402.357
0.639318	402.357
0.672882	402.357
0.708208	402.357
0.74539	402.357
0.784523	404.04
0.82571	404.04
0.914686	405.724
