Adsorption isotherm of Nitrogen on MOF-GO PSN
DOI: 10.1039/c5ta01359c
Article source: Figure 1b
Adsorbate Nitrogen: InChIKey IJGRMHOSHXDMSA-UHFFFAOYSA-N
Kind: experiment
Temperature: 77 K
Tabular data in the source: 0
pressure (bar)	uptake (cm3(STP)/g)
0	3.367
0	8.41751
0	13.468
0	18.5185
0	23.569
0	26.936
0	31.9865
0	37.037
0	43.771
1e-06	48.8215
1e-06	52.1886
1e-06	57.2391
1e-06	62.2896
1e-06	65.6566
1e-06	69.0236
1e-06	72.3906
1e-06	75.7576
1e-06	80.8081
1e-06	82.4916
1e-06	85.8586
1e-06	89.2256
2e-06	92.5926
2e-06	95.9596
2e-06	101.01
2e-06	106.061
2e-06	109.428
2e-06	114.478
2e-06	119.529
3e-06	124.579
3e-06	131.313
3e-06	134.68
3e-06	138.047
3e-06	141.414
3e-06	144.781
4e-06	146.465
4e-06	148.148
4e-06	149.832
5e-06	154.882
5e-06	156.566
6e-06	159.933
7e-06	163.3
7e-06	166.667
8e-06	170.034
9e-06	171.717
1e-05	173.401
1.2e-05	176.768
1.3e-05	180.135
1.4e-05	185.185
1.5e-05	188.552
1.9e-05	193.603
2.1e-05	198.653
2.3e-05	202.02
2.4e-05	207.071
2.8e-05	213.805
3.1e-05	220.539
3.5e-05	225.589
3.6e-05	232.323
3.8e-05	237.374
4e-05	240.741
4.2e-05	245.791
4.5e-05	250.842
5e-05	257.576
5.2e-05	269.36
5.8e-05	276.094
6.1e-05	279.461
6.4e-05	284.512
6.7e-05	292.929
7.1e-05	297.98
7.5e-05	306.397
7.8e-05	313.131
8.3e-05	318.182
8.7e-05	321.549
9.1e-05	324.916
9.6e-05	328.283
0.020741	412.458
0.042456	420.875
0.067288	427.609
0.09147	430.976
0.118136	434.343
0.137737	434.343
0.177894	437.71
0.229759	441.077
0.267879	444.444
0.312324	444.444
0.364144	446.128
0.403382	447.811
0.470309	449.495
0.520988	451.178
0.607428	451.178
0.672882	451.178
0.74539	451.178
0.82571	452.862
0.86906	457.912
0.914686	469.697
0.962708	476.431
1.01325	478.114
