Adsorption isotherm of Nitrogen on CuBTC
DOI: 10.1039/c5ta01359c
Article source: Figure 1a
Adsorbate Nitrogen: InChIKey IJGRMHOSHXDMSA-UHFFFAOYSA-N
Kind: experiment
Temperature: 77 K
Tabular data in the source: 0
pressure (bar)	uptake (cm3(STP)/g)
0	0
0.008444	291.946
0.025331	300.336
0.045033	305.369
0.064735	308.725
0.075994	308.725
0.101325	310.403
0.126656	313.758
0.154802	313.758
0.177319	315.436
0.20265	317.114
0.227981	317.114
0.253312	317.114
0.278644	318.792
0.303975	320.47
0.354637	322.148
0.425002	322.148
0.475664	323.826
0.50944	323.826
0.576989	323.826
0.60795	323.826
0.678314	325.503
0.71209	325.503
0.765567	327.181
0.830302	327.181
0.864077	327.181
0.931627	328.859
0.940071	328.859
0.965402	330.537
1.00481	332.215
