Adsorption isotherm of Nitrogen on MOF-GO SA
DOI: 10.1039/c5ta01359c
Article source: Figure 1a
Adsorbate Nitrogen: InChIKey IJGRMHOSHXDMSA-UHFFFAOYSA-N
Kind: experiment
Temperature: 77 K
Tabular data in the source: 0
pressure (bar)	uptake (cm3(STP)/g)
0	0
0.019702	370.805
0.045033	379.195
0.06755	382.55
0.090067	385.906
0.115398	387.584
0.160431	390.94
0.199835	392.617
0.242054	394.295
0.281459	395.973
0.320863	395.973
0.363081	397.651
0.382784	397.651
0.4053	397.651
0.425002	397.651
0.444704	397.651
0.464406	399.329
0.486923	399.329
0.50381	399.329
0.526327	399.329
0.546029	399.329
0.565731	399.329
0.605135	399.329
0.647354	399.329
0.667056	399.329
0.686759	399.329
0.709275	401.007
0.748679	401.007
0.768381	401.007
0.790898	401.007
0.807785	401.007
0.833116	401.007
0.847189	402.685
0.872521	404.362
