Adsorption isotherm of Nitrogen on CuBTC
DOI: 10.1039/c5ta01359c
Article source: Figure 1b
Adsorbate Nitrogen: InChIKey IJGRMHOSHXDMSA-UHFFFAOYSA-N
Kind: experiment
Temperature: 77 K
Tabular data in the source: 0
pressure (bar)	uptake (cm3(STP)/g)
4e-06	101.01
1.1e-05	119.529
1.8e-05	141.414
2.7e-05	163.3
3.3e-05	180.135
4.2e-05	202.02
5.8e-05	222.222
0.000101	240.741
0.000282	260.943
0.001779	279.461
0.010132	292.929
0.025452	299.663
0.044684	303.03
0.063932	306.397
0.078452	309.764
0.106645	311.448
0.130866	313.131
0.144968	314.815
0.16902	316.498
0.187234	316.498
0.207409	318.182
0.218298	318.182
0.229759	318.182
0.267879	318.182
0.296745	319.865
0.345979	321.549
0.364144	321.549
0.383261	323.232
0.42456	323.232
0.470309	323.232
0.577129	324.916
0.607428	324.916
0.672882	326.599
0.708208	326.599
0.784523	328.283
0.82571	328.283
0.962708	331.65
