Adsorption isotherm of Nitrogen on MOF-GO PSN
DOI: 10.1039/c5ta01359c
Article source: Figure 1a
Adsorbate Nitrogen: InChIKey IJGRMHOSHXDMSA-UHFFFAOYSA-N
Kind: experiment
Temperature: 77 K
Tabular data in the source: 0
pressure (bar)	uptake (cm3(STP)/g)
0	0
0.022517	409.396
0.070365	426.174
0.115398	432.886
0.182948	437.919
0.261756	442.953
0.343379	444.631
0.385598	446.309
0.422188	447.987
0.467221	447.987
0.506625	449.664
0.546029	449.664
0.605135	449.664
0.647354	449.664
0.709275	451.342
0.751494	451.342
0.790898	451.342
0.850004	453.02
0.892223	456.376
0.928813	469.799
0.990734	478.188
