Adsorption isotherm of Hydrogen on MIL-100(Al)
DOI: 10.1021/Ja9084995
Adsorbate Hydrogen: InChIKey UFHFLCQGNIYNRP-UHFFFAOYSA-N
Temperature: 298 K
Tabular data in the source: 0
pressure (bar)	uptake (wt%)
0.655348	0.00386473
1.30911	0.0115942
6.22183	0.0463768
10.8124	0.0657005
20.3158	0.119807
28.51	0.162319
41.298	0.216425
54.7461	0.262802
