Adsorption isotherm of Hydrogen on MIL-100(Al)+Pd
DOI: 10.1021/Ja9084995
Adsorbate Hydrogen: InChIKey UFHFLCQGNIYNRP-UHFFFAOYSA-N
Temperature: 298 K
Tabular data in the source: 0
pressure (bar)	uptake (wt%)
1.27579	0.0927536
5.52999	0.131401
12.0739	0.193237
28.1355	0.274396
48.4656	0.35942
67.4627	0.490821
85.8124	0.599034
