Adsorption isotherm of Nitrogen on MIL-100(Al)
DOI: 10.1021/Ja9084995
Adsorbate Nitrogen: InChIKey IJGRMHOSHXDMSA-UHFFFAOYSA-N
Temperature: 77 K
Tabular data in the source: 0
pressure (bar)	uptake (cm3(STP)/g)
0.00195	176
0.0050143	224
0.00833975	242
0.0186121	262
0.0357617	292
0.059893	320
0.0840939	340
0.118707	364
0.143047	368
0.16044	370
0.177816	374
0.209155	374
0.233496	378
0.254371	380
0.278746	380
0.306586	382
0.327479	382
0.351836	384
0.393605	386
0.424944	386
0.466695	390
0.484106	390
0.518927	390
0.550267	390
0.605946	394
0.640751	396
0.661661	394
0.692983	396
0.717358	396
0.755661	396
0.793965	396
0.832251	398
0.853127	400
0.912306	402
0.936664	404
0.954022	410
0.960899	420
