Adsorption isotherm of Hydrogen on MIL-100(Al)+Pd
DOI: 10.1021/Ja9084995
Adsorbate Hydrogen: InChIKey UFHFLCQGNIYNRP-UHFFFAOYSA-N
Temperature: 77 K
Tabular data in the source: 0
pressure (bar)	uptake (wt%)
0.617275	0.482959
3.53862	0.907453
10.0906	1.11861
18.2929	1.23279
31.0986	1.28801
48.1776	1.30367
69.8616	1.24104
81.3629	1.1806
