Adsorption isotherm of Nitrogen on MIL-100(Al)+Pd
DOI: 10.1021/Ja9084995
Adsorbate Nitrogen: InChIKey IJGRMHOSHXDMSA-UHFFFAOYSA-N
Temperature: 77 K
Tabular data in the source: 0
pressure (bar)	uptake (cm3(STP)/g)
0.00297724	58
0.00346474	2
0.00980225	74
0.023609	88
0.0444148	98
0.0791493	108
0.1209	112
0.159169	116
0.187009	118
0.232277	118
0.274045	120
0.312331	122
0.409797	126
0.448101	126
0.486387	128
0.524673	130
0.562977	130
0.601263	132
0.677835	136
0.733532	138
0.75789	140
0.817034	146
0.855286	152
0.872662	156
0.924772	170
0.945543	184
0.955868	198
0.955937	190
0.962693	214
