Adsorption isotherm of Hydrogen on MIL-100(Al)
DOI: 10.1021/Ja9084995
Adsorbate Hydrogen: InChIKey UFHFLCQGNIYNRP-UHFFFAOYSA-N
Temperature: 77 K
Tabular data in the source: 0
pressure (bar)	uptake (wt%)
0.602994	0.656875
1.5297	1.37165
4.10194	2.04743
7.35811	2.39456
12.9136	2.74119
22.7456	3.00961
34.8895	3.12294
47.3699	3.13959
62.8129	3.0783
