Adsorption isotherm of Benzene, Water on graphitic surface
DOI: 10.1021/jp301729x
Article source: Figure 12a- binary isotherm
Adsorbate Benzene: InChIKey UHOVQNZJYSORNB-UHFFFAOYSA-N
Adsorbate Water: InChIKey XLYOFNOQVPJJNP-UHFFFAOYSA-N
Kind: experiment
Isotherm type: excess
Temperature: 303 K
Tabular data in the source: 0
pressure (bar)	Benzene fraction	Benzene uptake (kmol/m2)	Water fraction	Water uptake (kmol/m2)	total uptake (kmol/m2)
9.4e-05	0.5	0.00334	0.5	0.00668	
0.001011	0.5	0.03785	0.5	0.00651	
0.002009	0.5	0.07379	0.5	0.00619	
0.004	0.5	0.1366	0.5	0.00665	
0.006009	0.5	0.17794	0.5	0.00695	
0.01	0.5	0.24408	0.5	0.00835	
0.012015	0.5	0.27015	0.5	0.00929	
0.014018	0.5	0.28206	0.5	0.0107	
0.016015	0.5	0.30209	0.5	0.01053	
0.01799	0.5	0.31734	0.5	0.01226	
0.020009	0.5	0.32942	0.5	0.01129	
0.02204	0.5	0.33051	0.5	0.01271	
0.023999	0.5	0.33638	0.5	0.01349	
0.026006	0.5	0.34432	0.5	0.01395	
0.028018	0.5	0.36355	0.5	0.01393	
0.030002	0.5	0.36179	0.5	0.01487	
0.032018	0.5	0.36034	0.5	0.01502	
0.034024	0.5	0.36621	0.5	0.01484	
0.036018	0.5	0.38464	0.5	0.01848	
0.037987	0.5	0.40085	0.5	0.03183	
0.040012	0.5	0.40863	0.5	0.04597	
0.042009	0.5	0.40527	0.5	0.06361	
0.044036	0.5	0.41098	0.5	0.06884	
0.045984	0.5	0.41224	0.5	0.08346	
0.048003	0.5	0.41715	0.5	0.11398	
0.050008	0.5	0.43734	0.5	0.13433	
0.052027	0.5	0.44035	0.5	0.16247	
0.054011	0.5	0.44462	0.5	0.21017	
0.056014	0.5	0.45383	0.5	0.24515	
0.058011	0.5	0.46304	0.5	0.28569	
0.059992	0.5	0.46685	0.5	0.32973	
0.061996	0.5	0.47796	0.5	0.3768	
0.063992	0.5	0.49624	0.5	0.44423	
0.065998	0.5	0.50195	0.5	0.49241	
0.068014	0.5	0.50766	0.5	0.54902	
0.069985	0.5	0.52291	0.5	0.59736	
0.071985	0.5	0.51097	0.5	0.72284	
0.07402	0.5	0.52368	0.5	0.84148	
0.075985	0.5	0.56756	0.5	0.95202	
0.077997	0.5	0.586	0.5	1.07177	
0.07999	0.5	0.58073	0.5	1.14365	
0.081975	0.5	0.58247	0.5	1.22142	
0.084025	0.5	0.61188	0.5	1.30745	
0.085984	0.5	0.61059	0.5	1.34816	
0.087977	0.5	0.63443	0.5	1.4194	
0.090018	0.5	0.68993	0.5	1.53518	
