Adsorption isotherm of Argon on Graphite
DOI: 10.1021/la1024857
Adsorbate Argon: InChIKey XKRFYHLGVUSROY-UHFFFAOYSA-N
Temperature: 130 K
Tabular data in the source: 0
pressure (bar)	uptake (micromoles/m2)
0.00822458	0.0233443
0.0211696	0.395081
0.0311168	0.496463
0.0406991	0.800611
0.052004	1.10476
0.0584424	1.20614
0.0712694	1.57788
0.0869118	2.08479
0.105987	2.55791
0.206155	4.99109
0.317506	6.47804
0.425089	7.25531
0.518389	7.99878
0.639588	8.33672
0.798387	8.80984
0.940116	9.18157
1.02015	9.38434
1.55294	10.3644
2.12824	11.0403
2.71939	11.7499
3.12825	12.2231
4.18823	13.4734
5.2281	14.859
6.30158	16.3459
7.33413	17.8667
8.53586	19.3536
9.48133	20.942
10.5315	22.5979
12.843	26.4166
14.9474	31.5195
