Adsorption isotherm of Argon on Graphite
DOI: 10.1021/la1024857
Adsorbate Argon: InChIKey XKRFYHLGVUSROY-UHFFFAOYSA-N
Temperature: 120 K
Tabular data in the source: 0
pressure (bar)	uptake (micromoles/m2)
0.00521696	0.0233443
0.00690362	0.158521
0.0101475	0.22611
0.0216696	0.834405
0.0318517	1.57788
0.0502145	2.79447
0.069625	4.04486
0.101153	5.76836
0.206155	7.96498
0.313822	8.77604
0.536862	9.75608
0.735749	10.2968
1.05651	10.9389
2.07913	12.7976
3.16498	15.1969
5.2281	20.5364
7.33413	26.4842
