Adsorption isotherm of Argon on Carbon Black
DOI: 10.1021/la1024857
Adsorbate Argon: InChIKey XKRFYHLGVUSROY-UHFFFAOYSA-N
Temperature: 260 K
Tabular data in the source: 0
pressure (bar)	uptake (micromoles/m2)
23.1562	4.36631
27.0191	4.77527
33.0889	5.45695
37.5042	5.86578
41.9204	6.2063
46.3357	6.61513
53.5128	7.09164
58.4822	7.36373
63.4515	7.63583
73.3903	8.18001
78.3612	8.31549
83.8838	8.51915
85.5405	8.58708
91.0638	8.72244
96.034	8.92622
103.214	9.12951
108.739	9.12825
114.263	9.1953
120.892	9.26209
126.417	9.26083
131.942	9.25958
137.466	9.32662
142.991	9.32537
148.515	9.39241
154.04	9.39116
159.012	9.45833
164.536	9.45707
170.061	9.52412
175.585	9.52286
181.11	9.52161
186.634	9.58865
189.949	9.5879
195.473	9.65495
202.657	9.58501
208.181	9.58375
213.707	9.51418
219.233	9.44462
224.206	9.37518
229.731	9.30562
254.597	8.95843
260.123	8.88886
265.648	8.8193
270.622	8.74986
276.147	8.68029
291.066	8.54029
296.591	8.47072
