Adsorption isotherm of Argon on Carbon Black
DOI: 10.1021/la1024857
Adsorbate Argon: InChIKey XKRFYHLGVUSROY-UHFFFAOYSA-N
Temperature: 200 K
Tabular data in the source: 0
pressure (bar)	uptake (micromoles/m2)
3.8342	3.00459
6.0283	4.43852
7.12271	5.39455
10.9758	6.69149
12.6295	7.03264
15.3851	7.64677
17.5883	8.26102
23.1011	9.35266
26.41	9.89836
31.9273	10.5802
34.6844	11.0577
38.5466	11.5349
42.9612	12.0121
46.8233	12.4893
52.3429	12.9662
56.205	13.4435
60.6204	13.8523
72.2128	14.7377
77.7355	14.9413
82.7063	15.0768
88.2297	15.2122
93.2006	15.3476
98.1707	15.5514
102.037	15.6188
107.014	15.2762
111.989	15.0018
116.964	14.7275
121.94	14.4531
126.915	14.1788
131.891	13.9044
136.866	13.63
142.394	13.3556
155.662	12.6012
160.637	12.3268
165.613	12.0525
170.588	11.7781
176.116	11.5036
186.62	10.8865
202.651	10.0631
208.178	9.92528
213.152	9.78753
218.677	9.71797
223.651	9.58023
229.177	9.44235
243.547	9.02925
