Adsorption isotherm of Argon on Graphite
DOI: 10.1021/la1024857
Adsorbate Argon: InChIKey XKRFYHLGVUSROY-UHFFFAOYSA-N
Temperature: 77 K
Tabular data in the source: 0
pressure (bar)	uptake (micromoles/m2)
4.56405e-05	0.124727
8.57203e-05	0.462669
0.000123091	1.00338
0.000174703	1.98341
0.000208131	3.53794
0.000239424	5.12627
0.000295401	7.25531
0.000381885	8.80984
0.000505349	9.95884
0.000796687	10.7699
0.00191193	11.6486
0.0040355	12.2568
0.00841884	12.7976
0.01407	13.5072
0.0296974	14.1493
0.0496318	14.8928
0.0729527	15.7377
0.0859032	17.0218
0.0965385	19.1171
0.10234	21.1785
0.112357	23.3751
0.12775	26.3152
0.152194	28.7484
0.171036	30.7085
0.175076	32.3644
0.183444	34.7976
0.194468	37.2984
0.208576	39.8667
