Adsorption isotherm of Argon on Graphite
DOI: 10.1021/la1024857
Adsorbate Argon: InChIKey XKRFYHLGVUSROY-UHFFFAOYSA-N
Temperature: 55 K
Tabular data in the source: 0
pressure (bar)	uptake (micromoles/m2)
1.00906e-08	0.0301594
3.12978e-08	0.0968976
5.17609e-08	0.163508
9.70758e-08	0.388453
1.56558e-07	0.851488
1.56558e-07	1.32571
1.7754e-07	2.10599
1.7754e-07	4.00977
1.867e-07	7.0441
1.867e-07	8.2745
2.01334e-07	9.71981
2.93618e-07	10.5345
7.08168e-07	11.6497
1.14209e-06	11.8865
2.14195e-06	11.8865
3.12373e-06	12.3746
5.43263e-06	12.1281
9.93562e-06	12.1281
2.06064e-05	12.3746
3.08171e-05	12.1281
5.09658e-05	11.8865
0.000103077	12.3746
0.000432365	15.7545
0.000432365	18.8826
0.000454673	13.1447
0.000478132	25.536
0.00069729	25.536
0.000942987	25.536
0.00134106	26.0551
0.00137522	34.5339
0.00155953	35.9521
0.00181359	40.566
0.00210904	53.7669
0.00233229	80.409
0.00257917	117.857
0.00292484	127.736
0.00376137	130.332
