Adsorption isotherm of Argon on Carbon Black
DOI: 10.1021/la1024857
Adsorbate Argon: InChIKey XKRFYHLGVUSROY-UHFFFAOYSA-N
Temperature: 160 K
Tabular data in the source: 0
pressure (bar)	uptake (micromoles/m2)
1.61067	4.23461
2.13674	6.6252
3.78062	7.85433
5.97321	9.42487
7.6201	10.3808
10.3667	11.8146
13.1208	12.5653
14.7707	13.248
16.4214	13.8624
18.0713	14.5451
19.722	15.1594
22.4708	16.3883
24.1208	17.071
25.7714	17.6854
27.4213	18.3681
29.072	18.9825
31.8186	20.4163
32.916	21.0991
34.0135	21.7819
35.1116	22.3964
36.2091	23.0792
37.3065	23.762
38.4039	24.4448
39.5021	25.0593
40.5995	25.7421
41.697	26.4249
42.7944	27.1077
44.4451	27.7221
45.5425	28.4049
46.6399	29.0877
47.7373	29.7706
48.8348	30.4534
49.933	31.0679
51.5919	30.9309
52.152	30.2477
53.2645	29.5644
54.3815	28.4712
55.4941	27.7879
56.0548	27.0364
56.6149	26.3532
57.7274	25.6699
58.2874	24.9867
59.4	24.3034
59.9592	23.6885
60.5193	23.0053
61.6318	22.322
62.1911	21.7072
62.7511	21.024
63.8636	20.3407
66.6548	17.7444
67.2148	17.0612
68.3273	16.3779
68.8874	15.6947
72.7751	13.8496
76.0961	13.3023
79.9688	12.8233
84.9502	12.0025
88.8237	11.4552
92.1439	10.9763
96.0181	10.3607
99.3391	9.81345
101.551	9.67633
107.077	9.53846
112.052	9.33241
120.894	9.12548
126.42	8.98761
131.394	8.84986
136.92	8.71199
141.894	8.57425
147.42	8.50469
152.394	8.36694
157.92	8.22907
162.894	8.09133
168.42	7.95346
178.921	7.67784
184.447	7.53997
189.421	7.40223
194.947	7.26436
204.894	7.05717
217.049	7.05441
222.575	6.98484
228.1	6.98358
233.625	6.91402
238.598	6.84458
244.123	6.84332
249.649	6.77376
255.174	6.7725
260.699	6.70294
266.224	6.70168
271.197	6.63224
276.722	6.63098
282.248	6.56142
287.773	6.56016
299.928	6.48909
