Adsorption isotherm of Argon on Carbon Black
DOI: 10.1021/la1024857
Adsorbate Argon: InChIKey XKRFYHLGVUSROY-UHFFFAOYSA-N
Temperature: 155 K
Tabular data in the source: 0
pressure (bar)	uptake (micromoles/m2)
1.0612	3.96151
1.60086	5.12259
2.68017	7.44474
3.77231	8.6057
5.96641	10.0396
8.16353	11.2003
10.3561	12.7709
12.0098	13.112
13.1072	13.7948
14.7579	14.4092
15.8553	15.092
17.5053	15.7747
18.6034	16.3892
20.2496	17.4134
21.901	17.9595
22.9984	18.6423
24.0959	19.3251
25.7465	19.9395
26.844	20.6223
27.9414	21.3051
29.0388	21.9879
30.6865	22.8755
32.3235	24.7194
32.8685	25.4024
33.4134	26.0853
33.9584	26.7682
34.5033	27.4512
35.0482	28.1341
35.5932	28.817
36.1381	29.5
36.6831	30.1829
38.3186	32.1634
38.8636	32.8463
39.9542	34.1439
40.4992	34.8268
41.5898	36.1244
42.1347	36.8073
42.6797	37.4903
43.2246	38.1732
43.7695	38.8562
44.3145	39.5391
44.8594	40.222
45.4044	40.905
45.9493	41.5879
46.4942	42.2708
47.0399	42.8855
47.5849	43.5684
48.1298	44.2513
48.6748	44.9343
49.2197	45.6172
49.7541	47.2564
