Adsorption isotherm of Argon on Graphite
DOI: 10.1021/la1024857
Adsorbate Argon: InChIKey XKRFYHLGVUSROY-UHFFFAOYSA-N
Temperature: 100 K
Tabular data in the source: 0
pressure (bar)	uptake (micromoles/m2)
0.000377453	0.0571385
0.000542009	0.124727
0.000742802	0.192315
0.00104202	0.327492
0.00212371	0.530257
0.00308537	1.07096
0.00413081	1.51029
0.00527821	2.32135
0.00614307	2.86206
0.00723358	3.57174
0.00803481	4.31521
0.00935135	4.9573
0.0106325	5.56559
0.0211696	8.16775
0.0311168	8.91122
0.0421495	9.38434
0.0502145	9.75608
0.0612357	9.89125
0.0764395	10.094
0.103542	10.3644
0.211024	11.2768
0.321234	11.8513
0.420157	12.392
0.524475	13.1693
0.62483	14.0141
0.727211	15.1631
0.856305	16.0418
0.951153	17.2922
1.03213	18.5088
1.57117	23.7469
2.12824	30.6071
