Adsorption isotherm of Argon on Carbon Black
DOI: 10.1021/la1024857
Adsorbate Argon: InChIKey XKRFYHLGVUSROY-UHFFFAOYSA-N
Temperature: 800 K
Tabular data in the source: 0
pressure (bar)	uptake (micromoles/m2)
20.9931	0.127052
30.9364	0.259136
44.7478	0.321153
54.6911	0.453237
60.216	0.450721
65.7409	0.448205
72.9225	0.513241
78.4466	0.579032
83.9715	0.576516
89.4957	0.642306
95.0206	0.63979
103.307	0.704323
108.832	0.701807
114.357	0.699291
119.329	0.765333
124.853	0.762817
130.378	0.828608
135.902	0.826092
141.427	0.823576
146.951	0.889366
152.476	0.88685
158.001	0.884335
162.973	0.950377
168.498	0.947861
173.469	1.0139
178.994	1.01139
184.518	1.07718
190.043	1.07466
195.568	1.07215
202.751	1.06887
208.275	1.13467
213.8	1.13215
219.324	1.19794
224.849	1.19542
230.374	1.19291
235.346	1.19064
240.87	1.25643
246.395	1.25392
251.92	1.2514
257.444	1.31719
262.969	1.31468
268.494	1.31216
274.018	1.37795
279.543	1.37544
285.068	1.37292
290.593	1.3704
296.117	1.43619
