Adsorption isotherm of Argon on Carbon Black
DOI: 10.1021/la1024857
Adsorbate Argon: InChIKey XKRFYHLGVUSROY-UHFFFAOYSA-N
Temperature: 298 K
Tabular data in the source: 0
pressure (bar)	uptake (micromoles/m2)
13.2416	1.63633
17.1037	2.11359
20.9658	2.59085
23.1743	2.72696
27.5897	3.13579
31.4533	3.47645
35.8694	3.81697
40.838	4.15737
45.8067	4.49777
50.2228	4.83829
55.1929	5.04208
60.1623	5.31417
65.1324	5.51796
70.1018	5.79005
75.0726	5.92553
80.0428	6.12932
85.5661	6.26467
91.0887	6.46833
96.0589	6.67212
99.3723	6.80798
104.896	6.87502
110.421	6.94207
115.392	7.00925
119.259	7.07667
124.784	7.07541
130.308	7.14246
135.279	7.20964
140.803	7.34499
146.328	7.34373
151.851	7.47909
166.214	7.61243
178.919	7.81445
184.444	7.8132
189.968	7.88024
194.94	7.94742
199.911	8.0829
202.121	8.01409
207.646	8.01283
213.171	8.01157
218.696	8.01032
224.222	7.94075
229.747	7.93949
238.587	7.86917
264.555	7.79496
282.788	7.65419
300.467	7.71847
