Adsorption isotherm of Argon on Carbon Black
DOI: 10.1021/la1024857
Adsorbate Argon: InChIKey XKRFYHLGVUSROY-UHFFFAOYSA-N
Temperature: 87 K
Tabular data in the source: 0
pressure (bar)	uptake (micromoles/m2)
0.00318015	6.07004
0.0097728	9.88648
0.0181225	10.7553
0.0315111	11.105
0.0532639	11.8033
0.0817256	12.1562
0.103488	12.5077
0.162057	14.2543
0.177116	14.7778
0.193844	15.475
0.203883	15.824
0.217262	16.5205
0.228961	17.39
0.242335	18.2599
0.255709	19.1298
0.264069	19.6519
0.279118	20.5221
0.292492	21.3921
0.305866	22.262
0.314235	22.4372
0.329298	22.7872
0.346032	23.311
0.36444	23.8352
0.381178	24.1856
0.396236	24.709
0.416319	25.2336
0.431378	25.757
0.448106	26.4542
0.464835	27.1515
0.479884	28.0217
0.493258	28.8916
0.516666	30.2839
0.528355	31.5003
0.541725	32.5436
0.566803	34.1097
0.583541	34.4601
0.598604	34.8101
0.617008	35.5077
0.630377	36.551
0.643746	37.5944
0.667154	38.9867
0.680524	40.03
0.695577	40.7268
0.717316	41.9454
0.73069	42.8153
0.745738	43.6855
0.767457	45.5977
0.777467	46.9871
0.787477	48.3766
0.797487	49.766
0.809162	51.5026
