Adsorption isotherm of Argon on Graphite
DOI: 10.1021/la1024857
Adsorbate Argon: InChIKey XKRFYHLGVUSROY-UHFFFAOYSA-N
Temperature: 87 K
Tabular data in the source: 0
pressure (bar)	uptake (micromoles/m2)
0.000262857	0.22611
0.00034784	0.327492
0.000511282	0.766817
0.000734182	1.13855
0.00101798	2.11859
0.00128565	3.2
0.00154963	4.51797
0.00180355	5.66698
0.00214864	6.44424
0.00244301	7.18772
0.0027136	7.72842
0.00304956	8.13395
0.00413081	8.91122
0.00492121	9.21537
0.00731851	9.58711
0.0105091	10.094
0.0206812	10.7023
0.0311168	11.0065
0.0526145	11.4796
0.0859032	11.7837
0.104757	12.0541
0.155788	12.8989
0.211024	13.541
0.266511	15.0956
0.313822	17.2246
0.369531	19.5564
0.415281	22.1248
0.466695	23.4089
0.506428	24.5241
0.589408	25.7745
0.617579	28.3429
0.678025	30.303
0.744387	33.8851
0.779965	36.9604
