Adsorption isotherm of Argon on Carbon Black
DOI: 10.1021/la1024857
Adsorbate Argon: InChIKey XKRFYHLGVUSROY-UHFFFAOYSA-N
Temperature: 400 K
Tabular data in the source: 0
pressure (bar)	uptake (micromoles/m2)
13.2529	0.611737
18.2223	0.883829
20.4307	1.01994
23.1932	1.01931
27.61	1.29153
30.371	1.42751
33.1334	1.42688
38.1035	1.63067
43.6261	1.83433
48.5963	2.03812
50.253	2.10604
53.0154	2.10542
57.9855	2.3092
63.5089	2.44456
68.479	2.64834
70.1357	2.71627
73.4507	2.71552
78.4215	2.851
83.9449	2.98635
89.4683	3.12171
94.4391	3.25719
100.516	3.32411
103.277	3.46009
108.801	3.52714
114.325	3.59419
117.639	3.66174
123.163	3.72879
128.687	3.79584
133.659	3.86301
136.973	3.93056
142.497	3.99761
148.021	4.06466
150.783	4.13234
156.307	4.19938
161.831	4.26643
166.803	4.33361
172.327	4.40065
177.851	4.4677
183.375	4.53475
184.48	4.60281
190.004	4.66985
195.528	4.7369
199.947	4.8042
202.709	4.80357
208.233	4.87062
213.758	4.86936
219.283	4.8681
224.807	4.93515
230.332	4.9339
235.304	5.00107
240.829	4.99981
243.59	5.06749
249.115	5.06623
254.64	5.06497
256.849	5.13278
262.374	5.13152
267.899	5.13026
273.423	5.19731
278.948	5.19605
284.472	5.2631
289.997	5.26184
292.759	5.32952
298.284	5.32826
