Adsorption isotherm of Argon on Graphite
DOI: 10.1021/la1024857
Adsorbate Argon: InChIKey XKRFYHLGVUSROY-UHFFFAOYSA-N
Temperature: 140 K
Tabular data in the source: 0
pressure (bar)	uptake (micromoles/m2)
0.0206812	0.0909327
0.0311168	0.158521
0.0421495	0.395081
0.0526145	0.462669
0.062682	0.597846
0.0712694	0.564052
0.0810333	0.901994
0.0932166	1.00338
0.105987	1.30752
0.211024	2.65929
0.321234	3.94347
0.415281	4.9573
0.524475	5.80215
0.632166	6.34286
0.753126	6.95116
0.836546	7.35669
0.940116	7.66084
1.06891	7.93119
1.57117	8.94502
2.07913	9.48572
2.62582	9.95884
3.12825	10.4995
4.13962	11.3782
5.28948	12.2906
6.15618	13.0679
7.42023	13.879
8.4368	14.8928
9.48133	15.7039
10.7803	16.5825
12.694	18.4074
14.9474	20.5364
16.798	22.4965
19.0993	24.7607
20.9686	27.8022
23.2912	31.0464
25.2741	36.0818
