Adsorption isotherm of Argon on Carbon Black
DOI: 10.1021/la1024857
Adsorbate Argon: InChIKey XKRFYHLGVUSROY-UHFFFAOYSA-N
Temperature: 240 K
Tabular data in the source: 0
pressure (bar)	uptake (micromoles/m2)
12.6672	3.61733
15.4229	4.23146
18.1793	4.77728
23.1418	5.66413
27.004	6.14139
33.073	6.89138
37.4884	7.30021
41.9038	7.70904
46.3199	8.04956
52.9452	8.45789
57.3606	8.86672
62.33	9.13881
67.2986	9.47921
72.8212	9.68287
77.7913	9.88666
82.7614	10.0904
88.284	10.2941
93.2542	10.4979
110.932	10.6988
116.456	10.6975
121.981	10.6963
127.506	10.695
133.031	10.6938
138.557	10.6242
144.082	10.6229
149.606	10.6217
155.131	10.6204
160.657	10.5509
166.182	10.5496
171.707	10.5483
178.889	10.5467
184.414	10.5454
199.331	10.542
214.253	10.1288
241.331	9.5762
