Adsorption isotherm of Argon on Carbon Black
DOI: 10.1021/la1024857
Adsorbate Argon: InChIKey XKRFYHLGVUSROY-UHFFFAOYSA-N
Temperature: 87 K
Tabular data in the source: 0
pressure (bar)	uptake (micromoles/m2)
0.00319467	5.54982
0.00330116	1.73481
0.00645711	8.6719
0.0131175	10.0606
0.0198021	10.5823
0.0315159	10.9316
0.0532736	11.4565
0.0850848	11.8101
0.103498	12.1609
0.153722	12.8653
0.203946	13.5696
0.255821	15.1414
0.306006	17.2331
0.354507	19.6712
0.406353	22.2835
0.454888	23.5077
0.506772	24.7327
0.556982	25.9573
0.608832	28.3961
0.657338	30.6609
0.709159	34.1401
0.759316	37.2723
0.809371	44.046
