Adsorption isotherm of Argon on Carbon Black
DOI: 10.1021/la1024857
Adsorbate Argon: InChIKey XKRFYHLGVUSROY-UHFFFAOYSA-N
Temperature: 220 K
Tabular data in the source: 0
pressure (bar)	uptake (micromoles/m2)
3.29455	1.84351
6.04642	2.79917
7.69482	3.61847
10.4444	4.77904
12.6514	5.05176
15.407	5.66589
18.1627	6.28002
21.47	6.96232
23.1237	7.30348
26.9858	7.78074
30.8457	8.46292
33.0542	8.59903
36.917	9.00799
41.3324	9.41682
45.747	9.89396
50.7141	10.371
52.9233	10.4388
57.3387	10.8476
62.3081	11.1197
66.7242	11.4602
70.5893	11.6643
73.3503	11.8002
78.3204	12.004
84.9472	12.2757
89.9174	12.4795
95.4407	12.6149
100.412	12.7504
103.173	12.818
108.7	12.6802
113.673	12.6107
119.199	12.4729
124.173	12.3351
127.489	12.2661
133.014	12.1965
137.988	12.0587
143.514	11.9892
149.04	11.8513
154.014	11.7136
159.54	11.644
168.382	11.4371
173.908	11.2992
186.619	11.0231
192.144	10.9535
197.118	10.8158
202.644	10.6779
208.171	10.54
213.145	10.4023
218.67	10.3327
223.644	10.195
233.04	9.85131
299.909	8.26505
