Adsorption isotherm of Argon on Carbon Black
DOI: 10.1021/la1024857
Adsorbate Argon: InChIKey XKRFYHLGVUSROY-UHFFFAOYSA-N
Temperature: 180 K
Tabular data in the source: 0
pressure (bar)	uptake (micromoles/m2)
2.16919	3.68803
3.81307	4.91716
6.00415	6.62432
7.0963	7.78527
10.3984	8.94572
12.6038	9.35505
14.807	9.96931
17.5626	10.5834
22.5207	11.8801
25.2763	12.4942
28.0327	13.0401
32.442	13.9953
35.7509	14.541
38.5066	15.1552
41.8155	15.7009
44.5719	16.2467
47.3275	16.8608
56.7047	18.2248
60.5668	18.7021
64.4282	19.2476
69.9433	20.1343
72.708	19.9288
76.5799	19.5181
81.0043	19.1072
85.4295	18.6281
89.854	18.2172
93.7259	17.8065
98.1503	17.3957
103.127	16.9847
107.552	16.5739
111.976	16.163
116.401	15.7522
120.824	15.4096
125.249	14.9988
130.225	14.6561
134.649	14.2453
139.074	13.8345
143.498	13.4236
155.111	12.4647
159.535	12.0538
163.96	11.643
168.383	11.3005
172.808	10.8896
178.89	10.4101
183.315	9.99925
189.951	9.45129
194.375	9.04044
202.669	8.49211
208.194	8.42254
218.694	8.21523
224.219	8.14567
229.745	8.07611
231.404	7.93912
236.929	7.93786
242.454	7.86829
248.533	7.7303
254.059	7.66073
259.585	7.59117
264.558	7.52173
270.083	7.45217
275.61	7.3143
280.583	7.24486
286.109	7.17529
291.634	7.10573
297.16	7.03617
