Adsorption isotherm of Argon on Carbon Black
DOI: 10.1021/la1024857
Adsorbate Argon: InChIKey XKRFYHLGVUSROY-UHFFFAOYSA-N
Temperature: 600 K
Tabular data in the source: 0
pressure (bar)	uptake (micromoles/m2)
20.4383	0.336877
30.3823	0.402918
33.1432	0.538902
38.6673	0.60595
44.1915	0.672998
53.0305	0.739292
58.5546	0.80634
72.3653	0.939808
77.8887	1.07516
82.8603	1.14234
88.3852	1.14108
93.9093	1.20813
99.4334	1.27517
104.958	1.34222
110.482	1.34096
115.454	1.40814
120.978	1.47519
126.503	1.47393
132.027	1.54098
137.552	1.53972
143.076	1.60677
145.286	1.60626
150.81	1.67331
156.334	1.74036
161.307	1.73923
166.831	1.80628
170.145	1.87383
175.67	1.87257
180.089	1.93987
185.614	1.93861
191.138	2.00566
196.663	2.0044
202.187	2.07145
206.606	2.13875
212.131	2.13749
217.656	2.13623
223.18	2.20328
228.705	2.20203
234.229	2.26907
239.754	2.26782
243.068	2.33537
248.593	2.33411
254.118	2.33285
259.642	2.3999
265.167	2.39864
270.691	2.46569
276.216	2.46443
281.187	2.53161
286.712	2.53035
299.419	2.59576
