Adsorption isotherm of Benzene on CuBTC
DOI: 10.1021/Jp506335x
Adsorbate Benzene: InChIKey UHOVQNZJYSORNB-UHFFFAOYSA-N
Temperature: 298 K
Tabular data in the source: 0
pressure (bar)	uptake (mmol/g)
0.00503043	5.3452
0.00989858	7.27076
0.0152535	9.19614
0.0197972	10.7177
