Adsorption isotherm of Benzene on MG-2
DOI: 10.1021/Jp506335x
Adsorbate Benzene: InChIKey UHOVQNZJYSORNB-UHFFFAOYSA-N
Temperature: 298 K
Tabular data in the source: 0
pressure (bar)	uptake (mmol/g)
0.0102536	4.98033
0.0200223	5.26708
0.0303085	5.37146
0.0447773	5.45985
0.0601149	5.45694
0.0798116	5.51396
