Adsorption isotherm of Water on MG-2
DOI: 10.1021/Jp506335x
Adsorbate Water: InChIKey XLYOFNOQVPJJNP-UHFFFAOYSA-N
Temperature: 298 K
Tabular data in the source: 0
pressure (bar)	uptake (mmol/g)
0.0100609	2.60749
0.0199594	2.75908
0.0300203	2.78626
0.0449493	2.9359
0.059716	2.93016
0.08	3.01554
