Adsorption isotherm of Nitrogen on MG-1
DOI: 10.1021/Jp506335x
Adsorbate Nitrogen: InChIKey IJGRMHOSHXDMSA-UHFFFAOYSA-N
Temperature: 77 K
Tabular data in the source: 0
pressure (bar)	uptake (cm3(STP)/g)
0.00823382	267.671
0.0157822	279.538
0.0480462	291.456
0.0993408	299.461
0.112645	300.476
0.139257	301.518
0.163962	303.543
0.18297	304.57
0.209582	305.611
0.236189	307.641
0.262801	308.682
0.279908	309.705
0.302722	309.751
0.327424	312.764
0.354045	311.831
0.371156	311.866
0.403466	313.907
0.418676	313.938
0.450987	315.979
0.477594	318.008
0.502315	317.071
0.547933	319.139
0.597365	319.239
0.646772	324.278
0.688599	324.363
0.734218	326.431
0.781734	329.491
0.825462	329.58
0.890083	333.662
0.929994	336.706
0.958489	341.702
