Adsorption isotherm of Nitrogen on MG-5
DOI: 10.1021/Jp506335x
Adsorbate Nitrogen: InChIKey IJGRMHOSHXDMSA-UHFFFAOYSA-N
Temperature: 77 K
Tabular data in the source: 0
pressure (bar)	uptake (cm3(STP)/g)
0.780396	210.969
0.810815	211.031
0.845027	213.076
0.888736	217.116
0.928637	222.135
0.964676	239.986
