Adsorption isotherm of Nitrogen on MG-5
DOI: 10.1021/Jp506335x
Adsorbate Nitrogen: InChIKey IJGRMHOSHXDMSA-UHFFFAOYSA-N
Temperature: 77 K
Tabular data in the source: 0
pressure (bar)	uptake (cm3(STP)/g)
0.0162329	184.724
0.0523274	190.724
0.0865302	194.744
0.11694	196.781
0.151157	197.838
0.187275	198.899
0.221496	198.969
0.255713	200.026
0.288033	200.092
0.320349	201.145
0.36027	202.214
0.373578	202.241
0.392589	202.28
0.419202	203.321
0.459122	204.39
0.49524	205.451
0.527561	205.517
0.559876	206.57
0.592197	206.636
0.624516	206.702
0.658743	205.784
0.694866	205.857
0.727177	207.898
0.767102	207.979
0.795615	209.025
0.831738	209.099
0.864053	210.152
0.902068	212.204
0.938167	217.216
0.970389	238.022
