Adsorption isotherm of Nitrogen on MG-2
DOI: 10.1021/Jp506335x
Adsorbate Nitrogen: InChIKey IJGRMHOSHXDMSA-UHFFFAOYSA-N
Temperature: 77 K
Tabular data in the source: 0
pressure (bar)	uptake (cm3(STP)/g)
-0.00122521	257.775
0.00243166	288.4
0.00254901	263.709
0.00629507	275.568
0.013806	295.337
0.0252084	296.348
0.0403992	300.329
0.051797	302.328
0.0764797	309.291
0.0916846	310.31
0.101191	310.329
0.112588	312.328
0.133488	315.333
0.158194	317.359
0.180994	320.368
0.203808	320.414
0.23042	321.456
0.253234	321.503
0.281752	321.561
0.304557	323.582
0.323565	324.608
0.350172	326.638
0.372991	325.697
0.397706	325.747
0.424318	326.789
0.449025	328.814
0.494663	326.932
0.549793	328.031
0.595421	328.124
0.644843	330.2
0.69618	329.317
0.741804	330.397
0.791221	333.461
0.840657	332.573
0.888182	333.658
0.935698	336.717
0.960381	343.681
0.967896	362.462
