Adsorption isotherm of Water on CuBTC
DOI: 10.1021/Jp506335x
Adsorbate Water: InChIKey XLYOFNOQVPJJNP-UHFFFAOYSA-N
Temperature: 298 K
Tabular data in the source: 0
pressure (bar)	uptake (mmol/g)
0.0102231	1.79914
0.0196349	2.44833
0.0301826	2.72402
0.0443002	2.78071
0.0598783	2.86792
0.0798377	2.95343
