Adsorption isotherm of Benzene on CuBTC
DOI: 10.1021/Jp506335x
Adsorbate Benzene: InChIKey UHOVQNZJYSORNB-UHFFFAOYSA-N
Temperature: 298 K
Tabular data in the source: 0
pressure (bar)	uptake (mmol/g)
0.00194726	0.0925075
0.0051927	1.45912
0.0100609	5.40542
0.0150913	7.73507
0.0197972	10.6866
