Adsorption isotherm of Nitrogen on MG-4
DOI: 10.1021/Jp506335x
Adsorbate Nitrogen: InChIKey IJGRMHOSHXDMSA-UHFFFAOYSA-N
Temperature: 77 K
Tabular data in the source: 0
pressure (bar)	uptake (cm3(STP)/g)
0.0215845	258.809
0.0424835	261.815
0.0557731	265.792
0.0747757	267.806
0.091877	269.816
0.11088	271.83
0.12799	271.865
0.14319	273.871
0.154598	273.895
0.167911	272.934
0.188819	273.964
0.200222	274.975
0.223022	277.984
0.238231	278.015
0.255338	279.038
0.281945	281.067
0.299055	281.102
0.32947	282.151
0.356078	284.181
0.380788	285.219
0.399795	286.245
0.418808	286.284
0.449227	286.345
0.475834	288.375
0.498643	289.409
0.519552	290.439
0.54807	290.497
0.572786	290.547
0.597492	292.573
0.614602	292.608
0.643115	293.653
0.662118	295.667
0.690631	296.713
0.743865	296.821
0.79139	297.905
0.844619	299.001
0.895946	300.093
0.945344	307.107
0.966229	313.076
