Adsorption isotherm of Benzene on MG-2
DOI: 10.1021/Jp506335x
Adsorbate Benzene: InChIKey UHOVQNZJYSORNB-UHFFFAOYSA-N
Temperature: 298 K
Tabular data in the source: 0
pressure (bar)	uptake (mmol/g)
0.00973823	5.23866
0.0198498	5.32788
