Adsorption isotherm of Nitrogen on MG-3
DOI: 10.1021/Jp506335x
Adsorbate Nitrogen: InChIKey IJGRMHOSHXDMSA-UHFFFAOYSA-N
Temperature: 77 K
Tabular data in the source: 0
pressure (bar)	uptake (cm3(STP)/g)
0.0215422	267.698
0.0348411	269.7
0.0500367	272.694
0.0785311	277.691
0.108927	282.691
0.133637	283.729
0.158339	286.742
0.181154	286.788
0.203963	287.822
0.234372	289.859
0.25529	288.914
0.276204	288.957
0.30092	289.007
0.32562	292.02
0.350336	292.07
0.369344	293.097
0.403556	295.142
0.424474	294.196
0.443476	296.21
0.470092	296.264
0.496709	296.319
0.551835	298.406
0.595577	295.532
0.645003	296.62
0.698231	297.716
0.741968	295.83
0.791394	296.918
0.848422	299.009
0.899749	300.101
0.956719	314.044
