Adsorption isotherm of Nitrogen on MG-3
DOI: 10.1021/Jp506335x
Adsorbate Nitrogen: InChIKey IJGRMHOSHXDMSA-UHFFFAOYSA-N
Temperature: 77 K
Tabular data in the source: 0
pressure (bar)	uptake (cm3(STP)/g)
0.519519	297.353
0.567044	298.437
0.61457	299.521
0.6621	299.618
0.707733	298.723
0.762858	300.81
0.808482	301.891
0.85981	302.983
0.916818	309.025
0.952898	317.987
0.962371	324.92
