Adsorption isotherm of Water on MG-2
DOI: 10.1021/Jp506335x
Adsorbate Water: InChIKey XLYOFNOQVPJJNP-UHFFFAOYSA-N
Temperature: 298 K
Tabular data in the source: 0
pressure (bar)	uptake (mmol/g)
0.0102231	1.76805
0.0199594	2.57255
0.0301826	2.72402
0.0444625	2.84283
0.059716	2.8369
0.0798377	2.89125
