Adsorption isotherm of Nitrogen on CuBTC
DOI: 10.1021/Jp506335x
Adsorbate Nitrogen: InChIKey IJGRMHOSHXDMSA-UHFFFAOYSA-N
Temperature: 77 K
Tabular data in the source: 0
pressure (bar)	uptake (cm3(STP)/g)
0.00272269	227.166
0.00274617	222.228
0.00292925	183.71
0.00294803	179.759
0.00316397	134.327
0.00345971	72.1058
0.00348318	67.1676
0.00459573	233.096
0.00467553	216.306
0.00481167	187.664
0.00487739	173.837
0.00489147	170.874
0.00492433	163.961
0.0049431	160.01
0.00502761	142.232
0.00504168	139.27
0.00509802	127.418
0.00512149	122.48
0.00513557	119.517
0.00523415	98.7761
0.00533273	78.0355
0.00540315	63.2209
0.00543131	57.295
0.00545478	52.3568
0.00548295	46.4309
0.00550173	42.4803
0.0055252	37.5421
0.00554398	33.5915
0.00557214	27.6657
0.00564256	12.851
0.00566603	7.91275
0.0066002	211.371
0.00662367	206.433
0.00664245	202.483
0.0066753	195.569
0.00668939	192.606
0.00687717	153.1
0.00689594	149.15
0.00706493	113.595
0.00708371	109.644
0.00710718	104.706
0.0071682	91.8664
0.00718229	88.9035
0.00721515	81.99
0.00749681	22.7313
0.00752498	16.8054
0.0140313	247.93
0.0501024	258.867
0.0881122	261.908
0.11662	263.941
0.150842	264.01
0.183148	267.039
0.215469	267.105
0.251592	267.178
0.287714	267.252
0.318133	267.313
0.356148	269.366
0.371362	268.409
0.390369	269.436
0.420789	269.498
0.455006	270.555
0.489226	270.624
0.523448	270.694
0.561468	271.759
0.589986	271.817
0.610903	270.872
0.624216	269.911
0.658423	272.944
0.694551	272.029
0.70976	272.06
0.724971	272.091
0.74018	272.122
0.759191	272.161
0.780105	272.203
0.79531	273.222
0.806722	272.258
0.829536	272.304
0.842844	272.331
0.863757	272.373
0.884671	272.416
0.901772	274.426
0.922686	274.469
0.934092	274.492
0.960671	282.447
