Adsorption isotherm of Nitrogen on MG-2
DOI: 10.1021/Jp506335x
Adsorbate Nitrogen: InChIKey IJGRMHOSHXDMSA-UHFFFAOYSA-N
Temperature: 77 K
Tabular data in the source: 0
pressure (bar)	uptake (cm3(STP)/g)
0.519355	331.92
0.572589	332.028
0.620109	334.1
0.661944	332.21
0.70946	335.27
0.760792	335.374
0.810228	334.487
0.865348	337.562
0.926149	345.587
0.952714	356.505
0.967868	368.388
