Adsorption isotherm of Water on CuBTC
DOI: 10.1021/Jp506335x
Adsorbate Water: InChIKey XLYOFNOQVPJJNP-UHFFFAOYSA-N
Temperature: 298 K
Tabular data in the source: 0
pressure (bar)	uptake (mmol/g)
0.00989858	2.63864
0.0196349	2.7903
0.0301826	2.84837
0.044787	2.93596
0.059716	2.96125
0.0798377	2.95343
