Adsorption isotherm of Nitrogen on MG-4
DOI: 10.1021/Jp506335x
Adsorbate Nitrogen: InChIKey IJGRMHOSHXDMSA-UHFFFAOYSA-N
Temperature: 77 K
Tabular data in the source: 0
pressure (bar)	uptake (cm3(STP)/g)
0.523345	292.422
0.567072	292.511
0.614593	294.583
0.660212	296.651
0.707728	299.711
0.762863	299.823
0.812299	298.936
0.863621	301.015
0.911132	305.062
0.954818	314.04
