Adsorption isotherm of Nitrogen on MG-1
DOI: 10.1021/Jp506335x
Adsorbate Nitrogen: InChIKey IJGRMHOSHXDMSA-UHFFFAOYSA-N
Temperature: 77 K
Tabular data in the source: 0
pressure (bar)	uptake (cm3(STP)/g)
0.302722	309.751
0.357852	310.851
0.403471	312.919
0.471891	317.996
0.517519	318.089
0.566931	322.14
0.62776	324.239
0.675276	327.299
0.724702	328.387
0.766524	329.46
0.810228	334.487
0.865345	338.55
0.928046	346.578
0.95462	355.521
