Adsorption isotherm of Carbon Dioxide on MIL-117
DOI: 10.1016/j.solidstatesciences.2011.05.006
Adsorbate Carbon Dioxide: InChIKey CURLTUGMZLYLDI-UHFFFAOYSA-N
Temperature: 195 K
Tabular data in the source: 0
pressure (bar)	uptake (mmol/g)
0.0371991	0.0534746
0.148796	0.148809
0.253829	0.226354
0.358862	0.30094
0.463895	0.390319
0.516411	0.408381
0.619256	0.488871
0.728665	0.563483
0.83151	0.643973
0.991247	0.751427
