Adsorption isotherm of Carbon Dioxide on MIL-117
DOI: 10.1016/j.solidstatesciences.2011.05.006
Adsorbate Carbon Dioxide: InChIKey CURLTUGMZLYLDI-UHFFFAOYSA-N
Temperature: 293 K
Tabular data in the source: 0
pressure (bar)	uptake (mmol/g)
0.059081	0.0299354
0.223195	0.172918
0.371991	0.268473
0.428884	0.313189
0.479212	0.307569
0.588621	0.367388
0.691466	0.406458
0.800875	0.454443
0.908096	0.46987
0.993435	0.485168
