Adsorption isotherm of Nitrogen on MIL-117
DOI: 10.1016/j.solidstatesciences.2011.05.006
Adsorbate Nitrogen: InChIKey IJGRMHOSHXDMSA-UHFFFAOYSA-N
Temperature: 77 K
Tabular data in the source: 0
pressure (bar)	uptake (mmol/g)
0.0153173	0.0413341
0.166302	0.114947
0.297593	0.147181
0.431072	0.200026
0.509847	0.28319
0.571116	0.345585
0.652079	0.428771
0.730853	0.645759
0.827133	0.87322
0.912473	1.10057
0.95186	1.29656
0.973742	1.59532
0.982495	3.16011
