Adsorption isotherm of Carbon Dioxide on eea-MOF-4
DOI: 10.1039/c4ta07115h
Article source: Figure 4
Adsorbate Carbon Dioxide: InChIKey CURLTUGMZLYLDI-UHFFFAOYSA-N
Kind: experiment
Temperature: 298 K
Tabular data in the source: 0
pressure (bar)	uptake (mmol/g)
0	0
0.005259	0.020202
0.012289	0.040404
0.019319	0.060606
0.024551	0.090909
0.033325	0.121212
0.040355	0.141414
0.045587	0.171717
0.050819	0.20202
0.057849	0.222222
0.063108	0.242424
0.094662	0.363636
0.12796	0.494949
0.161312	0.606061
0.191122	0.717172
0.224447	0.838384
0.256054	0.939394
0.287635	1.05051
0.321014	1.15152
0.35262	1.25253
0.382458	1.35354
0.415863	1.44444
0.447443	1.55556
0.477281	1.65657
0.510659	1.75758
0.542293	1.84848
0.573927	1.93939
0.607333	2.0303
0.638994	2.11111
0.70229	2.28283
0.765586	2.45455
0.830653	2.62626
0.893974	2.78788
0.955527	2.94949
1.02062	3.11111
