Adsorption isotherm of Ethane on eea-MOF-4
DOI: 10.1039/c4ta07115h
Article source: Figure 6
Adsorbate Ethane: InChIKey OTMSDBZUPAUEDD-UHFFFAOYSA-N
Kind: experiment
Temperature: 298 K
Tabular data in the source: 0
pressure (bar)	uptake (mmol/g)
0.010453	0.236111
0.02439	0.458333
0.038328	0.652778
0.050523	0.847222
0.062718	1
0.076655	1.15278
0.090592	1.30556
0.10453	1.43056
0.116725	1.55556
0.12892	1.68056
0.196864	2.25
0.261324	2.72222
0.327526	3.125
0.393728	3.48611
0.458188	3.77778
0.52439	4.04167
0.590592	4.27778
0.656794	4.48611
0.722997	4.66667
0.789199	4.81944
0.855401	4.95833
0.919861	5.08333
0.986063	5.20833
