Adsorption isotherm of Ethane on eea-MOF-5
DOI: 10.1039/c4ta07115h
Article source: Figure 6
Adsorbate Ethane: InChIKey OTMSDBZUPAUEDD-UHFFFAOYSA-N
Kind: experiment
Temperature: 298 K
Tabular data in the source: 0
pressure (bar)	uptake (mmol/g)
0.012064	0.305556
0.025881	0.555556
0.037977	0.75
0.051802	0.972222
0.063898	1.16667
0.077739	1.33333
0.089844	1.5
0.105421	1.66667
0.117533	1.80556
0.131382	1.94444
0.200666	2.5
0.263073	2.81944
0.327241	3.05556
0.393157	3.25
0.460817	3.41667
0.525013	3.55556
0.589213	3.68056
0.655141	3.83333
0.722809	3.97222
0.787017	4.06944
0.851229	4.15278
0.918909	4.25
0.984865	4.30556
