Adsorption isotherm of Carbon Dioxide on eea-MOF-5
DOI: 10.1039/c4ta07115h
Article source: Figure 4
Adsorbate Carbon Dioxide: InChIKey CURLTUGMZLYLDI-UHFFFAOYSA-N
Kind: experiment
Temperature: 298 K
Tabular data in the source: 0
pressure (bar)	uptake (mmol/g)
1.4e-05	0.01008
0.003456	0.060521
0.010497	0.090839
0.017523	0.131238
0.021022	0.161517
0.029833	0.191855
0.03686	0.232253
0.042086	0.292793
0.047342	0.333173
0.054368	0.373571
0.06318	0.403908
0.094741	0.626023
0.128073	0.848158
0.16142	1.06021
0.191252	1.25207
0.224614	1.45404
0.256188	1.66607
0.287779	1.86803
0.321111	2.09016
0.35273	2.27196
0.384362	2.44367
0.416023	2.59522
0.44767	2.75685
0.479317	2.91848
0.512778	3.04989
0.542711	3.17118
0.577956	3.29253
0.60789	3.41382
0.641365	3.53515
0.70306	3.73743
0.768295	3.93975
0.831789	4.12189
0.895312	4.28386
0.958848	4.43576
1.02417	4.57759
