Adsorption isotherm of Nitrogen on eea-MOF-4
DOI: 10.1039/c4ta07115h
Article source: Figure 6
Adsorbate Nitrogen: InChIKey IJGRMHOSHXDMSA-UHFFFAOYSA-N
Kind: experiment
Temperature: 298 K
Tabular data in the source: 0
pressure (bar)	uptake (mmol/g)
0.010453	1.47721
0.02439	2.49443
0.038328	3.21898
0.050523	3.69268
0.066202	4.06876
0.078397	4.29159
0.08885	4.41688
0.102787	4.55606
0.116725	4.66736
0.130662	4.76473
0.202091	5.09823
0.259582	5.27861
0.325784	5.431
0.393728	5.52761
0.461672	5.62423
0.527875	5.67905
0.592334	5.74784
0.658537	5.78873
0.724739	5.84356
0.789199	5.87053
0.857143	5.9114
0.921603	5.95231
0.987805	5.97926
