Adsorption isotherm of Methane on eea-MOF-5
DOI: 10.1039/c4ta07115h
Article source: Figure 6
Adsorbate Methane: InChIKey VNWKTOKETHGBQD-UHFFFAOYSA-N
Kind: experiment
Temperature: 298 K
Tabular data in the source: 0
pressure (bar)	uptake (mmol/g)
0.010453	0.01382
0.027875	0.000389
0.038328	0.014502
0.052265	0.028663
0.066202	0.042824
0.078397	0.056961
0.090592	0.071098
0.10453	0.071292
0.116725	0.099396
0.132404	0.099615
0.196864	0.156381
0.261324	0.227113
0.327526	0.283904
0.393728	0.340695
0.45993	0.411452
0.527875	0.468266
0.592334	0.525033
0.658537	0.59579
0.722997	0.652556
0.790941	0.709371
0.855401	0.766137
0.921603	0.822927
0.987805	0.893684
