Adsorption isotherm of Argon on eea-MOF-4
DOI: 10.1039/c4ta07115h
Article source: Figure 3
Adsorbate Argon: InChIKey XKRFYHLGVUSROY-UHFFFAOYSA-N
Kind: experiment
Temperature: 87 K
Tabular data in the source: 0
pressure (bar)	uptake (cm3(STP)/g)
0	0
0.001773	316.148
0.003546	353.065
0.005319	376.135
0.007092	380.745
0.008865	392.277
0.010637	398.04
0.01241	403.803
0.015956	408.406
0.019502	411.856
0.021275	416.465
0.030139	418.742
0.031912	426.813
0.039004	432.557
0.04255	429.083
0.047868	437.142
0.056733	433.65
0.058506	442.874
0.069143	440.53
0.072689	447.441
0.088645	447.385
0.090418	454.302
0.111693	456.536
0.132968	458.77
0.140059	463.361
0.177291	466.694
0.182609	470.137
0.219841	470.008
0.234023	474.574
0.265935	475.618
0.283665	479.018
0.31735	478.901
0.333306	482.308
0.368764	482.185
0.382947	484.444
0.400676	482.074
0.436135	486.567
0.452091	485.358
0.48223	489.869
0.501732	486.34
0.531871	492.005
0.551373	487.322
0.583285	492.981
0.601015	488.304
0.631153	493.969
0.652429	489.28
0.684341	494.939
0.70207	491.416
0.732209	495.927
0.751712	492.398
0.780077	495.761
0.801353	492.226
0.806671	496.823
0.831492	497.891
0.849221	493.214
0.854539	497.811
0.881133	498.873
0.898862	494.196
0.905953	498.787
0.932547	499.849
0.950277	496.326
0.962686	502.052
0.973324	499.707
0.98928	501.96
0.998145	507.698
