Adsorption isotherm of Nitrogen on eea-MOF-4
DOI: 10.1039/c4ta07115h
Article source: Figure 4
Adsorbate Nitrogen: InChIKey IJGRMHOSHXDMSA-UHFFFAOYSA-N
Kind: experiment
Temperature: 298 K
Tabular data in the source: 0
pressure (bar)	uptake (mmol/g)
0	0
0.01242	0
0.014194	0
0.024828	0.01
0.035473	0.01
0.051442	0.01
0.063861	0.01
0.081604	0.01
0.094023	0.01
0.104657	0.02
0.118863	0.01
0.13482	0.02
0.202218	0.04
0.269627	0.05
0.335251	0.07
0.402648	0.09
0.470059	0.1
0.535695	0.11
0.601317	0.13
0.67049	0.15
0.73434	0.17
0.803511	0.19
0.869147	0.2
0.934771	0.22
1.00218	0.23
