Adsorption isotherm of Argon on eea-MOF-5
DOI: 10.1039/c4ta07115h
Article source: Figure 3
Adsorbate Argon: InChIKey XKRFYHLGVUSROY-UHFFFAOYSA-N
Kind: experiment
Temperature: 87 K
Tabular data in the source: 0
pressure (bar)	uptake (cm3(STP)/g)
0	0
5.5e-05	4.5976
0.000123	10.3446
0.000218	18.3904
0.000327	27.5856
0.00045	37.9302
0.000559	47.1254
0.000696	58.6194
0.000832	70.1133
0.000969	81.6073
0.001091	91.9519
0.001228	103.446
0.001337	112.641
0.001473	124.135
0.001596	134.48
0.001692	142.525
0.001828	154.019
0.001964	165.513
0.00206	173.559
0.00221	186.203
0.002333	196.547
0.002483	209.191
0.002619	220.685
0.002728	229.88
0.002865	241.374
0.003001	252.868
0.004891	262.06
0.005027	273.554
0.005204	288.496
0.005341	299.99
0.005395	304.587
0.00678	271.251
0.007216	308.032
0.009038	311.477
0.009092	316.075
0.010409	276.992
0.010954	322.968
0.012803	328.711
0.012844	332.159
0.012884	335.607
0.014051	283.881
0.014692	337.903
0.014733	341.351
0.015872	287.326
0.01654	343.646
0.017679	289.621
0.018375	348.241
0.018402	350.539
0.021267	291.913
0.024869	295.355
0.026096	398.801
0.032044	299.939
0.033299	405.683
0.042255	410.264
0.042766	303.366
0.049376	410.25
0.053475	305.645
0.063658	413.671
0.073085	307.906
0.083255	414.783
0.094475	310.164
0.102851	415.895
0.117645	312.418
0.140263	418.122
0.163959	314.628
0.186562	419.183
0.203137	315.703
0.236437	421.386
0.276168	319.011
0.286283	421.291
0.324233	318.919
0.336143	422.345
0.375874	319.97
0.387769	422.246
0.410666	401.512
0.437616	422.15
0.489256	423.201
0.503348	410.53
0.537308	421.959
0.572845	416.144
0.587182	424.162
0.606683	417.228
0.637029	424.067
0.654777	419.435
0.686876	423.971
0.725999	420.448
0.738502	423.872
0.758056	421.536
0.788362	424.926
0.806123	421.444
0.838194	423.681
0.857749	421.345
0.88804	423.586
0.907609	422.399
0.936107	423.494
0.955689	423.456
0.968178	425.731
0.984187	424.551
0.993088	424.534
0.996689	427.976
1.00562	430.257
