Adsorption isotherm of Methane on eea-MOF-5
DOI: 10.1039/c4ta07115h
Article source: Figure 4
Adsorbate Methane: InChIKey VNWKTOKETHGBQD-UHFFFAOYSA-N
Kind: experiment
Temperature: 298 K
Tabular data in the source: 0
pressure (bar)	uptake (mmol/g)
0.001774	0
0.010628	0.01005
0.028352	0.020101
0.037188	0.040201
0.054931	0.040201
0.065522	0.070352
0.077942	0.070352
0.092136	0.070352
0.108069	0.090452
0.120471	0.100503
0.132855	0.120603
0.136403	0.120603
0.196621	0.180905
0.200188	0.170854
0.263953	0.231156
0.331267	0.291457
0.398565	0.361809
0.465879	0.422111
0.53142	0.482412
0.598735	0.542714
0.664275	0.603015
0.729815	0.663317
0.797129	0.723618
0.862688	0.773869
0.930002	0.834171
0.999091	0.894472
