Adsorption isotherm of Nitrogen on eea-MOF-5
DOI: 10.1039/c4ta07115h
Article source: Figure 4
Adsorbate Nitrogen: InChIKey IJGRMHOSHXDMSA-UHFFFAOYSA-N
Kind: experiment
Temperature: 298 K
Tabular data in the source: 0
pressure (bar)	uptake (mmol/g)
0	0
0.01242	0
0.014194	0
0.024828	0.01
0.035473	0.01
0.051442	0.01
0.063861	0.01
0.081604	0.01
0.094023	0.01
0.104657	0.02
0.118863	0.01
0.13482	0.02
0.198681	0.03
0.26609	0.04
0.333513	0.04
0.40091	0.06
0.466546	0.07
0.533955	0.08
0.601365	0.09
0.666989	0.11
0.734386	0.13
0.80001	0.15
0.865634	0.17
0.933043	0.18
1.00044	0.2
