Adsorption isotherm of Methane on eea-MOF-4
DOI: 10.1039/c4ta07115h
Article source: Figure 4
Adsorbate Methane: InChIKey VNWKTOKETHGBQD-UHFFFAOYSA-N
Kind: experiment
Temperature: 298 K
Tabular data in the source: 0
pressure (bar)	uptake (mmol/g)
0.001771	-1.9e-05
0.010599	0.009886
0.028282	0.019697
0.038828	0.049584
0.056537	0.049394
0.06711	0.069281
0.079506	0.069148
0.093647	0.078997
0.107761	0.098845
0.120131	0.108713
0.132475	0.128581
0.137787	0.128524
0.196069	0.187899
0.199638	0.177861
0.268518	0.247123
0.333857	0.316423
0.402764	0.375684
0.468156	0.424984
0.533495	0.494284
0.600657	0.543564
0.666023	0.602863
0.731388	0.662163
0.800294	0.721425
0.863916	0.770743
0.931078	0.820023
0.999986	0.879285
