Adsorption isotherm of N-propane on eea-MOF-5
DOI: 10.1039/c4ta07115h
Article source: Figure 6
Adsorbate N-propane: InChIKey ATUOYWHBWRKTHZ-UHFFFAOYSA-N
Kind: experiment
Temperature: 298 K
Tabular data in the source: 0
pressure (bar)	uptake (mmol/g)
0.010435	1.875
0.026087	2.59722
0.036522	3
0.048696	3.20833
0.066087	3.34722
0.076522	3.43056
0.088696	3.48611
0.102609	3.55556
0.116522	3.625
0.132174	3.66667
0.193043	3.79167
0.264348	3.875
0.326957	3.94444
0.393043	4
0.45913	4.05556
0.526957	4.09722
0.591304	4.125
0.65913	4.15278
0.721739	4.22222
0.789565	4.52778
0.864348	4.65278
0.937391	4.73611
0.986087	4.76389
