Adsorption isotherm of Methane on eea-MOF-4
DOI: 10.1039/c4ta07115h
Article source: Figure 6
Adsorbate Methane: InChIKey VNWKTOKETHGBQD-UHFFFAOYSA-N
Kind: experiment
Temperature: 298 K
Tabular data in the source: 0
pressure (bar)	uptake (mmol/g)
0.010453	0.000146
0.026132	0.013564
0.038328	0.027321
0.052265	0.041055
0.06446	0.054813
0.076655	0.082498
0.092334	0.08228
0.106272	0.096013
0.118467	0.109771
0.130662	0.123528
0.195122	0.178341
0.263066	0.247033
0.329268	0.301821
0.39547	0.370537
0.461672	0.425325
0.526132	0.494065
0.592334	0.548853
0.658537	0.589714
0.724739	0.65843
0.789199	0.713242
0.855401	0.768031
0.921603	0.822819
0.987805	0.877607
