Adsorption isotherm of N-Heptane on Zeolite MFI
DOI: 10.1080/08927020902865923
Adsorbate N-Heptane: InChIKey IMNFDUFMRHMDMM-UHFFFAOYSA-N
Temperature: 347 K
Tabular data in the source: 0
pressure (bar)	uptake (mmol/g)
2.12571e-06	0.0613198
3.37073e-06	0.115379
6.57724e-06	0.291573
1.04295e-05	0.363652
2.08254e-05	0.459758
3.7921e-05	0.535841
7.92924e-05	0.609923
0.000228948	0.651969
0.000892045	0.696017
0.00209312	0.718041
0.005263	0.752079
0.0129319	0.810143
