Adsorption isotherm of N-Heptane on Zeolite MFI
DOI: 10.1080/08927020902865923
Adsorbate N-Heptane: InChIKey IMNFDUFMRHMDMM-UHFFFAOYSA-N
Temperature: 347 K
Tabular data in the source: 0
pressure (bar)	uptake (mmol/g)
1.09e-07	0.0052582
1.06457e-06	0.0292846
1.01918e-05	0.277557
0.00010456	0.615929
0.00100102	0.704026
0.0100356	0.920264
0.0983175	1.18455
0.963208	1.20658
