Adsorption isotherm of N-Heptane on Zeolite MFI
DOI: 10.1080/08927020902865923
Adsorbate N-Heptane: InChIKey IMNFDUFMRHMDMM-UHFFFAOYSA-N
Temperature: 347 K
Tabular data in the source: 0
pressure (bar)	uptake (mmol/g)
1.01661e-06	0.0352912
1.01918e-05	0.291573
0.000102177	0.617931
0.000934133	0.682002
0.0107541	0.768097
0.0983175	1.06242
1.00865	1.18656
