Adsorption isotherm of Water on Zeolite MFI
DOI: 10.1080/08927020902865923
Adsorbate Water: InChIKey XLYOFNOQVPJJNP-UHFFFAOYSA-N
Temperature: 300 K
Tabular data in the source: 0
pressure (bar)	uptake (mmol/g)
0.00101958	0.112829
0.00993465	4.74663
0.0198866	6.71846
0.0499529	7.9579
0.0791701	8.43677
