Adsorption isotherm of Water on Zeolite MFI
DOI: 10.1080/08927020902865923
Adsorbate Water: InChIKey XLYOFNOQVPJJNP-UHFFFAOYSA-N
Temperature: 300 K
Tabular data in the source: 0
pressure (bar)	uptake (mmol/g)
0.00987042	0.140998
0.0198866	0.295927
0.050278	7.19734
0.0817797	7.50719
