Adsorption isotherm of Carbon Dioxide on Zeolite MFI
DOI: 10.1080/08927020902865923
Adsorbate Carbon Dioxide: InChIKey CURLTUGMZLYLDI-UHFFFAOYSA-N
Temperature: 273 K
Tabular data in the source: 0
pressure (bar)	uptake (mmol/g)
0.0108426	0.109951
0.0214244	0.126852
0.0585503	0.34657
0.101617	0.574739
0.149962	0.811359
0.296316	1.42826
0.489852	1.94375
1.29598	2.69587
4.9786	3.42263
9.99825	3.69305
48.9852	4.29305
98.3743	4.53812
967.92	5.28178
