Adsorption isotherm of Carbon Dioxide on Zeolite MFI
DOI: 10.1080/08927020902865923
Adsorbate Carbon Dioxide: InChIKey CURLTUGMZLYLDI-UHFFFAOYSA-N
Temperature: 273 K
Tabular data in the source: 0
pressure (bar)	uptake (mmol/g)
0.104966	0.0592464
0.999825	0.481782
4.9786	1.63953
10.6682	2.21418
53.1222	3.04235
103.278	3.30432
967.92	3.89587
