Adsorption isotherm of Water on Zeolite MFI
DOI: 10.1080/08927020902865923
Adsorbate Water: InChIKey XLYOFNOQVPJJNP-UHFFFAOYSA-N
Temperature: 300 K
Tabular data in the source: 0
pressure (bar)	uptake (mmol/g)
0.0119907	0.21142
0.030711	6.54945
0.099993	7.74663
