Adsorption isotherm of Carbon Dioxide on Zeolite MFI
DOI: 10.1080/08927020902865923
Adsorbate Carbon Dioxide: InChIKey CURLTUGMZLYLDI-UHFFFAOYSA-N
Temperature: 273 K
Tabular data in the source: 0
pressure (bar)	uptake (mmol/g)
0.0204072	0.109951
0.0576086	0.262063
0.0999824	0.45643
0.149962	0.616993
0.296316	1.05643
0.481973	1.50432
0.983743	2.11277
5.05998	3.03389
9.52351	3.27896
48.9852	3.77756
99.9825	3.98037
983.743	4.8846
