Adsorption isotherm of N-propane on Zeolite MFI
DOI: 10.1080/08927020902865923
Adsorbate N-propane: InChIKey ATUOYWHBWRKTHZ-UHFFFAOYSA-N
Temperature: 298 K
Tabular data in the source: 0
pressure (bar)	uptake (mmol/g)
0.00104167	0.150526
0.0105121	1.05438
0.104009	1.73798
1.00895	1.9382
9.78737	2.03831
102.752	2.0755
