Adsorption isotherm of N-propane on Zeolite MFI
DOI: 10.1080/08927020902865923
Adsorbate N-propane: InChIKey ATUOYWHBWRKTHZ-UHFFFAOYSA-N
Temperature: 303 K
Tabular data in the source: 0
pressure (bar)	uptake (mmol/g)
0.00440688	0.439415
0.0135907	1.03721
0.0218364	1.23743
0.0436025	1.49486
0.0686864	1.63787
0.106084	1.76373
0.1919	1.85812
0.2849	1.90388
0.546841	1.95823
0.811854	1.98969
1.55828	2.01257
2.22383	2.02115
4.18494	2.01829
