Adsorption isotherm of Carbon Dioxide on Zeolite MFI
DOI: 10.1080/08927020902865923
Adsorbate Carbon Dioxide: InChIKey CURLTUGMZLYLDI-UHFFFAOYSA-N
Temperature: 273 K
Tabular data in the source: 0
pressure (bar)	uptake (mmol/g)
0.0138283	0.135303
0.0207408	0.177556
0.0337359	0.236711
0.0459088	0.329669
0.0645332	0.45643
0.101617	0.667697
0.142841	0.870514
0.200789	1.09023
0.256079	1.2508
0.326594	1.47051
0.557703	1.8508
0.746729	2.08742
1.27514	2.44234
