Adsorption isotherm of N-propane on Zeolite MFI
DOI: 10.1080/08927020902865923
Adsorbate N-propane: InChIKey ATUOYWHBWRKTHZ-UHFFFAOYSA-N
Temperature: 298 K
Tabular data in the source: 0
pressure (bar)	uptake (mmol/g)
0.000107	0.0218131
0.00102129	0.156247
0.0101048	1.103
0.104009	1.78661
1.00895	1.98969
10.1819	2.06978
102.752	2.08694
