Adsorption isotherm of Carbon Dioxide on Zeolite MFI
DOI: 10.1080/08927020902865923
Adsorbate Carbon Dioxide: InChIKey CURLTUGMZLYLDI-UHFFFAOYSA-N
Temperature: 273 K
Tabular data in the source: 0
pressure (bar)	uptake (mmol/g)
0.0108426	0.0507957
0.101617	0.118401
1.03278	0.93812
5.1427	2.37474
9.83743	2.78037
48.9852	3.38882
96.792	3.55784
967.92	4.12404
