Adsorption isotherm of Water on Zeolite MFI
DOI: 10.1080/08927020902865923
Adsorbate Water: InChIKey XLYOFNOQVPJJNP-UHFFFAOYSA-N
Temperature: 300 K
Tabular data in the source: 0
pressure (bar)	uptake (mmol/g)
0.00101958	0.126913
0.004963	5.12691
0.00709045	6.5917
0.00987042	7.3241
0.100644	8.76072
