Adsorption isotherm of Nitrogen on MOF-253-0.05PdCl2
DOI: 10.1016/j.cattod.2014.03.074
Article source: Figure 2- MOF 253 0.05PdCl2
Adsorbate Nitrogen: InChIKey IJGRMHOSHXDMSA-UHFFFAOYSA-N
Kind: experiment
Temperature: 77 K
Tabular data in the source: 0
pressure (bar)	uptake (cm3(STP)/g)
7.1e-05	18.265
0.000142	6.745
0.000142	6.58
0.000213	42.387
0.000213	42.385
0.000213	42.38
0.000284	54.437
0.000284	103.203
0.000345	61.301
0.000355	145.941
0.000415	72.941
0.000426	70.077
0.000486	67.031
0.000557	78.193
0.000557	78.56
0.000557	80.02
0.000557	132.332
0.000628	119.471
0.000699	121.289
0.001864	162.475
0.002888	183.247
0.006383	192.081
0.008299	200.378
0.011987	205.63
0.014104	214.285
0.015675	208.256
0.018005	217.627
0.020599	211.778
0.025595	221.745
0.028807	216.433
0.033528	225.446
0.038443	220.312
0.041249	227.475
0.048089	228.549
0.048362	221.983
0.058272	231.294
0.05889	223.952
0.071606	226.697
0.085549	229.024
0.10169	229.859
0.105175	235.529
0.131631	233.259
0.162667	235.526
0.197057	242.925
0.203278	238.508
0.239309	244.654
0.283751	243.099
0.300773	247.575
0.3357	245.066
0.380556	250.495
0.412139	252.045
0.445293	249.536
0.487961	258.129
0.505936	252.398
0.567126	254.602
0.608487	256.45
0.612104	263.971
0.668715	259.551
0.729489	263.188
0.756016	271.185
0.780354	266.886
0.816254	270.047
0.851525	274.403
0.880443	278.254
0.882085	278.34
0.911287	294.276
0.912036	294.35
0.927276	298.692
0.932818	291.111
0.94519	305.854
0.952921	298.631
0.961605	315.463
0.972406	310.448
0.973906	325.908
0.983957	321.132
0.98574	340.65
0.993877	334.621
0.995447	360.586
1.00262	356.467
1.00885	380.462
