Adsorption isotherm of Nitrogen on MOF-253
DOI: 10.1016/j.cattod.2014.03.074
Article source: Figure 2- MOF 253
Adsorbate Nitrogen: InChIKey IJGRMHOSHXDMSA-UHFFFAOYSA-N
Kind: experiment
Temperature: 77 K
Tabular data in the source: 0
pressure (bar)	uptake (cm3(STP)/g)
9.1e-05	177.948
0.000142	17.538
0.000142	65.858
0.000213	24.756
0.000223	43.973
0.000223	49.03
0.000274	33.168
0.000284	29.656
0.000284	144.728
0.000294	138.457
0.000345	7.994
0.000345	1.745
0.000355	74.15
0.000355	82.024
0.000355	164.606
0.000365	162.736
0.000415	48.439
0.000415	90.316
0.000486	97.594
0.000567	153.609
0.000567	156.61
0.000628	146.808
0.001044	186.717
0.001591	195.069
0.002209	217.677
0.00386	246.49
0.00612	279.061
0.006383	259.495
0.00844	269.815
0.015412	288.128
0.020468	285.205
0.02526	297.314
0.029019	292.303
0.034076	300.654
0.039882	297.015
0.041189	304.173
0.048291	305.605
0.050207	298.506
0.058272	309.482
0.060116	301.011
0.070988	303.515
0.086501	307.094
0.102024	310.254
0.105104	318.308
0.132513	313.832
0.163204	317.588
0.197452	326.654
0.203947	320.33
0.239218	328.679
0.284541	326.649
0.301219	332.553
0.336146	329.628
0.380171	337.44
0.411957	338.393
0.445445	335.289
0.487971	347.158
0.505804	338.984
0.567126	342.202
0.608203	344.764
0.612793	355.323
0.668502	349.235
0.728922	354.063
0.755864	364.978
0.780061	358.833
0.815332	363.603
0.850806	369.089
0.879724	376.028
0.881163	375.231
0.911165	383.283
0.911236	383.334
0.927367	400.283
0.931744	391.932
0.944805	410.185
0.952455	401.952
0.961483	423.964
0.971119	417.879
0.973997	437.863
0.982954	431.777
0.986237	457.607
0.992661	450.747
0.993481	483.855
1.00209	480.096
1.00764	512.13
