Adsorption isotherm of Nitrogen on C23H36N4O8S2
DOI: 10.1002/macp.200900261
Adsorbate Nitrogen: InChIKey IJGRMHOSHXDMSA-UHFFFAOYSA-N
Temperature: 77 K
Tabular data in the source: 0
pressure (bar)	uptake (cm3(STP)/g)
0.0295622	2.78919
0.0802664	3.29623
0.1859	3.97229
0.281675	4.6906
0.383083	5.23989
0.454914	5.83144
0.519703	6.46525
0.605619	7.56384
0.647872	8.23989
0.699985	9.63426
0.754914	11.5357
0.801393	14.4934
0.845055	18.8878
0.897168	22.3526
0.943647	24.7188
0.971816	26.7469
