Adsorption isotherm of Nitrogen on C23H38N4O8S2
DOI: 10.1002/macp.200900261
Adsorbate Nitrogen: InChIKey IJGRMHOSHXDMSA-UHFFFAOYSA-N
Temperature: 77 K
Tabular data in the source: 0
pressure (bar)	uptake (cm3(STP)/g)
0.0337579	2.9095
0.0823828	3.44151
0.133868	3.84052
0.213956	4.28387
0.285463	4.77155
0.361261	5.25923
0.501415	6.45626
0.600095	7.69762
0.65158	8.62864
0.695914	9.95868
0.727377	10.5794
0.770282	12.8404
0.823197	17.0079
0.870392	21.53
0.901855	23.392
0.919016	24.323
0.943329	25.5644
0.973362	27.6038
