Adsorption isotherm of Nitrogen on (R)-DTM-COF
DOI: 10.1021/jacs.0c07461
Article source: Figure S12h
Adsorbate Nitrogen: InChIKey IJGRMHOSHXDMSA-UHFFFAOYSA-N
Kind: experiment
Temperature: 77 K
Tabular data in the source: 0
pressure (bar)	uptake (cm3(STP)/g)
0.00745	14.8624
0.004967	36.8699
0.00745	50.4645
0.009934	61.9649
0.017384	73.4293
0.057119	95.1314
0.101822	116.798
0.121689	126.078
0.151491	146.805
0.183776	162.278
0.223511	223.771
0.270697	246.466
0.290564	250.511
0.340233	254.34
0.367551	257.284
0.412254	259.055
0.444539	258.821
0.489241	259.545
0.524009	259.293
0.553811	263.266
0.593546	261.932
0.625831	261.698
0.66805	265.581
0.692884	267.496
0.722686	267.28
0.762421	268.04
0.789739	268.889
0.846858	270.57
0.88411	272.395
0.911428	274.292
0.94868	272.975
0.983449	274.818
1.0207	283.972
0.054636	151.694
0.076987	168.286
0.13659	188.797
0.166392	208.477
0.206127	234.368
0.240895	268.671
0.27318	278.909
0.300498	279.758
0.33775	278.442
0.367551	279.273
0.40232	281.116
0.434605	279.835
0.479307	278.465
0.514075	278.213
0.53891	279.081
0.591062	279.751
0.598513	281.791
0.635765	282.569
0.670533	282.317
0.712752	282.012
0.742553	281.796
0.769871	280.551
0.809607	279.217
0.836925	279.019
0.86921	278.786
0.918879	277.379
0.958614	281.28
1.00332	286.192
