Adsorption isotherm of Nitrogen on (S)-DTM-COF
DOI: 10.1021/jacs.0c07461
Article source: Figure S11h
Adsorbate Nitrogen: InChIKey IJGRMHOSHXDMSA-UHFFFAOYSA-N
Kind: experiment
Temperature: 77 K
Tabular data in the source: 0
pressure (bar)	uptake (cm3(STP)/g)
0.009337	18.7078
0.011331	42.9142
0.010971	56.5991
0.013243	70.2786
0.015736	75.5366
0.020557	92.3687
0.054024	120.72
0.085026	142.761
0.124062	159.522
0.157807	177.347
0.190887	220.436
0.216043	264.594
0.268072	287.644
0.29949	293.894
0.341462	299.07
0.370386	300.063
0.399227	304.214
0.430783	305.201
0.457075	306.199
0.485971	308.244
0.522846	307.115
0.580749	306.994
0.614882	310.081
0.641201	310.027
0.678049	309.95
0.722792	309.857
0.749112	309.802
0.788591	309.72
0.83062	312.791
0.870071	313.762
0.906946	312.632
0.946426	312.55
0.977926	315.643
0.055465	165.98
0.081286	184.874
0.112371	203.757
0.145977	226.845
0.187368	254.127
0.228122	305.622
0.259567	310.819
0.291067	313.912
0.333123	315.93
0.369998	314.801
0.393575	318.962
0.435687	318.875
0.472506	319.851
0.509354	319.774
0.54875	322.85
0.580334	322.785
0.604021	322.735
0.643445	324.759
0.664529	323.662
0.69614	322.544
0.732988	322.467
0.764599	321.349
0.80671	321.262
0.832974	323.312
0.864475	326.405
0.909246	325.259
0.946121	324.13
0.982969	324.053
