Adsorption isotherm of Nitrogen on (S)-TTP-COF
DOI: 10.1021/jacs.0c07461
Article source: Figure S13h
Adsorbate Nitrogen: InChIKey IJGRMHOSHXDMSA-UHFFFAOYSA-N
Kind: experiment
Temperature: 77 K
Tabular data in the source: 0
pressure (bar)	uptake (cm3(STP)/g)
0.004135	14.4064
0.004095	18.0595
0.008401	26.2632
0.010528	32.6482
0.012646	39.9465
0.014754	48.1581
0.023466	55.4326
0.03	60.8885
0.040819	76.3746
0.067065	88.1521
0.078015	91.7656
0.102123	98.0714
0.128399	107.109
0.148121	112.517
0.176595	121.547
0.198495	128.774
0.218187	136.922
0.270598	167.784
0.321082	173.994
0.356201	178.434
0.404567	177.346
0.470478	179.848
0.525419	180.564
0.56276	182.712
0.611081	185.734
0.65722	187.394
0.71213	190.849
0.753853	194.352
0.813179	195.965
0.83514	197.712
0.86805	203.073
0.898762	208.441
0.920662	215.668
0.938156	223.824
0.960016	234.705
0.979547	257.465
0.98592	277.534
0.994582	289.374
1.00536	308.514
0.053766	98.2458
0.11513	114.463
0.152386	124.374
0.196156	141.568
0.259518	176.043
0.305586	184.096
0.353963	182.095
0.406715	181.905
0.461626	185.36
0.518744	187.894
0.556091	189.585
0.613189	193.946
0.654932	195.622
0.698862	198.203
0.755981	200.737
0.797743	200.586
0.826287	203.223
0.848197	209.537
0.876701	215.827
0.905175	224.857
0.922689	231.186
0.959624	270.322
0.983431	304.027
0.998627	321.323
1.01377	343.187
