Adsorption isotherm of Nitrogen on racemic DTP-COF
DOI: 10.1021/jacs.0c07461
Article source: Figure S10h
Adsorbate Nitrogen: InChIKey IJGRMHOSHXDMSA-UHFFFAOYSA-N
Kind: experiment
Temperature: 77 K
Tabular data in the source: 0
pressure (bar)	uptake (cm3(STP)/g)
0.006	2.62557
0.006069	7.57586
0.00618	15.4963
0.009076	22.4185
0.009173	29.3489
0.009339	41.2296
0.009478	51.1302
0.015255	63.9846
0.037841	77.7798
0.063197	89.5866
0.080074	95.4777
0.099763	102.351
0.119439	108.234
0.147525	115.082
0.158762	118.019
0.200871	126.807
0.217831	138.638
0.271537	176.105
0.31643	183.894
0.366852	186.716
0.403238	186.61
0.431269	189.498
0.478878	191.338
0.554532	197.057
0.59653	197.924
0.644125	198.775
0.672142	200.673
0.714126	200.55
0.781342	203.323
0.834549	205.147
0.873747	206.022
0.907334	205.924
0.9522	211.733
0.999865	217.534
1.01667	218.475
0.043924	112.415
0.105791	133.026
0.1396	148.769
0.195827	166.426
0.249519	202.902
0.294399	209.701
0.339265	215.51
0.378408	212.425
0.442811	214.216
0.490393	214.077
0.546371	213.913
0.613573	215.696
0.663967	216.538
0.714348	216.391
0.745164	218.281
0.801156	219.106
0.834743	219.008
0.837542	219
0.879525	218.877
0.899118	218.819
0.932663	215.751
0.988669	217.567
1.01387	218.483
