Adsorption isotherm of Nitrogen on (S)-DTP-COF soaked in HCI (2M) for 48h
DOI: 10.1021/jacs.0c07461
Article source: Figure S2d
Adsorbate Nitrogen: InChIKey IJGRMHOSHXDMSA-UHFFFAOYSA-N
Kind: experiment
Temperature: 77 K
Tabular data in the source: 0
pressure (bar)	uptake (cm3(STP)/g)
0.020116	2.93627
0.023062	9.93851
0.023304	18.7092
0.026274	26.5885
0.029269	35.3449
0.02951	44.1155
0.035185	50.2264
0.052138	65.9278
0.091091	80.6378
0.116037	86.6486
0.141007	93.5364
0.15767	98.713
0.18264	105.601
0.210363	112.474
0.235333	119.362
0.275035	161.261
0.330602	179.394
0.374843	186.181
0.440915	185.838
0.490469	185.581
0.526258	185.395
0.58412	186.849
0.620054	191.925
0.688879	191.568
0.735704	192.202
0.790716	190.162
0.829258	189.961
0.862318	190.667
0.88439	192.307
0.94498	192.869
0.978113	196.206
1.01142	205.682
1.02817	214.367
0.072496	105.296
0.12234	115.563
0.188991	136.27
0.230721	151.842
0.284187	193.67
0.334007	203.06
0.380832	203.694
0.422127	203.48
0.482645	201.411
0.529543	204.676
0.568133	206.23
0.603946	206.921
0.664367	201.344
0.705759	204.638
0.758211	209.629
0.796801	211.183
0.818849	211.945
0.857416	212.622
0.893349	217.699
0.920904	218.433
0.942879	216.564
0.981446	217.241
1.01182	220.592
1.0367	223.972
