Adsorption isotherm of Nitrogen on (R)-DTP-COF
DOI: 10.1021/jacs.0c07461
Article source: Figure S7c
Adsorbate Nitrogen: InChIKey IJGRMHOSHXDMSA-UHFFFAOYSA-N
Kind: experiment
Temperature: 77 K
Tabular data in the source: 0
pressure (bar)	uptake (cm3(STP)/g)
0.018445	9.5829
0.021604	18.4123
0.027667	27.2323
0.030794	34.9569
0.031019	42.6909
0.040081	54.816
0.046047	60.3213
0.055109	72.4464
0.058109	75.7515
0.069945	83.4476
0.093554	96.63
0.117163	109.812
0.137677	116.375
0.166996	126.224
0.193348	133.873
0.228537	145.912
0.237438	152.513
0.288169	199.861
0.33181	203.033
0.381162	202.871
0.468316	204.796
0.520667	207.94
0.543891	207.864
0.604951	210.979
0.665978	212.989
0.700815	212.875
0.744488	217.152
0.848965	215.706
0.90425	219.945
0.924604	220.983
0.945021	224.231
0.97418	228.556
0.99179	235.128
1.02398	243.862
1.01891	269.293
1.02478	271.484
0.068101	119.918
0.126738	139.615
0.164959	156.065
0.217823	176.886
0.291489	214.214
0.326518	220.73
0.364225	219.501
0.402092	223.797
0.463056	223.598
0.506665	225.665
0.535695	225.57
0.58795	225.399
0.6403	228.543
0.704231	230.544
0.75942	231.468
0.80874	230.202
0.843608	231.193
0.872638	231.098
0.910377	230.974
0.953923	230.832
0.994725	236.223
