Adsorption isotherm of Nitrogen on (S)-DTP-COF soaked in NaOH (12M) for 48h
DOI: 10.1021/jacs.0c07461
Article source: Figure S2d
Adsorbate Nitrogen: InChIKey IJGRMHOSHXDMSA-UHFFFAOYSA-N
Kind: experiment
Temperature: 77 K
Tabular data in the source: 0
pressure (bar)	uptake (cm3(STP)/g)
0.010158	8.32099
0.010227	14.0081
0.012709	17.7949
0.012755	21.5863
0.012813	26.3255
0.01533	32.9559
0.020316	42.4252
0.027716	49.9943
0.027785	55.6814
0.030301	62.3117
0.032818	68.9421
0.032864	72.7335
0.042768	85.9851
0.077098	104.878
0.089368	112.438
0.108969	121.88
0.128523	127.531
0.150571	137.916
0.165231	141.68
0.179926	148.288
0.201939	155.829
0.219069	162.432
0.27308	197.403
0.309707	204.917
0.37061	205.751
0.414509	210.408
0.441301	210.358
0.521735	214.947
0.565634	219.604
0.611969	224.257
0.660682	224.166
0.714313	227.857
0.758189	230.618
0.797205	234.337
0.828915	238.069
0.875296	246.513
0.90704	253.088
0.931523	263.469
0.955972	271.006
0.992576	276.625
1.01454	280.375
0.08706	122.869
0.157982	146.433
0.214336	173.816
0.261029	207.852
0.319542	212.481
0.373173	216.173
0.414636	220.834
0.470644	219.782
0.519427	225.378
0.582811	229.998
0.619346	229.93
0.677836	232.664
0.711981	236.392
0.760797	244.831
0.807109	247.588
0.838842	253.216
0.870586	259.792
0.892565	264.49
0.914589	272.98
0.946403	285.242
0.995185	290.838
1.01712	291.745
