Adsorption isotherm of Nitrogen on (S)-DTP-COF after ten catalytic runs
DOI: 10.1021/jacs.0c07461
Article source: Figure S4c
Adsorbate Nitrogen: InChIKey IJGRMHOSHXDMSA-UHFFFAOYSA-N
Kind: experiment
Temperature: 77 K
Tabular data in the source: 0
pressure (bar)	uptake (cm3(STP)/g)
0.008879	2.82365
0.008925	6.13836
0.020276	12.7187
0.023106	13.8113
0.048514	19.2253
0.068246	21.3492
0.102065	24.5166
0.124596	25.5233
0.147158	28.7398
0.180993	33.0121
0.212014	37.2967
0.265612	45.9026
0.31638	53.416
0.381252	63.0778
0.431958	66.1715
0.493952	71.4259
0.544705	77.8344
0.578556	83.2116
0.643365	88.4538
0.699731	93.7327
0.733597	100.215
0.787149	105.506
0.840731	113.007
0.891484	119.416
0.919706	124.817
0.942377	135.768
0.965063	147.824
0.968048	159.966
0.990968	188.595
1.0081	206.2
1.00835	223.878
1.00873	250.396
1.00933	293.487
0.054251	26.9351
0.113432	32.2018
0.169813	38.5857
0.206447	41.7408
0.265752	55.8468
0.305169	56.7798
0.358783	66.4907
0.409536	72.8991
0.460288	79.3076
0.502598	85.7529
0.550412	83.3344
0.615283	92.9961
0.660376	97.2193
0.697072	104.794
0.764773	115.548
0.798546	115.401
0.838026	120.754
0.871876	126.131
0.905774	134.823
0.939655	142.41
0.956853	164.434
0.982727	202.996
1.00033	253.747
