Adsorption isotherm of Nitrogen on (S)-DTP-COF
DOI: 10.1021/jacs.0c07461
Article source: Figure S2c
Adsorbate Nitrogen: InChIKey IJGRMHOSHXDMSA-UHFFFAOYSA-N
Kind: experiment
Temperature: 77 K
Tabular data in the source: 0
pressure (bar)	uptake (cm3(STP)/g)
0.011977	6.47919
0.011805	13.2103
0.016664	22.8165
0.018947	33.389
0.015928	51.664
0.015903	52.6256
0.015682	61.2799
0.022972	75.6891
0.030432	83.3672
0.040372	93.9253
0.065479	110.224
0.085652	119.801
0.11341	132.248
0.128552	138.95
0.136087	143.744
0.156309	151.398
0.186668	161.917
0.209271	176.297
0.244097	211.808
0.312766	221.293
0.361114	226.97
0.399302	230.744
0.470695	233.493
0.511435	237.262
0.562483	237.165
0.610807	243.804
0.651473	250.458
0.705	253.241
0.745764	256.048
0.791658	257.884
0.81971	258.792
0.85537	261.609
0.888526	262.508
0.919106	264.373
0.959846	268.142
0.972559	270.041
0.995432	273.843
1.00805	279.589
0.052054	136.211
0.112477	168.788
0.147818	184.106
0.198326	205.164
0.248245	249.3
0.317085	252.054
0.360427	253.895
0.41145	254.759
0.462523	253.701
0.503287	256.508
0.541475	260.282
0.592474	262.108
0.648602	262.963
0.702104	266.708
0.747973	269.505
0.786308	267.51
0.832153	271.269
0.867911	270.239
0.903546	274.018
0.936727	273.955
0.979995	278.68
