Adsorption isotherm of Nitrogen on Mg-MOF-74
DOI: 10.1021/Jp401923v
Adsorbate Nitrogen: InChIKey IJGRMHOSHXDMSA-UHFFFAOYSA-N
Temperature: 303 K
Tabular data in the source: 0
pressure (bar)	uptake (mmol/g)
0.580506	0.38859
1.17406	1.04405
3.05362	2.25666
5.79944	3.33817
9.59122	4.32136
16.0629	5.27178
25.2617	6.15666
32.0807	6.48439
