Adsorption isotherm of Carbon Dioxide on Mg-MOF-74
DOI: 10.1021/Jp401923v
Adsorbate Carbon Dioxide: InChIKey CURLTUGMZLYLDI-UHFFFAOYSA-N
Temperature: 303 K
Tabular data in the source: 0
pressure (bar)	uptake (mmol/g)
0.000119	0.0405726
0.000392	0.106119
0.00160181	0.43385
0.00372967	0.761581
0.00834161	1.59183
0.0172136	2.72797
0.0676328	4.8036
0.116446	5.52461
0.226218	6.37671
0.582483	7.38175
0.982903	8.12461
