Adsorption isotherm of Methane on Mg-MOF-74
DOI: 10.1021/Jp401923v
Adsorbate Methane: InChIKey VNWKTOKETHGBQD-UHFFFAOYSA-N
Temperature: 303 K
Tabular data in the source: 0
pressure (bar)	uptake (mmol/g)
0.098369	0.0499371
0.381665	0.329601
0.842946	0.714139
1.70483	1.43078
2.64764	2.23481
5.26131	3.4059
8.92289	4.66439
14.3541	5.62574
22.6882	6.16758
29.5465	6.34237
