Adsorption isotherm of Carbon Dioxide on Mg-MOF-74
DOI: 10.1021/Jp401923v
Adsorbate Carbon Dioxide: InChIKey CURLTUGMZLYLDI-UHFFFAOYSA-N
Temperature: 318 K
Tabular data in the source: 0
pressure (bar)	uptake (mmol/g)
0.0885067	3.20739
0.362027	5.28739
0.682393	5.92974
1.79731	7.24504
5.5467	9.20268
16.5254	11.1297
21.5208	11.6497
