Adsorption isotherm of Carbon Dioxide on Mg-MOF-74
DOI: 10.1021/Jp401923v
Adsorbate Carbon Dioxide: InChIKey CURLTUGMZLYLDI-UHFFFAOYSA-N
Temperature: 338 K
Tabular data in the source: 0
pressure (bar)	uptake (mmol/g)
0.0949652	1.95327
0.368458	4.36974
0.799574	5.37915
1.8948	6.41915
4.9906	7.91798
10.0933	9.04974
16.5254	10.6097
20.7761	11.405
