Adsorption isotherm of Carbon Dioxide on Mg-MOF-74
DOI: 10.1021/Jp401923v
Adsorbate Carbon Dioxide: InChIKey CURLTUGMZLYLDI-UHFFFAOYSA-N
Temperature: 303 K
Tabular data in the source: 0
pressure (bar)	uptake (mmol/g)
0.0966521	4.33915
0.375003	5.86857
0.813777	6.90857
2.42451	8.77445
5.07925	10.1815
7.88817	11.1297
16.5254	11.8639
27.537	12.2615
