Adsorption isotherm of Methane on Mg-MOF-74
DOI: 10.1021/Jp401923v
Adsorbate Methane: InChIKey VNWKTOKETHGBQD-UHFFFAOYSA-N
Temperature: 318 K
Tabular data in the source: 0
pressure (bar)	uptake (mmol/g)
0.100116	0.0324581
0.368458	0.119853
0.694515	0.34708
1.09776	0.661702
2.10594	1.15111
3.32867	1.81532
5.26131	2.65431
7.4823	3.47582
12.0366	4.45464
22.2922	5.45095
23.5014	5.55582
