Adsorption isotherm of Methane on Mg-MOF-74
DOI: 10.1021/Jp401923v
Adsorbate Methane: InChIKey VNWKTOKETHGBQD-UHFFFAOYSA-N
Temperature: 303 K
Tabular data in the source: 0
pressure (bar)	uptake (mmol/g)
0.68362	0.38859
1.08872	0.781867
1.60784	1.17514
3.05362	2.4533
5.65538	3.79699
8.14452	4.74741
11.7292	5.79615
18.6797	6.84489
29.377	7.63145
39.2318	8.02472
