Adsorption isotherm of Methane on Mg-MOF-74
DOI: 10.1021/Jp401923v
Adsorbate Methane: InChIKey VNWKTOKETHGBQD-UHFFFAOYSA-N
Temperature: 293 K
Tabular data in the source: 0
pressure (bar)	uptake (mmol/g)
0.0966521	0.0848951
0.368458	0.399517
0.624884	0.714139
0.828233	1.01128
1.67508	1.78036
2.55602	2.46204
3.7653	3.44086
6.27429	4.31481
9.08139	5.20624
14.6091	5.92288
24.7762	6.55212
31.1492	6.67447
