Adsorption isotherm of Carbon Dioxide on Mg-MOF-74
DOI: 10.1021/Jp401923v
Adsorbate Carbon Dioxide: InChIKey CURLTUGMZLYLDI-UHFFFAOYSA-N
Temperature: 303 K
Tabular data in the source: 0
pressure (bar)	uptake (mmol/g)
0.000119	0.0405726
0.000392	0.106119
0.00125816	0.412001
0.00668522	1.46074
0.0237522	3.38343
0.0510275	4.86914
0.0971557	5.85234
0.265732	7.16326
0.570879	8.08091
0.871111	8.60528
