Adsorption isotherm of Carbon Dioxide on Mg-MOF-74
DOI: 10.1021/Jp401923v
Adsorbate Carbon Dioxide: InChIKey CURLTUGMZLYLDI-UHFFFAOYSA-N
Temperature: 293 K
Tabular data in the source: 0
pressure (bar)	uptake (mmol/g)
0.098369	4.92033
0.395345	6.2968
0.85792	7.3368
2.74254	9.72268
6.49918	11.3439
9.57401	11.8333
14.3541	12.445
31.7025	12.7203
