Adsorption isotherm of Carbon Dioxide on Zeolite 13X
DOI: 10.1021/Jp401923v
Adsorbate Carbon Dioxide: InChIKey CURLTUGMZLYLDI-UHFFFAOYSA-N
Temperature: 303 K
Tabular data in the source: 0
pressure (bar)	uptake (mmol/g)
0.000104	0.0842701
0.00053	0.324606
0.00113773	0.696035
0.00330547	1.19856
0.0104084	1.87587
0.0763123	3.62377
0.260438	5.08763
0.963321	6.37671
