Adsorption isotherm of Carbon Dioxide on Mg-MOF-74
DOI: 10.1021/Jp401923v
Adsorbate Carbon Dioxide: InChIKey CURLTUGMZLYLDI-UHFFFAOYSA-N
Temperature: 303 K
Tabular data in the source: 0
pressure (bar)	uptake (mmol/g)
0.234709	6.77935
0.492945	7.53313
0.984506	8.45078
2.2019	9.86002
5.37791	11.9575
10.8767	13.4651
24.0222	14.5466
31.2838	14.8088
