Adsorption isotherm of Nitrogen on SA-COF
DOI: 10.1021/jacs.7b02696
Article source: Figure 2 (g)
Adsorbate Nitrogen: InChIKey IJGRMHOSHXDMSA-UHFFFAOYSA-N
Kind: experiment
Temperature: 77 K
Tabular data in the source: 0
pressure (bar)	uptake (cm3(STP)/g)
0.003587	0
0.003587	0
0.003587	13.3954
0.003587	22.3256
0.003587	37.2093
0.003587	46.1395
0.003587	56.5581
0.003587	102.698
0.002695	135.442
0.003587	160
0.002695	173.395
0.001793	187.535
0.001793	199.442
0.003587	214.326
0.003587	221.767
0.003587	256
0.00538	273.86
0.007184	291.721
0.008977	303.628
0.008076	314.791
0.008977	325.953
0.010771	334.884
0.023335	360.186
0.030519	367.628
0.039486	376.558
0.048464	382.512
0.064615	389.953
0.077179	394.419
0.091547	397.395
0.107698	402.605
0.12924	405.581
0.153467	410.047
0.179497	413.767
0.206419	418.233
0.230656	421.209
0.256676	422.698
0.281805	424.186
0.306934	427.907
0.332062	429.395
0.357191	433.116
0.383221	433.86
0.409252	436.093
0.43438	437.581
0.459509	439.814
0.485539	440.558
0.509766	442.047
0.535796	444.279
0.560925	446.512
0.586945	448
0.612074	448.744
0.637213	450.977
0.663233	452.465
0.689263	453.953
0.712598	456.186
0.737727	458.419
0.762856	459.907
0.789778	464.372
0.814906	465.86
0.83735	469.581
0.86337	474.791
0.888499	477.767
0.911834	485.953
0.939658	499.349
0.963884	514.977
0.98722	552.186
0.999784	590.884
0.507973	448
0.560023	450.977
0.61028	455.442
0.660538	458.419
0.710805	462.884
0.76016	467.349
0.813113	473.302
0.861577	482.233
0.915421	503.07
0.965688	541.767
