Adsorption isotherm of Nitrogen on H3N+-Phg(1)-b-Ala(2)-COO-
DOI: 10.1039/B822607e
Adsorbate Nitrogen: InChIKey IJGRMHOSHXDMSA-UHFFFAOYSA-N
Temperature: 77 K
Tabular data in the source: 0
pressure (bar)	uptake (cm3(STP)/g)
0.00837971	0.599666
0.0127495	10.0837
0.0302285	12.8822
0.100144	16.9246
0.233422	20.8115
0.386363	23.4546
0.484682	26.7196
0.611405	28.8962
0.78838	31.5393
0.882329	36.8255
0.960985	45.2212
0.980649	55.1716
