Adsorption isotherm of Nitrogen on H3N+-b-Ala(1)-Phg(2)-COO-
DOI: 10.1039/B822607e
Adsorbate Nitrogen: InChIKey IJGRMHOSHXDMSA-UHFFFAOYSA-N
Temperature: 77 K
Tabular data in the source: 0
pressure (bar)	uptake (cm3(STP)/g)
0.00182509	27.9409
0.00400996	1.45914
0.0739259	32.1023
0.229052	35.1288
0.35359	38.1553
0.499976	40.8035
0.650733	44.2083
0.803674	47.6131
0.908548	56.3142
0.95443	68.4202
0.978464	94.1453
