Adsorption isotherm of Ethanol on Na3[Cr3O(OOCCH3)6(H2O)3]3[alpha-As2W18O62]*34H2O
DOI: 10.1002/ejic.201100359
Adsorbate Ethanol: InChIKey LFQSCWFLJHTTHZ-UHFFFAOYSA-N
Temperature: 298 K
Tabular data in the source: 0
pressure (bar)	uptake (wt%)
0.0112524	0.0763308
0.0380129	0.0763308
0.12252	0.127035
0.180266	0.152387
0.239421	0.127035
0.297168	0.203091
0.388717	0.329852
0.481675	0.583373
0.554914	0.760838
0.612661	0.91295
0.683083	1.09042
0.712661	1.21718
0.763365	1.4707
0.833788	1.67351
0.902802	2.02844
0.953506	2.48478
