Adsorption isotherm of Methanol on K1.5H1.5[Cr3O(OOCCH3)6(H2O)3][alpha-GeW12O40]*9.5H2O
DOI: 10.1002/ejic.201100359
Adsorbate Methanol: InChIKey OKKJLVBELUTLKV-UHFFFAOYSA-N
Temperature: 298 K
Tabular data in the source: 0
pressure (bar)	uptake (wt%)
0.00843546	0.342391
0.0337876	0.405771
0.0647735	0.545208
0.119703	0.849433
0.154914	1.05225
0.208435	1.54662
0.26759	2.21845
0.332379	2.78887
0.388717	3.25788
0.449281	3.79028
0.509844	4.31
0.578858	4.91845
0.660548	5.48887
0.726745	6.00859
0.77745	6.51563
0.842238	6.94662
0.970407	8.08746
