Adsorption isotherm of Methanol on K1.5H1.5[Cr3O(OOCCH3)6(H2O)3][alpha-GeW12O40]*9.5H2O
DOI: 10.1002/ejic.201100359
Adsorbate Methanol: InChIKey OKKJLVBELUTLKV-UHFFFAOYSA-N
Temperature: 298 K
Tabular data in the source: 0
pressure (bar)	uptake (wt%)
0.00421011	0.124005
0.063365	0.163441
0.12252	0.270484
0.183083	0.422596
0.243647	0.585976
0.301393	0.805695
0.391534	1.02541
0.47745	1.26767
0.54083	1.42541
0.580266	1.53809
0.664773	1.724
0.725337	1.84795
0.776041	2.03386
0.901393	2.39443
0.973224	2.52964
