Adsorption isotherm of Methanol on KH2[Cr3O(OOCCH3)6(H2O)3][alpha-GeMo12O40]*10H2O
DOI: 10.1002/ejic.201100359
Adsorbate Methanol: InChIKey OKKJLVBELUTLKV-UHFFFAOYSA-N
Temperature: 298 K
Tabular data in the source: 0
pressure (bar)	uptake (wt%)
0.00421011	0.02823
0.0309707	0.0451314
0.0873087	0.0507652
0.153506	0.0958356
0.17745	0.124005
0.239421	0.30992
0.297168	0.512737
0.356323	0.687385
0.419703	0.862033
0.478858	1.02541
0.539421	1.17189
0.583083	1.26767
0.666182	1.43105
0.726745	1.60569
0.783083	1.87612
0.843647	2.40569
0.90421	3.10992
0.963365	4.00006
