Adsorption isotherm of Methanol on Na3[Cr3O(OOCCH3)6(H2O)3]3[alpha-As2W18O62]*34H2O
DOI: 10.1002/ejic.201100359
Adsorbate Methanol: InChIKey OKKJLVBELUTLKV-UHFFFAOYSA-N
Temperature: 298 K
Tabular data in the source: 0
pressure (bar)	uptake (wt%)
0.0309707	0.127035
0.091534	0.228443
0.121112	0.3045
0.153506	0.608725
0.1859	0.862246
0.209844	1.31858
0.239421	2.33267
0.298576	4.51295
0.360548	6.71858
0.415478	8.26506
0.476041	9.2538
0.536604	9.91295
0.584492	10.5975
0.656323	11.3327
0.726745	11.9411
0.771816	12.727
0.842238	14.1214
0.894351	15.2115
0.971816	16.2256
