Adsorption isotherm of Methanol on NaH2[Cr3O(OOCCH3)6(H2O)3]3[alpha-P2W18O62]*32H2O
DOI: 10.1002/ejic.201100359
Adsorbate Methanol: InChIKey OKKJLVBELUTLKV-UHFFFAOYSA-N
Temperature: 298 K
Tabular data in the source: 0
pressure (bar)	uptake (wt%)
0.0295622	0.112981
0.0901256	0.112981
0.119703	0.169319
0.147872	0.479178
0.181675	0.873544
0.205619	1.60594
0.242238	2.56369
0.26759	3.77495
0.326745	6.42284
0.3859	8.50735
0.439421	9.85946
0.507027	10.9299
0.583083	11.9158
0.660548	12.8172
0.725337	13.7468
0.780266	14.4792
0.84083	16.113
0.897168	17.5778
0.974633	18.6482
