Adsorption isotherm of Ethanol on NaH2[Cr3O(OOCCH3)6(H2O)3]3[alpha-P2W18O62]*32H2O
DOI: 10.1002/ejic.201100359
Adsorbate Ethanol: InChIKey LFQSCWFLJHTTHZ-UHFFFAOYSA-N
Temperature: 298 K
Tabular data in the source: 0
pressure (bar)	uptake (wt%)
0.00702701	0.0566429
0.0366045	0.0566429
0.0774495	0.0848119
0.153506	0.0566429
0.229562	0.0284739
0.264773	0.0848119
0.34083	0.225657
0.421112	0.394671
0.512661	0.676361
0.612661	1.21157
0.709844	1.71861
0.764773	2.05664
0.825337	2.45101
0.888717	2.81721
0.946464	3.35242
