Adsorption isotherm of Ethanol on KH2[Cr3O(OOCCH3)6(H2O)3][alpha-GeMo12O40]*10H2O
DOI: 10.1002/ejic.201100359
Adsorbate Ethanol: InChIKey LFQSCWFLJHTTHZ-UHFFFAOYSA-N
Temperature: 298 K
Tabular data in the source: 0
pressure (bar)	uptake (wt%)
0.0137359	0.03256
0.0809526	0.072604
0.15675	0.072604
0.231118	0.092626
0.306915	0.172714
0.379853	0.172714
0.477102	0.272824
0.55862	0.33289
0.65587	0.473044
0.708785	0.593176
0.761701	0.693286
0.826057	0.813418
0.883263	0.953572
0.95048	1.0737
