Adsorption isotherm of Methanol on KH2[Cr3O(OOCCH3)6(H2O)3][alpha-GeMo12O40]*10H2O
DOI: 10.1002/ejic.201100359
Adsorbate Methanol: InChIKey OKKJLVBELUTLKV-UHFFFAOYSA-N
Temperature: 298 K
Tabular data in the source: 0
pressure (bar)	uptake (wt%)
0.0366182	0.092626
0.0938239	0.092626
0.15246	0.23278
0.183923	0.33289
0.238268	0.873484
0.301195	1.63432
0.385573	2.49527
0.478532	3.27612
0.542889	3.81672
0.578642	4.05698
0.661591	4.57755
0.715936	5.09813
0.781723	6.05918
0.838928	7.72101
0.896134	10.0035
0.963351	12.8667
