Adsorption isotherm of Ethanol on K1.5H1.5[Cr3O(OOCCH3)6(H2O)3][alpha-GeW12O40]*9.5H2O
DOI: 10.1002/ejic.201100359
Adsorbate Ethanol: InChIKey LFQSCWFLJHTTHZ-UHFFFAOYSA-N
Temperature: 298 K
Tabular data in the source: 0
pressure (bar)	uptake (wt%)
0.0112524	0.0381654
0.078858	0.0888696
0.156323	0.126898
0.26759	0.15225
0.342238	0.190278
0.425337	0.228306
0.516886	0.27901
0.609844	0.304363
0.715478	0.355067
0.823928	0.393095
0.890126	0.418447
0.956323	0.443799
