Adsorption isotherm of Methanol on Zn(NO3)2*6H2O
DOI: 10.1002/chem.200500963
Adsorbate Methanol: InChIKey OKKJLVBELUTLKV-UHFFFAOYSA-N
Temperature: 293 K
Tabular data in the source: 0
pressure (bar)	uptake (mg/g)
0.00018622	0.610801
0.0315746	14.6758
0.0928823	20.2094
0.189986	27.5969
0.317918	47.217
0.362487	60.0687
0.391248	83.2924
0.403373	105.285
0.418394	127.889
0.505111	145.652
0.586137	153.64
0.732402	162.279
0.879516	164.812
1.01215	164.282
