Adsorption isotherm of Water on Zn(NO3)2*6H2O
DOI: 10.1002/chem.200500963
Adsorbate Water: InChIKey XLYOFNOQVPJJNP-UHFFFAOYSA-N
Temperature: 293 K
Tabular data in the source: 0
pressure (bar)	uptake (mg/g)
0.00018622	0.610801
0.0376164	43.3818
0.0672046	78.209
0.0883923	103.26
0.107345	120.982
0.17275	139.953
0.357707	151.058
0.591268	161.582
0.725388	165.939
0.899234	167.267
1.02953	167.957
