Adsorption isotherm of Hydrogen on Zn(NO3)2*6H2O
DOI: 10.1002/chem.200500963
Adsorbate Hydrogen: InChIKey UFHFLCQGNIYNRP-UHFFFAOYSA-N
Temperature: 293 K
Tabular data in the source: 0
pressure (bar)	uptake (wt%)
11.677	0.19424
20.3387	0.333491
30.3051	0.457967
39.1348	0.545739
49.3062	0.717999
61.1704	0.912228
71.8757	1.01093
