Adsorption isotherm of Nitrogen on [SnIV(TNH2PP)(OTf)2]/CM-MIL-101
DOI: 10.1016/j.molcata.2014.10.030
Article source: Figure 5
Adsorbate Nitrogen: InChIKey IJGRMHOSHXDMSA-UHFFFAOYSA-N
Kind: experiment
Temperature: 77 K
Tabular data in the source: 0
pressure (bar)	uptake (cm3(STP)/g)
0.000952	55.668
0.002351	101.916
0.002695	80.362
0.002999	126.131
0.003921	146.887
0.005745	167.909
0.01146	186.111
0.016891	202.982
0.023224	219.481
0.030732	231.775
0.038503	243.697
0.045556	253.97
0.050804	263.23
0.05737	273.952
0.06426	279.36
0.072295	289.583
0.078892	298.876
0.085528	311.664
0.092125	319.169
0.095397	323.8
0.102571	329.799
0.113332	336.643
0.12696	343.572
0.145452	350.839
0.165666	359.943
0.176772	362.179
0.185182	370.429
0.191595	382.351
0.196935	389.856
0.200826	399.927
0.204525	400.5
0.291046	409.45
0.374821	413.102
0.387224	415.182
0.430337	416.125
0.483948	418.882
0.525512	419.393
0.584291	422.779
0.687784	426.169
0.714443	426.172
0.793	429.897
0.829406	430.07
0.892764	435.99
0.924874	435.487
0.946467	439.429
0.967958	444.434
0.98801	453.909
0.995964	461.467
