Adsorption isotherm of Nitrogen on MIL-101
DOI: 10.1016/j.molcata.2014.10.030
Article source: Figure 5
Adsorbate Nitrogen: InChIKey IJGRMHOSHXDMSA-UHFFFAOYSA-N
Kind: experiment
Temperature: 77 K
Tabular data in the source: 0
pressure (bar)	uptake (cm3(STP)/g)
0.001206	21.16
0.001368	48.18
0.001378	47.64
0.001723	99.1
0.001783	169.5
0.001885	146.85
0.001996	122.71
0.002422	193.74
0.003536	212.99
0.004266	258.47
0.004722	263.92
0.024683	422.78
0.057249	514.86
0.079408	559.09
0.094719	593.48
0.102348	610.63
0.128288	658.71
0.153994	680.18
0.199266	713.98
0.205315	721.32
0.224577	776.39
0.254579	782.76
0.304522	791.89
0.355671	798.68
0.404864	806.54
0.457857	812.82
0.506341	817.89
0.559172	822.83
0.609247	829.53
0.658947	833.23
0.710562	836.25
0.761589	842.65
0.812231	847.99
0.862367	852.22
0.912584	856.35
0.962993	864.31
0.992904	870.68
