Adsorption isotherm of Nitrogen on PAN PS 3 mmol
DOI: 10.1021/acs.iecr.7b04202
Article source: Figure S3
Adsorbate Nitrogen: InChIKey IJGRMHOSHXDMSA-UHFFFAOYSA-N
Kind: experiment
Temperature: 77 K
Tabular data in the source: 0
pressure (bar)	uptake (mmol/g)
0	2.52101
0	2.60504
0	2.71709
0	2.81513
0.003191	3.03922
0.004102	3.13725
0.003191	3.23529
0.004558	3.29832
0.005925	3.37535
0.006381	3.44538
0.007749	3.5014
0.00866	3.52941
0.00866	3.57143
0.020055	3.83753
0.030083	3.97759
0.039199	4.05462
0.054241	4.15966
0.079766	4.28571
0.100732	4.35574
0.153606	4.45378
0.203744	4.55182
0.253882	4.66387
0.304021	4.73389
0.355982	4.80392
0.405209	4.90196
0.45717	5.02801
0.507309	5.12605
0.556535	5.23809
0.607585	5.37815
0.659547	5.51821
0.709685	5.68628
0.760735	5.86835
0.809962	6.06443
0.861923	6.28852
0.91115	6.52661
0.961288	7.01681
1.00049	8.29132
1.00687	8.82353
0	1.7507
0	1.61064
