Adsorption isotherm of Nitrogen on PAN-ATA PS 3 mmol
DOI: 10.1021/acs.iecr.7b04202
Article source: Figure S3
Adsorbate Nitrogen: InChIKey IJGRMHOSHXDMSA-UHFFFAOYSA-N
Kind: experiment
Temperature: 77 K
Tabular data in the source: 0
pressure (bar)	uptake (mmol/g)
0.000456	3.06723
0	3.33333
0	3.54342
0	3.67647
0.000456	3.72549
0.000456	3.80952
0.001367	4.03361
0.002279	4.18767
0.003191	4.32773
0.004102	4.38375
0.005014	4.45378
0.005925	4.53782
0.008204	4.59384
0.009572	4.64986
0.009572	4.69188
0.019144	5.007
0.030083	5.18908
0.038743	5.30112
0.049227	5.37815
0.080221	5.56022
0.100277	5.64426
0.150871	5.81933
0.202832	5.95938
0.252971	6.09244
0.303565	6.21849
0.354615	6.35154
0.404297	6.47059
0.455347	6.59664
0.505485	6.72269
0.555624	6.86975
0.607585	6.9888
0.658635	7.15686
0.708318	7.28992
0.758912	7.42997
0.809506	7.57703
0.860556	7.67507
0.910694	7.84314
0.960833	8.10924
1.00413	8.76751
