Adsorption isotherm of Nitrogen on PAN-ATA PS 2 mmol
DOI: 10.1021/acs.iecr.7b04202
Article source: Figure S3
Adsorbate Nitrogen: InChIKey IJGRMHOSHXDMSA-UHFFFAOYSA-N
Kind: experiment
Temperature: 77 K
Tabular data in the source: 0
pressure (bar)	uptake (mmol/g)
0.009116	2.36695
0.0196	2.54202
0.028716	2.64006
0.039655	2.70308
0.049683	2.7591
0.079766	2.91317
0.101644	3.0112
0.152694	3.13725
0.201921	3.23529
0.253882	3.36135
0.304021	3.45938
0.354159	3.58543
0.405209	3.66947
0.456259	3.7535
0.506397	3.83753
0.557447	3.93557
0.607585	4.01961
0.656812	4.14566
0.708774	4.2437
0.759824	4.35574
0.80905	4.4958
0.8601	4.70588
0.910239	5.02801
0.959009	5.60224
1.00641	7.67507
