Adsorption isotherm of Nitrogen on PAN PS 1 mmol
DOI: 10.1021/acs.iecr.7b04202
Article source: Figure S3
Adsorbate Nitrogen: InChIKey IJGRMHOSHXDMSA-UHFFFAOYSA-N
Kind: experiment
Temperature: 77 K
Tabular data in the source: 0
pressure (bar)	uptake (mmol/g)
0	0.294118
0.001823	0.322129
0.001823	0.364146
0.002279	0.378151
0.003646	0.39916
0.00866	0.448179
0.009572	0.448179
0.0196	0.504202
0.029627	0.546218
0.040111	0.560224
0.053329	0.595238
0.080221	0.644258
0.100277	0.672269
0.151782	0.728291
0.202832	0.756303
0.252971	0.812325
0.303109	0.854342
0.355526	0.868347
0.40612	0.910364
0.456259	0.952381
0.506853	0.994398
0.556991	1.05042
0.608497	1.11345
0.659547	1.16947
0.709229	1.2605
0.760279	1.35154
0.811329	1.47759
0.861012	1.68067
0.910239	1.9888
0.959009	2.7381
1.00186	4.96499
1.00687	5.72829
