Adsorption isotherm of Nitrogen on PAN PS 2 mmol
DOI: 10.1021/acs.iecr.7b04202
Article source: Figure S3
Adsorbate Nitrogen: InChIKey IJGRMHOSHXDMSA-UHFFFAOYSA-N
Kind: experiment
Temperature: 77 K
Tabular data in the source: 0
pressure (bar)	uptake (mmol/g)
0	0.420168
0	0.840336
0.000912	1.02941
0.001367	1.12745
0.000912	1.21849
0.001823	1.38655
0.002735	1.4986
0.003191	1.55462
0.004102	1.59664
0.006381	1.65266
0.007749	1.72269
0.010483	1.77871
0.0196	1.91877
0.029627	2.0028
0.039655	2.08683
0.053329	2.15686
0.080221	2.2619
0.099821	2.32493
0.151782	2.493
0.203744	2.60504
0.254794	2.70308
0.304476	2.79412
0.355982	2.89916
0.404753	2.9902
0.456715	3.07423
0.506397	3.17927
0.556991	3.29132
0.608497	3.38235
0.659091	3.5084
0.709685	3.66947
0.759368	3.79552
0.811329	3.98459
0.861923	4.22969
0.91115	4.62185
0.9622	5.54622
1.0014	8.36135
1.00596	9.21569
