Adsorption isotherm of Nitrogen on Pre-formed UiO-66-NH2 in PAN
DOI: 10.1021/acs.iecr.7b04202
Article source: Figure S3
Adsorbate Nitrogen: InChIKey IJGRMHOSHXDMSA-UHFFFAOYSA-N
Kind: experiment
Temperature: 77 K
Tabular data in the source: 0
pressure (bar)	uptake (mmol/g)
0	2.0028
0	2.28291
0	2.17087
0	0.840336
0.000456	2.36695
0.000456	2.40896
0.001367	2.64706
0.002279	2.79412
0.004102	2.91317
0.004558	2.96919
0.005014	3.05322
0.006837	3.11625
0.008204	3.14426
0.009572	3.18628
0.009572	3.22829
0.0196	3.45938
0.029171	3.58543
0.041478	3.64146
0.054241	3.68347
0.080221	3.7465
0.101644	3.76751
0.152694	3.85154
0.202832	3.89356
0.252971	3.90756
0.304021	3.93557
0.354159	3.94958
0.40612	3.9916
0.456259	4.0056
0.505941	4.01961
0.557903	4.04062
0.608953	4.07563
0.660003	4.09664
0.709685	4.13165
0.760279	4.15266
0.811785	4.18767
0.860556	4.2577
0.912062	4.36975
0.9622	4.62885
1.00049	5.44818
1.00596	5.82633
