Adsorption isotherm of Nitrogen on PAN-ATA PS 1 mmol
DOI: 10.1021/acs.iecr.7b04202
Article source: Figure S3
Adsorbate Nitrogen: InChIKey IJGRMHOSHXDMSA-UHFFFAOYSA-N
Kind: experiment
Temperature: 77 K
Tabular data in the source: 0
pressure (bar)	uptake (mmol/g)
0	0.896359
0	1.33053
0	1.54762
0	1.70868
0.000456	1.80672
0.001367	1.92577
0.002279	2.04482
0.003191	2.07283
0.005014	2.11485
0.005925	2.15686
0.006837	2.19188
0.007749	2.2409
0.00866	2.26891
0.009572	2.31793
0.0196	2.507
0.029171	2.57703
0.046036	2.68207
0.058343	2.71008
0.080677	2.77311
0.101644	2.81513
0.151782	2.88515
0.201921	2.94118
0.253426	3.0112
0.304021	3.02521
0.354159	3.03922
0.404753	3.09524
0.475402	3.13725
0.525997	3.14426
0.576591	3.16527
0.627641	3.17927
0.677779	3.20728
0.727462	3.22129
0.778511	3.2563
0.829106	3.29132
0.880156	3.38936
0.911606	3.48039
0.961744	3.70448
1.00505	4.36975
