Adsorption isotherm of Nitrogen on FeMgGaO4
DOI: 10.1002/cctc.201601355
Article source: Figure 1
Adsorbate Nitrogen: InChIKey IJGRMHOSHXDMSA-UHFFFAOYSA-N
Kind: experiment
Temperature: 77 K
Tabular data in the source: 0
pressure (bar)	uptake (cm3(STP)/g)
0.004681	4.7
0.005218	9.49
0.00769	13.19
0.015148	17.22
0.02678	18.97
0.033426	20.15
0.041178	21.07
0.047267	21.48
0.057521	23.24
0.063053	23.74
0.073864	24.24
0.083277	24.99
0.102113	27.33
0.120959	28.16
0.151154	29.56
0.164731	31.15
0.181348	32.06
0.207114	33.39
0.248393	36.39
0.286906	39.14
0.325966	42.3
0.367519	44.13
0.402121	46.82
0.421321	48.6
0.456217	52.6
0.48552	56.18
0.509604	59.55
0.530558	58.91
0.531581	61.66
0.545888	63.98
0.55986	62.49
0.569993	62.9
0.571705	67.88
0.595455	67.86
0.608718	67.54
0.615689	70.5
0.635234	72.49
0.655469	75.13
0.673616	76.07
0.687223	78.6
0.71375	80.38
0.730498	82.28
0.750743	84.59
0.771331	86.91
0.783196	88.17
0.804819	91.86
0.818082	93.65
0.828194	95.55
0.837262	97.56
0.845986	99.35
0.851741	101.56
0.863394	102.08
0.864265	104.08
0.87306	105.01
0.878754	108.81
0.882503	108.27
0.886424	114.14
0.890842	110.74
0.893233	115.87
0.89915	119.6
0.901339	122.34
0.90906	118.73
0.91518	125.59
0.915778	130.99
0.920904	124.66
0.921016	136.87
0.928534	129.55
0.934178	161.14
0.939568	138.96
0.948941	148.36
0.949559	187.19
0.956935	156.42
0.95883	214.66
0.965345	242.48
0.96654	173.48
0.970928	182.21
0.9711	274.83
0.973076	194.48
0.975801	202.21
0.976632	308.9
0.977605	292.1
0.979358	210.36
0.982195	218.73
0.98259	227.13
0.982975	235.87
0.984231	326.31
0.986227	245.47
0.986785	342.85
0.987058	253.34
0.987231	261.48
0.989166	269.41
0.989774	359.65
0.99099	337.44
0.991071	363.32
0.991111	276.35
0.992418	279.08
0.992773	294.89
0.993036	286.88
0.993573	308.09
0.993827	302.36
0.994171	319.16
0.994546	370.25
0.994566	367.25
0.99486	314.1
0.994961	375.19
0.995012	326.1
0.996127	324.43
0.996208	348.31
0.996481	339.91
0.997515	351.24
0.99793	355.98
0.99794	354.18
0.998275	334.17
