Adsorption isotherm of Nitrogen on MgFe2-LDH
DOI: 10.1002/cctc.201601355
Article source: Figure 1
Adsorbate Nitrogen: InChIKey IJGRMHOSHXDMSA-UHFFFAOYSA-N
Kind: experiment
Temperature: 77 K
Tabular data in the source: 0
pressure (bar)	uptake (cm3(STP)/g)
0.01605	10.96
0.026648	12.04
0.041674	13.38
0.065982	13.24
0.084544	14.18
0.10266	14.72
0.122114	15.12
0.141548	16.32
0.159675	16.32
0.178237	16.99
0.202545	17.93
0.216679	18.47
0.240987	19.01
0.269722	19.01
0.281212	19.54
0.302419	20.61
0.323636	20.75
0.332917	21.02
0.36607	21.82
0.38905	21.95
0.41203	23.03
0.423966	23.03
0.4465	24.37
0.45799	24.5
0.487597	25.84
0.513667	26.38
0.52383	27.18
0.545928	27.99
0.5614	28.66
0.587906	29.86
0.60426	30.4
0.622822	31.34
0.649774	32.27
0.666999	34.02
0.690871	33.88
0.71075	35.49
0.720467	36.56
0.733731	37.5
0.751391	39.51
0.769953	39.65
0.779235	40.58
0.794697	42.46
0.809713	43.4
0.823401	45.54
0.835773	46.62
0.841508	48.22
0.847253	48.09
0.851225	49.83
0.854315	49.7
0.862259	51.84
0.864478	50.77
0.873293	54.39
0.877285	52.65
0.880345	56.53
0.890518	56.13
0.899343	58.68
0.905959	60.69
0.914339	63.24
0.924491	65.38
0.931098	69
0.940784	73.42
0.94431	75.84
0.953115	80.66
0.961474	85.35
0.964544	89.64
0.971151	93.13
0.97727	101.97
0.977716	102.37
0.979459	106.13
0.982995	106.13
0.988254	112.16
0.99175	118.32
0.996583	122.75
0.997434	126.9
1.00137	131.59
1.00315	132
