Adsorption isotherm of Nitrogen on FeMgAl-LDH
DOI: 10.1002/cctc.201601355
Article source: Figure 1
Adsorbate Nitrogen: InChIKey IJGRMHOSHXDMSA-UHFFFAOYSA-N
Kind: experiment
Temperature: 77 K
Tabular data in the source: 0
pressure (bar)	uptake (cm3(STP)/g)
0.0023	17.26
0.006677	23.43
0.007528	28.39
0.016769	34.02
0.035321	36.97
0.055191	39.11
0.068008	40.58
0.087442	42.73
0.095396	42.73
0.099367	43.4
0.12102	45.14
0.1294	46.62
0.141335	46.62
0.161661	48.22
0.181976	50.5
0.200528	51.98
0.217763	53.59
0.239852	54.93
0.263268	56.53
0.280492	58.28
0.309218	60.56
0.323352	61.63
0.360021	64.71
0.410824	68.46
0.451019	73.29
0.485033	76.37
0.489441	78.11
0.510638	80.66
0.527883	80.53
0.52919	82.14
0.545087	84.95
0.568067	86.16
0.569374	88.7
0.592324	92.99
0.602061	91.79
0.60734	94.87
0.633826	100.1
0.646674	96.88
0.655469	103.58
0.668742	101.7
0.672217	109.61
0.686332	114.97
0.689047	105.32
0.709788	109.55
0.712139	121.94
0.721399	124.69
0.727884	114.17
0.736608	131.26
0.746953	136.42
0.74751	120.07
0.74824	141.98
0.763023	145.94
0.768464	127.04
0.773591	152.03
0.786966	134.94
0.790076	165.44
0.797979	172.94
0.804322	181.45
0.813117	188.29
0.81409	144.33
0.814424	190.7
0.820574	196.8
0.825975	151.23
0.831254	155.12
0.834192	209.4
0.838063	160.81
0.845338	226.29
0.848611	169.53
0.858814	258.86
0.86006	175.76
0.868338	287.88
0.870831	184.94
0.875654	190.17
0.876748	191.98
0.877852	317.97
0.88453	341.89
0.887812	347.46
0.890345	206.25
0.891288	356.44
0.896546	362.6
0.905686	224.55
0.906689	365.48
0.911573	237.15
0.920519	253.36
0.928565	366.76
0.929679	270.72
0.937451	296.32
0.94659	318.1
0.953328	333.72
0.954635	367.76
0.963187	346.12
0.967888	368.9
0.969722	359.59
0.982033	369.64
1.00256	373.06
