Adsorption isotherm of Nitrogen on FeMgAlO4
DOI: 10.1002/cctc.201601355
Article source: Figure 1
Adsorbate Nitrogen: InChIKey IJGRMHOSHXDMSA-UHFFFAOYSA-N
Kind: experiment
Temperature: 77 K
Tabular data in the source: 0
pressure (bar)	uptake (cm3(STP)/g)
0.004955	5.41
0.006434	17.35
0.009697	23.41
0.02067	27.48
0.034956	30.4
0.041988	31.2
0.04749	31.39
0.051665	32.52
0.062212	33.78
0.06969	34.71
0.088161	36.1
0.094099	35.96
0.107504	37.09
0.126421	38.48
0.13785	38.94
0.162482	40.12
0.184965	42.09
0.205209	43.45
0.213234	43.55
0.243955	44.91
0.270836	46.69
0.284444	48.8
0.325632	50.15
0.369272	52.45
0.40591	55.92
0.450594	59.06
0.457575	59.91
0.491771	63.06
0.510617	64.64
0.52842	66.32
0.533303	66.32
0.553193	68.95
0.556334	69.48
0.572384	71.48
0.575879	71.58
0.596468	72.94
0.606236	75.05
0.634505	78.21
0.65404	80.74
0.655428	81.59
0.667992	83.27
0.673575	84.33
0.687527	86.75
0.693809	87.91
0.706363	90.02
0.715087	91.5
0.730438	94.14
0.732869	96.78
0.748909	101.11
0.749618	98.78
0.761098	105.97
0.767046	103.96
0.77504	110.2
0.785476	118.34
0.785831	115.91
0.78727	108.92
0.795588	120.56
0.802539	125.22
0.806085	116
0.818974	121.29
0.822712	140.34
0.830474	126.04
0.83175	147.32
0.841609	132.49
0.844588	162.46
0.84856	138.21
0.851204	166.37
0.852907	173.99
0.859857	179.39
0.863323	184.57
0.863535	146.03
0.869777	153.86
0.873668	207.43
0.877812	215.16
0.880902	161.8
0.886678	254.43
0.892352	175.76
0.892767	289.26
0.894013	316.26
0.899282	185.82
0.904004	341.13
0.908138	351.93
0.910174	362.52
0.91212	200.53
0.919689	219.47
0.921279	373.52
0.924856	232.92
0.931726	380.29
0.933854	247.84
0.941068	269.54
0.944969	384.73
0.94587	284.15
0.947522	300.77
0.953034	315.27
0.958516	334.75
0.95961	388.11
0.966591	389.8
0.966814	349.14
0.970218	363.75
0.973562	390.85
0.97645	374.33
0.986126	391.69
0.989987	388.83
0.991709	392.21
1.00706	395.17
