Adsorption isotherm of Nitrogen on FeMgAl-LDH
DOI: 10.1002/cctc.201601355
Article source: Figure 1
Adsorbate Nitrogen: InChIKey IJGRMHOSHXDMSA-UHFFFAOYSA-N
Kind: experiment
Temperature: 77 K
Tabular data in the source: 0
pressure (bar)	uptake (cm3(STP)/g)
0.010305	10.96
0.03372	13.38
0.04056	14.38
0.046973	14.52
0.063104	14.65
0.072375	15.86
0.082102	15.99
0.1011	16.32
0.122317	17.06
0.141538	17.93
0.160546	18.2
0.180436	18
0.204298	18.94
0.241645	20.68
0.285174	21.28
0.324933	24.7
0.367377	24.37
0.381511	24.77
0.408474	25.44
0.421737	25.3
0.445163	25.98
0.453562	25.84
0.488022	27.58
0.511458	27.58
0.528683	29.19
0.5468	30.53
0.568442	32.01
0.588332	32.14
0.607766	34.69
0.628983	34.55
0.646654	36.3
0.667415	38.17
0.69084	39.38
0.712483	40.72
0.730164	41.79
0.750033	44.34
0.77124	46.35
0.77963	47.15
0.789347	48.63
0.80568	51.04
0.811861	51.98
0.827323	54.12
0.836148	55.33
0.845419	58.01
0.849401	57.61
0.853363	60.15
0.859979	60.82
0.867477	63.37
0.87234	63.5
0.878947	66.86
0.885999	70.21
0.8869	67.12
0.892625	70.34
0.896131	74.36
0.901005	73.42
0.905382	79.05
0.911542	84.01
0.912018	77.98
0.9221	90.58
0.922151	83.61
0.934928	90.18
0.941058	98.35
0.943601	113.1
0.951615	104.79
0.952173	128.53
0.956864	113.23
0.962781	124.74
0.963116	156.57
0.969124	173.45
0.969175	166.36
0.971069	134.36
0.973977	155.89
0.974292	190.85
0.975153	146.6
0.979196	165.77
0.980857	206.98
0.982205	174.13
0.98491	224.62
0.986197	239.74
0.987788	251.47
0.988669	244.47
0.989368	185.28
0.989581	194.14
0.990372	200.81
0.991152	207.82
0.992378	232.22
0.992489	216.18
0.994212	248.1
0.994283	239.15
0.995286	254.43
0.995357	244.13
0.996431	250.29
1.00335	256.03
1.00335	255.36
