Adsorption isotherm of Nitrogen on FeFe2O4
DOI: 10.1002/cctc.201601355
Article source: Figure 1
Adsorbate Nitrogen: InChIKey IJGRMHOSHXDMSA-UHFFFAOYSA-N
Kind: experiment
Temperature: 77 K
Tabular data in the source: 0
pressure (bar)	uptake (cm3(STP)/g)
0.03066	11.39
0.046497	12.38
0.0597	11.98
0.070034	11.97
0.084544	12.76
0.08653	12.69
0.101698	13.08
0.107858	13.08
0.120838	13.54
0.133371	13.73
0.141295	13.66
0.165268	14.71
0.183739	14.83
0.20221	15.28
0.219587	15.67
0.252588	16.12
0.275903	16.17
0.312521	17.44
0.325814	18.1
0.339675	17.93
0.36683	18.58
0.379576	18.74
0.405626	19.06
0.429458	20.05
0.448851	20.71
0.459388	20.54
0.490424	21.52
0.508155	22.18
0.529767	23.18
0.549171	23.17
0.568564	24.16
0.589629	23.81
0.609569	25.14
0.626196	25.63
0.64559	26.63
0.668316	27.79
0.688267	28.11
0.710426	29.11
0.730377	30.61
0.751432	32.11
0.769163	33.44
0.781352	33.94
0.794646	36.11
0.798516	36.28
0.804059	36.95
0.817352	39.12
0.831203	39.62
0.833422	39.11
0.843392	40.11
0.846169	40.28
0.85392	42.12
0.860557	43.63
0.874965	45.3
0.881601	46.81
0.89379	48.15
0.899323	50.16
0.91593	54.69
0.921462	55.36
0.931432	58.04
0.933621	62.74
0.943591	63.24
0.950177	76.01
0.950764	69.62
0.950785	66.76
0.959053	75.16
0.960076	89.62
0.967756	104.9
0.969003	80.03
0.971181	86.58
0.973359	93.98
0.97875	121.2
0.979216	137
0.980533	99.85
0.98104	108.42
0.985417	118.34
0.987443	152.29
0.989216	131.78
0.989814	124.89
0.992418	155.14
0.992489	141.69
0.995164	158.84
0.995782	147.24
0.9979	166.23
0.99792	162.7
1.00069	158.75
