Adsorption isotherm of Carbon Dioxide on [Pb2@L]n
DOI: 10.1021/acs.cgd.5b00746
Article source: Figure 5
Adsorbate Carbon Dioxide: InChIKey CURLTUGMZLYLDI-UHFFFAOYSA-N
Kind: experiment
Temperature: 293 K
Tabular data in the source: 0
pressure (bar)	uptake (cm3(STP)/g)
0.015054	1.18267
0.017315	0.113884
0.040357	0.189395
0.041268	1.77333
0.066263	0.24572
0.067273	2.00141
0.092203	0.359296
0.093245	2.17224
0.11812	0.434704
0.119195	2.30489
0.142271	2.43766
0.144048	0.529196
0.16821	2.55123
0.169987	0.642772
0.191252	2.62674
0.19304	0.737367
0.217169	2.70215
0.221843	0.831756
0.245984	2.81562
0.247772	0.926248
0.267939	1.00186
0.27189	2.87195
0.297785	2.90919
0.302503	1.11513
0.320816	2.96562
0.325545	1.19064
0.349598	3.02184
0.351474	1.28513
0.372629	3.07827
0.374539	1.39881
0.400455	1.47422
0.404285	3.13439
0.426384	1.56871
0.427317	3.19082
0.450336	3.22816
0.452301	1.64412
0.475354	1.73871
0.476221	3.24632
0.502105	3.26447
0.504157	1.8331
0.530052	1.87034
0.530898	3.33978
0.553107	1.96494
0.556782	3.35794
0.579023	2.04035
0.582644	3.33793
0.60279	3.37538
0.604952	2.13484
0.625789	3.37455
0.659671	2.30464
0.660308	3.41149
0.682725	2.39923
0.691942	3.42944
0.711507	2.45545
0.737423	2.53086
0.7437	3.44667
0.763352	2.62535
0.786394	2.70087
0.792572	3.44492
0.812312	2.77627
0.838228	2.85168
0.847204	3.46205
0.864146	2.92709
0.870214	3.48031
0.890063	3.0025
0.893212	3.47949
0.915991	3.09699
0.92195	3.45937
0.944773	3.15321
0.950687	3.43926
0.964939	3.22883
0.976549	3.41925
0.990868	3.32332
1.02252	3.37944
