Adsorption isotherm of Carbon Dioxide on [Pb2@L]n
DOI: 10.1021/acs.cgd.5b00746
Article source: Figure 5
Adsorbate Carbon Dioxide: InChIKey CURLTUGMZLYLDI-UHFFFAOYSA-N
Kind: experiment
Temperature: 283 K
Tabular data in the source: 0
pressure (bar)	uptake (cm3(STP)/g)
0.017315	0.113884
0.018269	1.77416
0.038667	2.25052
0.046107	0.18919
0.063411	0.28399
0.064672	2.4786
0.086497	0.435836
0.087759	2.63045
0.113709	2.76311
0.118164	0.511039
0.144113	0.643698
0.145408	2.89556
0.165588	2.99026
0.170042	0.73819
0.193096	0.832785
0.194379	3.06556
0.217433	3.16016
0.219035	0.94636
0.243349	3.23557
0.244985	1.07902
0.270914	1.17351
0.27212	3.2727
0.293956	1.24902
0.300923	3.36709
0.32108	3.42362
0.322769	1.3625
0.345812	1.43801
0.34985	3.46076
0.374637	1.57056
0.378642	3.53607
0.400566	1.66505
0.404537	3.57331
0.424694	3.62984
0.426493	1.75955
0.452432	1.87312
0.459214	3.66677
0.47835	1.94853
0.505254	3.74146
0.507164	2.062
0.530218	2.1566
0.539774	3.77839
0.55326	2.23211
0.576313	2.3267
0.585804	3.834
0.607991	2.42099
0.633919	2.51548
0.637562	3.85123
0.659847	2.60997
0.680025	2.70467
0.68933	3.88755
0.705943	2.78008
0.734757	2.89355
0.743973	3.92376
0.760696	3.00713
0.789488	3.08243
0.792845	3.92201
0.812541	3.17703
0.83847	3.27152
0.844593	3.92016
0.867251	3.32774
0.87333	3.90005
0.887451	3.46061
0.896317	3.88014
0.916233	3.51683
0.922201	3.8983
0.942161	3.61132
0.950928	3.8591
0.968078	3.68673
0.976801	3.85817
0.994006	3.78122
1.01994	3.87571
