Adsorption isotherm of Carbon Dioxide on [Pb2@L]n
DOI: 10.1021/acs.cgd.5b00746
Article source: Figure 5
Adsorbate Carbon Dioxide: InChIKey CURLTUGMZLYLDI-UHFFFAOYSA-N
Kind: experiment
Temperature: 273 K
Tabular data in the source: 0
pressure (bar)	uptake (cm3(STP)/g)
0.015636	2.1941
0.017315	0.113884
0.03892	2.68945
0.046173	0.303691
0.063498	0.436659
0.064947	2.95569
0.088044	3.12662
0.089427	0.531151
0.115388	0.682894
0.11688	3.27826
0.139944	3.39194
0.141327	0.796469
0.167277	0.929128
0.168747	3.48633
0.193216	1.0427
0.194676	3.58082
0.217729	3.67541
0.219155	1.15628
0.242231	1.28904
0.246532	3.7698
0.271044	1.40251
0.27245	3.84521
0.295492	3.92072
0.296984	1.51609
0.320048	1.62977
0.321398	3.97705
0.345977	1.72426
0.347305	4.03337
0.374791	1.83773
0.376074	4.07051
0.399117	4.14602
0.400719	1.93223
0.423782	2.0459
0.427887	4.18316
0.449722	2.15948
0.450919	4.23959
0.47565	2.25397
0.476825	4.29591
0.501589	2.36755
0.50272	4.33316
0.527518	2.46204
0.53149	4.37029
0.553457	2.57561
0.557374	4.38845
0.579396	2.68919
0.583259	4.40661
0.605336	2.80277
0.612018	4.42466
0.628388	2.89736
0.657203	3.01083
0.66089	4.42291
0.683142	3.12441
0.70907	3.2189
0.712647	4.44015
0.737885	3.33237
0.760937	3.42697
0.761531	4.45748
0.789751	3.54044
0.809919	3.61605
0.819026	4.45542
0.838744	3.74861
0.861797	3.84321
0.865024	4.45378
0.8906	3.9376
0.896646	4.45265
0.916539	4.05117
0.922509	4.43264
0.939583	4.12668
0.948382	4.43171
0.965522	4.24026
0.97712	4.4116
0.997189	4.31546
1.02023	4.39097
