Adsorption isotherm of Nitrogen on SX6 Xerogel
DOI: 10.1016/S0009-2614(00)00910-6
Adsorbate Nitrogen: InChIKey IJGRMHOSHXDMSA-UHFFFAOYSA-N
Temperature: 77 K
Tabular data in the source: 0
pressure (bar)	uptake (cm3(STP)/g)
0.0142252	90.6521
0.0825333	122.157
0.150931	141.577
0.186621	151.29
0.216368	158.577
0.234185	167.059
0.254974	176.752
0.27578	184.029
0.293607	191.302
0.314396	200.995
0.332204	210.685
0.349995	222.792
0.367785	234.899
0.400368	261.525
0.415143	278.462
0.441864	291.788
0.465597	306.319
0.486395	314.804
0.519113	323.304
0.542918	328.168
0.575618	339.085
0.629196	347.61
0.706634	353.749
0.760266	355.024
0.79302	358.69
0.909199	364.877
0.944969	363.713
