Adsorption isotherm of Nitrogen on SX4 Xerogel
DOI: 10.1016/S0009-2614(00)00910-6
Adsorbate Nitrogen: InChIKey IJGRMHOSHXDMSA-UHFFFAOYSA-N
Temperature: 77 K
Tabular data in the source: 0
pressure (bar)	uptake (cm3(STP)/g)
0.00263797	45.9247
0.00286305	15.7135
0.00828304	88.2278
0.0497703	119.699
0.103295	135.476
0.156865	145.21
0.195561	151.301
0.255091	161.042
0.31463	169.576
0.38608	179.332
0.445601	190.282
0.514098	196.41
0.588555	202.545
0.657061	207.464
0.725577	211.174
0.79411	212.468
0.859654	214.967
0.901366	216.227
0.960968	216.301
