Adsorption isotherm of Nitrogen on ASX Xerogel
DOI: 10.1016/S0009-2614(00)00910-6
Adsorbate Nitrogen: InChIKey IJGRMHOSHXDMSA-UHFFFAOYSA-N
Temperature: 77 K
Tabular data in the source: 0
pressure (bar)	uptake (cm3(STP)/g)
0.00287206	14.5051
0.0263617	61.6642
0.0441972	67.7287
0.06802	70.1752
0.0888356	76.2434
0.115638	78.6937
0.127514	84.7508
0.154299	89.6179
0.181102	92.0682
0.213847	96.9427
0.261474	104.253
0.321004	113.994
0.350751	121.282
0.386467	127.369
0.416196	137.074
0.448923	144.365
0.469658	161.309
0.499332	178.265
0.526	198.842
0.573511	221.861
0.62401	243.676
0.701394	257.066
0.775779	272.868
0.814466	280.167
0.865092	285.064
