Adsorption isotherm of Hydrogen on CuBTC
DOI: 10.1039/C2cp23146h
Adsorbate Hydrogen: InChIKey UFHFLCQGNIYNRP-UHFFFAOYSA-N
Temperature: 77 K
Tabular data in the source: 0
pressure (bar)	uptake (wt%)
0.137322	5.85646
0.45705	6.23923
1.10376	6.4689
2.18576	6.54545
3.15945	6.62201
4.24248	6.62201
5.32551	6.62201
6.40855	6.62201
7.38276	6.66029
8.46579	6.66029
9.54882	6.66029
10.6319	6.66029
11.7149	6.66029
12.7979	6.66029
13.881	6.66029
14.964	6.66029
16.047	6.66029
17.1301	6.66029
18.2131	6.66029
19.2961	6.66029
20.3791	6.66029
21.4622	6.66029
22.5452	6.66029
23.6282	6.66029
24.7113	6.66029
25.7943	6.66029
26.8773	6.66029
27.9604	6.66029
29.0434	6.66029
29.9098	6.66029
