Adsorption isotherm of Hydrogen on CuBTC
DOI: 10.1039/C2cp23146h
Adsorbate Hydrogen: InChIKey UFHFLCQGNIYNRP-UHFFFAOYSA-N
Temperature: 77 K
Tabular data in the source: 0
pressure (bar)	uptake (wt%)
0.260653	4.74641
0.358593	5.51196
0.68143	5.66507
1.11412	5.70335
2.62933	5.7799
2.95372	5.81818
3.71237	5.7799
5.98725	5.74163
7.07028	5.74163
9.02078	5.66507
9.99551	5.66507
12.1621	5.62679
13.029	5.58852
14.3287	5.58852
15.5205	5.55024
16.0626	5.51196
17.9037	5.51196
18.879	5.47368
20.0708	5.43541
22.3462	5.35885
23.9713	5.32057
25.9213	5.2823
27.6546	5.24402
28.7377	5.24402
29.9295	5.20574
