Adsorption isotherm of Nitrogen on MIL-68(Fe)
DOI: 10.1002/ejic.201000486
Adsorbate Nitrogen: InChIKey IJGRMHOSHXDMSA-UHFFFAOYSA-N
Temperature: 77 K
Tabular data in the source: 0
pressure (bar)	uptake (cm3(STP)/g)
0.00515504	2.01157
0.00515504	29.8994
0.00658518	55.9995
0.0208866	91.3955
0.0308976	99.6188
0.0480593	103.552
0.0780923	104.982
0.161041	106.054
0.321217	106.77
0.507135	107.842
0.711646	109.987
0.907575	111.06
0.95477	114.635
0.979082	119.283
0.987663	135.015
0.990524	198.299
0.993384	237.985
