Adsorption isotherm of Nitrogen on MIL-68(Fe)
DOI: 10.1002/ejic.201000486
Adsorbate Nitrogen: InChIKey IJGRMHOSHXDMSA-UHFFFAOYSA-N
Temperature: 77 K
Tabular data in the source: 0
pressure (bar)	uptake (cm3(STP)/g)
0.00801532	94.6133
0.015166	108.557
0.0180263	123.216
0.0294675	137.875
0.0523498	146.098
0.105265	151.819
0.162471	155.394
0.212526	156.467
0.289753	158.255
0.365551	160.042
0.509996	163.618
0.660161	166.12
0.75455	167.908
0.85752	171.484
0.911866	172.914
0.949049	176.131
