Adsorption isotherm of Nitrogen on MIL-68(Fe)
DOI: 10.1002/ejic.201000486
Adsorbate Nitrogen: InChIKey IJGRMHOSHXDMSA-UHFFFAOYSA-N
Temperature: 77 K
Tabular data in the source: 0
pressure (bar)	uptake (cm3(STP)/g)
0.0423388	111.775
0.0766622	119.641
0.102405	122.501
0.133868	123.216
0.183923	125.004
0.266871	126.792
0.365551	127.864
0.459941	128.937
0.561481	129.294
0.6573	130.009
0.75884	131.082
0.811756	131.797
0.909005	132.87
0.95477	132.87
