Adsorption isotherm of Nitrogen on MIL-68(Fe)
DOI: 10.1002/ejic.201000486
Adsorbate Nitrogen: InChIKey IJGRMHOSHXDMSA-UHFFFAOYSA-N
Temperature: 77 K
Tabular data in the source: 0
pressure (bar)	uptake (cm3(STP)/g)
0.00658518	111.418
0.0123058	132.155
0.0180263	157.182
0.035188	173.629
0.0623608	181.137
0.135298	186.5
0.211096	189.003
0.284033	190.433
0.35697	192.221
0.45708	191.863
0.55147	193.293
0.6573	193.293
0.763131	193.293
0.85895	194.366
0.916156	195.438
0.983373	197.226
