Adsorption isotherm of Nitrogen on MIL-68(Fe)
DOI: 10.1002/ejic.201000486
Adsorbate Nitrogen: InChIKey IJGRMHOSHXDMSA-UHFFFAOYSA-N
Temperature: 77 K
Tabular data in the source: 0
pressure (bar)	uptake (cm3(STP)/g)
0.00285952	29.9965
0.00285952	56.8514
0.00413076	1.07586
0.00794447	79.7337
0.0155719	99.279
0.0263774	107.542
0.0441748	110.243
0.0759557	111.832
0.210071	112.945
0.419826	113.263
0.609876	113.104
0.803104	113.104
0.96328	113.898
1.00205	115.487
