Adsorption isotherm of Nitrogen on MIL-68(Fe)
DOI: 10.1002/ejic.201000486
Adsorbate Nitrogen: InChIKey IJGRMHOSHXDMSA-UHFFFAOYSA-N
Temperature: 77 K
Tabular data in the source: 0
pressure (bar)	uptake (cm3(STP)/g)
0.00372489	22.3911
0.00658518	52.0666
0.0137359	73.1612
0.0180263	107.127
0.035188	118.568
0.0738019	126.076
0.138158	129.652
0.236838	132.87
0.316926	133.585
0.408455	135.73
0.512856	137.16
0.663021	138.59
0.760271	140.735
0.85752	142.881
0.947619	145.383
