Adsorption isotherm of Nitrogen on MIL-68(Fe)
DOI: 10.1002/ejic.201000486
Adsorbate Nitrogen: InChIKey IJGRMHOSHXDMSA-UHFFFAOYSA-N
Temperature: 77 K
Tabular data in the source: 0
pressure (bar)	uptake (cm3(STP)/g)
0.00658518	134.657
0.0108756	157.54
0.025177	180.064
0.0323278	190.79
0.0437689	194.723
0.0909636	198.656
0.183923	201.517
0.325507	204.377
0.465661	207.595
0.55433	207.952
0.75455	211.528
0.791734	211.885
0.877542	216.533
0.95906	221.896
0.979082	248.354
