Adsorption isotherm of Water on MIL-163
DOI: 10.1002/anie.201507058
Article source: Figure 2
Adsorbate Water: InChIKey XLYOFNOQVPJJNP-UHFFFAOYSA-N
Kind: experiment
Temperature: 298 K
Tabular data in the source: 0
pressure (bar)	uptake (mmol/g)
0	0
0.000256	1.82278
0.000692	1.01266
0.000775	2.83544
0.001905	2.02532
0.002334	4.1519
0.003118	2.83544
0.003981	5.26582
0.004765	3.74684
0.005459	3.94937
0.005887	6.48101
0.006066	4.25316
0.007019	4.75949
0.007101	7.39241
0.008227	8
0.008233	5.26582
0.00858	5.56962
0.009441	8.81013
0.009707	5.97468
0.010054	6.07595
0.010481	9.41772
0.010747	6.58228
0.011434	10.3291
0.011701	6.88608
0.012134	7.29114
0.012559	11.5443
0.013175	7.89873
0.013508	14.0759
0.013781	8.3038
0.01411	16.9114
0.014363	20.3544
0.014792	22.2785
0.014821	9.11392
0.015254	9.51899
0.01586	10.1266
0.01609	24.3038
0.016379	10.9367
0.016638	11.443
0.016897	12.4557
0.017068	13.3671
0.017238	14.8861
0.017301	26.2278
0.017408	16.6076
0.017665	18.2278
0.017728	29.0633
0.017922	19.6456
0.018352	21.5696
0.018958	22.481
0.019735	24.3038
0.020338	26.4304
0.021202	27.8481
0.021282	30.9873
0.022155	28.962
0.022674	29.6709
0.023364	31.5949
0.023542	29.7722
0.023975	30.0759
0.025272	32
0.025362	30.8861
0.025622	30.9873
0.026402	31.1899
0.027093	32.8101
0.027269	31.5949
0.027963	32
0.028916	32.6076
0.02952	34.4304
0.029696	33.0127
0.031166	35.6456
