Adsorption isotherm of Hydrogen on ACF
DOI: 10.1016/j.micromeso.2013.02.010
Adsorbate Hydrogen: InChIKey UFHFLCQGNIYNRP-UHFFFAOYSA-N
Temperature: 298 K
Tabular data in the source: 0
pressure (bar)	uptake (g/l)
2.89172	0.127229
5.30375	0.191149
7.22252	0.444386
11.5601	0.63523
15.8943	0.88923
20.2251	1.20639
25.0458	1.39738
29.38	1.65138
33.7142	1.90538
38.5348	2.09638
42.8724	2.28722
47.21	2.47807
52.0306	2.66906
56.3682	2.85991
61.1889	3.0509
65.5299	3.17859
70.3505	3.36958
74.6915	3.49727
79.5156	3.62511
83.8565	3.7528
88.6806	3.88064
93.0216	4.00832
97.8456	4.13616
102.187	4.26385
107.014	4.32853
111.838	4.45637
116.182	4.5209
121.007	4.64874
125.834	4.71342
130.661	4.7781
135.006	4.84263
139.833	4.90732
144.661	4.972
149.488	5.03668
153.832	5.10121
158.66	5.16589
163.487	5.23057
167.828	5.35826
172.656	5.42294
177.483	5.48763
182.311	5.55231
186.655	5.61684
191.482	5.68152
195.347	5.68274
