Adsorption isotherm of Hydrogen on ACF
DOI: 10.1016/j.micromeso.2013.02.010
Adsorbate Hydrogen: InChIKey UFHFLCQGNIYNRP-UHFFFAOYSA-N
Temperature: 298 K
Tabular data in the source: 0
pressure (bar)	uptake (g/l)
8.77193	0.720252
19.883	1.31083
29.8246	1.83581
39.1813	2.16495
50.2924	2.69031
59.6491	3.08467
78.9474	3.67792
98.8304	4.20614
118.713	4.66915
138.596	4.9365
158.48	5.26907
178.363	5.53642
188.889	5.67029
195.906	5.7378
