Adsorption isotherm of Hydrogen on ACF
DOI: 10.1016/j.micromeso.2013.02.010
Adsorbate Hydrogen: InChIKey UFHFLCQGNIYNRP-UHFFFAOYSA-N
Temperature: 77 K
Tabular data in the source: 0
pressure (bar)	uptake (g/l)
0.120186	0.28942
1.1294	14.7785
2.08382	18.2533
3.89546	21.1453
5.95895	22.732
9.8491	24.7469
14.8404	26.1781
19.8361	26.8847
29.8319	27.5731
39.8339	27.247
