Adsorption isotherm of Hydrogen on ACF
DOI: 10.1016/j.micromeso.2013.02.010
Adsorbate Hydrogen: InChIKey UFHFLCQGNIYNRP-UHFFFAOYSA-N
Temperature: 298 K
Tabular data in the source: 0
pressure (bar)	uptake (wt%)
4.34232	0.0285067
7.71664	0.0664017
12.0553	0.113776
16.3958	0.151717
20.7345	0.199091
25.075	0.237032
29.4155	0.274972
33.756	0.312913
38.0965	0.350854
42.9219	0.379383
47.2624	0.417324
51.6047	0.44583
56.4301	0.47436
60.7724	0.502867
65.5978	0.531396
69.9419	0.550469
74.7673	0.578998
79.1115	0.598071
83.9387	0.617167
88.7659	0.636263
93.1083	0.664769
97.9373	0.674431
102.281	0.693504
107.109	0.712599
111.453	0.731672
116.282	0.741334
121.109	0.76043
125.455	0.770069
130.284	0.77973
135.111	0.798826
139.94	0.808488
144.286	0.818127
149.115	0.827788
153.944	0.83745
158.774	0.847112
163.118	0.866185
167.947	0.875847
172.776	0.885508
177.12	0.904581
181.949	0.914243
186.778	0.923905
191.124	0.933544
194.506	0.933703
