Adsorption isotherm of Hydrogen on ACF
DOI: 10.1016/j.micromeso.2013.02.010
Adsorbate Hydrogen: InChIKey UFHFLCQGNIYNRP-UHFFFAOYSA-N
Temperature: 298 K
Tabular data in the source: 0
pressure (bar)	uptake (g/l)
3.86738	0.249658
6.28364	0.437054
10.6353	0.68656
15.4712	0.935915
21.2756	1.18497
25.1413	1.49734
29.4946	1.68413
32.8794	1.87122
36.7502	1.99544
40.135	2.18254
44.004	2.36948
47.8748	2.4937
50.7753	2.68094
54.1618	2.80532
57.5483	2.92969
60.9348	3.05406
64.3196	3.24115
68.192	3.30266
71.5785	3.42703
74.9667	3.48869
77.8689	3.61321
81.7413	3.67472
84.6452	3.73652
87.5475	3.86105
89.9671	3.92301
92.3867	3.98497
94.8064	4.04692
97.2243	4.1716
99.6457	4.17084
104.487	4.23204
108.842	4.35611
113.683	4.41731
118.522	4.54123
122.879	4.60258
127.72	4.66378
132.561	4.72498
137.402	4.78618
141.757	4.91025
146.597	4.97145
151.438	5.03265
155.795	5.094
160.636	5.1552
165.477	5.2164
170.318	5.2776
174.675	5.33895
179.514	5.46287
184.357	5.46135
189.198	5.52255
194.039	5.58375
