Adsorption isotherm of Hydrogen on ACF
DOI: 10.1016/j.micromeso.2013.02.010
Adsorbate Hydrogen: InChIKey UFHFLCQGNIYNRP-UHFFFAOYSA-N
Temperature: 298 K
Tabular data in the source: 0
pressure (bar)	uptake (wt%)
2.42131	0.0280899
5.32688	0.0561798
9.68523	0.102996
14.0436	0.140449
18.4019	0.187266
22.7603	0.224719
27.1186	0.262172
31.477	0.299625
35.8354	0.337079
40.1937	0.374532
45.0363	0.402622
49.3947	0.440075
54.2373	0.468165
58.5956	0.496255
62.954	0.524345
67.7966	0.543071
72.6392	0.571161
76.9976	0.589888
81.8402	0.617978
86.1985	0.636704
91.0412	0.655431
95.3995	0.674157
100.242	0.692884
104.6	0.71161
109.443	0.720974
113.801	0.7397
118.644	0.758427
123.487	0.76779
127.845	0.777154
132.688	0.79588
137.53	0.805243
142.373	0.814607
146.731	0.82397
151.574	0.833333
156.416	0.842697
160.775	0.861423
165.617	0.870787
170.46	0.88015
175.303	0.889513
179.661	0.90824
184.504	0.917603
189.346	0.926966
193.705	0.93633
