Adsorption isotherm of Fluoride Ion, Water on Monetite
DOI: 10.1007/s10450-017-9928-8
Article source: Figure 6
Adsorbate Fluoride Ion: InChIKey KRHYYFGTRYWZRS-UHFFFAOYSA-M
Adsorbate Water: InChIKey XLYOFNOQVPJJNP-UHFFFAOYSA-N
Kind: experiment
Temperature: 298 K
Tabular data in the source: 0
pressure (bar)	Fluoride Ion fraction	Fluoride Ion uptake (mg/g)	Water fraction	Water uptake (mg/g)	total uptake (mg/g)
1.01325	12.25	38.1939			
1.01325	44.75	56.7862			
1.01325	86.25	64.8871			
1.01325	131.25	71.2616			
1.01325	176	74.3161			
1.01325	224.25	79.2298			
