Adsorption isotherm of Fluoride Ion, Water on Monetite
DOI: 10.1007/s10450-017-9928-8
Article source: Figure 6
Adsorbate Fluoride Ion: InChIKey KRHYYFGTRYWZRS-UHFFFAOYSA-M
Adsorbate Water: InChIKey XLYOFNOQVPJJNP-UHFFFAOYSA-N
Kind: experiment
Temperature: 308 K
Tabular data in the source: 0
pressure (bar)	Fluoride Ion fraction	Fluoride Ion uptake (mg/g)	Water fraction	Water uptake (mg/g)	total uptake (mg/g)
1.01325	8.5	41.9123			
1.01325	36	63.2935			
1.01325	79.25	72.1912			
1.01325	124.25	78.3001			
1.01325	168	82.2842			
1.01325	216	87.1979			
