Adsorption isotherm of Fluoride Ion, Water on Monetite
DOI: 10.1007/s10450-017-9928-8
Article source: Figure 6
Adsorbate Fluoride Ion: InChIKey KRHYYFGTRYWZRS-UHFFFAOYSA-M
Adsorbate Water: InChIKey XLYOFNOQVPJJNP-UHFFFAOYSA-N
Kind: experiment
Temperature: 328 K
Tabular data in the source: 0
pressure (bar)	Fluoride Ion fraction	Fluoride Ion uptake (mg/g)	Water fraction	Water uptake (mg/g)	total uptake (mg/g)
1.01325	2.5	47.8884			
1.01325	23.25	76.0425			
1.01325	64.25	86.7995			
1.01325	107.25	94.7676			
1.01325	150	99.9469			
1.01325	199.5	103.931			
