Adsorption isotherm of Fluoride Ion, Water on Monetite
DOI: 10.1007/s10450-017-9928-8
Article source: Figure 6
Adsorbate Fluoride Ion: InChIKey KRHYYFGTRYWZRS-UHFFFAOYSA-M
Adsorbate Water: InChIKey XLYOFNOQVPJJNP-UHFFFAOYSA-N
Kind: experiment
Temperature: 318 K
Tabular data in the source: 0
pressure (bar)	Fluoride Ion fraction	Fluoride Ion uptake (mg/g)	Water fraction	Water uptake (mg/g)	total uptake (mg/g)
1.01325	5.5	44.7012			
1.01325	30.25	69.5352			
1.01325	72	79.4954			
1.01325	116.25	86.1355			
1.01325	160.25	89.8539			
1.01325	208	95.166			
