Adsorption isotherm of Nitrogen on CS-COF
DOI: 10.1038/ncomms3736
Article source: Figure 5A
Adsorbate Nitrogen: InChIKey IJGRMHOSHXDMSA-UHFFFAOYSA-N
Kind: experiment
Temperature: 77 K
Tabular data in the source: 0
pressure (bar)	uptake (cm3(STP)/g)
0.000525	27.9852
-0.001474	63.9566
0.000189	98.9397
-0.001804	133.725
-0.001924	159.024
0.000787	165.744
0.007144	174.638
0.019915	180.567
0.028126	184.125
0.041827	186.496
0.053703	188.473
0.078374	191.042
0.103965	192.426
0.131383	194.204
0.156976	195.193
0.184397	196.379
0.210906	196.971
0.237411	198.355
0.260263	199.146
0.284945	199.343
0.314197	199.936
0.360819	200.529
0.410183	201.122
0.462291	201.517
0.513487	201.418
0.565594	201.913
0.614043	202.901
0.664323	203.098
0.717345	203.494
0.765796	203.889
0.816989	204.482
0.866353	204.976
0.915714	206.261
0.963241	208.83
0.992475	213.178
0.986061	216.341
0.955	211.597
0.905642	209.621
0.857196	208.237
0.805088	207.842
0.75481	207.249
0.704527	207.447
0.653333	207.249
0.603968	206.854
0.552774	206.458
0.500667	205.865
0.449478	204.482
0.400116	203.494
0.34618	202.901
0.300475	201.913
0.271224	201.122
0.24837	200.826
0.221861	200.134
0.198094	199.738
0.169757	198.948
0.145994	197.564
0.1204	196.971
0.094808	195.588
