Adsorption isotherm of Nitrogen on CS-COF>C60
DOI: 10.1038/ncomms3736
Article source: Figure S5
Adsorbate Nitrogen: InChIKey IJGRMHOSHXDMSA-UHFFFAOYSA-N
Kind: experiment
Temperature: 77 K
Tabular data in the source: 0
pressure (bar)	uptake (cm3(STP)/g)
0.000595	21.9208
0.001176	45.4812
0.004082	55.9108
0.048835	70.2422
0.081963	72.3431
0.108117	74.1439
0.134852	75.0443
0.1581	75.9447
0.184835	76.9952
0.208664	77.1452
0.234237	78.1957
0.260391	78.796
0.285383	79.3962
0.31328	79.9965
0.360938	80.2966
0.412084	81.3471
0.463229	81.7973
0.513213	82.8477
0.563196	83.2979
0.614922	83.7481
0.664905	84.9487
0.713726	85.8491
0.764872	87.6499
0.816017	88.8504
0.864838	92.1519
0.913077	98.3046
0.965385	117.063
0.96306	136.271
0.913659	105.958
0.861932	96.8039
0.806718	92.9022
0.756154	90.8013
0.705008	89.3006
0.655025	88.1001
0.60388	87.6499
0.552153	87.3497
0.501589	86.7495
0.451024	85.5489
0.40046	84.7986
0.349896	84.6485
0.299331	84.0483
0.272596	84.0483
0.248767	83.8982
0.222032	82.9978
0.198203	82.5476
0.172049	82.0974
0.14822	82.0974
0.122647	81.6472
0.097074	81.3471
0.011057	74.8942
