Adsorption isotherm of Hydrogen on CS-COF
DOI: 10.1038/ncomms3736
Article source: Figure 5C
Adsorbate Hydrogen: InChIKey UFHFLCQGNIYNRP-UHFFFAOYSA-N
Kind: experiment
Temperature: 77 K
Tabular data in the source: 0
pressure (bar)	uptake (wt%)
-0.007943	-0.001594
-0.007943	0.580593
0.095613	0.821966
0.207135	1.02819
0.406282	1.18394
0.493906	1.25265
0.987789	1.4449
1.99149	1.59561
2.97925	1.69284
3.99092	1.75338
4.97868	1.80783
6.00628	1.84697
7.50386	1.89043
9.01737	1.9293
10.0131	1.94096
10.0131	1.94208
8.99331	1.93291
8.02117	1.93108
7.01086	1.91824
6.02909	1.89624
4.99962	1.86507
4.01773	1.81923
3.04534	1.76605
2.02517	1.68904
1.02379	1.55518
0.031227	1.2783
