Adsorption isotherm of Nitrogen on salen-COF 2
DOI: 10.1021/jacs.9b03075
Article source: Figure 1e
Adsorbate Nitrogen: InChIKey IJGRMHOSHXDMSA-UHFFFAOYSA-N
Kind: experiment
Temperature: 77 K
Tabular data in the source: 0
pressure (bar)	uptake (cm3(STP)/g)
0.007335	221.526
0.003143	206.812
0.001048	191.689
0.049248	237.057
0.095352	242.371
0.118405	245.64
0.156126	246.049
0.189657	247.684
0.248335	246.866
0.283961	246.866
0.314349	247.275
0.353118	246.049
0.386649	245.232
0.426466	245.232
0.462092	243.597
0.497718	242.779
0.533345	241.144
0.568971	241.144
0.675849	239.51
0.707284	240.327
0.74291	239.51
0.782728	237.057
0.814163	236.24
0.851884	237.057
0.889606	237.057
0.923137	239.51
0.954572	241.962
0.975528	244.414
0.051344	242.779
0.084874	245.232
0.099544	246.866
0.137266	247.684
0.170796	250.136
0.206422	250.954
0.241001	250.136
0.277675	250.136
0.315396	250.136
0.348927	250.136
0.384553	249.319
0.43904	247.684
0.455805	248.501
0.493527	252.589
0.527058	253.406
0.562684	253.406
0.600406	252.589
0.636032	250.954
0.671658	250.136
0.70938	250.136
0.740815	250.136
0.778536	248.501
0.814163	249.319
0.847693	248.501
0.885415	249.319
0.922089	250.545
0.958763	253.406
1.00696	257.493
