Adsorption isotherm of Nitrogen on salen-COF 1-Zn
DOI: 10.1021/jacs.9b03075
Article source: Figure 1f
Adsorbate Nitrogen: InChIKey IJGRMHOSHXDMSA-UHFFFAOYSA-N
Kind: experiment
Temperature: 77 K
Tabular data in the source: 0
pressure (bar)	uptake (cm3(STP)/g)
0.0481	145.744
0.099008	150.359
0.123584	151.897
0.158693	153.949
0.195558	155.487
0.230667	157.026
0.265776	158.051
0.300885	158.564
0.335995	159.077
0.371104	159.59
0.406213	159.59
0.443077	160.103
0.476431	160.103
0.513296	160.615
0.548405	160.615
0.583514	161.385
0.620379	161.128
0.674798	161.128
0.708152	161.641
0.723951	162.154
0.760815	162.41
0.815234	163.692
0.829278	165.231
0.867898	166.256
0.920562	169.333
0.939872	171.897
0.972348	179.077
0.05161	156.513
0.084964	159.077
0.120951	161.641
0.156938	163.692
0.192047	164.205
0.227156	165.231
0.265776	165.744
0.29913	166.256
0.334239	166.769
0.348283	167.282
0.386903	167.795
0.441322	168.308
0.478187	168.821
0.493986	169.846
0.527339	170.359
0.583514	170.359
0.618623	170.359
0.632667	171.385
0.690597	171.897
0.723951	172.41
0.741505	173.692
0.77837	174.974
0.834544	177.538
0.869654	180.103
0.924073	185.744
0.960937	193.436
