Adsorption isotherm of Nitrogen on salen-COF 1
DOI: 10.1021/jacs.9b03075
Article source: Figure 1e
Adsorbate Nitrogen: InChIKey IJGRMHOSHXDMSA-UHFFFAOYSA-N
Kind: experiment
Temperature: 77 K
Tabular data in the source: 0
pressure (bar)	uptake (cm3(STP)/g)
-0.001048	154.905
-0.001048	140.599
-0.001048	107.902
-0.001048	91.5531
-0.001048	74.7956
-0.001048	60.4905
-0.001048	40.0545
0	124.251
0.001048	171.662
0.011526	187.193
0.050296	206.812
0.093257	214.169
0.122596	219.074
0.160318	221.526
0.195944	223.978
0.229474	225.613
0.264053	227.248
0.302822	228.883
0.336353	229.7
0.369883	230.518
0.407605	230.926
0.441136	231.744
0.476762	232.97
0.514484	232.97
0.548014	232.97
0.585736	232.97
0.619267	233.787
0.654893	233.787
0.689471	234.196
0.727193	234.196
0.761771	235.422
0.797397	235.014
0.833024	236.24
0.86865	237.875
0.905324	241.144
0.937806	246.866
0.975528	255.041
0.052391	212.125
0.088018	218.256
0.121548	222.752
0.158222	225.613
0.1928	228.474
0.227379	229.7
0.263005	231.335
0.300727	232.153
0.336353	232.97
0.388744	233.787
0.441136	235.014
0.476762	235.422
0.493527	237.875
0.545919	239.51
0.58364	239.51
0.59831	240.327
0.638127	241.144
0.688423	240.736
0.726145	241.962
0.761771	242.779
0.797397	244.414
0.833024	246.866
0.870745	251.771
0.889606	255.858
0.927328	264.033
0.958763	273.025
1.00487	278.747
0.351022	234.605
