Adsorption isotherm of Nitrogen on salen-COF 2-Zn
DOI: 10.1021/jacs.9b03075
Article source: Figure 1f
Adsorbate Nitrogen: InChIKey IJGRMHOSHXDMSA-UHFFFAOYSA-N
Kind: experiment
Temperature: 77 K
Tabular data in the source: 0
pressure (bar)	uptake (cm3(STP)/g)
-0.001053	44.7179
-0.000176	54.4615
-0.000176	33.9487
0.000702	136
0.000702	123.949
0.000702	112.41
0.000702	100.615
0.000702	88.8205
0.000702	77.0256
0.000702	66.2564
0.000702	23.6923
0.003335	147.795
0.009479	159.59
0.049855	170.872
0.093741	175.231
0.122706	176.256
0.158693	177.026
0.192047	178.564
0.230667	178.564
0.262265	179.59
0.300885	179.59
0.332484	179.59
0.388658	179.59
0.427278	179.59
0.460632	179.333
0.497497	179.077
0.532606	180.103
0.565959	180.103
0.602824	180.103
0.637933	179.59
0.673042	178.051
0.708152	178.051
0.725706	178.564
0.75906	179.59
0.81699	179.077
0.832789	179.59
0.869654	181.128
0.920562	183.179
0.936361	185.231
0.974981	187.795
0.05161	174.974
0.088475	177.538
0.120073	179.077
0.156938	180.615
0.192047	180.615
0.227156	181.641
0.244711	181.641
0.278064	182.154
0.314929	182.154
0.350038	182.154
0.385147	182.154
0.441322	180.615
0.476431	181.128
0.493986	181.641
0.527339	182.154
0.585269	181.385
0.618623	181.128
0.632667	181.128
0.669531	182.667
0.725706	183.692
0.762571	184.205
0.774859	185.231
0.831034	185.744
0.867898	187.282
0.881942	188.821
0.922317	191.897
0.957426	196
1.00658	200.615
