Adsorption isotherm of Water, Tl(I) on MnO2
DOI: 10.1016/j.jenvman.2017.01.038
Article source: Figure 3
Adsorbate Water: InChIKey XLYOFNOQVPJJNP-UHFFFAOYSA-N
Adsorbate Tl(I): InChIKey ZLUSCZLCHQSJRU-UHFFFAOYSA-N
Kind: experiment
Temperature: 303 K
Tabular data in the source: 0
pressure (bar)	Water fraction	Water uptake (mg/g)	Tl(I) fraction	Tl(I) uptake (mg/g)	total uptake (mg/g)
1.01325			3.378	8.75	
1.01325			4.065	35.42	
1.01325			7.746	81.68	
1.01325			31.313	123.65	
1.01325			54.687	130.93	
1.01325			85.533	164.56	
1.01325			130.716	186.51	
