Adsorption isotherm of Water, Tl(I) on FeOOH-MnO2
DOI: 10.1016/j.jenvman.2017.01.038
Article source: Figure 3
Adsorbate Water: InChIKey XLYOFNOQVPJJNP-UHFFFAOYSA-N
Adsorbate Tl(I): InChIKey ZLUSCZLCHQSJRU-UHFFFAOYSA-N
Kind: experiment
Temperature: 303 K
Tabular data in the source: 0
pressure (bar)	Water fraction	Water uptake (mg/g)	Tl(I) fraction	Tl(I) uptake (mg/g)	total uptake (mg/g)
1.01325			3.488	24.17	
1.01325			4.12	44.59	
1.01325			4.752	96.38	
1.01325			14.667	173.58	
1.01325			24.83	254.11	
1.01325			45.101	303.59	
1.01325			73.694	343.47	
1.01325			118.548	367.3	
