Adsorption isotherm of Water on C28H24CoN10
DOI: 10.1039/C1ce05847a
Adsorbate Water: InChIKey XLYOFNOQVPJJNP-UHFFFAOYSA-N
Temperature: 298 K
Tabular data in the source: 0
pressure (bar)	uptake (cm3(STP)/g)
0.000146759	4.06623
0.000587037	6.77338
0.00132083	9.4774
0.00212801	13.8755
0.00352222	18.6064
0.00550347	22.653
0.00675093	26.0295
0.00887894	29.0576
0.0108602	30.7313
0.0126213	32.4074
0.0151162	35.7706
0.017391	38.1191
0.0195924	43.8583
0.0215736	49.2608
0.0247289	61.0915
0.0261231	71.2461
0.0272972	79.3691
0.0282512	86.1386
0.0304525	103.742
