Adsorption isotherm of Methanol on C28H24CoN10
DOI: 10.1039/C1ce05847a
Adsorbate Methanol: InChIKey OKKJLVBELUTLKV-UHFFFAOYSA-N
Temperature: 293 K
Tabular data in the source: 0
pressure (bar)	uptake (cm3(STP)/g)
0.00548981	6.42969
0.0113718	6.75691
0.0203907	7.41682
0.0274491	8.41965
0.0352917	9.08192
0.0466634	11.0931
0.0525454	12.0982
0.0615644	13.4361
0.0713676	16.1284
0.0796023	22.2136
0.0874449	32.0284
0.0984245	44.5488
0.106659	48.2611
0.11607	51.6321
0.122344	54.3315
0.134108	58.3757
0.14548	69.8784
0.153715	83.4212
