Adsorption isotherm of Carbon Dioxide on C28H24CoN10
DOI: 10.1039/C1ce05847a
Adsorbate Carbon Dioxide: InChIKey CURLTUGMZLYLDI-UHFFFAOYSA-N
Temperature: 195 K
Tabular data in the source: 0
pressure (bar)	uptake (cm3(STP)/g)
5.55e-17	10.2151
0.00229538	3.11852
0.00459075	16.8822
0.00688613	21.2911
0.0206584	23.1205
0.0275445	24.1965
0.0413168	24.8431
0.055089	25.7048
0.0642706	26.1358
0.0780428	26.7825
0.105587	27.7531
0.128541	28.5082
0.156086	29.0488
0.18363	29.6969
0.211175	30.0224
0.234128	30.3474
0.261673	30.8879
0.286922	31.3207
0.309876	31.6457
0.33742	32.0788
0.36726	32.512
0.390214	32.7295
0.417759	33.2701
0.445303	33.3805
0.468257	33.598
0.495801	33.9235
0.523346	34.1415
0.578435	34.4699
0.626638	34.5825
0.684022	34.9112
0.739111	35.2396
0.7942	35.4605
0.844699	35.6809
0.897492	36.1166
0.950286	36.3373
1.00308	36.773
