Adsorption isotherm of Nitrogen on C28H26ZnN10O
DOI: 10.1039/C1ce05847a
Adsorbate Nitrogen: InChIKey IJGRMHOSHXDMSA-UHFFFAOYSA-N
Temperature: 195 K
Tabular data in the source: 0
pressure (bar)	uptake (cm3(STP)/g)
0.472103	0
2.59657	0.171123
4.95708	0.256684
6.84549	0.342246
9.20601	0.385027
11.5665	0.427807
16.7597	0.59893
18.8841	0.641711
21.2446	0.727273
24.7854	0.812834
28.3262	0.983957
35.1717	1.15508
37.5322	1.24064
40.8369	1.36898
44.8498	1.49733
49.5708	1.62567
51.4592	1.66845
53.8197	1.71123
57.1245	1.83957
61.3734	2.0107
65.8584	2.13904
67.7468	2.2246
70.1073	2.31016
72.4678	2.4385
78.8412	2.69519
84.0343	2.99465
85.9227	3.12299
88.0472	3.25134
92.0601	3.5508
94.1845	3.72193
98.9056	4.27807
100.794	4.53476
102.446	4.79144
105.043	5.64706
