Adsorption isotherm of Nitrogen on C28H24CoN10
DOI: 10.1039/C1ce05847a
Adsorbate Nitrogen: InChIKey IJGRMHOSHXDMSA-UHFFFAOYSA-N
Temperature: 195 K
Tabular data in the source: 0
pressure (bar)	uptake (cm3(STP)/g)
4.47964	0.219433
6.96833	0.329392
9.95475	0.332312
12.6923	0.334988
15.6787	0.445434
19.4118	0.55661
25.8824	0.885515
30.8597	0.997908
37.3303	1.21929
42.8054	1.33217
48.0317	1.4448
53.2579	1.66496
57.2398	1.99144
61.2217	2.10286
65.7014	2.10723
73.6652	2.4376
82.1267	2.87598
86.1086	3.20245
97.0588	3.96584
108.756	5.59018
