Adsorption isotherm of Oxygen on C28H24CoN10
DOI: 10.1039/C1ce05847a
Adsorbate Oxygen: InChIKey MYMOFIZGZYHOMD-UHFFFAOYSA-N
Temperature: 195 K
Tabular data in the source: 0
pressure (bar)	uptake (cm3(STP)/g)
0.723529	0.431567
1.92941	1.07916
2.77353	1.83355
3.49706	2.37265
4.82353	2.6979
5.90882	3.23773
8.92353	3.78144
10.6118	4.10743
13.9882	4.86693
16.1588	5.30142
19.8971	5.84659
22.1882	6.28132
24.8412	6.82431
27.3735	6.93694
30.6294	7.26609
34.2471	7.48844
37.6235	7.92536
40.2765	8.03824
42.6882	8.15063
46.6676	8.58877
48.7176	8.59291
50.4059	8.59631
52.5765	8.60069
