Adsorption isotherm of Hydrogen on C28H24CoN10
DOI: 10.1039/C1ce05847a
Adsorbate Hydrogen: InChIKey UFHFLCQGNIYNRP-UHFFFAOYSA-N
Temperature: 195 K
Tabular data in the source: 0
pressure (bar)	uptake (cm3(STP)/g)
2.94118	0.00316256
10.8597	0.119204
13.5747	0.337177
15.3846	0.339123
18.0995	0.557096
21.9457	0.561232
26.4706	0.781151
31.6742	1.21685
43.4389	1.44456
50	1.45161
56.1086	1.67324
61.086	1.46353
66.2896	1.57666
70.5882	1.6888
76.0181	1.69464
80.543	1.69951
84.8416	1.70413
88.2353	1.92283
91.629	1.92648
94.3439	2.03693
97.7376	2.1481
