Adsorption isotherm of Carbon Dioxide on C28H26ZnN10O
DOI: 10.1039/C1ce05847a
Adsorbate Carbon Dioxide: InChIKey CURLTUGMZLYLDI-UHFFFAOYSA-N
Temperature: 195 K
Tabular data in the source: 0
pressure (bar)	uptake (cm3(STP)/g)
0.00217716	0.385027
0.00435432	1.62567
0.00870864	3.59358
0.0152401	4.36364
0.0174173	4.83422
0.0239488	5.26203
0.0261259	5.64706
0.0304802	5.9893
0.0457204	6.6738
0.054429	7.05882
0.0631376	7.44385
0.0740234	7.82888
0.0849092	8.2139
0.0979722	8.51337
0.113212	8.81283
0.124098	8.98396
0.158933	9.3262
0.180704	9.49733
0.209007	9.75401
0.256905	10.139
0.309157	10.5241
0.411483	11.123
0.463735	11.4225
0.518164	11.7219
0.561707	11.9786
0.618313	12.2353
0.668388	12.5348
0.714108	12.7059
0.76636	13.0053
0.820789	13.2193
0.870864	13.4759
0.918762	13.7326
0.973191	14.1176
