Adsorption isotherm of Ethanol on C28H24CoN10
DOI: 10.1039/C1ce05847a
Adsorbate Ethanol: InChIKey LFQSCWFLJHTTHZ-UHFFFAOYSA-N
Temperature: 298 K
Tabular data in the source: 0
pressure (bar)	uptake (cm3(STP)/g)
0.00637614	3.70135
0.0081979	4.03249
0.0107484	4.36048
0.012388	4.6924
0.0138454	5.02511
0.0154849	5.35703
0.0173067	5.34918
0.0189463	5.6811
0.0207681	6.35122
0.0224076	7.36111
0.0242294	7.35326
0.025869	8.02417
0.0275086	8.69507
0.028966	10.0447
0.0293303	10.3821
0.0309699	11.731
0.0326095	13.4189
0.0351599	15.7808
0.0367995	16.4517
0.0384391	17.1226
0.0402609	17.7927
0.0419005	18.4636
0.0433579	18.7963
0.0446331	19.8078
0.0464549	21.1558
0.0480943	22.1657
0.0499164	23.1748
0.0515559	24.5237
0.0530133	25.5344
0.0544707	27.223
0.0559281	28.9116
0.0575676	30.5995
0.059025	32.2881
0.0595713	33.6417
0.0612113	33.9736
0.0630329	35.3217
0.0646724	36.3316
0.0664941	37.3407
0.0681336	38.3506
0.0695914	39.7003
0.0710488	43.4228
0.0715952	46.4713
0.0723236	49.858
0.0728704	52.9065
0.0734168	56.2939
0.0739636	59.3424
