Adsorption isotherm of Argon on C28H24CoN10
DOI: 10.1039/C1ce05847a
Adsorbate Argon: InChIKey XKRFYHLGVUSROY-UHFFFAOYSA-N
Temperature: 195 K
Tabular data in the source: 0
pressure (bar)	uptake (cm3(STP)/g)
5.99545	3.2387
7.01359	3.34842
11.086	3.67975
13.009	3.79142
15.3846	3.58147
18.6651	3.80358
21.3801	3.80942
24.6606	3.81647
26.9231	4.03639
29.4118	3.82669
30.9955	4.04515
33.7104	4.05099
36.1991	4.2714
38.6878	4.16922
40.3846	4.49545
41.7421	4.39084
43.8914	4.50299
46.1536	4.61538
48.19	4.61976
