Adsorption isotherm of Hydrogen on ZIF-11
DOI: 10.1039/C3dt52103f
Adsorbate Hydrogen: InChIKey UFHFLCQGNIYNRP-UHFFFAOYSA-N
Temperature: 77 K
Tabular data in the source: 0
pressure (bar)	uptake (mmol/g)
0.00790222	0.159829
0.0113346	0.588872
0.0147669	1.04366
0.0490903	1.9189
0.095427	2.78557
0.148628	3.309
0.200113	3.72947
0.3048	4.2958
0.423216	4.73343
0.529618	5.00801
0.653183	5.2397
0.768166	5.35983
0.890014	5.43706
1.00671	5.48854
1.08223	5.47138
1.18348	5.42848
