Adsorption isotherm of Carbon Dioxide on ZIF-11
DOI: 10.1039/C3dt52103f
Adsorbate Carbon Dioxide: InChIKey CURLTUGMZLYLDI-UHFFFAOYSA-N
Temperature: 273 K
Tabular data in the source: 0
pressure (bar)	uptake (mmol/g)
0.0181992	0.0826011
0.0714006	0.237057
0.134899	0.400093
0.255031	0.631776
0.371731	0.846298
0.495295	1.06082
0.613711	1.23244
0.735559	1.41263
0.855691	1.57567
0.914041	1.6529
1.03246	1.80735
1.09596	1.86742
1.1543	1.93607
