Adsorption isotherm of Carbon monoxide on Zeolite 5A
DOI: 10.1002/aic.690150410
Article source: Table 2
Adsorbate Carbon monoxide: InChIKey UGFAIRIUMAVXCW-UHFFFAOYSA-N
Kind: experiment
Temperature: -200 K
Tabular data in the source: 0
pressure (bar)	uptake (cm3(STP)/g)
0	46.3
0.002266	53.9
0.003866	78.1
0.0052	81.7
0.006399	87.4
0.010666	89.5
0.015865	94.5
0.043063	99.7
0.066528	101.8
0.109324	103.6
0.188918	105.3
0.281444	107
0.336906	107.9
0.490093	108.7
0.624082	110
0.696476	110.4
0.870595	111.4
0.892327	111.5
1.10458	111.7
