Adsorption isotherm of Oxygen on Zeolite 10X
DOI: 10.1002/aic.690150410
Article source: Table 2
Adsorbate Oxygen: InChIKey MYMOFIZGZYHOMD-UHFFFAOYSA-N
Kind: experiment
Temperature: -200 K
Tabular data in the source: 0
pressure (bar)	uptake (cm3(STP)/g)
0.006	4.7
0.030131	12.6
0.065061	20.8
0.118924	32.9
0.19745	48.7
0.28051	63.7
0.343705	72.8
0.407033	80
0.508225	89.1
0.601284	96.1
0.717008	101.6
0.93179	110.1
1.15537	116.2
1.78079	126.4
