Adsorption isotherm of Nitrogen, Carbon monoxide on Zeolite 5A
DOI: 10.1002/aic.690150410
Article source: Table 3
Adsorbate Nitrogen: InChIKey IJGRMHOSHXDMSA-UHFFFAOYSA-N
Adsorbate Carbon monoxide: InChIKey UGFAIRIUMAVXCW-UHFFFAOYSA-N
Kind: experiment
Temperature: -200 K
Tabular data in the source: 0
pressure (bar)	Nitrogen fraction	Nitrogen uptake (cm3(STP)/g)	Carbon monoxide fraction	Carbon monoxide uptake (cm3(STP)/g)	total uptake (cm3(STP)/g)
1.01325	0	0	1	111.8	111.8
1.01325	0.13	0.7672	0.87	108.833	109.6
1.01325	0.27	3.3883	0.73	105.912	109.3
1.01325	0.331	4.1572	0.669	105.243	109.4
1.01325	0.422	6.6795	0.578	102.821	109.5
1.01325	0.485	6.7347	0.515	100.165	106.9
1.01325	0.548	8.5557	0.452	99.7443	108.3
1.01325	0.652	11.858	0.348	95.942	107.8
1.01325	0.775	20.6416	0.225	85.7584	106.4
1.01325	0.833	25.8362	0.167	78.7638	104.6
1.01325	0.879	29.1276	0.121	75.2724	104.4
1.01325	0.943	43.1585	0.057	61.3415	104.5
1.01325	0.979	56.0448	0.021	44.7552	100.8
1.01325	1	103	0	0	103
