Adsorption isotherm of Nitrogen on Zeolite 10X
DOI: 10.1002/aic.690150410
Article source: Table 2
Adsorbate Nitrogen: InChIKey IJGRMHOSHXDMSA-UHFFFAOYSA-N
Kind: experiment
Temperature: -200 K
Tabular data in the source: 0
pressure (bar)	uptake (cm3(STP)/g)
0.0008	14.1
0.017465	38.9
0.028531	47.5
0.055195	55.8
0.07666	61.2
0.180119	77.5
0.244647	83.1
0.396501	91.3
0.520757	95.6
0.64808	98.5
0.662346	100
0.795535	102.6
0.833265	102.4
1.02978	106
1.19964	108
