Adsorption isotherm of Nitrogen, Carbon monoxide on Zeolite 10X
DOI: 10.1002/aic.690150410
Article source: Table 3
Adsorbate Nitrogen: InChIKey IJGRMHOSHXDMSA-UHFFFAOYSA-N
Adsorbate Carbon monoxide: InChIKey UGFAIRIUMAVXCW-UHFFFAOYSA-N
Kind: experiment
Temperature: -200 K
Tabular data in the source: 0
pressure (bar)	Nitrogen fraction	Nitrogen uptake (cm3(STP)/g)	Carbon monoxide fraction	Carbon monoxide uptake (cm3(STP)/g)	total uptake (cm3(STP)/g)
1.01325	0	0	1	125.5	125.5
1.01325	0.13	1.884	0.87	123.716	125.6
1.01325	0.27	8.2276	0.73	114.572	122.8
1.01325	0.331	8.991	0.669	112.509	121.5
1.01325	0.422	12.792	0.578	110.208	123
1.01325	0.548	17.5224	0.452	101.678	119.2
1.01325	0.652	23.88	0.348	95.52	119.4
1.01325	0.775	35.1783	0.225	80.9217	116.1
1.01325	0.879	47.345	0.121	64.055	111.4
1.01325	0.943	63.7872	0.057	45.8128	109.6
1.01325	0.979	80.8476	0.021	25.9524	106.8
1.01325	1	105.8	0	0	105.8
