Adsorption isotherm of Oxygen on Zeolite 5A
DOI: 10.1002/aic.690150410
Article source: Table 2
Adsorbate Oxygen: InChIKey MYMOFIZGZYHOMD-UHFFFAOYSA-N
Kind: experiment
Temperature: -200 K
Tabular data in the source: 0
pressure (bar)	uptake (cm3(STP)/g)
0.003466	8.2
0.011999	18.1
0.022931	28.4
0.039063	41.1
0.062662	54.6
0.072927	60.4
0.101325	69.6
0.155587	79.8
0.214249	86.9
0.287843	92.5
0.383968	98.6
0.519691	100.9
0.684077	106.7
0.77167	107
0.960721	111
1.1747	112.1
1.33816	113.6
1.53827	116.3
1.89144	118.4
2.13542	119.6
