Adsorption isotherm of Nitrogen, Oxygen on Zeolite 10X
DOI: 10.1002/aic.690150410
Article source: Table 3
Adsorbate Nitrogen: InChIKey IJGRMHOSHXDMSA-UHFFFAOYSA-N
Adsorbate Oxygen: InChIKey MYMOFIZGZYHOMD-UHFFFAOYSA-N
Kind: experiment
Temperature: -200 K
Tabular data in the source: 0
pressure (bar)	Nitrogen fraction	Nitrogen uptake (cm3(STP)/g)	Oxygen fraction	Oxygen uptake (cm3(STP)/g)	total uptake (cm3(STP)/g)
1.01325	1	105.8	0	0	105.8
1.01325	0.912	100.032	0.088	4.168	104.2
1.01325	0.771	94.9186	0.229	10.7814	105.7
1.01325	0.658	86.726	0.342	16.274	103
1.01325	0.556	84.0942	0.444	23.3058	107.4
1.01325	0.528	80.634	0.472	26.166	106.8
1.01325	0.428	76.5756	0.572	30.2244	106.8
1.01325	0.377	73.1276	0.623	33.4724	106.6
1.01325	0.236	60.99	0.764	46.01	107
1.01325	0.15	51.2894	0.85	56.0106	107.3
1.01325	0.062	35.7192	0.938	73.1808	108.9
1.01325	0.025	23.9279	0.975	83.3721	107.3
1.01325	0	0	1	113	113
