Adsorption isotherm of Nitrogen on Zeolite 5A
DOI: 10.1002/aic.690150410
Article source: Table 2
Adsorbate Nitrogen: InChIKey IJGRMHOSHXDMSA-UHFFFAOYSA-N
Kind: experiment
Temperature: -200 K
Tabular data in the source: 0
pressure (bar)	uptake (cm3(STP)/g)
0.001067	25.9
0.004	44.8
0.013599	61.9
0.037597	77.6
0.054396	82.4
0.066928	84.6
0.082793	87
0.141188	92.9
0.221448	95.6
0.267845	95.9
0.395967	98.9
0.540622	99.8
0.654213	101.2
0.806334	102.1
0.857796	102.1
1.04405	103.1
