Adsorption isotherm of Nitrogen, Oxygen on Zeolite 5A
DOI: 10.1002/aic.690150410
Article source: Table 3
Adsorbate Nitrogen: InChIKey IJGRMHOSHXDMSA-UHFFFAOYSA-N
Adsorbate Oxygen: InChIKey MYMOFIZGZYHOMD-UHFFFAOYSA-N
Kind: experiment
Temperature: -200 K
Tabular data in the source: 0
pressure (bar)	Nitrogen fraction	Nitrogen uptake (cm3(STP)/g)	Oxygen fraction	Oxygen uptake (cm3(STP)/g)	total uptake (cm3(STP)/g)
1.01325	1	103	0	0	103
1.01325	0.912	99.4454	0.088	2.6546	102.1
1.01325	0.771	93.5503	0.229	7.1497	100.7
1.01325	0.658	91.759	0.342	11.341	103.1
1.01325	0.556	88.4744	0.444	15.1256	103.6
1.01325	0.528	83.6836	0.472	16.4164	100.1
1.01325	0.423	81.1695	0.577	20.9305	102.1
1.01325	0.377	79.838	0.623	24.662	104.5
1.01325	0.236	70.3285	0.764	34.1715	104.5
1.01325	0.15	60.3078	0.85	43.4922	103.8
1.01325	0.062	47.1888	0.938	54.5112	101.7
1.01325	0.025	36.4672	0.975	67.1328	103.6
1.01325	0	0	1	110.7	110.7
