Adsorption isotherm of Oxygen, Carbon monoxide on Zeolite 10X
DOI: 10.1002/aic.690150410
Article source: Table 3
Adsorbate Oxygen: InChIKey MYMOFIZGZYHOMD-UHFFFAOYSA-N
Adsorbate Carbon monoxide: InChIKey UGFAIRIUMAVXCW-UHFFFAOYSA-N
Kind: experiment
Temperature: -200 K
Tabular data in the source: 0
pressure (bar)	Oxygen fraction	Oxygen uptake (cm3(STP)/g)	Carbon monoxide fraction	Carbon monoxide uptake (cm3(STP)/g)	total uptake (cm3(STP)/g)
1.01325	0	0	1	125.5	125.5
1.01325	0.109	2.3294	0.891	120.271	122.6
1.01325	0.21	4.5325	0.79	117.967	122.5
1.01325	0.329	8.631	0.671	114.669	123.3
1.01325	0.371	9.5706	0.629	113.129	122.7
1.01325	0.465	12.7617	0.535	111.138	123.9
1.01325	0.527	15.2964	0.473	106.104	121.4
1.01325	0.637	20.1736	0.363	100.626	120.8
1.01325	0.762	27.301	0.238	91.399	118.7
1.01325	0.874	38.8352	0.126	79.5648	118.4
1.01325	0.93	45.267	0.07	69.333	114.6
1.01325	0.967	53.11	0.033	59.89	113
1.01325	1	113	0	0	113
