Adsorption isotherm of Carbon monoxide on Zeolite 10X
DOI: 10.1002/aic.690150410
Article source: Table 2
Adsorbate Carbon monoxide: InChIKey UGFAIRIUMAVXCW-UHFFFAOYSA-N
Kind: experiment
Temperature: -200 K
Tabular data in the source: 0
pressure (bar)	uptake (cm3(STP)/g)
0.0012	33.5
0.004533	40.6
0.019598	68.4
0.040663	78.6
0.062262	86.3
0.091192	94.3
0.130389	98.8
0.201717	105.8
0.240247	107.9
0.36117	113.4
0.412633	114.7
0.56422	118.5
0.726074	121.4
0.85073	123.4
0.979519	124.8
1.20283	127.6
1.50534	130.1
