Adsorption isotherm of Oxygen, Carbon monoxide on Zeolite 5A
DOI: 10.1002/aic.690150410
Article source: Table 3
Adsorbate Oxygen: InChIKey MYMOFIZGZYHOMD-UHFFFAOYSA-N
Adsorbate Carbon monoxide: InChIKey UGFAIRIUMAVXCW-UHFFFAOYSA-N
Kind: experiment
Temperature: -200 K
Tabular data in the source: 0
pressure (bar)	Oxygen fraction	Oxygen uptake (cm3(STP)/g)	Carbon monoxide fraction	Carbon monoxide uptake (cm3(STP)/g)	total uptake (cm3(STP)/g)
1.01325	0	0	1	111.8	111.8
1.01325	0.109	0.8776	0.891	108.822	109.7
1.01325	0.21	1.8037	0.79	104.296	106.1
1.01325	0.329	3.291	0.671	106.409	109.7
1.01325	0.371	3.7264	0.629	105.874	109.6
1.01325	0.465	5.0554	0.535	104.845	109.9
1.01325	0.527	6.0592	0.473	102.141	108.2
1.01325	0.637	7.8696	0.363	101.43	109.3
1.01325	0.762	13.0696	0.238	92.3304	105.4
1.01325	0.874	19.8875	0.126	87.6125	107.5
1.01325	0.93	24.9805	0.07	81.3195	106.3
1.01325	0.967	32.6744	0.033	70.7256	103.4
1.01325	0.982	40.2212	0.018	63.9788	104.2
1.01325	1	110.7	0	0	110.7
