Adsorption isotherm of Nitrogen on Zeolite 4A
DOI: 10.1023/a:1008917308002
Article source: Figure 3
Adsorbate Nitrogen: InChIKey IJGRMHOSHXDMSA-UHFFFAOYSA-N
Kind: experiment
Temperature: 253 K
Tabular data in the source: 0
pressure (bar)	uptake (mmol/g)
0.426578	0.493
1.02338	0.918
1.45908	1.16
3.48558	1.66
3.49571	1.69
