Adsorption isotherm of Nitrogen, Methane on Zeolite 4A
DOI: 10.1023/a:1008917308002
Article source: Table 3
Adsorbate Nitrogen: InChIKey IJGRMHOSHXDMSA-UHFFFAOYSA-N
Adsorbate Methane: InChIKey VNWKTOKETHGBQD-UHFFFAOYSA-N
Kind: experiment
Temperature: 253 K
Tabular data in the source: 0
pressure (bar)	Nitrogen fraction	Nitrogen uptake (mmol/g)	Methane fraction	Methane uptake (mmol/g)	total uptake (mmol/g)
3.76422	0.783	1.244	0.217	0.776	
1.02743	0.759	0.708	0.241	0.472	
0.519797	0.774	0.46	0.226	0.263	
