Adsorption isotherm of Nitrogen, Methane on Zeolite 4A
DOI: 10.1023/a:1008917308002
Article source: Table 3
Adsorbate Nitrogen: InChIKey IJGRMHOSHXDMSA-UHFFFAOYSA-N
Adsorbate Methane: InChIKey VNWKTOKETHGBQD-UHFFFAOYSA-N
Kind: experiment
Temperature: 253 K
Tabular data in the source: 0
pressure (bar)	Nitrogen fraction	Nitrogen uptake (mmol/g)	Methane fraction	Methane uptake (mmol/g)	total uptake (mmol/g)
3.31231	0.518	0.663	0.482	1.487	
2.08324	0.505	0.55	0.495	1.259	
0.700156	0.496	0.346	0.504	0.705	
