Adsorption isotherm of Nitrogen, Methane on Zeolite 4A
DOI: 10.1023/a:1008917308002
Article source: Table 3
Adsorbate Nitrogen: InChIKey IJGRMHOSHXDMSA-UHFFFAOYSA-N
Adsorbate Methane: InChIKey VNWKTOKETHGBQD-UHFFFAOYSA-N
Kind: experiment
Temperature: 283 K
Tabular data in the source: 0
pressure (bar)	Nitrogen fraction	Nitrogen uptake (mmol/g)	Methane fraction	Methane uptake (mmol/g)	total uptake (mmol/g)
3.55853	0.48	0.447	0.52	1.227	
2.1562	0.473	0.345	0.527	0.899	
1.51886	0.468	0.282	0.532	0.705	
0.684957	0.492	0.143	0.508	0.33	
