Adsorption isotherm of Methane on Zeolite 4A
DOI: 10.1023/a:1008917308002
Article source: Figure 2
Adsorbate Methane: InChIKey VNWKTOKETHGBQD-UHFFFAOYSA-N
Kind: experiment
Temperature: 253 K
Tabular data in the source: 0
pressure (bar)	uptake (mmol/g)
0.308028	0.683
0.735619	1.28
1.45908	1.62
1.50974	1.75
3.51598	2.19
3.51598	2.11
