Adsorption isotherm of Nitrogen on Zeolite 4A
DOI: 10.1023/a:1008917308002
Article source: Figure 3
Adsorbate Nitrogen: InChIKey IJGRMHOSHXDMSA-UHFFFAOYSA-N
Kind: experiment
Temperature: 283 K
Tabular data in the source: 0
pressure (bar)	uptake (mmol/g)
1.01021	0.437
1.06391	0.456
1.40842	0.538
3.46532	1
3.48558	0.995
