Adsorption isotherm of Methane on Zeolite 4A
DOI: 10.1023/a:1008917308002
Article source: Figure 2
Adsorbate Methane: InChIKey VNWKTOKETHGBQD-UHFFFAOYSA-N
Kind: experiment
Temperature: 273 K
Tabular data in the source: 0
pressure (bar)	uptake (mmol/g)
0.515744	0.622
1.01325	1.06
1.37802	1.21
1.37802	1.23
1.41855	1.31
1.41855	1.28
1.50974	1.38
3.46532	1.94
3.50585	1.89
