Adsorption isotherm of Nitrogen on Zeolite 4A
DOI: 10.1023/a:1008917308002
Article source: Figure 3
Adsorbate Nitrogen: InChIKey IJGRMHOSHXDMSA-UHFFFAOYSA-N
Kind: experiment
Temperature: 273 K
Tabular data in the source: 0
pressure (bar)	uptake (mmol/g)
0.546142	0.356
1.0092	0.567
2.07716	0.939
2.07716	0.959
3.54638	1.23
