Adsorption isotherm of Methane on Zeolite 4A
DOI: 10.1023/a:1008917308002
Article source: Figure 2
Adsorbate Methane: InChIKey VNWKTOKETHGBQD-UHFFFAOYSA-N
Kind: experiment
Temperature: 283 K
Tabular data in the source: 0
pressure (bar)	uptake (mmol/g)
0.740686	0.629
1.33749	0.991
1.40842	1
1.40842	0.941
3.44505	1.6
3.46532	1.59
