Adsorption isotherm of Nitrogen, Methane on Zeolite 4A
DOI: 10.1023/a:1008917308002
Article source: Table 3
Adsorbate Nitrogen: InChIKey IJGRMHOSHXDMSA-UHFFFAOYSA-N
Adsorbate Methane: InChIKey VNWKTOKETHGBQD-UHFFFAOYSA-N
Kind: experiment
Temperature: 273 K
Tabular data in the source: 0
pressure (bar)	Nitrogen fraction	Nitrogen uptake (mmol/g)	Methane fraction	Methane uptake (mmol/g)	total uptake (mmol/g)
2.89992	0.762	0.762	0.238	0.577	
1.02136	0.753	0.431	0.247	0.288	
0.52993	0.751	0.254	0.249	0.165	
