Adsorption isotherm of Nitrogen, Methane on Zeolite 4A
DOI: 10.1023/a:1008917308002
Article source: Table 3
Adsorbate Nitrogen: InChIKey IJGRMHOSHXDMSA-UHFFFAOYSA-N
Adsorbate Methane: InChIKey VNWKTOKETHGBQD-UHFFFAOYSA-N
Kind: experiment
Temperature: 273 K
Tabular data in the source: 0
pressure (bar)	Nitrogen fraction	Nitrogen uptake (mmol/g)	Methane fraction	Methane uptake (mmol/g)	total uptake (mmol/g)
3.47038	0.504	0.475	0.496	1.234	
2.10857	0.497	0.395	0.503	0.95	
0.712315	0.462	0.161	0.538	0.358	
