Adsorption isotherm of N-propane on CuBTC
DOI: 10.1021/Jp401600v
Adsorbate N-propane: InChIKey ATUOYWHBWRKTHZ-UHFFFAOYSA-N
Temperature: 303 K
Tabular data in the source: 0
pressure (bar)	uptake (mmol/g)
0.00222301	0.25906
0.00592913	0.586791
0.0108437	0.914522
0.0183902	1.2204
0.0275028	1.98511
0.043253	3.18679
0.0630786	4.45402
0.101729	5.30612
0.216359	6.11452
0.437581	6.57335
1.05539	7.11956
