Adsorption isotherm of Propene on CuBTC
DOI: 10.1021/Jp401600v
Adsorbate Propene: InChIKey QQONPFPTGQHPMA-UHFFFAOYSA-N
Temperature: 303 K
Tabular data in the source: 0
pressure (bar)	uptake (mmol/g)
0.000276	0.280909
0.000648	0.652337
0.00131078	1.2204
0.00324195	2.48763
0.0126102	4.16998
0.02365	5.04393
0.0411308	6.02713
0.0811195	6.83553
0.18605	7.4036
0.591767	7.92797
0.954363	8.05906
1.22732	8.10276
