Adsorption isotherm of Hydrogen on Zeolite 5A
DOI: 10.1002/1521-4125(20021105)25:11<1060::aid-ceat1060>3.0.co;2-7
Article source: Figure 4
Adsorbate Hydrogen: InChIKey UFHFLCQGNIYNRP-UHFFFAOYSA-N
Kind: experiment
Temperature: 303 K
Tabular data in the source: 0
pressure (bar)	uptake (mmol/g)
1.28	0.0388
11.2	0.317
20.3	0.505
30.8	0.693
40.8	0.855
50.6	1.02
61	1.17
