Adsorption isotherm of Carbon monoxide on Zeolite 5A
DOI: 10.1002/1521-4125(20021105)25:11<1060::aid-ceat1060>3.0.co;2-7
Article source: Figure 4
Adsorbate Carbon monoxide: InChIKey UGFAIRIUMAVXCW-UHFFFAOYSA-N
Kind: experiment
Temperature: 303 K
Tabular data in the source: 0
pressure (bar)	uptake (mmol/g)
1.13	1.35
10	3.12
20.2	3.61
30.3	3.84
40.4	4.02
50.2	4.09
60.9	4.15
