Adsorption isotherm of Hydrogen, Carbon monoxide on Zeolite 5A
DOI: 10.1002/1521-4125(20021105)25:11<1060::aid-ceat1060>3.0.co;2-7
Article source: Figure 6
Adsorbate Hydrogen: InChIKey UFHFLCQGNIYNRP-UHFFFAOYSA-N
Adsorbate Carbon monoxide: InChIKey UGFAIRIUMAVXCW-UHFFFAOYSA-N
Kind: experiment
Temperature: 303 K
Tabular data in the source: 0
pressure (bar)	Hydrogen fraction	Hydrogen uptake (mmol/g)	Carbon monoxide fraction	Carbon monoxide uptake (mmol/g)	total uptake (mmol/g)
30	0.9296	0.505	0.0704	1.5	
30	0.741	0.288	0.259	2.7	
30	0.327	0.146	0.673	3.46	
