Adsorption isotherm of Hydrogen, Carbon monoxide on Zeolite 5A
DOI: 10.1002/1521-4125(20021105)25:11<1060::aid-ceat1060>3.0.co;2-7
Article source: Figure 5
Adsorbate Hydrogen: InChIKey UFHFLCQGNIYNRP-UHFFFAOYSA-N
Adsorbate Carbon monoxide: InChIKey UGFAIRIUMAVXCW-UHFFFAOYSA-N
Kind: experiment
Temperature: 303 K
Tabular data in the source: 0
pressure (bar)	Hydrogen fraction	Hydrogen uptake (mmol/g)	Carbon monoxide fraction	Carbon monoxide uptake (mmol/g)	total uptake (mmol/g)
5	0.7	0.0663	0.3	1.12	
10	0.7	0.107	0.3	1.76	
20	0.7	0.184	0.3	2.36	
30	0.7	0.291	0.3	2.69	
40	0.7	0.367	0.3	2.91	
50	0.7	0.541	0.3	3.06	
60	0.7	0.541	0.3	3.22	
