Adsorption isotherm of Argon on C42H58N14O6Co2
DOI: 10.1002/zaac.200800158
Adsorbate Argon: InChIKey XKRFYHLGVUSROY-UHFFFAOYSA-N
Temperature: 77 K
Tabular data in the source: 0
pressure (bar)	uptake (cm3(STP)/g)
0.00154655	342.677
0.00263518	298.416
0.00277774	200.953
0.0028555	147.792
0.00347325	425.453
0.00352941	387.059
0.0075081	466.962
0.0187616	473.313
0.0279675	479.582
0.0320585	482.697
0.0422968	483.1
0.0525308	486.457
0.0729988	493.17
0.0852848	493.654
0.100638	497.212
0.110872	500.569
0.134416	504.45
0.146697	507.887
0.158979	511.324
0.173308	514.842
0.184562	521.192
0.191711	533.288
0.210097	563.548
0.225416	590.734
0.239715	614.925
0.257103	627.425
0.2704	636.809
0.285748	643.321
0.300073	649.792
