Adsorption isotherm of Argon on C42H58N14O6Co2
DOI: 10.1002/zaac.200800158
Adsorbate Argon: InChIKey XKRFYHLGVUSROY-UHFFFAOYSA-N
Temperature: 77 K
Tabular data in the source: 0
pressure (bar)	uptake (cm3(STP)/g)
0.000950392	50.2484
0.0019051	97.5434
0.00393549	109.438
0.0121089	121.574
0.0202909	127.803
0.0284729	134.033
0.0376787	140.302
0.0438174	143.498
0.0550709	149.848
0.0704198	156.36
0.0857772	156.965
0.102154	160.563
0.117503	167.075
0.132861	167.679
0.148214	171.238
0.163571	171.842
0.178924	175.401
0.193254	178.919
0.208611	179.523
0.222936	185.995
0.239317	186.64
0.253647	190.158
0.269004	190.762
0.283334	194.28
0.298687	197.839
