Adsorption isotherm of Nitrogen, Methane on Zeolite 5A
DOI: 10.1021/la981341h
Article source: Figure 2
Adsorbate Nitrogen: InChIKey IJGRMHOSHXDMSA-UHFFFAOYSA-N
Adsorbate Methane: InChIKey VNWKTOKETHGBQD-UHFFFAOYSA-N
Kind: experiment
Temperature: 303 K
Tabular data in the source: 0
pressure (bar)	Nitrogen fraction	Nitrogen uptake (mmol/g)	Methane fraction	Methane uptake (mmol/g)	total uptake (mmol/g)
30.0935	0.99702	2.5543	0.003	0.0242	
30.0935	0.80081	1.8482	0.19975	0.9084	
30.0935	0.59714	1.2507	0.40108	1.7085	
30.0935	0.40102	0.6891	0.59792	2.4481	
30.0935	0.20047	0.2843	0.79943	2.947	
30.0935	0.00303	0.024	0.99349	3.3131	
