Adsorption isotherm of Nitrogen, Methane on Zeolite 5A
DOI: 10.1021/la981341h
Article source: Figure 2
Adsorbate Nitrogen: InChIKey IJGRMHOSHXDMSA-UHFFFAOYSA-N
Adsorbate Methane: InChIKey VNWKTOKETHGBQD-UHFFFAOYSA-N
Kind: experiment
Temperature: 303 K
Tabular data in the source: 0
pressure (bar)	Nitrogen fraction	Nitrogen uptake (mmol/g)	Methane fraction	Methane uptake (mmol/g)	total uptake (mmol/g)
6.0795	0.99409	1.3697	0.00302	0.006	
6.0795	0.8016	1.0729	0.20218	0.451	
6.0795	0.60306	0.7763	0.3983	0.9079	
6.0795	0.40301	0.4856	0.59594	1.3528	
6.0795	0.20452	0.2308	0.79366	1.738	
6.0795	0.00303	0.0059	0.999	2.0753	
