Adsorption isotherm of Nitrogen on Zeolite 5A
DOI: 10.1021/la981341h
Article source: Figure 1
Adsorbate Nitrogen: InChIKey IJGRMHOSHXDMSA-UHFFFAOYSA-N
Kind: experiment
Temperature: 303 K
Tabular data in the source: 0
pressure (bar)	uptake (mmol/g)
0.194141	0
0.553116	0
0.710095	0
0.869394	0
1.05176	0
2.12186	0
3.33439	0
4.18039	0
4.99708	0
5.90224	0
6.72692	0
8.04112	0
9.05559	0
10.198	0
11.9046	0
16.4103	0
21.8281	0
30.0896	0
40.9842	0
51.9776	0
