Adsorption isotherm of Methane on Zeolite 5A
DOI: 10.1021/la981341h
Article source: Figure 1
Adsorbate Methane: InChIKey VNWKTOKETHGBQD-UHFFFAOYSA-N
Kind: experiment
Temperature: 303 K
Tabular data in the source: 0
pressure (bar)	uptake (mmol/g)
0.142566	1111.22
0.203712	6649.67
0.294657	39783.2
0.446804	249517
0.89108	4619550
1.31952	21837400
1.95396	93950700
2.82499	368000000
4.43932	1370000000
6.11951	3060000000
7.85627	4890000000
10.2051	9020000000
12.3429	12500000000
15.8422	16600000000
21.0725	24200000000
29.7452	33600000000
40.9937	36800000000
52.6159	44400000000
