Adsorption isotherm of Nitrogen, Methane on Zeolite 5A
DOI: 10.1021/la981341h
Article source: Figure 2
Adsorbate Nitrogen: InChIKey IJGRMHOSHXDMSA-UHFFFAOYSA-N
Adsorbate Methane: InChIKey VNWKTOKETHGBQD-UHFFFAOYSA-N
Kind: experiment
Temperature: 303 K
Tabular data in the source: 0
pressure (bar)	Nitrogen fraction	Nitrogen uptake (mmol/g)	Methane fraction	Methane uptake (mmol/g)	total uptake (mmol/g)
1.01325	0.99814	0.38663	0.00149	0.00715	
1.01325	0.79942	0.30931	0.2072	0.12312	
1.01325	0.60982	0.23919	0.39018	0.23919	
1.01325	0.41411	0.15472	0.58373	0.36953	
1.01325	0.22145	0.07743	0.77882	0.49032	
1.01325	0.00152	0.00239	0.99508	0.62294	
