Adsorption isotherm of Nitrogen, Methane on Zeolite 5A
DOI: 10.1021/la981341h
Article source: Figure 3
Adsorbate Nitrogen: InChIKey IJGRMHOSHXDMSA-UHFFFAOYSA-N
Adsorbate Methane: InChIKey VNWKTOKETHGBQD-UHFFFAOYSA-N
Kind: experiment
Temperature: 303 K
Tabular data in the source: 0
pressure (bar)	Nitrogen fraction	Nitrogen uptake (mmol/g)	Methane fraction	Methane uptake (mmol/g)	total uptake (mmol/g)
0.149961	0.4	0.0109	0.6	0.0108	0
1.07151	0.4	0.1583	0.6	0.3737	0
6.07595	0.4	0.4813	0.6	1.353	0
30.1371	0.4	0.6968	0.6	2.398	0
