Adsorption isotherm of Nitrogen, Methane on Zeolite 5A
DOI: 10.1021/la981341h
Article source: Figure 3
Adsorbate Nitrogen: InChIKey IJGRMHOSHXDMSA-UHFFFAOYSA-N
Adsorbate Methane: InChIKey VNWKTOKETHGBQD-UHFFFAOYSA-N
Kind: experiment
Temperature: 303 K
Tabular data in the source: 0
pressure (bar)	Nitrogen fraction	Nitrogen uptake (mmol/g)	Methane fraction	Methane uptake (mmol/g)	total uptake (mmol/g)
0.149961	0.2	0.0109	0.8	0.0108	0
1.06847	0.2	0.0766	0.8	0.4986	0
6.06683	0.2	0.22	0.8	1.7328	0
30.052	0.2	0.2939	0.8	2.8863	0
