Adsorption isotherm of Nitrogen on WC/Co@NCNTs
DOI: 10.1016/j.ensm.2016.10.006
Article source: Figure 4
Adsorbate Nitrogen: InChIKey IJGRMHOSHXDMSA-UHFFFAOYSA-N
Kind: experiment
Temperature: 77 K
Tabular data in the source: 0
pressure (bar)	uptake (cm3(STP)/g)
0.010548	23.577
0.015158	24.799
0.032211	26.368
0.059629	27.529
0.065384	28.576
0.081737	28.981
0.099935	29.562
0.101323	30.551
0.122277	30.258
0.140018	30.954
0.141639	32.35
0.165126	31.708
0.180791	32.521
0.194378	33.567
0.200599	34.032
0.205453	36.01
0.251058	38.566
0.251737	36.18
0.304972	41.702
0.308407	38.793
0.353779	40.126
0.354499	43.967
0.40745	42.041
0.408392	46.463
0.457473	49.775
0.460199	44.364
0.507193	46.163
0.507304	66.179
0.55524	72.808
0.556253	48.602
0.609701	51.157
0.610532	76.177
0.660069	79.43
0.663605	53.944
0.707528	83.848
0.713598	57.14
0.758909	88.556
0.765434	61.44
0.812671	65.276
0.812844	95.708
0.831801	68.707
0.835672	101.291
0.861266	106.235
0.867072	74.522
0.886647	114.146
0.887833	80.223
0.910174	121.94
0.914136	88.715
0.937673	98.023
0.937876	132.818
0.96419	144.511
0.964494	115.709
0.988487	164.234
0.989277	140.378
0.993705	150.502
0.997505	170.925
1.00465	171.099
1.00547	193.5
1.00665	199.435
