Adsorption isotherm of Carbon Dioxide on Sod-ZMOF
DOI: 10.1016/j.matlet.2013.05.078
Adsorbate Carbon Dioxide: InChIKey CURLTUGMZLYLDI-UHFFFAOYSA-N
Temperature: 298 K
Tabular data in the source: 0
pressure (bar)	uptake (mg/g)
0.00702701	0.0996587
0.0281538	3.156
0.0689988	8.87431
0.109844	13.9025
0.154914	17.9447
0.192943	21.1982
0.273224	26.7194
0.315478	29.8743
0.363365	32.5363
0.421112	35.0011
0.483083	37.4659
0.602802	41.8039
0.718295	45.5504
0.829562	48.3109
0.932379	50.7757
1.02956	52.4518
