Adsorption isotherm of Nitrogen on Sod-ZMOF
DOI: 10.1016/j.matlet.2013.05.078
Adsorbate Nitrogen: InChIKey IJGRMHOSHXDMSA-UHFFFAOYSA-N
Temperature: 77 K
Tabular data in the source: 0
pressure (bar)	uptake (cm3(STP)/g)
0.00515504	56.5802
0.00658518	0.804628
0.00801532	22.3998
0.00801532	39.5615
0.00801532	86.6132
0.0266072	89.6165
0.0566402	92.0478
0.0838129	93.6209
0.185353	95.6231
0.25114	95.9091
0.319786	96.4812
0.435628	97.4823
0.532878	98.1974
0.640139	99.1985
0.733098	100.057
0.837498	100.486
0.937608	101.201
0.989093	101.63
1.02771	101.916
