Adsorption isotherm of Nitrogen on ED-sod-ZMOF
DOI: 10.1016/j.matlet.2013.05.078
Adsorbate Nitrogen: InChIKey IJGRMHOSHXDMSA-UHFFFAOYSA-N
Temperature: 77 K
Tabular data in the source: 0
pressure (bar)	uptake (cm3(STP)/g)
0.00515504	0.661614
0.00515504	19.5395
0.00658518	36.9872
0.00658518	54.721
0.00801532	71.1677
0.0108756	77.4603
0.0280373	80.7496
0.05521	83.4669
0.120997	85.4691
0.226827	87.0423
0.322647	87.9003
0.447069	89.0444
0.544319	89.7595
0.645859	90.3316
0.747399	90.6176
0.841789	91.3327
0.946189	92.1908
0.986233	93.7639
1.02056	94.336
