Adsorption isotherm of Carbon Dioxide on ED-sod-ZMOF
DOI: 10.1016/j.matlet.2013.05.078
Adsorbate Carbon Dioxide: InChIKey CURLTUGMZLYLDI-UHFFFAOYSA-N
Temperature: 298 K
Tabular data in the source: 0
pressure (bar)	uptake (mg/g)
0.0239284	4.93064
0.0774495	14.3954
0.12252	21.1982
0.166182	26.4236
0.223928	32.4377
0.2859	37.8602
0.347872	42.987
0.401393	46.2405
0.466182	49.987
0.530971	53.5363
0.588717	55.8039
0.712661	60.1419
0.768999	61.9166
0.943647	66.7475
1.04224	68.9166
