Adsorption isotherm of Nitrogen on Ni(II)-doped MOF-5 (C2H5OH:DMF volume 2:8)
DOI: 10.1016/j.micromeso.2014.01.020
Adsorbate Nitrogen: InChIKey IJGRMHOSHXDMSA-UHFFFAOYSA-N
Temperature: 77 K
Tabular data in the source: 0
pressure (bar)	uptake (cm3(STP)/g)
0.159338	598.595
0.201385	602.736
0.254498	606.853
0.300972	610.985
0.351872	615.106
0.402772	614.996
0.451458	617.006
0.500144	619.016
0.546618	621.031
0.597518	620.921
0.646205	627.164
0.896277	632.968
0.956029	632.838
0.97595	634.911
