Adsorption isotherm of Nitrogen on Ni(II)-doped MOF-5 (.4 mM)
DOI: 10.1016/j.micromeso.2014.01.020
Adsorbate Nitrogen: InChIKey IJGRMHOSHXDMSA-UHFFFAOYSA-N
Temperature: 77 K
Tabular data in the source: 0
pressure (bar)	uptake (cm3(STP)/g)
0.0558807	592.766
0.0748881	598.307
0.155679	616.808
0.196871	624.225
0.249164	627.994
0.295118	631.75
0.345825	635.516
0.396534	639.281
0.445664	639.374
0.493203	643.133
0.54233	645.061
0.591457	646.989
0.637413	648.91
0.68654	650.838
0.737249	654.603
0.783205	656.525
0.830752	656.615
0.879875	660.377
0.930583	664.143
0.960691	666.035
0.971773	673.395
