Adsorption isotherm of Nitrogen on Ni(II)-doped MOF-5
DOI: 10.1016/j.micromeso.2014.01.020
Adsorbate Nitrogen: InChIKey IJGRMHOSHXDMSA-UHFFFAOYSA-N
Temperature: 77 K
Tabular data in the source: 0
pressure (bar)	uptake (cm3(STP)/g)
0.00221303	0.0022779
0.00442606	120.625
0.00663909	228.557
0.00885212	253.949
0.0177042	385.147
0.0265564	395.709
0.0398346	402.03
0.119504	431.486
0.163764	437.738
0.199172	439.778
0.247859	443.904
0.298759	450.143
0.345233	454.274
0.393919	454.168
0.447032	458.285
0.491293	460.305
0.544405	464.423
0.590878	464.321
0.639565	468.448
0.686039	468.347
0.732512	474.595
0.783412	476.6
0.829886	484.965
0.878573	497.557
0.913981	508.062
0.929473	518.61
0.944964	533.391
0.951603	546.075
0.953816	552.42
0.960454	569.336
0.964881	601.073
