Adsorption isotherm of Nitrogen on Ni(II)-doped MOF-5 (1.2 mM)
DOI: 10.1016/j.micromeso.2014.01.020
Adsorbate Nitrogen: InChIKey IJGRMHOSHXDMSA-UHFFFAOYSA-N
Temperature: 77 K
Tabular data in the source: 0
pressure (bar)	uptake (cm3(STP)/g)
0.00559061	377.992
0.00859675	460.567
0.00862219	447.723
0.0087058	405.521
0.00872034	398.182
0.00874579	385.338
0.0101671	467.909
0.0102434	429.377
0.0102689	416.533
0.0116865	500.94
0.0117083	489.93
0.0117264	480.756
0.0148307	513.789
0.0164047	519.297
0.0195489	532.147
0.0242781	545
0.0337545	561.532
0.0464116	572.565
0.065408	583.61
0.084419	587.315
0.0923324	592.835
0.105008	594.694
0.120849	598.393
0.128769	600.243
0.144619	600.273
0.190565	607.699
0.233348	611.45
0.282471	615.212
0.33001	618.972
0.377548	622.731
0.423505	624.653
0.469452	632.079
0.515416	630.331
0.562958	632.256
0.612078	637.853
0.658035	639.775
0.703995	639.862
0.749956	639.949
0.800668	641.879
0.848207	645.639
0.898918	647.569
0.933781	649.47
