Adsorption isotherm of Nitrogen on Ni(II)-doped MOF-5 (.4 mM)
DOI: 10.1016/j.micromeso.2014.01.020
Adsorbate Nitrogen: InChIKey IJGRMHOSHXDMSA-UHFFFAOYSA-N
Temperature: 77 K
Tabular data in the source: 0
pressure (bar)	uptake (cm3(STP)/g)
0.0258048	574.361
0.0479673	587.247
0.0685559	594.625
0.0843826	605.664
0.0986423	607.526
0.108149	609.379
0.119235	613.069
0.136665	614.937
0.144585	616.787
0.188954	620.54
0.234904	626.132
0.28402	633.564
0.331562	635.489
0.375935	637.407
0.423473	641.167
0.471011	644.926
0.520138	646.854
0.566095	648.776
0.613637	650.7
0.658013	650.784
0.705552	654.544
0.754679	656.471
0.799054	656.555
0.849762	660.321
0.914741	660.443
0.946431	664.173
