Adsorption isotherm of Nitrogen on Ni(II)-doped MOF-5 (.8 mM)
DOI: 10.1016/j.micromeso.2014.01.020
Adsorbate Nitrogen: InChIKey IJGRMHOSHXDMSA-UHFFFAOYSA-N
Temperature: 77 K
Tabular data in the source: 0
pressure (bar)	uptake (cm3(STP)/g)
0.00687013	532.123
0.00843317	543.135
0.0115629	563.325
0.0130641	605.529
0.0130969	589.016
0.0131186	578.006
0.0177896	620.217
0.0225152	634.905
0.0304103	649.599
0.0478001	671.65
0.0667966	682.695
0.0794681	686.389
0.0953058	691.923
0.11114	699.292
0.123811	702.986
0.144411	704.86
0.185606	710.442
0.229968	717.866
0.280679	719.796
0.328214	725.391
0.369417	727.303
0.416955	731.063
0.464501	731.153
0.510454	734.909
0.559578	738.672
0.60395	740.59
0.656246	742.524
0.695868	742.599
0.748165	744.532
0.794118	748.289
0.84166	750.213
0.889206	750.303
0.935159	754.06
