Adsorption isotherm of Nitrogen on Ni(II)-doped MOF-5 (C2H5OH:DMF volume 4:6)
DOI: 10.1016/j.micromeso.2014.01.020
Adsorbate Nitrogen: InChIKey IJGRMHOSHXDMSA-UHFFFAOYSA-N
Temperature: 77 K
Tabular data in the source: 0
pressure (bar)	uptake (cm3(STP)/g)
0.00221303	391.53
0.00442606	402.107
0.00663909	433.848
0.00885212	414.796
0.0110651	501.563
0.0132782	512.14
0.0154912	533.3
0.0243433	543.862
0.0287694	562.9
0.0331955	552.309
0.0442606	567.099
0.0663909	583.982
0.0818821	588.181
0.0907342	590.279
0.104013	594.482
0.12393	600.788
0.139421	602.871
0.185895	609.119
0.232368	613.25
0.276629	617.387
0.325315	621.514
0.369576	623.534
0.418263	627.66
0.473589	633.889
0.51121	635.923
0.55547	640.06
0.60637	642.065
0.648418	646.207
0.699318	650.328
0.75243	650.213
0.812182	656.432
0.86972	664.772
0.916194	675.253
0.929473	683.689
0.938324	696.369
0.944964	706.936
0.951603	711.154
0.962668	725.945
