Adsorption isotherm of Nitrogen on Ni(II)-doped MOF-5 (C2H5OH:DMF volume 3:7)
DOI: 10.1016/j.micromeso.2014.01.020
Adsorbate Nitrogen: InChIKey IJGRMHOSHXDMSA-UHFFFAOYSA-N
Temperature: 77 K
Tabular data in the source: 0
pressure (bar)	uptake (cm3(STP)/g)
0.0309825	493.054
0.0464736	505.719
0.0730299	509.894
0.154912	524.53
0.199172	530.783
0.247859	534.91
0.298759	539.032
0.347446	541.042
0.393919	540.941
0.442606	540.835
0.495719	547.068
0.544405	551.195
0.593092	551.089
0.643991	553.094
0.690465	555.11
0.732512	557.134
0.785625	554.902
0.836525	561.141
0.885212	561.035
0.933899	565.161
0.964881	567.21
