Adsorption isotherm of Nitrogen on Ni(II)-doped MOF-5 (.8 mM)
DOI: 10.1016/j.micromeso.2014.01.020
Adsorbate Nitrogen: InChIKey IJGRMHOSHXDMSA-UHFFFAOYSA-N
Temperature: 77 K
Tabular data in the source: 0
pressure (bar)	uptake (cm3(STP)/g)
0.00469641	29.3667
0.00750989	209.188
0.0103779	361.487
0.0131296	572.502
0.0383165	658.788
0.0557172	675.335
0.100057	693.767
0.120649	699.31
0.134909	701.172
0.15392	704.878
0.201451	712.307
0.252155	717.907
0.301279	721.67
0.342478	725.417
0.39319	727.348
0.439146	729.27
0.488273	731.197
0.542148	736.804
0.586524	736.888
0.640398	742.494
0.686355	744.416
0.735482	746.343
0.781443	746.43
0.952593	754.093
0.968431	759.627
