Adsorption isotherm of Nitrogen on Ni(II)-doped MOF-5 (C2H5OH:DMF volume 2:8)
DOI: 10.1016/j.micromeso.2014.01.020
Adsorbate Nitrogen: InChIKey IJGRMHOSHXDMSA-UHFFFAOYSA-N
Temperature: 77 K
Tabular data in the source: 0
pressure (bar)	uptake (cm3(STP)/g)
0.0951603	583.92
0.112864	588.114
0.137208	588.061
0.181468	600.663
0.230155	602.673
0.278842	606.8
0.320889	610.941
0.371789	610.83
0.41605	617.083
0.466949	619.089
0.508997	618.997
0.557684	623.124
0.601944	625.144
0.652844	625.033
0.699318	629.164
0.745791	631.18
0.792265	628.962
0.843165	630.967
0.885212	630.876
0.936112	634.998
