Adsorption isotherm of Nitrogen on Ni(II)-doped MOF-5 (C2H5OH:DMF volume 3:7)
DOI: 10.1016/j.micromeso.2014.01.020
Adsorbate Nitrogen: InChIKey IJGRMHOSHXDMSA-UHFFFAOYSA-N
Temperature: 77 K
Tabular data in the source: 0
pressure (bar)	uptake (cm3(STP)/g)
0.0199172	480.38
0.0287694	497.292
0.0464736	501.486
0.0686039	509.903
0.0796691	514.112
0.0951603	516.195
0.110651	520.394
0.119504	524.607
0.132782	524.578
0.150486	528.773
0.188108	530.807
0.232368	534.944
0.278842	539.075
0.325315	543.207
0.374002	545.217
0.422689	547.227
0.469163	547.126
0.515636	551.258
0.564323	553.268
0.610797	555.283
0.65727	555.182
0.708169	557.187
0.754643	559.203
0.801116	561.218
0.84759	565.349
0.894064	563.132
