Adsorption isotherm of Nitrogen on Ni(II)-doped MOF-5 (C2H5OH:DMF volume 1:9)
DOI: 10.1016/j.micromeso.2014.01.020
Adsorbate Nitrogen: InChIKey IJGRMHOSHXDMSA-UHFFFAOYSA-N
Temperature: 77 K
Tabular data in the source: 0
pressure (bar)	uptake (cm3(STP)/g)
0.0110651	0.0113895
0.0154912	573.511
0.0221303	581.962
0.0265564	596.768
0.0464736	615.772
0.0663909	626.31
0.0796691	630.514
0.0929473	634.718
0.0973735	634.709
0.117291	638.898
0.12393	641
0.143847	645.189
0.188108	651.442
0.236794	655.569
0.281055	661.822
0.329742	665.948
0.376215	667.964
0.422689	672.095
0.471376	674.105
0.517849	680.353
0.56211	682.373
0.608583	684.389
0.659482	686.394
0.699318	686.307
0.754643	686.187
0.796691	688.212
0.845377	692.338
0.891851	694.353
