Adsorption isotherm of Nitrogen on Ni(II)-doped MOF-5 (C2H5OH:DMF volume 4:6)
DOI: 10.1016/j.micromeso.2014.01.020
Adsorbate Nitrogen: InChIKey IJGRMHOSHXDMSA-UHFFFAOYSA-N
Temperature: 77 K
Tabular data in the source: 0
pressure (bar)	uptake (cm3(STP)/g)
0.0376215	558.648
0.0553257	569.192
0.199172	611.206
0.252285	615.323
0.303185	619.445
0.351872	623.572
0.396132	623.476
0.447032	627.598
0.495719	633.841
0.551044	635.837
0.590878	633.633
0.643991	639.867
0.690465	643.999
0.748004	648.106
0.792265	650.126
0.836525	652.146
0.87636	656.292
0.922833	668.889
0.94939	681.53
0.962668	700.548
0.969307	715.349
0.97152	736.508
