Adsorption isotherm of Nitrogen on Ni(II)-doped MOF-5
DOI: 10.1016/j.micromeso.2014.01.020
Adsorbate Nitrogen: InChIKey IJGRMHOSHXDMSA-UHFFFAOYSA-N
Temperature: 77 K
Tabular data in the source: 0
pressure (bar)	uptake (cm3(STP)/g)
0.00221303	273.011
0.00442606	279.355
0.00663909	306.864
0.00885212	332.256
0.0132782	374.574
0.0199172	389.375
0.0331955	402.044
0.0486867	412.592
0.0619648	423.145
0.0796691	425.223
0.0907342	427.316
0.104013	429.403
0.110651	429.389
0.128355	435.699
0.139421	435.675
0.188108	439.802
0.234581	446.05
0.281055	450.181
0.331955	454.303
0.378428	456.318
0.422689	460.455
0.455884	460.383
0.484653	483.6
0.522275	496.217
0.566536	500.353
0.615222	504.48
0.663909	508.607
0.708169	510.627
0.761282	516.86
0.812182	523.098
0.865295	531.448
0.911769	546.162
0.933899	556.696
0.944964	571.486
0.953816	584.166
