Adsorption isotherm of Nitrogen on Ni(II)-doped MOF-5 (1.2 mM)
DOI: 10.1016/j.micromeso.2014.01.020
Adsorbate Nitrogen: InChIKey IJGRMHOSHXDMSA-UHFFFAOYSA-N
Temperature: 77 K
Tabular data in the source: 0
pressure (bar)	uptake (cm3(STP)/g)
0.00448194	137.623
0.00471095	22.0272
0.00721182	359.647
0.0075317	198.179
0.00776071	82.5835
0.00896388	275.246
0.00902204	245.889
0.0120355	324.793
0.0258811	535.829
0.0290327	545.009
0.0432673	559.715
0.0511806	565.234
0.0765165	576.291
0.093939	581.829
0.105029	583.685
0.117701	587.378
0.128791	589.234
0.144629	594.769
0.162062	594.801
0.204835	604.057
0.255544	607.822
0.296746	609.735
0.347451	615.335
0.393404	619.092
0.444116	621.022
0.496409	624.791
0.542366	626.712
0.59149	630.475
0.639031	632.4
0.688158	634.327
0.734108	639.919
0.787989	641.855
0.833947	643.777
0.883084	640.2
0.929031	647.626
0.951215	649.503
0.968638	655.04
