Adsorption isotherm of Nitrogen on Ni(II)-doped MOF-5 (C2H5OH:DMF volume 1:9)
DOI: 10.1016/j.micromeso.2014.01.020
Adsorbate Nitrogen: InChIKey IJGRMHOSHXDMSA-UHFFFAOYSA-N
Temperature: 77 K
Tabular data in the source: 0
pressure (bar)	uptake (cm3(STP)/g)
0.0243433	586.19
0.0531127	615.757
0.137208	643.087
0.157125	649.393
0.201385	651.413
0.247859	657.661
0.294333	659.676
0.345233	665.915
0.396132	667.92
0.440393	669.94
0.491293	674.062
0.542193	680.3
0.590878	682.311
0.639565	682.205
0.686039	684.22
0.734726	688.347
0.785625	688.236
0.836525	690.241
0.882999	694.373
0.967094	696.306
