Adsorption isotherm of Nitrogen on [Ni(INAIP)(DMF)]*0.5DMF
DOI: 10.1007/s11243-013-9744-2
Adsorbate Nitrogen: InChIKey IJGRMHOSHXDMSA-UHFFFAOYSA-N
Temperature: 273 K
Tabular data in the source: 0
pressure (bar)	uptake (cm3(STP)/g)
0.00515504	0.330807
0.00658518	3.83466
0.00658518	9.98427
0.0137359	14.7037
0.035188	19.6377
0.075232	23.3561
0.122427	26.5024
0.166761	29.3627
0.259721	31.6509
0.3584	34.4397
0.45851	36.5134
0.55862	38.6586
0.661591	40.5178
0.711646	41.7334
0.806035	43.8787
0.901855	45.0228
0.95906	46.0954
1.00053	46.4529
