Adsorption isotherm of Nitrogen on [Ni(INAIP)(H2O)]*2H2O
DOI: 10.1007/s11243-013-9744-2
Adsorbate Nitrogen: InChIKey IJGRMHOSHXDMSA-UHFFFAOYSA-N
Temperature: 273 K
Tabular data in the source: 0
pressure (bar)	uptake (cm3(STP)/g)
0.00984391	0.296232
0.0112524	1.94412
0.0168862	3.63426
0.0253369	5.70468
0.035196	7.90187
0.0563228	10.6906
0.0746326	12.6343
0.112661	15.3807
0.142238	17.2821
0.205619	19.6906
0.297168	21.7188
0.397168	23.1976
0.501393	24.0005
0.602802	24.6343
0.749281	25.5216
0.86759	25.8596
0.92252	25.9441
0.983083	26.2821
