Adsorption isotherm of Carbon Dioxide on [Ni(INAIP)(H2O)]*2H2O
DOI: 10.1007/s11243-013-9744-2
Adsorbate Carbon Dioxide: InChIKey CURLTUGMZLYLDI-UHFFFAOYSA-N
Temperature: 273 K
Tabular data in the source: 0
pressure (bar)	uptake (cm3(STP)/g)
0.00561856	0.253978
0.0309707	0.422993
0.0591397	0.592007
0.091534	0.676514
0.146464	0.63426
0.273224	0.761021
0.425337	0.845528
0.470407	0.887781
0.571816	1.01454
0.671816	1.0568
0.72252	1.22581
0.819703	1.39482
0.868999	1.52158
0.912661	1.73285
0.960548	2.02863
0.998576	2.15539
