Adsorption isotherm of Carbon Dioxide on [Ni(INAIP)(DMF)]*0.5DMF
DOI: 10.1007/s11243-013-9744-2
Adsorbate Carbon Dioxide: InChIKey CURLTUGMZLYLDI-UHFFFAOYSA-N
Temperature: 273 K
Tabular data in the source: 0
pressure (bar)	uptake (cm3(STP)/g)
0.00658518	0.545328
0.0308976	1.18889
0.065221	1.47492
0.0923938	1.54643
0.143879	1.54643
0.272592	1.97547
0.425617	2.2615
0.522867	2.33301
0.624407	2.69054
0.681613	2.97657
0.727377	3.04808
0.827487	3.62014
0.924737	4.83576
0.964781	5.40781
1.00482	7.48152
