Adsorption isotherm of Water on 1,2-(4-bipyridyl)ethylene
DOI: 10.1016/j.polymer.2013.09.001
Adsorbate Water: InChIKey XLYOFNOQVPJJNP-UHFFFAOYSA-N
Temperature: 200 K
Tabular data in the source: 0
pressure (bar)	uptake (wt%)
0.591557	0.204918
8.29128	0.0163934
13.8823	0.0163934
20.4454	0.139344
30.0999	0.368852
33.3832	0.459016
40.9149	0.655738
50.9572	0.918033
60.8087	1.21311
64.6715	1.31967
71.2402	1.53279
76.6538	1.77049
83.4322	2.2459
85.3791	2.54098
