Adsorption isotherm of Water on 1,2-(4-bipyridyl)ethylene
DOI: 10.1016/j.polymer.2013.09.001
Adsorbate Water: InChIKey XLYOFNOQVPJJNP-UHFFFAOYSA-N
Temperature: 200 K
Tabular data in the source: 0
pressure (bar)	uptake (wt%)
3.87699	0.327869
11.9882	0.540984
21.2497	0.655738
30.5076	0.713115
41.1325	1.04098
50.7818	1.18852
60.8245	1.45902
70.2947	1.81967
77.4492	2.14754
85.1864	2.54098
