Adsorption isotherm of Water on 4,4'-bipyridyl
DOI: 10.1016/j.polymer.2013.09.001
Adsorbate Water: InChIKey XLYOFNOQVPJJNP-UHFFFAOYSA-N
Temperature: 200 K
Tabular data in the source: 0
pressure (bar)	uptake (wt%)
1.17153	0.229508
7.94151	0.57377
20.104	0.827869
30.7167	0.967213
40.9428	1.09016
51.1678	1.19672
61.5856	1.30328
64.672	1.32787
71.0385	1.39344
84.7523	1.78689
