Adsorption isotherm of Water on 4,4'-bipyridyl
DOI: 10.1016/j.polymer.2013.09.001
Adsorbate Water: InChIKey XLYOFNOQVPJJNP-UHFFFAOYSA-N
Temperature: 200 K
Tabular data in the source: 0
pressure (bar)	uptake (wt%)
1.1573	0.00819672
10.037	0.180328
20.4653	0.45082
40.9323	0.92623
51.1558	1.0082
60.9989	1.17213
70.8404	1.31148
81.6586	1.64754
84.559	1.77869
