Adsorption isotherm of Nitrogen on UiO-66
DOI: 10.1007/s10934-015-0067-x
Article source: Figure 2
Adsorbate Nitrogen: InChIKey IJGRMHOSHXDMSA-UHFFFAOYSA-N
Kind: experiment
Temperature: 77 K
Tabular data in the source: 0
pressure (bar)	uptake (cm3(STP)/g)
0.001616	12.049
0.002646	37.202
0.002766	28.106
0.002773	28.842
0.003057	47.046
0.003264	53.524
0.00422	71.584
0.00426	133.881
0.004268	130.468
0.004295	81.103
0.0043	87.436
0.004307	96.991
0.004319	111.323
0.004342	140.059
0.004354	154.391
0.004361	181.622
0.004369	173.5
0.004552	64.852
0.004851	188.483
0.005129	198.11
0.005817	217.69
0.007373	228.945
0.008995	240.115
0.009939	241.721
0.020512	256.596
0.031752	265.717
0.042114	269.626
0.052542	272.051
0.077567	275.598
0.09573	276.721
0.104543	278.169
0.118736	278.35
0.131382	279.653
0.144028	280.16
0.158693	281.029
0.170532	281.356
0.182909	281.826
0.193335	282.189
0.208268	282.696
0.218022	283.311
0.233493	283.782
0.244256	284.217
0.259593	284.217
0.268808	284.796
0.286163	285.159
0.295109	285.557
0.312627	285.985
0.344663	286.716
0.362205	287.081
0.395174	287.766
0.413141	288.405
0.445599	288.725
0.464752	288.999
0.495459	290.197
0.517242	290.542
0.544363	291.175
0.567321	291.693
0.595937	292.268
0.618146	292.728
0.645694	293.017
0.669846	293.428
0.696797	294.432
0.721037	295.16
0.747405	295.668
0.771351	296.32
0.798392	297.044
0.822608	297.696
0.852878	299
0.872924	300.014
0.911804	302.693
0.920549	302.332
0.96078	311.308
0.966024	308.486
0.987421	316.448
0.992813	329.26
1.00654	339.756
