Adsorption isotherm of Hydrogen on ZIF-4
DOI: 10.1016/j.micromeso.2011.01.029
Adsorbate Hydrogen: InChIKey UFHFLCQGNIYNRP-UHFFFAOYSA-N
Temperature: 298 K
Tabular data in the source: 0
pressure (bar)	uptake (cm3(STP)/cm3)
5.20966	0.752827
10.1652	2.04768
20.5845	3.41774
31.0038	4.8556
40.7878	5.75022
50.953	6.78095
60.6099	7.53981
70.3939	8.77342
79.5426	8.92141
89.0724	9.27332
93.6468	9.55071
