Adsorption isotherm of Methane on ZIF-4
DOI: 10.1016/j.micromeso.2011.01.029
Adsorbate Methane: InChIKey VNWKTOKETHGBQD-UHFFFAOYSA-N
Temperature: 298 K
Tabular data in the source: 0
pressure (bar)	uptake (cm3(STP)/cm3)
0.555772	0.423729
7.65889	0.423729
20.9068	1.90678
30.6024	3.81356
40.9762	9.11017
51.8894	19.0678
68.7897	44.9153
79.2935	54.661
86.6698	54.661
90.4989	51.6949
94.1958	45.7627
98.309	35.3814
102.571	16.5254
