Adsorption isotherm of Nitrogen on ZIF-8
DOI: 10.1016/j.micromeso.2011.01.029
Adsorbate Nitrogen: InChIKey IJGRMHOSHXDMSA-UHFFFAOYSA-N
Temperature: 298 K
Tabular data in the source: 0
pressure (bar)	uptake (cm3(STP)/cm3)
0.147401	0.269713
23.8439	0.443907
34.1175	0.807658
40.9665	1.05016
51.6522	2.22305
58.9151	4.35576
65.4969	8.78854
72.3559	15.3823
76.0632	21.043
82.9343	35.2043
86.7828	43.5671
89.9465	51.9326
96.6812	66.4999
100.66	70.5378
