Adsorption isotherm of Methane on ZIF-5
DOI: 10.1016/j.micromeso.2011.01.029
Adsorbate Methane: InChIKey VNWKTOKETHGBQD-UHFFFAOYSA-N
Temperature: 298 K
Tabular data in the source: 0
pressure (bar)	uptake (cm3(STP)/cm3)
0.555772	0.423729
7.65889	0.423729
19.8158	0.635593
31.7005	0.211864
43.4452	2.11864
55.1858	6.77966
63.6456	13.1356
71.6872	25.2119
79.5878	40.2542
87.3544	53.6017
91.995	56.1441
97.0494	55.9322
102.662	47.8814
