Adsorption isotherm of Hydrogen on ZIF-9
DOI: 10.1016/j.micromeso.2011.01.029
Adsorbate Hydrogen: InChIKey UFHFLCQGNIYNRP-UHFFFAOYSA-N
Temperature: 298 K
Tabular data in the source: 0
pressure (bar)	uptake (cm3(STP)/cm3)
0.889454	0.475782
7.87802	4.48526
14.9936	7.74914
28.5896	13.6659
42.1855	18.7691
55.6544	22.7873
68.2338	26.7366
74.8412	28.2371
81.0673	29.737
87.4206	31.305
93.6468	32.6016
