Adsorption isotherm of Nitrogen on ZIF-9
DOI: 10.1016/j.micromeso.2011.01.029
Adsorbate Nitrogen: InChIKey IJGRMHOSHXDMSA-UHFFFAOYSA-N
Temperature: 298 K
Tabular data in the source: 0
pressure (bar)	uptake (cm3(STP)/cm3)
0.147401	0.269713
13.4341	0.486113
27.4069	1.51054
34.2579	2.96925
44.6737	6.7108
51.6661	11.0068
55.5084	15.4507
65.8036	29.463
75.6924	46.3147
82.8308	56.2858
90.3745	62.7417
93.7999	63.4035
97.3618	63.7944
100.647	62.1595
