Adsorption isotherm of Carbon Dioxide on ZIF-8
DOI: 10.1016/j.micromeso.2011.01.029
Adsorbate Carbon Dioxide: InChIKey CURLTUGMZLYLDI-UHFFFAOYSA-N
Temperature: 298 K
Tabular data in the source: 0
pressure (bar)	uptake (cm3(STP)/cm3)
0.264302	0.338409
3.82156	-5.68e-14
16.0188	0.338409
31.5197	1.35364
51.4718	9.81387
59.6105	22.335
67.2519	53.4687
79.8777	135.025
86.5023	165.482
91.0819	175.296
95.3935	161.421
