Adsorption isotherm of Nitrogen on ZIF-2
DOI: 10.1016/j.micromeso.2011.01.029
Adsorbate Nitrogen: InChIKey IJGRMHOSHXDMSA-UHFFFAOYSA-N
Temperature: 298 K
Tabular data in the source: 0
pressure (bar)	uptake (cm3(STP)/cm3)
0.147401	0.269713
37.6798	1.46889
41.5156	1.85874
47.9544	2.50831
54.6701	5.04865
58.5087	7.19525
61.7995	9.34407
68.6592	16.3433
75.9378	28.3408
82.6754	44.6648
90.2369	62.3368
93.5352	69.2154
96.5561	73.9328
100.528	73.7816
