Adsorption isotherm of Hydrogen on ZIF-2
DOI: 10.1016/j.micromeso.2011.01.029
Adsorbate Hydrogen: InChIKey UFHFLCQGNIYNRP-UHFFFAOYSA-N
Temperature: 298 K
Tabular data in the source: 0
pressure (bar)	uptake (cm3(STP)/cm3)
5.84498	2.17742
11.1817	4.08296
21.8551	7.28387
31.8933	10.3483
40.9149	12.9368
51.3342	15.3916
61.1182	17.5744
70.648	19.6212
79.5426	21.8706
88.5642	23.3065
93.3926	24.3978
