Adsorption isotherm of Hydrogen on ZIF-5
DOI: 10.1016/j.micromeso.2011.01.029
Adsorbate Hydrogen: InChIKey UFHFLCQGNIYNRP-UHFFFAOYSA-N
Temperature: 298 K
Tabular data in the source: 0
pressure (bar)	uptake (cm3(STP)/cm3)
7.36976	0.484569
15.2478	1.30881
29.0978	2.20895
41.8043	3.03973
48.5388	3.52344
55.0191	3.80342
62.1347	4.35544
68.4879	4.63524
80.6861	5.39754
87.2935	5.67769
94.155	5.95818
