Adsorption isotherm of Methane on ZIF-9
DOI: 10.1016/j.micromeso.2011.01.029
Adsorbate Methane: InChIKey VNWKTOKETHGBQD-UHFFFAOYSA-N
Temperature: 298 K
Tabular data in the source: 0
pressure (bar)	uptake (cm3(STP)/cm3)
0.555772	0.423729
7.79331	1.90678
19.8093	5.08475
27.588	10.1695
31.8166	14.1949
39.5875	24.5763
55.1193	52.1186
63.0278	61.8644
71.2115	70.1271
79.9486	73.7288
89.7827	74.3644
97.028	70.5508
102.64	62.7119
