Adsorption isotherm of Carbon Dioxide on ZIF-9
DOI: 10.1016/j.micromeso.2011.01.029
Adsorbate Carbon Dioxide: InChIKey CURLTUGMZLYLDI-UHFFFAOYSA-N
Temperature: 298 K
Tabular data in the source: 0
pressure (bar)	uptake (cm3(STP)/cm3)
0.264302	0.338409
3.82275	2.03046
8.14312	3.04569
19.8355	9.13706
35.474	28.088
47.5554	47.7157
55.439	58.5448
63.7021	66.6667
76.1578	74.4501
86.3235	77.1574
95.4677	71.066
