Adsorption isotherm of Carbon Dioxide on ZIF-5
DOI: 10.1016/j.micromeso.2011.01.029
Adsorbate Carbon Dioxide: InChIKey CURLTUGMZLYLDI-UHFFFAOYSA-N
Temperature: 298 K
Tabular data in the source: 0
pressure (bar)	uptake (cm3(STP)/cm3)
0.264302	0.338409
35.5872	4.39932
43.3393	7.78342
51.2209	15.2284
59.3594	27.4112
71.0614	50.0846
76.1487	58.8832
79.5816	63.2826
81.8702	65.9898
87.8428	68.0203
92.2886	66.3283
95.0792	58.5448
