Adsorption isotherm of Nitrogen on ZIF-5
DOI: 10.1016/j.micromeso.2011.01.029
Adsorbate Nitrogen: InChIKey IJGRMHOSHXDMSA-UHFFFAOYSA-N
Temperature: 298 K
Tabular data in the source: 0
pressure (bar)	uptake (cm3(STP)/cm3)
0.147401	0.269713
23.8439	0.443907
33.9794	0.132543
40.9654	0.374488
47.9512	0.4813
55.3487	1.12698
62.1992	2.31542
68.7769	4.18064
71.9285	4.97868
76.4535	8.06844
86.6012	15.4597
93.3251	23.1352
96.6167	25.8245
100.729	27.97
