Adsorption isotherm of Methane on ZIF-2
DOI: 10.1016/j.micromeso.2011.01.029
Adsorbate Methane: InChIKey VNWKTOKETHGBQD-UHFFFAOYSA-N
Temperature: 298 K
Tabular data in the source: 0
pressure (bar)	uptake (cm3(STP)/cm3)
0.555772	0.423729
7.65889	0.423729
19.5426	0.635593
33.3366	2.33051
41.6654	4.87288
53.8077	15.0424
62.3917	29.8729
70.2802	53.178
78.5701	82.2034
87.4121	107.415
92.5935	113.771
97.2431	110.169
102.188	91.5254
