Adsorption isotherm of Carbon Dioxide on ZIF-4
DOI: 10.1016/j.micromeso.2011.01.029
Adsorbate Carbon Dioxide: InChIKey CURLTUGMZLYLDI-UHFFFAOYSA-N
Temperature: 298 K
Tabular data in the source: 0
pressure (bar)	uptake (cm3(STP)/cm3)
0.264302	0.338409
10.5565	2.03046
17.1632	2.03046
31.0147	6.76819
38.3857	10.1523
44.7424	17.2589
52.6254	27.0728
62.165	45.3469
72.591	58.5448
80.2179	64.9746
92.0326	62.9442
