Adsorption isotherm of Hydrogen on ZIF-8
DOI: 10.1016/j.micromeso.2011.01.029
Adsorbate Hydrogen: InChIKey UFHFLCQGNIYNRP-UHFFFAOYSA-N
Temperature: 298 K
Tabular data in the source: 0
pressure (bar)	uptake (cm3(STP)/cm3)
4.95553	1.56604
10.4193	3.20057
20.7116	6.26537
31.0038	9.19458
40.9149	11.6487
50.6989	13.967
60.4828	16.1498
70.521	18.3329
79.2884	20.1753
88.8183	21.9509
93.2656	22.9061
