Adsorption isotherm of Methane on ZIF-8
DOI: 10.1016/j.micromeso.2011.01.029
Adsorbate Methane: InChIKey VNWKTOKETHGBQD-UHFFFAOYSA-N
Temperature: 298 K
Tabular data in the source: 0
pressure (bar)	uptake (cm3(STP)/cm3)
0.555772	0.423729
7.65889	0.423729
19.6795	0.423729
35.9338	1.05932
50.6793	5.9322
58.864	13.5593
67.1766	27.1186
74.7898	51.9068
81.584	76.2712
90.2825	106.144
93.2796	111.653
97.5101	114.407
102.443	103.602
