Adsorption isotherm of Nitrogen on ZIF-4
DOI: 10.1016/j.micromeso.2011.01.029
Adsorbate Nitrogen: InChIKey IJGRMHOSHXDMSA-UHFFFAOYSA-N
Temperature: 298 K
Tabular data in the source: 0
pressure (bar)	uptake (cm3(STP)/cm3)
0.147401	0.269713
23.8439	0.443907
34.1175	0.807658
40.968	1.9961
48.6405	3.31634
55.2195	5.99237
61.5266	10.0208
68.9347	17.2881
79.5025	30.4885
86.3627	37.758
90.3387	40.1743
92.9386	38.5421
97.0437	35.9579
100.594	29.0516
