Adsorption isotherm of Carbon Dioxide on ZIF-2
DOI: 10.1016/j.micromeso.2011.01.029
Adsorbate Carbon Dioxide: InChIKey CURLTUGMZLYLDI-UHFFFAOYSA-N
Temperature: 298 K
Tabular data in the source: 0
pressure (bar)	uptake (cm3(STP)/cm3)
0.264302	0.338409
33.808	3.7225
43.975	8.46024
48.1707	13.5364
53.2575	21.6582
58.4746	35.1946
63.4411	54.8223
68.1567	79.8646
78.4806	135.702
83.8296	157.699
89.3006	170.897
93.9966	162.437
