Adsorption isotherm of Hydrogen on SWNTs-Pr
DOI: 10.1021/La061149c
Adsorbate Hydrogen: InChIKey UFHFLCQGNIYNRP-UHFFFAOYSA-N
Temperature: 77 K
Tabular data in the source: 0
pressure (bar)	uptake (cm3(STP)/g)
0.0851139	0.119398
0.503591	0.131438
1.05778	0.155518
1.47767	0.164548
2.31605	0.185619
3.01871	0.194649
3.43955	0.201672
4.42593	0.208696
5.27139	0.214716
5.6927	0.220736
6.82094	0.226756
7.66688	0.231773
8.93744	0.235786
10.2075	0.240803
11.4781	0.244816
12.7496	0.246823
14.0206	0.249833
15.0094	0.251839
16.4223	0.253846
17.5529	0.254849
18.9662	0.255853
21.9329	0.26087
23.3468	0.26087
24.7606	0.26087
26.1744	0.26087
27.1641	0.26087
28.578	0.26087
29.5672	0.261873
30.9815	0.26087
32.1125	0.26087
33.3841	0.262876
34.5161	0.26087
35.9299	0.26087
36.6373	0.259866
38.0511	0.259866
39.3236	0.259866
40.7379	0.258863
41.7276	0.258863
43.1419	0.25786
44.1316	0.25786
45.5459	0.256856
46.2547	0.252843
47.3839	0.256856
49.0814	0.254849
50.4953	0.254849
51.4859	0.252843
52.7584	0.252843
55.7298	0.247826
57.0013	0.249833
58.4165	0.246823
59.689	0.246823
