Adsorption isotherm of Hydrogen on SWNTs-Pr
DOI: 10.1021/La061149c
Adsorbate Hydrogen: InChIKey UFHFLCQGNIYNRP-UHFFFAOYSA-N
Temperature: 295 K
Tabular data in the source: 0
pressure (bar)	uptake (wt%)
0.37403	0.00332564
12.3655	0.0497458
23.425	0.0795184
43.101	0.149114
57.9133	0.178809
