Adsorption isotherm of Hydrogen on IRH-33
DOI: 10.1021/La061149c
Adsorbate Hydrogen: InChIKey UFHFLCQGNIYNRP-UHFFFAOYSA-N
Temperature: 93 K
Tabular data in the source: 0
pressure (bar)	uptake (cm3(STP)/g)
0.950837	0.207309
1.36651	0.249834
1.50428	0.268439
1.78218	0.292359
2.20112	0.316279
2.61914	0.345515
3.18008	0.36412
4.30056	0.409302
4.86103	0.430565
5.56256	0.451827
6.40468	0.475748
7.38738	0.502326
8.79419	0.523588
9.63724	0.542193
11.045	0.55814
11.889	0.571429
13.2958	0.592691
14.5639	0.600664
15.9721	0.613953
16.9581	0.621927
18.3668	0.632558
19.4943	0.637874
20.7619	0.648505
21.7483	0.653821
23.0164	0.661794
24.285	0.66711
25.412	0.675083
26.54	0.677741
27.9496	0.683056
28.9366	0.685714
30.3462	0.69103
31.3336	0.69103
33.0248	0.699003
34.0118	0.701661
35.4223	0.701661
36.6909	0.706977
37.6783	0.706977
38.6652	0.709635
40.2163	0.712292
41.3448	0.712292
42.7544	0.717608
43.6007	0.717608
44.8702	0.717608
45.9982	0.720266
47.2672	0.722924
48.8189	0.722924
50.0884	0.722924
51.0748	0.728239
52.2037	0.725581
54.178	0.728239
56.1528	0.728239
56.8576	0.730897
58.1271	0.730897
59.5382	0.728239
