Adsorption isotherm of Hydrogen on SWNTs-Pr
DOI: 10.1021/La061149c
Adsorbate Hydrogen: InChIKey UFHFLCQGNIYNRP-UHFFFAOYSA-N
Temperature: 83 K
Tabular data in the source: 0
pressure (bar)	uptake (cm3(STP)/g)
0.931998	0.122408
1.7647	0.155518
2.32597	0.164548
4.15214	0.189632
5.13805	0.197659
7.1108	0.211706
8.66271	0.218729
10.9211	0.226756
12.1921	0.229766
13.3213	0.233779
14.5923	0.236789
15.722	0.239799
17.1349	0.241806
18.4059	0.244816
19.6783	0.244816
20.6676	0.245819
22.0804	0.247826
23.0697	0.248829
24.483	0.249833
25.4722	0.250836
26.8856	0.251839
27.8748	0.252843
29.2887	0.252843
30.4197	0.252843
31.8336	0.252843
32.8232	0.252843
34.2371	0.252843
35.2268	0.252843
36.6406	0.252843
37.6298	0.253846
39.0437	0.253846
40.0333	0.253846
41.4477	0.252843
42.5787	0.252843
43.9926	0.252843
47.3862	0.251839
48.8001	0.251839
49.7902	0.250836
51.0632	0.249833
53.1844	0.248829
55.7293	0.248829
57.5678	0.247826
60.3964	0.245819
