Adsorption isotherm of Hydrogen on Al(OH)BDC
DOI: 10.1021/La061149c
Adsorbate Hydrogen: InChIKey UFHFLCQGNIYNRP-UHFFFAOYSA-N
Temperature: 77 K
Tabular data in the source: 0
pressure (bar)	uptake (wt%)
1.85224	1.14618
3.01564	1.41196
4.18507	1.86047
8.66277	2.59136
10.9753	2.69103
14.9368	2.77409
21.041	2.80731
21.8668	2.84053
29.4538	2.82392
37.7001	2.7907
41.1646	2.80731
52.3772	2.69103
