Adsorption isotherm of Hydrogen on IRMOF-1
DOI: 10.1021/La061149c
Adsorbate Hydrogen: InChIKey UFHFLCQGNIYNRP-UHFFFAOYSA-N
Temperature: 83 K
Tabular data in the source: 0
pressure (bar)	uptake (cm3(STP)/g)
7.27361	0.356691
9.83139	0.429546
11.3889	0.442509
17.7682	0.538652
24.5637	0.590478
30.0827	0.618906
