Adsorption isotherm of Hydrogen on SWNTs-Pr
DOI: 10.1021/La061149c
Adsorbate Hydrogen: InChIKey UFHFLCQGNIYNRP-UHFFFAOYSA-N
Temperature: 88 K
Tabular data in the source: 0
pressure (bar)	uptake (cm3(STP)/g)
1.77321	0.137458
2.61536	0.150502
4.0188	0.172575
4.86379	0.179599
5.99013	0.189632
8.38751	0.202676
9.79803	0.209699
10.9277	0.212709
12.6215	0.218729
13.8925	0.221739
15.163	0.225753
16.4341	0.228763
19.9658	0.234783
21.3792	0.235786
22.3679	0.237793
23.7813	0.238796
24.77	0.240803
26.042	0.241806
27.314	0.242809
28.7278	0.242809
29.7171	0.243813
31.1309	0.243813
32.1201	0.244816
33.5339	0.244816
34.5232	0.245819
35.937	0.245819
36.9267	0.245819
38.3405	0.245819
39.4711	0.246823
40.885	0.246823
41.8746	0.246823
43.2885	0.246823
44.2782	0.246823
45.692	0.246823
46.6817	0.246823
48.096	0.245819
49.0857	0.245819
50.4995	0.245819
51.6306	0.245819
53.0449	0.244816
54.0346	0.244816
55.4484	0.244816
56.4386	0.243813
57.8524	0.243813
58.8426	0.242809
60.2564	0.242809
