Adsorption isotherm of Hydrogen on IRH-33
DOI: 10.1021/La061149c
Adsorbate Hydrogen: InChIKey UFHFLCQGNIYNRP-UHFFFAOYSA-N
Temperature: 77 K
Tabular data in the source: 0
pressure (bar)	uptake (wt%)
0.372639	1.29568
0.553479	1.77741
1.06476	2.27575
2.23638	2.7907
3.07099	3.0897
5.06351	3.48837
5.89208	3.60465
9.0365	3.92027
10.5243	4.01993
12.1776	4.13621
16.1419	4.30233
21.5901	4.45183
32.4826	4.63455
43.7002	4.66777
50.6269	4.63455
58.0473	4.56811
66.2914	4.46844
