Adsorption isotherm of Hydrogen on IRH-33
DOI: 10.1021/La061149c
Adsorbate Hydrogen: InChIKey UFHFLCQGNIYNRP-UHFFFAOYSA-N
Temperature: 77 K
Tabular data in the source: 0
pressure (bar)	uptake (cm3(STP)/g)
0.788693	0.32691
1.3412	0.393355
1.61956	0.414618
1.75593	0.441196
2.59383	0.489037
3.71478	0.531561
4.41631	0.552824
7.50782	0.619269
9.61803	0.651163
11.4485	0.669767
13.2799	0.683056
14.5475	0.693688
17.2252	0.706977
18.0711	0.709635
19.7623	0.717608
20.6087	0.717608
22.7231	0.725581
24.6974	0.728239
25.8258	0.728239
26.9538	0.730897
28.3634	0.736213
29.3513	0.733555
30.9024	0.736213
31.7483	0.73887
32.8763	0.741528
33.8632	0.744186
35.979	0.744186
37.107	0.746844
38.518	0.744186
40.0692	0.746844
41.9029	0.746844
43.1724	0.746844
45.1472	0.746844
47.122	0.746844
48.3915	0.746844
51.3536	0.746844
53.611	0.744186
56.4316	0.746844
59.6769	0.741528
