Adsorption isotherm of Hydrogen on IRMOF-1
DOI: 10.1021/La061149c
Adsorbate Hydrogen: InChIKey UFHFLCQGNIYNRP-UHFFFAOYSA-N
Temperature: 295 K
Tabular data in the source: 0
pressure (bar)	uptake (wt%)
0.37403	0.00332564
6.36413	0.0415358
19.2763	0.134604
38.7452	0.25587
64.218	0.37868
