Adsorption isotherm of Hydrogen on SWNTs-Pr
DOI: 10.1021/La061149c
Adsorbate Hydrogen: InChIKey UFHFLCQGNIYNRP-UHFFFAOYSA-N
Temperature: 93 K
Tabular data in the source: 0
pressure (bar)	uptake (cm3(STP)/g)
1.63939	0.121405
2.48202	0.133445
5.85584	0.174582
9.09821	0.194649
17.9926	0.221739
