Adsorption isotherm of Hydrogen on IRMOF-1
DOI: 10.1021/La061149c
Adsorbate Hydrogen: InChIKey UFHFLCQGNIYNRP-UHFFFAOYSA-N
Temperature: 93 K
Tabular data in the source: 0
pressure (bar)	uptake (cm3(STP)/g)
1.14257	0.0650976
2.56561	0.117154
2.9939	0.140588
3.7045	0.161405
4.27418	0.184833
4.98477	0.20565
5.69583	0.229072
6.54781	0.249882
9.3879	0.320119
10.3808	0.338317
14.2096	0.4033
15.343	0.41628
16.7596	0.431855
17.8934	0.447442
21.5758	0.483766
22.8496	0.491529
23.9826	0.501904
25.2568	0.512272
26.9548	0.520017
28.2291	0.530386
28.9369	0.535567
30.2108	0.54333
33.7485	0.56142
35.1628	0.563965
36.1534	0.569134
37.5682	0.574285
38.7002	0.579449
40.1149	0.5846
41.105	0.587163
42.5193	0.589708
43.5099	0.594878
44.9242	0.597423
45.9144	0.599986
47.3286	0.602532
48.3188	0.605095
49.7331	0.60764
50.8646	0.610198
52.2784	0.610137
53.2686	0.6127
54.6824	0.61264
55.6725	0.615203
57.0864	0.615143
58.0765	0.617706
59.4903	0.617645
