Adsorption isotherm of Hydrogen on IRMOF-1
DOI: 10.1021/La061149c
Adsorbate Hydrogen: InChIKey UFHFLCQGNIYNRP-UHFFFAOYSA-N
Temperature: 98 K
Tabular data in the source: 0
pressure (bar)	uptake (cm3(STP)/g)
1.28027	0.0442448
2.13271	0.067661
2.56101	0.0910954
3.27206	0.114518
3.98312	0.13794
4.69372	0.158756
5.54616	0.182173
6.39814	0.202983
9.37961	0.273214
10.3725	0.291412
14.2014	0.356395
15.3352	0.371981
16.6104	0.387562
17.7442	0.403148
21.2852	0.439479
22.5595	0.449847
23.6929	0.462828
24.9672	0.473197
26.1001	0.483572
27.373	0.486123
28.5063	0.499104
29.7802	0.506867
30.9131	0.517242
32.1864	0.522399
33.6007	0.524944
34.5922	0.535325
35.8656	0.540482
37.139	0.545639
38.2709	0.550803
39.6857	0.555954
40.6763	0.561123
42.091	0.566274
43.0812	0.568837
44.4959	0.573989
45.4865	0.579158
46.759	0.579103
48.0323	0.58426
49.4466	0.586806
50.4368	0.589369
51.8511	0.591914
52.8412	0.594478
54.2555	0.597023
55.2456	0.599586
56.6599	0.602132
57.791	0.602083
59.2053	0.604628
