Adsorption isotherm of Hydrogen on SWNTs-700
DOI: 10.1021/La061149c
Adsorbate Hydrogen: InChIKey UFHFLCQGNIYNRP-UHFFFAOYSA-N
Temperature: 88 K
Tabular data in the source: 0
pressure (bar)	uptake (cm3(STP)/g)
1.62522	0.176713
1.77271	0.161594
3.44866	0.212725
6.54785	0.240572
9.79219	0.259115
18.6891	0.284526
