Adsorption isotherm of Hydrogen on SWNTs-700
DOI: 10.1021/La061149c
Adsorbate Hydrogen: InChIKey UFHFLCQGNIYNRP-UHFFFAOYSA-N
Temperature: 93 K
Tabular data in the source: 0
pressure (bar)	uptake (cm3(STP)/g)
0.931919	0.143005
1.63039	0.163922
3.73848	0.195277
6.83767	0.223125
10.0825	0.240505
18.9742	0.278707
