Adsorption isotherm of Hydrogen on IRMOF-1
DOI: 10.1021/La061149c
Adsorbate Hydrogen: InChIKey UFHFLCQGNIYNRP-UHFFFAOYSA-N
Temperature: 93 K
Tabular data in the source: 0
pressure (bar)	uptake (cm3(STP)/g)
7.96947	0.294121
10.8077	0.353934
12.3661	0.372108
19.3082	0.452593
26.5297	0.514824
32.3329	0.551057
