Adsorption isotherm of Hydrogen on SWNTs-700
DOI: 10.1021/La061149c
Adsorbate Hydrogen: InChIKey UFHFLCQGNIYNRP-UHFFFAOYSA-N
Temperature: 83 K
Tabular data in the source: 0
pressure (bar)	uptake (cm3(STP)/g)
1.61818	0.194155
2.1809	0.201121
2.74221	0.211575
3.02263	0.217384
3.86577	0.230159
4.42849	0.237125
5.4149	0.245245
6.96543	0.256844
8.09369	0.263799
11.3394	0.278853
12.61	0.28348
13.7397	0.286947
15.0107	0.290411
16.1404	0.293877
17.5533	0.296176
18.6844	0.296154
19.8136	0.300784
20.9437	0.303088
22.2157	0.304226
23.3463	0.305367
24.7597	0.306503
25.8903	0.307644
27.3037	0.30878
28.2929	0.309924
29.7068	0.309897
30.696	0.311041
32.1099	0.311014
33.0995	0.310995
34.372	0.31097
35.644	0.312109
37.0579	0.312082
38.0475	0.312063
39.4614	0.312036
40.4511	0.312017
41.8649	0.31199
42.8546	0.311971
44.2685	0.311944
45.6828	0.310754
48.0863	0.310708
50.4899	0.310662
53.6008	0.30944
56.4295	0.30706
59.6832	0.302347
