Adsorption isotherm of Hydrogen on IRMOF-1
DOI: 10.1021/La061149c
Adsorbate Hydrogen: InChIKey UFHFLCQGNIYNRP-UHFFFAOYSA-N
Temperature: 77 K
Tabular data in the source: 0
pressure (bar)	uptake (cm3(STP)/g)
0.781157	0.142475
1.89568	0.177592
4.98862	0.214716
11.9013	0.246823
19.954	0.259866
22.4985	0.26087
33.3845	0.261873
37.061	0.26087
46.3961	0.252843
