Adsorption isotherm of Hydrogen on SWNTs-Pr
DOI: 10.1021/La061149c
Adsorbate Hydrogen: InChIKey UFHFLCQGNIYNRP-UHFFFAOYSA-N
Temperature: 98 K
Tabular data in the source: 0
pressure (bar)	uptake (cm3(STP)/g)
0.531962	0.0712375
1.22895	0.0923077
1.64932	0.100334
2.0678	0.112375
2.48816	0.120401
3.75258	0.137458
4.5971	0.145485
5.58253	0.154515
6.28614	0.161538
7.8371	0.170569
8.8249	0.174582
9.66942	0.182609
11.0823	0.184615
12.211	0.189632
13.4816	0.193645
14.7521	0.197659
16.0227	0.201672
17.1524	0.204682
18.4234	0.207692
19.6949	0.209699
21.1078	0.211706
24.3568	0.217726
25.6288	0.218729
26.7589	0.220736
28.1722	0.221739
29.3028	0.222742
30.7162	0.223746
31.7054	0.224749
33.1188	0.225753
34.108	0.226756
35.5218	0.226756
36.511	0.227759
37.9244	0.228763
39.055	0.229766
40.4688	0.229766
41.4581	0.230769
42.8719	0.230769
43.8611	0.231773
45.2749	0.231773
46.2646	0.231773
47.6785	0.231773
48.6677	0.232776
50.0815	0.232776
51.2126	0.232776
52.6264	0.232776
53.6161	0.232776
55.0299	0.232776
56.0196	0.232776
57.4335	0.232776
58.4232	0.232776
59.8375	0.231773
