Adsorption isotherm of Hydrogen on IRH-33
DOI: 10.1021/La061149c
Adsorbate Hydrogen: InChIKey UFHFLCQGNIYNRP-UHFFFAOYSA-N
Temperature: 87 K
Tabular data in the source: 0
pressure (bar)	uptake (cm3(STP)/g)
1.49585	0.316279
2.19316	0.361462
2.19597	0.345515
2.61164	0.38804
3.03012	0.414618
3.87083	0.446512
4.8526	0.478405
5.4126	0.502326
6.818	0.531561
7.9427	0.552824
9.20892	0.571429
10.6162	0.590033
11.6008	0.60598
12.7278	0.613953
13.995	0.627243
14.981	0.635216
16.2486	0.645847
17.3756	0.653821
18.6437	0.661794
19.7708	0.669767
21.1804	0.675083
26.959	0.701661
28.3695	0.701661
29.497	0.706977
30.9071	0.709635
31.894	0.712292
33.3041	0.71495
34.2911	0.717608
35.7016	0.717608
36.6881	0.722924
37.9576	0.722924
39.2266	0.725581
40.4961	0.725581
41.7651	0.728239
43.0342	0.730897
44.0216	0.730897
45.4321	0.730897
46.7011	0.733555
49.3812	0.733555
52.0613	0.733555
54.7409	0.736213
