Adsorption isotherm of Hydrogen on SWNTs-700
DOI: 10.1021/La061149c
Adsorbate Hydrogen: InChIKey UFHFLCQGNIYNRP-UHFFFAOYSA-N
Temperature: 98 K
Tabular data in the source: 0
pressure (bar)	uptake (cm3(STP)/g)
2.1964	0.162749
3.04142	0.170872
4.02547	0.184807
4.72864	0.194096
5.15045	0.199901
6.13685	0.208022
6.98281	0.21382
7.8283	0.220781
8.95656	0.227736
11.9195	0.242795
13.1901	0.247422
14.3189	0.253215
15.5899	0.256679
16.7191	0.261308
18.132	0.263607
19.2607	0.269399
20.6746	0.269372
21.6633	0.271679
23.0763	0.273977
24.065	0.276284
25.4779	0.278582
26.4667	0.280889
27.8801	0.282025
28.8688	0.284332
30.1413	0.284307
31.4128	0.286608
32.8262	0.287744
33.8159	0.287725
35.0874	0.290027
36.2185	0.290005
37.6318	0.291141
38.6211	0.292285
40.0349	0.292258
43.5686	0.294516
44.9824	0.294488
45.9717	0.295632
47.3855	0.295605
48.3752	0.295586
49.7886	0.296722
50.7783	0.296703
52.1921	0.296676
53.1818	0.296657
54.5957	0.29663
55.7268	0.296609
57.1406	0.296582
58.1303	0.296563
59.5441	0.296536
