Adsorption isotherm of Hydrogen on SWNTs-700
DOI: 10.1021/La061149c
Adsorbate Hydrogen: InChIKey UFHFLCQGNIYNRP-UHFFFAOYSA-N
Temperature: 98 K
Tabular data in the source: 0
pressure (bar)	uptake (cm3(STP)/g)
0.238616	0.109298
1.22032	0.129046
1.91879	0.149963
3.88409	0.184809
6.8419	0.21266
10.0839	0.237016
19.1198	0.268239
