Adsorption isotherm of Hydrogen on IRMOF-1
DOI: 10.1021/La061149c
Adsorbate Hydrogen: InChIKey UFHFLCQGNIYNRP-UHFFFAOYSA-N
Temperature: 77 K
Tabular data in the source: 0
pressure (bar)	uptake (cm3(STP)/g)
2.58818	0.24484
3.30154	0.281292
3.72983	0.304726
6.00531	0.380199
7.99296	0.427019
8.13756	0.445254
10.1224	0.476439
12.5319	0.510212
14.0918	0.536204
14.6564	0.530968
18.0551	0.562093
22.8671	0.590551
23.1531	0.60878
26.5463	0.608634
34.1851	0.631759
41.2543	0.631456
48.3243	0.636365
55.1107	0.636074
