Adsorption isotherm of Hydrogen on SWNTs-700
DOI: 10.1021/La061149c
Adsorbate Hydrogen: InChIKey UFHFLCQGNIYNRP-UHFFFAOYSA-N
Temperature: 93 K
Tabular data in the source: 0
pressure (bar)	uptake (cm3(STP)/g)
1.77224	0.162757
2.33355	0.173211
2.75348	0.183668
4.15934	0.203409
5.0039	0.212695
5.70753	0.220821
6.83532	0.228939
9.93827	0.247484
11.2089	0.252111
12.3376	0.257904
13.6086	0.261368
14.7374	0.26716
16.0084	0.270624
19.6807	0.279856
21.0941	0.280992
22.0828	0.283299
23.4957	0.285597
24.4845	0.287904
25.8978	0.28904
26.8866	0.291346
28.3	0.292482
29.4306	0.293623
30.844	0.294759
31.8332	0.295903
33.247	0.295876
34.2363	0.29702
35.6496	0.298155
36.6389	0.299299
38.0527	0.299272
39.0419	0.300416
40.1725	0.301557
41.4455	0.30037
42.8593	0.300343
44.2732	0.300316
46.393	0.302601
48.6552	0.302558
51.6247	0.301338
53.8873	0.300132
56.2909	0.300086
59.8255	0.300019
