Adsorption isotherm of Hydrogen on SWNTs-700
DOI: 10.1021/La061149c
Adsorbate Hydrogen: InChIKey UFHFLCQGNIYNRP-UHFFFAOYSA-N
Temperature: 77 K
Tabular data in the source: 0
pressure (bar)	uptake (cm3(STP)/g)
0.495551	0.173246
1.47303	0.20346
2.03106	0.222054
2.03387	0.215077
2.87467	0.233666
3.43598	0.24412
4.42192	0.253404
5.12555	0.26153
5.97057	0.269653
7.52299	0.2766
8.65172	0.282393
9.92136	0.289345
11.1924	0.292809
12.3221	0.296276
13.5931	0.29974
14.7228	0.303207
16.1357	0.305505
19.5261	0.312417
20.7986	0.312393
22.0706	0.313531
23.484	0.314667
24.4732	0.315811
25.8866	0.316947
26.8763	0.316928
28.2896	0.318064
31.1173	0.318009
32.5312	0.317982
33.5209	0.317964
34.9347	0.317936
35.9244	0.317918
37.3383	0.317891
38.4694	0.317869
39.8832	0.317842
40.8734	0.31666
42.2872	0.316633
43.2774	0.315451
44.6912	0.315424
46.6706	0.315386
49.3579	0.313009
51.6214	0.309478
53.8841	0.308272
55.8649	0.304745
59.8241	0.303507
