Adsorption isotherm of Hydrogen on SWNTs-700
DOI: 10.1021/La061149c
Adsorbate Hydrogen: InChIKey UFHFLCQGNIYNRP-UHFFFAOYSA-N
Temperature: 295 K
Tabular data in the source: 0
pressure (bar)	uptake (wt%)
0.37403	0.00332564
4.86364	0.0399
11.416	0.0797653
18.1561	0.119627
30.3302	0.179376
48.505	0.249003
