Adsorption isotherm of Hydrogen on IRMOF-1
DOI: 10.1021/La061149c
Adsorbate Hydrogen: InChIKey UFHFLCQGNIYNRP-UHFFFAOYSA-N
Temperature: 98 K
Tabular data in the source: 0
pressure (bar)	uptake (cm3(STP)/g)
8.24625	0.260233
11.084	0.31744
12.9252	0.335602
19.8682	0.421298
27.3725	0.483517
33.3179	0.524956
