Adsorption isotherm of Hydrogen on IRMOF-1
DOI: 10.1021/La061149c
Adsorbate Hydrogen: InChIKey UFHFLCQGNIYNRP-UHFFFAOYSA-N
Temperature: 77 K
Tabular data in the source: 0
pressure (bar)	uptake (wt%)
2.52408	1.51163
3.52144	1.74419
6.01538	2.34219
7.67418	2.62458
8.17176	2.70764
10.1577	2.90698
12.8045	3.13953
13.9641	3.28904
14.6234	3.27243
18.0938	3.47176
22.8828	3.63787
23.051	3.73754
26.35	3.73754
34.2735	3.92027
41.3657	3.90365
48.2946	3.93688
54.892	3.92027
