Adsorption isotherm of Hydrogen on SWNTs-Pr
DOI: 10.1021/La061149c
Adsorbate Hydrogen: InChIKey UFHFLCQGNIYNRP-UHFFFAOYSA-N
Temperature: 93 K
Tabular data in the source: 0
pressure (bar)	uptake (cm3(STP)/g)
0.801017	0.100334
1.50132	0.114381
2.20067	0.130435
2.76195	0.139465
3.46461	0.148495
3.88592	0.154515
4.73044	0.162542
6.27999	0.174582
7.26684	0.180602
10.5106	0.197659
11.7812	0.201672
13.0518	0.205686
14.3223	0.209699
15.4515	0.213712
16.7225	0.216722
20.2538	0.223746
21.5258	0.224749
22.6559	0.226756
24.0693	0.227759
25.058	0.229766
26.4714	0.230769
27.6015	0.232776
29.0149	0.233779
30.0046	0.233779
31.4179	0.234783
32.4071	0.235786
33.821	0.235786
34.9516	0.236789
36.224	0.236789
37.2132	0.237793
38.6271	0.237793
39.7577	0.238796
41.1715	0.238796
42.1607	0.239799
43.5746	0.239799
44.5642	0.239799
45.9781	0.239799
46.9678	0.239799
48.3816	0.239799
49.5127	0.239799
50.9265	0.239799
51.9162	0.239799
53.33	0.239799
54.3202	0.238796
55.734	0.238796
56.7237	0.238796
58.1376	0.238796
59.1272	0.238796
60.5415	0.237793
