Adsorption isotherm of Hydrogen on IRMOF-1
DOI: 10.1021/La061149c
Adsorbate Hydrogen: InChIKey UFHFLCQGNIYNRP-UHFFFAOYSA-N
Temperature: 88 K
Tabular data in the source: 0
pressure (bar)	uptake (cm3(STP)/g)
7.83545	0.33582
10.2486	0.39044
11.8066	0.406009
18.6086	0.494316
25.5465	0.551348
31.2073	0.582376
