Adsorption isotherm of Hydrogen on IRMOF-1
DOI: 10.1021/La061149c
Adsorbate Hydrogen: InChIKey UFHFLCQGNIYNRP-UHFFFAOYSA-N
Temperature: 77 K
Tabular data in the source: 0
pressure (bar)	uptake (cm3(STP)/g)
0.436122	0.0677337
0.727637	0.117233
1.15915	0.158908
1.73159	0.197971
3.87398	0.320355
4.72688	0.346377
5.15471	0.367206
6.29084	0.395822
6.85959	0.414038
8.84586	0.453041
9.83922	0.473845
11.3981	0.494625
12.2492	0.510224
14.0908	0.530992
15.2242	0.543973
16.2157	0.554354
18.9052	0.57248
20.0377	0.580249
21.311	0.585406
23.5759	0.600944
24.8488	0.603495
26.9714	0.613828
27.9615	0.616391
29.0926	0.616343
30.6487	0.621488
32.2044	0.624027
32.9118	0.626602
34.0428	0.626554
35.3162	0.631711
37.0132	0.634244
38.0029	0.634202
39.2754	0.634147
39.9827	0.636723
42.9522	0.639201
44.5074	0.639135
46.204	0.639062
47.0523	0.639026
50.1627	0.638892
51.718	0.638826
53.2736	0.641365
54.1215	0.638723
56.8068	0.633396
