Adsorption isotherm of Hydrogen on IRH-33
DOI: 10.1021/La061149c
Adsorbate Hydrogen: InChIKey UFHFLCQGNIYNRP-UHFFFAOYSA-N
Temperature: 98 K
Tabular data in the source: 0
pressure (bar)	uptake (cm3(STP)/g)
0.406765	0.0930233
0.824777	0.122259
1.09611	0.183389
1.51553	0.204651
1.79342	0.228571
2.07132	0.252492
2.34968	0.273754
2.90968	0.297674
4.16794	0.361462
4.869	0.385382
7.11464	0.449169
8.09875	0.467774
9.36357	0.494352
10.3481	0.510299
14.1477	0.560797
15.4149	0.574086
16.6825	0.584718
17.9502	0.595349
19.0767	0.60598
20.3444	0.616611
21.4714	0.624585
22.74	0.6299
26.2626	0.651163
27.6722	0.656478
28.6587	0.661794
30.0683	0.66711
31.1963	0.669767
32.6059	0.675083
33.5928	0.677741
35.0029	0.680399
35.9894	0.685714
37.3994	0.688372
38.3859	0.693688
39.6554	0.693688
40.7829	0.699003
42.193	0.701661
43.3214	0.701661
44.7315	0.704319
45.7184	0.706977
47.1285	0.709635
48.1159	0.709635
49.526	0.712292
50.5129	0.71495
51.9235	0.71495
54.462	0.717608
55.4494	0.717608
56.8595	0.720266
57.8469	0.720266
59.2574	0.720266
60.5265	0.722924
