Adsorption isotherm of Hydrogen on SWNTs-700
DOI: 10.1021/La061149c
Adsorbate Hydrogen: InChIKey UFHFLCQGNIYNRP-UHFFFAOYSA-N
Temperature: 88 K
Tabular data in the source: 0
pressure (bar)	uptake (cm3(STP)/g)
1.7652	0.180199
2.60787	0.194136
2.88829	0.199945
3.30916	0.208076
4.43554	0.219683
5.42053	0.231292
7.81703	0.248688
9.08668	0.25564
10.78	0.263747
12.0506	0.268374
13.1798	0.273004
14.4504	0.277631
15.58	0.281097
16.9925	0.284559
20.5243	0.291468
21.9372	0.293766
22.9264	0.29491
24.3393	0.297209
25.3285	0.298353
26.7419	0.299489
27.7312	0.300632
29.1445	0.301768
30.1338	0.302912
31.5471	0.304048
32.6782	0.304026
34.0921	0.303999
35.0813	0.305143
36.4951	0.305116
37.4844	0.30626
38.8982	0.306233
39.8874	0.307377
41.1604	0.306189
42.291	0.307331
43.7048	0.307304
44.8359	0.307282
46.2497	0.307255
47.2394	0.307236
48.5119	0.307212
49.6434	0.306027
51.0573	0.306
