Adsorption isotherm of Hydrogen on IRH-33
DOI: 10.1021/La061149c
Adsorbate Hydrogen: InChIKey UFHFLCQGNIYNRP-UHFFFAOYSA-N
Temperature: 88 K
Tabular data in the source: 0
pressure (bar)	uptake (cm3(STP)/g)
1.49538	0.318937
3.58872	0.446512
6.39671	0.52093
12.0249	0.600664
24.1425	0.675083
