Adsorption isotherm of Hydrogen on SWNTs-700
DOI: 10.1021/La061149c
Adsorbate Hydrogen: InChIKey UFHFLCQGNIYNRP-UHFFFAOYSA-N
Temperature: 77 K
Tabular data in the source: 0
pressure (bar)	uptake (wt%)
0.117158	0.00990099
0.778212	1.13861
1.36168	1.24752
3.11595	1.47525
6.16517	1.65347
9.33543	1.74257
17.4399	1.90099
29.8971	1.9703
