Adsorption isotherm of Hydrogen on SWNTs-Pr
DOI: 10.1021/La061149c
Adsorbate Hydrogen: InChIKey UFHFLCQGNIYNRP-UHFFFAOYSA-N
Temperature: 83 K
Tabular data in the source: 0
pressure (bar)	uptake (cm3(STP)/g)
1.48571	0.147492
3.3081	0.180602
6.4053	0.208696
9.65003	0.223746
17.8408	0.243813
