Adsorption isotherm of Hydrogen on IRH-33
DOI: 10.1021/La061149c
Adsorbate Hydrogen: InChIKey UFHFLCQGNIYNRP-UHFFFAOYSA-N
Temperature: 83 K
Tabular data in the source: 0
pressure (bar)	uptake (cm3(STP)/g)
1.07127	0.324252
1.90589	0.390698
2.32531	0.41196
2.74426	0.43588
2.88297	0.449169
3.8638	0.486379
4.28462	0.499668
5.12534	0.531561
5.8278	0.547508
7.23367	0.574086
7.93614	0.590033
9.34295	0.611296
10.328	0.624585
12.0174	0.643189
12.7217	0.648505
14.1299	0.661794
15.257	0.669767
16.8072	0.677741
18.9207	0.69103
20.1892	0.696346
21.3167	0.701661
22.7264	0.706977
24.7002	0.712292
26.1098	0.717608
27.0963	0.722924
28.6479	0.722924
29.9169	0.725581
31.0449	0.728239
32.0323	0.728239
33.5839	0.728239
34.7114	0.733555
36.4041	0.733555
38.2378	0.733555
39.5068	0.736213
40.7763	0.736213
44.866	0.741528
47.5465	0.73887
58.831	0.73887
