Adsorption isotherm of Hydrogen on IRH-33
DOI: 10.1021/La061149c
Adsorbate Hydrogen: InChIKey UFHFLCQGNIYNRP-UHFFFAOYSA-N
Temperature: 98 K
Tabular data in the source: 0
pressure (bar)	uptake (cm3(STP)/g)
1.23061	0.220598
3.04465	0.332226
6.27253	0.425249
12.0385	0.523588
24.577	0.611296
