Adsorption isotherm of Hydrogen on IRH-33
DOI: 10.1021/La061149c
Adsorbate Hydrogen: InChIKey UFHFLCQGNIYNRP-UHFFFAOYSA-N
Temperature: 77 K
Tabular data in the source: 0
pressure (bar)	uptake (cm3(STP)/g)
0.26899	0.0744186
0.513611	0.287043
1.20436	0.369435
2.17629	0.457143
3.01466	0.502326
4.97866	0.563455
5.82124	0.584718
8.77404	0.637874
10.6045	0.656478
12.1528	0.675083
15.9566	0.701661
21.3121	0.728239
32.3092	0.757475
43.5937	0.757475
50.3648	0.754817
57.7016	0.744186
