Adsorption isotherm of Hydrogen on SWNTs-Pr
DOI: 10.1021/La061149c
Adsorbate Hydrogen: InChIKey UFHFLCQGNIYNRP-UHFFFAOYSA-N
Temperature: 88 K
Tabular data in the source: 0
pressure (bar)	uptake (cm3(STP)/g)
1.63324	0.134448
3.17617	0.160535
6.97792	0.193645
10.0808	0.209699
18.6953	0.230769
