Adsorption isotherm of Hydrogen on IRMOF-1
DOI: 10.1021/La061149c
Adsorbate Hydrogen: InChIKey UFHFLCQGNIYNRP-UHFFFAOYSA-N
Temperature: 88 K
Tabular data in the source: 0
pressure (bar)	uptake (cm3(STP)/g)
1.28442	0.0676974
2.56653	0.122366
2.99344	0.137982
3.84681	0.16661
4.2751	0.190045
5.12754	0.213461
5.83768	0.231672
6.69058	0.257694
7.5421	0.275898
8.67822	0.304514
9.67159	0.325318
11.3732	0.35391
14.2096	0.4033
15.343	0.41628
16.7596	0.431855
17.8934	0.447442
21.5758	0.483766
22.8496	0.491529
23.9826	0.501904
25.2568	0.512272
26.9548	0.520017
28.2291	0.530386
28.9369	0.535567
30.2108	0.54333
33.7485	0.56142
35.1628	0.563965
36.1534	0.569134
37.5682	0.574285
38.7002	0.579449
40.1149	0.5846
41.105	0.587163
42.5193	0.589708
43.5099	0.594878
44.9242	0.597423
45.9144	0.599986
47.3286	0.602532
48.3188	0.605095
49.7331	0.60764
50.8646	0.610198
52.2784	0.610137
53.4099	0.612694
54.8238	0.612634
55.8139	0.615197
57.9346	0.615106
59.4899	0.61504
60.1977	0.620221
