Adsorption isotherm of Hydrogen on SWNTs-700
DOI: 10.1021/La061149c
Adsorbate Hydrogen: InChIKey UFHFLCQGNIYNRP-UHFFFAOYSA-N
Temperature: 77 K
Tabular data in the source: 0
pressure (bar)	uptake (cm3(STP)/g)
0.773154	0.186032
1.47397	0.201135
3.29647	0.239472
6.11196	0.269651
9.35817	0.283542
17.4063	0.310132
29.9853	0.320357
