Adsorption isotherm of Hydrogen on CNI-3P
DOI: 10.1021/La061149c
Adsorbate Hydrogen: InChIKey UFHFLCQGNIYNRP-UHFFFAOYSA-N
Temperature: 295 K
Tabular data in the source: 0
pressure (bar)	uptake (wt%)
0.37403	0.00332564
4.48398	0.0515745
9.91054	0.0914629
22.074	0.179546
35.3665	0.259273
50.7267	0.328957
