Adsorption isotherm of Hydrogen on CNI-3P
DOI: 10.1021/La061149c
Adsorbate Hydrogen: InChIKey UFHFLCQGNIYNRP-UHFFFAOYSA-N
Temperature: 77 K
Tabular data in the source: 0
pressure (bar)	uptake (wt%)
0.117158	0.00990099
1.10719	1.74257
2.62482	2.0099
4.38219	2.15842
7.08072	2.28713
12.2473	2.42574
18.7085	2.52475
27.9943	2.53465
31.8714	2.58416
