Adsorption isotherm of Hydrogen on IRMOF-1
DOI: 10.1021/La061149c
Adsorbate Hydrogen: InChIKey UFHFLCQGNIYNRP-UHFFFAOYSA-N
Temperature: 83 K
Tabular data in the source: 0
pressure (bar)	uptake (cm3(STP)/g)
2.29482	0.184918
2.8645	0.208346
3.72062	0.252609
4.2903	0.276038
5.00135	0.29946
5.57057	0.320282
6.42255	0.341093
8.12789	0.390531
12.0986	0.458113
13.2324	0.4737
13.9412	0.484093
15.0745	0.497074
18.8988	0.535998
20.1726	0.543761
21.305	0.55153
22.5789	0.559293
26.2585	0.579982
27.6732	0.585133
28.6638	0.590302
29.9377	0.598065
30.6446	0.598035
32.0593	0.603186
33.0495	0.60575
34.4637	0.608295
35.4543	0.613464
36.7268	0.613409
38.0002	0.618567
39.4144	0.621112
42.8085	0.626178
44.2228	0.628723
46.3436	0.628632
51.0097	0.631038
53.6964	0.633529
