Adsorption isotherm of Hydrogen on Cr(OH)BDC
DOI: 10.1021/La061149c
Adsorbate Hydrogen: InChIKey UFHFLCQGNIYNRP-UHFFFAOYSA-N
Temperature: 77 K
Tabular data in the source: 0
pressure (bar)	uptake (wt%)
0.186868	0.664452
0.531559	1.11296
0.871866	1.42857
1.37164	1.57807
4.18945	1.99336
4.52264	2.09302
6.50365	2.14286
8.98006	2.2093
17.0647	2.27575
27.1254	2.24252
47.4129	2.2093
59.7812	2.12625
