Adsorption isotherm of Hydrogen on SWNTs-Pr
DOI: 10.1021/La061149c
Adsorbate Hydrogen: InChIKey UFHFLCQGNIYNRP-UHFFFAOYSA-N
Temperature: 77 K
Tabular data in the source: 0
pressure (bar)	uptake (wt%)
0.117158	0.00990099
0.905844	0.881188
2.07355	1.07921
5.2376	1.32673
12.0479	1.51485
20.038	1.59406
22.6236	1.60396
33.5546	1.62376
37.1998	1.59406
46.3703	1.54455
