Adsorption isotherm of Hydrogen on Cr(OH)BDC
DOI: 10.1021/La061149c
Adsorbate Hydrogen: InChIKey UFHFLCQGNIYNRP-UHFFFAOYSA-N
Temperature: 295 K
Tabular data in the source: 0
pressure (bar)	uptake (wt%)
0.37403	0.00332564
35.0393	0.130946
58.4681	0.200465
70.2788	0.228555
