Adsorption isotherm of Nitrogen on LZU-101
DOI: 10.1021/jacs.7b01097
Article source: Figure S29
Adsorbate Nitrogen: InChIKey IJGRMHOSHXDMSA-UHFFFAOYSA-N
Kind: experiment
Isotherm type: excess
Temperature: 77 K
Tabular data in the source: 0
pressure (bar)	uptake (cm3(STP)/g)
0.00124	1.85449
0.003101	4.85021
0.010542	6.27675
0.018603	7.27532
0.026044	8.5592
0.037206	8.98716
0.048368	9.98573
0.06201	10.9843
0.079993	11.5549
0.099837	12.2682
0.11968	12.4108
0.139523	13.4094
0.161227	13.6947
0.18169	14.5506
0.251142	16.2625
0.305711	17.2611
0.35594	18.5449
0.406168	19.6862
0.455776	20.5421
0.556853	22.2539
0.608322	23.6805
0.65793	25.2496
0.708779	26.3909
0.759007	28.6733
0.809236	32.097
0.830939	33.9515
0.861325	36.5193
0.886129	39.9429
0.910933	44.5078
0.936357	51.0699
0.961161	63.3381
0.984105	89.4436
0.993407	110.984
1.00085	150.214
1.00643	195.435
0.142004	12.9815
0.202774	14.5506
0.253002	15.6919
0.303851	16.6904
0.354079	17.8317
0.404308	18.8302
0.455156	19.9715
0.505385	21.6833
0.556233	23.1098
0.607702	24.679
0.65855	26.3909
0.709399	28.5307
0.759007	31.2411
0.809856	34.8074
0.83466	37.0899
0.860704	40.0856
0.887989	44.9358
0.914033	52.6391
0.940078	64.9073
0.9562	79.3153
0.983485	124.536
0.994647	158.345
1.00643	195.435
