Adsorption isotherm of Tetrahydrofuran on COF-320
DOI: 10.1021/jacs.7b01097
Article source: Figure 2
Adsorbate Tetrahydrofuran: InChIKey WYURNTSHIVDZCO-UHFFFAOYSA-N
Kind: experiment
Isotherm type: excess
Temperature: 283 K
Tabular data in the source: 0
pressure (bar)	uptake (cm3(STP)/g)
0.001104	5.95611
0.001104	12.5392
0.001104	26.8025
0.001656	34.4828
0.003311	47.9624
0.003311	54.7022
0.003863	61.442
0.004415	68.1818
0.004967	74.7649
0.007174	81.348
0.00883	87.6176
0.011038	93.2602
0.014901	98.9028
0.018212	104.389
0.022075	109.718
0.027594	116.458
0.033665	122.727
0.039183	128.213
0.044702	133.229
0.047462	135.737
0.068433	147.492
0.088853	151.881
0.112031	156.27
0.139074	160.658
0.166116	164.577
0.190398	168.809
0.215785	172.884
0.254416	176.646
0.316779	179.937
0.396249	182.445
0.465234	184.796
0.55795	187.304
0.658944	189.812
0.72241	191.536
0.77815	193.103
0.827267	194.828
0.874176	196.708
0.125277	171.944
0.151767	174.295
0.191502	176.803
0.250001	180.251
0.304637	183.699
0.367551	185.893
0.461371	188.715
0.556294	191.066
0.64625	193.103
0.698127	194.044
0.751107	195.298
0.805192	196.552
0.858724	198.119
0.903426	199.373
0.931572	200.627
