Adsorption isotherm of Nitrogen on LZU-301
DOI: 10.1021/jacs.7b01097
Article source: Figure S21
Adsorbate Nitrogen: InChIKey IJGRMHOSHXDMSA-UHFFFAOYSA-N
Kind: experiment
Isotherm type: excess
Temperature: 77 K
Tabular data in the source: 0
pressure (bar)	uptake (cm3(STP)/g)
0.000754	26.0274
0.000754	66.5753
0.001508	74.5205
0.001508	80
0.000754	85.2055
0.002262	96.4384
0.000754	107.123
0.001508	111.781
0.001508	115.342
0.001508	119.726
0.004523	133.973
0.006031	138.904
0.007539	143.014
0.009801	146.027
0.049758	156.712
0.075391	160.822
0.084437	161.918
0.090469	161.918
0.101023	163.562
0.113086	165.205
0.129672	165.753
0.134195	166.301
0.14852	167.671
0.177168	170.411
0.203555	171.507
0.22768	173.425
0.252559	174.521
0.30307	176.712
0.35509	179.726
0.405602	181.918
0.456113	184.11
0.505871	186.301
0.556383	188.493
0.607648	191.507
0.65816	193.699
0.71018	196.986
0.760691	200
0.810449	203.836
0.860207	209.041
0.912227	217.534
0.964246	229.863
1.00646	276.164
0.05202	179.726
0.102531	185.205
0.153043	188.493
0.202801	191.233
0.253312	193.699
0.303824	196.438
0.354336	197.808
0.404848	200.274
0.453852	201.918
0.505117	214.521
0.557137	215.89
0.606895	218.082
0.656652	219.178
0.707918	220.822
0.75843	223.562
0.809695	226.027
0.860207	229.863
0.910719	234.521
0.96123	241.644
1.00345	276.712
