Adsorption isotherm of Tetrahydrofuran on LZU-301
DOI: 10.1021/jacs.7b01097
Article source: Figure 2
Adsorbate Tetrahydrofuran: InChIKey WYURNTSHIVDZCO-UHFFFAOYSA-N
Kind: experiment
Isotherm type: excess
Temperature: 283 K
Tabular data in the source: 0
pressure (bar)	uptake (cm3(STP)/g)
0.000552	9.56113
0.001104	14.7335
0.000552	20.0627
0.001104	25.0784
0.001104	30.5643
0.001656	35.8934
0.002759	41.2226
0.006071	51.7241
0.010486	60.5016
0.022075	68.0251
0.044702	74.7649
0.055188	77.2727
0.081678	81.6614
0.11148	85.5799
0.140177	89.3417
0.167219	92.4765
0.190398	96.2382
0.209162	100.627
0.236756	109.718
0.253312	119.906
0.267661	131.505
0.280906	136.364
0.318986	140.125
0.378037	142.633
0.433777	145.141
0.487309	147.335
0.539738	149.216
0.590511	151.411
0.64018	153.448
0.672189	155.016
0.715235	157.21
0.773183	161.912
0.820092	167.085
0.859276	174.295
0.86921	176.803
0.906737	184.953
0.121965	98.4326
0.150111	103.292
0.161701	108.15
0.171083	119.592
0.177153	133.229
0.205851	143.417
0.241171	145.925
0.280355	149.687
0.329472	152.038
0.379141	153.918
0.429914	156.426
0.482894	158.15
0.53753	160.502
0.59327	163.009
0.651217	165.987
0.707509	169.436
0.760489	174.138
0.809607	178.997
0.85762	183.229
0.918879	187.147
