Adsorption isotherm of Carbon Dioxide on LZU-301
DOI: 10.1021/jacs.7b01097
Article source: Figure S27
Adsorbate Carbon Dioxide: InChIKey CURLTUGMZLYLDI-UHFFFAOYSA-N
Kind: experiment
Isotherm type: excess
Temperature: 273 K
Tabular data in the source: 0
pressure (bar)	uptake (cm3(STP)/g)
0.001156	0.380499
0.009249	1.9025
0.013873	3.04399
0.020809	4.09037
0.027746	5.13674
0.035838	6.46849
0.048555	8.27586
0.054335	9.32224
0.061272	10.3686
0.082081	11.9857
0.100578	14.2687
0.121387	16.3615
0.139884	18.3591
0.160694	20.4518
0.191908	23.4007
0.220809	25.7788
0.250867	28.2521
0.282081	30.5351
0.313295	32.7229
0.345665	34.2449
0.375723	36.1474
0.40578	38.0499
0.435838	39.5719
0.465896	41.2842
0.499422	42.7111
0.527168	43.8526
0.560694	45.3746
0.590751	46.5161
0.619653	47.6576
0.652023	48.7039
0.684393	49.9405
0.715607	50.9869
0.745665	51.9382
0.775723	52.6992
0.80578	53.8407
0.834682	54.5065
0.868208	55.3627
0.895954	55.9334
0.927168	57.0749
0.956069	57.5505
0.989595	58.1213
1.0185	58.7872
0.008092	1.71225
0.017341	3.99524
0.017341	4.94649
0.02659	6.18312
0.035838	7.80024
0.046243	9.22711
0.057803	10.4637
0.075145	12.937
0.098266	15.4102
0.119075	17.503
0.139884	19.5957
0.159538	21.6885
0.188439	24.352
0.216185	26.8252
0.246243	29.1082
0.275145	31.2961
0.304046	33.2937
0.336416	35.1962
0.363006	36.9084
0.393064	38.6207
0.421965	40.3329
0.449711	41.6647
0.482081	43.1867
0.508671	44.6136
0.538728	45.8502
0.566474	46.8966
0.597688	47.9429
0.62659	49.0844
0.655491	50.2259
0.685549	51.082
0.715607	51.9382
0.775723	53.5553
0.833526	55.1724
0.891329	56.5042
0.951445	57.931
