Adsorption isotherm of Carbon Dioxide on LZU-301
DOI: 10.1021/jacs.7b01097
Article source: Figure S27
Adsorbate Carbon Dioxide: InChIKey CURLTUGMZLYLDI-UHFFFAOYSA-N
Kind: experiment
Isotherm type: excess
Temperature: 298 K
Tabular data in the source: 0
pressure (bar)	uptake (cm3(STP)/g)
0.003468	0.380499
0.017341	1.33175
0.033526	2.09275
0.047399	2.94887
0.061272	3.99524
0.076301	4.94649
0.099422	6.08799
0.121387	7.32461
0.14104	8.08561
0.164162	9.22711
0.191908	10.5589
0.224277	11.9857
0.253179	13.3175
0.285549	14.459
0.316763	15.7907
0.345665	17.0273
0.376879	18.264
0.40578	19.5006
0.43815	20.547
0.469364	21.6885
0.500578	22.6397
0.52948	23.7812
0.560694	24.4471
0.593064	25.4935
0.623121	26.4447
0.653179	27.2057
0.685549	28.0618
0.713295	28.8228
0.745665	29.679
0.774566	30.44
0.80578	31.1058
0.835838	31.8668
0.865896	33.0083
0.895954	33.3888
0.928324	33.9596
0.957225	34.7206
0.989595	35.2913
1.01619	35.5767
0.001156	0.951249
0.012717	2.47325
0.024277	3.42449
0.03815	4.56599
0.049711	4.94649
0.05896	5.61237
0.073988	6.56361
0.09711	7.80024
0.114451	8.75149
0.136416	9.60761
0.158382	10.9394
0.188439	12.176
0.215029	13.5077
0.246243	14.6492
0.275145	15.8858
0.30289	17.0273
0.330636	18.264
0.36185	19.3103
0.391908	20.4518
0.420809	21.308
0.450867	22.1641
0.479769	23.2105
0.507514	24.352
0.538728	25.3032
0.56763	26.0642
0.596532	26.9203
0.625434	27.4911
0.656647	28.2521
0.685549	29.0131
0.714451	29.679
0.77341	31.0107
0.835838	32.3424
0.891329	33.6742
0.951445	34.7206
