Adsorption isotherm of Nitrogen on LZU-301
DOI: 10.1021/jacs.7b01097
Article source: Figure S27
Adsorbate Nitrogen: InChIKey IJGRMHOSHXDMSA-UHFFFAOYSA-N
Kind: experiment
Isotherm type: excess
Temperature: 273 K
Tabular data in the source: 0
pressure (bar)	uptake (cm3(STP)/g)
0.071676	0.285375
0.104046	0.380499
0.121387	0.380499
0.13526	0.285375
0.156069	0.475624
0.206936	0.760999
0.261272	0.951249
0.313295	1.1415
0.350289	1.33175
0.401156	1.71225
0.448555	1.80737
0.499422	1.9025
0.550289	1.99762
0.601156	2.09275
0.649711	2.283
0.700578	2.47325
0.751445	2.6635
0.8	2.94887
0.852023	3.13912
0.904046	3.23425
0.951445	3.51962
1.00347	3.61474
0.113295	0.19025
0.12948	0.285375
0.144509	0.380499
0.159538	0.380499
0.175723	0.570749
0.191908	0.475624
0.230058	0.570749
0.263584	0.856124
0.29711	0.951249
0.312139	1.04637
0.345665	1.1415
0.395376	1.23662
0.409249	1.42687
0.445087	1.42687
0.495954	1.71225
0.527168	1.71225
0.596532	2.09275
0.645087	2.283
0.694798	2.37812
0.726012	2.47325
0.793064	2.75862
0.843931	2.94887
0.893642	3.13912
0.94104	3.32937
0.974566	3.42449
0.991908	3.51962
