Adsorption isotherm of Nitrogen on Activated Carbon
DOI: 10.1007/s10450-019-00039-z
Article source: Figure 1A
Adsorbate Nitrogen: InChIKey IJGRMHOSHXDMSA-UHFFFAOYSA-N
Kind: experiment
Temperature: 158 K
Tabular data in the source: 0
pressure (bar)	uptake (mmol/g)
0.495484	0.055596
2.22139	10.6161
9.47989	16.1537
15.5632	18.3215
24.2585	19.1389
32.9463	19.0575
39.0106	18.9032
46.546	18.2233
53.4245	17.3942
62.7546	15.6644
71.7488	12.961
79.4383	11.0826
84.0242	10.5548
