Adsorption isotherm of Nitrogen on Activated Carbon
DOI: 10.1007/s10450-019-00039-z
Article source: Figure 1G
Adsorbate Nitrogen: InChIKey IJGRMHOSHXDMSA-UHFFFAOYSA-N
Kind: experiment
Temperature: 278 K
Tabular data in the source: 0
pressure (bar)	uptake (mmol/g)
1.06855	0.077004
7.81092	3.09095
17.3413	4.66531
26.8511	5.78369
35.603	6.74093
44.3445	7.47019
55.322	7.83603
65.8549	8.33319
75.3207	8.47447
85.2355	8.58216
92.1402	8.53384
