Adsorption isotherm of Nitrogen on Activated Carbon
DOI: 10.1007/s10450-019-00039-z
Article source: Figure 1B
Adsorbate Nitrogen: InChIKey IJGRMHOSHXDMSA-UHFFFAOYSA-N
Kind: experiment
Temperature: 178 K
Tabular data in the source: 0
pressure (bar)	uptake (mmol/g)
0.699301	0.462485
3.67133	9.01827
13.1119	13.1791
19.9301	14.8725
29.021	15.8021
40.3846	15.8175
49.4755	15.9952
58.9161	15.72
69.7552	14.7607
77.972	14.4167
83.9161	14.4606
