Adsorption isotherm of Nitrogen on Activated Carbon
DOI: 10.1007/s10450-019-00039-z
Article source: Figure 1H
Adsorbate Nitrogen: InChIKey IJGRMHOSHXDMSA-UHFFFAOYSA-N
Kind: experiment
Temperature: 298 K
Tabular data in the source: 0
pressure (bar)	uptake (mmol/g)
0.844064	0.088383
5.93626	1.57727
12.4765	2.85747
20.7368	4.21242
30.0183	5.28192
38.6007	5.99121
48.9242	6.38813
59.948	7.11945
70.7067	7.43827
84.056	7.67567
