Adsorption isotherm of Nitrogen on Activated Carbon
DOI: 10.1007/s10450-019-00039-z
Article source: Figure 1D
Adsorbate Nitrogen: InChIKey IJGRMHOSHXDMSA-UHFFFAOYSA-N
Kind: experiment
Temperature: 218 K
Tabular data in the source: 0
pressure (bar)	uptake (mmol/g)
0.61712	0.043221
6.25278	6.6292
16.8709	9.86794
28.4519	11.1714
36.9717	11.8634
45.1774	12.3361
58.3694	12.5385
66.867	12.791
75.944	12.5153
87.5988	12.2802
92.4469	12.2738
