Adsorption isotherm of Nitrogen on Activated Carbon
DOI: 10.1007/s10450-019-00039-z
Article source: Figure 1C
Adsorbate Nitrogen: InChIKey IJGRMHOSHXDMSA-UHFFFAOYSA-N
Kind: experiment
Temperature: 198 K
Tabular data in the source: 0
pressure (bar)	uptake (mmol/g)
1.41075	0.378436
5.58472	7.6075
15.5794	11.8509
22.1111	13.3114
30.4873	14.1383
37.7753	14.7407
46.4375	14.4259
56.6641	14.9042
66.5658	14.6422
78.0095	14.0897
86.517	13.7754
92.0846	13.5282
