Adsorption isotherm of Nitrogen on Activated Carbon
DOI: 10.1007/s10450-019-00039-z
Article source: Figure 1E
Adsorbate Nitrogen: InChIKey IJGRMHOSHXDMSA-UHFFFAOYSA-N
Kind: experiment
Temperature: 238 K
Tabular data in the source: 0
pressure (bar)	uptake (mmol/g)
0.486733	0.414484
7.60682	5.15845
17.5045	7.89823
26.5571	9.16759
32.9816	9.72393
41.9868	10.1632
50.8356	10.5272
58.1517	10.7048
69.2769	10.9522
80.0935	11.1245
88.6077	10.9607
