Adsorption isotherm of Nitrogen on Activated Carbon
DOI: 10.1007/s10450-019-00039-z
Article source: Figure 1F
Adsorbate Nitrogen: InChIKey IJGRMHOSHXDMSA-UHFFFAOYSA-N
Kind: experiment
Temperature: 258 K
Tabular data in the source: 0
pressure (bar)	uptake (mmol/g)
0.553963	0.457786
7.00793	3.84231
15.7607	6.1246
25.6717	7.48409
34.7463	8.17278
41.5456	8.9725
49.2131	9.0978
56.7343	9.40041
64.4001	9.59652
76.6083	9.92457
85.9854	9.83386
90.816	9.7882
