Adsorption isotherm of Ethanol, Ethyl acetate on ZIF-8
DOI: 10.1021/acs.iecr.8b00719
Article source: Figure 5
Adsorbate Ethanol: InChIKey LFQSCWFLJHTTHZ-UHFFFAOYSA-N
Adsorbate Ethyl acetate: InChIKey XEKOWRVHYACXOJ-UHFFFAOYSA-N
Kind: experiment
Temperature: 303 K
Tabular data in the source: 0
pressure (bar)	Ethanol fraction	Ethanol uptake (mg/g)	Ethyl acetate fraction	Ethyl acetate uptake (mg/g)	total uptake (mg/g)
0.00263	0.5	25.665	0.5	97.803	
0.005935	0.5	30.867	0.5	152.6	
0.008445	0.5	40.925	0.5	194.57	
0.014709	0.5	37.457	0.5	215.03	
0.020975	0.5	38.844	0.5	220.58	
0.029406	0.5	44.046	0.5	225.78	
0.041938	0.5	46.821	0.5	223.7	
0.053905	0.5	62.428	0.5	265.66	
0.073961	0.5	82.197	0.5	265.32	
0.097659	0.5	92.948	0.5	266.71	
0.12786	0.5	125.2	0.5	272.25	
