Adsorption isotherm of Ethyl acetate on ZIF-8
DOI: 10.1021/acs.iecr.8b00719
Article source: Figure S6
Adsorbate Ethyl acetate: InChIKey XEKOWRVHYACXOJ-UHFFFAOYSA-N
Kind: experiment
Temperature: 303 K
Tabular data in the source: 0
pressure (bar)	uptake (mmol/g)
0.000612	0.504
0.00147	0.943
0.00178	1.36
0.00208	1.64
0.00226	1.92
0.00269	2.36
0.00807	3.07
0.0137	3.27
0.0192	3.38
0.0238	3.45
0.031	3.51
0.039	3.55
0.0458	3.61
0.0524	3.63
0.0562	3.65
0.0601	3.67
0.0671	3.7
0.0741	3.72
0.082	3.74
