Adsorption isotherm of Ethanol on ZIF-8
DOI: 10.1021/acs.iecr.8b00719
Article source: Figure S6
Adsorbate Ethanol: InChIKey LFQSCWFLJHTTHZ-UHFFFAOYSA-N
Kind: experiment
Temperature: 303 K
Tabular data in the source: 0
pressure (bar)	uptake (mmol/g)
0.00411	0.319
0.00735	1.15
0.01	3.5
0.0196	4.84
0.0358	5.26
0.0491	5.49
0.0679	5.68
0.0797	5.81
