Adsorption isotherm of Carbon Dioxide on MAXSORB
DOI: 10.1007/s10450-015-9684-6
Article source: Figure 8
Adsorbate Carbon Dioxide: InChIKey CURLTUGMZLYLDI-UHFFFAOYSA-N
Kind: experiment
Isotherm type: absolute
Temperature: 298 K
Tabular data in the source: 0
pressure (bar)	uptake (mmol/g)
0.846616	2.57635
1.66105	4.55857
3.22419	7.73075
4.85678	10.6061
7.51385	14.078
9.96765	16.9554
12.9012	19.6359
17.678	23.6081
20.2039	25.3965
26.3474	29.9662
