Adsorption isotherm of Nitrogen on MAXSORB
DOI: 10.1007/s10450-015-9684-6
Article source: Figure 2
Adsorbate Nitrogen: InChIKey IJGRMHOSHXDMSA-UHFFFAOYSA-N
Kind: experiment
Isotherm type: absolute
Temperature: 77 K
Tabular data in the source: 0
pressure (bar)	uptake (mmol/g)
1.27499	0.557522
2.805	1.22124
4.81396	1.93805
6.15369	2.33628
11.4175	3.79646
13.715	4.32743
18.5025	5.23009
24.44	6.15929
35.9343	7.53982
