Adsorption isotherm of Methane on MAXSORB
DOI: 10.1007/s10450-015-9684-6
Article source: Figure 1
Adsorbate Methane: InChIKey VNWKTOKETHGBQD-UHFFFAOYSA-N
Kind: experiment
Temperature: 298 K
Tabular data in the source: 0
pressure (bar)	uptake (mmol/g)
1.3198	1.32515
1.82741	1.57055
2.53807	2.1227
4.06091	2.8589
4.56853	3.47239
7.20812	4.39264
10.2538	5.80368
13.401	6.47853
13.6041	6.84663
18.5787	8.07362
23.3503	8.74847
28.8325	10.0368
30.6599	10.1595
35.533	10.9571
38.9848	11.0184
