Adsorption isotherm of Nitrogen on MAXSORB
DOI: 10.1007/s10450-015-9684-6
Article source: Figure 1
Adsorbate Nitrogen: InChIKey IJGRMHOSHXDMSA-UHFFFAOYSA-N
Kind: experiment
Isotherm type: absolute
Temperature: 298 K
Tabular data in the source: 0
pressure (bar)	uptake (mmol/g)
1.14378	0.556908
2.8412	1.24474
4.79475	1.96525
6.07045	2.35817
11.4322	3.83138
13.6475	4.32228
18.4219	5.23835
24.3948	6.15394
35.8361	7.55908
