Adsorption isotherm of Methane on MAXSORB
DOI: 10.1007/s10450-015-9684-6
Article source: Figure 1
Adsorbate Methane: InChIKey VNWKTOKETHGBQD-UHFFFAOYSA-N
Kind: experiment
Isotherm type: absolute
Temperature: 298 K
Tabular data in the source: 0
pressure (bar)	uptake (mmol/g)
1.49573	1
1.82234	1.35714
2.47558	2.07143
4.05372	3.14286
4.53297	3.92857
6.9536	5.28571
10.0366	7.14286
13.0739	8.07143
13.3944	8.57143
18.2753	10.3571
22.9396	11.2143
28.4188	13
30.2015	13.2857
34.942	14.3571
38.4402	14.5
