Adsorption isotherm of Carbon Dioxide on Cu-BTC
DOI: 10.1007/s10450-015-9684-6
Article source: Figure 3
Adsorbate Carbon Dioxide: InChIKey CURLTUGMZLYLDI-UHFFFAOYSA-N
Kind: experiment
Isotherm type: absolute
Temperature: 303 K
Tabular data in the source: 0
pressure (bar)	uptake (mmol/g)
0.215109	0
1.33681	0
1.68856	0
3.73197	0
4.89762	0
6.51507	0
7.23215	0
8.31455	0
11.3662	0
11.6476	0
15.5157	0
18.0548	0
20.9348	0
29.2474	0
30.9649	0
