Adsorption isotherm of Methane on CuBTC
DOI: 10.1007/s10450-015-9684-6
Article source: Figure 3
Adsorbate Methane: InChIKey VNWKTOKETHGBQD-UHFFFAOYSA-N
Kind: experiment
Isotherm type: absolute
Temperature: 303 K
Tabular data in the source: 0
pressure (bar)	uptake (mmol/g)
0.868546	0.985714
1.94901	1.75714
3.12027	2.44286
4.3821	3.08571
6.09574	3.72857
7.9901	4.37143
9.52388	4.84286
11.8707	5.35714
12.8636	5.57143
13.3152	5.61429
15.9335	6.04286
18.1005	6.38571
20.3582	6.64286
24.6936	7.02857
25.2354	7.11429
34.5398	7.67143
