Adsorption isotherm of Methane on CuBTC
DOI: 10.1007/s10450-015-9684-6
Article source: Figure 3
Adsorbate Methane: InChIKey VNWKTOKETHGBQD-UHFFFAOYSA-N
Kind: experiment
Temperature: 303 K
Tabular data in the source: 0
pressure (bar)	uptake (mmol/g)
0.769743	0.863722
1.954	1.72719
3.08793	2.41785
4.42954	3.05899
6.03022	3.69998
7.9936	4.34074
9.44034	4.80899
11.7677	5.30138
12.8018	5.54765
13.2161	5.57209
15.8546	6.0396
18.028	6.35924
20.3057	6.60475
24.6546	6.99713
25.2755	7.09551
34.4419	7.63306
