Adsorption isotherm of Carbon Dioxide on CuBTC
DOI: 10.1007/s10450-015-9684-6
Article source: Figure 4
Adsorbate Carbon Dioxide: InChIKey CURLTUGMZLYLDI-UHFFFAOYSA-N
Kind: experiment
Temperature: 77 K
Tabular data in the source: 0
pressure (bar)	uptake (mmol/g)
0.201415	1.46528
1.43352	5.50349
1.70758	6.35023
3.71202	8.95651
3.9199	9.11947
4.95982	9.8366
6.55593	10.6193
7.31969	10.9129
8.43111	11.2394
11.4887	11.8931
11.7667	11.9584
15.66	12.4174
18.2328	12.6474
21.0146	12.8125
29.3606	13.1774
31.0996	13.2114
