Adsorption isotherm of Carbon Dioxide on CuBTC
DOI: 10.1007/s10450-015-9684-6
Article source: Figure 3
Adsorbate Carbon Dioxide: InChIKey CURLTUGMZLYLDI-UHFFFAOYSA-N
Kind: experiment
Temperature: 303 K
Tabular data in the source: 0
pressure (bar)	uptake (mmol/g)
0.244569	1.67886
1.30195	5.23376
1.71092	5.87549
3.60799	8.1953
3.81524	8.19518
4.89821	8.7871
6.39548	9.40346
7.2729	9.79798
8.30811	9.9208
11.3536	11.2523
11.6705	10.5607
15.5463	11.7435
18.1421	11.1493
20.9334	11.913
29.327	11.9325
30.9853	11.9068
