Adsorption isotherm of Methane on Cu-BTC
DOI: 10.1007/s10450-015-9684-6
Article source: Figure 6
Adsorbate Methane: InChIKey VNWKTOKETHGBQD-UHFFFAOYSA-N
Kind: experiment
Isotherm type: absolute
Temperature: 303 K
Tabular data in the source: 0
pressure (bar)	uptake (mmol/g)
0.475347	0
1.11133	0
4.98382	0
10.0077	0
