Adsorption isotherm of Carbon Dioxide on Cu-BTC
DOI: 10.1007/s10450-015-9684-6
Article source: Figure 8
Adsorbate Carbon Dioxide: InChIKey CURLTUGMZLYLDI-UHFFFAOYSA-N
Kind: experiment
Isotherm type: absolute
Temperature: 298 K
Tabular data in the source: 0
pressure (bar)	uptake (mmol/g)
0.272109	0
1.36054	0
1.76871	0
3.7415	0
4.01361	0
5.03401	0
6.53061	0
7.34694	0
8.36735	0
11.4286	0
11.7007	0
15.5782	0
18.1633	0
20.9524	0
29.2517	0
