Adsorption isotherm of Carbon Dioxide on MAXSORB
DOI: 10.1007/s10450-015-9684-6
Article source: Figure 1
Adsorbate Carbon Dioxide: InChIKey CURLTUGMZLYLDI-UHFFFAOYSA-N
Kind: experiment
Temperature: 298 K
Tabular data in the source: 0
pressure (bar)	uptake (mmol/g)
0.923572	2.57032
1.72668	4.80538
3.23743	7.78341
4.95123	10.7605
7.57723	14.1064
10.0025	16.8936
12.9353	19.6785
17.7926	23.5737
20.2224	25.2415
26.3964	29.8769
33.5918	33.015
39.4712	35.2263
