Adsorption isotherm of Carbon Dioxide on MAXSORB
DOI: 10.1007/s10450-015-9684-6
Article source: Figure 1
Adsorbate Carbon Dioxide: InChIKey CURLTUGMZLYLDI-UHFFFAOYSA-N
Kind: experiment
Isotherm type: absolute
Temperature: 298 K
Tabular data in the source: 0
pressure (bar)	uptake (mmol/g)
0.770878	2.63158
1.62741	4.68421
3.16916	7.68421
4.79657	10.6842
7.45182	14.1579
9.93576	17
12.9336	19.5263
17.7302	23.6316
20.2141	25.3684
26.3812	29.9474
33.576	33.2632
39.4861	35.7895
