Adsorption isotherm of Carbon Dioxide on Cu-BTC
DOI: 10.1007/s10450-015-9684-6
Article source: Figure 6
Adsorbate Carbon Dioxide: InChIKey CURLTUGMZLYLDI-UHFFFAOYSA-N
Kind: experiment
Isotherm type: absolute
Temperature: 303 K
Tabular data in the source: 0
pressure (bar)	uptake (mmol/g)
0.239362	0
0.452128	0
1.11702	0
4.9734	0
10	0
