Adsorption isotherm of Methane on Cu-BTC
DOI: 10.1007/s10450-015-9684-6
Article source: Figure 4
Adsorbate Methane: InChIKey VNWKTOKETHGBQD-UHFFFAOYSA-N
Kind: experiment
Isotherm type: absolute
Temperature: 303 K
Tabular data in the source: 0
pressure (bar)	uptake (mmol/g)
0.871296	0
2.04608	0
3.04035	0
4.491	0
6.03376	0
7.94126	0
9.48679	0
11.7595	0
12.8514	0
13.3069	0
15.855	0
18.0393	0
20.3161	0
24.6884	0
25.2342	0
34.4365	0
