Adsorption isotherm of Carbon Dioxide on Cu-BTC
DOI: 10.1007/s10450-015-9684-6
Article source: Figure 4
Adsorbate Carbon Dioxide: InChIKey CURLTUGMZLYLDI-UHFFFAOYSA-N
Kind: experiment
Isotherm type: absolute
Temperature: 303 K
Tabular data in the source: 0
pressure (bar)	uptake (mmol/g)
0.136992	0
1.28173	0
1.63791	0
3.61831	0
3.88972	0
4.88548	0
6.42793	0
7.2456	0
8.33683	0
11.3395	0
11.7034	0
15.6201	0
18.1712	0
20.9958	0
29.3814	0
31.1135	0
