Adsorption isotherm of Methane on CuBTC
DOI: 10.1007/s10450-015-9684-6
Article source: Figure 4
Adsorbate Methane: InChIKey VNWKTOKETHGBQD-UHFFFAOYSA-N
Kind: experiment
Temperature: 77 K
Tabular data in the source: 0
pressure (bar)	uptake (mmol/g)
0.899491	0.977476
2.008	1.89001
3.18672	2.67236
4.50473	3.42227
6.10117	4.13985
8.11499	4.85777
9.50435	5.2496
11.8665	5.87012
12.9786	6.06638
13.2563	6.16428
15.9669	6.65486
18.1914	6.98225
20.3464	7.27703
24.7962	7.76902
25.283	7.80197
34.462	8.52572
