Adsorption isotherm of Nitrogen on MAXSORB
DOI: 10.1007/s10450-015-9684-6
Article source: Figure 1
Adsorbate Nitrogen: InChIKey IJGRMHOSHXDMSA-UHFFFAOYSA-N
Kind: experiment
Temperature: 298 K
Tabular data in the source: 0
pressure (bar)	uptake (mmol/g)
1.11675	0.566359
2.84264	1.27042
4.77157	1.89739
6.19289	2.36755
11.4721	3.85866
13.6041	4.36972
18.4772	5.27712
24.467	6.26544
35.9391	7.61924
