Adsorption isotherm of Nitrogen on Norit R1 Extra
DOI: 10.1007/s10450-015-9684-6
Article source: Figure 2
Adsorbate Nitrogen: InChIKey IJGRMHOSHXDMSA-UHFFFAOYSA-N
Kind: experiment
Isotherm type: absolute
Temperature: 77 K
Tabular data in the source: 0
pressure (bar)	uptake (mmol/g)
0.411221	0.257571
0.886197	0.524068
1.16948	0.790394
5.07194	2.49674
9.84252	3.85795
19.6861	5.64939
29.1574	6.7487
39.6867	7.60948
