Adsorption isotherm of Carbon Dioxide on Ordered Mesoporous Carbon: oaC-AO1
DOI: 10.1016/j.carbon.2013.10.018
Article source: Figure 4a
Adsorbate Carbon Dioxide: InChIKey CURLTUGMZLYLDI-UHFFFAOYSA-N
Kind: experiment
Temperature: 273 K
Tabular data in the source: 0
pressure (bar)	uptake (mmol/g)
0.018445	0.521022
0.038208	0.732588
0.051383	0.838344
0.075099	1.00102
0.098814	1.13926
0.125165	1.26934
0.150198	1.375
0.173913	1.47253
0.200264	1.56189
0.225296	1.64312
0.249012	1.71621
0.274045	1.79744
0.299078	1.86239
0.326746	1.93545
0.350461	2.0004
0.375494	2.0572
0.397892	2.11402
0.499341	2.31678
0.599473	2.50326
0.699605	2.67346
0.799736	2.82736
0.949934	3.03787
0.988142	3.09456
