Adsorption isotherm of Carbon Dioxide on Ordered Mesoporous Carbon: oaC-AO2
DOI: 10.1016/j.carbon.2013.10.018
Article source: Figure 4b
Adsorbate Carbon Dioxide: InChIKey CURLTUGMZLYLDI-UHFFFAOYSA-N
Kind: experiment
Temperature: 298 K
Tabular data in the source: 0
pressure (bar)	uptake (mmol/g)
0.00394	0.005935
0.023624	0.089021
0.043313	0.154303
0.05513	0.183976
0.080076	0.249258
0.105022	0.31454
0.132597	0.373887
0.152296	0.409496
0.181186	0.468843
0.199571	0.504451
0.233716	0.569733
0.256041	0.611276
0.27443	0.635015
0.303324	0.682493
0.330905	0.724036
0.358487	0.765579
0.382128	0.801187
0.405772	0.830861
0.502971	0.95549
0.609369	1.08012
0.706575	1.18694
0.807722	1.29377
0.958792	1.4362
