Adsorption isotherm of Carbon Dioxide on Ordered Mesoporous Carbon: oaC
DOI: 10.1016/j.carbon.2013.10.018
Article source: Figure 4b
Adsorbate Carbon Dioxide: InChIKey CURLTUGMZLYLDI-UHFFFAOYSA-N
Kind: experiment
Temperature: 298 K
Tabular data in the source: 0
pressure (bar)	uptake (mmol/g)
0.019737	0.136499
0.035526	0.243323
0.048684	0.31454
0.076316	0.456973
0.102632	0.569733
0.126316	0.682493
0.15	0.765579
0.175	0.854599
0.2	0.94362
0.226316	1.02671
0.252632	1.10386
0.278947	1.17507
0.301316	1.24629
0.328947	1.32344
0.352632	1.38872
0.378947	1.45401
0.402632	1.51335
0.502632	1.74481
0.601316	1.95252
0.702632	2.14837
0.803947	2.33234
0.953947	2.58754
0.989474	2.65282
