Adsorption isotherm of Carbon Dioxide on Ordered Mesoporous Carbon: aC
DOI: 10.1016/j.carbon.2013.10.018
Article source: Figure 4a
Adsorbate Carbon Dioxide: InChIKey CURLTUGMZLYLDI-UHFFFAOYSA-N
Kind: experiment
Temperature: 273 K
Tabular data in the source: 0
pressure (bar)	uptake (mmol/g)
0.017128	0.26859
0.036891	0.496442
0.048748	0.634782
0.076416	0.91143
0.102767	1.0578
0.126482	1.25304
0.152833	1.40755
0.175231	1.57023
0.201581	1.73289
0.225296	1.87927
0.251647	2.00935
0.275362	2.13945
0.299078	2.26955
0.325428	2.39963
0.350461	2.52158
0.374177	2.63539
0.400527	2.74918
0.503294	3.19623
0.600791	3.6026
0.70224	3.97637
0.801054	4.34201
0.951252	4.82939
0.98946	4.95937
