Adsorption isotherm of Carbon Dioxide on Ordered Mesoporous Carbon: oaC-AO2
DOI: 10.1016/j.carbon.2013.10.018
Article source: Figure 4a
Adsorbate Carbon Dioxide: InChIKey CURLTUGMZLYLDI-UHFFFAOYSA-N
Kind: experiment
Temperature: 273 K
Tabular data in the source: 0
pressure (bar)	uptake (mmol/g)
0.002635	0.008122
0.02108	0.170838
0.038208	0.284705
0.056654	0.382275
0.081686	0.504221
0.104084	0.601758
0.130435	0.707407
0.14888	0.780547
0.179183	0.869876
0.209486	0.959206
0.223979	1.00795
0.258235	1.09725
0.274045	1.13783
0.306983	1.219
0.335968	1.29205
0.347826	1.32453
0.380764	1.39755
0.40448	1.44622
0.507246	1.64896
0.604743	1.81104
0.706192	1.97308
0.807642	2.12697
0.961792	2.3293
