Adsorption isotherm of Carbon Dioxide on Ordered Mesoporous Carbon: aC-AO1
DOI: 10.1016/j.carbon.2013.10.018
Article source: Figure 4a
Adsorbate Carbon Dioxide: InChIKey CURLTUGMZLYLDI-UHFFFAOYSA-N
Kind: experiment
Temperature: 273 K
Tabular data in the source: 0
pressure (bar)	uptake (mmol/g)
0.018445	0.301153
0.035573	0.48831
0.051383	0.651047
0.076416	0.83814
0.100132	1.00081
0.125165	1.16348
0.150198	1.32614
0.172596	1.43996
0.198946	1.5619
0.225296	1.70012
0.249012	1.81393
0.275362	1.92773
0.299078	2.0334
0.328063	2.16345
0.351779	2.26098
0.374177	2.35037
0.399209	2.44789
0.500659	2.81351
0.599473	3.15473
0.70224	3.45519
0.802372	3.73125
0.949934	4.12093
0.990777	4.2346
