Adsorption isotherm of Carbon Dioxide on Ordered Mesoporous Carbon: aC-AO2
DOI: 10.1016/j.carbon.2013.10.018
Article source: Figure 4b
Adsorbate Carbon Dioxide: InChIKey CURLTUGMZLYLDI-UHFFFAOYSA-N
Kind: experiment
Temperature: 298 K
Tabular data in the source: 0
pressure (bar)	uptake (mmol/g)
0.064474	0.261128
0.078947	0.338279
0.098684	0.451039
0.128947	0.581602
0.148684	0.635015
0.180263	0.718101
0.201316	0.824926
0.228947	0.896142
0.25	0.95549
0.280263	1.04451
0.301316	1.09199
0.323684	1.17507
0.352632	1.22255
0.377632	1.29377
0.398684	1.34125
0.503947	1.58457
0.605263	1.79228
0.705263	1.9822
0.802632	2.18398
0.953947	2.43917
0.996053	2.49852
