Adsorption isotherm of Nitrogen on Ordered Mesoporous Carbon: oaC-AO2
DOI: 10.1016/j.carbon.2013.10.018
Article source: Figure 3a
Adsorbate Nitrogen: InChIKey IJGRMHOSHXDMSA-UHFFFAOYSA-N
Kind: experiment
Temperature: 77 K
Tabular data in the source: 0
pressure (bar)	uptake (cm3(STP)/g)
0.001723	83.5078
0.00517	92.7914
0.008616	95.8894
0.012063	100.534
0.013786	106.722
0.020679	109.825
0.025848	112.926
0.031018	114.48
0.041357	116.042
0.049973	117.602
0.074098	125.371
0.099946	128.503
0.125795	131.635
0.151643	136.314
0.175767	139.444
0.203339	142.578
0.229187	145.711
0.253312	148.84
0.279161	151.972
0.305009	153.558
0.32741	155.139
0.353258	159.817
0.354982	164.459
0.403232	164.533
0.406679	170.724
0.42908	167.665
0.454929	169.251
0.458375	176.988
0.479053	173.927
0.504901	177.059
0.506625	184.794
0.52558	178.637
0.527303	189.465
0.544536	183.305
0.547982	192.589
0.553151	183.318
0.56866	197.26
0.573831	187.989
0.580723	189.546
0.585893	191.1
0.587616	201.928
0.58934	191.106
0.596232	192.663
0.601401	194.217
0.608295	194.227
0.611741	212.789
0.613464	195.782
0.622081	198.888
0.62725	200.442
0.630696	222.097
0.635866	203.548
0.641036	205.102
0.642759	231.393
0.647929	205.113
0.656544	206.672
0.658268	208.221
0.661714	209.773
0.665161	256.17
0.666884	211.327
0.672053	212.881
0.678946	214.438
0.684116	215.993
0.689286	220.64
0.694455	299.513
0.703072	223.753
0.709964	228.403
0.713411	319.645
0.715134	228.411
0.720303	233.058
0.727196	236.161
0.730642	327.404
0.734089	240.811
0.739259	243.912
0.746152	247.015
0.749598	332.072
0.753044	251.665
0.758214	254.765
0.768553	264.06
0.770277	332.103
0.775446	270.256
0.778892	274.9
0.787509	281.099
0.790955	333.681
0.797848	293.486
0.808187	302.78
0.809911	333.71
0.827143	318.273
0.835759	333.75
0.851268	330.681
0.861607	333.789
0.866777	333.797
0.887455	335.375
0.91158	335.412
0.918474	333.876
0.930535	335.441
0.944322	335.462
0.956384	335.48
0.961554	335.488
0.978785	335.514
1.0098	337.108
