Adsorption isotherm of Nitrogen on Ordered Mesoporous Carbon: aC
DOI: 10.1016/j.carbon.2013.10.018
Article source: Figure 3a
Adsorbate Nitrogen: InChIKey IJGRMHOSHXDMSA-UHFFFAOYSA-N
Kind: experiment
Temperature: 77 K
Tabular data in the source: 0
pressure (bar)	uptake (cm3(STP)/g)
0.005174	364.341
0.006899	372.093
0.008623	393.798
0.013797	406.202
0.017247	413.953
0.020696	418.605
0.02587	429.457
0.02932	437.209
0.039668	449.612
0.048291	460.465
0.072437	479.07
0.096582	493.023
0.127626	506.977
0.153496	517.829
0.181091	527.132
0.210411	534.884
0.232832	542.636
0.258702	548.837
0.282848	555.039
0.293196	559.69
0.305269	561.24
0.331139	567.442
0.357009	575.194
0.400126	584.496
0.407025	589.147
0.427721	592.248
0.451866	606.202
0.479461	606.202
0.505331	612.403
0.508781	675.969
0.524303	618.605
0.531201	693.023
0.544999	626.357
0.548449	708.527
0.555347	629.457
0.56742	632.558
0.570869	730.233
0.576044	635.659
0.584667	638.76
0.589841	753.488
0.59329	641.86
0.601914	646.512
0.610537	651.163
0.613986	776.744
0.619161	654.264
0.627783	658.915
0.634683	798.45
0.636407	662.016
0.645031	666.667
0.651929	671.318
0.653654	815.504
0.660553	675.969
0.669177	680.62
0.672626	823.256
0.677799	685.271
0.688148	691.473
0.691597	827.907
0.695046	697.674
0.701945	705.426
0.708843	834.109
0.710569	711.628
0.717467	717.829
0.724366	722.481
0.727815	727.132
0.731265	835.659
0.732989	731.783
0.739888	737.984
0.743337	741.085
0.748511	747.287
0.750237	838.76
0.753686	751.938
0.758859	758.14
0.765759	764.341
0.770932	838.76
0.774381	775.194
0.779556	781.395
0.786454	790.698
0.791629	840.31
0.796803	803.101
0.807151	813.953
0.8106	840.31
0.838195	841.86
0.86579	841.86
0.888211	843.411
0.908907	843.411
0.926154	843.411
0.94685	844.961
0.97272	844.961
1.00204	846.512
