Adsorption isotherm of Nitrogen on Ordered Mesoporous Carbon: oaC-AO1
DOI: 10.1016/j.carbon.2013.10.018
Article source: Figure 3a
Adsorbate Nitrogen: InChIKey IJGRMHOSHXDMSA-UHFFFAOYSA-N
Kind: experiment
Temperature: 77 K
Tabular data in the source: 0
pressure (bar)	uptake (cm3(STP)/g)
0.003446	0.003401
0.006893	151.557
0.008616	154.652
0.013786	160.846
0.018955	163.946
0.022402	168.591
0.025848	170.143
0.031018	174.79
0.041357	179.445
0.049973	184.097
0.075821	191.868
0.099946	199.637
0.127518	207.411
0.151643	212.087
0.177491	219.859
0.201616	222.988
0.227464	229.213
0.253312	232.345
0.277438	237.021
0.287777	243.223
0.303286	241.7
0.329134	246.379
0.339473	252.58
0.353258	249.508
0.403232	258.863
0.406679	263.507
0.42908	263.541
0.453205	268.217
0.454929	286.777
0.479053	274.442
0.504901	279.121
0.506625	357.99
0.52558	283.792
0.527303	365.753
0.544536	288.46
0.547982	371.97
0.556598	291.571
0.563491	294.674
0.566938	379.731
0.570384	296.231
0.577277	297.788
0.58417	300.892
0.587616	384.402
0.591062	302.448
0.596232	304.003
0.601401	307.103
0.608295	308.66
0.613464	310.215
0.618634	313.315
0.625527	314.872
0.628973	390.651
0.630696	317.973
0.635866	317.981
0.639312	321.079
0.646205	322.636
0.647929	393.772
0.649651	324.187
0.654822	325.742
0.659992	327.296
0.665161	330.397
0.668607	331.948
0.673777	335.049
0.68067	336.606
0.68584	339.707
0.689286	393.835
0.691009	342.807
0.696179	344.361
0.701348	347.462
0.708241	395.411
0.713411	353.666
0.720303	355.223
0.727196	359.873
0.72892	395.442
0.732366	361.427
0.737536	364.528
0.744429	367.631
0.749598	395.474
0.751322	370.734
0.758214	373.838
0.763384	378.485
0.770277	397.052
0.773723	381.593
0.778892	383.147
0.789233	386.256
0.790955	397.083
0.799572	389.365
0.809911	398.659
0.828866	397.141
0.835759	397.152
0.842652	398.709
0.849544	398.719
0.866777	398.746
0.890902	400.329
0.909857	400.358
0.918474	400.371
0.935705	400.397
0.944322	401.957
0.958107	403.524
0.980509	408.197
1.00636	417.515
