Adsorption isotherm of Carbon Dioxide on Ordered Mesoporous Carbon: oaC-AO1
DOI: 10.1016/j.carbon.2013.10.018
Article source: Figure 4b
Adsorbate Carbon Dioxide: InChIKey CURLTUGMZLYLDI-UHFFFAOYSA-N
Kind: experiment
Temperature: 298 K
Tabular data in the source: 0
pressure (bar)	uptake (mmol/g)
0.018421	0.255193
0.03421	0.367953
0.05	0.456973
0.075	0.575668
0.098684	0.658754
0.123684	0.753709
0.148684	0.824926
0.175	0.896142
0.198684	0.95549
0.225	1.01484
0.248684	1.07418
0.273684	1.1276
0.298684	1.17507
0.325	1.22255
0.348684	1.26409
0.375	1.31157
0.398684	1.35312
0.498684	1.50148
0.598684	1.63798
0.698684	1.75668
0.8	1.87537
0.95	2.02967
0.988158	2.06528
