Adsorption isotherm of Nitrogen on Ordered Mesoporous Carbon: aC-AO2
DOI: 10.1016/j.carbon.2013.10.018
Article source: Figure 3a
Adsorbate Nitrogen: InChIKey IJGRMHOSHXDMSA-UHFFFAOYSA-N
Kind: experiment
Temperature: 77 K
Tabular data in the source: 0
pressure (bar)	uptake (cm3(STP)/g)
0	286.822
0.001725	308.527
0.005174	316.279
0.006899	324.031
0.008623	330.233
0.015522	341.085
0.017247	345.736
0.018971	348.837
0.024146	356.589
0.02932	364.341
0.039668	373.643
0.050016	381.395
0.074161	396.899
0.100031	407.752
0.125901	417.054
0.151772	424.806
0.179367	431.008
0.203512	437.209
0.229383	443.411
0.253528	449.612
0.279399	454.264
0.303543	462.016
0.305269	463.566
0.329414	466.667
0.355284	472.868
0.401851	482.171
0.407025	486.822
0.429446	488.372
0.453591	494.574
0.46049	499.225
0.479461	499.225
0.507057	513.178
0.526028	511.628
0.527752	519.38
0.548449	517.829
0.558796	519.38
0.569145	536.434
0.572594	524.031
0.586391	527.132
0.589841	545.736
0.595015	533.333
0.600189	550.388
0.608812	536.434
0.617436	541.085
0.62261	544.186
0.629509	547.287
0.634683	548.837
0.641581	550.388
0.645031	592.248
0.64848	555.039
0.653654	556.589
0.658828	559.69
0.664002	561.24
0.669177	565.891
0.672626	637.209
0.67435	568.992
0.679524	573.643
0.682974	575.194
0.688148	576.744
0.693321	706.977
0.695046	579.845
0.698496	584.496
0.705394	590.698
0.708843	761.24
0.714018	598.45
0.717467	603.101
0.722641	606.202
0.727815	610.853
0.732989	617.054
0.734714	803.101
0.738164	621.705
0.743337	629.457
0.750237	635.659
0.751961	815.504
0.75541	641.86
0.760584	649.612
0.765759	657.364
0.769208	665.116
0.770932	817.054
0.774381	672.868
0.779556	682.171
0.786454	699.225
0.791629	818.605
0.796803	720.93
0.808875	745.736
0.812325	820.155
0.826122	778.295
0.83647	820.155
0.843369	821.705
0.851992	810.853
0.867514	817.054
0.888211	821.705
0.910631	823.256
0.91753	823.256
0.931328	821.705
0.943401	821.705
0.955473	821.705
0.979619	821.705
1.00204	823.256
1.00894	823.256
