Adsorption isotherm of Nitrogen on Ordered Mesoporous Carbon: oaC
DOI: 10.1016/j.carbon.2013.10.018
Article source: Figure 3a
Adsorbate Nitrogen: InChIKey IJGRMHOSHXDMSA-UHFFFAOYSA-N
Kind: experiment
Temperature: 77 K
Tabular data in the source: 0
pressure (bar)	uptake (cm3(STP)/g)
0.001723	253.611
0.006893	269.083
0.008616	284.549
0.010339	292.284
0.015509	306.209
0.020679	309.31
0.025848	318.596
0.029295	321.694
0.041357	332.537
0.049973	340.282
0.075821	355.786
0.098223	368.191
0.125795	377.512
0.151643	386.829
0.179215	393.057
0.205063	400.828
0.229187	407.051
0.251589	411.724
0.279161	417.952
0.287777	421.058
0.301562	422.625
0.329134	428.853
0.341197	431.964
0.353258	433.529
0.403232	442.883
0.406679	444.435
0.427357	447.559
0.454929	456.88
0.456652	463.068
0.479053	460.009
0.503179	466.232
0.506625	528.093
0.52558	470.905
0.527303	540.495
0.546259	477.122
0.547982	555.991
0.556598	480.231
0.565214	484.883
0.56866	576.126
0.570384	486.438
0.577277	487.994
0.58417	489.551
0.58934	591.621
0.591062	492.655
0.596232	494.209
0.603125	497.312
0.608295	498.867
0.610018	607.117
0.615188	500.423
0.625527	505.078
0.628973	621.063
0.630696	508.179
0.646205	512.842
0.647929	631.917
0.654822	517.494
0.659992	520.595
0.670331	642.776
0.673777	528.348
0.677223	529.9
0.687562	534.554
0.692732	539.202
0.697902	542.302
0.704794	546.952
0.706518	653.656
0.711688	653.663
0.713411	553.151
0.722027	560.896
0.727196	563.996
0.739259	571.747
0.747875	582.585
0.749598	658.361
0.753044	585.685
0.758214	591.879
0.763384	596.526
0.770277	658.392
0.778892	610.467
0.787509	618.212
0.797848	629.053
0.808187	636.8
0.809911	659.999
0.828866	650.75
0.835759	660.038
0.840929	660.046
0.849544	656.967
0.8685	660.088
0.887455	661.664
0.91158	661.701
0.942598	663.294
0.958107	663.318
0.978785	663.349
0.987402	663.363
