Adsorption isotherm of Carbon Dioxide on Ordered Mesoporous Carbon: oaC
DOI: 10.1016/j.carbon.2013.10.018
Article source: Figure 4a
Adsorbate Carbon Dioxide: InChIKey CURLTUGMZLYLDI-UHFFFAOYSA-N
Kind: experiment
Temperature: 273 K
Tabular data in the source: 0
pressure (bar)	uptake (mmol/g)
0.018445	0.016136
0.036891	0.072989
0.048748	0.186899
0.075099	0.471701
0.101449	0.691356
0.126482	0.886592
0.150198	1.05741
0.173913	1.22008
0.200264	1.36645
0.225296	1.48025
0.249012	1.62664
0.275362	1.74043
0.299078	1.85424
0.325428	1.95989
0.351779	2.0574
0.374177	2.19565
0.400527	2.27687
0.500659	2.60993
0.602108	2.93484
0.70224	3.22718
0.801054	3.49511
0.952569	3.86846
0.990777	3.96587
