Adsorption isotherm of Carbon Dioxide on Ordered Mesoporous Carbon: aC
DOI: 10.1016/j.carbon.2013.10.018
Article source: Figure 4b
Adsorbate Carbon Dioxide: InChIKey CURLTUGMZLYLDI-UHFFFAOYSA-N
Kind: experiment
Temperature: 298 K
Tabular data in the source: 0
pressure (bar)	uptake (mmol/g)
0.076316	0.385757
0.101316	0.504451
0.171053	0.807122
0.197368	0.872404
0.219737	0.949555
0.251316	1.06231
0.276316	1.13947
0.3	1.21662
0.326316	1.2997
0.35	1.37092
0.375	1.44214
0.501316	1.77448
0.6	2.02374
0.701316	2.25519
0.802632	2.48665
0.951316	2.79525
0.990789	2.8724
