Adsorption isotherm of Carbon Dioxide on Ordered Mesoporous Carbon: aC-AO2
DOI: 10.1016/j.carbon.2013.10.018
Article source: Figure 4a
Adsorbate Carbon Dioxide: InChIKey CURLTUGMZLYLDI-UHFFFAOYSA-N
Kind: experiment
Temperature: 273 K
Tabular data in the source: 0
pressure (bar)	uptake (mmol/g)
0.022398	0.382554
0.043478	0.577822
0.067194	0.789355
0.079051	0.886978
0.097497	1.02526
0.129117	1.2123
0.14888	1.31801
0.180501	1.52133
0.202899	1.63516
0.229249	1.78152
0.251647	1.87091
0.280632	2.00912
0.301713	2.10666
0.322793	2.19607
0.351779	2.30984
0.375494	2.40737
0.397892	2.49676
0.504611	2.87863
0.606061	3.21168
0.704875	3.52032
0.802372	3.80454
0.953887	4.19419
0.996047	4.29971
