Adsorption isotherm of Nitrogen on Ordered Mesoporous Carbon: aC-AO1
DOI: 10.1016/j.carbon.2013.10.018
Article source: Figure 3a
Adsorbate Nitrogen: InChIKey IJGRMHOSHXDMSA-UHFFFAOYSA-N
Kind: experiment
Temperature: 77 K
Tabular data in the source: 0
pressure (bar)	uptake (cm3(STP)/g)
0.001725	238.76
0.003449	257.364
0.008623	275.969
0.017247	296.124
0.027595	306.977
0.039668	317.829
0.050016	325.581
0.074161	337.984
0.100031	345.736
0.127626	355.039
0.153496	361.24
0.179367	367.442
0.205237	373.643
0.231107	378.295
0.255253	382.946
0.279399	387.597
0.305269	393.798
0.329414	398.45
0.355284	403.101
0.401851	410.853
0.407025	413.953
0.429446	417.054
0.455316	421.705
0.46049	426.357
0.481186	426.357
0.507057	438.76
0.527752	444.961
0.546723	451.163
0.56742	455.814
0.569145	446.512
0.588117	466.667
0.591566	454.264
0.598464	471.318
0.610537	460.465
0.619161	485.271
0.624334	465.116
0.639856	471.318
0.64848	510.078
0.657104	477.519
0.665727	533.333
0.672626	486.822
0.689872	496.124
0.705394	506.977
0.712293	654.264
0.717467	517.829
0.731265	528.682
0.736439	688.372
0.741613	537.984
0.750237	699.225
0.757135	556.589
0.764034	564.341
0.770932	573.643
0.777831	587.597
0.786454	603.101
0.791629	703.876
0.798527	620.155
0.808875	640.31
0.8106	703.876
0.824397	668.217
0.83647	703.876
0.853717	697.674
0.860616	703.876
0.884761	705.426
0.912357	705.426
0.929603	705.426
0.945125	705.426
0.958923	705.426
0.981344	705.426
1.01066	706.977
