Adsorption isotherm of Carbon Dioxide on Ordered Mesoporous Carbon: aC-AO1
DOI: 10.1016/j.carbon.2013.10.018
Article source: Figure 4b
Adsorbate Carbon Dioxide: InChIKey CURLTUGMZLYLDI-UHFFFAOYSA-N
Kind: experiment
Temperature: 298 K
Tabular data in the source: 0
pressure (bar)	uptake (mmol/g)
0.076316	0.391691
0.1	0.486647
0.128947	0.599407
0.152632	0.676558
0.175	0.759644
0.2	0.824926
0.225	0.902077
0.251316	0.979228
0.275	1.04451
0.305263	1.12166
0.328947	1.16914
0.356579	1.24036
0.380263	1.30564
0.401316	1.35905
0.497368	1.57864
0.6	1.78635
0.701316	1.9822
0.8	2.16617
0.951316	2.4273
0.986842	2.49258
