Adsorption isotherm of Nitrogen on UHM-7
DOI: 10.1039/C3ce40594j
Adsorbate Nitrogen: InChIKey IJGRMHOSHXDMSA-UHFFFAOYSA-N
Temperature: 77 K
Tabular data in the source: 0
pressure (bar)	uptake (cm3(STP)/g)
0.000865	170.259
0.00372489	2.0744
0.00372489	120.49
0.00372489	145.661
0.00372489	207.443
0.00658518	256.068
0.0237469	295.54
0.045199	303.549
0.102405	316.706
0.15246	323.571
0.202515	329.291
0.268301	335.012
0.325507	340.16
0.522867	348.169
0.625837	353.318
0.824627	358.466
0.9562	361.898
