Adsorption isotherm of Hydrogen on UHM-7
DOI: 10.1039/C3ce40594j
Adsorbate Hydrogen: InChIKey UFHFLCQGNIYNRP-UHFFFAOYSA-N
Temperature: 77 K
Tabular data in the source: 0
pressure (bar)	uptake (wt%)
0.00421011	0.0152387
0.0126608	0.136929
0.0239284	0.243408
0.0408298	0.32707
0.0689988	0.451295
0.102802	0.552703
0.201393	0.773267
0.356323	0.991295
0.456323	1.10031
0.60421	1.22453
0.709844	1.29299
0.814069	1.3589
0.911252	1.41975
0.966182	1.45524
