Adsorption isotherm of Carbon Dioxide on UHM-7
DOI: 10.1039/C3ce40594j
Adsorbate Carbon Dioxide: InChIKey CURLTUGMZLYLDI-UHFFFAOYSA-N
Temperature: 298 K
Tabular data in the source: 0
pressure (bar)	uptake (mmol/g)
0.00984391	0.063426
0.0535059	0.262018
0.107027	0.443708
0.20421	0.743708
0.302802	0.993003
0.405619	1.2254
0.501393	1.43244
0.609844	1.66906
0.70421	1.84652
0.808435	2.05779
0.856323	2.14652
0.914069	2.24793
0.961957	2.33244
1.00421	2.4085
