Adsorption isotherm of Methane on UHM-7
DOI: 10.1039/C3ce40594j
Adsorbate Methane: InChIKey VNWKTOKETHGBQD-UHFFFAOYSA-N
Temperature: 298 K
Tabular data in the source: 0
pressure (bar)	uptake (mmol/g)
0.00139321	0.0127218
0.0492805	0.0211725
0.101393	0.0592007
0.153506	0.0845528
0.254914	0.139482
0.353506	0.194412
0.454914	0.245116
0.511252	0.270468
0.557731	0.300046
0.65914	0.354975
0.760548	0.409905
0.814069	0.439482
0.908435	0.481736
0.966182	0.498637
1.00421	0.53244
