Adsorption isotherm of Ethane on MIL-53(Al)-FA
DOI: 10.1021/acs.iecr.9b00183
Article source: Figure 5a
Adsorbate Ethane: InChIKey OTMSDBZUPAUEDD-UHFFFAOYSA-N
Kind: experiment
Temperature: 308 K
Tabular data in the source: 0
pressure (bar)	uptake (mmol/g)
0.00506	0.175
0.037	1.07
0.0825	1.85
0.134	2.37
0.182	2.66
0.242	2.92
0.302	3.11
0.353	3.24
0.412	3.35
0.471	3.44
0.53	3.52
0.587	3.58
0.645	3.64
0.704	3.7
0.763	3.74
0.82	3.78
0.879	3.82
0.937	3.86
0.995	3.89
