Adsorption isotherm of Ethene on MIL-53(Al)-FA
DOI: 10.1021/acs.iecr.9b00183
Article source: Figure 5a
Adsorbate Ethene: InChIKey VGGSQFUCUMXWEO-UHFFFAOYSA-N
Kind: experiment
Temperature: 308 K
Tabular data in the source: 0
pressure (bar)	uptake (mmol/g)
0.00506	0.0936
0.037	0.576
0.0795	1.11
0.134	1.64
0.181	1.98
0.241	2.31
0.3	2.57
0.354	2.75
0.413	2.92
0.471	3.07
0.53	3.18
0.587	3.29
0.646	3.38
0.704	3.47
0.762	3.54
0.82	3.61
0.878	3.68
0.937	3.74
0.995	3.79
