Adsorption isotherm of Ethane, Ethene on MIL-53(Al)-FA
DOI: 10.1021/acs.iecr.9b00183
Article source: Uptakes in text below Figure 10
Adsorbate Ethane: InChIKey OTMSDBZUPAUEDD-UHFFFAOYSA-N
Adsorbate Ethene: InChIKey VGGSQFUCUMXWEO-UHFFFAOYSA-N
Kind: experiment
Temperature: 308 K
Tabular data in the source: 0
pressure (bar)	Ethane fraction	Ethane uptake (mmol/g)	Ethene fraction	Ethene uptake (mmol/g)	total uptake (mmol/g)
1	0.063	0.38	0.938	3.18	
