Adsorption isotherm of Hydrogen on Co9(btc)6(tpt)2(H2O)15]
DOI: 10.1021/Cg200043a
Adsorbate Hydrogen: InChIKey UFHFLCQGNIYNRP-UHFFFAOYSA-N
Temperature: 77 K
Tabular data in the source: 0
pressure (bar)	uptake (cm3(STP)/g)
0.00823914	9.80068
0.0198627	18.9772
0.0343921	30.3385
0.0547333	45.6326
0.0896038	57.8679
0.14191	66.6074
0.194216	72.0696
0.310451	80.5906
0.415063	86.4898
0.563263	90.8595
0.757957	94.7923
1.03111	98.9435
