Adsorption isotherm of Carbon Dioxide on Co9(btc)6(tpt)2(H2O)15]
DOI: 10.1021/Cg200043a
Adsorbate Carbon Dioxide: InChIKey CURLTUGMZLYLDI-UHFFFAOYSA-N
Temperature: 273 K
Tabular data in the source: 0
pressure (bar)	uptake (cm3(STP)/g)
0.00823914	2.15363
0.0460156	8.48976
0.0808862	14.8259
0.14191	22.2545
0.211651	27.9351
0.330792	34.0528
0.444121	38.4225
0.598133	43.2293
0.801545	47.599
0.929404	50.0024
1.0747	52.4057
