Adsorption isotherm of Methane on Co9(btc)6(tpt)2(H2O)15]
DOI: 10.1021/Cg200043a
Adsorbate Methane: InChIKey VNWKTOKETHGBQD-UHFFFAOYSA-N
Temperature: 273 K
Tabular data in the source: 0
pressure (bar)	uptake (cm3(STP)/g)
0.0169568	-0.468223
0.086698	2.37211
0.159345	4.99396
0.223274	7.39732
0.301733	9.80068
0.415063	12.641
0.560357	15.2629
0.757957	18.9772
0.88291	20.5066
1.03692	21.8175
