Adsorption isotherm of Nitrogen on Co9(btc)6(tpt)2(H2O)15]
DOI: 10.1021/Cg200043a
Adsorbate Nitrogen: InChIKey IJGRMHOSHXDMSA-UHFFFAOYSA-N
Temperature: 77 K
Tabular data in the source: 0
pressure (bar)	uptake (cm3(STP)/g)
0.0460156	3.02758
0.107039	3.24606
0.197121	3.46455
0.316263	3.68304
0.417969	3.46455
0.516769	4.12001
0.612663	3.46455
0.708557	3.68304
0.813169	3.90152
0.929404	3.68304
1.00496	4.55699
