Adsorption isotherm of Carbon Dioxide on Co9(btc)6(tpt)2(H2O)15]
DOI: 10.1021/Cg200043a
Adsorbate Carbon Dioxide: InChIKey CURLTUGMZLYLDI-UHFFFAOYSA-N
Temperature: 195 K
Tabular data in the source: 0
pressure (bar)	uptake (cm3(STP)/g)
0.0169568	23.3469
0.0169568	32.9603
0.0198627	4.3385
0.0198627	14.8259
0.0256744	43.4477
0.0285803	51.9688
0.0402038	62.6746
0.0750744	69.0108
0.159345	75.3469
0.272674	78.4057
0.412157	80.8091
0.508051	81.683
0.653345	83.2124
0.789921	84.3049
0.93231	85.1788
