Adsorption isotherm of Hydrogen on Co9(btc)6(tpt)2(H2O)15]
DOI: 10.1021/Cg200043a
Adsorbate Hydrogen: InChIKey UFHFLCQGNIYNRP-UHFFFAOYSA-N
Temperature: 87 K
Tabular data in the source: 0
pressure (bar)	uptake (cm3(STP)/g)
0.0169568	0.405726
0.0314862	8.48976
0.0518274	18.5402
0.0808862	28.1536
0.139004	37.7671
0.200027	46.7251
0.310451	56.7755
0.412157	62.6746
0.563263	68.5738
0.752145	74.6914
1.03692	81.0276
