Adsorption isotherm of Carbon Dioxide on CS-H2O
DOI: 10.1021/acs.energyfuels.6b00664
Article source: Figure  3a
Adsorbate Carbon Dioxide: InChIKey CURLTUGMZLYLDI-UHFFFAOYSA-N
Kind: experiment
Temperature: 30 K
Tabular data in the source: 0
pressure (bar)	uptake (mmol/g)
0.0572	0.0242
0.2517	0.8908
0.3057	1.0662
0.4423	1.3604
0.5789	1.6061
0.7051	1.8184
0.8403	1.9996
0.9741	2.1819
1.1063	2.3572
1.2461	2.4945
1.3528	2.6145
1.6144	2.8717
1.8895	3.1047
2.279	3.4174
3.0565	3.896
4.0072	4.3908
5.0468	4.8024
6.2504	5.1782
7.6633	5.5551
8.9063	5.8317
9.9296	6.0264
