Adsorption isotherm of Methane on CS-CO2
DOI: 10.1021/acs.energyfuels.6b00664
Article source: Figure  3b
Adsorbate Methane: InChIKey VNWKTOKETHGBQD-UHFFFAOYSA-N
Kind: experiment
Temperature: 30 K
Tabular data in the source: 0
pressure (bar)	uptake (mmol/g)
0.0564	0.0105
0.2857	0.4093
0.4341	0.5685
0.5607	0.6981
0.7062	0.8165
0.836	0.9132
0.9439	1.0067
1.0956	1.1113
1.2222	1.2619
1.3677	1.3448
1.6463	1.4955
1.8983	1.6317
2.2803	1.7962
3.0883	2.1113
4.0687	2.4172
5.0665	2.6757
6.3214	2.956
7.5733	3.1836
8.9662	3.4184
9.9267	3.5565
