Adsorption isotherm of Methane on Calgon BPL
DOI: 10.1021/acs.energyfuels.6b00664
Article source: Figure  3b
Adsorbate Methane: InChIKey VNWKTOKETHGBQD-UHFFFAOYSA-N
Kind: experiment
Temperature: 30 K
Tabular data in the source: 0
pressure (bar)	uptake (mmol/g)
0.0423	0.0105
0.2314	0.2079
0.3143	0.2652
0.4331	0.3783
0.5692	0.4698
0.707	0.5487
0.8431	0.627
0.9589	0.7066
1.0889	0.7514
1.2281	0.852
1.3408	0.9112
1.6242	1.0329
1.8981	1.1691
2.2864	1.327
3.1258	1.6198
4.0404	1.9138
5.1244	2.1967
6.2962	2.4644
7.6561	2.7453
9.1273	3.0045
10.0408	3.1512
