Adsorption isotherm of Carbon Dioxide on CS-CO2
DOI: 10.1021/acs.energyfuels.6b00664
Article source: Figure  3a
Adsorbate Carbon Dioxide: InChIKey CURLTUGMZLYLDI-UHFFFAOYSA-N
Kind: experiment
Temperature: 30 K
Tabular data in the source: 0
pressure (bar)	uptake (mmol/g)
0.0165	0.0092
0.2187	0.8389
0.2922	1.05
0.4242	1.3419
0.5428	1.5819
0.684	1.83
0.8132	2.0284
0.95	2.1969
1.0762	2.3826
1.2159	2.5672
1.3256	2.6941
1.5826	2.9721
1.8578	3.2178
2.2562	3.5547
3.0247	4.0633
3.9573	4.5846
5.0825	5.0747
6.2169	5.4736
7.6102	5.8702
9.0488	6.2032
9.7906	6.3819
