Adsorption isotherm of Carbon Dioxide on Calgon BPL
DOI: 10.1021/acs.energyfuels.6b00664
Article source: Figure  3a
Adsorbate Carbon Dioxide: InChIKey CURLTUGMZLYLDI-UHFFFAOYSA-N
Kind: experiment
Temperature: 30 K
Tabular data in the source: 0
pressure (bar)	uptake (mmol/g)
0.0256	0.0219
0.225	0.5919
0.2791	0.7096
0.4082	0.9357
0.5464	1.1273
0.6817	1.3049
0.8139	1.4653
0.9462	1.5956
1.08	1.741
1.2136	2.0145
1.3489	2.1287
1.591	2.3444
1.8586	2.5901
2.221	2.8819
3.0481	3.4402
3.9641	3.9903
5.0516	4.5462
6.2476	5.0651
7.6016	5.5748
8.9978	6.0278
9.9051	6.2883
