Adsorption isotherm of Methane on CS-H20
DOI: 10.1021/acs.energyfuels.6b00664
Article source: Figure  3b
Adsorbate Methane: InChIKey VNWKTOKETHGBQD-UHFFFAOYSA-N
Kind: experiment
Temperature: 30 K
Tabular data in the source: 0
pressure (bar)	uptake (mmol/g)
0.0533	0.0105
0.2248	0.3198
0.3014	0.4033
0.4326	0.5547
0.564	0.6645
0.7	0.7882
0.8393	0.8738
0.9471	0.9764
1.0927	1.054
1.2068	1.1461
1.3618	1.2336
1.6262	1.3948
1.883	1.5185
2.3182	1.7087
3.0902	2.0027
4.0143	2.2843
5.07	2.5534
6.3468	2.8356
7.7037	3.0684
9.2016	3.319
10.145	3.442
