Adsorption isotherm of Carbon Dioxide on ZIF-97
DOI: 10.1021/ja104035j
Adsorbate Carbon Dioxide: InChIKey CURLTUGMZLYLDI-UHFFFAOYSA-N
Temperature: 298 K
Tabular data in the source: 0
pressure (bar)	uptake (mmol/g)
0.0280679	0.0262301
0.0481163	0.0784698
0.0681648	0.11768
0.0862084	0.143849
0.104252	0.170018
0.120291	0.196174
0.166402	0.268117
0.222538	0.333607
0.274664	0.399072
0.3308	0.464561
0.384931	0.523524
0.437057	0.56293
0.493193	0.61539
0.545319	0.661311
0.599449	0.707244
0.65358	0.746663
0.703702	0.792572
0.759837	0.838517
0.811963	0.877924
0.866094	0.917342
0.920225	0.950246
0.972351	0.989652
1.02849	1.02257
1.07259	1.05541
