Adsorption isotherm of Carbon Dioxide on ZIF-93
DOI: 10.1021/ja104035j
Adsorbate Carbon Dioxide: InChIKey CURLTUGMZLYLDI-UHFFFAOYSA-N
Temperature: 298 K
Tabular data in the source: 0
pressure (bar)	uptake (mmol/g)
0.162393	0.463533
0.216524	0.581127
0.26865	0.68568
0.324785	0.777228
0.380921	0.862262
0.435052	0.940768
0.487178	1.01275
0.543314	1.08475
0.59544	1.16325
0.651575	1.22222
0.703702	1.27466
0.759837	1.34015
0.811963	1.39258
0.866094	1.45154
0.920225	1.51051
0.974356	1.56295
1.02648	1.61539
1.07861	1.66131
