Adsorption isotherm of Carbon Dioxide on ZIF-71
DOI: 10.1021/ja104035j
Adsorbate Carbon Dioxide: InChIKey CURLTUGMZLYLDI-UHFFFAOYSA-N
Temperature: 298 K
Tabular data in the source: 0
pressure (bar)	uptake (mmol/g)
0.158383	0.202922
0.515246	0.51129
0.870104	0.708898
1.01044	0.80096
