Adsorption isotherm of Carbon Dioxide on ZIF-93
DOI: 10.1021/ja104035j
Adsorbate Carbon Dioxide: InChIKey CURLTUGMZLYLDI-UHFFFAOYSA-N
Temperature: 298 K
Tabular data in the source: 0
pressure (bar)	uptake (mmol/g)
0.0527198	0.0735294
0.158179	0.235294
0.51479	0.539216
0.871295	0.764706
1.01512	0.857843
