Adsorption isotherm of Carbon Dioxide on ZIF-71
DOI: 10.1021/ja104035j
Adsorbate Carbon Dioxide: InChIKey CURLTUGMZLYLDI-UHFFFAOYSA-N
Temperature: 298 K
Tabular data in the source: 0
pressure (bar)	uptake (mmol/g)
0.0527198	0.0735294
0.160177	0.215686
0.516794	0.52451
0.871229	0.715686
1.01505	0.808824
