Adsorption isotherm of Carbon Dioxide on ZIF-96
DOI: 10.1021/ja104035j
Adsorbate Carbon Dioxide: InChIKey CURLTUGMZLYLDI-UHFFFAOYSA-N
Temperature: 298 K
Tabular data in the source: 0
pressure (bar)	uptake (mmol/g)
0.160388	0.437462
0.515246	0.856567
0.868099	1.12582
1.01245	1.21791
