Adsorption isotherm of Carbon Dioxide on ZIF-71
DOI: 10.1021/ja104035j
Adsorbate Carbon Dioxide: InChIKey CURLTUGMZLYLDI-UHFFFAOYSA-N
Temperature: 298 K
Tabular data in the source: 0
pressure (bar)	uptake (mmol/g)
0.052126	0.000318386
0.0862084	0.0396145
0.124301	0.0724205
0.172417	0.111802
0.226548	0.144706
0.280679	0.184125
0.33481	0.217029
0.38894	0.249933
0.445076	0.276334
0.497202	0.31574
0.551333	0.348644
0.603459	0.381536
0.65759	0.41444
0.713726	0.440842
0.763847	0.467206
0.819983	0.500122
0.874114	0.526512
0.928244	0.56593
0.982375	0.59232
1.0345	0.618697
1.08061	0.645037
