Adsorption isotherm of Carbon Dioxide on ZIF-93
DOI: 10.1021/ja104035j
Adsorbate Carbon Dioxide: InChIKey CURLTUGMZLYLDI-UHFFFAOYSA-N
Temperature: 298 K
Tabular data in the source: 0
pressure (bar)	uptake (mmol/g)
0.0487713	0.147059
0.158417	0.411765
0.519387	0.946078
0.870026	1.32353
1.016	1.51471
