Adsorption isotherm of Carbon Dioxide on ZIF-96
DOI: 10.1021/ja104035j
Adsorbate Carbon Dioxide: InChIKey CURLTUGMZLYLDI-UHFFFAOYSA-N
Temperature: 298 K
Tabular data in the source: 0
pressure (bar)	uptake (mmol/g)
0.0380921	0.110982
0.0541309	0.169712
0.0721745	0.215425
0.0882133	0.26764
0.104252	0.31334
0.120291	0.359041
0.170412	0.496155
0.222538	0.639796
0.278674	0.770432
0.33481	0.894553
0.384931	1.00561
0.443071	1.12974
0.495197	1.22778
0.551333	1.33236
0.59143	1.41729
0.659595	1.52846
0.703702	1.60039
0.765852	1.705
0.811963	1.77695
0.872109	1.87503
0.914211	1.95347
0.98037	2.04508
1.02648	2.10399
1.0746	2.18897
