Adsorption isotherm of Carbon Dioxide on ZIF-97
DOI: 10.1021/ja104035j
Adsorbate Carbon Dioxide: InChIKey CURLTUGMZLYLDI-UHFFFAOYSA-N
Temperature: 298 K
Tabular data in the source: 0
pressure (bar)	uptake (mmol/g)
0.160388	0.189905
0.515246	0.602496
0.872109	1.00207
1.01245	1.14625
