Adsorption isotherm of Carbon Dioxide on ZIF-25
DOI: 10.1021/ja104035j
Adsorbate Carbon Dioxide: InChIKey CURLTUGMZLYLDI-UHFFFAOYSA-N
Temperature: 298 K
Tabular data in the source: 0
pressure (bar)	uptake (mmol/g)
0.0501212	0.0589381
0.0902181	0.117815
0.124301	0.163626
0.170412	0.235569
0.222538	0.301034
0.276669	0.359996
0.332805	0.432
0.384931	0.484436
0.437057	0.543386
0.493193	0.602361
0.549328	0.654821
0.601454	0.700742
0.65358	0.759692
0.707711	0.805626
0.763847	0.851571
0.813968	0.89748
0.868099	0.943413
0.924235	0.982844
0.976361	1.02876
1.03049	1.06167
1.0746	1.10754
