Adsorption isotherm of Carbon Dioxide on ZIF-71
DOI: 10.1021/ja104035j
Adsorbate Carbon Dioxide: InChIKey CURLTUGMZLYLDI-UHFFFAOYSA-N
Temperature: 298 K
Tabular data in the source: 0
pressure (bar)	uptake (mmol/g)
0.15812	0.191176
0.516695	0.45098
0.871123	0.637255
1.01291	0.720588
