Adsorption isotherm of Carbon Dioxide on ZIF-93
DOI: 10.1021/ja104035j
Adsorbate Carbon Dioxide: InChIKey CURLTUGMZLYLDI-UHFFFAOYSA-N
Temperature: 298 K
Tabular data in the source: 0
pressure (bar)	uptake (mmol/g)
0.160388	0.385344
0.517251	0.94127
0.870104	1.31476
1.01445	1.51108
