Adsorption isotherm of Carbon Dioxide on SCu
DOI: 10.1021/Am4019675
Adsorbate Carbon Dioxide: InChIKey CURLTUGMZLYLDI-UHFFFAOYSA-N
Temperature: 298 K
Tabular data in the source: 0
pressure (bar)	uptake (mg/g)
0.0675873	3.80739
0.145334	9.72288
0.292376	28.3144
0.371813	43.1032
0.510404	72.2581
0.58477	90.8496
0.726742	132.258
0.799418	153.807
0.94308	207.047
1.02252	235.357
1.08843	273.807
