Adsorption isotherm of Nitrogen on SCu
DOI: 10.1021/Am4019675
Adsorbate Nitrogen: InChIKey IJGRMHOSHXDMSA-UHFFFAOYSA-N
Temperature: 77 K
Tabular data in the source: 0
pressure (bar)	uptake (cm3(STP)/g)
0.00801532	278.741
0.0323278	290.969
0.0780923	299.657
0.116706	303.84
0.178202	307.058
0.249709	308.989
0.348389	310.598
0.45136	311.241
0.547179	311.563
0.648719	312.206
0.75026	312.85
0.808895	314.459
0.85323	315.746
0.907575	319.929
0.939038	326.043
0.961921	338.914
0.983373	355.003
0.993384	376.241
1.00053	401.018
