Adsorption isotherm of Carbon Dioxide on SP
DOI: 10.1021/Am4019675
Adsorbate Carbon Dioxide: InChIKey CURLTUGMZLYLDI-UHFFFAOYSA-N
Temperature: 298 K
Tabular data in the source: 0
pressure (bar)	uptake (mg/g)
0.0574465	1.69471
0.160545	4.65246
0.241672	10.568
0.327869	17.3285
0.432658	30.8496
0.535756	47.3285
0.611813	59.582
0.676038	71.8356
0.733503	82.8215
0.799418	95.9201
0.868714	111.554
0.931249	126.765
0.981954	138.596
1.03435	152.54
