Adsorption isotherm of Nitrogen on SP
DOI: 10.1021/Am4019675
Adsorbate Nitrogen: InChIKey IJGRMHOSHXDMSA-UHFFFAOYSA-N
Temperature: 77 K
Tabular data in the source: 0
pressure (bar)	uptake (cm3(STP)/g)
0.00944547	353.395
0.0308976	370.449
0.0523498	379.137
0.119566	388.147
0.199654	392.008
0.299764	394.583
0.45136	395.87
0.568631	395.548
0.718796	394.261
0.821767	394.904
0.877542	396.513
0.931888	402.949
0.95191	411.315
0.973362	429.013
0.980513	439.954
0.994814	467.949
0.997674	499.162
