Adsorption isotherm of Nitrogen on Zn(L)(ip)*(DMF)(H2O)1.5
DOI: 10.1039/C2cc32103c
Adsorbate Nitrogen: InChIKey IJGRMHOSHXDMSA-UHFFFAOYSA-N
Temperature: 77 K
Tabular data in the source: 0
pressure (bar)	uptake (cm3(STP)/g)
0.045658	0.541719
0.0868461	1.27109
0.134899	1.82885
0.234437	2.3866
0.333975	2.55822
0.436945	2.77274
0.534767	3.20178
0.639453	3.28759
0.740708	3.80244
0.781896	3.97406
0.835097	4.66053
0.891731	5.51862
0.943216	7.19188
0.999849	15.8586
