Adsorption isotherm of Carbon Dioxide on Zn(L)(ip)*(DMF)(H2O)1.5
DOI: 10.1039/C2cc32103c
Adsorbate Carbon Dioxide: InChIKey CURLTUGMZLYLDI-UHFFFAOYSA-N
Temperature: 273 K
Tabular data in the source: 0
pressure (bar)	uptake (cm3(STP)/g)
0.0380129	3.66258
0.0760411	5.24005
0.0999848	6.42314
0.17745	8.39498
0.236604	10.4231
0.287309	11.5499
0.332379	12.7893
0.397168	14.1415
0.45914	15.3246
0.528154	16.7893
0.592942	18.4231
0.719703	21.6344
0.791534	23.5499
0.881675	25.6344
0.970407	27.5499
1.00139	28.902
1.07745	30.9302
