Adsorption isotherm of Carbon Dioxide on Zn(L)(ip)*(DMF)(H2O)1.5
DOI: 10.1039/C2cc32103c
Adsorbate Carbon Dioxide: InChIKey CURLTUGMZLYLDI-UHFFFAOYSA-N
Temperature: 273 K
Tabular data in the source: 0
pressure (bar)	uptake (cm3(STP)/g)
0.0233478	16.5879
0.0473742	19.3767
0.0748329	20.8354
0.124602	22.7661
0.181236	23.6242
0.321962	25.2546
0.455823	26.7562
0.584536	27.8288
0.716681	28.8156
0.843678	29.6737
0.915757	30.0599
0.977539	30.1028
1.08394	30.7034
