Adsorption isotherm of Carbon Dioxide on Zn(L)(nip)*(DMF)0.5(H2O)0.5
DOI: 10.1039/C2cc32103c
Adsorbate Carbon Dioxide: InChIKey CURLTUGMZLYLDI-UHFFFAOYSA-N
Temperature: 273 K
Tabular data in the source: 0
pressure (bar)	uptake (cm3(STP)/g)
0.078858	3.8316
0.157731	6.6485
0.211252	8.11329
0.260548	9.40906
0.311252	10.4231
0.364773	11.3809
0.418295	12.395
0.470407	13.1274
0.525337	14.0288
0.590126	14.8738
0.65914	15.8316
0.721112	16.5077
0.783083	17.24
0.853506	18.1415
0.918295	18.8738
0.994351	19.6062
