Adsorption isotherm of Carbon Dioxide on Zn(L)(nip)*(DMF)0.5(H2O)0.5
DOI: 10.1039/C2cc32103c
Adsorbate Carbon Dioxide: InChIKey CURLTUGMZLYLDI-UHFFFAOYSA-N
Temperature: 273 K
Tabular data in the source: 0
pressure (bar)	uptake (cm3(STP)/g)
0.0140693	1.77495
0.0704073	5.15523
0.130971	8.08481
0.199985	10.1693
0.266182	11.8313
0.330971	13.2116
0.394351	14.3665
0.460548	15.3524
0.528154	16.3102
0.599985	17.0144
0.660548	17.6904
0.732379	18.3102
0.770407	18.5637
0.839421	18.9581
0.908435	19.3242
