Adsorption isotherm of Carbon Dioxide on Zn(L)(hip)*(DMF)(H2O)
DOI: 10.1039/C2cc32103c
Adsorbate Carbon Dioxide: InChIKey CURLTUGMZLYLDI-UHFFFAOYSA-N
Temperature: 273 K
Tabular data in the source: 0
pressure (bar)	uptake (cm3(STP)/g)
0.00280166	0.169624
0.0605481	3.32455
0.101393	4.84568
0.154914	6.70483
0.205619	8.05695
0.260548	9.57807
0.366182	11.7753
0.419703	12.7893
0.474633	13.9724
0.52252	14.7612
0.590126	15.8879
0.654914	17.0147
0.718295	18.0288
0.780266	19.2682
0.850689	20.3386
0.997168	22.5922
