Adsorption isotherm of Carbon Dioxide on Zn(L)(aip)*(H2O)
DOI: 10.1039/C2cc32103c
Adsorbate Carbon Dioxide: InChIKey CURLTUGMZLYLDI-UHFFFAOYSA-N
Temperature: 273 K
Tabular data in the source: 0
pressure (bar)	uptake (cm3(STP)/g)
0.00283215	0.225962
0.0126608	2.81751
0.0295622	5.35272
0.063365	8.84568
0.101393	12.1696
0.150689	15.7189
0.207027	18.3105
0.25914	20.5077
0.364773	24.395
0.473224	27.3809
0.588717	30.1978
0.725337	33.0147
0.854914	35.4372
0.925337	36.6767
0.995759	37.6344
