Adsorption isotherm of Nitrogen on Zn(L)(nip)*(DMF)0.5(H2O)0.5
DOI: 10.1039/C2cc32103c
Adsorbate Nitrogen: InChIKey IJGRMHOSHXDMSA-UHFFFAOYSA-N
Temperature: 77 K
Tabular data in the source: 0
pressure (bar)	uptake (cm3(STP)/g)
0.0394214	0.112981
0.0873087	0.479178
0.129562	0.676361
0.181675	0.873544
0.27745	1.07073
0.37745	1.38059
0.478858	1.5496
0.580266	1.69045
0.681675	1.77495
0.732379	1.85946
0.784492	1.9158
0.833788	2.02847
0.884492	2.08481
0.929562	2.16932
1.00139	20.5919
