Adsorption isotherm of Carbon Dioxide on Zn(L) (HBTC)*(H2O)2
DOI: 10.1039/C2cc32103c
Adsorbate Carbon Dioxide: InChIKey CURLTUGMZLYLDI-UHFFFAOYSA-N
Temperature: 273 K
Tabular data in the source: 0
pressure (bar)	uptake (cm3(STP)/g)
0.0140693	0.451314
0.0732242	2.36681
0.130971	3.49357
0.184492	4.733
0.233788	5.40906
0.312661	6.47948
0.414069	7.94427
0.519703	9.29638
0.654914	10.7612
0.719703	11.4936
0.784492	12.2823
0.856323	13.071
0.918295	13.8598
0.998576	14.5358
