Adsorption isotherm of Water on CuBTC
DOI: 10.1016/j.ijheatmasstransfer.2012.07.068
Adsorbate Water: InChIKey XLYOFNOQVPJJNP-UHFFFAOYSA-N
Temperature: 301 K
Tabular data in the source: 0
pressure (bar)	uptake (mmol/g)
0.000501044	1.27815
0.00133612	3.28668
0.00167015	4.47354
0.00200418	5.38651
0.0023382	6.29947
0.00250522	7.21244
0.00317328	9.58615
0.00367432	10.4991
0.00400835	11.4121
0.00450939	12.2338
0.00501044	13.1467
0.0056785	13.9684
0.00617954	14.8814
0.00668058	15.703
0.00768267	17.1638
0.00835073	17.9855
0.0091858	18.8071
0.0100209	19.5375
0.0108559	20.3592
0.0123591	21.6373
0.0135282	22.6416
0.0145303	23.0068
0.0155324	23.6458
0.0168685	24.1936
0.0180376	24.8327
0.0190397	25.2892
