Adsorption isotherm of Water on MIL-100
DOI: 10.1016/j.ijheatmasstransfer.2012.07.068
Adsorbate Water: InChIKey XLYOFNOQVPJJNP-UHFFFAOYSA-N
Temperature: 309 K
Tabular data in the source: 0
pressure (bar)	uptake (mmol/g)
0.00269474	0.219112
0.00437895	0.511261
0.00589474	0.584299
0.00690526	1.1686
0.00774737	1.7529
0.00976842	3.21364
0.0107789	3.79794
0.0116211	4.45528
0.0121263	5.03958
0.0129684	5.55084
0.0134737	6.20817
0.0141474	6.86551
0.0148211	7.59588
0.0154947	8.25322
0.0161684	8.91055
0.0168421	9.56789
0.0175158	10.2252
0.0183579	11.1747
0.0193684	11.686
0.0202105	12.2703
0.0210526	12.9276
0.0220632	13.5119
0.0229053	14.1692
0.0237474	14.7535
0.0249263	15.1918
0.0262737	15.703
0.0274526	16.1413
0.0288	16.6525
0.0298105	17.0177
