Adsorption isotherm of Water on Silica Gel
DOI: 10.1016/j.ijheatmasstransfer.2012.07.068
Adsorbate Water: InChIKey XLYOFNOQVPJJNP-UHFFFAOYSA-N
Temperature: 309 K
Tabular data in the source: 0
pressure (bar)	uptake (mmol/g)
0.00138528	0.641185
0.00242424	1.15413
0.0034632	1.66708
0.00450216	2.18003
0.00554113	2.69298
0.00658009	3.20592
0.00709957	3.39828
0.00813853	3.91123
0.00917749	4.42418
0.0102165	4.93712
0.0112554	5.38595
0.0121212	5.8989
0.0133333	6.41185
0.0143723	6.9248
0.0154113	7.37363
0.0164502	7.88657
0.0174892	8.39952
0.0185281	8.91247
0.0195671	9.42542
0.0206061	9.87425
0.021645	10.4513
0.022684	10.836
0.0237229	11.6696
0.0249351	11.926
0.025974	12.439
0.027013	12.8878
0.0280519	13.4649
0.0290909	13.9137
0.0297835	14.2343
