Adsorption isotherm of Water on MIL-100
DOI: 10.1016/j.ijheatmasstransfer.2012.07.068
Adsorbate Water: InChIKey XLYOFNOQVPJJNP-UHFFFAOYSA-N
Temperature: 333 K
Tabular data in the source: 0
pressure (bar)	uptake (mmol/g)
0.00673684	0.219112
0.00892632	0.292149
0.0107789	0.292149
0.0131368	0.365187
0.0151579	0.438224
0.0171789	0.511261
0.0195368	0.584299
0.0215579	0.949485
0.0234105	1.31467
0.0256	1.82593
0.0279579	2.26416
0.0299789	2.62934
0.0318316	3.06757
0.0345263	3.65187
0.0363789	3.94402
0.0387368	4.45528
0.0407579	4.96654
0.0427789	5.55084
0.0446316	6.13514
0.0471579	6.86551
0.0490105	7.44981
0.0512	8.10714
0.0537263	8.69144
0.0555789	9.34878
0.0577684	10.0061
0.0599579	10.5904
0.0614737	11.1017
0.0638316	11.4669
0.0660211	11.9781
0.0682105	12.4163
0.0702316	12.8546
0.0725895	13.2928
0.0744421	13.658
0.0768	14.1692
0.0789895	14.6805
