Adsorption isotherm of Water on Silica Gel
DOI: 10.1016/j.ijheatmasstransfer.2012.07.068
Adsorbate Water: InChIKey XLYOFNOQVPJJNP-UHFFFAOYSA-N
Temperature: 333 K
Tabular data in the source: 0
pressure (bar)	uptake (mmol/g)
0.00242424	0.320592
0.00467532	0.641185
0.00692641	0.897659
0.00900433	1.15413
0.0110823	1.47473
0.012987	1.7312
0.0152381	2.05179
0.0174892	2.37238
0.0195671	2.62886
0.0214719	2.88533
0.0237229	3.20592
0.025974	3.4624
0.0280519	3.71887
0.0301299	3.97535
0.0322078	4.29594
0.0341126	4.55241
0.0365368	4.80889
0.0386147	5.12948
0.0406926	5.38595
0.0429437	5.64243
0.0448485	5.8989
0.0469264	6.15537
0.0490043	6.41185
0.0510823	6.66832
0.0531602	6.9248
0.0554113	7.24539
0.057316	7.50186
0.0595671	7.75834
0.061645	8.01481
0.0638961	8.27128
0.065974	8.52776
0.0683983	8.84835
0.070303	9.10482
0.0725541	9.3613
0.0744589	9.61777
0.07671	9.87425
0.0786147	10.1307
