Adsorption isotherm of Water on MIL-100
DOI: 10.1016/j.ijheatmasstransfer.2012.07.068
Adsorbate Water: InChIKey XLYOFNOQVPJJNP-UHFFFAOYSA-N
Temperature: 341 K
Tabular data in the source: 0
pressure (bar)	uptake (mmol/g)
0.00673684	0.219112
0.00875789	0.219112
0.0111158	0.219112
0.0129684	0.219112
0.0151579	0.219112
0.0173474	0.219112
0.0195368	0.292149
0.0215579	0.438224
0.0232421	0.365187
0.0252632	0.511261
0.0279579	0.511261
0.0299789	0.803411
0.0512	3.94402
0.0533895	4.16313
0.0552421	4.45528
0.0576	4.82046
0.0596211	5.25869
0.0618105	5.69691
0.064	6.13514
0.0661895	6.57336
0.0680421	7.01158
0.0704	7.44981
0.0724211	7.88803
0.0746105	8.32626
0.0766316	8.76448
0.0786526	9.2027
