Adsorption isotherm of Water on MIL-100
DOI: 10.1016/j.ijheatmasstransfer.2012.07.068
Adsorbate Water: InChIKey XLYOFNOQVPJJNP-UHFFFAOYSA-N
Temperature: 293 K
Tabular data in the source: 0
pressure (bar)	uptake (mmol/g)
0.000842105	0.292149
0.00218947	0.511261
0.00269474	1.02252
0.00336842	2.33719
0.00387368	3.06757
0.00421053	3.79794
0.00471579	4.52831
0.00505263	5.25869
0.00522105	5.98906
0.00555789	6.71943
0.00589474	7.37677
0.00606316	8.10714
0.0064	8.83752
0.00673684	9.56789
0.00707368	10.5174
0.00741053	11.4669
0.00791579	12.1242
0.00825263	12.8546
0.00875789	13.5119
0.00909474	14.2423
0.0101053	15.4839
0.0107789	16.1413
0.0116211	17.0177
0.0126316	17.529
0.0139789	18.0402
