Adsorption isotherm of Water on Silica Gel
DOI: 10.1016/j.ijheatmasstransfer.2012.07.068
Adsorbate Water: InChIKey XLYOFNOQVPJJNP-UHFFFAOYSA-N
Temperature: 325 K
Tabular data in the source: 0
pressure (bar)	uptake (mmol/g)
0.00138528	0.320592
0.00277056	0.512948
0.004329	0.83354
0.00571429	1.15413
0.00727273	1.47473
0.00883117	1.7312
0.0103896	2.05179
0.0117749	2.37238
0.0133333	2.69298
0.0148918	3.01357
0.0162771	3.33416
0.0178355	3.59063
0.0193939	3.91123
0.0209524	4.1677
0.0225108	4.48829
0.0240693	4.80889
0.0254545	5.06536
0.027013	5.38595
0.0283983	5.64243
0.0299567	5.96302
0.0315152	6.28361
0.0330736	6.54009
0.034632	6.79656
0.0360173	7.11715
0.0374026	7.37363
0.038961	7.69422
0.0405195	7.95069
0.0420779	8.27128
0.0436364	8.52776
0.0450216	8.84835
0.0465801	9.16894
0.0481385	9.42542
0.049697	9.74601
0.0512554	10.0025
0.0528139	10.3231
0.0543723	10.5795
0.0559307	10.9001
0.057316	11.2207
0.0587013	11.4772
0.0602597	11.7337
0.0618182	12.0543
0.0633766	12.3107
0.0649351	12.6313
0.0664935	12.8878
0.0680519	13.2084
