Adsorption isotherm of Water on Silica Gel
DOI: 10.1016/j.ijheatmasstransfer.2012.07.068
Adsorbate Water: InChIKey XLYOFNOQVPJJNP-UHFFFAOYSA-N
Temperature: 317 K
Tabular data in the source: 0
pressure (bar)	uptake (mmol/g)
0.00207792	0.577066
0.00329004	0.961777
0.00467532	1.41061
0.00588745	1.79532
0.00727273	2.24415
0.00848485	2.56474
0.00969697	3.01357
0.0110823	3.39828
0.0124675	3.78299
0.0136797	4.23182
0.0150649	4.61653
0.0162771	5.00124
0.0174892	5.38595
0.0188745	5.77066
0.0202597	6.15537
0.0214719	6.54009
0.0228571	6.98891
0.0240693	7.37363
0.0254545	7.75834
0.0266667	8.14305
0.0280519	8.52776
0.0294372	8.91247
0.0306494	9.3613
0.0320346	9.74601
0.0332468	10.1307
0.034632	10.5154
0.0360173	10.9001
0.0372294	11.2849
0.0386147	11.6696
0.04	12.0543
0.0412121	12.5031
0.0425974	12.8878
0.0439827	13.2725
0.045368	13.5931
