Adsorption isotherm of Water on Silica Gel
DOI: 10.1016/j.ijheatmasstransfer.2012.07.068
Adsorbate Water: InChIKey XLYOFNOQVPJJNP-UHFFFAOYSA-N
Temperature: 325 K
Tabular data in the source: 0
pressure (bar)	uptake (mmol/g)
0.00150278	0.289609
0.00450835	1.0619
0.00751391	2.02726
0.0105195	2.50994
0.0125232	3.08916
0.0155288	3.66838
0.0175325	4.2476
0.0195362	4.73028
0.0217904	5.21296
0.0237941	5.69564
0.0257978	6.27486
0.0283024	6.95061
0.0303061	7.24022
0.0325603	7.62637
0.034564	8.01251
0.0425788	9.55709
0.044833	9.94324
0.0470872	10.3294
0.0493414	10.7155
0.0515955	11.0051
0.0535993	11.4878
0.055603	11.874
0.0576067	11.9705
0.0598609	12.2601
0.0623655	12.6463
0.0646197	12.9359
0.0668738	13.322
0.069128	13.8047
0.0708813	13.7082
0.0733859	13.9012
0.0758905	14.0943
0.0781447	14.2874
0.0806494	14.577
0.0834045	14.6735
0.0859091	14.7701
0.0884137	14.8666
0.0909184	14.8666
0.0931725	15.0597
0.0951763	14.7701
0.09718	15.1562
0.0996846	15.1562
0.102189	15.2527
0.104694	15.2527
0.107199	15.3493
0.110455	15.3493
0.112458	15.4458
0.114963	15.5423
0.117468	15.5423
0.119972	15.6389
0.122978	15.7354
