Adsorption isotherm of Water on CuBTC
DOI: 10.1016/j.ijheatmasstransfer.2012.07.068
Adsorbate Water: InChIKey XLYOFNOQVPJJNP-UHFFFAOYSA-N
Temperature: 293 K
Tabular data in the source: 0
pressure (bar)	uptake (mmol/g)
0.000185973	1.0619
0.00115996	4.92335
0.00180972	7.81946
0.00227378	9.84669
0.00310819	12.8393
0.00389633	15.7354
0.00463862	18.8246
0.00584002	20.3692
0.00704182	22.2034
0.00824188	22.7826
0.00939596	23.4583
0.0105955	23.6514
0.0116572	24.2306
0.0130873	24.4237
0.0140562	24.6167
0.0154403	24.8099
0.0164093	25.0994
0.0176087	25.196
0.018716	25.389
0.0200999	25.4856
0.021115	25.7752
