Adsorption isotherm of Water on MIL-100
DOI: 10.1016/j.ijheatmasstransfer.2012.07.068
Adsorbate Water: InChIKey XLYOFNOQVPJJNP-UHFFFAOYSA-N
Temperature: 293 K
Tabular data in the source: 0
pressure (bar)	uptake (mmol/g)
0.000323279	0.289609
0.00226309	2.1238
0.00466375	3.66838
0.00596128	8.01252
0.00698085	11.4878
0.00836783	13.8047
0.00938526	15.7354
0.0108629	16.8939
0.0116017	17.4731
0.0140933	18.0523
0.015432	18.8246
0.0163553	19.4038
0.0176471	19.5968
0.0188007	19.983
0.0200928	20.3692
0.0211082	20.8518
