Adsorption isotherm of Water on CuBTC
DOI: 10.1016/j.ijheatmasstransfer.2012.07.068
Adsorbate Water: InChIKey XLYOFNOQVPJJNP-UHFFFAOYSA-N
Temperature: 317 K
Tabular data in the source: 0
pressure (bar)	uptake (mmol/g)
0.000821168	0.962573
0.0014781	1.82889
0.00213504	2.6952
0.00279197	3.56152
0.00344891	4.42784
0.00410584	5.29415
0.00476277	6.16047
0.00541971	7.02678
0.00591241	7.8931
0.00656934	8.66316
0.00722628	9.62573
0.00788321	10.492
0.00854015	11.3584
0.00903285	12.4172
0.0103467	12.8985
0.0113321	13.5723
0.0123175	14.2461
0.0134672	14.9199
0.0144526	15.5937
0.0156022	16.2675
0.0165876	16.845
0.017573	17.7113
0.0182299	18.1926
0.0193796	18.6739
0.0206934	19.3477
0.0218431	20.0215
0.0228285	20.5991
0.0239781	21.1766
0.0251277	21.8504
0.0262774	22.5242
0.027427	23.2943
0.0280839	23.2943
0.029562	23.3905
0.0312044	23.583
0.0326825	23.7756
0.0343248	23.9681
0.0358029	24.0643
0.0364599	24.6419
0.0376095	24.2568
0.0392518	24.3531
0.0407299	24.5456
0.0423723	24.6419
0.0440146	24.7381
0.0461496	25.1232
0.0474635	24.9306
0.0491058	25.0269
0.0507482	25.2194
0.0522263	25.2194
0.0538686	25.3157
0.0546898	25.4119
0.0551825	25.7007
0.0563321	25.5082
0.0579745	25.6044
0.0596168	25.6044
0.0610949	25.7007
0.0627372	25.797
0.0637226	25.9895
0.0643796	26.0857
0.0655292	25.9895
0.0671715	25.9895
0.0688139	26.0857
0.0704562	26.182
0.0720985	26.182
0.0727555	26.567
0.0740693	26.6633
0.0753832	27.2408
0.0766971	27.7221
0.0780109	28.2034
0.0793248	28.6847
0.0806387	29.2622
0.0819526	30.0323
