Adsorption isotherm of Water on CuBTC
DOI: 10.1016/j.ijheatmasstransfer.2012.07.068
Adsorbate Water: InChIKey XLYOFNOQVPJJNP-UHFFFAOYSA-N
Temperature: 309 K
Tabular data in the source: 0
pressure (bar)	uptake (mmol/g)
0.000443623	0.579218
0.00232902	4.05452
0.00421442	7.24022
0.00609982	10.7155
0.00909427	14.0943
0.0119778	17.4731
0.0146396	19.7899
0.0178558	22.9756
0.0210721	23.6514
0.0237338	24.1341
0.0297227	24.9064
0.0357116	25.2925
0.0417006	25.7752
0.0441405	25.9683
0.0474677	26.1613
0.0509057	27.5128
0.0534566	28.6713
