Adsorption isotherm of Water on MIL-100
DOI: 10.1016/j.ijheatmasstransfer.2012.07.068
Adsorbate Water: InChIKey XLYOFNOQVPJJNP-UHFFFAOYSA-N
Temperature: 317 K
Tabular data in the source: 0
pressure (bar)	uptake (mmol/g)
0.000821168	0.192515
0.00213504	0.770058
0.00361314	1.25134
0.00509124	1.54012
0.00656934	1.92515
0.00804745	2.40643
0.00952555	3.17649
0.0108394	3.17649
0.0123175	3.46526
0.0137956	3.75403
0.0152737	4.13906
0.0169161	4.42784
0.0179015	5.10164
0.0187226	5.19789
0.0195438	5.58292
0.0205292	6.25672
0.0216788	6.93053
0.0279197	11.2621
0.0292336	11.7434
0.0303832	12.4172
0.0315328	12.9947
0.0326825	13.5723
0.0338321	14.1498
0.0349818	14.7274
0.0362956	15.2087
0.0369526	15.2087
0.0381022	15.6899
0.0397445	15.8825
0.0412226	16.075
0.042865	16.2675
0.0443431	16.46
0.0464781	16.6525
0.0481204	16.845
0.0497628	16.845
0.0512409	16.9413
0.0528832	17.1338
0.0543613	17.0375
0.0553467	17.0375
0.0568248	17.3263
0.0583029	17.4226
0.0599453	17.5188
0.0615876	17.6151
0.0630657	17.8076
0.064708	17.8076
0.0663504	17.9039
0.0679927	18.0001
0.0694708	18.0964
0.0711131	18.1926
0.072427	18.0964
0.0735766	18.5777
0.0750547	18.3851
0.0766971	18.4814
0.0781752	18.5777
0.0798175	18.6739
