Adsorption isotherm of Water on CuBTC
DOI: 10.1016/j.ijheatmasstransfer.2012.07.068
Adsorbate Water: InChIKey XLYOFNOQVPJJNP-UHFFFAOYSA-N
Temperature: 349 K
Tabular data in the source: 0
pressure (bar)	uptake (mmol/g)
0.00267223	0.730374
0.00467641	1.27815
0.0068476	1.82593
0.00868476	2.37371
0.01119	3.10409
0.0130271	3.65187
0.0156994	4.38224
0.0173695	4.83873
0.0195407	5.5691
0.0215449	6.11688
0.0237161	6.57336
0.0260543	7.30374
0.0282255	8.03411
0.0300626	8.49059
0.0322338	9.12967
0.034739	9.67745
0.0367432	10.3165
0.0384134	10.773
0.0407516	11.5034
0.0427557	11.7773
0.0447599	11.9599
0.0470981	12.3251
0.0487683	12.6902
0.0511065	13.0554
0.0532777	13.3293
0.0556159	13.6032
0.05762	13.9684
0.0596242	14.2423
0.0616284	14.6075
0.0637996	14.9727
0.0658038	15.1553
0.068142	15.4291
0.0698121	15.703
0.0721503	16.1595
0.0743215	16.4334
0.0764927	16.7986
0.0784969	17.0725
