Adsorption isotherm of Water on MIL-100
DOI: 10.1016/j.ijheatmasstransfer.2012.07.068
Adsorbate Water: InChIKey XLYOFNOQVPJJNP-UHFFFAOYSA-N
Temperature: 325 K
Tabular data in the source: 0
pressure (bar)	uptake (mmol/g)
0.00892632	0.292149
0.0109474	0.511261
0.0131368	0.584299
0.0153263	1.09556
0.0175158	1.67986
0.0197053	2.41023
0.0215579	2.99453
0.0235789	3.65187
0.0259368	4.38224
0.0279579	5.11261
0.0298105	5.76995
0.0314947	6.50032
0.0333474	7.37677
0.0353684	8.25322
0.0370526	8.98359
0.0389053	9.787
0.0409263	10.5904
0.0426105	11.1747
0.0446316	11.832
0.0471579	12.6355
0.0491789	13.1467
0.0512	13.8041
0.0535579	14.4614
0.0555789	15.0457
0.0572632	15.4109
0.0599579	15.703
0.0618105	15.9952
0.0641684	16.3604
0.0663579	16.6525
0.0678737	16.9447
