Adsorption isotherm of Water on CuBTC
DOI: 10.1016/j.ijheatmasstransfer.2012.07.068
Adsorbate Water: InChIKey XLYOFNOQVPJJNP-UHFFFAOYSA-N
Temperature: 325 K
Tabular data in the source: 0
pressure (bar)	uptake (mmol/g)
0.00167015	1.27815
0.00267223	2.19112
0.00384134	3.10409
0.00501044	4.10835
0.00634656	5.20391
0.00768267	6.29947
0.00868476	7.12114
0.0100209	8.2167
0.01119	9.31226
0.0123591	10.2252
0.0135282	11.1382
0.0155324	12.1425
0.0175365	13.1467
0.0197077	14.0597
0.0217119	14.8814
0.0237161	15.7943
0.0260543	16.7073
0.0277244	17.529
0.0302296	18.0767
0.0324008	18.7158
0.034071	19.1723
0.0367432	19.9027
0.0384134	20.3592
0.0409186	20.9069
0.0425887	21.2721
0.0450939	21.8199
0.0469311	22.1851
0.0491023	22.3677
0.0512735	22.9155
0.0532777	23.372
0.0554489	23.6458
0.0577871	23.9197
0.0597912	24.1936
0.0617954	24.3762
0.0639666	24.7414
0.0661378	25.1066
0.0679749	25.2892
