Adsorption isotherm of Water on Silica Gel
DOI: 10.1016/j.ijheatmasstransfer.2012.07.068
Adsorbate Water: InChIKey XLYOFNOQVPJJNP-UHFFFAOYSA-N
Temperature: 293 K
Tabular data in the source: 0
pressure (bar)	uptake (mmol/g)
0.00034632	0.641185
0.00121212	1.53884
0.0017316	2.18003
0.00225108	3.14181
0.00294372	3.78299
0.0034632	4.42418
0.00380952	5.00124
0.00536797	6.9248
0.00588745	7.56598
0.00623377	8.14305
0.00761905	9.74601
0.00813853	10.3872
0.00848485	10.9643
0.00935065	12.1184
0.00987013	12.7596
0.0103896	13.3366
0.0109091	13.9778
0.0112554	14.5549
0.0117749	15.1961
