Adsorption isotherm of Water on Silica Gel
DOI: 10.1016/j.ijheatmasstransfer.2012.07.068
Adsorbate Water: InChIKey XLYOFNOQVPJJNP-UHFFFAOYSA-N
Temperature: 317 K
Tabular data in the source: 0
pressure (bar)	uptake (mmol/g)
0.00492701	1.82889
0.00624088	2.31018
0.00755474	2.88772
0.00968978	3.85029
0.0108394	4.13906
0.0121533	4.62035
0.0134672	5.00538
0.014781	5.48667
0.0159307	5.96795
0.0174088	6.44924
0.0183942	6.93053
0.0188869	7.12304
0.020365	7.41181
0.0216788	7.79684
0.0244708	8.66316
0.027427	9.43321
0.0282482	9.52947
0.029562	10.0108
0.0312044	10.3958
0.0325182	10.7808
0.0341606	11.0696
0.0354745	11.4546
0.0367883	11.2621
0.0376095	11.8396
0.0390876	12.2247
0.0405657	12.5134
0.042208	12.8022
0.0436861	13.1872
0.0451642	13.3798
0.0464781	13.5723
0.0479562	13.8611
0.0495985	13.9573
0.0510766	14.1498
0.052719	14.2461
0.0541971	14.4386
0.0553467	14.3423
0.0568248	14.6311
0.0584672	14.6311
0.0599453	14.7274
0.0615876	14.7274
0.0632299	14.9199
0.0650365	14.9199
0.0666788	14.9199
0.0683212	15.0161
0.0699635	15.1124
0.0716058	15.1124
0.0739051	15.2087
0.0755474	15.2087
0.0771898	15.2087
0.0788321	15.3049
0.0804745	15.3049
