Adsorption isotherm of Water on MIL-100
DOI: 10.1016/j.ijheatmasstransfer.2012.07.068
Adsorbate Water: InChIKey XLYOFNOQVPJJNP-UHFFFAOYSA-N
Temperature: 301 K
Tabular data in the source: 0
pressure (bar)	uptake (mmol/g)
0.000515654	0.193073
0.00375691	2.22033
0.00596685	3.1857
0.00758748	3.86145
0.00979742	6.46793
0.0112707	8.59173
0.013407	11.9705
0.0151013	14.8666
0.0170166	16.4112
0.0189319	17.9558
0.0209208	18.3419
0.0226151	18.535
0.0246777	18.728
0.0264457	18.8246
0.0286556	19.1142
0.0302762	19.5003
0.0323389	19.7899
0.0341068	20.1761
