Adsorption isotherm of Water on MIL-100
DOI: 10.1016/j.ijheatmasstransfer.2012.07.068
Adsorbate Water: InChIKey XLYOFNOQVPJJNP-UHFFFAOYSA-N
Temperature: 309 K
Tabular data in the source: 0
pressure (bar)	uptake (mmol/g)
0.000998152	0.289609
0.00377079	1.25497
0.00598891	2.22033
0.00931608	3.37877
0.0119778	4.15106
0.0150832	7.81944
0.0179667	11.2947
0.0208503	13.5151
0.0237338	15.5423
0.0272828	16.4112
0.0297227	16.8939
0.0328281	17.1835
0.0357116	17.3765
0.0385952	17.6661
0.0414787	17.9558
0.0448059	18.2454
0.0474677	18.4384
0.0503512	18.728
0.0534566	19.0177
