Adsorption isotherm of Water on MIL-100
DOI: 10.1016/j.ijheatmasstransfer.2012.07.068
Adsorbate Water: InChIKey XLYOFNOQVPJJNP-UHFFFAOYSA-N
Temperature: 325 K
Tabular data in the source: 0
pressure (bar)	uptake (mmol/g)
0.00200371	0.289609
0.00425788	0.77229
0.0062616	1.35151
0.0107699	2.1238
0.0125232	2.60648
0.0132746	3.1857
0.0152783	3.08916
0.0175325	3.37877
0.0197866	3.76492
0.0220408	4.05452
0.0245455	4.34413
0.0267996	4.73028
0.0280519	5.21296
0.0293043	5.50257
0.0310575	6.17832
0.0328108	6.85408
0.034564	7.4333
0.0360668	8.20559
0.03782	8.68827
0.0425788	10.5225
0.0443321	11.1017
0.0460853	11.7774
0.0475881	12.4532
0.0493414	13.1289
0.0510946	13.8047
0.0528479	14.3839
0.055603	15.5423
0.0576067	15.5423
0.0601113	15.7354
0.0623655	15.9285
0.0648701	16.1216
0.0671243	16.4112
0.0696289	16.5077
0.0721336	16.6042
0.0743878	16.7008
0.0768924	16.7973
0.079397	16.8939
0.0824026	17.4731
0.0844063	17.0869
0.0866605	17.1835
0.0891651	17.28
0.0916698	17.3765
0.0941744	17.4731
0.0969295	17.5696
0.0994341	17.5696
0.101939	17.7627
0.104193	17.8592
0.106698	17.9558
0.110455	18.0523
0.112959	18.1488
0.115464	18.2454
0.117718	18.3419
0.120223	18.4384
