Adsorption isotherm of Water on CuBTC
DOI: 10.1016/j.ijheatmasstransfer.2012.07.068
Adsorbate Water: InChIKey XLYOFNOQVPJJNP-UHFFFAOYSA-N
Temperature: 317 K
Tabular data in the source: 0
pressure (bar)	uptake (mmol/g)
0.000835073	0.912967
0.00183716	2.00853
0.00250522	2.8302
0.00317328	3.65187
0.00384134	4.47354
0.00450939	5.38651
0.00517745	6.20818
0.00584551	7.02985
0.00651357	7.85152
0.00718163	8.67319
0.00784969	9.49486
0.00835073	10.4078
0.0091858	11.2295
0.0101879	12.0512
0.011357	12.6902
0.0123591	13.3293
0.0133612	14.0597
0.0145303	14.7901
0.0155324	15.5204
0.0165344	16.1595
0.0177035	16.8899
0.0193737	17.7116
0.0207098	18.2593
0.0220459	18.8071
0.023215	19.3549
0.0245511	19.9027
0.0258873	20.4505
0.0272234	20.9069
0.0287265	21.3634
0.0302296	21.7286
0.0317328	22.1851
0.0332359	22.5503
0.034739	23.0068
0.0362422	23.372
0.0367432	23.5546
0.0382463	23.8284
0.0397495	24.1936
0.0414196	24.4675
0.0429228	24.7414
0.0444259	25.1066
0.045595	25.2892
