Adsorption isotherm of Water on CuBTC
DOI: 10.1016/j.ijheatmasstransfer.2012.07.068
Adsorbate Water: InChIKey XLYOFNOQVPJJNP-UHFFFAOYSA-N
Temperature: 309 K
Tabular data in the source: 0
pressure (bar)	uptake (mmol/g)
0.000835073	1.64334
0.00167015	2.7389
0.00217119	3.65187
0.00250522	4.47354
0.00300626	5.38651
0.00350731	6.29947
0.00384134	7.12114
0.00467641	8.67319
0.00517745	9.49486
0.00584551	10.4991
0.00634656	11.5034
0.00718163	12.3251
0.00784969	13.1467
0.00868476	13.9684
0.00951983	14.6988
0.0103549	15.5204
0.011023	16.3421
0.0128601	17.8029
0.0138622	18.5332
0.0150313	19.1723
0.0162004	19.8114
0.0172025	20.5418
0.0183716	21.1808
0.0197077	21.7286
0.0210438	22.2764
0.0222129	22.8242
0.0242171	23.7371
0.0267223	24.3762
0.0280585	24.8327
0.0297286	25.1979
