Adsorption isotherm of Water on Silica Gel
DOI: 10.1016/j.ijheatmasstransfer.2012.07.068
Adsorbate Water: InChIKey XLYOFNOQVPJJNP-UHFFFAOYSA-N
Temperature: 341 K
Tabular data in the source: 0
pressure (bar)	uptake (mmol/g)
0.00242424	0.256474
0.00450216	0.384711
0.00709957	0.641185
0.00917749	0.769422
0.0110823	0.961777
0.012987	1.15413
0.0152381	1.34649
0.017316	1.60296
0.0195671	1.7312
0.0218182	1.92355
0.0233766	2.18003
0.025974	2.37238
0.0280519	2.56474
0.0301299	2.75709
0.032381	2.88533
0.0342857	3.01357
0.0365368	3.33416
0.0386147	3.52652
0.0403463	3.59063
0.0427706	3.84711
0.0448485	3.97535
0.0470996	4.23182
0.0490043	4.29594
0.0510823	4.55241
0.0531602	4.74477
0.0555844	4.93712
0.0576623	5.12948
0.0597403	5.32183
0.061645	5.45007
0.0640693	5.64243
0.0658009	5.83478
0.0682251	6.02714
0.0701299	6.21949
0.0725541	6.34773
0.074632	6.54009
0.07671	6.73244
0.078961	6.9248
