Adsorption isotherm of Water on MIL-100
DOI: 10.1016/j.ijheatmasstransfer.2012.07.068
Adsorbate Water: InChIKey XLYOFNOQVPJJNP-UHFFFAOYSA-N
Temperature: 317 K
Tabular data in the source: 0
pressure (bar)	uptake (mmol/g)
0.0032	0.219112
0.00555789	0.365187
0.00757895	0.511261
0.00892632	0.584299
0.0102737	1.02252
0.0112842	1.53378
0.0124632	2.04505
0.0136421	2.55631
0.0146526	3.06757
0.0158316	3.57883
0.0170105	4.16313
0.0190316	5.18565
0.0200421	5.76995
0.0208842	6.42729
0.0218947	7.01158
0.0227368	7.59588
0.0237474	8.25322
0.0245895	8.83752
0.0256	9.42182
0.0264421	10.0792
0.0276211	10.7365
0.0286316	11.1747
0.0296421	11.759
0.0308211	12.1972
0.032	12.7085
0.0331789	13.2928
0.0341895	13.8041
0.0353684	14.3153
0.0365474	14.7535
0.0378947	15.1187
0.0394105	15.4839
0.0407579	15.8491
0.0426105	16.2873
0.0441263	16.5795
0.0453053	16.9447
