Adsorption isotherm of Water on Silica Gel
DOI: 10.1016/j.ijheatmasstransfer.2012.07.068
Adsorbate Water: InChIKey XLYOFNOQVPJJNP-UHFFFAOYSA-N
Temperature: 309 K
Tabular data in the source: 0
pressure (bar)	uptake (mmol/g)
0.00110906	0.482682
0.00310536	1.64112
0.00598891	3.47531
0.00898336	5.11642
0.0118669	6.85408
0.0149723	8.10905
0.0179667	9.46056
0.021183	10.619
0.0237338	11.6809
0.027061	12.6463
0.0297227	13.5151
0.0327172	13.9978
0.0357116	14.577
0.0390388	14.7701
0.0415896	14.8666
0.0445841	15.1562
0.0473567	15.1562
0.0500185	15.3493
0.0534566	15.5423
