Adsorption isotherm of Water on Silica Gel
DOI: 10.1016/j.ijheatmasstransfer.2012.07.068
Adsorbate Water: InChIKey XLYOFNOQVPJJNP-UHFFFAOYSA-N
Temperature: 349 K
Tabular data in the source: 0
pressure (bar)	uptake (mmol/g)
0.00467532	0.256474
0.00692641	0.384711
0.00900433	0.512948
0.0110823	0.641185
0.0131602	0.769422
0.0150649	0.897659
0.0174892	1.0259
0.0195671	1.15413
0.021645	1.34649
0.0235498	1.47473
0.025974	1.60296
0.0280519	1.7312
0.0301299	1.92355
0.0322078	1.98767
0.0342857	2.11591
0.0365368	2.24415
0.0384416	2.37238
0.0405195	2.50062
0.0427706	2.62886
0.0450216	2.69298
0.0467532	2.82121
0.048658	3.01357
0.0510823	3.14181
0.0533333	3.27004
0.0555844	3.39828
0.0597403	3.65475
0.0633766	3.84711
0.065974	3.97535
0.0680519	4.1677
0.070303	4.29594
0.0725541	4.42418
0.074632	4.55241
0.0787879	4.80889
