Adsorption isotherm of Water on CuBTC
DOI: 10.1016/j.ijheatmasstransfer.2012.07.068
Adsorbate Water: InChIKey XLYOFNOQVPJJNP-UHFFFAOYSA-N
Temperature: 333 K
Tabular data in the source: 0
pressure (bar)	uptake (mmol/g)
0.000835073	0.456484
0.00217119	1.18686
0.00400835	2.19112
0.00584551	3.28668
0.00751566	4.19965
0.00901879	5.02132
0.011023	6.20818
0.0125261	7.12114
0.0143633	8.2167
0.0162004	9.31226
0.0180376	10.3165
0.0197077	11.2295
0.0215449	11.9599
0.0238831	12.5989
0.0258873	13.238
0.0280585	13.8771
0.0302296	14.5162
0.0324008	15.064
0.034572	15.7943
0.0364092	16.4334
0.0385804	16.8899
0.0407516	17.529
0.0427557	17.8942
0.0449269	18.2593
0.0470981	18.7158
0.0494363	19.1723
0.0512735	19.4462
0.0534447	19.8114
0.0556159	20.2679
0.057453	20.6331
0.0592902	20.9982
0.0617954	21.1808
0.0639666	21.4547
0.0659708	21.8199
0.0678079	22.0025
0.0703132	22.3677
0.0721503	22.5503
0.0743215	22.8242
0.0764927	23.0981
0.0784969	23.372
