Adsorption isotherm of Water on CuBTC
DOI: 10.1016/j.ijheatmasstransfer.2012.07.068
Adsorbate Water: InChIKey XLYOFNOQVPJJNP-UHFFFAOYSA-N
Temperature: 325 K
Tabular data in the source: 0
pressure (bar)	uptake (mmol/g)
0.00125232	0.77229
0.00225417	1.64112
0.00300557	2.50994
0.00400742	3.47531
0.00500928	4.34413
0.00576067	5.21296
0.00676252	6.08179
0.00776438	7.04715
0.00851577	7.91598
0.00951763	8.7848
0.010269	9.65363
0.0112709	10.5225
0.0120223	11.3913
0.013525	13.5151
0.0155288	13.8047
0.0170315	14.4804
0.0187848	15.1562
0.0202876	15.832
0.0220408	16.6042
0.0237941	17.1835
0.0252968	17.8592
0.0267996	18.535
0.0290538	19.0177
0.031308	19.3073
0.0338126	19.5969
0.0360668	19.8865
0.038321	20.2726
0.0408256	20.8518
0.0425788	20.6588
0.044833	20.9484
0.0473377	21.0449
0.0498423	21.238
0.0520965	21.3345
0.0543506	21.6241
0.0561039	21.5276
0.0598609	21.7207
0.0623655	21.8172
0.0648701	21.9137
0.0671243	22.0103
0.0698794	22.1068
0.072384	22.2999
0.0746382	22.3964
0.0771429	22.493
0.0796475	22.5895
0.0819017	22.8791
0.0829035	22.8791
0.0849072	22.7826
0.0874119	22.8791
0.0899165	22.9756
0.0924212	23.0722
0.0949258	23.0722
0.0959276	23.2652
0.096679	23.1687
0.0989332	23.2652
0.101438	23.3618
0.103942	23.4583
0.106447	23.4583
0.109202	23.8445
0.111206	24.2306
0.112709	24.9064
0.114462	25.4856
0.115965	26.1613
0.117968	26.8371
0.119722	27.5128
0.121224	28.1886
0.122727	28.7678
