Adsorption isotherm of Water on CuBTC
DOI: 10.1016/j.ijheatmasstransfer.2012.07.068
Adsorbate Water: InChIKey XLYOFNOQVPJJNP-UHFFFAOYSA-N
Temperature: 301 K
Tabular data in the source: 0
pressure (bar)	uptake (mmol/g)
0.000368324	0.77229
0.00139963	3.08916
0.00265193	6.17832
0.00375691	8.88134
0.00478821	10.7155
0.00633517	13.9012
0.00758748	16.2181
0.00883978	18.0523
0.0100921	19.8865
0.011418	21.7207
0.013628	22.3964
0.0151013	22.8791
0.0168692	23.3618
0.0189319	23.7479
0.0206262	23.941
0.0227624	24.3271
0.0243831	24.5202
0.0265193	24.7133
0.0286556	24.9064
0.0302762	25.0994
0.0321915	25.9683
0.0341068	27.0302
