Adsorption isotherm of Water on Silica Gel
DOI: 10.1016/j.ijheatmasstransfer.2012.07.068
Adsorbate Water: InChIKey XLYOFNOQVPJJNP-UHFFFAOYSA-N
Temperature: 301 K
Tabular data in the source: 0
pressure (bar)	uptake (mmol/g)
0.000519481	0.512948
0.00138528	1.0259
0.00207792	1.60296
0.00294372	2.18003
0.00398268	3.14181
0.00450216	3.52652
0.00519481	4.10358
0.00606061	4.68065
0.00675325	5.25772
0.00761905	5.83478
0.00796537	6.34773
0.00883117	6.86068
0.00969697	7.43774
0.0103896	8.01481
0.0110823	8.59188
0.0116017	9.16894
0.0124675	9.68189
0.0131602	10.259
0.014026	10.836
0.0147186	11.4131
0.0154113	11.926
0.0161039	12.5031
0.0167965	13.0802
0.0176623	13.6572
0.018355	14.2343
0.0188745	14.6831
