Adsorption isotherm of Water on CuBTC
DOI: 10.1016/j.ijheatmasstransfer.2012.07.068
Adsorbate Water: InChIKey XLYOFNOQVPJJNP-UHFFFAOYSA-N
Temperature: 341 K
Tabular data in the source: 0
pressure (bar)	uptake (mmol/g)
0.000835073	0.27389
0.00267223	1.09556
0.00484342	1.82593
0.0068476	2.6476
0.00901879	3.56057
0.011023	4.29095
0.0131942	5.20391
0.0153653	5.93429
0.0173695	6.84725
0.0195407	7.66892
0.0217119	8.58189
0.0240501	9.49486
0.0258873	10.2252
0.0280585	11.1382
0.0298956	11.5947
0.0322338	12.1425
0.034071	12.4164
0.0364092	12.9641
0.0384134	13.4206
0.0407516	13.9684
0.0427557	14.3336
0.0445929	14.7901
0.0469311	15.1553
0.0489353	15.6117
0.0512735	16.0682
0.0532777	16.5247
0.0554489	16.8899
0.057453	17.4377
0.0596242	17.7116
0.0616284	17.9855
0.0639666	18.2593
0.0658038	18.5332
0.0679749	18.6245
0.0701461	19.081
0.0719833	19.1723
0.0743215	19.5375
0.0766597	19.9027
0.0784969	19.994
