Adsorption isotherm of Water on Silica Gel
DOI: 10.1016/j.ijheatmasstransfer.2012.07.068
Adsorbate Water: InChIKey XLYOFNOQVPJJNP-UHFFFAOYSA-N
Temperature: 301 K
Tabular data in the source: 0
pressure (bar)	uptake (mmol/g)
0.000515654	0.386145
0.00220994	1.83419
0.00375691	3.1857
0.00567219	4.82682
0.00758748	6.3714
0.00965009	7.91598
0.0113444	9.17095
0.0133333	10.2328
0.0152486	11.3913
0.0169429	12.1636
0.0189319	13.322
0.0227624	14.2874
0.0247514	14.4804
0.0264457	14.6735
0.0286556	14.8666
0.0302762	14.9631
0.0321915	15.0597
0.0340331	15.3493
