Adsorption isotherm of Water on Silica Gel
DOI: 10.1016/j.ijheatmasstransfer.2012.07.068
Adsorbate Water: InChIKey XLYOFNOQVPJJNP-UHFFFAOYSA-N
Temperature: 358 K
Tabular data in the source: 0
pressure (bar)	uptake (mmol/g)
0.0025974	0.0641185
0.00484848	0.128237
0.00709957	0.256474
0.00883117	0.320592
0.0109091	0.448829
0.0131602	0.512948
0.0154113	0.641185
0.017316	0.705303
0.0193939	0.769422
0.021645	0.897659
0.0237229	0.961777
0.0258009	1.0259
0.0277056	1.15413
0.0299567	1.21825
0.032381	1.34649
0.0344589	1.41061
0.0361905	1.47473
0.0384416	1.60296
0.0408658	1.7312
0.0425974	1.79532
0.0446753	1.85944
0.0470996	1.92355
0.0491775	2.11591
0.0510823	2.18003
0.0533333	2.30827
0.0555844	2.37238
0.0574892	2.4365
0.0595671	2.50062
0.0618182	2.56474
0.0638961	2.69298
0.0663203	2.82121
0.0678788	2.82121
0.0704762	3.01357
0.0725541	3.07769
0.0742857	3.14181
0.0768831	3.27004
0.0787879	3.33416
