Adsorption isotherm of Water on Silica Gel
DOI: 10.1016/j.ijheatmasstransfer.2012.07.068
Adsorbate Water: InChIKey XLYOFNOQVPJJNP-UHFFFAOYSA-N
Temperature: 293 K
Tabular data in the source: 0
pressure (bar)	uptake (mmol/g)
0.00036994	0.675753
0.00365073	4.92335
0.00471375	6.46795
0.00586876	7.81946
0.00697778	9.26751
0.00817851	10.3294
0.00933325	11.4878
0.0104877	12.4532
0.0117345	13.4185
0.0129805	13.9012
0.0140419	14.2874
0.01538	14.577
0.016395	14.7701
0.0176866	14.8666
0.0187014	14.8666
0.0199934	15.2528
0.0211003	15.1562
