Adsorption isotherm of Water on MIL-100
DOI: 10.1016/j.ijheatmasstransfer.2012.07.068
Adsorbate Water: InChIKey XLYOFNOQVPJJNP-UHFFFAOYSA-N
Temperature: 301 K
Tabular data in the source: 0
pressure (bar)	uptake (mmol/g)
0.00151579	0.292149
0.00387368	0.657336
0.00454737	1.31467
0.00538947	2.26416
0.00572632	2.84846
0.00623158	3.14061
0.00690526	3.79794
0.00757895	4.60135
0.00808421	5.33173
0.00842105	5.98906
0.00892632	6.71943
0.00943158	7.44981
0.00976842	8.10714
0.0106105	9.42182
0.0111158	10.1522
0.0116211	10.8095
0.0122947	11.4669
0.0128	12.1972
0.0134737	12.8546
0.0139789	13.5119
0.0146526	14.2423
0.016	15.2648
0.0170105	15.8491
0.0180211	16.4334
0.0190316	17.0177
0.0203789	17.4559
0.0217263	17.8211
0.0225684	18.1133
