Adsorption isotherm of Water on CuBTC
DOI: 10.1016/j.ijheatmasstransfer.2012.07.068
Adsorbate Water: InChIKey XLYOFNOQVPJJNP-UHFFFAOYSA-N
Temperature: 293 K
Tabular data in the source: 0
pressure (bar)	uptake (mmol/g)
0.000501044	1.36945
0.0011691	4.83873
0.00150313	6.57336
0.00167015	7.48633
0.00183716	8.67319
0.00200418	9.49486
0.0023382	10.3165
0.00250522	11.0469
0.00283925	11.9599
0.00317328	12.8728
0.00350731	13.6945
0.00384134	14.6075
0.00417537	15.5204
0.00450939	16.4334
0.00484342	17.2551
0.00551148	18.5332
0.00617954	19.3549
0.00668058	20.2679
0.00734864	21.0895
0.00818372	22.1851
0.00885177	22.8242
0.0100209	23.8284
0.011524	25.1979
