Adsorption isotherm of Water on MIL-100
DOI: 10.1016/j.ijheatmasstransfer.2012.07.068
Adsorbate Water: InChIKey XLYOFNOQVPJJNP-UHFFFAOYSA-N
Temperature: 349 K
Tabular data in the source: 0
pressure (bar)	uptake (mmol/g)
0.00875789	0.219112
0.0109474	0.365187
0.0129684	0.292149
0.0149895	0.219112
0.0170105	0.365187
0.0193684	0.365187
0.0213895	0.292149
0.0235789	0.365187
0.0257684	0.365187
0.0281263	0.438224
0.0299789	0.365187
0.032	0.511261
0.0345263	0.511261
0.0363789	0.511261
0.0384	0.584299
0.0407579	0.657336
0.0427789	0.803411
0.0446316	1.09556
0.0468211	1.31467
0.0491789	1.46075
0.0510316	1.7529
0.0533895	1.97201
0.0552421	2.19112
0.0577684	2.41023
0.0596211	2.62934
0.0618105	2.84846
0.0638316	2.99453
0.0658526	3.28668
0.0680421	3.43275
0.0702316	3.65187
0.0724211	3.87098
0.0742737	4.09009
0.0768	4.38224
0.0789895	4.52831
