Adsorption isotherm of Water on MIL-100
DOI: 10.1016/j.ijheatmasstransfer.2012.07.068
Adsorbate Water: InChIKey XLYOFNOQVPJJNP-UHFFFAOYSA-N
Temperature: 358 K
Tabular data in the source: 0
pressure (bar)	uptake (mmol/g)
0.00656842	0.0730373
0.00909474	0.0730373
0.0111158	0.219112
0.0131368	0.146075
0.0153263	0.146075
0.0173474	0.219112
0.0197053	0.219112
0.0215579	0.219112
0.0239158	0.292149
0.0257684	0.292149
0.0281263	0.292149
0.0301474	0.292149
0.0321684	0.365187
0.0343579	0.365187
0.0363789	0.365187
0.0389053	0.365187
0.0405895	0.438224
0.0429474	0.438224
0.0448	0.438224
0.0469895	0.438224
0.0491789	0.511261
0.0513684	0.511261
0.0532211	0.511261
0.0552421	0.657336
0.0574316	0.803411
0.0597895	0.876448
0.0616421	1.02252
0.0638316	1.24163
0.0660211	1.38771
0.0678737	1.46075
0.0698947	1.67986
0.0724211	1.82593
0.0742737	2.04505
0.0766316	2.19112
0.0789895	2.33719
