Adsorption isotherm of Water on CuBTC
DOI: 10.1016/j.ijheatmasstransfer.2012.07.068
Adsorbate Water: InChIKey XLYOFNOQVPJJNP-UHFFFAOYSA-N
Temperature: 358 K
Tabular data in the source: 0
pressure (bar)	uptake (mmol/g)
0.00250522	0.54778
0.00467641	0.912967
0.0068476	1.36945
0.00901879	1.73464
0.011023	2.19112
0.0130271	2.55631
0.0153653	3.10409
0.0173695	3.46928
0.0195407	3.92576
0.0215449	4.29095
0.0238831	4.74743
0.0257203	5.20391
0.0280585	5.75169
0.0300626	6.11688
0.0324008	6.57336
0.034405	7.02985
0.0365762	7.39503
0.0385804	7.85152
0.0405846	8.308
0.0427557	8.76448
0.0449269	9.12967
0.0470981	9.67745
0.0492693	10.0426
0.0512735	10.4991
0.0532777	10.8643
0.0556159	11.3208
0.057453	11.5947
0.0596242	11.7773
0.0617954	12.0512
0.0637996	12.2338
0.0659708	12.5076
0.0679749	12.6902
0.0699791	12.8728
0.0723173	13.1467
0.0741545	13.3293
0.0763257	13.6032
0.0784969	13.8771
