Adsorption isotherm of Nitrogen on JUC-528
DOI: 10.1021/jacs.0c02225
Article source: Figure S11
Adsorbate Nitrogen: InChIKey IJGRMHOSHXDMSA-UHFFFAOYSA-N
Kind: experiment
Temperature: 77 K
Tabular data in the source: 0
pressure (bar)	uptake (cm3(STP)/g)
0.045745	96.6207
0.081297	101.852
0.119093	108.896
0.150211	114.159
0.183438	112.09
0.225641	117.273
0.261112	117.017
0.283282	116.857
0.31659	120.275
0.343247	123.741
0.387532	119.762
0.436386	124.897
0.465206	124.689
0.487375	124.529
0.527362	129.728
0.564995	125.798
0.598412	136.532
0.636073	134.431
0.673734	132.33
0.711395	130.228
0.746893	131.801
0.77574	133.422
0.824594	138.557
0.855739	145.649
0.886911	154.571
0.922545	165.289
0.974291	216.135
1.01203	369.521
0.007192	38.3625
0.016249	51.102
0.029685	60.1513
0.038607	63.7454
0.058641	69.0885
0.067617	76.3408
0.098762	83.4329
0.123094	79.5987
0.171948	84.7337
0.187494	86.4507
0.225263	91.6658
0.263086	100.539
0.29853	98.4538
0.342869	98.1336
0.387289	103.301
0.42495	101.199
0.458231	102.788
0.502516	98.81
0.540258	102.196
0.555776	102.084
0.595762	107.283
0.646752	106.915
0.675653	112.194
0.704419	108.328
0.742188	113.543
0.757707	113.431
0.799829	113.126
0.844303	121.952
0.879801	123.524
0.913271	137.917
0.944606	157.813
0.980753	203.283
1.01119	312.82
1.01647	369.489
1.02382	416.997
1.02588	406.006
1.02858	438.913
1.02671	462.707
