Adsorption isotherm of Nitrogen on JUC-527
DOI: 10.1021/jacs.0c02225
Article source: Figure S10
Adsorbate Nitrogen: InChIKey IJGRMHOSHXDMSA-UHFFFAOYSA-N
Kind: experiment
Temperature: 77 K
Tabular data in the source: 0
pressure (bar)	uptake (cm3(STP)/g)
0.045549	59.3593
0.076366	64.4531
0.109743	70.8334
0.153463	70.7218
0.179169	71.9493
0.210019	73.1637
0.243452	73.0784
0.271742	73.0061
0.318011	75.4743
0.346289	76.6952
0.3797	79.1961
0.41831	75.2183
0.456886	75.1198
0.49289	75.0279
0.526301	77.5288
0.549425	80.056
0.593156	78.6513
0.629183	75.9731
0.665187	75.8812
0.693465	77.1022
0.734602	78.2903
0.768013	80.7912
0.806578	81.9859
0.84511	87.0599
0.873344	93.4534
0.90926	103.707
0.950187	129.464
0.995536	239.262
0.009932	14.1916
0.009866	21.9504
0.017537	27.1033
0.027746	36.1289
0.037967	43.8615
0.055936	47.6949
0.089335	51.489
0.115042	52.7165
0.158728	56.4843
0.181874	56.4252
0.220451	56.3267
0.26417	56.2151
0.292438	58.7292
0.361864	59.8451
0.390153	59.7729
0.410727	59.7204
0.467328	56.9897
0.498189	56.9109
0.521302	60.7312
0.567627	56.7337
0.598454	60.5343
0.642185	59.1296
0.678168	61.624
0.716733	62.8186
0.745067	57.5739
0.786182	61.3483
0.827296	65.1226
0.842694	68.9626
0.873522	72.7633
0.899162	81.7496
0.935022	98.4684
0.965617	129.425
1.00093	209.507
0.995403	254.78
1.0029	280.623
1.00535	294.841
1.00777	311.645
1.00766	324.576
