Adsorption isotherm of Methane on Zeolite 5A
DOI: 10.1016/j.micromeso.2014.08.022
Article source: Figure 3
Adsorbate Methane: InChIKey VNWKTOKETHGBQD-UHFFFAOYSA-N
Kind: experiment
Temperature: 323 K
Tabular data in the source: 0
pressure (bar)	uptake (mmol/g)
0	0.0292
0.0938	0.0486
0.25	0.0778
0.406	0.126
0.563	0.185
0.781	0.243
1.06	0.321
1.19	0.35
1.56	0.447
1.97	0.535
2.97	0.749
3.97	0.914
4.97	1.07
5.97	1.2
6.97	1.34
7.97	1.47
8.97	1.58
