Adsorption isotherm of Carbon Dioxide on Zeolite 5A
DOI: 10.1016/j.micromeso.2014.08.022
Article source: Table A1
Adsorbate Carbon Dioxide: InChIKey CURLTUGMZLYLDI-UHFFFAOYSA-N
Kind: experiment
Temperature: 303 K
Tabular data in the source: 0
pressure (bar)	uptake (mmol/g)
0.0198	1.5203
0.048	1.9342
0.1185	2.3325
0.2337	2.6039
0.3418	2.7369
0.429	2.8157
0.536	2.8776
0.621	2.9357
0.781	2.992
0.9758	3.0608
1.181	3.1116
1.3842	3.1527
1.577	3.1971
1.9824	3.2587
2.954	3.3749
3.958	3.446
4.9338	3.5312
5.934	3.5985
6.952	3.659
7.93	3.7409
8.944	3.8039
9.955	3.8623
