Adsorption isotherm of Carbon Dioxide, Methane on Zeolite 5A
DOI: 10.1016/j.micromeso.2014.08.022
Article source: Table 9
Adsorbate Carbon Dioxide: InChIKey CURLTUGMZLYLDI-UHFFFAOYSA-N
Adsorbate Methane: InChIKey VNWKTOKETHGBQD-UHFFFAOYSA-N
Kind: experiment
Temperature: 303 K
Tabular data in the source: 0
pressure (bar)	Carbon Dioxide fraction	Carbon Dioxide uptake (mmol/g)	Methane fraction	Methane uptake (mmol/g)	total uptake (mmol/g)
0.7423	0.1	1.6551	0.9	0.1839	
1.2002	0.17	2.1108	0.83	0.1835	
1.7033	0.22	2.4899	0.78	0.1037	
2.289	0.25	2.5938	0.75	0.1655	
3.216	0.29	2.8473	0.71	0.1581	
4.3537	0.3	2.7195	0.7	0.3021	
6.205	0.3	2.9128	0.7	0.2532	
