Adsorption isotherm of Carbon Dioxide, Methane on Zeolite 5A
DOI: 10.1016/j.micromeso.2014.08.022
Article source: Table 10
Adsorbate Carbon Dioxide: InChIKey CURLTUGMZLYLDI-UHFFFAOYSA-N
Adsorbate Methane: InChIKey VNWKTOKETHGBQD-UHFFFAOYSA-N
Kind: experiment
Temperature: 323 K
Tabular data in the source: 0
pressure (bar)	Carbon Dioxide fraction	Carbon Dioxide uptake (mmol/g)	Methane fraction	Methane uptake (mmol/g)	total uptake (mmol/g)
0.7623	0.08	1.3304	0.92	0.1966	
1.1961	0.14	1.6769	0.86	0.2959	
1.4576	0.15	2.091	0.85	0.1573	
2.3352	0.26	2.4699	0.74	0.2249	
4.3691	0.26	2.6423	0.74	0.1988	
5.8032	0.28	2.8522	0.72	0.1501	
7.6889	0.3	2.9335	0.7	0.2208	
