Adsorption isotherm of Methane on Zeolite 5A
DOI: 10.1016/j.micromeso.2014.08.022
Article source: Figure 3
Adsorbate Methane: InChIKey VNWKTOKETHGBQD-UHFFFAOYSA-N
Kind: experiment
Temperature: 303 K
Tabular data in the source: 0
pressure (bar)	uptake (mmol/g)
0.0938	0.0875
0.219	0.146
0.375	0.204
0.563	0.311
0.781	0.389
0.969	0.467
1.19	0.554
1.56	0.691
1.97	0.827
2.91	1.07
3.94	1.32
4.97	1.5
5.94	1.63
7.03	1.77
7.97	1.89
9.06	1.96
