Adsorption isotherm of Carbon Dioxide, Methane on Zeolite 5A
DOI: 10.1016/j.micromeso.2014.08.022
Article source: Table 4
Adsorbate Carbon Dioxide: InChIKey CURLTUGMZLYLDI-UHFFFAOYSA-N
Adsorbate Methane: InChIKey VNWKTOKETHGBQD-UHFFFAOYSA-N
Kind: experiment
Temperature: 303 K
Tabular data in the source: 0
pressure (bar)	Carbon Dioxide fraction	Carbon Dioxide uptake (mmol/g)	Methane fraction	Methane uptake (mmol/g)	total uptake (mmol/g)
3.9941	0.15	0.8949	0.85	0.8521	
4.18	0.24	1.4558	0.76	0.604	
3.949	0.55	2.7328	0.45	0.2487	
4.0101	0.83	3.0822	0.17	0.0588	
4.0141	0.89	3.1218	0.11	0.0419	
