Adsorption isotherm of Carbon Dioxide, Methane on Zeolite 5A
DOI: 10.1016/j.micromeso.2014.08.022
Article source: Table 11
Adsorbate Carbon Dioxide: InChIKey CURLTUGMZLYLDI-UHFFFAOYSA-N
Adsorbate Methane: InChIKey VNWKTOKETHGBQD-UHFFFAOYSA-N
Kind: experiment
Temperature: 303 K
Tabular data in the source: 0
pressure (bar)	Carbon Dioxide fraction	Carbon Dioxide uptake (mmol/g)	Methane fraction	Methane uptake (mmol/g)	total uptake (mmol/g)
1.157	0.05	1.0932	0.95	0.2733	
1.6554	0.1	1.5426	0.9	0.2722	
2.6605	0.11	1.8938	0.89	0.2829	
3.9511	0.13	2.3663	0.87	0.1781	
5.9141	0.3	2.7618	0.7	0.0278	
6.8706	0.36	2.8015	0.64	0.0169	
