Adsorption isotherm of Carbon Dioxide, Methane on Zeolite 5A
DOI: 10.1016/j.micromeso.2014.08.022
Article source: Table 12
Adsorbate Carbon Dioxide: InChIKey CURLTUGMZLYLDI-UHFFFAOYSA-N
Adsorbate Methane: InChIKey VNWKTOKETHGBQD-UHFFFAOYSA-N
Kind: experiment
Temperature: 323 K
Tabular data in the source: 0
pressure (bar)	Carbon Dioxide fraction	Carbon Dioxide uptake (mmol/g)	Methane fraction	Methane uptake (mmol/g)	total uptake (mmol/g)
1.3362	0.07	1.0993	0.93	0.2251	
1.8709	0.09	1.4448	0.91	0.2158	
2.2009	0.11	1.6086	0.89	0.2193	
2.7275	0.15	1.9119	0.85	0.1439	
3.7982	0.19	2.2384	0.81	0.1178	
5.0731	0.24	2.5	0.76	0.1025	
6.229	0.39	2.588	0.61	0.073	
