Adsorption isotherm of Carbon Dioxide on Zeolite 5A
DOI: 10.1016/j.micromeso.2014.08.022
Article source: Table A1
Adsorbate Carbon Dioxide: InChIKey CURLTUGMZLYLDI-UHFFFAOYSA-N
Kind: experiment
Temperature: 323 K
Tabular data in the source: 0
pressure (bar)	uptake (mmol/g)
0.0327	1.3549
0.0657	1.6079
0.1252	1.9234
0.2314	2.2144
0.3222	2.3601
0.4409	2.4857
0.5413	2.5575
0.6783	2.6502
0.8301	2.7074
1.0043	2.7767
1.1804	2.8257
1.3814	2.891
1.6017	2.9363
1.9994	3.0024
2.9221	3.1012
3.9232	3.1885
4.949	3.2758
5.928	3.3339
6.964	3.4122
7.9384	3.4779
8.8845	3.5847
9.9071	3.6984
