Adsorption isotherm of Toluene on JUC-77
DOI: 10.1039/C0cc01031f
Adsorbate Toluene: InChIKey YXFVVABEGXRONW-UHFFFAOYSA-N
Temperature: 298 K
Tabular data in the source: 0
pressure (bar)	uptake (cm3(STP)/g)
0.0477074	5.64942
0.135102	16.3553
0.229052	25.0948
0.283674	31.8679
0.329556	40.3889
0.375439	50.4393
0.440985	55.683
0.495607	59.3973
0.52401	60.4898
0.646363	63.3301
0.792749	65.7335
0.934766	66.6074
1.03309	68.1368
