Adsorption isotherm of Benzene on JUC-77
DOI: 10.1039/C0cc01031f
Adsorbate Benzene: InChIKey UHOVQNZJYSORNB-UHFFFAOYSA-N
Temperature: 298 K
Tabular data in the source: 0
pressure (bar)	uptake (cm3(STP)/g)
0.0105646	10.4561
0.0149343	21.8175
0.0236738	32.0864
0.0280436	41.9183
0.0324133	51.5318
0.0389679	59.1788
0.0717411	66.1704
0.115439	69.6662
0.220312	73.599
0.447539	77.9688
0.635439	80.8091
0.834262	83.2124
0.923842	84.3049
0.993758	87.8007
