Adsorption isotherm of Nitrogen on JUC-77
DOI: 10.1039/C0cc01031f
Adsorbate Nitrogen: InChIKey IJGRMHOSHXDMSA-UHFFFAOYSA-N
Temperature: 77 K
Tabular data in the source: 0
pressure (bar)	uptake (cm3(STP)/g)
0.00182509	0.468097
0.00400996	174.712
0.0105646	190.552
0.0105646	202.023
0.0280436	227.695
0.102329	242.989
0.161321	250.09
0.261825	254.46
0.364514	256.645
0.421321	257.191
0.720649	257.737
0.971909	259.376
0.998128	263.745
