Adsorption isotherm of M-Xylene on JUC-77
DOI: 10.1039/C0cc01031f
Adsorbate M-Xylene: InChIKey IVSZLXZYQVIEFR-UHFFFAOYSA-N
Temperature: 298 K
Tabular data in the source: 0
pressure (bar)	uptake (cm3(STP)/g)
0.152581	0.624214
0.35796	1.06119
0.499976	1.71665
0.620144	1.93514
0.707539	2.37211
0.77964	3.02758
0.836447	3.24606
0.888884	3.46455
0.926027	3.46455
1.0025	3.90152
