Adsorption isotherm of O-Xylene on JUC-77
DOI: 10.1039/C0cc01031f
Adsorbate O-Xylene: InChIKey CTQNGGLPUBDAKN-UHFFFAOYSA-N
Temperature: 298 K
Tabular data in the source: 0
pressure (bar)	uptake (cm3(STP)/g)
0.307707	0.405726
0.659472	0.624214
0.86485	0.624214
0.991573	0.405726
