Adsorption isotherm of P-Xylene on JUC-77
DOI: 10.1039/C0cc01031f
Adsorbate P-Xylene: InChIKey URLKBWYHVLBVBO-UHFFFAOYSA-N
Temperature: 298 K
Tabular data in the source: 0
pressure (bar)	uptake (cm3(STP)/g)
0.0367831	2.15363
0.0673713	3.24606
0.152581	6.96035
0.253086	11.1116
0.34485	16.5738
0.375439	19.1956
0.432245	25.3133
0.467203	32.3049
0.51964	43.0108
0.574262	54.5906
0.620144	58.3049
0.718464	64.8595
0.762161	66.6074
0.899808	70.1032
