Adsorption isotherm of Hydrogen on C48H24N4O12Zn2K0.84*4H2O
DOI: 10.1021/Ic800700h
Adsorbate Hydrogen: InChIKey UFHFLCQGNIYNRP-UHFFFAOYSA-N
Temperature: 77 K
Tabular data in the source: 0
pressure (bar)	uptake (wt%)
0.00313648	0.0245021
0.00936211	0.0489855
0.0497103	0.146826
0.102415	0.244591
0.155061	0.311706
0.207683	0.36656
0.260281	0.409153
0.309778	0.445635
0.359275	0.482118
0.411838	0.506321
0.467502	0.536635
0.516975	0.560857
0.56336	0.585097
0.615911	0.60317
0.66845	0.615113
0.721001	0.633186
0.767373	0.651296
0.819912	0.663239
0.872499	0.699702
0.925038	0.711645
0.977577	0.723587
