Adsorption isotherm of Nitrogen on C48H24N4O12Zn2Li0.06*2H2O
DOI: 10.1021/Ic800700h
Adsorbate Nitrogen: InChIKey IJGRMHOSHXDMSA-UHFFFAOYSA-N
Temperature: 77 K
Tabular data in the source: 0
pressure (bar)	uptake (cm3(STP)/g)
0.00304552	99.2647
0.0152276	141.544
0.0304552	152.574
0.0395917	156.25
0.0517738	159.926
0.0700469	165.441
0.0852745	167.279
0.109639	172.794
0.155321	180.147
0.207095	185.662
0.252778	193.015
0.301506	202.206
0.350234	209.559
0.402008	218.75
0.447691	226.103
0.499465	235.294
0.542102	251.838
0.59083	268.382
0.642604	286.765
0.685241	312.5
0.73397	334.559
0.782698	360.294
0.831426	386.029
0.880154	409.926
0.928883	433.824
