Adsorption isotherm of Nitrogen on C48H24N4O12Zn2K0.06*3H2O
DOI: 10.1021/Ic800700h
Adsorbate Nitrogen: InChIKey IJGRMHOSHXDMSA-UHFFFAOYSA-N
Temperature: 77 K
Tabular data in the source: 0
pressure (bar)	uptake (cm3(STP)/g)
0.00304552	183.824
0.00913655	220.588
0.0274097	233.456
0.0395917	237.132
0.0578648	238.971
0.0730924	240.809
0.0913655	244.485
0.112684	248.162
0.155321	253.676
0.20405	259.191
0.246687	279.412
0.29237	299.632
0.350234	308.824
0.402008	316.176
0.447691	319.853
0.493374	323.529
0.545148	330.882
0.593876	336.397
0.642604	343.75
0.688287	351.103
0.740061	358.456
0.785743	367.647
0.837517	378.676
0.880154	387.868
0.931928	402.574
