Adsorption isotherm of Hydrogen on C48H24N4O12Zn2Na0.10*3H2O
DOI: 10.1021/Ic800700h
Adsorbate Hydrogen: InChIKey UFHFLCQGNIYNRP-UHFFFAOYSA-N
Temperature: 87 K
Tabular data in the source: 0
pressure (bar)	uptake (wt%)
0.00870989	0.0167247
0.0116132	0.0390244
0.0580659	0.156098
0.113229	0.267596
0.159681	0.367944
0.214844	0.445993
0.2642	0.518467
0.316459	0.585366
0.362912	0.641115
0.412268	0.685714
0.467431	0.741463
0.51969	0.786063
0.569046	0.819512
0.618402	0.852962
0.667758	0.880836
0.72292	0.908711
0.772277	0.936585
0.818729	0.981185
0.870989	1.00906
0.923248	1.04251
0.975507	1.07038
