Adsorption isotherm of Hydrogen on Zn2(NDC)2(diPyNI)
DOI: 10.1021/Ic800700h
Adsorbate Hydrogen: InChIKey UFHFLCQGNIYNRP-UHFFFAOYSA-N
Temperature: 87 K
Tabular data in the source: 0
pressure (bar)	uptake (wt%)
0.00647444	0.0116732
0.00971166	0.0233463
0.05827	0.108949
0.110065	0.182879
0.161861	0.241245
0.213657	0.291829
0.262215	0.338521
0.31401	0.377432
0.365806	0.420233
0.414364	0.455253
0.46616	0.490272
0.517955	0.529183
0.569751	0.560311
0.618309	0.59144
0.670105	0.622568
0.718663	0.642023
0.770458	0.66537
0.822254	0.680934
0.87405	0.684825
0.925845	0.70428
0.971166	0.723735
