Adsorption isotherm of Hydrogen on C48H24N4O12Zn2Li0.06*2H2O
DOI: 10.1021/Ic800700h
Adsorbate Hydrogen: InChIKey UFHFLCQGNIYNRP-UHFFFAOYSA-N
Temperature: 77 K
Tabular data in the source: 0
pressure (bar)	uptake (wt%)
0.00627399	0.113011
0.047055	0.380669
0.0941099	0.559108
0.153713	0.689963
0.194494	0.75539
0.25096	0.826766
0.298015	0.880297
0.357618	0.927881
0.40781	0.969517
0.458002	1.0052
0.51133	1.029
0.564659	1.06468
0.614851	1.08848
0.66818	1.10632
0.718372	1.12416
0.765427	1.14796
0.821893	1.1658
0.868948	1.18364
0.91914	1.20149
0.969332	1.21338
1.01325	1.23123
