Adsorption isotherm of Hydrogen on Zn2(NDC)2(diPyNI)
DOI: 10.1021/Ic800700h
Adsorbate Hydrogen: InChIKey UFHFLCQGNIYNRP-UHFFFAOYSA-N
Temperature: 77 K
Tabular data in the source: 0
pressure (bar)	uptake (wt%)
0	0.0594796
0.00627399	0.0951673
0.047055	0.214126
0.103521	0.333086
0.153713	0.410409
0.207042	0.475836
0.260371	0.529368
0.310563	0.576952
0.360755	0.618587
0.414084	0.654275
0.464276	0.684015
0.514467	0.713755
0.567796	0.737546
0.614851	0.767286
0.66818	0.78513
0.718372	0.808922
0.768564	0.832714
0.815619	0.856506
0.872085	0.868401
0.922277	0.892193
0.972469	0.904089
1.01325	0.927881
