Adsorption isotherm of Hydrogen on C48H24N4O12Zn2K0.84*4H2O
DOI: 10.1021/Ic800700h
Adsorbate Hydrogen: InChIKey UFHFLCQGNIYNRP-UHFFFAOYSA-N
Temperature: 87 K
Tabular data in the source: 0
pressure (bar)	uptake (wt%)
0.00580659	0.00833333
0.0116132	0.0166667
0.0580659	0.0777778
0.107422	0.133333
0.159681	0.180556
0.211941	0.219444
0.261297	0.258333
0.313556	0.288889
0.365815	0.316667
0.415171	0.341667
0.467431	0.366667
0.51969	0.391667
0.569046	0.413889
0.621305	0.433333
0.670661	0.452778
0.72292	0.472222
0.772277	0.491667
0.824536	0.505556
0.873892	0.522222
0.926151	0.536111
0.975507	0.552778
