Adsorption isotherm of Hydrogen on C48H24N4O12Zn2K0.24*3H2O
DOI: 10.1021/Ic800700h
Adsorbate Hydrogen: InChIKey UFHFLCQGNIYNRP-UHFFFAOYSA-N
Temperature: 77 K
Tabular data in the source: 0
pressure (bar)	uptake (wt%)
0.00319566	0.0551531
0.00944496	0.0918969
0.0531545	0.330713
0.106025	0.514301
0.158789	0.642717
0.211506	0.746613
0.264175	0.825988
0.313743	0.899251
0.366365	0.954105
0.415945	1.0335
0.468543	1.07609
0.518064	1.12484
0.567573	1.16745
0.623225	1.19163
0.669633	1.22813
0.722232	1.27073
0.771705	1.29495
0.824268	1.31915
0.87992	1.34334
0.929393	1.36756
0.978867	1.39178
