Adsorption isotherm of Hydrogen on C48H24N4O12Zn2K0.06*3H2O
DOI: 10.1021/Ic800700h
Adsorbate Hydrogen: InChIKey UFHFLCQGNIYNRP-UHFFFAOYSA-N
Temperature: 77 K
Tabular data in the source: 0
pressure (bar)	uptake (wt%)
0.003137	0.0178439
0.00627399	0.101115
0.047055	0.350929
0.100384	0.559108
0.15685	0.713755
0.210179	0.826766
0.260371	0.915985
0.310563	0.993309
0.360755	1.05279
0.414084	1.11227
0.464276	1.15985
0.514467	1.21338
0.564659	1.24907
0.617988	1.28476
0.671317	1.32045
0.721509	1.35019
0.771701	1.37993
0.821893	1.42156
0.872085	1.4513
0.925414	1.47509
0.975606	1.51078
