Adsorption isotherm of Nitrogen on Zn2(NDC)2(diPyNI)
DOI: 10.1021/Ic800700h
Adsorbate Nitrogen: InChIKey IJGRMHOSHXDMSA-UHFFFAOYSA-N
Temperature: 77 K
Tabular data in the source: 0
pressure (bar)	uptake (cm3(STP)/g)
0.00304552	165.441
0.00609103	174.632
0.0274097	187.5
0.0365462	191.176
0.0578648	194.853
0.0730924	196.691
0.103548	200.368
0.14923	207.721
0.197959	211.397
0.246687	220.588
0.29237	224.265
0.341098	231.618
0.389826	237.132
0.4416	244.485
0.490328	251.838
0.539057	259.191
0.584739	266.544
0.639559	273.897
0.67915	283.088
0.727879	292.279
0.779652	299.632
0.828381	306.985
0.877109	314.338
0.925837	323.529
0.965429	356.618
