Adsorption isotherm of Hydrogen on C48H24N4O12Zn2Na0.10*3H2O
DOI: 10.1021/Ic800700h
Adsorbate Hydrogen: InChIKey UFHFLCQGNIYNRP-UHFFFAOYSA-N
Temperature: 77 K
Tabular data in the source: 0
pressure (bar)	uptake (wt%)
0.003137	0.0535316
0.00941099	0.0832714
0.047055	0.339033
0.103521	0.535316
0.153713	0.672119
0.207042	0.78513
0.257234	0.868401
0.310563	0.933829
0.360755	0.999257
0.410947	1.05874
0.464276	1.10632
0.514467	1.14796
0.567796	1.18364
0.614851	1.22528
0.66818	1.25502
0.721509	1.28476
0.768564	1.3145
0.821893	1.33829
0.872085	1.37993
0.922277	1.40967
0.975606	1.43941
