Adsorption isotherm of Hydrogen on C48H24N4O12Zn2K0.06*3H2O
DOI: 10.1021/Ic800700h
Adsorbate Hydrogen: InChIKey UFHFLCQGNIYNRP-UHFFFAOYSA-N
Temperature: 87 K
Tabular data in the source: 0
pressure (bar)	uptake (wt%)
3e-05	0.016609
0.0116169	0.0387543
0.0551579	0.171626
0.107329	0.287889
0.156594	0.39308
0.211612	0.487197
0.25795	0.570242
0.312938	0.647751
0.365019	0.714187
0.414194	0.76955
0.469162	0.835986
0.518317	0.880277
0.567492	0.93564
0.619543	0.985467
0.668698	1.02976
0.720719	1.06298
0.775657	1.1128
0.824792	1.14602
0.873927	1.17924
0.928815	1.20138
0.97795	1.2346
