Adsorption isotherm of Hydrogen on C48H24N4O12Zn2Li0.06*2H2O
DOI: 10.1021/Ic800700h
Adsorbate Hydrogen: InChIKey UFHFLCQGNIYNRP-UHFFFAOYSA-N
Temperature: 87 K
Tabular data in the source: 0
pressure (bar)	uptake (wt%)
0.00623538	0.00967742
0.00935308	0.033871
0.0592362	0.164516
0.112237	0.285484
0.149649	0.353226
0.20265	0.430645
0.255651	0.493548
0.308652	0.551613
0.361652	0.6
0.411535	0.643548
0.461418	0.682258
0.514419	0.720968
0.564302	0.754839
0.617303	0.779032
0.667186	0.803226
0.717069	0.827419
0.77007	0.851613
0.819953	0.870968
0.869836	0.890323
0.919719	0.909677
0.97272	0.929032
