Adsorption isotherm of Nitrogen on C48H24N4O12Zn2Na0.10*3H2O
DOI: 10.1021/Ic800700h
Adsorbate Nitrogen: InChIKey IJGRMHOSHXDMSA-UHFFFAOYSA-N
Temperature: 77 K
Tabular data in the source: 0
pressure (bar)	uptake (cm3(STP)/g)
0.00304552	0.00304552
0.0121821	176.471
0.0213186	189.338
0.0335007	193.015
0.0487283	200.368
0.0700469	204.044
0.08832	205.882
0.0974566	207.721
0.109639	209.559
0.155321	215.074
0.207095	218.75
0.252778	229.779
0.295415	248.162
0.347189	259.191
0.395917	266.544
0.447691	272.059
0.496419	275.735
0.542102	281.25
0.593876	286.765
0.642604	292.279
0.688287	295.956
0.740061	303.309
0.788789	306.985
0.834472	316.176
0.8832	323.529
0.928883	334.559
