Adsorption isotherm of Hydrogen on C48H24N4O12Zn2K0.24*3H2O
DOI: 10.1021/Ic800700h
Adsorbate Hydrogen: InChIKey UFHFLCQGNIYNRP-UHFFFAOYSA-N
Temperature: 87 K
Tabular data in the source: 0
pressure (bar)	uptake (wt%)
0.00579	0.0156716
0.01158	0.0313433
0.060795	0.167164
0.11001	0.276866
0.16212	0.370896
0.211335	0.449254
0.26055	0.522388
0.31266	0.590299
0.367665	0.647761
0.413985	0.705224
0.466095	0.752239
0.51531	0.799254
0.56742	0.841045
0.61953	0.882836
0.67164	0.919403
0.71796	0.950746
0.77007	0.987313
0.819285	1.01343
0.8685	1.0709
0.923505	1.10224
0.975615	1.13358
