Adsorption isotherm of N-propane on RPM3-Zn
DOI: 10.1021/Ja305754f
Adsorbate N-propane: InChIKey ATUOYWHBWRKTHZ-UHFFFAOYSA-N
Temperature: 298 K
Tabular data in the source: 0
pressure (bar)	uptake (cm3(STP)/g)
0.00514774	0.218948
0.00648047	0.0799891
0.00815843	0.0899148
0.0104109	0.100424
0.0152124	0.116772
0.0186396	0.12553
0.0228395	0.283173
0.0276081	0.291347
0.0342907	0.449574
0.0425879	0.458916
0.052894	0.468257
0.0630822	0.773617
0.0784507	6.58947
0.100267	13.4487
0.129746	15.2464
0.161615	28.2087
0.204229	44.8937
0.257326	48.6258
0.328472	49.9763
0.413592	50.7306
