Adsorption isotherm of N-Butane on RPM3-Zn
DOI: 10.1021/Ja305754f
Adsorbate N-Butane: InChIKey IJDNQMDRQITEOD-UHFFFAOYSA-N
Temperature: 298 K
Tabular data in the source: 0
pressure (bar)	uptake (cm3(STP)/g)
0.00131068	0.159978
0.00247735	0.336305
0.00501056	0.51555
0.00649092	7.22646
0.0081827	13.1918
0.00990801	20.7931
0.0125013	30.6294
0.0151132	31.0842
0.0198201	32.1381
0.0256399	32.5959
0.033167	32.9047
0.0518712	33.9662
0.0661998	34.4233
0.080027	34.7293
0.10213	35.0376
0.161952	37.4396
0.20416	43.4049
0.257222	46.8392
0.402363	48.7939
0.720574	50.0101
1.02486	50.472
