Adsorption isotherm of Ethane on RPM3-Zn
DOI: 10.1021/Ja305754f
Adsorbate Ethane: InChIKey OTMSDBZUPAUEDD-UHFFFAOYSA-N
Temperature: 298 K
Tabular data in the source: 0
pressure (bar)	uptake (cm3(STP)/g)
0.0827332	0.339224
0.102757	0.49745
0.125911	0.655093
0.409228	2.04585
0.502415	10.8388
0.560329	14.119
0.705698	15.9155
0.913126	17.4154
