Adsorption isotherm of Methane on RPM3-Zn
DOI: 10.1021/Ja305754f
Adsorbate Methane: InChIKey VNWKTOKETHGBQD-UHFFFAOYSA-N
Temperature: 298 K
Tabular data in the source: 0
pressure (bar)	uptake (cm3(STP)/g)
0.104109	0.050796
0.127562	0.0595539
0.160597	0.218364
0.20218	0.22829
0.258002	0.2388
0.316125	0.247558
0.403405	0.258067
0.702968	0.43089
0.804932	0.436729
0.909348	0.739753
1.01	0.744424
