Adsorption isotherm of Carbon Dioxide on Si-CHA
DOI: 10.1021/jp302433b
Adsorbate Carbon Dioxide: InChIKey CURLTUGMZLYLDI-UHFFFAOYSA-N
Temperature: 323 K
Tabular data in the source: 0
pressure (bar)	uptake (kg/mol)
0.0532374	0.0652174
0.103597	0.123188
0.21295	0.25
0.317986	0.362319
0.428777	0.48913
0.535252	0.608696
0.746763	0.833333
0.854676	0.927536
1.01295	1.08696
