Adsorption isotherm of Carbon Dioxide on Si-CHA
DOI: 10.1021/jp302433b
Adsorbate Carbon Dioxide: InChIKey CURLTUGMZLYLDI-UHFFFAOYSA-N
Temperature: 323 K
Tabular data in the source: 0
pressure (bar)	uptake (kg/mol)
0.0071747	0.0205454
0.0347054	0.0511336
0.0816255	0.117408
0.167877	0.209173
0.422232	0.418192
0.710104	0.673094
1.5358	1.12682
2.95372	1.50917
7.18396	1.9629
11.6834	2.25349
19.6489	2.46251
29.8821	2.64604
