Adsorption isotherm of Carbon Dioxide on Si-CHA
DOI: 10.1021/jp302433b
Adsorbate Carbon Dioxide: InChIKey CURLTUGMZLYLDI-UHFFFAOYSA-N
Temperature: 323 K
Tabular data in the source: 0
pressure (bar)	uptake (kg/mol)
0.195683	0.221014
0.303597	0.322464
0.4	0.431159
0.497842	0.521739
0.6	0.623188
0.700719	0.706522
0.798561	0.793478
0.899281	0.884058
1.00144	0.967391
