Adsorption isotherm of Carbon Dioxide on Si-CHA
DOI: 10.1021/jp302433b
Adsorbate Carbon Dioxide: InChIKey CURLTUGMZLYLDI-UHFFFAOYSA-N
Temperature: 301 K
Tabular data in the source: 0
pressure (bar)	uptake (kg/mol)
0.0992806	0.217391
0.197122	0.40942
0.297842	0.605072
0.398561	0.786232
0.497842	0.949275
0.598561	1.14493
0.699281	1.27536
0.8	1.43116
0.902158	1.59783
0.998561	1.7029
