Adsorption isotherm of Carbon Dioxide on Si-CHA
DOI: 10.1021/jp302433b
Adsorbate Carbon Dioxide: InChIKey CURLTUGMZLYLDI-UHFFFAOYSA-N
Temperature: 373 K
Tabular data in the source: 0
pressure (bar)	uptake (kg/mol)
0.00107853	0.0103493
0.00412541	0.0154473
0.0206361	0.0154473
0.0593541	0.0307415
0.118046	0.0358395
0.212301	0.0664277
0.459162	0.1378
0.772212	0.255055
1.51026	0.458977
4.13074	0.938192
8.21537	1.37662
15.0249	1.74368
30.9013	2.11074
41.0948	2.25349
