Adsorption isotherm of Carbon Dioxide on Si-CHA
DOI: 10.1021/jp302433b
Adsorbate Carbon Dioxide: InChIKey CURLTUGMZLYLDI-UHFFFAOYSA-N
Temperature: 373 K
Tabular data in the source: 0
pressure (bar)	uptake (kg/mol)
0.48203	0.265251
0.665129	0.362114
1.04955	0.530349
1.31841	0.647604
1.79496	0.800545
2.22472	0.933094
2.57849	1.05545
3.06978	1.16251
3.51052	1.22878
4.4098	1.37662
