Adsorption isotherm of Carbon Dioxide on Si-CHA
DOI: 10.1021/jp302433b
Adsorbate Carbon Dioxide: InChIKey CURLTUGMZLYLDI-UHFFFAOYSA-N
Temperature: 298 K
Tabular data in the source: 0
pressure (bar)	uptake (kg/mol)
0.0058669	0.0358395
0.020985	0.0613297
0.0410418	0.11231
0.0816255	0.224467
0.146801	0.392702
0.255308	0.647604
0.401516	0.968781
0.686682	1.37153
0.99307	1.65192
1.56178	1.92721
3.05447	2.24839
5.87447	2.53388
10.3893	2.63584
16.0673	2.75309
20.6627	2.77349
31.4239	2.82957
41.0948	2.92133
