Adsorption isotherm of Carbon Dioxide on Si-CHA
DOI: 10.1021/jp302433b
Adsorbate Carbon Dioxide: InChIKey CURLTUGMZLYLDI-UHFFFAOYSA-N
Temperature: 338 K
Tabular data in the source: 0
pressure (bar)	uptake (kg/mol)
0.313785	0.367212
0.48203	0.550741
0.638892	0.693487
0.82438	0.820938
1.03556	0.968781
1.37255	1.14721
1.77104	1.34604
2.19508	1.50407
2.57849	1.62643
3.51052	1.82525
4.23584	1.9629
