Adsorption isotherm of Carbon Dioxide on Si-CHA
DOI: 10.1021/jp302433b
Adsorbate Carbon Dioxide: InChIKey CURLTUGMZLYLDI-UHFFFAOYSA-N
Temperature: 298 K
Tabular data in the source: 0
pressure (bar)	uptake (kg/mol)
0.0268716	0.090671
0.0681546	0.174789
0.148645	0.381259
0.206142	0.480671
0.271854	0.603024
0.396462	0.817142
0.536159	0.993024
0.689505	1.1842
0.781914	1.30655
0.932459	1.42126
1.05743	1.52832
1.2297	1.61244
