Adsorption isotherm of Carbon Dioxide on Si-CHA
DOI: 10.1021/jp302433b
Adsorbate Carbon Dioxide: InChIKey CURLTUGMZLYLDI-UHFFFAOYSA-N
Temperature: 313 K
Tabular data in the source: 0
pressure (bar)	uptake (kg/mol)
0.0517986	0.0905797
0.158273	0.257246
0.215827	0.347826
0.317986	0.496377
0.430216	0.648551
0.533813	0.789855
0.640288	0.931159
0.8	1.12681
0.906475	1.25
1.01727	1.37681
