Adsorption isotherm of Carbon Dioxide on Si-CHA
DOI: 10.1021/jp302433b
Adsorbate Carbon Dioxide: InChIKey CURLTUGMZLYLDI-UHFFFAOYSA-N
Temperature: 301 K
Tabular data in the source: 0
pressure (bar)	uptake (kg/mol)
0.0503597	0.141304
0.109353	0.271739
0.159712	0.394928
0.210072	0.503623
0.319424	0.735507
0.427338	0.942029
0.533813	1.13406
0.641727	1.31884
0.748201	1.48913
0.853237	1.64855
0.909353	1.72826
0.958273	1.78986
1.01727	1.87681
