Adsorption isotherm of Carbon Dioxide on Si-CHA
DOI: 10.1021/jp302433b
Adsorbate Carbon Dioxide: InChIKey CURLTUGMZLYLDI-UHFFFAOYSA-N
Temperature: 273 K
Tabular data in the source: 0
pressure (bar)	uptake (kg/mol)
0.00209856	0.00655336
0.0057398	0.0447887
0.0128374	0.083024
0.0191985	0.1442
0.0292952	0.213024
0.0447019	0.320083
0.064215	0.442436
0.0904082	0.603024
0.129873	0.832436
0.194227	1.12302
0.262664	1.37538
0.341204	1.60479
0.400803	1.73479
0.500109	1.92597
0.624021	2.06361
0.778635	2.19361
0.896418	2.30832
