Adsorption isotherm of Carbon Dioxide on Si-CHA
DOI: 10.1021/jp302433b
Adsorbate Carbon Dioxide: InChIKey CURLTUGMZLYLDI-UHFFFAOYSA-N
Temperature: 373 K
Tabular data in the source: 0
pressure (bar)	uptake (kg/mol)
0.00104819	0.0205454
0.00290564	0.0154473
0.00958927	0.0154473
0.0280474	0.0307415
0.0563458	0.0358395
0.0938127	0.0562317
0.136584	0.0817218
0.224374	0.1378
0.354053	0.209173
0.621977	0.336624
0.981453	0.509957
4.35103	1.38682
6.08486	1.61113
8.3962	1.84564
