Adsorption isotherm of Carbon Dioxide on Si-CHA
DOI: 10.1021/jp302433b
Adsorbate Carbon Dioxide: InChIKey CURLTUGMZLYLDI-UHFFFAOYSA-N
Temperature: 348 K
Tabular data in the source: 0
pressure (bar)	uptake (kg/mol)
0.0160466	0.0103493
0.0469342	0.0205454
0.154375	0.102114
0.259625	0.158192
0.401516	0.234663
0.610626	0.357016
0.913199	0.499761
1.21444	0.63231
2.00846	0.922898
4.20059	1.38172
8.3543	1.84055
19.9812	2.27388
30.9013	2.40643
41.0948	2.50329
