Adsorption isotherm of Carbon Dioxide on Si-CHA
DOI: 10.1021/jp302433b
Adsorbate Carbon Dioxide: InChIKey CURLTUGMZLYLDI-UHFFFAOYSA-N
Temperature: 273 K
Tabular data in the source: 0
pressure (bar)	uptake (kg/mol)
0.0363401	0.243612
0.0681546	0.4042
0.127822	0.702436
0.211394	1.03126
0.278779	1.25302
0.340922	1.42126
0.406561	1.56655
0.549817	1.79597
0.689505	1.97949
1.03116	2.30832
