Adsorption isotherm of Carbon Dioxide on Si-CHA
DOI: 10.1021/jp302433b
Adsorbate Carbon Dioxide: InChIKey CURLTUGMZLYLDI-UHFFFAOYSA-N
Temperature: 348 K
Tabular data in the source: 0
pressure (bar)	uptake (kg/mol)
0.0160466	0.0103493
0.0469342	0.0307415
0.12837	0.0766238
0.268481	0.147996
0.474823	0.249957
0.675263	0.357016
1.32066	0.637408
1.786	0.775055
4.49202	1.20839
9.23863	1.63153
15.0249	1.92721
19.3222	2.13113
27.9434	2.32486
39.7394	2.40133
