Adsorption isotherm of Carbon Dioxide on Si-CHA
DOI: 10.1021/jp302433b
Adsorbate Carbon Dioxide: InChIKey CURLTUGMZLYLDI-UHFFFAOYSA-N
Temperature: 301 K
Tabular data in the source: 0
pressure (bar)	uptake (kg/mol)
0.00719424	0.0326087
0.0776978	0.181159
0.198561	0.452899
0.297842	0.65942
0.398561	0.865942
0.496403	1.05435
0.595683	1.22826
0.699281	1.40942
0.798561	1.56884
0.897842	1.72101
0.995683	1.86232
