Adsorption isotherm of Carbon Dioxide on Si-CHA
DOI: 10.1021/jp302433b
Adsorbate Carbon Dioxide: InChIKey CURLTUGMZLYLDI-UHFFFAOYSA-N
Temperature: 313 K
Tabular data in the source: 0
pressure (bar)	uptake (kg/mol)
0.0330935	0.0724638
0.0935252	0.163043
0.194245	0.322464
0.296403	0.467391
0.4	0.626812
0.502158	0.757246
0.601439	0.880435
0.705036	1.00725
0.900719	1.24638
0.998561	1.36957
