Adsorption isotherm of Carbon Dioxide on Si-CHA
DOI: 10.1021/jp302433b
Adsorbate Carbon Dioxide: InChIKey CURLTUGMZLYLDI-UHFFFAOYSA-N
Temperature: 273 K
Tabular data in the source: 0
pressure (bar)	uptake (kg/mol)
0.00217198	0.0371416
0.00888426	0.090671
0.0198701	0.167142
0.052997	0.32773
0.0876474	0.465377
0.12155	0.603024
0.316142	1.19949
0.52284	1.62008
1.32608	2.12479
2.82034	2.44597
6.97556	2.69832
14.4672	2.85126
23.9262	2.85126
