Adsorption isotherm of Carbon Dioxide on Si-CHA
DOI: 10.1021/jp302433b
Adsorbate Carbon Dioxide: InChIKey CURLTUGMZLYLDI-UHFFFAOYSA-N
Temperature: 323 K
Tabular data in the source: 0
pressure (bar)	uptake (kg/mol)
0.0172662	0.0181159
0.0964029	0.105072
0.197122	0.23913
0.299281	0.355072
0.397122	0.467391
0.58705	0.655797
0.690647	0.768116
0.851799	0.934783
1.01295	1.08696
