Adsorption isotherm of Carbon Dioxide on Si-CHA
DOI: 10.1021/jp302433b
Adsorbate Carbon Dioxide: InChIKey CURLTUGMZLYLDI-UHFFFAOYSA-N
Temperature: 373 K
Tabular data in the source: 0
pressure (bar)	uptake (kg/mol)
0.0338454	0.00948123
0.059192	0.0128799
0.086565	0.0298734
0.136902	0.0400695
0.264771	0.0774551
0.346255	0.0978472
0.541511	0.155625
0.757296	0.203207
0.990359	0.277978
1.28075	0.335756
