Adsorption isotherm of Carbon Dioxide on Si-CHA
DOI: 10.1021/jp302433b
Adsorbate Carbon Dioxide: InChIKey CURLTUGMZLYLDI-UHFFFAOYSA-N
Temperature: 303 K
Tabular data in the source: 0
pressure (bar)	uptake (kg/mol)
0.00333373	0.0142004
0.00776228	0.0371416
0.0141963	0.0524357
0.0275789	0.113612
0.0380548	0.151847
0.0535773	0.213024
0.108359	0.4042
0.182848	0.603024
0.27901	0.863024
0.434399	1.19949
0.704103	1.56655
1.053	1.8342
1.74146	2.17067
3.45189	2.49949
5.05949	2.69832
8.88818	2.8742
