Adsorption isotherm of Carbon Dioxide on Si-CHA
DOI: 10.1021/jp302433b
Adsorbate Carbon Dioxide: InChIKey CURLTUGMZLYLDI-UHFFFAOYSA-N
Temperature: 313 K
Tabular data in the source: 0
pressure (bar)	uptake (kg/mol)
0.198561	0.304348
0.297842	0.431159
0.398561	0.554348
0.497842	0.681159
0.598561	0.807971
0.702158	0.923913
0.798561	1.02536
0.900719	1.16667
1.00288	1.23913
