Adsorption isotherm of Carbon Dioxide on Si-CHA
DOI: 10.1021/jp302433b
Adsorbate Carbon Dioxide: InChIKey CURLTUGMZLYLDI-UHFFFAOYSA-N
Temperature: 338 K
Tabular data in the source: 0
pressure (bar)	uptake (kg/mol)
0.00194291	0.00525126
0.0192644	0.0358395
0.0555949	0.0919179
0.0938127	0.127604
0.136584	0.188781
0.227405	0.300938
0.368593	0.453879
0.536642	0.627212
0.740486	0.800545
0.905549	0.927996
1.06372	1.04015
1.77104	1.37662
2.57849	1.68251
4.23584	1.98329
6.00377	2.2127
8.5096	2.38604
