Adsorption isotherm of Carbon Dioxide on Si-CHA
DOI: 10.1021/jp302433b
Adsorbate Carbon Dioxide: InChIKey CURLTUGMZLYLDI-UHFFFAOYSA-N
Temperature: 298 K
Tabular data in the source: 0
pressure (bar)	uptake (kg/mol)
0.00523853	0.0218475
0.015451	0.0524357
0.030473	0.105965
0.0503968	0.151847
0.107185	0.2742
0.324195	0.633612
0.623505	1.06185
1.32608	1.55126
2.96586	1.97185
4.43548	2.20126
9.67378	2.43067
14.4672	2.60655
19.5649	2.70597
34.0263	2.77479
