Adsorption isotherm of Carbon Dioxide on Si-CHA
DOI: 10.1021/jp302433b
Adsorbate Carbon Dioxide: InChIKey CURLTUGMZLYLDI-UHFFFAOYSA-N
Temperature: 323 K
Tabular data in the source: 0
pressure (bar)	uptake (kg/mol)
0.00200039	0.00608254
0.00632715	0.00948123
0.0349998	0.067259
0.0605304	0.0910499
0.104684	0.131834
0.153095	0.186213
0.204738	0.240592
0.400419	0.471703
0.724177	0.750396
1.08302	1.0019
1.53161	1.25
3.13246	1.72242
6.05825	2.13366
10.1319	2.34098
15.3227	2.48033
30.6452	2.67406
40.9826	2.74203
