Adsorption isotherm of Carbon Dioxide on Si-CHA
DOI: 10.1021/jp302433b
Adsorbate Carbon Dioxide: InChIKey CURLTUGMZLYLDI-UHFFFAOYSA-N
Temperature: 303 K
Tabular data in the source: 0
pressure (bar)	uptake (kg/mol)
0.182848	0.580083
0.257432	0.725377
0.314816	0.84773
0.384992	0.985377
0.480381	1.12302
0.649649	1.36008
0.878559	1.60479
1.01146	1.71185
1.36785	1.89538
1.81298	2.11714
2.71133	2.31597
4.22135	2.58361
