Adsorption isotherm of Carbon Dioxide on Si-CHA
DOI: 10.1021/jp302433b
Adsorbate Carbon Dioxide: InChIKey CURLTUGMZLYLDI-UHFFFAOYSA-N
Temperature: 303 K
Tabular data in the source: 0
pressure (bar)	uptake (kg/mol)
0.0034015	0.00655336
0.0057398	0.0142004
0.0144848	0.0218475
0.0292952	0.0677298
0.0456105	0.113612
0.0655203	0.167142
0.104084	0.243612
0.162052	0.396553
0.237522	0.557142
0.362438	0.786553
0.490146	1.01597
0.718416	1.26832
1.03202	1.63538
