Adsorption isotherm of Carbon Dioxide on Si-CHA
DOI: 10.1021/jp302433b
Adsorbate Carbon Dioxide: InChIKey CURLTUGMZLYLDI-UHFFFAOYSA-N
Temperature: 273 K
Tabular data in the source: 0
pressure (bar)	uptake (kg/mol)
0.00407348	0.0218475
0.010075	0.0677298
0.015451	0.0983181
0.030473	0.213024
0.0632007	0.442436
0.104522	0.740671
0.206142	1.25302
0.416917	1.81891
0.72508	2.17067
1.43003	2.43832
3.04141	2.66008
5.99837	2.77479
15.9987	2.92773
40.5775	3.07302
