Adsorption isotherm of Carbon Dioxide on Si-CHA
DOI: 10.1021/jp302433b
Adsorbate Carbon Dioxide: InChIKey CURLTUGMZLYLDI-UHFFFAOYSA-N
Temperature: 273 K
Tabular data in the source: 0
pressure (bar)	uptake (kg/mol)
0.00105872	0.0218475
0.0028957	0.0447887
0.00585648	0.083024
0.00968554	0.128906
0.0144848	0.182436
0.0275789	0.335377
0.0557776	0.603024
0.0904082	0.908906
0.140759	1.16891
0.228152	1.58185
0.362438	1.89538
0.520648	2.19361
0.827089	2.42302
1.3406	2.64479
2.12965	2.85126
3.52206	3.01949
5.94324	3.14185
8.53756	3.22597
