Adsorption isotherm of Hydrogen on IRMOF-1
DOI: 10.1021/Jp076657p
Adsorbate Hydrogen: InChIKey UFHFLCQGNIYNRP-UHFFFAOYSA-N
Temperature: 298 K
Tabular data in the source: 0
pressure (bar)	uptake (mg/g)
6.06728	0.0858325
9.43198	0.282471
12.1849	0.719446
17.9967	0.817765
30.232	1.62617
44.9143	1.98667
59.2908	2.60936
66.9379	2.87155
73.3614	3.2976
