Adsorption isotherm of Hydrogen on IRMOF-9
DOI: 10.1021/Jp076657p
Adsorbate Hydrogen: InChIKey UFHFLCQGNIYNRP-UHFFFAOYSA-N
Temperature: 298 K
Tabular data in the source: 0
pressure (bar)	uptake (mg/g)
19.5261	25.3133
39.4085	34.2713
60.5143	40.6074
80.7026	45.4141
99.3614	48.473
120.773	51.3133
