Adsorption isotherm of Hydrogen on CuBTC
DOI: 10.1021/Jp076657p
Adsorbate Hydrogen: InChIKey UFHFLCQGNIYNRP-UHFFFAOYSA-N
Temperature: 77 K
Tabular data in the source: 0
pressure (bar)	uptake (mg/g)
0.867277	16.1805
2.39669	29.8141
4.84375	41.3502
10.0437	47.6427
15.5496	52.362
26.8673	56.5569
42.1614	59.1788
61.432	60.2275
91.4085	64.4225
116.491	64.9469
