Adsorption isotherm of Hydrogen on IRMOF-1
DOI: 10.1021/Jp076657p
Adsorbate Hydrogen: InChIKey UFHFLCQGNIYNRP-UHFFFAOYSA-N
Temperature: 298 K
Tabular data in the source: 0
pressure (bar)	uptake (mg/g)
1.47904	0.0639838
6.06728	0.435412
19.2202	1.37491
38.4908	2.56566
63.5732	3.78919
