Adsorption isotherm of Hydrogen on IRMOF-1
DOI: 10.1021/Jp076657p
Adsorbate Hydrogen: InChIKey UFHFLCQGNIYNRP-UHFFFAOYSA-N
Temperature: 298 K
Tabular data in the source: 0
pressure (bar)	uptake (mg/g)
20.1379	20.2881
40.9379	31.4309
59.2908	38.204
100.585	48.036
119.55	51.3133
