Adsorption isotherm of Hydrogen on IRMOF-9
DOI: 10.1021/Jp076657p
Adsorbate Hydrogen: InChIKey UFHFLCQGNIYNRP-UHFFFAOYSA-N
Temperature: 77 K
Tabular data in the source: 0
pressure (bar)	uptake (mg/g)
1.47904	21.9485
2.39669	38.7284
4.53787	51.3132
8.82022	61.2763
13.1026	68.0931
22.279	75.4342
36.3496	81.2023
61.1261	87.4948
84.3732	89.5922
116.491	91.6897
