Adsorption isotherm of Hydrogen on IRMOF-10
DOI: 10.1021/Jp076657p
Adsorbate Hydrogen: InChIKey UFHFLCQGNIYNRP-UHFFFAOYSA-N
Temperature: 298 K
Tabular data in the source: 0
pressure (bar)	uptake (mg/g)
10.9614	3.15244
15.5496	4.57261
21.3614	5.88354
31.4555	8.39614
35.432	9.70706
40.9379	10.9087
50.7261	13.7491
70.3026	18.2281
90.7967	22.8163
120.773	28.934
