Adsorption isotherm of Hydrogen on IRMOF-10
DOI: 10.1021/Jp076657p
Adsorbate Hydrogen: InChIKey UFHFLCQGNIYNRP-UHFFFAOYSA-N
Temperature: 77 K
Tabular data in the source: 0
pressure (bar)	uptake (mg/g)
1.17316	13.5586
4.23198	38.7284
8.82022	67.5687
13.4085	81.7267
18.9143	100.604
25.032	115.286
33.9026	133.115
50.4202	151.468
71.5261	167.199
96.6085	179.784
116.185	188.174
