Adsorption isotherm of Hydrogen on IRMOF-14
DOI: 10.1021/Jp076657p
Adsorbate Hydrogen: InChIKey UFHFLCQGNIYNRP-UHFFFAOYSA-N
Temperature: 298 K
Tabular data in the source: 0
pressure (bar)	uptake (mg/g)
10.6555	3.26169
16.4673	4.46337
25.6437	6.539
35.432	9.0516
41.2437	10.144
51.3379	12.6566
70.3026	16.6987
89.879	20.8499
110.067	24.7827
120.161	26.6398
