Adsorption isotherm of Hydrogen on IRMOF-1
DOI: 10.1021/Jp076657p
Adsorbate Hydrogen: InChIKey UFHFLCQGNIYNRP-UHFFFAOYSA-N
Temperature: 298 K
Tabular data in the source: 0
pressure (bar)	uptake (mg/g)
15.5496	2.82471
25.6437	4.13564
31.1496	4.90034
40.632	5.99278
51.3379	7.52219
60.8202	8.83312
80.3967	11.455
90.4908	12.6566
110.067	15.06
119.856	15.934
