Adsorption isotherm of Hydrogen on IRMOF-1
DOI: 10.1021/Jp076657p
Adsorbate Hydrogen: InChIKey UFHFLCQGNIYNRP-UHFFFAOYSA-N
Temperature: 77 K
Tabular data in the source: 0
pressure (bar)	uptake (mg/g)
1.17316	7.26618
3.62022	31.9116
6.67904	52.362
13.4085	67.5687
21.6673	79.6292
31.7614	86.9704
47.3614	93.2628
70.6085	100.604
95.6908	103.226
116.491	106.372
