Adsorption isotherm of Hydrogen on CuBTC
DOI: 10.1021/Jp076657p
Adsorbate Hydrogen: InChIKey UFHFLCQGNIYNRP-UHFFFAOYSA-N
Temperature: 298 K
Tabular data in the source: 0
pressure (bar)	uptake (mg/g)
1.78492	0.00936194
4.84375	0.238774
9.73787	0.522807
15.5496	0.774068
19.5261	0.970706
29.9261	1.38583
39.1026	1.79003
59.9026	2.4018
80.0908	2.86062
100.585	3.15558
120.773	3.42869
