Adsorption isotherm of Hydrogen on IRMOF-14
DOI: 10.1021/Jp076657p
Adsorbate Hydrogen: InChIKey UFHFLCQGNIYNRP-UHFFFAOYSA-N
Temperature: 298 K
Tabular data in the source: 0
pressure (bar)	uptake (mg/g)
19.832	24.6578
30.232	32.9603
40.3261	39.078
60.5143	49.7839
80.0908	57.6494
99.6673	63.5486
119.55	69.6662
