Adsorption isotherm of Hydrogen on IRMOF-10
DOI: 10.1021/Jp076657p
Adsorbate Hydrogen: InChIKey UFHFLCQGNIYNRP-UHFFFAOYSA-N
Temperature: 298 K
Tabular data in the source: 0
pressure (bar)	uptake (mg/g)
19.832	22.036
40.632	37.3301
60.2085	47.3805
79.7849	55.0276
100.891	63.1116
119.856	68.5738
