Adsorption isotherm of Hydrogen on IRMOF-16
DOI: 10.1021/Jp076657p
Adsorbate Hydrogen: InChIKey UFHFLCQGNIYNRP-UHFFFAOYSA-N
Temperature: 298 K
Tabular data in the source: 0
pressure (bar)	uptake (mg/g)
20.1379	25.3133
30.232	34.0528
40.0202	42.3553
60.5143	56.557
79.7849	67.9183
101.197	79.4982
120.161	88.0192
