Adsorption isotherm of Hydrogen on IRMOF-16
DOI: 10.1021/Jp076657p
Adsorbate Hydrogen: InChIKey UFHFLCQGNIYNRP-UHFFFAOYSA-N
Temperature: 298 K
Tabular data in the source: 0
pressure (bar)	uptake (mg/g)
5.76139	2.16925
15.8555	6.539
25.6437	10.6903
35.7379	14.623
51.032	20.6314
60.8202	24.5642
69.9967	27.7323
81.9261	31.9928
100.279	38.5474
121.079	44.9928
