Adsorption isotherm of Hydrogen on IRMOF-1
DOI: 10.1021/Jp076657p
Adsorbate Hydrogen: InChIKey UFHFLCQGNIYNRP-UHFFFAOYSA-N
Temperature: 298 K
Tabular data in the source: 0
pressure (bar)	uptake (mg/g)
4.84375	0.621127
22.8908	0.970706
42.4673	1.80096
61.7379	2.68583
80.0908	3.39592
101.503	4.24802
