Adsorption isotherm of Hydrogen on CuBTC
DOI: 10.1021/Jp076657p
Adsorbate Hydrogen: InChIKey UFHFLCQGNIYNRP-UHFFFAOYSA-N
Temperature: 298 K
Tabular data in the source: 0
pressure (bar)	uptake (mg/g)
4.23198	0.238774
7.90257	0.6539
18.3026	1.27659
30.232	1.98667
44.6085	2.90432
58.9849	3.51608
66.0202	3.69087
