Adsorption isotherm of Hydrogen on IRMOF-1
DOI: 10.1021/Jp076657p
Adsorbate Hydrogen: InChIKey UFHFLCQGNIYNRP-UHFFFAOYSA-N
Temperature: 298 K
Tabular data in the source: 0
pressure (bar)	uptake (mg/g)
1.47904	0.0530594
4.84375	0.249698
15.5496	0.664824
25.6437	1.06903
36.3496	1.40768
40.632	1.5497
50.4202	1.80096
69.3849	2.15054
89.879	2.4018
100.585	2.48919
120.773	2.51104
