Adsorption isotherm of Hydrogen on CuBTC
DOI: 10.1021/Jp076657p
Adsorbate Hydrogen: InChIKey UFHFLCQGNIYNRP-UHFFFAOYSA-N
Temperature: 298 K
Tabular data in the source: 0
pressure (bar)	uptake (mg/g)
10.9614	13.9519
29.9261	24.2209
40.3261	27.4982
60.5143	31.4309
80.3967	34.7082
102.114	37.1116
119.55	38.8595
