Adsorption isotherm of Hydrogen on IRMOF-16
DOI: 10.1021/Jp076657p
Adsorbate Hydrogen: InChIKey UFHFLCQGNIYNRP-UHFFFAOYSA-N
Temperature: 77 K
Tabular data in the source: 0
pressure (bar)	uptake (mg/g)
0.561395	17.2292
3.9261	41.8746
6.98492	62.8494
12.4908	90.1166
19.2202	120.53
30.5379	152.517
40.3261	176.638
51.032	198.661
61.1261	216.49
72.4437	235.367
