Adsorption isotherm of Hydrogen on IRMOF-14
DOI: 10.1021/Jp076657p
Adsorbate Hydrogen: InChIKey UFHFLCQGNIYNRP-UHFFFAOYSA-N
Temperature: 77 K
Tabular data in the source: 0
pressure (bar)	uptake (mg/g)
0.561395	26.6679
3.00845	47.1183
5.76139	64.4225
12.1849	84.8729
19.2202	103.75
30.232	122.103
46.1379	137.31
65.4085	150.943
90.7967	163.528
116.491	169.296
