Adsorption isotherm of Hydrogen on CuBTC
DOI: 10.1021/Jp076657p
Adsorbate Hydrogen: InChIKey UFHFLCQGNIYNRP-UHFFFAOYSA-N
Temperature: 298 K
Tabular data in the source: 0
pressure (bar)	uptake (mg/g)
20.1379	2.49698
31.1496	3.80791
40.9379	4.7911
61.1261	6.86673
81.0085	8.72387
101.808	10.2533
121.079	11.5642
