Adsorption isotherm of Hydrogen on IRMOF-9
DOI: 10.1021/Jp076657p
Adsorbate Hydrogen: InChIKey UFHFLCQGNIYNRP-UHFFFAOYSA-N
Temperature: 298 K
Tabular data in the source: 0
pressure (bar)	uptake (mg/g)
15.2437	2.60622
25.9496	4.13564
34.8202	5.44656
40.3261	6.10202
51.032	7.63143
60.5143	8.72387
71.5261	9.92555
80.3967	11.018
99.9732	12.8751
119.244	15.06
