Adsorption isotherm of Ammonia on CuBTC
DOI: 10.1039/C2jm34973f
Adsorbate Ammonia: InChIKey QGZKDVFQNNGYKY-UHFFFAOYSA-N
Temperature: 313 K
Tabular data in the source: 0
pressure (bar)	uptake (mmol/g)
0.000106825	0.527443
0.000138872	0.765146
0.000149555	1.26822
0.000163798	1.50632
0.000174481	1.00277
0.000181602	1.74434
0.000206528	2.00869
0.00021365	2.72376
0.000217211	2.22037
0.000220772	2.48519
0.000252819	2.93482
0.000291988	3.14587
0.000345401	3.33012
0.000398813	3.51437
0.000452226	3.69863
0.000502077	3.82998
0.000544807	3.98797
0.000633828	4.11846
0.000712166	4.24918
0.000794065	4.40631
0.000879525	4.4839
0.000893769	4.6955
0.000950742	5.72736
0.000957864	6.04508
0.000993472	6.33568
