Adsorption isotherm of Ammonia on Graphite Oxide
DOI: 10.1039/C2jm34973f
Adsorbate Ammonia: InChIKey QGZKDVFQNNGYKY-UHFFFAOYSA-N
Temperature: 313 K
Tabular data in the source: 0
pressure (bar)	uptake (mmol/g)
3.92e-05	0.105096
9.26e-05	0.209877
0.000462908	0.254682
0.000915134	0.324169
