Adsorption isotherm of Ammonia on CuBTC
DOI: 10.1039/C2jm34973f
Adsorbate Ammonia: InChIKey QGZKDVFQNNGYKY-UHFFFAOYSA-N
Temperature: 313 K
Tabular data in the source: 0
pressure (bar)	uptake (mmol/g)
9.97e-05	0.103759
0.000138872	0.288325
0.000192285	0.419596
0.000224332	0.551339
0.000259941	0.709494
0.000291988	0.841236
0.000331157	0.999312
0.000377448	1.07776
0.000448665	1.26162
0.000523442	1.39242
0.000576855	1.55018
0.000619585	1.68169
0.000751335	1.99666
0.000904451	2.25818
0.000908012	2.12565
