Adsorption isotherm of Ammonia on CuBTC/Graphite Oxide
DOI: 10.1039/C2jm34973f
Adsorbate Ammonia: InChIKey QGZKDVFQNNGYKY-UHFFFAOYSA-N
Temperature: 313 K
Tabular data in the source: 0
pressure (bar)	uptake (mmol/g)
7.12e-06	0.0263329
2.49e-05	0.0524299
3.92e-05	0.0786055
7.12e-05	0.130878
9.97e-05	0.23621
0.000131751	0.314972
0.000156677	0.446872
0.000178042	0.578851
0.000195846	0.657928
0.000224332	0.76326
0.000267062	0.894767
0.00029911	1.02651
0.000331157	1.13176
0.00038457	1.23654
0.000413056	1.36837
0.000487834	1.47267
0.000576855	1.57667
0.000676558	1.70692
0.000737092	1.81154
0.000925816	1.91334
0.000940059	2.04547
