Adsorption isotherm of Ammonia on CuBTC/Graphite Oxide
DOI: 10.1039/C2jm34973f
Adsorbate Ammonia: InChIKey QGZKDVFQNNGYKY-UHFFFAOYSA-N
Temperature: 313 K
Tabular data in the source: 0
pressure (bar)	uptake (mmol/g)
9.61e-05	0.183308
0.000113947	0.341855
0.000135312	0.553304
0.000156677	0.579323
0.000181602	0.737713
0.00021365	0.842966
0.000235015	1.10739
0.000252819	1.23945
0.000267062	1.31861
0.000277745	1.45082
0.000291988	1.55647
0.000295549	1.71533
0.000306231	1.92701
0.000324036	2.05907
0.000348961	2.16448
0.000359644	2.2967
0.000388131	2.42852
0.000437982	2.50689
0.000455786	2.63895
0.000484273	2.74428
0.000509199	2.87618
0.000534125	2.98159
0.000576855	3.11309
0.000605341	3.24492
0.000672997	3.45534
0.000733531	3.63944
0.000776261	3.66498
0.000829674	3.82274
0.000868843	4.08678
0.000932938	4.19133
0.00100772	4.56054
0.00107893	4.66492
0.00117151	5.43109
