Adsorption isotherm of Toluene on ZSM-5-MCM-41
DOI: 10.1016/j.micromeso.2008.09.020
Adsorbate Toluene: InChIKey YXFVVABEGXRONW-UHFFFAOYSA-N
Temperature: 298 K
Tabular data in the source: 0
pressure (bar)	uptake (mmol/g)
0.00619484	0.155436
0.0957747	1.33527
0.200649	2.27913
0.296783	2.72485
0.403842	3.01325
0.497791	3.61628
0.593926	4.25863
0.700985	4.73056
0.794934	5.05829
0.899808	5.37291
1.00468	5.42535
