Adsorption isotherm of Toluene on ZSM-5-MCM-41
DOI: 10.1016/j.micromeso.2008.09.020
Adsorbate Toluene: InChIKey YXFVVABEGXRONW-UHFFFAOYSA-N
Temperature: 298 K
Tabular data in the source: 0
pressure (bar)	uptake (mmol/g)
0.00400996	0.181654
0.0258587	0.522495
0.0542621	0.745352
0.111069	1.08619
0.17443	1.40081
0.298968	1.82031
0.416951	2.14804
0.596111	2.73796
0.716279	3.06569
0.770901	3.17056
0.834262	3.38031
0.893254	4.53392
