Adsorption isotherm of Nitrogen on ZSM-5-MCM-41
DOI: 10.1016/j.micromeso.2008.09.020
Adsorbate Nitrogen: InChIKey IJGRMHOSHXDMSA-UHFFFAOYSA-N
Temperature: 77 K
Tabular data in the source: 0
pressure (bar)	uptake (mmol/g)
0.00400996	0.255935
0.00619484	2.22232
0.0105646	2.70299
0.0324133	3.53325
0.139472	5.32484
0.194094	5.9803
0.246531	6.72316
0.355775	9.78199
0.408212	10.5248
0.52401	11.224
0.727203	12.0543
0.919472	13.1467
0.95443	13.5837
0.980649	14.8509
0.998128	18.6963
