Adsorption isotherm of Hydrogen sulfide on Carbon
DOI: 10.1007/s10450-013-9579-3
Adsorbate Hydrogen sulfide: InChIKey RWSOTUBLDIXVET-UHFFFAOYSA-N
Temperature: 276 K
Tabular data in the source: 0
pressure (bar)	uptake (mmol/g)
0.431034	5.27858
0.775862	7.89033
1.2931	9.50239
1.55172	10.5029
2.15517	11.7818
2.41379	12.2822
2.84483	12.8942
3.36207	13.5618
3.87931	14.2294
4.56897	15.064
6.03448	16.1223
6.81034	16.4015
8.10345	16.6261
