Adsorption isotherm of Methane on Carbon
DOI: 10.1007/s10450-013-9579-3
Adsorbate Methane: InChIKey VNWKTOKETHGBQD-UHFFFAOYSA-N
Temperature: 298 K
Tabular data in the source: 0
pressure (bar)	uptake (mmol/g)
2.29592	1.67192
3.06122	2.27129
5.35714	3.09148
8.16327	4.03785
10.7143	4.63722
17.3469	5.74132
23.2143	6.40379
30.3571	6.97161
42.0918	7.53943
44.898	7.66562
50	7.7918
59.4388	7.98107
65.8163	8.04416
68.3673	8.10726
73.9796	8.07571
80.8673	8.07571
86.7347	8.04416
91.8367	7.94953
