Adsorption isotherm of Methane on Carbon
DOI: 10.1007/s10450-013-9579-3
Adsorbate Methane: InChIKey VNWKTOKETHGBQD-UHFFFAOYSA-N
Temperature: 298 K
Tabular data in the source: 0
pressure (bar)	uptake (mmol/g)
2.08768	1.65882
3.34029	2.32941
5.21921	3.24706
8.14196	4.23529
10.2296	4.87059
17.3278	6.21176
23.382	6.98824
30.4802	7.76471
42.1712	8.68235
44.4676	8.82353
49.8956	9.14118
59.2902	9.6
65.5532	9.84706
68.6848	9.98824
74.1127	10.1294
80.5846	10.3412
86.4301	10.4824
91.6493	10.5529
