Adsorption isotherm of Methane on Carbon
DOI: 10.1007/s10450-013-9579-3
Adsorbate Methane: InChIKey VNWKTOKETHGBQD-UHFFFAOYSA-N
Temperature: 323 K
Tabular data in the source: 0
pressure (bar)	uptake (mmol/g)
5.10204	2.42902
6.88776	2.90221
9.43878	3.56467
17.0918	4.73186
23.2143	5.36278
24.7449	5.5205
32.6531	6.08833
38.5204	6.43533
44.3878	6.65615
52.551	6.94006
59.4388	7.09779
64.5408	7.22397
69.6429	7.28707
80.102	7.3817
84.6939	7.3817
88.5204	7.3817
94.6429	7.3817
