Adsorption isotherm of Hydrogen sulfide on Carbon
DOI: 10.1007/s10450-013-9579-3
Adsorbate Hydrogen sulfide: InChIKey RWSOTUBLDIXVET-UHFFFAOYSA-N
Temperature: 298 K
Tabular data in the source: 0
pressure (bar)	uptake (mmol/g)
0.172414	2.61143
0.344828	3.27842
0.603448	4.83445
0.775862	5.61255
0.948276	6.27953
1.03448	6.72414
1.2931	7.33573
1.55172	8.00287
1.81034	8.28113
1.98276	8.67034
2.41379	9.28225
3.01724	10.0056
3.44828	10.5064
3.96552	10.9518
4.39655	11.3415
4.91379	11.6758
6.03448	12.3445
7.06897	12.8464
8.01724	13.2371
8.96552	13.6277
9.91379	13.7961
11.0345	14.0204
11.9828	14.1889
13.0172	14.3019
