Adsorption isotherm of Methane on Carbon
DOI: 10.1007/s10450-013-9579-3
Adsorbate Methane: InChIKey VNWKTOKETHGBQD-UHFFFAOYSA-N
Temperature: 273 K
Tabular data in the source: 0
pressure (bar)	uptake (mmol/g)
4.84694	4.29022
8.41837	5.42587
10.4592	5.96215
13.7755	6.62461
15.5612	6.87697
20.1531	7.44479
27.0408	8.10726
29.5918	8.29653
39.5408	8.70662
44.3878	8.92744
52.0408	9.08517
