Adsorption isotherm of Hydrogen sulfide on Carbon
DOI: 10.1007/s10450-013-9579-3
Adsorbate Hydrogen sulfide: InChIKey RWSOTUBLDIXVET-UHFFFAOYSA-N
Temperature: 298 K
Tabular data in the source: 0
pressure (bar)	uptake (mmol/g)
0.0601682	1.21283
0.1778	2.14577
0.354502	3.68513
0.675286	4.75802
0.734694	5.55102
1.11362	6.7172
1.34652	7.27697
1.63755	7.93003
1.81214	8.30321
2.0447	8.67638
2.50965	9.32945
3.00376	10.0758
3.52634	10.5423
4.078	11.0554
4.48439	11.3819
4.97799	11.8484
6.02256	12.4548
7.09604	13.0146
8.05332	13.4344
9.06832	13.7143
10.0255	14.0875
11.1273	14.2741
12.0843	14.5073
13.041	14.6472
