Adsorption isotherm of Methane on Carbon
DOI: 10.1007/s10450-013-9579-3
Adsorbate Methane: InChIKey VNWKTOKETHGBQD-UHFFFAOYSA-N
Temperature: 298 K
Tabular data in the source: 0
pressure (bar)	uptake (mmol/g)
1.87891	1.72941
3.13152	2.29412
5.21921	3.21176
8.14196	4.2
10.4384	4.90588
17.3278	6.24706
22.9645	7.02353
30.0626	7.8
42.38	8.78824
44.4676	8.89412
49.6868	9.24706
59.2902	9.70588
65.5532	9.98824
68.476	10.1647
73.904	10.2706
80.5846	10.5882
86.4301	10.6941
91.6493	10.8
