Adsorption isotherm of Hydrogen sulfide on Carbon
DOI: 10.1007/s10450-013-9579-3
Adsorbate Hydrogen sulfide: InChIKey RWSOTUBLDIXVET-UHFFFAOYSA-N
Temperature: 298 K
Tabular data in the source: 0
pressure (bar)	uptake (mmol/g)
0.354502	3.68513
0.646639	4.94461
0.792749	5.59767
1.02599	6.34402
1.0848	6.8105
1.3466	7.32362
1.60874	8.02332
1.81223	8.34985
2.04479	8.72303
2.50982	9.42274
3.00393	10.1691
3.49744	10.5889
4.0491	11.102
4.51354	11.4752
5.00697	11.8484
6.02282	12.5948
7.09613	13.0612
8.02442	13.481
9.06849	13.8076
10.0254	14.0408
13.0701	14.6939
