Adsorption isotherm of Hydrogen sulfide on Carbon
DOI: 10.1007/s10450-013-9579-3
Adsorbate Hydrogen sulfide: InChIKey RWSOTUBLDIXVET-UHFFFAOYSA-N
Temperature: 323 K
Tabular data in the source: 0
pressure (bar)	uptake (mmol/g)
0.775862	3.44588
1.46552	4.94716
2.15517	5.94844
3.01724	6.83892
4.56897	8.39735
6.46552	9.78975
6.81034	9.79039
8.01724	10.5148
9.13793	10.9614
10.0862	11.352
11.8966	11.9665
13.7931	12.47
16.1207	12.9187
17.931	13.2554
19.9138	13.4813
22.2414	13.6523
24.569	13.8788
26.5517	13.9381
27.8448	13.996
28.7931	13.9978
30.1724	14.0559
