Adsorption isotherm of Carbon Dioxide on ZIF-8
DOI: 10.1021/Jp209335y
Adsorbate Carbon Dioxide: InChIKey CURLTUGMZLYLDI-UHFFFAOYSA-N
Temperature: 303 K
Tabular data in the source: 0
pressure (bar)	uptake (mmol/g)
1.00866	0.603254
1.24694	0.712525
1.5195	0.843651
1.76077	0.96385
2.15338	1.23703
2.41587	1.36816
2.62457	1.51957
2.83868	1.65864
3.08232	1.83348
3.41761	2.05997
3.74995	2.32619
4.06648	2.54871
4.52062	2.87851
4.84489	3.14474
5.15858	3.3156
5.35787	3.49043
5.83296	3.83613
6.27592	4.15004
6.68227	4.44408
7.25581	4.81361
7.69538	5.06792
8.12963	5.27852
8.55479	5.46924
9.0612	5.65203
9.63529	5.81891
10.4213	5.90633
