Adsorption isotherm of Carbon Dioxide on ZIF-71
DOI: 10.1021/Jp209335y
Adsorbate Carbon Dioxide: InChIKey CURLTUGMZLYLDI-UHFFFAOYSA-N
Temperature: 298 K
Tabular data in the source: 0
pressure (bar)	uptake (mmol/g)
0.157588	0.224024
0.515314	0.532066
0.870059	0.719624
1.01166	0.810298
