Adsorption isotherm of Carbon Dioxide on ZIF-8
DOI: 10.1021/Jp209335y
Adsorbate Carbon Dioxide: InChIKey CURLTUGMZLYLDI-UHFFFAOYSA-N
Temperature: 303 K
Tabular data in the source: 0
pressure (bar)	uptake (mmol/g)
1.00603	0.589325
2.01387	1.17939
3.01306	2.00191
4.01951	2.50257
4.98206	3.23569
6.01382	3.78999
7.02816	4.28171
7.97557	4.67509
9.0241	5.12211
10.0319	5.49761
