Adsorption isotherm of Carbon Dioxide on ZIF-8
DOI: 10.1021/Jp209335y
Adsorbate Carbon Dioxide: InChIKey CURLTUGMZLYLDI-UHFFFAOYSA-N
Temperature: 303 K
Tabular data in the source: 0
pressure (bar)	uptake (mmol/g)
1.00473	0.491398
3.06226	1.56825
5.13901	2.74451
10.4935	4.86508
