Adsorption isotherm of Carbon Dioxide on ZIF-303
DOI: 10.1021/Jp209335y
Adsorbate Carbon Dioxide: InChIKey CURLTUGMZLYLDI-UHFFFAOYSA-N
Temperature: 303 K
Tabular data in the source: 0
pressure (bar)	uptake (mmol/g)
0.10603	0.0282263
0.159218	0.0941083
0.273232	0.15999
0.407812	0.206108
0.526188	0.258813
0.734652	0.34446
0.902986	0.443282
1.19372	0.63434
1.7602	0.976926
2.50269	1.29975
3.1137	1.58963
4.19185	2.13645
4.99838	2.58444
5.81716	3.05879
6.52802	3.47385
7.73694	4.04702
8.7884	4.4489
9.4522	4.65314
10.5431	4.85737
