Adsorption isotherm of Carbon Dioxide on ZIF-8
DOI: 10.1021/Jp209335y
Adsorbate Carbon Dioxide: InChIKey CURLTUGMZLYLDI-UHFFFAOYSA-N
Temperature: 303 K
Tabular data in the source: 0
pressure (bar)	uptake (mmol/g)
1.00046	0.592868
1.13141	0.660859
1.27135	0.72885
1.51076	0.884259
1.7388	1.00567
1.94142	1.13194
2.29965	1.37962
2.57997	1.55446
2.91301	1.78757
3.32603	2.09353
3.74341	2.39464
4.281	2.78316
4.85685	3.19111
5.40553	3.56991
5.9493	3.94872
6.33174	4.20126
6.74955	4.50237
7.42852	4.92488
7.9822	5.21627
8.59086	5.50281
9.09941	5.68736
9.74644	5.89133
10.4562	6.02731
