Adsorption isotherm of Carbon Dioxide on ZIF-71
DOI: 10.1021/Jp209335y
Adsorbate Carbon Dioxide: InChIKey CURLTUGMZLYLDI-UHFFFAOYSA-N
Temperature: 298 K
Tabular data in the source: 0
pressure (bar)	uptake (mmol/g)
0.00406383	0.00789786
0.0398365	0.0290136
0.0666659	0.0476452
0.0860428	0.0650347
0.10691	0.0811821
0.115853	0.0873926
0.169512	0.124656
0.223171	0.161919
0.279811	0.19794
0.33198	0.233961
0.385639	0.266256
0.439297	0.29855
0.494447	0.332087
0.549596	0.364382
0.601765	0.39295
0.658405	0.422761
0.710573	0.453814
0.764232	0.482382
0.819382	0.513435
0.87155	0.542003
0.923718	0.570571
0.981849	0.59914
1.03253	0.626466
1.08022	0.655035
