Adsorption isotherm of Carbon Dioxide on ZIF-71
DOI: 10.1021/Jp209335y
Adsorbate Carbon Dioxide: InChIKey CURLTUGMZLYLDI-UHFFFAOYSA-N
Temperature: 298 K
Tabular data in the source: 0
pressure (bar)	uptake (mmol/g)
0.102907	0.100976
0.157286	0.18065
0.265009	0.265303
0.389115	0.335018
0.518285	0.394773
0.722732	0.499345
0.878275	0.574039
1.02531	0.643754
1.49686	0.872816
2.24884	1.11682
2.70167	1.22637
3.06484	1.33592
3.89924	1.57992
4.6844	1.85878
5.19362	2.048
7.36798	2.8049
10.5128	3.60164
