Adsorption isotherm of Carbon Dioxide on ZIF-8
DOI: 10.1021/Jp209335y
Adsorbate Carbon Dioxide: InChIKey CURLTUGMZLYLDI-UHFFFAOYSA-N
Temperature: 303 K
Tabular data in the source: 0
pressure (bar)	uptake (mmol/g)
1.01332	0.539446
1.30844	0.72885
1.63377	0.918255
2.0828	1.19022
2.36673	1.36991
2.74582	1.59817
3.27855	1.94784
3.71956	2.26351
4.06765	2.44806
4.62957	2.80744
5.4315	3.27852
6.31155	3.78846
7.01335	4.19155
7.7312	4.55579
9.20174	5.22599
10.4896	5.69707
