Adsorption isotherm of Carbon Dioxide on ZIF-71
DOI: 10.1021/Jp209335y
Adsorbate Carbon Dioxide: InChIKey CURLTUGMZLYLDI-UHFFFAOYSA-N
Temperature: 298 K
Tabular data in the source: 0
pressure (bar)	uptake (mmol/g)
0.160569	0.15695
0.516805	0.400403
0.87304	0.574298
1.01464	0.653793
