Adsorption isotherm of Nitrogen on Zr-Ti-Si/PAI-HF
DOI: 10.1002/cssc.201600082
Article source: Figure 4
Adsorbate Nitrogen: InChIKey IJGRMHOSHXDMSA-UHFFFAOYSA-N
Kind: experiment
Temperature: 77 K
Tabular data in the source: 0
pressure (bar)	uptake (mmol/cm3)
0.012747	13.331
0.024794	16.481
0.040094	19.19
0.058414	22.451
0.078233	24.773
0.09254	28.14
0.102825	28.587
0.201434	33.897
0.210543	36.108
0.286567	39.593
0.301452	39.87
0.389696	45.621
0.405503	45.622
0.491355	50.507
0.503697	51.078
0.590856	58.451
0.605589	59.417
0.70198	70.825
0.806202	93.788
0.806304	93.834
0.838343	109.734
0.865802	131.801
0.895206	168.823
0.911874	374.739
0.92686	258.305
0.934531	438.128
0.954279	425.694
0.985983	494.377
1.00317	522.625
