Adsorption isotherm of Nitrogen on APS/Zr-Si/PAI-HF
DOI: 10.1002/cssc.201600082
Article source: Figure 4
Adsorbate Nitrogen: InChIKey IJGRMHOSHXDMSA-UHFFFAOYSA-N
Kind: experiment
Temperature: 77 K
Tabular data in the source: 0
pressure (bar)	uptake (mmol/cm3)
0.010305	6.117
0.030529	7.193
0.055901	8.75
0.075335	9.116
0.097313	9.78
0.182294	13.209
0.200694	13.151
0.290114	14.564
0.302445	14.816
0.399697	16.303
0.501447	18.018
0.603279	19.751
0.708008	22.756
0.805513	25.45
0.811725	25.654
0.813072	29.887
0.838029	28.832
0.867433	31.668
0.895703	34.831
0.916201	54.905
0.924793	43.267
0.939891	64.108
0.963469	67.254
0.988354	95.487
0.99644	121.171
