Adsorption isotherm of Nitrogen on AEAPS/Zr-Ti-Si/PAI-HF
DOI: 10.1002/cssc.201600082
Article source: Figure 4
Adsorbate Nitrogen: InChIKey IJGRMHOSHXDMSA-UHFFFAOYSA-N
Kind: experiment
Temperature: 77 K
Tabular data in the source: 0
pressure (bar)	uptake (mmol/cm3)
0.011936	0.785
0.025058	1.392
0.040449	1.336
0.061525	2.054
0.074069	2.164
0.088953	2.329
0.103341	2.329
0.204869	3.856
0.283963	4.375
0.306468	4.067
0.384528	4.897
0.406496	4.853
0.486512	5.724
0.509594	6.002
0.585871	6.277
0.607687	6.485
0.688422	6.892
0.708738	6.725
0.803072	8.987
0.839701	10.312
0.868213	11.282
0.897294	33.657
0.897294	33.658
0.923841	24.618
0.924641	45.327
0.954917	48.046
0.989439	62.963
0.99488	65.484
