Adsorption isotherm of Nitrogen on Ti-Si/PAI-HF
DOI: 10.1002/cssc.201600082
Article source: Figure 4
Adsorbate Nitrogen: InChIKey IJGRMHOSHXDMSA-UHFFFAOYSA-N
Kind: experiment
Temperature: 77 K
Tabular data in the source: 0
pressure (bar)	uptake (mmol/cm3)
0.008967	7.772
0.017762	10.962
0.029708	13.736
0.040824	15.123
0.057664	17.111
0.071677	18.914
0.086278	21.486
0.100798	22.105
0.202184	30.386
0.282697	34.546
0.3036	34.455
0.384387	40.374
0.403466	39.728
0.484729	46.502
0.505206	46.095
0.591424	54.252
0.605741	53.029
0.693124	65.532
0.703327	64.146
0.797144	89.943
0.806689	87.031
0.838545	101.362
0.870402	123.413
0.898033	160.071
0.909331	312.792
0.924003	227.286
0.933284	380.177
0.956589	374.121
0.991627	436.382
1.0106	476.445
