Adsorption isotherm of Nitrogen on APS/Zr-Ti-Si/PAI-HF
DOI: 10.1002/cssc.201600082
Article source: Figure 4
Adsorbate Nitrogen: InChIKey IJGRMHOSHXDMSA-UHFFFAOYSA-N
Kind: experiment
Temperature: 77 K
Tabular data in the source: 0
pressure (bar)	uptake (mmol/cm3)
0.012615	4.43
0.037511	7.063
0.060359	8.204
0.076693	8.994
0.096938	9.346
0.183783	12.375
0.196206	13.341
0.288827	15.801
0.305292	15.538
0.390476	18.042
0.404885	17.999
0.491933	20.226
0.505419	19.948
0.59496	22.383
0.606096	22.494
0.7028	27.046
0.798998	35.653
0.803092	35.821
0.837644	35.655
0.866602	42.447
0.893757	51.175
0.910506	109.768
0.927438	80.743
0.932291	122.224
0.963094	130.909
0.992853	156.172
0.994576	158.507
