Adsorption isotherm of Nitrogen on Ta/Zr-Ti-Si/PAI-HF
DOI: 10.1002/cssc.201600082
Article source: Figure 4
Adsorbate Nitrogen: InChIKey IJGRMHOSHXDMSA-UHFFFAOYSA-N
Kind: experiment
Temperature: 77 K
Tabular data in the source: 0
pressure (bar)	uptake (mmol/cm3)
0.010284	0.394
0.023963	0.701
0.044928	0.875
0.060329	0.874
0.074069	1.137
0.087869	1.662
0.101406	1.587
0.11243	1.617
0.205214	2.008
0.283457	2.794
0.30363	2.574
0.386393	2.833
0.405047	2.789
0.487404	3.614
0.50396	3.392
0.589489	4.622
0.604282	4.534
0.691492	5.67
0.704503	5.933
0.804814	7.964
0.836681	6.361
0.869368	8.072
0.899482	9.897
0.908247	20.963
0.925634	13.991
0.926475	32.818
0.955069	31.547
0.984079	45.632
0.988598	43.478
0.995792	45.908
