Adsorption isotherm of Nitrogen on AEAPS/Zr-Si/PAI-HF
DOI: 10.1002/cssc.201600082
Article source: Figure 4
Adsorbate Nitrogen: InChIKey IJGRMHOSHXDMSA-UHFFFAOYSA-N
Kind: experiment
Temperature: 77 K
Tabular data in the source: 0
pressure (bar)	uptake (mmol/cm3)
0.006525	1.719
0.018846	2.613
0.035352	3.072
0.055759	4.013
0.070178	4.105
0.079956	4.174
0.090139	4.421
0.099511	4.658
0.200998	6.106
0.283821	7.611
0.301574	7.843
0.386707	8.944
0.405604	8.772
0.492277	9.235
0.504568	9.738
0.593187	10.833
0.605194	11.234
0.69516	12.948
0.705516	12.876
0.809252	14.045
0.840521	16.52
0.871375	17.903
0.898084	20.16
0.912999	32.384
0.925421	23.944
0.940215	39.834
0.960024	39.547
0.989712	57.415
0.992823	60.953
