Adsorption isotherm of Nitrogen on AEAPS/Ti-Si/PAI-HF
DOI: 10.1002/cssc.201600082
Article source: Figure 4
Adsorbate Nitrogen: InChIKey IJGRMHOSHXDMSA-UHFFFAOYSA-N
Kind: experiment
Temperature: 77 K
Tabular data in the source: 0
pressure (bar)	uptake (mmol/cm3)
0.005988	0.477
0.019424	1.174
0.036933	1.138
0.055759	0.918
0.069124	1.101
0.079793	2.165
0.09026	2.203
0.101578	2.239
0.20112	2.643
0.281248	2.422
0.302242	2.496
0.383353	2.606
0.40455	2.826
0.485965	2.956
0.505298	3.649
0.585669	3.834
0.606734	4.112
0.688757	4.918
0.707786	4.808
0.805726	4.944
0.837654	5.73
0.870007	9.799
0.897547	9.206
0.899533	9.245
0.92758	25.707
0.927742	25.752
0.957937	27.187
0.992438	36.158
