Adsorption isotherm of Nitrogen on APS/Ti-Si/PAI-HF
DOI: 10.1002/cssc.201600082
Article source: Figure 4
Adsorbate Nitrogen: InChIKey IJGRMHOSHXDMSA-UHFFFAOYSA-N
Kind: experiment
Temperature: 77 K
Tabular data in the source: 0
pressure (bar)	uptake (mmol/cm3)
0.007964	4.476
0.017306	5.467
0.032191	6.017
0.047724	6.75
0.071262	7.943
0.079307	8.23
0.096137	9.165
0.185394	11.168
0.196175	11.353
0.286729	12.071
0.301037	12.303
0.391135	13.306
0.400345	12.865
0.492835	16.15
0.504031	15.364
0.600736	17.857
0.703753	20.56
0.799515	24.997
0.835911	27.27
0.869419	30.352
0.892329	34.497
0.91233	77.649
0.923922	47.413
0.938918	91.592
0.955241	92.766
0.992235	107.589
0.996977	110.954
