Adsorption isotherm of Nitrogen on Ta/Ti-Si/PAI-HF
DOI: 10.1002/cssc.201600082
Article source: Figure 4
Adsorbate Nitrogen: InChIKey IJGRMHOSHXDMSA-UHFFFAOYSA-N
Kind: experiment
Temperature: 77 K
Tabular data in the source: 0
pressure (bar)	uptake (mmol/cm3)
0.005988	0.513
0.020407	0.879
0.034299	0.951
0.0474	0.913
0.060633	1.059
0.07498	0.985
0.083806	1.681
0.094313	1.715
0.105003	1.864
0.199732	2.846
0.28142	2.683
0.301411	2.866
0.388328	3.646
0.401267	3.645
0.486451	4.275
0.502967	3.983
0.588759	4.617
0.606734	4.383
0.688828	4.502
0.707238	4.316
0.786697	3.802
0.806517	4.632
0.83812	4.722
0.870047	5.182
0.885479	11.305
0.903647	5.216
0.918521	11.67
0.931552	5.727
0.934318	8.074
0.960125	12.107
0.989226	16.432
1.00081	21.566
