Adsorption isotherm of Nitrogen on Zr-Si/PAI-HF
DOI: 10.1002/cssc.201600082
Article source: Figure 4
Adsorbate Nitrogen: InChIKey IJGRMHOSHXDMSA-UHFFFAOYSA-N
Kind: experiment
Temperature: 77 K
Tabular data in the source: 0
pressure (bar)	uptake (mmol/cm3)
0.006525	15.103
0.018593	17.029
0.032556	18.932
0.044421	20.262
0.061251	21.958
0.073511	22.142
0.086228	23.342
0.098549	23.862
0.186793	28.977
0.20114	29.115
0.306822	33.19
0.397761	36.435
0.501133	41.321
0.600259	47.147
0.711585	58.128
0.808898	76.561
0.814582	79.904
0.833297	85.385
0.864272	103.123
0.896899	133.929
0.914215	219.53
0.929789	188.109
0.938604	237.741
0.967512	246.255
0.99413	266.126
1.00286	273.414
