Adsorption isotherm of Nitrogen on Ta/Zr-Si/PAI-HF
DOI: 10.1002/cssc.201600082
Article source: Figure 4
Adsorbate Nitrogen: InChIKey IJGRMHOSHXDMSA-UHFFFAOYSA-N
Kind: experiment
Temperature: 77 K
Tabular data in the source: 0
pressure (bar)	uptake (mmol/cm3)
0.009535	1.205
0.028675	1.666
0.045029	1.608
0.063348	1.521
0.079459	1.693
0.098853	1.837
0.198384	3.133
0.284379	3.478
0.297774	3.391
0.384042	3.331
0.423245	3.425
0.487414	3.286
0.506463	3.103
0.589154	3.513
0.608061	3.33
0.693651	3.353
0.707127	3.468
0.800974	3.554
0.811927	3.764
0.838535	4.515
0.870361	4.56
0.898236	6.637
0.918937	18.754
0.927651	9.002
0.937996	27.871
0.955586	24.293
0.997322	36.323
