Adsorption isotherm of Carbon Dioxide on Activated Carbon
DOI: 10.1021/ed500633h
Article source: Figure 2a
Adsorbate Carbon Dioxide: InChIKey CURLTUGMZLYLDI-UHFFFAOYSA-N
Kind: experiment
Temperature: 303 K
Tabular data in the source: 0
pressure (bar)	uptake (mmol/g)
0	0
0.325056	0.680347
1.76975	2.11016
3.39503	3.22294
4.26185	3.40547
6.28442	4.67746
8.19865	5.42804
9.49887	5.86048
