Adsorption isotherm of Carbon Dioxide on MIL-53(Al)
DOI: 10.1021/ed500633h
Article source: Figure 2b
Adsorbate Carbon Dioxide: InChIKey CURLTUGMZLYLDI-UHFFFAOYSA-N
Kind: experiment
Temperature: 303 K
Tabular data in the source: 0
pressure (bar)	uptake (mmol/g)
0	-0.016949
0.253394	1.52542
1.77376	2.76271
3.36652	3.57627
4.1267	3.55932
6.19005	4.37288
8.0362	4.64407
9.59276	4.84746
