Adsorption isotherm of Nitrogen on MIL-53(Al)
DOI: 10.1021/ed500633h
Article source: Figure 2b
Adsorbate Nitrogen: InChIKey IJGRMHOSHXDMSA-UHFFFAOYSA-N
Kind: experiment
Temperature: 323 K
Tabular data in the source: 0
pressure (bar)	uptake (mmol/g)
0.04	0
1.68	0.195214
2.92	0.321159
4.16	0.421914
4.8	0.491184
6.2	0.579345
8.24	0.74937
9.68	0.894207
11.24	0.944584
14.2	1.17128
14.72	1.25945
17.08	1.30353
18.76	1.49244
