Adsorption isotherm of Carbon Dioxide on Activated Carbon
DOI: 10.1021/ed500633h
Article source: Figure 2a
Adsorbate Carbon Dioxide: InChIKey CURLTUGMZLYLDI-UHFFFAOYSA-N
Kind: experiment
Temperature: 353 K
Tabular data in the source: 0
pressure (bar)	uptake (mmol/g)
0	0
1.51693	0.296766
3.06998	0.933527
4.87585	1.57065
6.0316	1.91223
9.06546	2.8457
9.86005	3.00547
12.0632	3.59782
14.7359	4.21351
