Adsorption isotherm of Nitrogen on Activated Carbon
DOI: 10.1021/ed500633h
Article source: Figure 2b
Adsorbate Nitrogen: InChIKey IJGRMHOSHXDMSA-UHFFFAOYSA-N
Kind: experiment
Temperature: 323 K
Tabular data in the source: 0
pressure (bar)	uptake (mmol/g)
0	-0.018844
0.12	0.043932
1.68	0.338668
2.8	0.476508
4.2	0.714761
4.84	0.783656
6.16	0.996809
8.28	1.25996
9.68	1.39771
11.28	1.58565
14.2	1.94278
14.72	1.98658
17.08	2.17428
18.76	2.38104
