Adsorption isotherm of Carbon Dioxide on MIL-53(Al)
DOI: 10.1021/ed500633h
Article source: Figure 2b
Adsorbate Carbon Dioxide: InChIKey CURLTUGMZLYLDI-UHFFFAOYSA-N
Kind: experiment
Temperature: 353 K
Tabular data in the source: 0
pressure (bar)	uptake (mmol/g)
0	-0.016949
1.70136	0.661017
3.25792	1.22034
5.06787	1.86441
6.33484	2
9.23077	2.62712
9.88235	2.77966
12.2353	3.0678
14.8054	3.37288
