Adsorption isotherm of Nitrogen on Pd@ZIF-8
DOI: 10.1021/Ja306869j
Adsorbate Nitrogen: InChIKey IJGRMHOSHXDMSA-UHFFFAOYSA-N
Temperature: 77 K
Tabular data in the source: 0
pressure (bar)	uptake (cm3(STP)/g)
0.00219305	0.00219305
0.00657914	254.918
0.0131583	283.227
0.0197374	303.81
0.0241235	339.85
0.046054	352.668
0.0767567	355.161
0.122811	360.189
0.171058	360.062
0.23027	359.905
0.293868	364.886
0.337729	364.77
0.394749	364.619
0.467119	367.002
0.535104	366.822
0.616246	366.607
0.679845	369.013
0.730285	371.455
0.780725	373.896
0.8202	373.792
0.87064	378.808
0.901342	389.027
0.934238	404.391
0.94959	440.401
0.956169	479.011
0.958362	538.232
