Adsorption isotherm of Congo Red on Agadir natural clay
DOI: 10.1016/j.jece.2017.11.003
Article source: Figure 9
Adsorbate Congo Red: InChIKey IQFVPQOLBLOTPF-HKXUKFGYSA-L
Kind: experiment
Temperature: 295 K
Tabular data in the source: 0
pressure (bar)	uptake (mg/g)
1.01325	21.795
1.01325	41.105
1.01325	50.091
1.01325	57.548
1.01325	57.166
1.01325	58.888
