Adsorption isotherm of Methylene blue on Agadir natural clay
DOI: 10.1016/j.jece.2017.11.003
Article source: Figure 9
Adsorbate Methylene blue: InChIKey CXKWCBBOMKCUKX-UHFFFAOYSA-M
Kind: experiment
Temperature: 295 K
Tabular data in the source: 0
pressure (bar)	uptake (mg/g)
1.01325	97.546
1.01325	156.455
1.01325	210.384
1.01325	259.24
1.01325	277.394
1.01325	303.698
