Adsorption isotherm of Congo Red, Gentian violet on Agadir natural clay
DOI: 10.1016/j.jece.2017.11.003
Article source: Figure 5
Adsorbate Congo Red: InChIKey IQFVPQOLBLOTPF-HKXUKFGYSA-L
Adsorbate Gentian violet: InChIKey ZXJXZNDDNMQXFV-UHFFFAOYSA-M
Kind: experiment
Temperature: 295 K
Tabular data in the source: 0
pressure (bar)	Congo Red fraction	Congo Red uptake (mg/g)	Gentian violet fraction	Gentian violet uptake (mg/g)	total uptake (mg/g)
1.01325	100.132	44.094	102.313	49.89	
1.01325	199.593	85.035	202.149	100.675	
1.01325	301.16	125.315	401.437	197.136	
1.01325	499.545	204.234	501.611	242.437	
1.01325	601.16	208.149	602.119	281.756	
