Adsorption isotherm of Gentian violet on Agadir natural clay
DOI: 10.1016/j.jece.2017.11.003
Article source: Figure 9
Adsorbate Gentian violet: InChIKey ZXJXZNDDNMQXFV-UHFFFAOYSA-M
Kind: experiment
Temperature: 295 K
Tabular data in the source: 0
pressure (bar)	uptake (mg/g)
1.01325	81.175
1.01325	133.848
1.01325	159.82
1.01325	182.952
1.01325	201.67
1.01325	224.351
