Adsorption isotherm of Methylene blue, Congo Red, Gentian violet on Agadir natural clay
DOI: 10.1016/j.jece.2017.11.003
Article source: Figure 5
Adsorbate Methylene blue: InChIKey CXKWCBBOMKCUKX-UHFFFAOYSA-M
Adsorbate Congo Red: InChIKey IQFVPQOLBLOTPF-HKXUKFGYSA-L
Adsorbate Gentian violet: InChIKey ZXJXZNDDNMQXFV-UHFFFAOYSA-M
Kind: experiment
Temperature: 295 K
Tabular data in the source: 0
pressure (bar)	Methylene blue fraction	Methylene blue uptake (mg/g)	Congo Red fraction	Congo Red uptake (mg/g)	Gentian violet fraction	Gentian violet uptake (mg/g)	total uptake (mg/g)
1.01325	100.311	49.416	100.11	49.3	102.313	49.89	
1.01325	200.751	98.918	200.426	98.85	202.313	96.936	
1.01325	300.228	146.014	300.312	147.746	302.327	147.098	
1.01325	401.416	193.725	400.925	188.909	401.962	193.147	
1.01325	502.083	244.524	499.177	217.694	501.95	237.327	
1.01325	601.994	280.142	601.698	257.311	601.924	278.602	
