Adsorption isotherm of Methylene blue, Gentian violet on Agadir natural clay
DOI: 10.1016/j.jece.2017.11.003
Article source: Figure 5
Adsorbate Methylene blue: InChIKey CXKWCBBOMKCUKX-UHFFFAOYSA-M
Adsorbate Gentian violet: InChIKey ZXJXZNDDNMQXFV-UHFFFAOYSA-M
Kind: experiment
Temperature: 295 K
Tabular data in the source: 0
pressure (bar)	Methylene blue fraction	Methylene blue uptake (mg/g)	Gentian violet fraction	Gentian violet uptake (mg/g)	total uptake (mg/g)
1.01325	100.311	49.416	102.313	49.89	
1.01325	199.851	99.781	199.996	91.917	
1.01325	300.48	128.743	300.826	116.035	
1.01325	400.521	152.136	402.088	134.499	
1.01325	500.853	177.091	501.109	160.817	
1.01325	602.018	191.883	601.196	170.646	
