Adsorption isotherm of Methylene blue, Congo Red on Agadir natural clay
DOI: 10.1016/j.jece.2017.11.003
Article source: Figure 5
Adsorbate Methylene blue: InChIKey CXKWCBBOMKCUKX-UHFFFAOYSA-M
Adsorbate Congo Red: InChIKey IQFVPQOLBLOTPF-HKXUKFGYSA-L
Kind: experiment
Temperature: 295 K
Tabular data in the source: 0
pressure (bar)	Methylene blue fraction	Methylene blue uptake (mg/g)	Congo Red fraction	Congo Red uptake (mg/g)	total uptake (mg/g)
1.01325	100.311	49.416	100.28	44.387	
1.01325	199.851	99.781	199.654	87.243	
1.01325	300.247	149.461	300.782	126.309	
1.01325	401.214	198.067	399.125	173.659	
1.01325	500.753	248.236	501.054	206.847	
1.01325	600.652	288.675	600.078	214.559	
