Adsorption isotherm of Hydrogen on Cu(C9H3N4O4)0.5(NO3)0.167(O2-)0.167(H2O)3.9
DOI: 10.1021/ja710123s
Adsorbate Hydrogen: InChIKey UFHFLCQGNIYNRP-UHFFFAOYSA-N
Temperature: 87 K
Tabular data in the source: 0
pressure (bar)	uptake (wt%)
0.00461155	0.0752655
0.0115853	0.127922
0.0208648	0.218212
0.0348475	0.285874
0.0488373	0.346007
0.0651821	0.391061
0.079179	0.443663
0.0955168	0.496248
0.149248	0.616313
0.19597	0.721373
0.247395	0.803805
0.291804	0.878762
0.340888	0.961213
0.389986	1.0286
0.436743	1.09601
0.485841	1.1634
0.534946	1.22326
0.581703	1.29067
0.63083	1.32794
0.682269	1.39531
0.72904	1.44766
0.778159	1.49246
0.827272	1.54479
0.876384	1.59712
0.925496	1.64945
