Adsorption isotherm of Hydrogen on Cu(C9H3N4O4)0.5(NO3)0.167(O2-)0.167(H2O)3.9
DOI: 10.1021/ja710123s
Adsorbate Hydrogen: InChIKey UFHFLCQGNIYNRP-UHFFFAOYSA-N
Temperature: 77 K
Tabular data in the source: 0
pressure (bar)	uptake (wt%)
0.00461155	0.0752655
0.00685386	0.18067
0.0137923	0.270977
0.0160558	0.353791
0.0206744	0.421527
0.0276622	0.459123
0.0322949	0.511798
0.0416167	0.556906
0.0509244	0.617075
0.0625661	0.684756
0.0788828	0.759931
0.0975335	0.842618
0.151201	1.03045
0.197873	1.18823
0.246908	1.32339
0.29363	1.42845
0.345027	1.541
0.389415	1.63855
0.440826	1.73604
0.485235	1.811
0.531985	1.88594
0.581076	1.96086
0.630174	2.02825
0.676917	2.11072
0.728363	2.17056
0.777468	2.23042
0.824233	2.2903
0.873352	2.3351
0.920102	2.41004
