Adsorption isotherm of Argon on Cu(C9H3N4O4)0.5(NO3)0.167(O2-)0.167(H2O)3.9
DOI: 10.1021/ja710123s
Adsorbate Argon: InChIKey XKRFYHLGVUSROY-UHFFFAOYSA-N
Temperature: 87 K
Tabular data in the source: 0
pressure (bar)	uptake (cm3(STP)/g)
0.00261147	0.00261147
0.00522294	159.869
0.0104459	459.272
0.0287262	534.801
0.0600638	607.386
0.083567	691.621
0.109682	758.406
0.161911	778.605
0.216752	790.076
0.271593	801.546
0.329045	810.102
0.383886	815.759
0.441338	821.408
0.496179	829.972
0.548409	835.636
0.652867	841.15
0.707708	846.807
0.762549	852.463
0.81739	855.213
0.872231	860.87
0.92446	863.627
0.979301	866.376
1.0237	872.063
