Adsorption isotherm of Nitrogen on Cu(C9H3N4O4)0.5(NO3)0.167(O2-)0.167(H2O)3.9
DOI: 10.1021/ja710123s
Adsorbate Nitrogen: InChIKey IJGRMHOSHXDMSA-UHFFFAOYSA-N
Temperature: 78 K
Tabular data in the source: 0
pressure (bar)	uptake (cm3(STP)/g)
0.00261147	0.00261147
0.00783441	436.024
0.0104459	467.993
0.0287262	523.173
0.0522294	587.059
0.0809555	639.303
0.104459	665.398
0.156688	679.783
0.206306	688.362
0.255924	696.94
0.308153	699.697
0.368217	705.339
0.417835	711.011
0.470064	716.675
0.517071	719.447
0.566689	719.304
0.62153	722.054
0.671148	727.726
0.723377	730.483
0.770383	730.348
0.820001	733.113
0.872231	732.963
0.92446	735.72
0.974078	741.391
1.01586	741.272
