Adsorption isotherm of Methane on Carbon
DOI: 10.1016/j.apsusc.2012.10.040
Adsorbate Methane: InChIKey VNWKTOKETHGBQD-UHFFFAOYSA-N
Temperature: 303 K
Tabular data in the source: 0
pressure (bar)	uptake (mmol/g)
1.73013	0.0532544
2.88313	0.0857988
5.18827	0.14497
7.05982	0.183432
8.06758	0.204142
9.07534	0.224852
11.2344	0.266272
12.2417	0.284024
13.1051	0.298817
14.1124	0.316568
15.2637	0.337278
16.4142	0.352071
17.565	0.369822
19.1474	0.393491
21.1604	0.41716
24.6117	0.461538
27.1988	0.485207
30.3618	0.52071
33.0925	0.544379
36.5413	0.571006
37.8349	0.58284
38.8405	0.588757
40.9957	0.60355
42.2889	0.612426
46.1683	0.639053
47.461	0.64497
48.7541	0.653846
50.0473	0.662722
53.2073	0.677515
56.2242	0.695266
58.3786	0.704142
59.8148	0.710059
