Adsorption isotherm of Methane on Carbon
DOI: 10.1016/j.apsusc.2012.10.040
Adsorbate Methane: InChIKey VNWKTOKETHGBQD-UHFFFAOYSA-N
Temperature: 303 K
Tabular data in the source: 0
pressure (bar)	uptake (mmol/g)
3.75202	0.139053
9.80621	0.316568
17.5791	0.467456
25.2058	0.600592
34.1206	0.707101
44.0381	0.798817
54.9557	0.857988
