Adsorption isotherm of Methane on Carbon
DOI: 10.1016/j.apsusc.2012.10.040
Adsorbate Methane: InChIKey VNWKTOKETHGBQD-UHFFFAOYSA-N
Temperature: 303 K
Tabular data in the source: 0
pressure (bar)	uptake (mmol/g)
6.48396	0.171598
10.659	0.257396
17.9965	0.37574
25.9053	0.473373
34.2425	0.556213
44.8747	0.627219
54.5004	0.686391
