Adsorption isotherm of Methane on Carbon
DOI: 10.1016/j.apsusc.2012.10.040
Adsorbate Methane: InChIKey VNWKTOKETHGBQD-UHFFFAOYSA-N
Temperature: 303 K
Tabular data in the source: 0
pressure (bar)	uptake (mmol/g)
2.01439	0.0560472
4.02878	0.0973451
5.89928	0.132743
6.90647	0.153392
8.05755	0.171091
9.06475	0.188791
11.7986	0.230088
12.9496	0.247788
14.8201	0.271386
16.1151	0.289086
18.5612	0.315634
21.4388	0.348083
22.5899	0.362832
26.7626	0.40118
28.0576	0.412979
28.6331	0.418879
31.223	0.439528
33.6691	0.460177
34.8201	0.466077
36.1151	0.480826
37.1223	0.486726
38.4173	0.495575
39.4245	0.501475
40.7194	0.510324
42.0144	0.519174
43.3094	0.528024
44.3165	0.533923
45.4676	0.539823
47.7698	0.554572
49.0647	0.563422
50.5036	0.572271
51.9424	0.578171
53.3813	0.589971
54.8201	0.59292
55.9712	0.60177
57.554	0.60767
58.9928	0.613569
