Adsorption isotherm of Methane on Carbon
DOI: 10.1016/j.apsusc.2012.10.040
Adsorbate Methane: InChIKey VNWKTOKETHGBQD-UHFFFAOYSA-N
Temperature: 303 K
Tabular data in the source: 0
pressure (bar)	uptake (mmol/g)
1.44093	0.0384615
2.88185	0.0769231
4.17754	0.10355
7.0577	0.168639
8.06503	0.186391
9.21633	0.207101
12.5258	0.263314
13.6767	0.281065
14.8276	0.298817
15.9785	0.316568
18.5669	0.349112
19.7177	0.366864
21.0117	0.381657
23.1687	0.408284
25.8997	0.434911
27.6244	0.449704
29.4929	0.467456
31.5051	0.485207
32.7986	0.497041
35.5284	0.514793
37.8281	0.535503
39.1212	0.544379
40.4143	0.553254
41.7075	0.56213
46.0175	0.588757
47.4538	0.594675
48.7469	0.60355
50.1832	0.609467
52.0509	0.621302
53.4872	0.627219
55.642	0.639053
57.0782	0.64497
58.6584	0.653846
59.9507	0.656805
