Adsorption isotherm of Methane on Carbon
DOI: 10.1016/j.apsusc.2012.10.040
Adsorbate Methane: InChIKey VNWKTOKETHGBQD-UHFFFAOYSA-N
Temperature: 303 K
Tabular data in the source: 0
pressure (bar)	uptake (mmol/g)
1.43885	0.0353982
3.59712	0.0707965
5.46763	0.0943953
6.90647	0.112094
8.05755	0.126844
8.77698	0.132743
10.0719	0.144543
12.2302	0.165192
14.2446	0.182891
15.5396	0.19174
18.2734	0.215339
19.5683	0.224189
20.7194	0.233038
22.0144	0.241888
23.8849	0.250737
25.8993	0.265487
27.1942	0.274336
28.9209	0.283186
30.2158	0.289086
32.0863	0.300885
33.5252	0.306785
35.6835	0.318584
36.9784	0.324484
38.705	0.333333
40.1439	0.339233
41.4388	0.345133
42.8777	0.351032
44.0288	0.356932
45.4676	0.362832
47.1942	0.368732
48.6331	0.374631
51.223	0.383481
52.6619	0.386431
54.8201	0.39528
56.1151	0.40118
57.554	0.40413
58.8489	0.410029
