Adsorption isotherm of Methane on Carbon
DOI: 10.1016/j.apsusc.2012.10.040
Adsorbate Methane: InChIKey VNWKTOKETHGBQD-UHFFFAOYSA-N
Temperature: 303 K
Tabular data in the source: 0
pressure (bar)	uptake (mmol/g)
4.75468	0.12426
9.79431	0.233728
17.7052	0.346154
24.6045	0.411243
34.2336	0.494083
43.8631	0.579882
53.9195	0.639053
