Adsorption isotherm of Methane on Carbon
DOI: 10.1016/j.apsusc.2012.10.040
Adsorbate Methane: InChIKey VNWKTOKETHGBQD-UHFFFAOYSA-N
Temperature: 303 K
Tabular data in the source: 0
pressure (bar)	uptake (mmol/g)
5.61151	0.144543
7.05036	0.171091
8.05755	0.19174
9.4964	0.221239
11.9424	0.259587
14.3885	0.297935
16.8345	0.327434
18.4173	0.345133
19.5683	0.362832
19.8561	0.365782
21.1511	0.380531
21.4388	0.383481
22.7338	0.39823
25.7554	0.433628
28.2014	0.454277
29.7842	0.469027
31.0791	0.480826
33.2374	0.495575
35.8273	0.519174
37.1223	0.528024
38.2734	0.536873
39.5683	0.545723
40.8633	0.554572
42.0144	0.566372
45.8993	0.589971
47.3381	0.59587
49.2086	0.60767
50.6475	0.616519
53.2374	0.628319
55.3957	0.640118
56.8345	0.646018
59.8561	0.657817
