Adsorption isotherm of Methane on Carbon
DOI: 10.1016/j.apsusc.2012.10.040
Adsorbate Methane: InChIKey VNWKTOKETHGBQD-UHFFFAOYSA-N
Temperature: 303 K
Tabular data in the source: 0
pressure (bar)	uptake (mmol/g)
0.864641	0.0236686
2.30472	0.056213
4.46462	0.10355
5.903	0.12426
6.91119	0.147929
7.91852	0.16568
9.06939	0.183432
11.803	0.227811
12.9539	0.245562
14.2483	0.263314
16.2621	0.292899
18.4186	0.316568
19.5691	0.331361
20.8631	0.346154
23.5942	0.372781
26.1817	0.399408
27.4753	0.411243
28.1939	0.41716
30.206	0.434911
31.4995	0.446746
32.3616	0.452663
33.6548	0.461538
34.6608	0.470414
36.8161	0.485207
38.1092	0.494083
39.4023	0.502959
40.6955	0.511834
42.1322	0.52071
43.4253	0.529586
45.0051	0.535503
46.1547	0.544379
47.5914	0.553254
49.0276	0.559172
51.0389	0.571006
52.4752	0.576923
55.6356	0.594675
58.0771	0.60355
59.5133	0.609467
