Adsorption isotherm of Methane on Carbon
DOI: 10.1016/j.apsusc.2012.10.040
Adsorbate Methane: InChIKey VNWKTOKETHGBQD-UHFFFAOYSA-N
Temperature: 303 K
Tabular data in the source: 0
pressure (bar)	uptake (mmol/g)
1.8705	0.0589971
3.88489	0.112094
5.32374	0.147493
7.05036	0.185841
8.05755	0.20649
9.06475	0.227139
11.0791	0.265487
12.0863	0.283186
14.2446	0.318584
15.3957	0.336283
16.5468	0.353982
17.554	0.371681
19.8561	0.39823
21.0072	0.415929
22.3022	0.430678
23.4532	0.445428
28.4892	0.498525
29.7842	0.510324
30.6475	0.519174
33.0935	0.539823
36.4029	0.572271
37.6978	0.584071
38.705	0.589971
40	0.59882
41.1511	0.60767
45.8993	0.640118
47.1942	0.648968
48.9209	0.657817
50.2158	0.666667
52.6619	0.678466
55.1079	0.690265
56.4029	0.699115
58.4173	0.707965
59.7122	0.713864
