Adsorption isotherm of Methane on Carbon
DOI: 10.1016/j.apsusc.2012.10.040
Adsorbate Methane: InChIKey VNWKTOKETHGBQD-UHFFFAOYSA-N
Temperature: 303 K
Tabular data in the source: 0
pressure (bar)	uptake (mmol/g)
1.15554	0.0502959
2.45378	0.0946746
4.47312	0.162722
5.33776	0.186391
6.20325	0.215976
7.06789	0.239645
7.93253	0.263314
8.79717	0.286982
11.6782	0.357988
12.6859	0.378698
14.4139	0.41716
16.2855	0.455621
20.0265	0.517751
21.1773	0.535503
22.3282	0.553254
24.6291	0.58284
25.78	0.600592
26.9309	0.618343
29.6628	0.650888
30.9568	0.66568
32.1072	0.680473
35.5569	0.713018
37.8569	0.736686
39.1505	0.748521
40.013	0.757396
41.3066	0.769231
42.7437	0.781065
46.336	0.807692
47.6292	0.816568
48.7788	0.825444
50.934	0.840237
52.2271	0.849112
56.6807	0.87574
57.9739	0.884615
59.8412	0.893491
