Adsorption isotherm of Methane on Carbon
DOI: 10.1016/j.apsusc.2012.10.040
Adsorbate Methane: InChIKey VNWKTOKETHGBQD-UHFFFAOYSA-N
Temperature: 303 K
Tabular data in the source: 0
pressure (bar)	uptake (mmol/g)
4.60477	0.0798817
10.3557	0.14497
17.5404	0.198225
24.8691	0.254438
34.065	0.319527
43.9744	0.35503
53.8855	0.402367
