Adsorption isotherm of Methane on Carbon
DOI: 10.1016/j.apsusc.2012.10.040
Adsorbate Methane: InChIKey VNWKTOKETHGBQD-UHFFFAOYSA-N
Temperature: 303 K
Tabular data in the source: 0
pressure (bar)	uptake (mmol/g)
1.1513	0.0207101
2.30217	0.0384615
2.87718	0.0443787
4.02806	0.0621302
5.46601	0.0798817
6.61646	0.0946746
8.62943	0.118343
11.3614	0.150888
12.7985	0.162722
14.092	0.174556
14.8106	0.180473
16.2481	0.195266
18.6909	0.213018
20.8465	0.230769
22.1401	0.242604
24.0078	0.254438
25.8755	0.266272
27.1687	0.275148
28.1743	0.281065
29.4675	0.289941
31.3348	0.298817
32.6279	0.307692
33.9206	0.313609
34.9258	0.316568
36.219	0.325444
37.9427	0.33432
39.379	0.340237
41.6769	0.349112
45.5551	0.366864
46.9909	0.369822
48.284	0.378698
50.2944	0.384615
51.7303	0.387574
53.023	0.393491
54.1726	0.402367
55.608	0.402367
57.0438	0.405325
58.3365	0.411243
59.7719	0.411243
