Adsorption isotherm of Methane on Carbon
DOI: 10.1016/j.apsusc.2012.10.040
Adsorbate Methane: InChIKey VNWKTOKETHGBQD-UHFFFAOYSA-N
Temperature: 303 K
Tabular data in the source: 0
pressure (bar)	uptake (mmol/g)
5.18445	0.118343
10.0767	0.201183
17.5553	0.301775
24.6015	0.390533
33.941	0.455621
44.7189	0.54142
53.7674	0.579882
