Adsorption isotherm of Methane on Carbon
DOI: 10.1016/j.apsusc.2012.10.040
Adsorbate Methane: InChIKey VNWKTOKETHGBQD-UHFFFAOYSA-N
Temperature: 303 K
Tabular data in the source: 0
pressure (bar)	uptake (mmol/g)
1.00719	0.0412979
2.73381	0.106195
5.17986	0.182891
6.04317	0.20649
6.76259	0.235988
7.6259	0.253687
8.92086	0.294985
11.6547	0.356932
12.6619	0.377581
14.2446	0.410029
15.2518	0.433628
16.259	0.454277
17.2662	0.469027
18.1295	0.483776
18.8489	0.498525
19.8561	0.516224
21.0072	0.536873
23.5971	0.581121
26.7626	0.619469
27.9137	0.634218
29.2086	0.648968
29.6403	0.654867
31.5108	0.675516
32.9496	0.693215
35.5396	0.716814
37.8417	0.740413
39.7122	0.758112
41.0072	0.769912
46.0432	0.80826
47.3381	0.817109
48.4892	0.825959
49.7842	0.834808
51.223	0.843658
52.518	0.852507
56.6906	0.876106
58.1295	0.882006
59.8561	0.890855
