Adsorption isotherm of Carbon Dioxide on IRMOF-1
DOI: 10.1016/j.cej.2009.10.067
Adsorbate Carbon Dioxide: InChIKey CURLTUGMZLYLDI-UHFFFAOYSA-N
Temperature: 303 K
Tabular data in the source: 0
pressure (bar)	uptake (wt%)
0.00944547	0.0150234
0.0566402	0.135155
0.119566	0.306773
0.175342	0.386861
0.225397	0.48411
0.331228	0.650007
0.437058	0.787301
0.541459	0.936036
0.644429	1.05617
0.703065	1.05617
0.75169	1.1477
0.807465	1.19918
0.903285	1.28499
0.9562	1.34792
