Adsorption isotherm of Carbon Dioxide on IRMOF-1
DOI: 10.1016/j.cej.2009.10.067
Adsorbate Carbon Dioxide: InChIKey CURLTUGMZLYLDI-UHFFFAOYSA-N
Temperature: 303 K
Tabular data in the source: 0
pressure (bar)	uptake (wt%)
0.0566402	0.203802
0.122427	0.415463
0.228257	0.695772
0.286893	0.827345
0.332658	0.947477
0.441349	1.18774
0.544319	1.38796
0.600095	1.50809
0.703065	1.68543
0.803175	1.82844
0.910436	1.97718
0.973362	2.08587
