Adsorption isotherm of Carbon Dioxide on IRMOF-1
DOI: 10.1016/j.cej.2009.10.067
Adsorbate Carbon Dioxide: InChIKey CURLTUGMZLYLDI-UHFFFAOYSA-N
Temperature: 303 K
Tabular data in the source: 0
pressure (bar)	uptake (wt%)
0.0537799	0.18092
0.126717	0.38114
0.182493	0.524154
0.285463	0.730095
0.338378	0.844506
0.387003	0.930315
0.444209	1.03329
0.545749	1.21634
0.648719	1.38224
0.705925	1.38796
0.75312	1.50237
0.811756	1.57674
0.910436	1.69115
0.967641	1.7598
