Adsorption isotherm of Carbon Dioxide on IRMOF-1
DOI: 10.1016/j.cej.2009.10.067
Adsorbate Carbon Dioxide: InChIKey CURLTUGMZLYLDI-UHFFFAOYSA-N
Temperature: 303 K
Tabular data in the source: 0
pressure (bar)	uptake (cm3(STP)/g)
0.00797872	0.308824
0.0585106	1.85294
0.119681	3.60294
0.172872	4.83824
0.228723	6.07353
0.281915	7.20588
0.332447	8.13235
0.388298	9.05882
0.441489	10.1912
0.49734	10.9118
0.545213	11.8382
0.598404	12.5588
0.654255	13.3824
0.704787	14.1029
0.755319	14.7206
0.805851	15.3382
0.864362	16.2647
0.912234	16.7794
0.965426	17.1912
1.00266	17.9118
