Adsorption isotherm of Carbon Dioxide on IRMOF-1
DOI: 10.1016/j.cej.2009.10.067
Adsorbate Carbon Dioxide: InChIKey CURLTUGMZLYLDI-UHFFFAOYSA-N
Temperature: 313 K
Tabular data in the source: 0
pressure (bar)	uptake (cm3(STP)/g)
0.00530504	0.102639
0.0583554	1.33431
0.122016	2.66862
0.175066	3.69501
0.228117	4.51613
0.28382	5.33724
0.334218	6.05572
0.38992	6.77419
0.437666	7.49267
0.488064	8.1085
0.543767	8.82698
0.596817	9.54545
0.649867	10.1613
0.700265	10.6745
0.753316	11.2903
0.809019	11.9062
0.856764	12.4194
0.915119	12.8299
0.962865	13.2405
1	13.8563
