Adsorption isotherm of Carbon Dioxide on IRMOF-1
DOI: 10.1016/j.cej.2009.10.067
Adsorbate Carbon Dioxide: InChIKey CURLTUGMZLYLDI-UHFFFAOYSA-N
Temperature: 273 K
Tabular data in the source: 0
pressure (bar)	uptake (cm3(STP)/g)
0.00265957	0.308824
0.037234	3.60294
0.0984043	7.72059
0.167553	11.5294
0.24734	14.9265
0.329787	17.8088
0.43617	21.1029
0.547872	23.8824
0.648936	25.9412
0.75266	27.8971
0.808511	28.7206
0.864362	29.5441
0.914894	30.2647
0.968085	30.8824
1.00532	31.5
