Adsorption isotherm of Carbon Dioxide on IRMOF-1
DOI: 10.1016/j.cej.2009.10.067
Adsorbate Carbon Dioxide: InChIKey CURLTUGMZLYLDI-UHFFFAOYSA-N
Temperature: 303 K
Tabular data in the source: 0
pressure (bar)	uptake (wt%)
0.0580703	0.301052
0.126717	0.68433
0.178202	0.918874
0.282603	1.41084
0.339808	1.61678
0.389864	1.78268
0.495694	2.13164
0.597234	2.46343
0.700205	2.74374
0.75598	2.89819
0.803175	3.00116
0.85752	3.16706
0.95906	3.40732
0.997674	3.52745
