Adsorption isotherm of Carbon Dioxide on IRMOF-1
DOI: 10.1016/j.cej.2009.10.067
Adsorbate Carbon Dioxide: InChIKey CURLTUGMZLYLDI-UHFFFAOYSA-N
Temperature: 303 K
Tabular data in the source: 0
pressure (bar)	uptake (wt%)
0.00658518	0.0264646
0.0595005	0.323934
0.126717	0.661448
0.178202	0.913153
0.282603	1.40512
0.388433	1.83989
0.438488	2.03439
0.542889	2.41194
0.648719	2.76662
0.75884	3.09269
0.806035	3.25287
0.85895	3.42448
0.911866	3.57322
0.95763	3.67619
1.00053	3.83065
