Adsorption isotherm of Methanol on C115.5H202N14O43Zn4
DOI: 10.1039/C0cc02496a
Adsorbate Methanol: InChIKey OKKJLVBELUTLKV-UHFFFAOYSA-N
Temperature: 298 K
Tabular data in the source: 0
pressure (bar)	uptake (mmol/g)
0.000353613	0.208651
0.00556995	0.471951
0.0178805	0.94353
0.0305798	1.27231
0.04179	1.51332
0.0537514	1.73231
0.0657138	1.94033
0.0780518	2.13734
0.0896431	2.31242
0.101606	2.50945
0.11432	2.69546
0.126659	2.88149
0.138622	3.0895
0.15021	3.29753
0.162167	3.56046
0.175631	3.72447
0.180112	3.85601
