Adsorption isotherm of Methane on C115.5H202N14O43Zn4
DOI: 10.1039/C0cc02496a
Adsorbate Methane: InChIKey VNWKTOKETHGBQD-UHFFFAOYSA-N
Temperature: 298 K
Tabular data in the source: 0
pressure (bar)	uptake (mmol/g)
0.0524238	0.0427218
0.101119	0.0197177
0.149808	0.0186497
0.202237	0.0394355
0.250927	0.0383675
0.301494	0.0153223
0.352051	0.0361492
0.40074	0.0350811
0.451302	0.033972
0.503737	0.0328218
0.550548	0.0537308
0.60111	0.0526217
0.653545	0.0514715
0.700362	0.0504446
0.752797	0.0492944
0.799613	0.0482674
0.852043	0.0690534
0.900732	0.067985
