Adsorption isotherm of Water on C115.5H202N14O43Zn4
DOI: 10.1039/C0cc02496a
Adsorbate Water: InChIKey XLYOFNOQVPJJNP-UHFFFAOYSA-N
Temperature: 298 K
Tabular data in the source: 0
pressure (bar)	uptake (mmol/g)
0.000199593	0.0389579
0.00412168	1.13069
0.0068503	1.57847
0.0090466	1.92888
0.0110435	2.22078
0.0131069	2.53219
0.0153703	2.84349
0.0176334	3.17432
0.0196968	3.48573
0.0218931	3.83613
0.0239559	4.20614
0.0261517	4.61514
0.0282796	5.14139
