Adsorption isotherm of Carbon Dioxide on C115.5H202N14O43Zn4
DOI: 10.1039/C0cc02496a
Adsorbate Carbon Dioxide: InChIKey CURLTUGMZLYLDI-UHFFFAOYSA-N
Temperature: 273 K
Tabular data in the source: 0
pressure (bar)	uptake (cm3(STP)/g)
0.00374654	0.152926
0.0102998	0.366907
0.0168567	0.64219
0.0248242	1.0706
0.0318518	1.40715
0.0407465	1.71288
0.0473052	2.01881
0.0529294	2.32483
0.0604243	2.66133
0.066983	2.96727
0.0721383	3.24267
0.0824435	3.70153
0.0936884	4.25226
0.103521	4.61921
0.111011	4.86376
0.118973	5.20022
0.126	5.53677
0.133024	5.81201
0.138647	6.08737
0.148483	6.51562
0.158321	6.97453
0.169559	7.40265
0.180802	7.92273
0.195319	8.50383
0.207026	8.96256
0.219198	9.39061
0.227162	9.75772
0.237929	10.1246
0.248224	10.3995
0.260403	10.9502
0.274922	11.5619
0.289428	11.9591
0.304411	12.5095
0.325009	13.2127
0.33999	13.7324
0.348413	13.9769
