Adsorption isotherm of Cyclohexane on C115.5H202N14O43Zn4
DOI: 10.1039/C0cc02496a
Adsorbate Cyclohexane: InChIKey XDTMQSROBMDMFD-UHFFFAOYSA-N
Temperature: 298 K
Tabular data in the source: 0
pressure (bar)	uptake (mmol/g)
0.00630877	0.00819844
0.0123197	0.0038604
0.0186294	0.0078774
0.0435719	0.00304604
0.0874449	0.00190279
0.137629	0.000595112
0.14454	0.000415012
0.150851	0.000250573
