Adsorption isotherm of Benzene on C115.5H202N14O43Zn4
DOI: 10.1039/C0cc02496a
Adsorbate Benzene: InChIKey UHOVQNZJYSORNB-UHFFFAOYSA-N
Temperature: 298 K
Tabular data in the source: 0
pressure (bar)	uptake (mmol/g)
0.00472669	0.0403863
0.0102037	0.0627266
0.0154323	0.0805703
0.0209107	0.0939002
0.0256411	0.111761
0.0306213	0.125107
0.0363487	0.138429
0.0415781	0.151767
0.0468067	0.169611
0.0520367	0.178444
0.0567686	0.187294
0.0622478	0.196119
0.0674778	0.204952
0.072957	0.213777
0.0779379	0.222618
0.0831679	0.231452
0.0878989	0.244807
0.0936273	0.253624
0.0986067	0.271475
0.104083	0.298321
