Adsorption isotherm of Toluene on C115.5H202N14O43Zn4
DOI: 10.1039/C0cc02496a
Adsorbate Toluene: InChIKey YXFVVABEGXRONW-UHFFFAOYSA-N
Temperature: 298 K
Tabular data in the source: 0
pressure (bar)	uptake (mmol/g)
0.000348568	0.0114294
0.00558603	0.0491937
0.00942745	0.0679757
0.0131818	0.0829455
0.0168491	0.0941031
0.0205164	0.105261
0.0241834	0.120238
0.027676	0.13141
0.031343	0.146386
0.0348348	0.169016
0.0385853	0.241276
0.0421591	0.344105
