Adsorption isotherm of Ethanol on C115.5H202N14O43Zn4
DOI: 10.1039/C0cc02496a
Adsorbate Ethanol: InChIKey LFQSCWFLJHTTHZ-UHFFFAOYSA-N
Temperature: 298 K
Tabular data in the source: 0
pressure (bar)	uptake (mmol/g)
0.000369716	0.061082
0.00634605	0.190484
0.0127003	0.266387
0.0190557	0.327009
0.0254127	0.364719
0.0317692	0.410064
0.0383127	0.455397
0.0444821	0.500758
0.0510256	0.54609
0.0575692	0.591423
0.0639262	0.62913
0.0700956	0.674491
0.0766386	0.727462
0.0829928	0.803364
0.0891574	0.917473
0.0956898	1.11558
