Adsorption isotherm of Nitrogen on C115.5H202N14O43Zn4
DOI: 10.1039/C0cc02496a
Adsorbate Nitrogen: InChIKey IJGRMHOSHXDMSA-UHFFFAOYSA-N
Temperature: 78 K
Tabular data in the source: 0
pressure (bar)	uptake (cm3(STP)/g)
0.00142824	1.31608
0.00428471	3.36323
0.0114259	5.26355
0.0557012	6.72015
0.0942635	7.73875
0.134254	9.48843
0.16996	11.2387
0.209951	12.9884
0.247085	14.2996
0.249941	14.738
0.284219	16.4885
0.288504	16.3416
0.325638	17.9454
0.438468	22.6104
0.475602	24.068
0.515593	25.5251
0.555584	27.1286
0.592718	28.7324
0.63128	30.1897
0.671271	31.9394
0.705548	33.1048
0.744111	34.7084
0.784101	36.3119
0.818379	37.7698
0.859798	39.373
0.89836	41.1229
0.932638	42.8733
0.974056	44.9153
1.00976	47.1043
1.0469	53.6807
