Adsorption isotherm of Methane on Zn2C14N2O8H4
DOI: 10.1021/Ja060946u
Adsorbate Methane: InChIKey VNWKTOKETHGBQD-UHFFFAOYSA-N
Temperature: 298 K
Tabular data in the source: 0
pressure (bar)	uptake (wt%)
0.0711744	0.0342071
0.106762	0.085457
0.302491	0.256356
0.604982	0.606614
1.04982	1.03382
2.04626	1.73467
3.0605	2.16237
4.05694	2.45346
5.05338	2.66773
6.06762	2.83933
7.04626	2.97675
8.0605	3.09712
9.00356	3.19183
