Adsorption isotherm of Hydrogen on Zn2C14N2O8H4
DOI: 10.1021/Ja060946u
Adsorbate Hydrogen: InChIKey UFHFLCQGNIYNRP-UHFFFAOYSA-N
Temperature: 77 K
Tabular data in the source: 0
pressure (bar)	uptake (wt%)
0.0269965	0.50756
0.0280298	0.343256
0.0416111	0.583833
0.0564841	0.619029
0.0787566	0.677693
0.10114	0.718752
0.131144	0.74807
0.176206	0.783245
0.296758	0.81543
0.492727	0.856362
0.756676	0.888443
0.990474	0.914677
1.39782	0.946652
1.79762	0.978633
2.19745	1.00475
2.60482	1.03379
2.92167	1.05409
3.39698	1.08015
3.99306	1.10318
