Adsorption isotherm of Hydrogen on Zn2C14N2O8H4
DOI: 10.1021/Ja060946u
Adsorbate Hydrogen: InChIKey UFHFLCQGNIYNRP-UHFFFAOYSA-N
Temperature: 298 K
Tabular data in the source: 0
pressure (bar)	uptake (wt%)
0.211303	0.002779
0.611231	0.0142216
0.815006	0.0140721
1.19988	0.0196578
1.41871	0.0253653
1.80358	0.0309509
2.00735	0.0308015
2.40732	0.0363761
2.61109	0.0362266
2.99596	0.0418123
3.60725	0.0472318
3.78836	0.050033
