Adsorption isotherm of Water on Zn2C14N2O8H4
DOI: 10.1021/Ja060946u
Adsorbate Water: InChIKey XLYOFNOQVPJJNP-UHFFFAOYSA-N
Temperature: 298 K
Tabular data in the source: 0
pressure (bar)	uptake (wt%)
0.000766268	0.164103
0.00129676	0.369231
0.00200409	0.533333
0.0028293	1.10769
0.00347768	1.92821
0.00400817	3.3641
0.00447972	4.51282
0.0051281	6.27692
0.00618909	8.08205
0.0075448	9.4359
0.00884156	10.2974
0.0100204	10.9128
0.0111993	11.4051
0.0117298	12.3897
0.0134981	14.1949
0.0155611	14.4821
0.0166811	14.6051
0.0177421	14.6872
0.0189209	14.7282
0.0199819	14.8103
0.020984	14.8513
0.023047	14.9333
0.0241669	14.9744
0.02511	15.0154
0.02623	15.0974
0.0272909	15.0564
0.0284109	15.1385
0.0294719	15.1795
