Adsorption isotherm of N-Pentane on Zn2C14N2O8H4
DOI: 10.1021/Ja060946u
Adsorbate N-Pentane: InChIKey OFBQJSOFQDEBGM-UHFFFAOYSA-N
Temperature: 298 K
Tabular data in the source: 0
pressure (bar)	uptake (wt%)
0.0344288	0.574359
0.0471802	0.902564
0.0675825	1.18974
0.081609	1.4359
0.0918101	1.68205
0.114763	1.92821
0.132615	2.29744
0.18362	2.91282
0.214224	3.28205
0.246102	3.52821
0.276706	3.85641
0.307309	4.14359
0.337912	4.38974
0.365965	4.6359
0.397844	4.84103
0.428447	5.00513
0.459051	5.37436
0.489654	6.07179
0.520257	6.4
0.552136	6.64615
0.581464	6.89231
0.613343	6.97436
