Adsorption isotherm of Nitrogen on Zn2C14N2O8H4
DOI: 10.1021/Ja060946u
Adsorbate Nitrogen: InChIKey IJGRMHOSHXDMSA-UHFFFAOYSA-N
Temperature: 77 K
Tabular data in the source: 0
pressure (bar)	uptake (cm3(STP)/g)
0.00365921	0.00365921
0.00731842	95.614
0.0256145	95.9064
0.0457401	96.4912
0.0859914	96.1988
0.102458	96.1988
0.142709	97.076
0.219553	97.076
0.257974	97.076
0.298226	97.6608
0.320181	97.3684
0.338477	97.3684
0.376899	97.9532
0.41532	97.9532
0.437275	97.6608
0.453742	97.9532
0.472038	98.2456
0.493993	98.538
0.512289	98.538
0.536074	98.2456
0.55437	98.538
0.574496	98.2456
0.596451	98.2456
0.611088	98.2456
0.634873	98.538
0.651339	98.538
0.673294	98.8304
0.689761	99.1228
0.715375	99.1228
0.730012	99.4152
0.753797	99.4152
0.773923	99.4152
0.790389	99.4152
0.808685	99.7076
0.828811	99.7076
0.848936	99.7076
0.867233	100
0.889188	100
0.903825	100.292
0.92578	100
0.949565	100.877
0.964202	101.462
