Adsorption isotherm of Diethyl ether on Zn2C14N2O8H4
DOI: 10.1021/Ja060946u
Adsorbate Diethyl ether: InChIKey RTZKZFJDLAIYFH-UHFFFAOYSA-N
Temperature: 298 K
Tabular data in the source: 0
pressure (bar)	uptake (wt%)
0.000287826	2.95172
0.000428676	4.39617
0.00316608	6.46888
0.00322732	7.09691
0.00967584	8.22791
0.0135829	9.29589
0.0275945	9.98796
0.0402895	10.1775
0.0466461	10.3665
0.0580734	10.5559
0.072036	10.7455
0.0859986	10.9352
0.112644	11.1888
0.141825	11.4426
0.172267	11.6337
0.20018	11.8874
0.261039	12.0184
0.316847	12.3374
0.377688	12.28
0.488011	12.6666
0.548865	12.7348
0.605922	12.8655
0.675649	12.9345
