Adsorption isotherm of Water on Zn2C14N2O8H4
DOI: 10.1021/Ja060946u
Adsorbate Water: InChIKey XLYOFNOQVPJJNP-UHFFFAOYSA-N
Temperature: 318 K
Tabular data in the source: 0
pressure (bar)	uptake (wt%)
0.00214849	0.284793
0.00608733	0.813717
0.0102027	1.58746
0.0123475	2.19879
0.0143103	3.05509
0.0166271	4.3194
0.0185863	5.50224
0.0207265	6.52173
0.0226889	7.41884
0.024654	8.07106
0.0267992	8.64157
0.028766	9.13053
0.0307344	9.49703
0.0327026	9.86353
0.0350309	10.1074
0.0371793	10.3922
0.0387909	10.5956
0.0411186	10.8803
0.0432681	11.0835
0.0450593	11.246
0.0473875	11.4899
0.0491794	11.6116
0.0513295	11.7331
0.0536593	11.8545
0.0574216	12.1386
0.0597512	12.2601
0.0619019	12.3408
0.0636881	12.9523
0.0656541	13.5229
0.0699525	13.97
0.0721038	14.0099
0.0762255	14.2122
0.0842926	14.372
0.0884157	14.4519
