Adsorption isotherm of Methanol on Zn2C14N2O8H4
DOI: 10.1021/Ja060946u
Adsorbate Methanol: InChIKey OKKJLVBELUTLKV-UHFFFAOYSA-N
Temperature: 298 K
Tabular data in the source: 0
pressure (bar)	uptake (wt%)
7.45e-05	3.20293
0.000100833	4.33337
0.000425251	5.27552
0.00226508	6.34384
0.00530175	6.84739
0.0095455	7.22578
0.0152988	7.47913
0.0210521	7.73248
0.0255969	8.04819
0.0289273	8.17503
0.0425499	8.61972
0.0531432	8.87488
0.0640375	9.06735
0.0749319	9.25981
0.0961155	9.64452
0.113967	9.83958
0.127584	10.0331
0.140897	10.1636
0.160562	10.2966
