Adsorption isotherm of Water on Zn2C14N2O8H4
DOI: 10.1021/Ja060946u
Adsorbate Water: InChIKey XLYOFNOQVPJJNP-UHFFFAOYSA-N
Temperature: 288 K
Tabular data in the source: 0
pressure (bar)	uptake (wt%)
0.0015239	1.62897
0.00193231	4.24023
0.00240362	7.21868
0.00290967	8.72766
0.00341685	9.66521
0.00389246	10.4804
0.00436856	11.0507
0.00465279	12.1112
0.00487355	13.0903
0.00499992	13.5389
0.00550816	13.9459
0.00595325	14.1081
0.00639826	14.3111
0.00693888	14.4322
0.00741587	14.5535
0.00782948	14.5525
0.00833836	14.6329
0.00881552	14.6726
0.00932449	14.7122
0.00983354	14.7109
0.0104379	14.7911
0.0112651	14.7891
0.0118059	14.8286
0.012633	14.8674
0.0137464	14.9056
0.0156234	14.9827
0.0160053	14.9409
