Adsorption isotherm of Water on Zn2C14N2O8H4
DOI: 10.1021/Ja060946u
Adsorbate Water: InChIKey XLYOFNOQVPJJNP-UHFFFAOYSA-N
Temperature: 308 K
Tabular data in the source: 0
pressure (bar)	uptake (wt%)
0.00325454	0.691498
0.0050375	1.34326
0.00587588	1.75081
0.00671238	2.44407
0.00786132	3.58609
0.00869434	4.80997
0.00963275	5.99296
0.0107828	6.97171
0.0135041	8.80645
0.0150771	9.41755
0.0178049	10.2727
0.0213738	11.1272
0.023264	11.4524
0.0251548	11.6959
0.0272505	12.7556
0.029031	13.7747
0.0310272	13.9773
0.0329185	14.1392
0.0349155	14.2194
0.0368068	14.3813
0.038804	14.4206
0.0406961	14.46
0.042798	14.581
0.0445852	14.5796
0.0466876	14.6189
0.0488951	14.6581
0.0513124	14.7788
