Adsorption isotherm of Trichloromethane on Zn2C14N2O8H4
DOI: 10.1021/Ja060946u
Adsorbate Trichloromethane: InChIKey HEDRZPFGACZZDS-UHFFFAOYSA-N
Temperature: 298 K
Tabular data in the source: 0
pressure (bar)	uptake (wt%)
0.00105072	16.2032
0.00215568	20.9136
0.00309116	20.9138
0.00548185	22.3588
0.00736637	22.7361
0.0106496	22.9881
0.0144006	23.2402
0.0176815	23.4294
0.0214303	23.6187
0.0265754	23.6199
0.0312574	23.7467
0.037338	23.7481
0.052778	23.8775
0.0841145	23.8222
0.137907	23.898
0.177197	23.9074
0.216024	24.0424
0.238946	24.1107
0.253914	24.1143
