Adsorption isotherm of Benzene on Zn2C14N2O8H4
DOI: 10.1021/Ja060946u
Adsorbate Benzene: InChIKey UHOVQNZJYSORNB-UHFFFAOYSA-N
Temperature: 298 K
Tabular data in the source: 0
pressure (bar)	uptake (wt%)
7.65e-06	0.439617
3.06e-05	1.75847
0.000287435	3.51705
0.00121422	4.77355
0.00281096	5.52797
0.00485688	6.09421
0.00690171	6.59764
0.00826566	6.97513
0.00985146	7.10153
0.0112154	7.47902
0.0130242	7.41712
0.0143827	7.4806
0.016422	7.67002
0.0180067	7.73361
0.0193663	7.85989
0.0211784	7.9864
0.0243489	8.17639
0.0263861	8.2402
0.0277456	8.36649
0.0295566	8.43019
0.0311424	8.55658
0.0329522	8.55749
0.0358943	8.62175
0.0408704	8.56143
0.0508256	8.6292
0.0653067	8.76202
0.0822751	8.83328
0.0983387	8.90408
0.120282	8.85222
