Adsorption isotherm of Toluene on Zn2C14N2O8H4
DOI: 10.1021/Ja060946u
Adsorbate Toluene: InChIKey YXFVVABEGXRONW-UHFFFAOYSA-N
Temperature: 298 K
Tabular data in the source: 0
pressure (bar)	uptake (wt%)
0.000138962	0.691053
0.000209588	1.25639
0.000213185	1.94722
0.000351493	2.51266
0.000490782	3.26652
0.000634649	4.89961
0.00077917	6.6583
0.00112674	8.41734
0.00140336	9.54823
0.00195038	10.6168
0.00235844	10.9943
0.0028332	11.1835
0.00378141	11.3106
0.004933	11.501
0.00588154	11.691
0.00682975	11.8181
0.00784532	11.8826
0.0089289	12.01
0.00980943	12.1371
0.0117722	12.1404
0.0157658	12.2098
0.0177296	12.4015
0.0197598	12.3421
0.0226708	12.4725
0.0255812	12.4774
0.0296425	12.547
