Adsorption isotherm of N-Hexane on Zn2C14N2O8H4
DOI: 10.1021/Ja060946u
Adsorbate N-Hexane: InChIKey VLKZOEOYAKHREP-UHFFFAOYSA-N
Temperature: 298 K
Tabular data in the source: 0
pressure (bar)	uptake (wt%)
0.00790396	0.779487
0.0127969	1.14872
0.0161843	1.47692
0.0274757	2.42051
0.0353796	3.0359
0.0508112	4.06154
0.0812979	6.60513
0.102751	7.71282
0.14453	8.1641
