Adsorption isotherm of Hydrogen on Zn2C14N2O8H4
DOI: 10.1021/Ja060946u
Adsorbate Hydrogen: InChIKey UFHFLCQGNIYNRP-UHFFFAOYSA-N
Temperature: 196 K
Tabular data in the source: 0
pressure (bar)	uptake (wt%)
0.0527751	0.00876325
0.31689	0.0144375
0.505534	0.0201671
0.754554	0.0258524
1.01109	0.0374002
1.411	0.0517768
1.80338	0.0632249
2.2033	0.0746675
2.60323	0.0861101
3.00318	0.0946187
3.41065	0.106056
4.00679	0.120288
