Adsorption isotherm of Nitrogen on K-CD-MOF
DOI: 10.1016/j.molstruc.2015.08.020
Article source: Figure s1b
Adsorbate Nitrogen: InChIKey IJGRMHOSHXDMSA-UHFFFAOYSA-N
Kind: experiment
Temperature: 77 K
Tabular data in the source: 0
pressure (bar)	uptake (cm3(STP)/g)
0.004239	1.06963
0.017955	1.68406
0.020698	1.83771
0.045387	2.75906
0.072818	3.68022
0.075561	3.68003
0.097506	4.44773
0.122195	5.06138
0.124938	5.36889
0.146883	5.82889
0.168828	7.05812
0.171571	6.44255
0.193516	7.21024
0.196259	7.97928
0.220948	8.74679
0.223691	8.13121
0.248379	9.66795
0.270324	10.5895
0.273067	9.82007
0.295012	10.5878
0.322444	11.3551
0.347132	12.1226
0.37182	13.5055
0.396509	14.4268
0.421197	14.4251
0.42394	15.5018
0.443142	16.2697
0.448628	15.3462
0.473317	17.0368
0.495262	18.1122
0.522693	17.6488
0.544638	19.6472
0.547382	18.1086
0.57207	20.5684
0.596758	19.4897
0.618703	20.2574
0.621446	22.4111
0.643392	23.1788
0.648878	21.6399
0.670823	23.3307
0.673566	22.5613
0.695511	23.1751
0.698254	24.2519
0.722943	23.7886
0.747631	25.9407
0.772319	25.0159
0.797007	27.6296
0.824439	27.4738
0.843641	28.2417
0.849127	29.9336
0.871072	29.009
0.873815	31.0088
0.898504	29.7763
0.923192	31.0054
0.94788	33.7729
0.972569	37.4635
