Adsorption isotherm of Nitrogen on Na-CD-MOF
DOI: 10.1016/j.molstruc.2015.08.020
Article source: Figure S1a
Adsorbate Nitrogen: InChIKey IJGRMHOSHXDMSA-UHFFFAOYSA-N
Kind: experiment
Temperature: 77 K
Tabular data in the source: 0
pressure (bar)	uptake (cm3(STP)/g)
0.01913	1.11111
0.04764	1.80556
0.073547	2.22222
0.073562	2.5
0.099447	2.5
0.099476	3.05556
0.12278	3.19444
0.122801	3.61111
0.148687	3.61111
0.148723	4.30556
0.174615	4.44444
0.174637	4.86111
0.197934	4.86111
0.200558	5.55556
0.223855	5.55556
0.223891	6.25
0.247166	5.83333
0.247209	6.66667
0.27308	6.38889
0.273116	7.08333
0.299023	7.5
0.301576	6.80556
0.324909	7.5
0.324945	8.19444
0.348227	7.91667
0.34827	8.75
0.374141	8.47222
0.37678	9.44444
0.400056	9.02778
0.400099	9.86111
0.423381	9.58333
0.423417	10.2778
0.449288	10
0.449331	10.8333
0.472657	11.3889
0.475202	10.5556
0.498521	10.9722
0.498578	12.0833
0.524435	11.5278
0.524492	12.6389
0.54523	13.1944
0.547768	12.2222
0.573711	13.3333
0.597	13.1944
0.599625	13.8889
0.622914	13.75
0.622958	14.5833
0.646233	14.1667
0.646269	14.8611
0.666956	14.4444
0.674772	15.4167
0.700635	15
0.700686	15.9722
0.724011	16.5278
0.747294	16.25
0.74733	16.9444
0.773201	16.6667
0.773237	17.3611
0.799122	17.3611
0.799158	18.0556
0.825043	18.0556
0.825072	18.6111
0.845781	18.6111
0.845802	19.0278
0.874283	19.1667
0.874305	19.5833
0.897602	19.5833
0.900219	20.1389
0.926112	20.2778
0.926148	20.9722
0.949459	21.25
0.949488	21.8056
0.975394	22.2222
0.975423	22.7778
0.996232	24.7222
