Adsorption isotherm of Hydrogen on Hydrazine Gel C150
DOI: 10.1021/Ja104926h
Adsorbate Hydrogen: InChIKey UFHFLCQGNIYNRP-UHFFFAOYSA-N
Temperature: 298 K
Tabular data in the source: 0
pressure (bar)	uptake (wt%)
1.36494	0.0616836
7.28574	0.0688343
13.5927	0.0902864
19.7709	0.12604
24.2758	0.168944
30.3253	0.247602
36.1174	0.369164
41.9095	0.497877
48.2164	0.597987
55.5531	0.712399
61.2164	0.819659
69.8402	0.948372
77.3055	1.06278
84.7709	1.17004
