Adsorption isotherm of Hydrogen on Hydrazine Gel C100
DOI: 10.1021/Ja104926h
Adsorbate Hydrogen: InChIKey UFHFLCQGNIYNRP-UHFFFAOYSA-N
Temperature: 298 K
Tabular data in the source: 0
pressure (bar)	uptake (wt%)
1.75108	0.0902864
8.959	0.0902864
16.8105	0.0974371
24.1471	0.140341
31.0976	0.211849
39.2065	0.304808
45.7709	0.412069
54.3946	0.533631
62.2461	0.619439
70.4838	0.805358
80.7808	0.969824
85.6719	1.06993
