Adsorption isotherm of Hydrogen on Hydrazine Gel C150
DOI: 10.1021/Ja104926h
Adsorbate Hydrogen: InChIKey UFHFLCQGNIYNRP-UHFFFAOYSA-N
Temperature: 77 K
Tabular data in the source: 0
pressure (bar)	uptake (wt%)
0.978805	0.333411
5.48376	0.597987
9.73128	0.82681
20.157	1.2058
29.8105	1.64914
39.8501	2.19975
50.0184	2.61449
59.8006	2.96487
69.7115	3.53693
80.1372	3.88017
86.3154	4.03033
