Adsorption isotherm of Hydrogen on Hydrazine Gel C100
DOI: 10.1021/Ja104926h
Adsorbate Hydrogen: InChIKey UFHFLCQGNIYNRP-UHFFFAOYSA-N
Temperature: 77 K
Tabular data in the source: 0
pressure (bar)	uptake (wt%)
0.850092	0.276205
5.09762	0.490726
9.47385	0.569384
20.4144	1.02703
30.0679	1.28446
50.1471	1.82076
60.4442	2.27841
70.0976	2.55013
80.3946	2.84331
83.9986	2.90052
