Adsorption isotherm of Carbon Dioxide on SP350 Pyrolysis Char
DOI: 10.1016/j.scitotenv.2022.157395
Article source: Figure 5
Adsorbate Carbon Dioxide: InChIKey CURLTUGMZLYLDI-UHFFFAOYSA-N
Kind: experiment
Isotherm type: excess
Temperature: 298 K
Tabular data in the source: 1
pressure (bar)	uptake (mg/g)
0.018239	0.7467
0.034451	1.2426
0.042556	1.4382
0.050663	1.6872
0.067888	1.7851
0.0841	2.5112
0.169213	3.5369
0.253312	4.7901
0.334373	5.4396
0.506625	7.4041
0.675838	7.9453
0.844037	9.4812
