Adsorption isotherm of Nitrogen on MBM750 Pyrolysis Char
DOI: 10.1016/j.scitotenv.2022.157395
Article source: Supplementary Data provided to NIST
Adsorbate Nitrogen: InChIKey IJGRMHOSHXDMSA-UHFFFAOYSA-N
Kind: experiment
Isotherm type: excess
Temperature: 77 K
Tabular data in the source: 1
pressure (bar)	uptake ()
0.010151	6.34257
0.017899	6.88452
0.026513	7.28247
0.03209	7.49373
0.037357	7.67185
0.04222	7.88259
0.062066	8.43793
0.112569	9.48339
0.164099	10.4307
0.215659	11.3118
0.26693	12.1839
0.318266	13.0403
0.369536	13.9222
0.420868	14.8064
0.472036	15.7282
0.519285	17.4631
0.573304	18.7757
0.624354	20.1638
0.675083	21.6985
0.725352	23.5093
0.77474	25.7787
0.828645	30.743
0.879237	35.3791
0.926437	41.6222
0.963353	49.1429
0.985386	55.2906
1.02425	69.8153
0.974084	57.7232
0.924392	49.0324
0.87043	42.43
0.815225	37.1134
0.769219	33.8874
0.716635	30.8966
0.663379	28.3717
0.611328	26.1553
0.554811	24.9697
0.506946	23.1283
0.455473	18.3297
0.402788	16.7785
0.350322	15.5185
0.298739	14.3435
0.245529	13.5408
0.195617	12.409
0.144266	11.2408
0.09304	10.0155
0.042466	8.64593
