Adsorption isotherm of Carbon Dioxide on CDM550 Pyrolysis Char
DOI: 10.1016/j.scitotenv.2022.157395
Article source: Figure 5
Adsorbate Carbon Dioxide: InChIKey CURLTUGMZLYLDI-UHFFFAOYSA-N
Kind: experiment
Isotherm type: excess
Temperature: 298 K
Tabular data in the source: 1
pressure (bar)	uptake (mg/g)
0.018239	1.9404
0.034451	3.536
0.058769	4.8486
0.0841	5.1404
0.126656	7.8821
0.169213	7.8463
0.253312	9.6409
0.334373	11.0598
0.506625	14.5581
0.675838	14.2795
0.844037	17.8036
