Adsorption isotherm of Nitrogen on SP750 Pyrolysis Char
DOI: 10.1016/j.scitotenv.2022.157395
Article source: Supplementary Data provided to NIST
Adsorbate Nitrogen: InChIKey IJGRMHOSHXDMSA-UHFFFAOYSA-N
Kind: experiment
Isotherm type: excess
Temperature: 77 K
Tabular data in the source: 1
pressure (bar)	uptake (cm3(STP)/g)
0.025819	0.032174
0.052708	0.059921
0.078318	0.081592
0.104371	0.103101
0.129551	0.116429
0.155217	0.128004
0.180843	0.151261
0.206567	0.162438
0.232223	0.17035
0.257912	0.184215
0.283624	0.189615
0.309161	0.214622
0.334861	0.229449
0.360625	0.228673
0.386262	0.231477
0.411963	0.235509
0.437573	0.250035
0.463268	0.256323
0.488882	0.269134
0.514568	0.272683
0.540254	0.267153
0.565866	0.259692
0.591603	0.278089
0.617076	0.295621
0.642993	0.299601
0.668495	0.289696
0.694226	0.283748
0.719849	0.278075
0.745526	0.300969
0.771107	0.296773
0.796773	0.303842
0.822495	0.323834
0.847998	0.32189
0.873819	0.312992
0.899495	0.312226
0.925109	0.353326
0.950635	0.363854
0.97635	0.446634
1.00182	0.550146
1.02117	1.07643
1.02043	1.0712
1.00146	0.624633
0.975172	0.513831
0.949381	0.465731
0.923592	0.479592
0.897776	0.456647
0.87219	0.477156
0.846418	0.475008
0.820703	0.475534
0.79497	0.479774
0.769289	0.471187
0.743957	0.50452
0.717837	0.505533
0.692373	0.5197
0.666446	0.539151
0.640876	0.538394
0.615309	0.537086
0.589445	0.566098
0.56388	0.561867
0.538202	0.564962
0.512355	0.563565
0.486842	0.573623
0.461184	0.580602
0.435271	0.57435
0.409707	0.582961
0.383958	0.576298
0.358372	0.574343
0.332601	0.565908
0.306911	0.558057
0.281242	0.55147
0.255652	0.543723
0.229913	0.538305
0.204282	0.52194
0.178774	0.497767
0.152922	0.476165
0.127296	0.451496
0.101606	0.427818
0.075936	0.398412
0.050244	0.366057
0.024086	0.318352
