Adsorption isotherm of Carbon Dioxide on CP350 Pyrolysis Char
DOI: 10.1016/j.scitotenv.2022.157395
Article source: Figure 5
Adsorbate Carbon Dioxide: InChIKey CURLTUGMZLYLDI-UHFFFAOYSA-N
Kind: experiment
Isotherm type: excess
Temperature: 298 K
Tabular data in the source: 1
pressure (bar)	uptake (mg/g)
0.018239	1.0691
0.034451	1.7316
0.042556	1.9695
0.050663	2.32
0.067888	2.4358
0.0841	3.2516
0.169213	4.1865
0.253312	5.7181
0.334373	6.5938
0.506625	8.4468
0.675838	9.5069
0.844037	11.0338
