Adsorption isotherm of Nitrogen on CDM750 Pyrolysis Char
DOI: 10.1016/j.scitotenv.2022.157395
Article source: Supplementary Data provided to NIST
Adsorbate Nitrogen: InChIKey IJGRMHOSHXDMSA-UHFFFAOYSA-N
Kind: experiment
Isotherm type: excess
Temperature: 77 K
Tabular data in the source: 1
pressure (bar)	uptake (cm3(STP)/g)
0.008686	27.1398
0.015137	28.2892
0.023782	29.256
0.031012	29.7214
0.036563	30.0424
0.041253	30.3978
0.061293	31.0518
0.111456	32.0881
0.163509	32.8734
0.215592	33.4495
0.267082	33.9636
0.315331	34.9771
0.369376	35.5972
0.421241	36.0783
0.472765	36.5118
0.524152	36.9161
0.575545	37.3021
0.619441	38.8538
0.677192	39.5341
0.728275	40.271
0.779219	41.1247
0.829494	42.2882
0.8784	44.0102
0.930946	48.9172
0.968099	54.2892
0.988071	59.7347
1.01983	97.9613
0.97935	63.1845
0.924743	55.5896
0.867909	50.6414
0.812105	49.2919
0.762629	47.8921
0.710499	46.7312
0.658768	45.6935
0.606671	44.9122
0.554989	44.1986
0.505508	43.1562
0.462726	39.9904
0.402499	38.7651
0.34965	37.9666
0.298121	37.1997
0.246608	36.3891
0.19538	35.5655
0.14404	34.7125
0.092814	33.75
0.04243	32.8142
