Adsorption isotherm of Carbon Dioxide on CP550 Pyrolysis Char
DOI: 10.1016/j.scitotenv.2022.157395
Article source: Figure 5
Adsorbate Carbon Dioxide: InChIKey CURLTUGMZLYLDI-UHFFFAOYSA-N
Kind: experiment
Isotherm type: excess
Temperature: 298 K
Tabular data in the source: 1
pressure (bar)	uptake (mg/g)
0.018239	4.3804
0.034451	7.3975
0.042556	8.5907
0.050663	9.0957
0.067888	10.5694
0.0841	12.1732
0.169213	16.697
0.253312	20.2216
0.334373	22.4814
0.506625	27.0849
0.675838	29.5374
0.844037	32.808
