Adsorption isotherm of Carbon Dioxide on MBM350 Pyrolysis Char
DOI: 10.1016/j.scitotenv.2022.157395
Article source: Figure 5
Adsorbate Carbon Dioxide: InChIKey CURLTUGMZLYLDI-UHFFFAOYSA-N
Kind: experiment
Isotherm type: excess
Temperature: 298 K
Tabular data in the source: 1
pressure (bar)	uptake (mg/g)
0.042556	0.826
0.050663	1.04
0.067888	1.476
0.0841	1.349
0.169213	2.468
0.334373	3.636
0.506625	4.534
0.675838	5.62
0.844037	6.388
