Adsorption isotherm of Carbon Dioxide on MBM750 Pyrolysis Char
DOI: 10.1016/j.scitotenv.2022.157395
Article source: Figure 5
Adsorbate Carbon Dioxide: InChIKey CURLTUGMZLYLDI-UHFFFAOYSA-N
Kind: experiment
Isotherm type: excess
Temperature: 298 K
Tabular data in the source: 1
pressure (bar)	uptake (mg/g)
0.042556	3.798
0.050663	4.311
0.067888	5.732
0.0841	6.175
0.169213	8.313
0.334373	11.038
0.506625	13.5
0.675838	15.405
0.844037	17.882
