Adsorption isotherm of Nitrogen on CP750 Pyrolysis Char
DOI: 10.1016/j.scitotenv.2022.157395
Article source: Supplementary Data provided to NIST
Adsorbate Nitrogen: InChIKey IJGRMHOSHXDMSA-UHFFFAOYSA-N
Kind: experiment
Isotherm type: excess
Temperature: 77 K
Tabular data in the source: 1
pressure (bar)	uptake ()
0.025763	-0.027795
0.052589	0.015084
0.078173	0.057549
0.104284	0.089515
0.12936	0.118814
0.155032	0.152269
0.180729	0.178523
0.206451	0.202697
0.23204	0.224574
0.257482	0.245931
0.283618	0.266619
0.309219	0.282852
0.33466	0.309306
0.360484	0.321887
0.386134	0.344935
0.411704	0.359303
0.437395	0.379402
0.463063	0.390454
0.488655	0.413389
0.514511	0.435329
0.540033	0.443866
0.56571	0.464369
0.591692	0.479297
0.616715	0.483427
0.642615	0.510503
0.668631	0.518257
0.693806	0.532885
0.719813	0.558585
0.745392	0.568413
0.7711	0.595295
0.796701	0.615729
0.821967	0.642456
0.847898	0.665477
0.873875	0.707156
0.89892	0.761145
0.924694	0.801244
0.950086	0.864259
0.976122	1.00363
1.00076	1.25555
1.02108	2.21172
1.02014	2.16269
1.00041	1.33209
0.975748	1.1092
0.949585	1.00918
0.923854	0.941119
0.897945	0.921481
0.872388	0.890296
0.846465	0.868486
0.820711	0.85628
0.795587	0.847531
0.769019	0.840184
0.743805	0.820579
0.718162	0.833074
0.69204	0.837676
0.666677	0.836438
0.640918	0.834437
0.61543	0.81372
0.589445	0.8079
0.563825	0.81056
0.538141	0.8105
0.512695	0.796596
0.48685	0.797683
0.461211	0.790987
0.4354	0.786379
0.410057	0.773706
0.384075	0.761224
0.358435	0.75607
0.332661	0.737512
0.306892	0.733272
0.281353	0.714602
0.255755	0.692087
0.229901	0.667623
0.204239	0.648758
0.178825	0.622708
0.152573	0.595228
0.127314	0.558782
0.101637	0.52803
0.07603	0.488789
0.050393	0.448608
0.024448	0.380817
