Adsorption isotherm of Carbon Dioxide on CDM750 Pyrolysis Char
DOI: 10.1016/j.scitotenv.2022.157395
Article source: Figure 5
Adsorbate Carbon Dioxide: InChIKey CURLTUGMZLYLDI-UHFFFAOYSA-N
Kind: experiment
Isotherm type: excess
Temperature: 298 K
Tabular data in the source: 1
pressure (bar)	uptake (mg/g)
0.018239	1.9761
0.034451	3.6043
0.058769	4.8377
0.0841	5.6301
0.126656	7.6155
0.169213	8.7994
0.253312	11.223
0.334373	12.3865
0.506625	15.2683
0.675838	16.7341
0.844037	19.4763
