Adsorption isotherm of Carbon Dioxide on CP750 Pyrolysis Char
DOI: 10.1016/j.scitotenv.2022.157395
Article source: Figure 5
Adsorbate Carbon Dioxide: InChIKey CURLTUGMZLYLDI-UHFFFAOYSA-N
Kind: experiment
Isotherm type: excess
Temperature: 298 K
Tabular data in the source: 1
pressure (bar)	uptake (mg/g)
0.018239	4.4454
0.034451	8.6892
0.042556	9.262
0.050663	12.3337
0.067888	12.6502
0.0841	16.6566
0.169213	20.7202
0.253312	24.2298
0.334373	27.8481
0.506625	34.5955
0.675838	35.4002
0.844037	41.0346
