Adsorption isotherm of Carbon Dioxide on CDM350 Pyrolysis Char
DOI: 10.1016/j.scitotenv.2022.157395
Article source: Figure 5
Adsorbate Carbon Dioxide: InChIKey CURLTUGMZLYLDI-UHFFFAOYSA-N
Kind: experiment
Isotherm type: excess
Temperature: 298 K
Tabular data in the source: 1
pressure (bar)	uptake (mg/g)
0.018239	0.4714
0.034451	1.36
0.058769	2.0923
0.0841	1.9909
0.126656	3.3513
0.169213	3.5252
0.253312	3.6352
0.334373	4.9045
0.506625	6.79
0.675838	6.7828
0.844037	8.531
