Adsorption isotherm of Carbon Dioxide on MBM550 Pyrolysis Char
DOI: 10.1016/j.scitotenv.2022.157395
Article source: Figure 5
Adsorbate Carbon Dioxide: InChIKey CURLTUGMZLYLDI-UHFFFAOYSA-N
Kind: experiment
Isotherm type: excess
Temperature: 298 K
Tabular data in the source: 1
pressure (bar)	uptake (mg/g)
0.018239	3.624
0.034451	5.961
0.042556	6.345
0.050663	6.642
0.067888	8.542
0.0841	8.348
0.169213	12.421
0.253312	15.089
0.334373	17.19
0.506625	19.409
0.675838	23.417
0.844037	24.214
