Adsorption isotherm of Carbon Dioxide on SP750 Pyrolysis Char
DOI: 10.1016/j.scitotenv.2022.157395
Article source: Figure 5
Adsorbate Carbon Dioxide: InChIKey CURLTUGMZLYLDI-UHFFFAOYSA-N
Kind: experiment
Isotherm type: excess
Temperature: 298 K
Tabular data in the source: 1
pressure (bar)	uptake (mg/g)
0.018239	4.6961
0.034451	8.0381
0.042556	9.3574
0.050663	9.8546
0.067888	11.8617
0.0841	13.5214
0.169213	18.6497
0.253312	23.047
0.334373	25.0182
0.506625	31.2685
0.675838	33.8915
0.844037	38.0377
