Adsorption isotherm of Carbon Dioxide on SP550 Pyrolysis Char
DOI: 10.1016/j.scitotenv.2022.157395
Article source: Figure 5
Adsorbate Carbon Dioxide: InChIKey CURLTUGMZLYLDI-UHFFFAOYSA-N
Kind: experiment
Isotherm type: excess
Temperature: 298 K
Tabular data in the source: 1
pressure (bar)	uptake (mg/g)
0.018239	3.4424
0.034451	5.819
0.042556	6.9517
0.050663	7.4772
0.067888	8.4039
0.0841	9.9661
0.169213	13.619
0.253312	17.475
0.334373	19.3655
0.506625	23.7486
0.675838	25.835
0.844037	29.0297
