Adsorption isotherm of Carbon Dioxide on PPN-4/C600
DOI: 10.1039/c5cc01828e
Article source: Figure 3
Adsorbate Carbon Dioxide: InChIKey CURLTUGMZLYLDI-UHFFFAOYSA-N
Kind: experiment
Temperature: 295 K
Tabular data in the source: 0
pressure (bar)	uptake (cm3(STP)/g)
0	0
0.008228	2.3569
0.013719	4.0404
0.024629	6.06061
0.035557	8.41751
0.049149	10.101
0.060059	12.1212
0.073651	13.8047
0.084579	16.1616
0.100889	18.1818
0.119936	20.8754
0.136229	22.5589
0.14712	24.2424
0.160693	25.5892
0.171567	26.936
0.182458	28.6195
0.196033	29.9663
0.212307	31.3131
0.228599	32.9966
0.255746	35.6902
0.282857	37.7104
0.309987	40.0673
0.337116	42.4242
0.364227	44.4444
0.388637	46.4646
0.415748	48.4848
0.44286	50.5051
0.467271	52.5253
0.494382	54.5455
0.521474	56.229
0.545886	58.2492
0.572997	60.2694
0.60279	61.9529
0.629902	63.9731
0.654276	65.3199
0.684069	67.0034
0.711162	68.6869
0.738237	70.0337
0.762629	71.7172
0.787003	73.064
0.814078	74.4108
0.843872	76.0943
0.870946	77.4411
0.895357	79.4613
0.922413	80.4714
0.949507	82.1549
0.976581	83.5017
1.00094	84.5118
1.02803	86.1953
1.0551	87.5421
1.08218	88.8889
