Adsorption isotherm of Nitrogen on PPN-4/C600
DOI: 10.1039/c5cc01828e
Article source: Figure 2
Adsorbate Nitrogen: InChIKey IJGRMHOSHXDMSA-UHFFFAOYSA-N
Kind: experiment
Temperature: 77 K
Tabular data in the source: 0
pressure (bar)	uptake (cm3(STP)/g)
0	0
0.0001	53.6585
0.000237	126.829
0.000318	170.732
0.000428	229.268
0.005696	253.659
0.010974	282.927
0.021447	297.561
0.03192	312.195
0.047598	317.073
0.058044	317.073
0.076333	321.951
0.094613	321.951
0.118135	331.707
0.133804	331.707
0.154696	331.707
0.172994	341.463
0.196498	341.463
0.214768	336.585
0.235669	341.463
0.251338	341.463
0.27485	346.341
0.295742	346.341
0.314022	346.341
0.332302	346.341
0.353204	351.22
0.379327	356.098
0.397598	351.22
0.415878	351.22
0.43678	356.098
0.457663	351.22
0.475952	356.098
0.496843	356.098
0.517735	356.098
0.538636	360.976
0.556908	356.098
0.577799	356.098
0.5987	360.976
0.619582	356.098
0.635251	356.098
0.661375	360.976
0.679656	360.976
0.700547	360.976
0.718827	360.976
0.737108	360.976
0.763241	370.732
0.781512	365.854
0.799792	365.854
0.820684	365.854
0.841584	370.732
0.862476	370.732
0.883369	370.732
0.901649	370.732
0.925161	375.61
0.946052	375.61
0.961721	375.61
