Adsorption isotherm of Nitrogen on PPN-4
DOI: 10.1039/c5cc01828e
Article source: Figure 2
Adsorbate Nitrogen: InChIKey IJGRMHOSHXDMSA-UHFFFAOYSA-N
Kind: experiment
Temperature: 77 K
Tabular data in the source: 0
pressure (bar)	uptake (cm3(STP)/g)
0	0
0.00273	63.4146
0.003012	214.634
0.003248	341.463
0.005924	375.61
0.006005	419.512
0.008681	453.659
0.011356	487.805
0.019245	517.073
0.024522	546.341
0.029791	570.732
0.032439	590.244
0.040309	609.756
0.045551	619.512
0.053421	639.024
0.066524	663.415
0.074386	678.049
0.084868	697.561
0.09273	712.195
0.105833	736.585
0.111073	746.341
0.124159	760.976
0.13202	775.61
0.145123	800
0.152966	804.878
0.160837	824.39
0.171301	834.146
0.187016	858.537
0.200101	873.171
0.213194	892.683
0.234132	917.073
0.249828	931.707
0.270756	951.22
0.291684	970.732
0.315223	990.244
0.330919	1004.88
0.351848	1024.39
0.377981	1034.15
0.393677	1048.78
0.417199	1058.54
0.435497	1068.29
0.456415	1082.93
0.479946	1097.56
0.495633	1107.32
0.519146	1112.2
0.555733	1126.83
0.579264	1141.46
0.602785	1151.22
0.618473	1160.98
0.644596	1165.85
0.668118	1175.61
0.686407	1180.49
0.704696	1185.37
0.722985	1190.24
0.743887	1195.12
0.764787	1200
0.785697	1209.76
0.806599	1214.63
0.830101	1214.63
0.853632	1229.27
0.882367	1234.15
0.9085	1243.9
0.926798	1253.66
0.945079	1253.66
0.963369	1258.54
