Adsorption isotherm of Nitrogen on PPN-4/C600-Si
DOI: 10.1039/c5cc01828e
Article source: Figure 2
Adsorbate Nitrogen: InChIKey IJGRMHOSHXDMSA-UHFFFAOYSA-N
Kind: experiment
Temperature: 77 K
Tabular data in the source: 0
pressure (bar)	uptake (cm3(STP)/g)
0	0
0.000146	78.0488
0.00283	117.073
0.005487	141.463
0.015942	146.341
0.026397	151.22
0.042066	151.22
0.057743	156.098
0.073412	156.098
0.08909	160.976
0.112575	151.22
0.130873	160.976
0.151756	156.098
0.172657	160.976
0.193549	160.976
0.21182	156.098
0.232721	160.976
0.251001	160.976
0.274505	160.976
0.313668	156.098
0.331957	160.976
0.352848	160.976
0.37374	160.976
0.394633	160.976
0.415524	160.976
0.433804	160.976
0.457307	160.976
0.472976	160.976
0.496479	160.976
0.538263	160.976
0.556543	160.976
0.577435	160.976
0.595715	160.976
0.619218	160.976
0.637498	160.976
0.658391	160.976
0.679282	160.976
0.697563	160.976
0.718454	160.976
0.741957	160.976
0.760237	160.976
0.778518	160.976
0.802021	160.976
0.81769	160.976
0.838582	160.976
0.862085	160.976
0.880356	156.098
0.898645	160.976
0.922158	165.854
0.945652	160.976
0.963941	165.854
