Adsorption isotherm of Carbon Dioxide on PPN-4/C600-Si
DOI: 10.1039/c5cc01828e
Article source: Figure 3
Adsorbate Carbon Dioxide: InChIKey CURLTUGMZLYLDI-UHFFFAOYSA-N
Kind: experiment
Temperature: 295 K
Tabular data in the source: 0
pressure (bar)	uptake (cm3(STP)/g)
0	0
0.021729	2.3569
0.046194	5.38721
0.065205	7.40741
0.081515	9.42761
0.095107	11.1111
0.111363	12.1212
0.130355	13.8047
0.149329	15.1515
0.171022	16.835
0.192696	18.1818
0.208933	18.8552
0.23059	19.8653
0.252282	21.5488
0.282057	22.8956
0.309151	24.5791
0.336224	25.9259
0.360581	26.936
0.387656	28.2828
0.414713	29.2929
0.441769	30.303
0.466126	31.3131
0.493182	32.3232
0.520257	33.67
0.547295	34.3434
0.574351	35.3535
0.601391	36.0269
0.625746	37.037
0.652785	37.7104
0.679841	38.7205
0.709616	40.0673
0.731236	40.404
0.758275	41.0774
0.78263	42.0875
0.815069	42.7609
0.844789	43.0976
0.871847	44.1077
0.896185	44.7811
0.925941	45.7912
0.947543	45.7912
0.9746	46.8013
0.996219	47.138
1.02598	48.1481
1.05571	48.8215
1.08275	49.4949
