Adsorption isotherm of Carbon Dioxide on PPN-4
DOI: 10.1039/c5cc01828e
Article source: Figure 3
Adsorbate Carbon Dioxide: InChIKey CURLTUGMZLYLDI-UHFFFAOYSA-N
Kind: experiment
Temperature: 295 K
Tabular data in the source: 0
pressure (bar)	uptake (cm3(STP)/g)
0	0
0.062177	1.3468
0.078397	1.6835
0.091916	2.0202
0.118954	2.6936
0.143256	2.6936
0.170331	4.0404
0.19735	4.3771
0.227108	5.38721
0.254128	5.72391
0.283885	6.73401
0.308223	7.40741
0.335279	8.41751
0.356936	9.42761
0.386674	10.101
0.413713	10.7744
0.438051	11.4478
0.465088	12.1212
0.492128	12.7946
0.513766	13.468
0.546204	14.1414
0.575942	14.8148
0.600263	15.1515
0.6273	15.8249
0.654358	16.835
0.681396	17.5084
0.708416	17.8451
0.735473	18.8552
0.757092	19.1919
0.784113	19.5286
0.813869	20.5387
0.843608	21.2121
0.870664	22.2222
0.897685	22.5589
0.924723	23.2323
0.949043	23.569
0.9761	24.5791
0.992318	24.9158
1.02747	25.9259
1.05721	26.5993
1.08155	27.2727
