Adsorption isotherm of Nitrogen on MIL-53(Al)
DOI: 10.1016/j.jcat.2013.12.013
Adsorbate Nitrogen: InChIKey IJGRMHOSHXDMSA-UHFFFAOYSA-N
Temperature: 77 K
Tabular data in the source: 0
pressure (bar)	uptake (mmol/g)
0.00397434	2.82329
0.00457401	0.823252
0.00502671	1.47028
0.00642596	3.4702
0.00673168	6.7643
0.00696097	4.23487
0.00741367	4.8819
0.00743131	7.76426
0.00747834	2.11719
0.00790752	5.58776
0.00844253	6.35243
0.034117	8.76264
0.0502319	8.93814
0.0803805	9.1716
0.108365	9.16991
0.202479	9.3995
0.304507	9.51097
0.352481	9.50807
0.448389	9.44344
0.544419	9.55527
0.59056	9.78777
0.686714	10.0761
0.782951	10.482
0.875889	11.8881
0.904491	12.7688
0.91906	13.5914
0.931753	14.5906
0.938367	15.4726
0.942983	16.3547
0.951718	17.413
0.956252	18.1774
0.960949	19.1771
0.963648	20.1769
