Adsorption isotherm of Nitrogen on Carboxen 1003
DOI: 10.1016/j.jcat.2013.12.013
Adsorbate Nitrogen: InChIKey IJGRMHOSHXDMSA-UHFFFAOYSA-N
Temperature: 77 K
Tabular data in the source: 0
pressure (bar)	uptake (mmol/g)
-0.00443488	2.18278
-0.00158715	7.88721
0.000248196	2.67607
0.000313511	3.3803
0.000372295	4.01411
0.000502925	5.42257
0.000561709	6.05638
0.000627023	6.76061
0.000692338	7.46484
0.000796842	8.59161
0.00244931	1.40863
0.00274976	4.64809
0.00318736	9.36643
0.00323309	9.85939
0.00560402	10.4229
0.014931	10.987
0.0172954	11.4801
0.0405409	12.1156
0.0614417	12.4692
0.0800042	12.6114
0.0962546	12.8239
0.117136	12.9662
0.156559	13.0395
0.195991	13.1832
0.293401	13.472
0.388487	13.6901
0.485884	13.838
0.585607	14.0565
0.683011	14.2749
0.780422	14.5636
0.875553	15.2747
0.905761	15.9811
0.919752	16.8272
0.931436	17.814
0.938483	18.8004
0.945511	19.5756
0.950247	20.6323
0.950358	21.8295
0.957399	22.7455
0.957483	23.661
