Adsorption isotherm of Nitrogen on CHA
DOI: 10.1016/j.jcat.2013.12.013
Adsorbate Nitrogen: InChIKey IJGRMHOSHXDMSA-UHFFFAOYSA-N
Temperature: 77 K
Tabular data in the source: 0
pressure (bar)	uptake (mmol/g)
0.00343934	2.05862
0.0040155	2.88211
0.0045505	3.64678
0.00457401	0.823252
0.00496205	4.23499
0.00498556	1.41146
0.00553821	5.05849
0.00685514	6.94076
0.00722553	7.47015
0.00844253	6.35243
0.00990649	5.58764
0.0116349	8.05812
0.0336231	8.05679
0.0556114	8.05546
0.0736017	8.05437
0.0956311	8.11186
0.109665	8.16983
0.131735	8.28614
0.165717	8.28408
0.201656	8.22308
0.301644	8.27585
0.395593	8.27017
0.491542	8.26436
0.589408	8.14078
0.687437	8.25249
0.783344	8.18786
0.877294	8.18218
0.959415	8.4125
