Adsorption isotherm of Nitrogen on Carboxen 1000
DOI: 10.1016/j.jcat.2013.12.013
Adsorbate Nitrogen: InChIKey IJGRMHOSHXDMSA-UHFFFAOYSA-N
Temperature: 77 K
Tabular data in the source: 0
pressure (bar)	uptake (mmol/g)
-0.00225989	0.633639
0.000169819	1.831
0.000228603	2.46481
0.000287385	3.09861
0.000372295	4.01411
0.000444141	4.78876
0.000502925	5.42257
0.00289998	6.26782
0.00293917	6.69035
0.00299143	7.25374
0.00770063	8.02873
0.0285948	8.31193
0.0402144	8.59446
0.0564516	8.66606
0.0796645	8.94944
0.0959018	9.02104
0.121421	9.16373
0.153895	9.30693
0.197963	9.45097
0.293048	9.66913
0.388141	9.95771
0.487863	10.1762
0.585281	10.5354
0.680386	10.9648
0.777842	11.7465
0.819643	12.4538
0.856808	13.1607
0.877728	13.7256
0.90098	14.4315
0.914971	15.2776
0.926636	16.0531
0.938313	16.9694
0.940704	17.7442
0.943108	18.6599
0.950143	19.5055
0.95022	20.3506
0.950306	21.2661
0.955015	22.0411
0.962167	24.1543
