Adsorption isotherm of Nitrogen on H-SSZ-13
DOI: 10.1016/j.jcat.2013.12.013
Adsorbate Nitrogen: InChIKey IJGRMHOSHXDMSA-UHFFFAOYSA-N
Temperature: 77 K
Tabular data in the source: 0
pressure (bar)	uptake (mmol/g)
0.00804863	8.64657
0.0302014	8.88052
0.048233	8.93826
0.0683046	9.05469
0.0903751	9.171
0.108365	9.16991
0.126438	9.28646
0.162501	9.40193
0.202521	9.45833
0.254452	9.39636
0.30051	9.51122
0.348483	9.50831
0.398498	9.56411
0.446431	9.50238
0.492489	9.61724
0.544419	9.55527
0.594434	9.61107
0.640327	9.49064
0.688302	9.48774
0.734359	9.60259
0.78425	9.48193
0.836263	9.5376
0.884238	9.5347
0.930295	9.64955
0.964359	9.76514
