Adsorption isotherm of Nitrogen on Na-SSZ-13
DOI: 10.1016/j.jcat.2013.12.013
Adsorbate Nitrogen: InChIKey IJGRMHOSHXDMSA-UHFFFAOYSA-N
Temperature: 77 K
Tabular data in the source: 0
pressure (bar)	uptake (mmol/g)
0.0278321	8.35126
0.0418658	8.40923
0.0638951	8.46672
0.0859656	8.58303
0.10204	8.6997
0.122029	8.69849
0.168087	8.81335
0.204067	8.81117
0.302138	8.98171
0.39413	9.03496
0.488162	9.14691
0.590066	9.08192
0.688055	9.13481
0.788083	9.2464
0.879993	9.18201
0.956199	9.53034
