Adsorption isotherm of Nitrogen on Carboxen 569
DOI: 10.1016/j.jcat.2013.12.013
Adsorbate Nitrogen: InChIKey IJGRMHOSHXDMSA-UHFFFAOYSA-N
Temperature: 77 K
Tabular data in the source: 0
pressure (bar)	uptake (mmol/g)
0.0326117	1.62208
0.0418799	1.55233
0.062748	1.55384
0.0813105	1.69603
0.0905852	1.69671
0.118403	1.6283
0.155501	1.63099
0.197245	1.70444
0.294622	1.64107
0.412875	1.64965
0.505616	1.58595
0.607644	1.66376
0.705022	1.6004
0.779233	1.74663
0.874377	2.59859
0.918569	4.08067
0.937288	5.91301
0.944369	7.25155
0.953755	8.44942
0.97698	8.87364
