Adsorption isotherm of Nitrogen on Fe/Cu(1:1) binary oxide
DOI: 10.2166/wst.2016.219
Article source: Figure 3- 1 to 1 ratio
Adsorbate Nitrogen: InChIKey IJGRMHOSHXDMSA-UHFFFAOYSA-N
Kind: experiment
Temperature: 77 K
Tabular data in the source: 0
pressure (bar)	uptake (cm3(STP)/g)
0.013426	22.089
0.0214	23.661
0.028482	25.008
0.039355	26.102
0.050906	27.252
0.099937	30.954
0.144905	37.155
0.149931	34.601
0.200056	37.854
0.207889	41.53
0.24777	45.542
0.250739	41.725
0.300246	49.693
0.301148	49.731
0.348994	54.322
0.350524	50.476
0.404084	55.245
0.404287	55.299
0.451879	67.305
0.453166	67.902
0.502744	73.035
0.50627	65.681
0.552616	77.521
0.552809	77.58
0.602863	82.18
0.60639	76.061
0.652928	86.697
0.655421	80.213
0.704999	91.957
0.706357	92.055
0.759178	90.957
0.761427	91.438
0.808199	97.691
0.814511	106.224
0.857473	116.831
0.857838	116.769
0.908014	121.263
0.914985	140.939
0.954573	155.645
0.965526	205.719
0.983096	191.572
0.988973	207.29
0.992306	255.456
0.995944	260.676
1.00629	275.889
