Adsorption isotherm of Nitrogen on Fe/Cu(3:1) binary oxide
DOI: 10.2166/wst.2016.219
Article source: Figure 3- 3 to 1 ratio
Adsorbate Nitrogen: InChIKey IJGRMHOSHXDMSA-UHFFFAOYSA-N
Kind: experiment
Temperature: 77 K
Tabular data in the source: 0
pressure (bar)	uptake (cm3(STP)/g)
0.007052	18.656
0.015786	24.092
0.027125	28.028
0.036072	29.997
0.044948	32.161
0.095387	44.732
0.100879	41.873
0.146952	52.321
0.152383	50.141
0.198101	60.304
0.198313	60.362
0.248682	67.837
0.254032	64.667
0.29898	70.811
0.299122	70.855
0.350402	82.646
0.355965	79.164
0.401825	90.785
0.40225	90.943
0.451778	98.418
0.455436	92.105
0.500799	105.27
0.503058	98.221
0.55216	103.396
0.552221	103.403
0.60337	117.446
0.605903	117.679
0.654225	115.381
0.655856	124.469
0.708262	122.46
0.708475	132.114
0.758063	130.275
0.761032	140.721
0.805899	139.58
0.807165	139.279
0.857047	151.199
0.859722	168.015
0.90847	169.941
0.911155	197.6
0.959902	202.924
0.963854	209.266
0.985335	234.943
0.989358	233.923
0.991972	269.595
0.995214	271.944
1.00705	282.193
