Adsorption isotherm of Argon on HNUST-3
DOI: 10.1021/Cg401180r
Adsorbate Argon: InChIKey XKRFYHLGVUSROY-UHFFFAOYSA-N
Temperature: 87 K
Tabular data in the source: 0
pressure (bar)	uptake (cm3(STP)/g)
0.00529008	0.0052373
0.00793512	172.288
0.0105802	494.743
0.0158702	610.422
0.0290955	635.004
0.0370305	652.215
0.0529008	669.406
0.0819962	681.64
0.105802	691.427
0.126962	693.835
0.148123	703.628
0.169283	706.037
0.190443	705.984
0.201024	708.419
0.245989	713.229
0.30418	720.468
0.3465	722.823
0.394111	725.165
0.441722	727.507
0.489333	729.849
0.536943	729.73
0.592489	734.514
0.63481	734.408
0.687711	739.198
0.730031	736.63
0.785577	736.491
0.806737	741.361
0.835833	738.826
0.856993	738.773
0.878154	736.259
0.901958	738.661
0.931055	743.511
0.973375	745.866
