Adsorption isotherm of Carbon Dioxide on HNUST-3
DOI: 10.1021/Cg401180r
Adsorbate Carbon Dioxide: InChIKey CURLTUGMZLYLDI-UHFFFAOYSA-N
Temperature: 298 K
Tabular data in the source: 0
pressure (bar)	uptake (wt%)
0.320211	4.40678
0.532714	9.15254
1.01221	17.2881
1.22544	20.678
1.49207	24.7458
1.7053	28.1356
2.02606	31.5254
2.23929	34.9153
2.45252	38.3051
2.66612	41.0169
2.98706	44.0678
3.52214	48.8136
4.00364	53.2203
5.02114	60.678
5.9322	66.1017
6.89776	70.1695
7.97157	72.8814
8.99162	75.5932
9.9579	78.3051
10.9247	80
11.9453	81.6949
12.9665	82.3729
13.9333	84.0678
14.9543	85.0847
15.9754	85.7627
16.889	86.4407
17.9102	87.1186
18.9849	88.1356
19.9521	89.1525
