Adsorption isotherm of Carbon Dioxide on HNUST-3
DOI: 10.1021/Cg401180r
Adsorbate Carbon Dioxide: InChIKey CURLTUGMZLYLDI-UHFFFAOYSA-N
Temperature: 273 K
Tabular data in the source: 0
pressure (bar)	uptake (wt%)
0.262074	12.5424
0.318024	8.47458
0.421542	15.9322
0.527064	19.661
0.685074	25.7627
0.896665	32.2034
1.00273	34.9153
1.21396	42.0339
1.53308	48.4746
1.69127	54.2373
1.95754	58.9831
2.22417	63.0508
2.43722	66.7797
2.65099	69.1525
3.02606	71.5254
3.93603	78.9831
4.90195	82.3729
5.92145	86.1017
6.94204	87.7966
7.96264	89.4915
8.98323	91.1864
10.0578	92.5424
10.9714	93.2203
11.9923	94.2373
13.0135	94.9153
13.9805	96.2712
14.9479	96.9492
15.9692	97.2881
17.0445	97.2881
17.9581	97.9661
18.9792	98.6441
19.947	98.6441
