Adsorption isotherm of Nitrogen on HNUST-3
DOI: 10.1021/Cg401180r
Adsorbate Nitrogen: InChIKey IJGRMHOSHXDMSA-UHFFFAOYSA-N
Temperature: 298 K
Tabular data in the source: 0
pressure (bar)	uptake (wt%)
0.913614	0.677966
1.55841	1.35593
2.41863	1.35593
3.06306	2.71186
4.0842	3.38983
4.998	3.72881
6.01914	4.40678
6.98651	5.08475
8.00784	5.42373
8.97521	6.10169
9.99617	7.11864
11.0175	7.45763
11.9851	7.79661
13.0064	8.13559
14.0275	8.81356
14.9951	9.15254
16.0164	9.49153
16.9838	10.1695
18.0051	10.5085
19.0264	10.8475
20.0476	11.5254
