Adsorption isotherm of Nitrogen on HNUST-3
DOI: 10.1021/Cg401180r
Adsorbate Nitrogen: InChIKey IJGRMHOSHXDMSA-UHFFFAOYSA-N
Temperature: 77 K
Tabular data in the source: 0
pressure (bar)	uptake (cm3(STP)/g)
0.0052373	452.91
0.00785596	359.365
0.0104746	541.512
0.0209492	578.408
0.0392798	593.131
0.0576104	602.931
0.0785596	612.724
0.107365	615.113
0.120458	617.541
0.144026	619.943
0.162356	622.358
0.17545	622.325
0.196399	624.733
0.246153	629.53
0.295908	626.943
0.343043	634.208
0.387561	631.633
0.439934	633.962
0.487069	633.843
0.531586	633.73
0.586578	636.052
0.631095	638.401
0.683468	638.268
0.730604	635.687
0.780358	638.023
0.824875	635.448
0.903435	637.711
0.966283	640.013
