Adsorption isotherm of Nitrogen on HNUST-3
DOI: 10.1021/Cg401180r
Adsorbate Nitrogen: InChIKey IJGRMHOSHXDMSA-UHFFFAOYSA-N
Temperature: 273 K
Tabular data in the source: 0
pressure (bar)	uptake (wt%)
0.859668	1.01695
1.45052	2.0339
1.88026	2.71186
2.36377	3.38983
2.95498	3.72881
4.08383	4.0678
5.10461	5.42373
5.96428	6.44068
7.09276	7.45763
8.05996	8.47458
9.0811	9.15254
10.1022	9.83051
11.0696	10.5085
12.0908	11.1864
12.9506	11.8644
13.9718	12.5424
15.1004	13.2203
16.014	13.8983
17.0355	13.8983
18.0026	15.2542
19.0242	14.9153
20.099	15.9322
