Adsorption isotherm of Hydrogen on HNUST-3
DOI: 10.1021/Cg401180r
Adsorbate Hydrogen: InChIKey UFHFLCQGNIYNRP-UHFFFAOYSA-N
Temperature: 77 K
Tabular data in the source: 0
pressure (bar)	uptake (wt%)
0.0552486	0.282828
0.110497	0.484848
0.165746	0.828283
0.331492	1.09091
0.552486	1.51515
0.662983	1.83838
0.718232	1.9596
0.773481	2.08081
0.939227	2.24242
1.27072	2.50505
1.49171	2.72727
1.76796	2.9697
1.98895	3.09091
2.26519	3.23232
2.37569	3.39394
2.65193	3.53535
2.92818	3.65657
4.03315	4.0404
4.97238	4.32323
5.96685	4.54545
6.96133	4.74747
7.90055	4.90909
9.00552	5.09091
9.8895	5.21212
10.884	5.33333
11.8785	5.47475
12.9834	5.55556
13.9779	5.63636
14.9171	5.71717
15.9669	5.79798
16.9061	5.85859
18.011	5.93939
18.9503	6
20	6.06061
