Adsorption isotherm of Hydrogen on HNUST-3
DOI: 10.1021/Cg401180r
Adsorbate Hydrogen: InChIKey UFHFLCQGNIYNRP-UHFFFAOYSA-N
Temperature: 77 K
Tabular data in the source: 0
pressure (bar)	uptake (wt%)
0.552486	1.55556
0.662983	1.69697
0.994475	2.20202
1.21547	2.46465
1.49171	2.70707
1.76796	2.92929
1.9337	3.05051
2.26519	3.19192
3.9779	3.91919
4.97238	4.18182
5.96685	4.38384
7.01657	4.56566
8.01105	4.66667
8.95028	4.80808
9.94475	4.88889
10.9392	4.9697
11.989	5.07071
12.9282	5.13131
13.9779	5.19192
14.9724	5.25253
15.9669	5.27273
16.9061	5.33333
18.011	5.37374
18.9503	5.39394
20	5.41414
