Adsorption isotherm of Nitrogen on PAF-18-OH
DOI: 10.1039/C2ta00616b
Adsorbate Nitrogen: InChIKey IJGRMHOSHXDMSA-UHFFFAOYSA-N
Temperature: 77 K
Tabular data in the source: 0
pressure (bar)	uptake (cm3(STP)/g)
0.0127495	14.2327
0.0127495	199.073
0.0193041	227.913
0.0345982	261.997
0.0782957	286.905
0.108884	297.392
0.202833	328.855
0.309892	348.518
0.412581	370.804
0.600481	411.443
0.663842	428.485
0.759976	459.947
0.849556	505.829
0.904178	530.737
0.9588	542.535
