Adsorption isotherm of Hydrogen on PAF-18-OH
DOI: 10.1039/C2ta00616b
Adsorbate Hydrogen: InChIKey UFHFLCQGNIYNRP-UHFFFAOYSA-N
Temperature: 87 K
Tabular data in the source: 0
pressure (bar)	uptake (cm3(STP)/g)
0.00837971	10.8619
0.0455226	39.2652
0.0739259	51.0636
0.102329	61.114
0.150397	71.6014
0.200649	81.2148
0.25527	90.8283
0.296783	96.9459
0.355775	104.811
0.403842	110.492
0.506531	120.98
0.648548	132.778
0.755607	139.332
0.849556	146.761
0.998128	155.064
