Adsorption isotherm of Hydrogen on PAF-18-OH
DOI: 10.1039/C2ta00616b
Adsorbate Hydrogen: InChIKey UFHFLCQGNIYNRP-UHFFFAOYSA-N
Temperature: 87 K
Tabular data in the source: 0
pressure (bar)	uptake (cm3(STP)/g)
0.00837971	3.4333
0.0477074	18.7274
0.100144	30.5257
0.194094	46.6938
0.296783	59.3661
0.445354	72.9123
0.591741	82.9627
0.751237	93.0131
0.901993	100.879
0.989388	105.685
