Adsorption isotherm of Carbon Dioxide on PAF-18-OH
DOI: 10.1039/C2ta00616b
Adsorbate Carbon Dioxide: InChIKey CURLTUGMZLYLDI-UHFFFAOYSA-N
Temperature: 273 K
Tabular data in the source: 0
pressure (bar)	uptake (mg/g)
0.00837971	3.09622
0.0739259	17.429
0.152581	30.3634
0.25964	44.3466
0.314262	52.0374
0.355775	56.2324
0.406027	61.8256
0.449724	67.4189
0.508716	71.9634
0.558968	77.2071
0.607035	81.7517
0.751237	94.3366
0.803674	98.8811
0.856111	101.328
0.960985	110.767
