Adsorption isotherm of Carbon Dioxide on PAF-18-OH
DOI: 10.1039/C2ta00616b
Adsorbate Carbon Dioxide: InChIKey CURLTUGMZLYLDI-UHFFFAOYSA-N
Temperature: 298 K
Tabular data in the source: 0
pressure (bar)	uptake (mg/g)
0.00681432	0.224687
0.0524782	4.15746
0.206293	17.2667
0.362512	28.2785
0.458646	34.5709
0.564394	41.3877
0.662932	47.418
0.763873	52.6617
0.864814	58.1675
0.963352	63.4112
1.00902	66.0331
