Adsorption isotherm of Hydrogen on PAF-18-OLi
DOI: 10.1039/C2ta00616b
Adsorbate Hydrogen: InChIKey UFHFLCQGNIYNRP-UHFFFAOYSA-N
Temperature: 77 K
Tabular data in the source: 0
pressure (bar)	uptake (cm3(STP)/g)
0.00619484	18.2904
0.0171192	33.5846
0.0477074	53.6854
0.100144	77.282
0.150397	93.0131
0.202833	104.374
0.253086	112.24
0.301153	120.543
0.34922	126.66
0.406027	132.778
0.504346	142.391
0.596111	149.82
0.700985	157.248
0.805859	165.988
0.917287	173.416
0.995943	179.097
