Adsorption isotherm of Carbon Dioxide on PAF-18-OLi
DOI: 10.1039/C2ta00616b
Adsorbate Carbon Dioxide: InChIKey CURLTUGMZLYLDI-UHFFFAOYSA-N
Temperature: 273 K
Tabular data in the source: 0
pressure (bar)	uptake (mg/g)
0.00837971	3.4458
0.106699	31.7618
0.189724	52.0374
0.305523	70.9147
0.456279	91.1903
0.60922	109.019
0.755607	123.352
0.858296	133.14
0.952245	140.481
