Adsorption isotherm of Nitrogen on PAF-18-OLi
DOI: 10.1039/C2ta00616b
Adsorbate Nitrogen: InChIKey IJGRMHOSHXDMSA-UHFFFAOYSA-N
Temperature: 273 K
Tabular data in the source: 0
pressure (bar)	uptake (mg/g)
0.0345982	1.34832
0.229052	1.34832
0.307707	0.998742
0.408212	1.34832
0.508716	0.998742
0.61359	1.34832
0.711909	1.6979
0.810228	1.6979
0.862665	2.39706
0.915102	2.04748
0.96317	2.04748
