Adsorption isotherm of Carbon Dioxide on PAF-18-OLi
DOI: 10.1039/C2ta00616b
Adsorbate Carbon Dioxide: InChIKey CURLTUGMZLYLDI-UHFFFAOYSA-N
Temperature: 273 K
Tabular data in the source: 0
pressure (bar)	uptake (mg/g)
0.0193041	3.79538
0.106699	31.7618
0.207203	52.387
0.307707	69.866
0.458464	88.3937
0.61796	106.222
0.812413	123.352
0.853926	127.547
0.908548	129.644
0.956615	134.189
0.991573	136.636
