Adsorption isotherm of Nitrogen on PAF-18-OLi
DOI: 10.1039/C2ta00616b
Adsorbate Nitrogen: InChIKey IJGRMHOSHXDMSA-UHFFFAOYSA-N
Temperature: 273 K
Tabular data in the source: 0
pressure (bar)	uptake (mg/g)
0.0164278	0.224687
0.259167	0.486872
0.458646	2.05998
0.557184	2.58435
0.665335	3.10872
0.766276	4.68183
0.905671	5.2062
0.965756	6.51712
