Adsorption isotherm of Nitrogen on PAF-18-OLi
DOI: 10.1039/C2ta00616b
Adsorbate Nitrogen: InChIKey IJGRMHOSHXDMSA-UHFFFAOYSA-N
Temperature: 298 K
Tabular data in the source: 0
pressure (bar)	uptake (mg/g)
0.036	0.649162
0.0979595	1.34832
0.200649	1.34832
0.274934	1.6979
0.35359	0.998742
0.451909	0.998742
0.554598	1.34832
0.655102	1.34832
0.753422	1.6979
0.860481	1.6979
0.96317	2.04748
