Adsorption isotherm of Carbon Dioxide on PAF-18-OLi
DOI: 10.1039/C2ta00616b
Adsorbate Carbon Dioxide: InChIKey CURLTUGMZLYLDI-UHFFFAOYSA-N
Temperature: 298 K
Tabular data in the source: 0
pressure (bar)	uptake (mg/g)
0.0149343	0.998742
0.209388	24.4206
0.303338	34.908
0.412581	44.3466
0.554598	56.2324
0.700985	67.7685
0.86485	78.6055
0.991573	88.0441
