Adsorption isotherm of Carbon Dioxide on PAF-18-OLi
DOI: 10.1039/C2ta00616b
Adsorbate Carbon Dioxide: InChIKey CURLTUGMZLYLDI-UHFFFAOYSA-N
Temperature: 273 K
Tabular data in the source: 0
pressure (bar)	uptake (mg/g)
0.00619484	4.84412
0.0411528	15.6811
0.08922	28.9651
0.143842	41.2004
0.198464	53.0861
0.303338	69.1668
0.399472	83.8492
0.504346	96.434
0.602665	107.271
0.707539	118.108
0.810228	127.197
0.910733	136.636
1.0025	143.278
