Adsorption isotherm of Hydrogen on PAF-18-OLi
DOI: 10.1039/C2ta00616b
Adsorbate Hydrogen: InChIKey UFHFLCQGNIYNRP-UHFFFAOYSA-N
Temperature: 77 K
Tabular data in the source: 0
pressure (bar)	uptake (cm3(STP)/g)
0.00619484	9.11397
0.0498923	26.156
0.0979595	41.8871
0.200649	61.9879
0.296783	75.0972
0.401657	86.0215
0.548044	100.442
0.70317	112.24
0.858296	120.543
0.995943	128.845
