Adsorption isotherm of Carbon Dioxide on PAF-18-OLi
DOI: 10.1039/C2ta00616b
Adsorbate Carbon Dioxide: InChIKey CURLTUGMZLYLDI-UHFFFAOYSA-N
Temperature: 298 K
Tabular data in the source: 0
pressure (bar)	uptake (mg/g)
0.00182509	1.6979
0.0826654	10.787
0.152581	19.5265
0.200649	25.1198
0.303338	34.5584
0.399472	43.2979
0.506531	52.7366
0.607035	60.0777
0.711909	68.4677
0.814598	74.7601
0.86485	78.955
0.967539	85.5971
1.00905	88.3937
