Adsorption isotherm of Nitrogen on PAF-18-OH
DOI: 10.1039/C2ta00616b
Adsorbate Nitrogen: InChIKey IJGRMHOSHXDMSA-UHFFFAOYSA-N
Temperature: 298 K
Tabular data in the source: 0
pressure (bar)	uptake (mg/g)
0.0164278	0.224687
0.271184	0.224687
0.463453	1.53561
0.569201	2.05998
0.710999	2.58435
0.869621	2.58435
0.968159	3.10872
