Adsorption isotherm of Carbon Dioxide on PAF-18-OH
DOI: 10.1039/C2ta00616b
Adsorbate Carbon Dioxide: InChIKey CURLTUGMZLYLDI-UHFFFAOYSA-N
Temperature: 273 K
Tabular data in the source: 0
pressure (bar)	uptake (mg/g)
0.011621	2.05998
0.0548816	12.8096
0.100545	21.4617
0.153419	30.3759
0.2111	38.5037
0.249554	44.0096
0.357705	56.8566
0.51152	73.1121
0.720613	90.9407
0.862411	102.739
1.00902	112.702
