Adsorption isotherm of Carbon Dioxide on PAF-18-OH
DOI: 10.1039/C2ta00616b
Adsorbate Carbon Dioxide: InChIKey CURLTUGMZLYLDI-UHFFFAOYSA-N
Temperature: 298 K
Tabular data in the source: 0
pressure (bar)	uptake (mg/g)
0.0149343	0.998742
0.106699	9.03908
0.211573	18.1282
0.406027	32.4609
0.556783	41.55
0.753422	53.0861
0.908548	61.8256
0.974094	64.9718
