Adsorption isotherm of Nitrogen on PAF-18-OLi
DOI: 10.1039/C2ta00616b
Adsorbate Nitrogen: InChIKey IJGRMHOSHXDMSA-UHFFFAOYSA-N
Temperature: 77 K
Tabular data in the source: 0
pressure (bar)	uptake (cm3(STP)/g)
0.00837971	53.5604
0.0127495	167.611
0.0193041	196.451
0.0345982	217.426
0.0608167	230.535
0.154766	264.619
0.314262	293.46
0.454094	318.367
0.659472	348.518
0.810228	369.493
0.858296	377.359
0.908548	378.67
0.956615	387.846
