Adsorption isotherm of Nitrogen on C80H50Mg15O80
DOI: 10.1039/B819559e
Adsorbate Nitrogen: InChIKey IJGRMHOSHXDMSA-UHFFFAOYSA-N
Temperature: 77 K
Tabular data in the source: 0
pressure (bar)	uptake (cm3(STP)/g)
0.0322802	0.808363
0.0860396	0.818472
0.116151	1.02471
0.180662	1.03684
0.22367	1.04493
0.307528	0.860124
0.372039	0.872255
0.412896	0.879939
0.4344	0.883982
0.498905	0.69554
0.518258	0.699179
0.541919	0.904202
0.58277	0.711311
0.602123	0.71495
0.627934	0.920377
0.636535	0.921994
0.673091	0.928869
0.711792	0.735574
0.735452	0.940596
0.765558	0.946257
0.778454	0.74811
0.830075	1.15896
0.855886	1.36439
0.870938	1.36722
0.90105	1.57346
0.920397	1.37652
0.937618	1.98148
0.965585	2.38788
0.987101	2.79308
1.00648	3.59901
1.03018	5.00748
1.04961	7.61859
1.05614	10.2273
