Adsorption isotherm of Hydrogen on C80H50Mg15O80
DOI: 10.1039/B819559e
Adsorbate Hydrogen: InChIKey UFHFLCQGNIYNRP-UHFFFAOYSA-N
Temperature: 77 K
Tabular data in the source: 0
pressure (bar)	uptake (cm3(STP)/g)
0.0179882	1.44628
0.0605351	3.6157
0.0948731	6.50826
0.139058	8.67769
0.175045	11.1364
0.214308	13.595
0.253575	15.9091
0.296112	18.5124
0.337017	20.8264
0.373007	23.1405
0.413905	25.7438
0.451523	28.4917
0.49734	30.9504
0.533333	33.1198
0.572593	35.7231
0.613499	38.0372
0.652762	40.4959
0.69366	43.0992
0.731292	45.2686
0.770559	47.5826
0.81146	50.0413
0.850734	52.0661
0.890001	54.3802
0.930909	56.5496
0.970166	59.2975
1.00944	61.4669
1.0487	64.0702
