Adsorption isotherm of Hydrogen on C80H50Mg15O80
DOI: 10.1039/B819559e
Adsorbate Hydrogen: InChIKey UFHFLCQGNIYNRP-UHFFFAOYSA-N
Temperature: 77 K
Tabular data in the source: 0
pressure (bar)	uptake (cm3(STP)/g)
0.00645112	0.00121315
0.0193965	1.40766
0.0603275	3.82223
0.099102	6.03583
0.137889	8.65057
0.176663	10.8642
0.219751	13.4797
0.258532	15.8939
0.299469	18.509
0.338249	20.9232
0.379174	23.1372
0.420105	25.5518
0.461049	28.3675
0.499829	30.7817
0.538604	32.9953
0.581691	35.6108
0.622622	38.0254
0.661403	40.4396
0.702334	42.8541
0.743259	45.0681
0.78204	47.4823
0.820814	49.6959
0.863895	52.1109
0.90267	54.3245
0.941444	56.5381
0.984532	59.1536
1.02546	61.5682
