Adsorption isotherm of Hydrogen on C10H14Mg2O14
DOI: 10.1039/B819559e
Adsorbate Hydrogen: InChIKey UFHFLCQGNIYNRP-UHFFFAOYSA-N
Temperature: 77 K
Tabular data in the source: 0
pressure (bar)	uptake (cm3(STP)/g)
0.0474857	1.15702
0.0966368	1.15702
0.109744	1.15702
0.140849	2.16942
0.178518	2.74793
0.199807	3.18182
0.229294	3.32645
0.257133	3.90496
0.293173	4.04959
0.325927	4.6281
0.383253	5.35124
0.442218	6.07438
0.476607	6.79752
0.499537	7.08678
0.540476	7.95455
0.565045	8.2438
0.597802	8.67769
0.624006	9.11157
0.656753	9.97934
0.679687	10.124
0.741918	11.281
0.776306	12.0041
0.827082	12.5826
0.858201	13.0165
0.86966	13.4504
0.900768	14.3182
0.944984	15.186
0.961358	15.6198
0.990835	16.1983
1.01867	17.0661
1.04651	17.6446
