Adsorption isotherm of Hydrogen on [Co2(BTEC)(H2O)4]2H2O
DOI: 10.1039/B819559e
Adsorbate Hydrogen: InChIKey UFHFLCQGNIYNRP-UHFFFAOYSA-N
Temperature: 77 K
Tabular data in the source: 0
pressure (bar)	uptake (cm3(STP)/g)
0.0196435	0.72314
0.0524075	0.867769
0.0868065	1.15702
0.114649	1.59091
0.140852	2.02479
0.171978	2.16942
0.199824	2.45868
0.265352	2.74793
0.296477	2.89256
0.319411	3.03719
0.352178	3.03719
0.386577	3.32645
0.41115	3.47107
0.438995	3.76033
0.470128	3.6157
0.502881	4.19421
0.530734	4.19421
0.565126	4.77273
0.596255	4.77273
0.622462	5.06198
0.653588	5.20661
0.689625	5.49587
0.714191	5.92975
0.745309	6.36364
0.776425	6.94215
0.807544	7.37603
0.855046	7.80992
0.869771	8.67769
0.892712	8.53306
0.946775	8.67769
0.97789	9.2562
0.986065	9.97934
1.01227	10.5579
1.06958	11.5702
