Adsorption isotherm of Hydrogen on C80H50Mg15O80
DOI: 10.1039/B819559e
Adsorbate Hydrogen: InChIKey UFHFLCQGNIYNRP-UHFFFAOYSA-N
Temperature: 77 K
Tabular data in the source: 0
pressure (bar)	uptake (cm3(STP)/g)
0.0458168	2.45868
0.0769188	3.6157
0.104751	4.48347
0.139123	5.92975
0.168586	7.08678
0.199688	8.2438
0.225875	9.40083
0.256977	10.5579
0.289721	11.5702
0.320826	12.5826
0.350296	13.4504
0.378118	14.7521
0.407585	15.7645
0.440326	16.9215
0.471427	18.0785
0.500898	18.9463
0.530365	19.9587
0.56475	20.8264
0.589305	21.6942
0.622046	22.8512
0.651516	23.719
0.679348	24.5868
0.712088	25.7438
0.743197	26.6116
0.772661	27.7686
0.805401	28.9256
0.831595	29.7934
0.8627	30.8058
0.89544	31.9628
0.924904	33.1198
0.952733	34.1322
0.983841	35
1.0133	36.157
1.04605	37.314
