Adsorption isotherm of Hydrogen on C10H14Mg2O14
DOI: 10.1039/B819559e
Adsorbate Hydrogen: InChIKey UFHFLCQGNIYNRP-UHFFFAOYSA-N
Temperature: 77 K
Tabular data in the source: 0
pressure (bar)	uptake (cm3(STP)/g)
0.0196266	1.44628
0.0589035	3.32645
0.0948968	5.49587
0.135805	7.66529
0.171805	9.54545
0.214356	11.5702
0.256906	13.595
0.29619	15.186
0.333828	17.0661
0.373105	18.9463
0.410743	20.8264
0.492574	24.5868
0.533489	26.4669
0.572776	27.9132
0.613698	29.5041
0.649709	30.9504
0.688982	32.9752
0.731546	34.4215
0.770826	36.157
0.811741	38.0372
0.84938	39.9174
0.890302	41.5083
0.929582	43.2438
0.970491	45.4132
1.00978	46.7149
1.04905	49.0289
