Adsorption isotherm of Nitrogen on PC-COF
DOI: 10.1039/c6py00281a
Article source: Figure S7a
Adsorbate Nitrogen: InChIKey IJGRMHOSHXDMSA-UHFFFAOYSA-N
Kind: experiment
Temperature: 77 K
Tabular data in the source: 0
pressure (bar)	uptake (cm3(STP)/g)
0.013627	2.86006
0.025307	4.90296
0.04088	5.92441
0.048667	4.49438
0.081761	6.53728
0.083707	5.31154
0.128481	5.31154
0.136268	7.35444
0.147948	7.76302
0.159628	5.31154
0.186882	8.1716
0.198562	5.92441
0.227762	8.1716
0.231656	5.51583
0.266696	7.96731
0.266696	6.1287
0.295896	9.19305
0.303683	6.1287
0.33483	8.58018
0.336777	5.92441
0.371817	8.58018
0.373764	5.92441
0.406857	8.98876
0.414644	6.53728
0.445791	8.98876
0.445791	5.51583
0.482778	8.98876
0.478885	6.1287
0.515872	8.1716
0.513925	5.72012
0.543125	9.19305
0.548965	5.72012
0.578166	8.78447
0.582059	6.1287
0.620993	8.98876
0.620993	6.1287
0.656033	8.98876
0.656033	6.74157
0.689127	8.78447
0.69302	7.15015
0.724167	9.60163
0.728061	8.1716
0.755314	10.0102
0.763101	8.58018
0.803981	10.4188
0.800088	10.2145
0.839022	11.4402
0.839022	10.4188
0.870169	11.6445
0.870169	14.7089
0.895476	14.9132
0.901316	19.2033
0.936356	20.429
0.936356	28.8049
0.97529	33.9122
0.971396	46.7824
0.99281	51.2768
0.985023	63.5342
1.00449	70.4801
0.994756	78.856
1.00644	96.4249
1.00644	95.812
