Adsorption isotherm of Carbon Dioxide on PC-COF
DOI: 10.1039/c6py00281a
Article source: Figure S7b
Adsorbate Carbon Dioxide: InChIKey CURLTUGMZLYLDI-UHFFFAOYSA-N
Kind: experiment
Temperature: 273 K
Tabular data in the source: 0
pressure (bar)	uptake (cm3(STP)/g)
0.004624	1.8724
0.005675	0.580314
0.022555	2.73338
0.037917	3.74925
0.061585	4.63222
0.055819	1.68447
0.079875	5.48124
0.084316	2.61573
0.102859	3.58704
0.114288	6.09457
0.144076	6.78487
0.157794	4.306
0.171497	7.48967
0.185398	5.21313
0.192654	8.28346
0.232066	5.799
0.24293	8.97497
0.278451	6.50549
0.29396	9.68732
0.31675	7.15785
0.351219	10.3288
0.365451	7.80648
0.410796	11.0364
0.421457	8.36724
0.471791	11.704
0.479011	9.03203
0.532402	12.2663
0.538102	9.62269
0.593288	10.2538
0.600448	12.7628
0.656053	10.8732
0.667472	13.1718
0.722977	11.5645
0.690806	10.9443
0.731593	13.5344
0.78471	12.1732
0.798044	13.8903
0.852655	12.6389
0.863578	14.1309
0.917197	13.1083
0.933237	14.2281
0.975284	13.5435
1.00021	14.3911
1.05621	14.5564
1.03039	14.0507
1.10188	14.6004
