Adsorption isotherm of Methane on [Zn2(CN5H2)3(H2O)3]6H2O Ac
DOI: 10.1002/cplu.201200270
Adsorbate Methane: InChIKey VNWKTOKETHGBQD-UHFFFAOYSA-N
Temperature: 273 K
Tabular data in the source: 0
pressure (bar)	uptake (mmol/g)
0.146319	0.141024
0.292508	0.251974
0.42357	0.333038
0.588948	0.421191
0.709199	0.479835
0.825068	0.515977
1.00317	0.573895
1.16625	0.624483
1.2092	0.646501
