Adsorption isotherm of Nitrogen on [Zn2(CN5H2)3(H2O)3]6H2O Ac
DOI: 10.1002/cplu.201200270
Adsorbate Nitrogen: InChIKey IJGRMHOSHXDMSA-UHFFFAOYSA-N
Temperature: 273 K
Tabular data in the source: 0
pressure (bar)	uptake (mmol/g)
0.298131	0.0639332
0.602658	0.120267
0.904946	0.154073
1.20081	0.18796
