Adsorption isotherm of Carbon Dioxide on [Zn2(CN5H2)3(H2O)3]6H2O TMC
DOI: 10.1002/cplu.201200270
Adsorbate Carbon Dioxide: InChIKey CURLTUGMZLYLDI-UHFFFAOYSA-N
Temperature: 273 K
Tabular data in the source: 0
pressure (bar)	uptake (mmol/g)
0.0787659	0.878712
0.19072	1.50137
0.319011	1.93585
0.46185	2.26489
0.619333	2.51104
0.787305	2.70442
0.961479	2.84509
1.13767	2.95567
1.21078	3.0149
