Adsorption isotherm of Methane on [Zn2(CN5H2)3(H2O)3]6H2O TMC
DOI: 10.1002/cplu.201200270
Adsorbate Methane: InChIKey VNWKTOKETHGBQD-UHFFFAOYSA-N
Temperature: 273 K
Tabular data in the source: 0
pressure (bar)	uptake (mmol/g)
0.163364	0.118254
0.335363	0.251437
0.511487	0.346974
0.685339	0.412464
0.863509	0.48542
1.03522	0.550937
1.20469	0.593926
