Adsorption isotherm of Nitrogen on [Zn2(CN5H2)3(H2O)3]6H2O TMC
DOI: 10.1002/cplu.201200270
Adsorbate Nitrogen: InChIKey IJGRMHOSHXDMSA-UHFFFAOYSA-N
Temperature: 273 K
Tabular data in the source: 0
pressure (bar)	uptake (mmol/g)
0.180151	0.0353364
0.368971	0.0931207
0.551232	0.120912
0.737812	0.156168
0.926502	0.183878
1.10445	0.204205
1.19668	0.225605
