Adsorption isotherm of Nitrogen on [Zn2(CN5H2)3(H2O)3]6H2O
DOI: 10.1002/cplu.201200270
Adsorbate Nitrogen: InChIKey IJGRMHOSHXDMSA-UHFFFAOYSA-N
Temperature: 273 K
Tabular data in the source: 0
pressure (bar)	uptake (mmol/g)
0.00863541	0.0149294
0.18658	0.0352559
0.379588	0.0704312
0.583277	0.0979539
0.784791	0.117985
0.992734	0.137936
1.19428	0.165485
