Adsorption isotherm of Carbon Dioxide on [Zn2(CN5H2)3(H2O)3]6H2O TMC
DOI: 10.1002/cplu.201200270
Adsorbate Carbon Dioxide: InChIKey CURLTUGMZLYLDI-UHFFFAOYSA-N
Temperature: 288 K
Tabular data in the source: 0
pressure (bar)	uptake (mmol/g)
0.0125373	0.00892857
0.129334	0.883929
0.267729	1.44643
0.427806	1.77679
0.603449	2.01786
0.788423	2.19643
0.982755	2.33929
1.20528	2.48214
