Adsorption isotherm of Carbon Dioxide on [Zn2(CN5H2)3(H2O)3]6H2O Ac
DOI: 10.1002/cplu.201200270
Adsorbate Carbon Dioxide: InChIKey CURLTUGMZLYLDI-UHFFFAOYSA-N
Temperature: 273 K
Tabular data in the source: 0
pressure (bar)	uptake (mmol/g)
0.0498469	0.630954
0.124891	1.14129
0.210359	1.58383
0.333978	1.92815
0.457306	2.2048
0.60174	2.40599
0.758869	2.56944
0.911648	2.7179
1.07706	2.81357
1.20806	2.8796
