Adsorption isotherm of Carbon Dioxide on [Zn2(CN5H2)3(H2O)3]6H2O
DOI: 10.1002/cplu.201200270
Adsorbate Carbon Dioxide: InChIKey CURLTUGMZLYLDI-UHFFFAOYSA-N
Temperature: 273 K
Tabular data in the source: 0
pressure (bar)	uptake (mmol/g)
0.128081	0.885613
0.274062	1.44769
0.434107	1.79155
0.608732	2.03748
0.791638	2.21564
0.993668	2.35597
1.21073	2.50362
