Adsorption isotherm of Carbon Dioxide on [Zn2(CN5H2)3(H2O)3]6H2O TMC
DOI: 10.1002/cplu.201200270
Adsorbate Carbon Dioxide: InChIKey CURLTUGMZLYLDI-UHFFFAOYSA-N
Temperature: 298 K
Tabular data in the source: 0
pressure (bar)	uptake (mmol/g)
0.128249	0.764763
0.261585	1.1467
0.460848	1.48372
0.659662	1.6783
0.79213	1.78428
0.924543	1.87246
1.19869	2.01315
