Adsorption isotherm of Carbon Dioxide on [Zn2(CN5H2)3(H2O)3]6H2O TMC
DOI: 10.1002/cplu.201200270
Adsorbate Carbon Dioxide: InChIKey CURLTUGMZLYLDI-UHFFFAOYSA-N
Temperature: 323 K
Tabular data in the source: 0
pressure (bar)	uptake (mmol/g)
0.00640403	0.0355676
0.155274	0.355096
0.322797	0.603289
0.493297	0.79805
0.666776	0.93938
0.85281	1.07173
1.04825	1.19511
1.19946	1.25647
