Adsorption isotherm of Methane on [Zn2(CN5H2)3(H2O)3]6H2O
DOI: 10.1002/cplu.201200270
Adsorbate Methane: InChIKey VNWKTOKETHGBQD-UHFFFAOYSA-N
Temperature: 273 K
Tabular data in the source: 0
pressure (bar)	uptake (mmol/g)
0.00863541	0.0149294
0.172032	0.140701
0.341792	0.251356
0.53285	0.331669
0.706734	0.404678
0.902111	0.492455
1.12307	0.549836
1.20248	0.578916
