Adsorption isotherm of Carbon Dioxide on [La(TATAB)(H2O)].6H2O
DOI: 10.1002/chem.201405168
Article source: Figure 3
Adsorbate Carbon Dioxide: InChIKey CURLTUGMZLYLDI-UHFFFAOYSA-N
Kind: experiment
Temperature: 298 K
Tabular data in the source: 0
pressure (bar)	uptake (cm3(STP)/g)
0	0
0.05981	3.13084
0.124198	4.89414
0.197813	8.9223
0.262214	11.5947
0.317407	13.3658
0.384094	15.1272
0.515182	19.5609
0.577283	22.2352
0.641658	23.0895
0.710656	25.7579
0.775051	27.9758
0.837134	29.2865
0.906119	31.0459
0.970514	33.2637
1.06938	34.9976
