Adsorption isotherm of Methane on [La(TATAB)(H2O)].6H2O
DOI: 10.1002/chem.201405168
Article source: Figure 3
Adsorbate Methane: InChIKey VNWKTOKETHGBQD-UHFFFAOYSA-N
Kind: experiment
Temperature: 273 K
Tabular data in the source: 0
pressure (bar)	uptake (cm3(STP)/g)
0	0
0.080491	2.65867
0.144867	3.51289
0.167853	3.4933
0.206942	4.36907
0.252929	5.23896
0.282817	5.66803
0.303511	6.10494
0.331101	6.53597
0.365587	6.96112
0.400074	7.38627
0.466766	9.60216
0.538037	10.4505
0.602418	11.7593
0.671397	13.0641
0.738077	14.3709
0.804756	15.6777
0.876028	16.5261
0.938098	16.9277
1.11515	20.8677
