Adsorption isotherm of Hydrogen on [La(TATAB)(H2O)].6H2O
DOI: 10.1002/chem.201405168
Article source: Figure 3
Adsorbate Hydrogen: InChIKey UFHFLCQGNIYNRP-UHFFFAOYSA-N
Kind: experiment
Temperature: 77 K
Tabular data in the source: 0
pressure (bar)	uptake (cm3(STP)/g)
0.002377	5.45252
0.004728	9.08688
0.009377	12.7193
0.012009	35.8989
0.016397	21.3497
0.018996	42.2565
0.025696	28.6145
0.030587	49.0648
0.039847	53.6024
0.041891	35.8734
0.049107	58.14
0.053482	42.6817
0.058367	62.6775
0.06045	47.6757
0.065315	66.308
0.072022	53.1204
0.081281	57.658
0.081458	69.9306
0.088223	60.8339
0.09299	72.648
0.099768	64.4604
0.099938	76.2785
0.125184	73.5297
0.129932	83.9802
0.150704	89.8715
0.155178	81.2314
0.178248	87.1208
0.178353	94.3934
0.203717	99.8264
0.205916	93.0063
0.231358	103.894
0.233573	97.9827
0.254391	107.056
0.258923	102.507
0.284261	106.121
0.284325	110.667
0.309604	110.191
0.309669	114.736
0.332689	116.989
0.334928	112.896
0.360265	116.511
0.364914	120.144
0.387888	119.215
0.38794	122.851
0.410946	124.195
0.413211	121.921
0.443126	124.168
0.468451	126.873
0.491477	129.581
0.519087	131.376
0.546696	133.17
0.572013	135.422
0.599617	136.762
0.622629	138.56
0.647933	139.902
0.67555	142.151
0.705458	143.944
0.730763	145.286
0.756074	147.083
0.783677	148.423
0.808975	149.31
0.834279	150.653
0.859584	151.995
0.887187	153.335
0.912485	154.222
0.935491	155.566
0.963094	156.906
0.99299	157.79
1.01599	158.679
1.04359	160.02
1.06659	160.909
1.0942	162.704
1.1195	163.591
