Adsorption isotherm of Carbon Dioxide on [La(TATAB)(H2O)].6H2O
DOI: 10.1002/chem.201405168
Article source: Figure 3
Adsorbate Carbon Dioxide: InChIKey CURLTUGMZLYLDI-UHFFFAOYSA-N
Kind: experiment
Temperature: 273 K
Tabular data in the source: 0
pressure (bar)	uptake (cm3(STP)/g)
0	0
0.101303	11.2773
0.174958	18.0327
0.239391	22.9778
0.308441	29.2826
0.384375	34.6724
0.453412	40.0681
0.520137	44.5567
0.593772	49.9484
0.655901	54.4409
0.727224	58.9256
0.803143	63.4064
0.872175	68.3475
0.94349	72.3776
1.01022	76.8662
1.08383	80.4398
1.15283	83.5628
