Adsorption isotherm of Methane on [La(TATAB)(H2O)].6H2O
DOI: 10.1002/chem.201405168
Article source: Figure 3
Adsorbate Methane: InChIKey VNWKTOKETHGBQD-UHFFFAOYSA-N
Kind: experiment
Temperature: 298 K
Tabular data in the source: 0
pressure (bar)	uptake (cm3(STP)/g)
0	0
0.027531	0.442813
0.050461	-0.021505
0.068824	0.87976
0.094055	0.869007
0.126167	0.855322
0.153698	1.29813
0.174347	1.74388
0.220229	2.17887
0.256934	2.61777
0.282171	3.06156
0.311989	3.04886
0.341808	3.03615
0.387688	3.47114
0.467994	5.2551
0.534517	5.68129
0.598755	6.56301
0.662979	6.53564
0.731802	7.4154
0.800619	7.84062
1.1149	10.8885
