Adsorption isotherm of Carbon Dioxide on [Cd(bdc)(4-bpmh)]n.2n(H2O)
DOI: 10.1002/asia.201403123
Article source: Figure 3
Adsorbate Carbon Dioxide: InChIKey CURLTUGMZLYLDI-UHFFFAOYSA-N
Kind: experiment
Temperature: 195 K
Tabular data in the source: 0
pressure (bar)	uptake (cm3(STP)/g)
0	6.14865
0.000808	17.027
0.009199	21.5203
0.023659	25.3041
0.038028	29.7973
0.050196	28.1419
0.064686	31.6892
0.079843	30.0338
0.088355	33.5811
0.094667	30.9797
0.124374	32.3986
0.138894	35.7095
0.151123	33.5811
0.177933	34.2905
0.189495	37.3649
0.201753	35
0.240125	38.7838
0.255372	36.4189
0.287796	39.9662
0.303105	37.1284
0.338518	40.6757
0.359743	38.3108
0.389209	41.6216
0.407445	39.2568
0.433952	42.3311
0.464143	39.9662
0.478725	42.8041
0.514834	40.9122
0.529446	43.5135
0.568514	41.8581
0.577238	43.75
0.622225	42.5676
0.627929	44.6959
0.672945	43.277
0.675692	45.1689
0.720707	43.75
0.726444	45.6419
0.771429	44.4595
0.780214	45.8784
0.825139	45.1689
0.830965	46.3514
0.872901	45.6419
0.875769	46.5878
0.90273	46.1149
0.923592	46.5878
0.938507	46.8243
0.992246	47.2973
