Adsorption isotherm of Carbon Dioxide on [Cd(bdc)(4-bpmh)]n.2n(H2O)
DOI: 10.1002/asia.201403123
Article source: Figure 4a
Adsorbate Carbon Dioxide: InChIKey CURLTUGMZLYLDI-UHFFFAOYSA-N
Kind: experiment
Temperature: 298 K
Tabular data in the source: 0
pressure (bar)	uptake (cm3(STP)/g)
0	0
0.049532	2.91367
0.082553	4.3705
0.102365	5.82734
0.148594	8.2554
0.155199	7.1223
0.198126	9.55036
0.20473	8.41727
0.247658	11.1691
0.260867	9.71223
0.297189	12.1403
0.303794	10.6835
0.343418	13.2734
0.366534	11.9784
0.396253	14.2446
0.416064	12.9496
0.452388	15.2158
0.458992	13.5971
0.495315	15.8633
0.511826	14.4065
0.544847	16.8345
0.564659	15.3777
0.594378	17.3201
0.624097	16.1871
0.64391	18.1295
0.673629	16.9964
0.693442	18.777
0.719858	17.8058
0.746275	19.4245
0.772692	18.1295
0.792504	19.7482
0.81562	20.2338
0.818921	18.9388
0.848641	20.3957
0.851942	19.7482
0.86515	20.7194
0.881661	20.2338
0.901474	21.205
0.91138	20.3957
0.934495	21.205
0.941099	20.5576
0.967516	21.6906
0.970817	21.0432
0.993933	21.3669
1.02035	21.8525
