Adsorption isotherm of Carbon Dioxide on [Cd(2-NH2bdc)(4-bpmh)]n.2n(H2O)
DOI: 10.1002/asia.201403123
Article source: Figure 4a
Adsorbate Carbon Dioxide: InChIKey CURLTUGMZLYLDI-UHFFFAOYSA-N
Kind: experiment
Temperature: 273 K
Tabular data in the source: 0
pressure (bar)	uptake (cm3(STP)/g)
0.003302	4.3705
0.023115	11.8165
0.049532	16.3489
0.07925	19.7482
0.102365	22.5
0.122178	23.3094
0.145292	26.223
0.151897	25.0899
0.175011	26.223
0.194824	28.6511
0.20473	27.518
0.254262	30.4317
0.257564	29.1367
0.300491	31.8885
0.310397	30.5935
0.350023	33.1835
0.359929	31.7266
0.396253	34.4784
0.409461	33.1835
0.449086	35.4496
0.462294	34.1547
0.492013	36.4209
0.511826	35.1259
0.541545	37.2302
0.571264	36.0971
0.594378	38.0396
0.624097	36.9065
0.64391	38.8489
0.670326	38.0396
0.690139	39.4964
0.723161	38.8489
0.746275	40.3058
0.775994	39.8201
0.795807	41.1151
0.825525	40.4676
0.845338	41.6007
0.87836	41.9245
0.894869	41.4388
0.921287	42.4101
0.92789	41.9245
0.964214	42.7338
1.00714	43.2194
