Adsorption isotherm of Carbon Dioxide on [Cd(2-NH2bdc)(4-bpmh)]n.2n(H2O)
DOI: 10.1002/asia.201403123
Article source: Figure 3
Adsorbate Carbon Dioxide: InChIKey CURLTUGMZLYLDI-UHFFFAOYSA-N
Kind: experiment
Temperature: 195 K
Tabular data in the source: 0
pressure (bar)	uptake (cm3(STP)/g)
0.001192	32.6351
0.021236	44.223
0.041825	46.8243
0.047621	48.2432
0.062354	49.8986
0.074188	50.8446
0.088981	52.027
0.112711	53.4459
0.136472	54.6284
0.169138	56.2838
0.195917	57.2297
0.249445	59.3581
0.306053	60.777
0.335852	61.4865
0.350766	61.723
0.401457	62.6689
0.440192	63.6149
0.452117	63.8514
0.484905	64.5608
0.502808	64.7973
0.529618	65.5068
0.559447	65.9797
0.60419	66.6892
0.63103	67.1622
0.660888	67.3986
0.684739	67.8716
0.71161	68.1081
0.73546	68.5811
0.765289	69.0541
0.783193	69.2905
0.813052	69.527
0.836903	70
0.87274	70.2365
0.902569	70.7095
0.923461	70.9459
0.950301	71.4189
0.992085	71.8919
