Adsorption isotherm of Carbon Dioxide on [Cd(2-NH2bdc)(4-bpmh)]n.2n(H2O)
DOI: 10.1002/asia.201403123
Article source: Figure 4a
Adsorbate Carbon Dioxide: InChIKey CURLTUGMZLYLDI-UHFFFAOYSA-N
Kind: experiment
Temperature: 298 K
Tabular data in the source: 0
pressure (bar)	uptake (cm3(STP)/g)
0.009906	1.94245
0.029719	5.17986
0.052834	7.76978
0.07925	10.5216
0.12548	14.0827
0.148594	16.1871
0.194824	17.6439
0.198126	18.9388
0.250959	19.7482
0.300491	22.6619
0.310397	21.5288
0.350023	24.2806
0.359929	22.6619
0.399554	25.7374
0.406159	23.9568
0.449086	26.8705
0.455691	25.0899
0.495315	27.8417
0.515128	26.223
0.544847	28.8129
0.567961	27.3561
0.59768	29.4604
0.620796	28.6511
0.647212	30.7554
0.670326	29.2986
0.693442	31.7266
0.719858	30.2698
0.749577	32.3741
0.772692	31.241
0.799109	33.3453
0.828828	32.2122
0.855244	34.1547
0.871755	32.8597
0.875057	34.4784
0.901474	33.3453
0.904776	34.6403
0.931193	34.8022
0.934495	33.9928
0.967516	35.2878
0.990631	35.1259
1.01705	35.7734
