Adsorption isotherm of Carbon Dioxide on [Cd(bdc)(4-bpmh)]n.2n(H2O)
DOI: 10.1002/asia.201403123
Article source: Figure 4a
Adsorbate Carbon Dioxide: InChIKey CURLTUGMZLYLDI-UHFFFAOYSA-N
Kind: experiment
Temperature: 273 K
Tabular data in the source: 0
pressure (bar)	uptake (cm3(STP)/g)
0	0
0.009906	2.26619
0.033021	5.01799
0.059438	7.76978
0.085855	10.036
0.092459	12.6259
0.105667	11.3309
0.128782	12.464
0.141991	15.2158
0.151897	13.5971
0.181616	14.8921
0.198126	17.3201
0.208032	15.5396
0.247658	18.4532
0.260867	16.8345
0.293886	19.5863
0.307096	17.8058
0.343418	20.8813
0.363231	19.1007
0.399554	21.6906
0.412763	19.7482
0.445783	22.3381
0.462294	20.7194
0.485409	22.9856
0.518429	21.6906
0.53494	23.4712
0.574566	22.6619
0.587774	24.2806
0.627399	22.9856
0.634004	24.7662
0.680233	25.0899
0.686837	23.9568
0.733066	24.2806
0.739671	25.5755
0.782598	25.2518
0.789202	26.3849
0.835431	25.8993
0.842036	26.8705
0.881661	27.1942
0.888266	26.5468
0.908079	26.8705
0.92789	27.0324
0.937798	27.518
1.00054	28.0036
