Adsorption isotherm of Nitrogen on MOF/Si
DOI: 10.1002/pi.4955
Article source: Figure 4
Adsorbate Nitrogen: InChIKey IJGRMHOSHXDMSA-UHFFFAOYSA-N
Kind: experiment
Temperature: 70 K
Tabular data in the source: 0
pressure (bar)	uptake (mmol/g)
1.5e-05	3.27197
0.099109	5.6449
0.20371	8.83132
0.284451	10.4013
0.304639	11.2027
0.387211	11.9532
0.403721	11.1217
0.482627	12.6931
0.50648	12.6736
0.603731	13.4121
0.697328	17.4255
0.79826	20.6149
0.899199	25.4403
0.932275	36.0472
0.945131	38.4907
0.956249	62.2035
0.959847	46.6586
0.969352	118.634
0.970954	67.9174
0.971404	166.077
0.976545	86.7268
0.977014	188.976
0.978455	103.085
0.982196	118.624
0.98594	134.981
0.986023	152.977
0.986087	166.883
0.98982	180.785
0.989888	195.509
0.993617	208.594
0.993681	222.5
0.993741	235.588
