Adsorption isotherm of Nitrogen on NH2-MIL-53(Al)
DOI: 10.1002/pi.4955
Article source: Figure 4
Adsorbate Nitrogen: InChIKey IJGRMHOSHXDMSA-UHFFFAOYSA-N
Kind: experiment
Temperature: 70 K
Tabular data in the source: 0
pressure (bar)	uptake (mmol/g)
0.001835	100.405
0.016514	126.504
0.049541	142.776
0.117431	159.808
0.194495	171.111
0.256881	181.621
0.337615	194.551
0.429358	208.279
0.519266	222.826
0.6	235.755
0.680734	251.95
0.757798	268.151
0.833028	288.436
0.886239	312.022
0.954128	351.095
0.985321	387.779
0.990826	400.831
