Adsorption isotherm of Carbon Dioxide on MIL-53(Cr)
DOI: 10.1002/anie.200902998
Adsorbate Carbon Dioxide: InChIKey CURLTUGMZLYLDI-UHFFFAOYSA-N
Temperature: 230 K
Tabular data in the source: 0
pressure (bar)	uptake (molecules/unitcell)
0.00353982	0.273417
0.00530973	0.656028
0.00884956	0.98409
0.0141593	1.36689
0.0176991	1.61299
0.0230088	1.85918
0.0353982	2.10576
0.0460177	2.27027
0.0707965	2.43556
0.104425	2.57401
0.136283	2.68504
0.173451	2.79636
0.223009	2.90836
0.279646	2.99342
0.322124	3.05039
0.384071	3.16306
0.453097	3.2488
0.495575	3.36041
0.532743	3.52638
0.557522	3.66435
0.573451	3.85647
0.59646	4.24024
0.615929	4.73311
0.637168	5.36269
0.658407	6.1562
0.669027	6.56661
0.683186	6.9499
0.695575	7.36041
0.713274	7.77122
0.725664	8.04512
0.734513	8.26418
0.748673	8.45621
0.761062	8.64815
0.789381	8.92292
0.814159	9.03356
0.840708	9.11698
0.870796	9.20059
0.902655	9.25698
0.925664	9.31288
0.959292	9.34204
0.982301	9.39794
1.01416	9.427
