Adsorption isotherm of Carbon Dioxide on MIL-53(Cr)
DOI: 10.1002/anie.200902998
Adsorbate Carbon Dioxide: InChIKey CURLTUGMZLYLDI-UHFFFAOYSA-N
Temperature: 230 K
Tabular data in the source: 0
pressure (bar)	uptake (molecules/unitcell)
0.00353982	0.0275158
0.0513274	2.05199
0.100885	2.43721
0.150442	2.63117
0.2	2.74317
0.249558	2.85517
0.302655	2.91271
0.350442	2.94265
0.4	2.97268
0.451327	2.97548
0.500885	3.08748
0.550442	3.99183
0.6	4.97814
0.649558	5.96446
0.700885	6.95087
0.752212	7.99192
0.80177	9.06021
0.849558	9.14478
0.902655	9.20233
0.948673	9.20485
1	9.28962
