Adsorption isotherm of Nitrogen on ZIF-8
DOI: 10.1016/j.electacta.2014.11.093
Article source: Figure 5
Adsorbate Nitrogen: InChIKey IJGRMHOSHXDMSA-UHFFFAOYSA-N
Kind: experiment
Temperature: 77 K
Tabular data in the source: 0
pressure (bar)	uptake (mmol/g)
0.009928	8.7677
0.02464	9.84236
0.03201	10.1489
0.041853	10.3013
0.051706	10.2997
0.064021	10.2978
0.083707	10.6025
0.096022	10.6006
0.108338	10.5987
0.147756	10.4388
0.189629	10.4324
0.206861	10.5836
0.295531	10.5699
0.305384	10.5684
0.389128	10.5555
0.401444	10.5536
0.497475	11.0004
0.504865	10.9993
0.598471	10.831
0.600934	10.8306
0.701911	10.9689
0.706837	10.9682
0.79547	11.5699
0.81273	11.2596
0.842268	11.5627
0.889029	12.1709
0.896456	11.5544
0.930873	12.626
0.980115	12.9261
