Adsorption isotherm of Nitrogen on ZIF-8
DOI: 10.1016/j.electacta.2014.11.093
Article source: Figure 5
Adsorbate Nitrogen: InChIKey IJGRMHOSHXDMSA-UHFFFAOYSA-N
Kind: experiment
Temperature: 77 K
Tabular data in the source: 0
pressure (bar)	uptake (mmol/g)
0.004938	7.07692
0.009877	7.69231
0.017284	8
0.024691	8.46154
0.02963	9.38462
0.032099	8.92308
0.039506	9.53846
0.046914	9.53846
0.05679	9.53846
0.061728	9.53846
0.074074	9.53846
0.083951	9.53846
0.091358	9.53846
0.101235	9.53846
0.106173	9.69231
0.145679	9.84615
0.187654	9.84615
0.207407	9.84615
0.298765	10
0.301235	10
0.395062	10.1538
0.402469	10
0.491358	10.1538
0.506173	10.1538
0.602469	10.1538
0.698765	10.4615
0.708642	10.3077
0.802469	10.3077
0.809877	10.3077
0.837037	10.4615
0.888889	10.4615
0.901235	10.3077
0.935802	10.7692
0.982716	10.9231
