Adsorption isotherm of Nitrogen on ZIF-8
DOI: 10.1016/j.electacta.2014.11.093
Article source: Figure 5
Adsorbate Nitrogen: InChIKey IJGRMHOSHXDMSA-UHFFFAOYSA-N
Kind: experiment
Temperature: 77 K
Tabular data in the source: 0
pressure (bar)	uptake (mmol/g)
0.006859	18.6143
0.009142	21.5371
0.011624	21.229
0.018899	23.074
0.023693	25.2271
0.033498	25.9948
0.035961	25.9945
0.053165	26.6072
0.067915	27.0665
0.082684	27.218
0.09499	27.37
0.104842	27.3685
0.149149	27.8232
0.188549	27.971
0.203299	28.4303
0.29195	28.7243
0.296867	28.8774
0.392889	29.478
0.40026	29.7846
0.496282	30.3852
0.506143	30.2298
0.597239	30.8312
0.599693	30.9847
0.700622	31.8922
0.705539	32.0453
0.796597	33.2621
0.811385	33.1059
0.835893	35.1022
0.884851	40.0177
0.894969	35.7085
0.93146	43.0875
0.978221	43.6957
