Adsorption isotherm of Argon on Ni22-IRMOF-1
DOI: 10.1021/Ic3002898
Adsorbate Argon: InChIKey XKRFYHLGVUSROY-UHFFFAOYSA-N
Temperature: 87 K
Tabular data in the source: 0
pressure (bar)	uptake (cm3(STP)/g)
0.0103787	4.44444
0.0104811	40
0.0106347	93.3333
0.0141796	124.444
0.0177501	164.444
0.0178909	213.333
0.0216917	333.333
0.0299205	791.111
0.0369847	844.444
0.0509083	880
0.0855511	911.111
0.134002	937.778
0.178998	964.444
0.227411	977.778
0.279292	995.556
0.327679	1000
0.372637	1013.33
0.424479	1017.78
0.476335	1026.67
0.548909	1031.11
0.621484	1035.56
0.666403	1035.56
0.738977	1040
0.81502	1048.89
0.887594	1053.33
0.915237	1053.33
0.967079	1057.78
