Adsorption isotherm of Nitrogen on Ni22-IRMOF-1
DOI: 10.1021/Ic3002898
Adsorbate Nitrogen: InChIKey IJGRMHOSHXDMSA-UHFFFAOYSA-N
Temperature: 77 K
Tabular data in the source: 0
pressure (bar)	uptake (cm3(STP)/g)
0.0102625	0.0102625
0.0136834	547.326
0.0171042	297.691
0.0205251	580.388
0.0376293	649.508
0.0581544	670.497
0.0821003	688.468
0.106046	688.394
0.140255	697.31
0.157359	703.272
0.20183	709.15
0.253143	715.006
0.301034	717.865
0.342085	720.746
0.389976	723.605
0.44471	729.45
0.492602	735.317
0.564439	735.095
0.626015	734.904
0.663644	740.803
0.711536	746.669
0.745744	746.564
0.779953	743.45
0.827845	746.309
0.875736	752.176
0.93047	755.014
0.947574	760.976
0.968099	769.935
