Adsorption isotherm of Hydrogen on Ni13-IRMOF-1-4d
DOI: 10.1021/Ic3002898
Adsorbate Hydrogen: InChIKey UFHFLCQGNIYNRP-UHFFFAOYSA-N
Temperature: 77 K
Tabular data in the source: 0
pressure (bar)	uptake (cm3(STP)/g)
0.0494297	14.1116
0.102662	26.3057
0.152091	36.5773
0.197719	46.8465
0.250951	55.8406
0.30038	64.8322
0.34981	71.9039
0.39924	79.6155
0.452471	86.6896
0.501901	94.4012
0.547529	100.19
0.60076	106.624
0.65019	111.776
0.703422	117.57
0.752852	124.642
0.806084	129.796
0.851711	134.945
0.901141	140.097
0.954373	144.611
0.996198	149.118
