Adsorption isotherm of Nitrogen on IRMOF-1
DOI: 10.1021/Ic3002898
Adsorbate Nitrogen: InChIKey IJGRMHOSHXDMSA-UHFFFAOYSA-N
Temperature: 77 K
Tabular data in the source: 0
pressure (bar)	uptake (cm3(STP)/g)
0.00684169	0.00684169
0.0102625	93.2013
0.0205251	168.358
0.0307876	183.363
0.0786794	198.253
0.106046	198.168
0.126571	201.112
0.171042	203.982
0.225776	206.82
0.277088	209.669
0.318139	212.549
0.369451	215.398
0.413922	218.267
0.461814	218.119
0.513127	220.968
0.557598	223.838
0.60891	223.679
0.660223	226.528
0.708115	226.379
0.756007	226.231
0.783374	226.146
0.84837	228.953
0.899682	231.801
0.927049	231.717
0.950995	234.65
0.964678	231.6
