Adsorption isotherm of Hydrogen on Ni22-IRMOF-1
DOI: 10.1021/Ic3002898
Adsorbate Hydrogen: InChIKey UFHFLCQGNIYNRP-UHFFFAOYSA-N
Temperature: 77 K
Tabular data in the source: 0
pressure (bar)	uptake (cm3(STP)/g)
0.0456274	13.4692
0.0722433	19.2462
0.0988593	24.3833
0.148289	32.7349
0.201521	41.089
0.250951	49.4406
0.30038	57.1522
0.346008	64.8614
0.39924	70.6555
0.448669	77.0871
0.501901	83.5212
0.555133	89.3153
0.574144	91.8875
0.627376	97.6815
0.673004	103.471
0.726236	107.985
0.775665	113.136
0.828897	118.29
0.874525	122.8
0.927757	127.954
0.95057	130.528
0.996198	134.398
