Adsorption isotherm of Argon on Ni13-IRMOF-1
DOI: 10.1021/Ic3002898
Adsorbate Argon: InChIKey XKRFYHLGVUSROY-UHFFFAOYSA-N
Temperature: 87 K
Tabular data in the source: 0
pressure (bar)	uptake (cm3(STP)/g)
0.0334398	813.333
0.0508443	857.778
0.0820318	888.889
0.127015	911.111
0.175479	942.222
0.227347	955.556
0.275773	973.333
0.32416	977.778
0.379483	991.111
0.39676	991.111
0.42096	995.556
0.44516	1000
0.493534	1000
0.545377	1004.44
0.617964	1013.33
0.666351	1017.78
0.714726	1017.78
0.766556	1017.78
0.832219	1022.22
0.887505	1022.22
0.932436	1026.67
0.977368	1031.11
