Adsorption isotherm of Nitrogen on Ni13-IRMOF-1
DOI: 10.1021/Ic3002898
Adsorbate Nitrogen: InChIKey IJGRMHOSHXDMSA-UHFFFAOYSA-N
Temperature: 77 K
Tabular data in the source: 0
pressure (bar)	uptake (cm3(STP)/g)
0.0102625	0.0102625
0.0136834	538.304
0.0171042	499.195
0.0342085	607.413
0.0513127	634.428
0.0821003	646.362
0.102625	655.321
0.136834	664.238
0.153938	667.193
0.174463	670.137
0.205251	679.064
0.24288	681.955
0.297614	690.808
0.32498	693.731
0.345505	699.682
0.369451	702.616
0.417343	708.482
0.454972	714.381
0.48576	714.286
0.513127	720.216
0.554177	723.096
0.584965	729.016
0.68759	737.721
0.752586	740.527
0.838107	746.278
0.937312	748.978
0.97152	751.88
