Adsorption isotherm of Hydrogen on Ni13-IRMOF-1
DOI: 10.1021/Ic3002898
Adsorbate Hydrogen: InChIKey UFHFLCQGNIYNRP-UHFFFAOYSA-N
Temperature: 77 K
Tabular data in the source: 0
pressure (bar)	uptake (cm3(STP)/g)
0.0114068	5.1273
0.026616	10.897
0.0494297	17.9516
0.0722433	25.6462
0.0988593	32.0633
0.125475	37.8403
0.152091	42.9773
0.174905	48.7519
0.201521	53.889
0.224335	58.3836
0.247148	62.8782
0.30038	71.8722
0.34981	79.5839
0.376426	84.0809
0.429658	91.155
0.475285	98.2242
0.528517	104.658
0.577947	110.45
0.623574	117.519
0.676806	122.673
0.726236	127.825
0.779468	134.259
0.828897	139.41
0.874525	144.56
0.923954	149.071
0.996198	156.798
