Adsorption isotherm of Hydrogen on Ni22-IRMOF-1-4d
DOI: 10.1021/Ic3002898
Adsorbate Hydrogen: InChIKey UFHFLCQGNIYNRP-UHFFFAOYSA-N
Temperature: 77 K
Tabular data in the source: 0
pressure (bar)	uptake (cm3(STP)/g)
0.0228137	5.1346
0.0494297	10.9116
0.0760456	14.7687
0.095057	18.6208
0.121673	23.1179
0.152091	26.3373
0.201521	32.769
0.250951	39.8406
0.30038	46.9122
0.34981	52.0639
0.380228	54.6433
0.43346	59.7974
0.501901	66.8812
0.551331	71.3929
0.596958	75.9021
0.653992	79.7786
0.695817	84.2853
0.749049	88.7994
0.802281	92.6735
0.847909	97.1827
0.901141	99.7767
0.95057	103.008
0.977186	104.945
1	106.24
