Adsorption isotherm of Hydrogen on IRMOF-1-4d
DOI: 10.1021/Ic3002898
Adsorbate Hydrogen: InChIKey UFHFLCQGNIYNRP-UHFFFAOYSA-N
Temperature: 77 K
Tabular data in the source: 0
pressure (bar)	uptake (cm3(STP)/g)
0.0229008	2.47062
0.0419847	3.28466
0.0648855	4.92541
0.0877863	4.9064
0.10687	4.89056
0.137405	4.86522
0.187023	5.65392
0.21374	6.46163
0.259542	6.42362
0.28626	7.23132
0.335878	6.36027
0.385496	7.14897
0.408397	7.95984
0.435115	7.93766
0.458015	7.08878
0.484733	7.89649
0.557252	7.83631
0.629771	9.43587
0.683206	9.39153
0.70229	9.37569
0.732824	9.35035
0.778626	9.31234
0.805344	9.29017
0.828244	10.101
0.881679	9.22682
0.954198	10.8264
0.996183	10.7915
