Adsorption isotherm of Hydrogen on IRMOF-1
DOI: 10.1021/Ic3002898
Adsorbate Hydrogen: InChIKey UFHFLCQGNIYNRP-UHFFFAOYSA-N
Temperature: 77 K
Tabular data in the source: 0
pressure (bar)	uptake (cm3(STP)/g)
0.0152672	9.11596
0.019084	18.2414
0.0229008	23.2175
0.0381679	42.292
0.0572519	59.7035
0.0877863	74.6159
0.10687	86.2184
0.133588	95.3248
0.160305	103.601
0.183206	111.051
0.209924	116.008
0.240458	123.452
0.259542	127.585
0.282443	132.546
0.30916	136.673
0.332061	141.633
0.385496	149.058
0.427481	152.342
0.461832	157.293
0.480916	161.427
0.538168	164.699
0.583969	170.47
0.622137	172.098
0.656489	175.389
0.683206	176.197
0.71374	177.831
0.751908	181.949
0.80916	185.221
0.851145	188.505
0.896947	190.957
0.950382	193.402
0.977099	194.21
0.996183	195.854
