Adsorption isotherm of Argon on IRMOF-1
DOI: 10.1021/Ic3002898
Adsorbate Argon: InChIKey XKRFYHLGVUSROY-UHFFFAOYSA-N
Temperature: 87 K
Tabular data in the source: 0
pressure (bar)	uptake (cm3(STP)/g)
0.0145123	240
0.0319553	297.778
0.0596106	302.222
0.104568	315.556
0.152968	324.444
0.201368	333.333
0.253198	333.333
0.29813	337.778
0.346504	337.778
0.401802	342.222
0.446721	342.222
0.495096	342.222
0.543483	346.667
0.591857	346.667
0.640257	355.556
0.688619	351.111
0.740449	351.111
0.806113	355.556
0.857942	355.556
0.909785	360
0.933972	360
0.975436	360
