Adsorption isotherm of Carbon Dioxide on ELM-11
DOI: 10.1021/Jp210240x
Adsorbate Carbon Dioxide: InChIKey CURLTUGMZLYLDI-UHFFFAOYSA-N
Temperature: 273 K
Tabular data in the source: 0
pressure (bar)	uptake (mmol/g)
0.00517992	0.200491
0.03153	2.4059
0.119439	5.41327
0.171088	7.0172
0.237726	7.75234
0.345228	8.5543
0.488715	10.0246
0.698589	11.5617
0.969772	13.2324
