Adsorption isotherm of Carbon Dioxide on ELM-11
DOI: 10.1021/Jp210240x
Adsorbate Carbon Dioxide: InChIKey CURLTUGMZLYLDI-UHFFFAOYSA-N
Temperature: 273 K
Tabular data in the source: 0
pressure (bar)	uptake (mmol/g)
0.0103849	0.467813
0.0361844	1.20295
0.118363	2.53956
0.169736	3.40836
0.236425	4.27715
0.343877	4.94546
0.482058	5.88108
0.691858	7.21769
0.80429	7.55185
0.96787	8.15332
