Adsorption isotherm of Carbon Dioxide on ELM-11
DOI: 10.1021/Jp210240x
Adsorbate Carbon Dioxide: InChIKey CURLTUGMZLYLDI-UHFFFAOYSA-N
Temperature: 273 K
Tabular data in the source: 0
pressure (bar)	uptake (mmol/g)
0.0447761	0.115619
0.0858209	0.115619
0.134328	0.128466
0.190299	0.141312
0.25	0.167005
0.294776	0.179852
0.320896	0.282625
0.335821	1.02773
0.347015	1.61867
0.350746	2.0683
0.365672	2.46654
0.373134	2.65924
0.384328	2.83909
0.399254	2.94186
0.410448	3.05748
0.432836	3.1731
0.462687	3.22449
0.514925	3.28872
0.567164	3.32726
0.623134	3.35295
0.66791	3.39149
0.723881	3.40434
0.772388	3.40434
0.817164	3.44288
0.865672	3.43003
0.91791	3.45573
0.966418	3.46857
1.01493	3.46857
