Adsorption isotherm of Carbon Dioxide on ELM-11
DOI: 10.1021/Jp210240x
Adsorbate Carbon Dioxide: InChIKey CURLTUGMZLYLDI-UHFFFAOYSA-N
Temperature: 273 K
Tabular data in the source: 0
pressure (bar)	uptake (mmol/g)
0.0102097	0.864557
0.035734	2.06164
0.127621	3.52473
0.173565	4.25628
0.239928	4.05677
0.34713	4.5888
0.484961	4.92132
0.69426	5.51986
0.975027	5.78588
