Adsorption isotherm of Nitrogen on ELM-11
DOI: 10.1021/Jp210240x
Adsorbate Nitrogen: InChIKey IJGRMHOSHXDMSA-UHFFFAOYSA-N
Temperature: 273 K
Tabular data in the source: 0
pressure (bar)	uptake (mmol/g)
0.011194	0.121093
0.0410448	0.141275
0.0783582	0.141275
0.115672	0.141275
0.16791	0.121093
0.208955	0.121093
0.283582	0.141275
0.30597	0.161457
0.373134	0.161457
0.406716	0.161457
0.466418	0.141275
0.514925	0.161457
0.567164	0.201822
0.61194	0.201822
0.66791	0.181639
0.686567	0.181639
0.723881	0.181639
0.764925	0.181639
0.80597	0.181639
0.850746	0.161457
0.91791	0.161457
0.970149	0.141275
1.02239	0.141275
