Adsorption isotherm of Carbon Dioxide on ELM-11
DOI: 10.1021/Jp210240x
Adsorbate Carbon Dioxide: InChIKey CURLTUGMZLYLDI-UHFFFAOYSA-N
Temperature: 273 K
Tabular data in the source: 0
pressure (bar)	uptake (mmol/g)
0.00540514	0.801966
0.0159402	1.67076
0.0318052	3.14103
0.0935639	4.47764
0.124518	5.34644
0.170887	6.48256
0.242756	7.55185
0.345228	8.5543
0.401557	9.02212
0.488615	9.75725
0.570392	10.0246
0.713603	10.7597
0.815876	11.2275
0.969321	12.0295
