Adsorption isotherm of Carbon Dioxide on ELM-11
DOI: 10.1021/Jp210240x
Adsorbate Carbon Dioxide: InChIKey CURLTUGMZLYLDI-UHFFFAOYSA-N
Temperature: 273 K
Tabular data in the source: 0
pressure (bar)	uptake (mmol/g)
0.0408388	0.0665044
0.117412	0.332522
0.16846	0.199513
0.234823	0.133009
0.34713	0.399026
0.520695	0.0665044
0.745309	0.465531
0.826986	0.665044
0.975027	0.864557
