Adsorption isotherm of Carbon Dioxide on ELM-11
DOI: 10.1021/Jp210240x
Adsorbate Carbon Dioxide: InChIKey CURLTUGMZLYLDI-UHFFFAOYSA-N
Temperature: 273 K
Tabular data in the source: 0
pressure (bar)	uptake (mmol/g)
0.0102097	0.399026
0.035734	0.997566
0.122516	1.5296
0.173565	2.19464
0.239928	2.52717
0.34713	2.9927
0.490066	3.19221
0.576848	3.39172
0.699365	3.72425
0.842301	3.65774
0.975027	3.65774
