Adsorption isotherm of Oxygen on Zeolite 5A
DOI: 10.1021/Jp210240x
Adsorbate Oxygen: InChIKey MYMOFIZGZYHOMD-UHFFFAOYSA-N
Temperature: 273 K
Tabular data in the source: 0
pressure (bar)	uptake (mmol/g)
0.0112782	0.054785
0.0714286	0.051452
0.109023	0.049369
0.154135	0.0745742
0.214286	0.0989462
0.259398	0.0964465
0.315789	0.0933219
0.364662	0.146024
0.417293	0.143107
0.466165	0.168104
0.515038	0.193101
0.567669	0.21789
0.616541	0.215182
0.665414	0.267884
0.718045	0.292672
0.770677	0.317461
0.819549	0.314753
0.924812	0.336625
0.977444	0.361414
1.01128	0.414949
