Adsorption isotherm of Carbon Dioxide on ELM-11
DOI: 10.1021/Jp210240x
Adsorbate Carbon Dioxide: InChIKey CURLTUGMZLYLDI-UHFFFAOYSA-N
Temperature: 273 K
Tabular data in the source: 0
pressure (bar)	uptake (mmol/g)
0.0307542	0.334152
0.117762	0.935627
0.168986	1.40344
0.240704	2.07175
0.342901	2.33907
0.481207	3.60885
0.690732	4.21032
0.967169	6.28207
