Adsorption isotherm of Carbon Dioxide on ELM-11
DOI: 10.1021/Jp210240x
Adsorbate Carbon Dioxide: InChIKey CURLTUGMZLYLDI-UHFFFAOYSA-N
Temperature: 273 K
Tabular data in the source: 0
pressure (bar)	uptake (mmol/g)
0.0105851	1.00246
0.0367099	2.60639
0.0778991	3.54202
0.119063	4.41081
0.170437	5.27961
0.201141	5.4801
0.24208	5.74742
0.293304	6.21524
0.344528	6.68305
0.405936	7.08403
0.45716	7.55185
0.487864	7.75234
0.559482	8.15332
0.626045	8.68796
0.692558	9.08895
0.769306	9.55676
0.871629	10.1582
0.973951	10.7597
