Adsorption isotherm of Carbon Dioxide on ELM-11
DOI: 10.1021/Jp210240x
Adsorbate Carbon Dioxide: InChIKey CURLTUGMZLYLDI-UHFFFAOYSA-N
Temperature: 273 K
Tabular data in the source: 0
pressure (bar)	uptake (mmol/g)
0.0307793	0.400983
0.117812	1.06929
0.168986	1.40344
0.235599	2.07175
0.348181	2.80688
0.486412	3.87617
0.690757	4.27715
0.967144	6.21524
