Adsorption isotherm of Nitrogen on Zeolite 5A
DOI: 10.1021/Jp210240x
Adsorbate Nitrogen: InChIKey IJGRMHOSHXDMSA-UHFFFAOYSA-N
Temperature: 273 K
Tabular data in the source: 0
pressure (bar)	uptake (mmol/g)
0.0413534	0.155615
0.0864662	0.247699
0.142857	0.275776
0.176692	0.336928
0.210526	0.366433
0.274436	0.425681
0.31203	0.423301
0.364662	0.514909
0.421053	0.606279
0.469925	0.634833
0.515038	0.663624
0.567669	0.723586
0.612782	0.72073
0.669173	0.780454
0.714286	0.809245
0.770677	0.805676
0.819549	0.834229
0.87218	0.925837
0.913534	0.891573
0.969925	0.982944
1.01128	0.94868
