Adsorption isotherm of Oxygen on ELM-11
DOI: 10.1021/Jp210240x
Adsorbate Oxygen: InChIKey MYMOFIZGZYHOMD-UHFFFAOYSA-N
Temperature: 273 K
Tabular data in the source: 0
pressure (bar)	uptake (mmol/g)
0.011194	0.0706714
0.0634328	0.106007
0.0932836	0.106007
0.108209	0.106007
0.160448	0.0883392
0.186567	0.0883392
0.216418	0.0883392
0.264925	0.0706714
0.294776	0.106007
0.317164	0.123675
0.365672	0.106007
0.395522	0.123675
0.41791	0.123675
0.466418	0.141343
0.496269	0.159011
0.518657	0.176678
0.570896	0.159011
0.597015	0.176678
0.623134	0.176678
0.671642	0.176678
0.686567	0.194346
0.720149	0.212014
0.772388	0.194346
0.783582	0.194346
0.824627	0.194346
0.873134	0.212014
0.899254	0.229682
0.921642	0.212014
0.977612	0.212014
1.01493	0.212014
