Adsorption isotherm of Carbon Dioxide on Zeolite 5A
DOI: 10.1021/Jp210240x
Adsorbate Carbon Dioxide: InChIKey CURLTUGMZLYLDI-UHFFFAOYSA-N
Temperature: 273 K
Tabular data in the source: 0
pressure (bar)	uptake (mmol/g)
0.0037594	1.28906
0.0263158	3.66514
0.056391	4.08695
0.0827068	4.28733
0.131579	4.44651
0.161654	4.56616
0.214286	4.64462
0.263158	4.68294
0.319549	4.78138
0.360902	4.82
0.417293	4.87816
0.466165	4.91648
0.515038	4.9548
0.56391	4.97298
0.616541	5.01114
0.665414	5.04946
0.714286	5.06764
0.770677	5.08551
0.819549	5.14397
0.921053	5.18017
0.969925	5.19835
