Adsorption isotherm of Carbon Dioxide on ELM-11
DOI: 10.1021/Jp210240x
Adsorbate Carbon Dioxide: InChIKey CURLTUGMZLYLDI-UHFFFAOYSA-N
Temperature: 273 K
Tabular data in the source: 0
pressure (bar)	uptake (mmol/g)
0.00510485	0.665044
0.035734	2.39416
0.122516	4.92132
0.16846	5.51986
0.239928	6.51743
0.34713	6.91646
0.484961	7.78101
0.69426	8.18004
0.975027	8.84508
