Adsorption isotherm of Carbon Dioxide on ELM-11
DOI: 10.1021/Jp210240x
Adsorbate Carbon Dioxide: InChIKey CURLTUGMZLYLDI-UHFFFAOYSA-N
Temperature: 273 K
Tabular data in the source: 0
pressure (bar)	uptake (mmol/g)
0.0408388	0.0665044
0.117412	0.133009
0.16846	0.399026
0.239928	0.266018
0.34713	0.532035
0.484961	0.532035
0.69426	0.665044
0.826986	0.665044
0.969922	0.665044
