Adsorption isotherm of Carbon Dioxide on ELM-11
DOI: 10.1021/Jp210240x
Adsorbate Carbon Dioxide: InChIKey CURLTUGMZLYLDI-UHFFFAOYSA-N
Temperature: 273 K
Tabular data in the source: 0
pressure (bar)	uptake (mmol/g)
0.0102097	0.931061
0.0204194	1.79562
0.035734	2.9927
0.122516	4.38929
0.16846	5.12084
0.229718	5.71938
0.352235	6.31792
0.490066	6.65044
0.592163	6.84995
0.689155	7.04947
0.837196	6.98296
0.975027	6.98296
