Adsorption isotherm of Carbon Dioxide on Zn(1a)(BIPY)
DOI: 10.1039/B714160b
Adsorbate Carbon Dioxide: InChIKey CURLTUGMZLYLDI-UHFFFAOYSA-N
Temperature: 273 K
Tabular data in the source: 0
pressure (bar)	uptake (cm3(STP)/g)
0.102329	4.02639
0.150397	5.44656
0.196279	6.64824
0.250901	8.2869
0.294598	8.94236
0.395102	10.6903
0.449724	11.5642
0.548044	12.8751
0.740312	15.8247
0.847371	16.9171
