Adsorption isotherm of Nitrogen on Zn2(1b)2(BIPY)
DOI: 10.1039/B714160b
Adsorbate Nitrogen: InChIKey IJGRMHOSHXDMSA-UHFFFAOYSA-N
Temperature: 77 K
Tabular data in the source: 0
pressure (bar)	uptake (cm3(STP)/g)
0.00182509	117.359
0.00837971	65.4681
0.0236738	152.317
0.0826654	157.233
0.497791	170.342
0.611405	174.166
0.700985	177.989
0.808044	181.266
0.904178	187.821
0.9588	207.485
