Adsorption isotherm of Hydrogen on Zn(1a)(BIPY)
DOI: 10.1039/B714160b
Adsorbate Hydrogen: InChIKey UFHFLCQGNIYNRP-UHFFFAOYSA-N
Temperature: 77 K
Tabular data in the source: 0
pressure (bar)	uptake (cm3(STP)/g)
0.0542621	0.0106119
0.143842	0.0106119
0.253086	0.0106119
0.342665	0.0106119
0.449724	0.0106119
0.548044	0.0127968
0.646363	0.0127968
0.749052	0.0127968
0.849556	0.0106119
0.939136	0.0106119
