Adsorption isotherm of Carbon Dioxide on Zn2(1b)2(BIPY)
DOI: 10.1039/B714160b
Adsorbate Carbon Dioxide: InChIKey CURLTUGMZLYLDI-UHFFFAOYSA-N
Temperature: 273 K
Tabular data in the source: 0
pressure (bar)	uptake (cm3(STP)/g)
0.100144	2.71547
0.143842	3.80791
0.202833	5.33732
0.244346	16.1524
0.298968	18.9928
0.401657	23.4718
0.550228	28.934
0.692245	32.539
0.799304	35.3793
0.849556	36.144
