Adsorption isotherm of Hydrogen on Zn2(1b)2(BIPY)
DOI: 10.1039/B714160b
Adsorbate Hydrogen: InChIKey UFHFLCQGNIYNRP-UHFFFAOYSA-N
Temperature: 77 K
Tabular data in the source: 0
pressure (bar)	uptake (cm3(STP)/g)
0.0105646	0.0827127
0.0236738	0.209435
0.0345982	0.274982
0.08922	0.419183
0.150397	0.517503
0.248716	0.613637
0.309892	0.65515
0.447539	0.73599
0.746867	0.849603
0.897623	0.899856
