Adsorption isotherm of Nitrogen on Zn(1a)(BIPY)
DOI: 10.1039/B714160b
Adsorbate Nitrogen: InChIKey IJGRMHOSHXDMSA-UHFFFAOYSA-N
Temperature: 77 K
Tabular data in the source: 0
pressure (bar)	uptake (cm3(STP)/g)
0.0324133	1.56053
0.146027	3.19919
0.250901	2.65297
0.342665	3.19919
0.447539	3.74541
0.543674	2.65297
0.696615	3.74541
0.801489	3.74541
0.901993	3.74541
0.943506	3.74541
