Adsorption isotherm of Carbon Dioxide on Zn2(1d)2(BIPY)
DOI: 10.1039/B714160b
Adsorbate Carbon Dioxide: InChIKey CURLTUGMZLYLDI-UHFFFAOYSA-N
Temperature: 273 K
Tabular data in the source: 0
pressure (bar)	uptake (cm3(STP)/g)
0.0193041	3.37093
0.0979595	12.2197
0.148212	15.6062
0.25964	21.1777
0.399472	27.8415
0.504346	31.8835
0.602665	35.8163
0.705355	39.6398
0.851741	44.8835
0.952245	47.6146
