Adsorption isotherm of Nitrogen on Zn2(1d)2(BIPY)
DOI: 10.1039/B714160b
Adsorbate Nitrogen: InChIKey IJGRMHOSHXDMSA-UHFFFAOYSA-N
Temperature: 77 K
Tabular data in the source: 0
pressure (bar)	uptake (cm3(STP)/g)
0.0105646	27.2328
0.0193041	57.2748
0.0761108	56.7286
0.205018	58.3673
0.25527	58.9135
0.351405	60.0059
0.506531	69.2916
0.749052	98.7874
0.851741	115.72
0.947875	139.754
