Adsorption isotherm of Hydrogen on Zn2(1d)2(BIPY)
DOI: 10.1039/B714160b
Adsorbate Hydrogen: InChIKey UFHFLCQGNIYNRP-UHFFFAOYSA-N
Temperature: 77 K
Tabular data in the source: 0
pressure (bar)	uptake (cm3(STP)/g)
0.0149343	0.0346455
0.0455226	0.0892673
0.102329	0.143889
0.152581	0.183217
0.25527	0.22473
0.35359	0.246578
0.497791	0.264057
0.648548	0.272797
0.799304	0.277167
0.993758	0.272797
