Adsorption isotherm of Hydrogen on [Zn(atz)(bdc)0.5]
DOI: 10.1039/C3ce26800d
Adsorbate Hydrogen: InChIKey UFHFLCQGNIYNRP-UHFFFAOYSA-N
Temperature: 77 K
Tabular data in the source: 0
pressure (bar)	uptake (cm3(STP)/g)
0.0218762	0.162291
0.291759	0.249685
0.437843	0.162291
0.536883	0.51187
0.687918	0.68666
0.843906	1.03624
0.989989	1.29842
1.0197	1.29842
