Adsorption isotherm of Nitrogen on [Co(atz)(bdc)0.5]
DOI: 10.1039/C3ce26800d
Adsorbate Nitrogen: InChIKey IJGRMHOSHXDMSA-UHFFFAOYSA-N
Temperature: 298 K
Tabular data in the source: 0
pressure (bar)	uptake (cm3(STP)/g)
0.00454426	0.162291
0.123392	0.0748956
0.22986	0.162291
0.380895	0.51187
0.526979	0.68666
0.63097	0.86145
0.77953	1.12364
0.888474	1.29842
0.985037	1.47321
1.02465	1.56061
