Adsorption isotherm of Nitrogen on [Zn(atz)(bdc)0.5]
DOI: 10.1039/C3ce26800d
Adsorbate Nitrogen: InChIKey IJGRMHOSHXDMSA-UHFFFAOYSA-N
Temperature: 77 K
Tabular data in the source: 0
pressure (bar)	uptake (cm3(STP)/g)
0.0169242	0.0748956
0.259571	0.249685
0.380895	0.249685
0.566595	0.33708
0.71763	0.51187
0.86619	0.424475
0.970181	0.68666
1.00237	0.68666
