Adsorption isotherm of Carbon Dioxide on [Zn(atz)(bdc)0.5]
DOI: 10.1039/C3ce26800d
Adsorbate Carbon Dioxide: InChIKey CURLTUGMZLYLDI-UHFFFAOYSA-N
Temperature: 298 K
Tabular data in the source: 0
pressure (bar)	uptake (cm3(STP)/g)
0.00949701	0.0748956
0.0491161	3.74548
0.123402	8.727
0.239783	14.2329
0.408164	20.7875
0.574068	26.8178
0.648354	28.9152
0.72264	30.8379
0.836545	33.3724
0.945497	35.9942
0.997497	37.3051
1.08912	39.053
