Adsorption isotherm of Carbon Dioxide on [Co(atz)(bdc)0.5]
DOI: 10.1039/C3ce26800d
Adsorbate Carbon Dioxide: InChIKey CURLTUGMZLYLDI-UHFFFAOYSA-N
Temperature: 298 K
Tabular data in the source: 0
pressure (bar)	uptake (cm3(STP)/g)
0.00206827	0.249685
0.0713961	4.53204
0.145676	8.37742
0.215004	11.7858
0.279379	13.7085
0.370991	17.2917
0.427939	19.7388
0.541835	24.1085
0.571546	25.5942
0.645826	27.2547
0.71763	29.2648
0.836478	31.9741
0.898378	33.3724
1.0098	36.169
1.0915	38.1791
