Adsorption isotherm of Nitrogen on [Zn(atz)(bdc)0.5]
DOI: 10.1039/C3ce26800d
Adsorbate Nitrogen: InChIKey IJGRMHOSHXDMSA-UHFFFAOYSA-N
Temperature: 298 K
Tabular data in the source: 0
pressure (bar)	uptake (cm3(STP)/g)
0.0218762	0.162291
0.259571	0.249685
0.415559	0.249685
0.569071	0.0748956
0.76715	0.249685
0.940469	0.424475
0.977609	0.68666
1.0098	1.47321
