Adsorption isotherm of Carbon Dioxide on MWCNT
DOI: 10.1007/s13762-016-0989-0
Article source: Figure 6
Adsorbate Carbon Dioxide: InChIKey CURLTUGMZLYLDI-UHFFFAOYSA-N
Kind: experiment
Temperature: 318 K
Tabular data in the source: 0
pressure (bar)	uptake (mmol/g)
0.03574	0.03119
0.13547	0.06137
0.20893	0.08498
0.31609	0.11034
0.41399	0.14669
0.61003	0.21729
0.78285	0.2721
1.01134	0.34707
1.36173	0.46416
1.74747	0.59535
2.115	0.70906
2.52183	0.83052
2.82275	0.91867
3.31073	1.07241
