Adsorption isotherm of Methane on OH-MWCNT
DOI: 10.1007/s13762-016-0989-0
Article source: Figure 7
Adsorbate Methane: InChIKey VNWKTOKETHGBQD-UHFFFAOYSA-N
Kind: experiment
Temperature: 318 K
Tabular data in the source: 0
pressure (bar)	uptake (mmol/g)
0.04372	0.01604
0.10555	0.03516
0.22725	0.07385
0.29655	0.08046
0.46236	0.12977
0.58681	0.16587
0.81334	0.23616
1.00746	0.2959
1.29847	0.37823
1.70059	0.50155
1.99478	0.59223
2.49625	0.73402
2.99989	0.88037
3.25746	0.95959
