Adsorption isotherm of Carbon Dioxide on amine-MWCNT
DOI: 10.1007/s13762-016-0989-0
Article source: Figure 8
Adsorbate Carbon Dioxide: InChIKey CURLTUGMZLYLDI-UHFFFAOYSA-N
Kind: experiment
Temperature: 318 K
Tabular data in the source: 0
pressure (bar)	uptake (mmol/g)
0.04228	0.21714
0.0815	0.24639
0.12739	0.26748
0.21094	0.30037
0.30705	0.33439
0.4106	0.38383
0.6111	0.459
0.78732	0.52453
1.01523	0.58611
1.40345	0.69914
1.74238	0.79351
2.10955	0.90875
2.5293	1.02717
2.81723	1.11428
3.30445	1.24405
