Adsorption isotherm of Methane on amine-MWCNT
DOI: 10.1007/s13762-016-0989-0
Article source: Figure 8
Adsorbate Methane: InChIKey VNWKTOKETHGBQD-UHFFFAOYSA-N
Kind: experiment
Temperature: 303 K
Tabular data in the source: 0
pressure (bar)	uptake (mmol/g)
0.03682	0.02043
0.10651	0.0353
0.22117	0.06702
0.30173	0.09703
0.43765	0.13647
0.65314	0.18393
0.8202	0.22481
1.0179	0.2754
1.33926	0.36226
1.55266	0.42261
1.75429	0.47071
2.1152	0.55466
2.53969	0.67729
2.86244	0.75904
3.25636	0.85623
