Adsorption isotherm of Methane on MWCNT
DOI: 10.1007/s13762-016-0989-0
Article source: Figure 6
Adsorbate Methane: InChIKey VNWKTOKETHGBQD-UHFFFAOYSA-N
Kind: experiment
Temperature: 318 K
Tabular data in the source: 0
pressure (bar)	uptake (mmol/g)
0.03617	0.01318
0.09103	0.02861
0.13668	0.0418
0.20495	0.06395
0.30921	0.0906
0.61181	0.16738
0.78958	0.20548
1.00438	0.26867
1.35073	0.34505
1.73857	0.44449
2.13324	0.54338
2.50492	0.64585
2.81951	0.73178
3.2091	0.82248
