Adsorption isotherm of Methane on amine-MWCNT
DOI: 10.1007/s13762-016-0989-0
Article source: Figure 8
Adsorbate Methane: InChIKey VNWKTOKETHGBQD-UHFFFAOYSA-N
Kind: experiment
Temperature: 318 K
Tabular data in the source: 0
pressure (bar)	uptake (mmol/g)
0.04077	0.015
0.10354	0.0319
0.12776	0.0382
0.21475	0.0539
0.30619	0.0836
0.4342	0.1033
0.61411	0.1454
0.80772	0.1862
1.03329	0.2364
1.52228	0.3466
1.80873	0.4089
2.2333	0.5039
2.54073	0.5739
2.8449	0.6405
3.29486	0.7367
