Adsorption isotherm of Carbon Dioxide on OH-MWCNT
DOI: 10.1007/s13762-016-0989-0
Article source: Figure 7
Adsorbate Carbon Dioxide: InChIKey CURLTUGMZLYLDI-UHFFFAOYSA-N
Kind: experiment
Temperature: 303 K
Tabular data in the source: 0
pressure (bar)	uptake (mmol/g)
0.04009	0.07229
0.07335	0.10588
0.09421	0.13175
0.12796	0.15107
0.20438	0.19031
0.30214	0.23699
0.40339	0.29645
0.60941	0.39901
0.78035	0.47853
1.0114	0.5847
1.3501	0.74965
1.73589	0.90302
2.09943	1.06087
2.50664	1.23887
2.80112	1.35797
3.25815	1.53102
