Adsorption isotherm of Carbon Dioxide on amine-MWCNT
DOI: 10.1007/s13762-016-0989-0
Article source: Figure 8
Adsorbate Carbon Dioxide: InChIKey CURLTUGMZLYLDI-UHFFFAOYSA-N
Kind: experiment
Temperature: 303 K
Tabular data in the source: 0
pressure (bar)	uptake (mmol/g)
0.05281	0.36676
0.09109	0.40743
0.10042	0.4346
0.19912	0.47384
0.39446	0.55917
0.59759	0.62919
0.80219	0.7172
1.0068	0.79978
1.37649	0.91011
1.70404	1.00558
2.06376	1.10302
2.41368	1.20487
2.78772	1.31036
3.16862	1.42573
