Adsorption isotherm of Carbon Dioxide on amine-MWCNT
DOI: 10.1007/s13762-016-0989-0
Article source: Figure 2
Adsorbate Carbon Dioxide: InChIKey CURLTUGMZLYLDI-UHFFFAOYSA-N
Kind: experiment
Temperature: 303 K
Tabular data in the source: 0
pressure (bar)	uptake (mmol/g)
0.05376	0.35825
0.198648	0.46501
0.393186	0.541
0.594706	0.61836
0.798171	0.69749
0.999679	0.78998
