Adsorption isotherm of Carbon Dioxide on COOH-amine-MWCNT
DOI: 10.1007/s13762-016-0989-0
Article source: Figure 2
Adsorbate Carbon Dioxide: InChIKey CURLTUGMZLYLDI-UHFFFAOYSA-N
Kind: experiment
Temperature: 303 K
Tabular data in the source: 0
pressure (bar)	uptake (mmol/g)
0.108513	0.16467
0.243316	0.22385
0.351866	0.27599
0.555877	0.346
0.749434	0.3868
0.958864	0.41661
