Adsorption isotherm of Methane on MWCNT
DOI: 10.1007/s13762-016-0989-0
Article source: Figure 6
Adsorbate Methane: InChIKey VNWKTOKETHGBQD-UHFFFAOYSA-N
Kind: experiment
Temperature: 303 K
Tabular data in the source: 0
pressure (bar)	uptake (mmol/g)
0.04064	0.01649
0.1177	0.05567
0.21741	0.07623
0.35197	0.1171
0.41264	0.12583
0.60786	0.19592
0.78366	0.25061
1.01922	0.32267
1.35427	0.41073
1.89275	0.56628
2.10012	0.62517
2.50537	0.74959
2.8035	0.8306
3.26176	0.95909
