Adsorption isotherm of Carbon Dioxide on OH-MWCNT
DOI: 10.1007/s13762-016-0989-0
Article source: Figure 7
Adsorbate Carbon Dioxide: InChIKey CURLTUGMZLYLDI-UHFFFAOYSA-N
Kind: experiment
Temperature: 318 K
Tabular data in the source: 0
pressure (bar)	uptake (mmol/g)
0.02248	0.04696
0.06738	0.06583
0.10558	0.07976
0.19971	0.11751
0.29818	0.15715
0.39516	0.20508
0.59634	0.29259
0.76689	0.36927
0.98725	0.46015
1.3452	0.6016
1.71039	0.75034
2.10503	0.89026
2.50066	1.04399
2.87344	1.17683
3.20784	1.321
