Adsorption isotherm of Carbon Dioxide on MWCNT
DOI: 10.1007/s13762-016-0989-0
Article source: Figure 6
Adsorbate Carbon Dioxide: InChIKey CURLTUGMZLYLDI-UHFFFAOYSA-N
Kind: experiment
Temperature: 303 K
Tabular data in the source: 0
pressure (bar)	uptake (mmol/g)
0.0371	0.05322
0.10525	0.07417
0.12819	0.09015
0.20798	0.11678
0.31246	0.1556
0.40562	0.19985
0.61011	0.27524
0.80339	0.34369
1.00618	0.43576
1.34475	0.57178
1.73365	0.71633
2.08461	0.8605
2.5366	1.02806
2.82393	1.1274
3.26008	1.28537
