Adsorption isotherm of Carbon Dioxide on OH-amine-MWCNT
DOI: 10.1007/s13762-016-0989-0
Article source: Figure 2
Adsorbate Carbon Dioxide: InChIKey CURLTUGMZLYLDI-UHFFFAOYSA-N
Kind: experiment
Temperature: 303 K
Tabular data in the source: 0
pressure (bar)	uptake (mmol/g)
0.074227	0.24361
0.205872	0.3215
0.316515	0.36647
0.518261	0.44265
0.699707	0.51415
0.901035	0.58634
