Adsorption isotherm of Methane on OH-MWCNT
DOI: 10.1007/s13762-016-0989-0
Article source: Figure 7
Adsorbate Methane: InChIKey VNWKTOKETHGBQD-UHFFFAOYSA-N
Kind: experiment
Temperature: 303 K
Tabular data in the source: 0
pressure (bar)	uptake (mmol/g)
0.03832	0.04446
0.13254	0.05458
0.30263	0.10037
0.40726	0.13754
0.60907	0.21158
0.77915	0.2773
1.01131	0.35192
1.34816	0.46434
1.73353	0.58345
2.09852	0.70556
2.51177	0.84434
2.8078	0.93319
3.27075	1.07518
