Adsorption isotherm of Ethane, Methane on MCM-41
DOI: 10.1021/la0155855
Article source: Figure 8
Adsorbate Ethane: InChIKey OTMSDBZUPAUEDD-UHFFFAOYSA-N
Adsorbate Methane: InChIKey VNWKTOKETHGBQD-UHFFFAOYSA-N
Kind: experiment
Temperature: 264 K
Tabular data in the source: 0
pressure (bar)	Ethane fraction	Ethane uptake (mmol/g)	Methane fraction	Methane uptake (mmol/g)	total uptake (mmol/g)
0.9847	0.046	0.0662	0.954	0.223	
4.9708	0.046	0.331	0.954	0.911	
9.9677	0.046	0.463	0.954	1.56	
16.9621	0.046	0.662	0.954	2.17	
