Adsorption isotherm of Ethane on MCM-41
DOI: 10.1021/la0155855
Article source: Figure 6
Adsorbate Ethane: InChIKey OTMSDBZUPAUEDD-UHFFFAOYSA-N
Kind: experiment
Temperature: 264 K
Tabular data in the source: 0
pressure (bar)	uptake (mmol/g)
0.206	0.308
0.412	0.731
0.824	1.23
1.17	1.42
1.72	1.96
2.2	2.27
4.25	3.73
6.52	5.04
8.1	6
9.75	7.19
11.6	10.3
12.3	10.4
14.1	10.9
16.1	11.2
18.2	11.3
