Adsorption isotherm of Ethane, Methane on MCM-41
DOI: 10.1021/la0155855
Article source: Figure 8
Adsorbate Ethane: InChIKey OTMSDBZUPAUEDD-UHFFFAOYSA-N
Adsorbate Methane: InChIKey VNWKTOKETHGBQD-UHFFFAOYSA-N
Kind: experiment
Temperature: 264 K
Tabular data in the source: 0
pressure (bar)	Ethane fraction	Ethane uptake (mmol/g)	Methane fraction	Methane uptake (mmol/g)	total uptake (mmol/g)
0.9847	0.713	0.926	0.287	0.0372	
4.9708	0.713	2.91	0.287	0.149	
9.9677	0.713	5.03	0.287	0.26	
13	0.713	6.55	0.287	0.316	
15	0.713	7.94	0.287	0.353	
16.9621	0.713	9.73	0.287	0.39	
20	0.713	10.7	0.287	0.39	
