Adsorption isotherm of Methane on MCM-41
DOI: 10.1021/la0155855
Article source: Figure 6
Adsorbate Methane: InChIKey VNWKTOKETHGBQD-UHFFFAOYSA-N
Kind: experiment
Temperature: 264 K
Tabular data in the source: 0
pressure (bar)	uptake (mmol/g)
0.677	0.188
1.29	0.321
3.93	0.857
10.6	1.84
16	2.43
20.9	2.88
26.2	3.29
30.1	3.56
