Adsorption isotherm of Ethane, Methane on MCM-41
DOI: 10.1021/la0155855
Article source: Figure 8
Adsorbate Ethane: InChIKey OTMSDBZUPAUEDD-UHFFFAOYSA-N
Adsorbate Methane: InChIKey VNWKTOKETHGBQD-UHFFFAOYSA-N
Kind: experiment
Temperature: 264 K
Tabular data in the source: 0
pressure (bar)	Ethane fraction	Ethane uptake (mmol/g)	Methane fraction	Methane uptake (mmol/g)	total uptake (mmol/g)
0.9847	0.409	0.662	0.591	0.0743	
4.9708	0.409	1.99	0.591	0.39	
9.9677	0.409	3.31	0.591	0.632	
16.9621	0.409	4.57	0.591	0.799	
25	0.409	6.82	0.591	0.967	
