Adsorption isotherm of Ethane, Methane on MCM-41
DOI: 10.1021/la0155855
Article source: Figure 8
Adsorbate Ethane: InChIKey OTMSDBZUPAUEDD-UHFFFAOYSA-N
Adsorbate Methane: InChIKey VNWKTOKETHGBQD-UHFFFAOYSA-N
Kind: experiment
Temperature: 264 K
Tabular data in the source: 0
pressure (bar)	Ethane fraction	Ethane uptake (mmol/g)	Methane fraction	Methane uptake (mmol/g)	total uptake (mmol/g)
0.9847	0.2	0.331	0.8	0.149	
4.9708	0.2	1.19	0.8	0.632	
9.9677	0.2	1.79	0.8	1.04	
16.9621	0.2	2.65	0.8	1.41	
25	0.2	3.18	0.8	1.51	
