Adsorption isotherm of Methane on [(CH3)2NH2]2[Eu3+(Î¼3-OH)8(1,4-NDC)6(H2O)6]*(solv)x
DOI: 10.1021/ja5131403
Article source: Figure 3
Adsorbate Methane: InChIKey VNWKTOKETHGBQD-UHFFFAOYSA-N
Kind: experiment
Temperature: 298 K
Tabular data in the source: 0
pressure (bar)	uptake (mmol/g)
0.1657	0.12522
0.3385	0.22097
0.5594	0.31884
0.7696	0.4188
0.971	0.51088
1.4698	0.67767
1.9562	0.825
2.9611	1.06915
3.9411	1.29331
5.9497	1.57039
7.9433	1.76004
11.9522	2.0407
15.9436	2.2029
19.9263	2.32513
24.9216	2.43558
