Adsorption isotherm of Nitrogen on [(CH3)2NH2]2[Eu3+(Î¼3-OH)8(1,4-NDC)6(H2O)6]*(solv)x
DOI: 10.1021/ja5131403
Article source: Figure 3
Adsorbate Nitrogen: InChIKey IJGRMHOSHXDMSA-UHFFFAOYSA-N
Kind: experiment
Temperature: 298 K
Tabular data in the source: 0
pressure (bar)	uptake (mmol/g)
0.185	0.02677
0.4387	0.06056
0.6586	0.09502
0.8315	0.11954
1.0066	0.14008
1.4982	0.1732
1.9921	0.23085
3.9803	0.40703
5.983	0.56898
7.9655	0.67337
11.9659	0.882
15.9821	1.06362
19.9447	1.1855
24.9496	1.3105
