Adsorption isotherm of Carbon Dioxide on [(CH3)2NH2]2[Eu3+(Î¼3-OH)8(1,4-NDC)6(H2O)6]*(solv)x
DOI: 10.1021/ja5131403
Article source: Figure 3
Adsorbate Carbon Dioxide: InChIKey CURLTUGMZLYLDI-UHFFFAOYSA-N
Kind: experiment
Temperature: 298 K
Tabular data in the source: 0
pressure (bar)	uptake (mmol/g)
0.1935	1.0102
0.386	1.36521
0.5999	1.65395
0.7781	1.85328
0.9884	2.01684
1.4909	2.31399
1.9827	2.53909
3.9696	3.07604
5.9724	3.39263
7.9556	3.60139
11.9648	3.88323
15.9625	4.05381
19.9368	4.15344
24.9545	4.25487
