Adsorption isotherm of Hydrogen on DUT-49
DOI: 10.1039/C2cc34840c
Adsorbate Hydrogen: InChIKey UFHFLCQGNIYNRP-UHFFFAOYSA-N
Temperature: 77 K
Tabular data in the source: 0
pressure (bar)	uptake (g/g)
0.786598	0.0217008
6.50491	0.0502924
11.2373	0.0611374
15.5753	0.0670529
20.3077	0.0729684
25.4345	0.077898
35.4908	0.0808557
44.5612	0.0828276
51.2655	0.0828276
59.1528	0.0828276
67.6317	0.0798698
76.5049	0.0788839
81.8288	0.077898
86.7584	0.077898
92.4767	0.0759262
97.4063	0.0749402
