Adsorption isotherm of Methane on DUT-49
DOI: 10.1039/C2cc34840c
Adsorbate Methane: InChIKey VNWKTOKETHGBQD-UHFFFAOYSA-N
Temperature: 298 K
Tabular data in the source: 0
pressure (bar)	uptake (g/g)
0.195049	0.00296842
4.73026	0.0522642
9.46265	0.0907149
19.1246	0.162687
27.9979	0.220856
32.9274	0.252405
41.9979	0.298743
50.0824	0.341137
60.9274	0.390433
68.026	0.420011
77.0965	0.452546
87.35	0.489025
100.758	0.530433
117.519	0.574799
