Adsorption isotherm of Nitrogen on DUT-49
DOI: 10.1039/C2cc34840c
Adsorbate Nitrogen: InChIKey IJGRMHOSHXDMSA-UHFFFAOYSA-N
Temperature: 77 K
Tabular data in the source: 0
pressure (bar)	uptake (cm3(STP)/g)
0.00372489	505.201
0.00801532	548.106
0.0823828	1005.75
0.0895335	1062.96
0.108125	1246.02
0.120997	1386.17
0.136728	1506.3
0.15246	1586.39
0.169621	1660.76
0.195364	1695.08
0.243989	1717.96
0.291184	1735.12
0.318356	1755.15
0.464231	1789.47
0.660161	1823.79
0.787443	1829.51
0.924737	1855.26
0.974792	1866.7
