Adsorption isotherm of Hydrogen on DUT-49
DOI: 10.1039/C2cc34840c
Adsorbate Hydrogen: InChIKey UFHFLCQGNIYNRP-UHFFFAOYSA-N
Temperature: 77 K
Tabular data in the source: 0
pressure (bar)	uptake (g/g)
0.195049	0.0138135
2.75843	0.0394473
7.09646	0.0621233
11.4345	0.0749402
15.9697	0.0857853
20.7021	0.0946586
25.8289	0.10156
35.2936	0.114377
44.1669	0.125222
51.6598	0.130152
59.1528	0.139025
67.8288	0.14494
76.8993	0.151842
86.7584	0.157757
91.8852	0.160715
97.8007	0.162687
