Adsorption isotherm of Methane on DUT-49
DOI: 10.1039/C2cc34840c
Adsorbate Methane: InChIKey VNWKTOKETHGBQD-UHFFFAOYSA-N
Temperature: 298 K
Tabular data in the source: 0
pressure (bar)	uptake (g/g)
0.786598	0.00494025
4.92744	0.0364895
9.65984	0.0700107
19.519	0.122264
28.195	0.163673
32.5331	0.181419
36.8711	0.19818
44.9556	0.222828
49.8852	0.235644
54.2232	0.250433
68.026	0.278039
76.5049	0.287898
87.7443	0.300715
101.153	0.30663
117.125	0.309588
