Adsorption isotherm of Nitrogen on AgI/UiO-66 (.1)
DOI: 10.1002/cplu.201402430
Article source: Figure S4b
Adsorbate Nitrogen: InChIKey IJGRMHOSHXDMSA-UHFFFAOYSA-N
Kind: experiment
Temperature: 77 K
Tabular data in the source: 0
pressure (bar)	uptake (cm3(STP)/g)
0.010799	186.567
0.069114	203.284
0.077754	203.284
0.097192	198.06
0.144708	201.194
0.213823	203.284
0.24838	204.328
0.2527	209.552
0.295896	206.418
0.349892	207.463
0.384449	211.642
0.397408	209.552
0.431965	209.552
0.473002	211.642
0.50324	211.642
0.531317	213.731
0.535637	213.731
0.585313	213.731
0.609071	215.821
0.639309	216.866
0.645788	216.866
0.667387	218.955
0.686825	217.91
0.693305	218.955
0.699784	218.955
0.714903	220
0.723542	220
0.730022	221.045
0.74514	222.09
0.758099	223.134
0.768898	223.134
0.792657	224.179
0.816415	226.269
0.838013	228.358
0.861771	231.493
0.87473	234.627
0.913607	247.164
0.915767	245.075
0.922246	247.164
0.954644	274.328
0.958963	302.537
0.987041	443.582
