Adsorption isotherm of Nitrogen on UiO-66
DOI: 10.1002/cplu.201402430
Article source: Figure S4a
Adsorbate Nitrogen: InChIKey IJGRMHOSHXDMSA-UHFFFAOYSA-N
Kind: experiment
Temperature: 77 K
Tabular data in the source: 0
pressure (bar)	uptake (cm3(STP)/g)
0.008621	192.515
0.019397	197.904
0.077586	205.988
0.114224	207.335
0.193966	211.377
0.215517	211.377
0.31681	214.072
0.349138	215.419
0.415948	215.419
0.43319	215.419
0.448276	217.44
0.467672	217.44
0.471983	216.766
0.50431	217.44
0.512931	218.787
0.551724	219.461
0.581897	220.135
0.603448	220.808
0.616379	221.482
0.62931	220.808
0.650862	222.156
0.668103	222.156
0.689655	224.177
0.711207	224.177
0.730603	225.524
0.75	226.871
0.758621	226.871
0.767241	226.871
0.786638	228.892
0.795259	229.566
0.806034	230.24
0.8125	230.913
0.823276	231.587
0.834052	232.934
0.846983	234.281
0.855603	235.629
0.859914	236.302
0.87069	237.65
0.877155	239.671
0.881466	240.344
0.887931	241.018
0.892241	241.692
0.896552	243.039
0.898707	243.039
0.913793	247.754
0.920259	249.775
0.924569	256.512
0.935345	257.186
0.946121	267.29
0.954741	294.237
0.980603	385.18
