Adsorption isotherm of Nitrogen on AgI
DOI: 10.1002/cplu.201402430
Article source: Figure S4f
Adsorbate Nitrogen: InChIKey IJGRMHOSHXDMSA-UHFFFAOYSA-N
Kind: experiment
Temperature: 77 K
Tabular data in the source: 0
pressure (bar)	uptake (cm3(STP)/g)
0.01273	93.033
0.068681	98.4985
0.07945	98.9189
0.113926	99.3393
0.146235	100.601
0.180711	101.021
0.213038	101.021
0.249663	101.862
0.279829	102.282
0.314312	102.282
0.348788	102.703
0.415579	103.964
0.447913	103.544
0.471614	103.964
0.501773	104.805
0.510394	104.805
0.525487	104.384
0.549187	104.805
0.583657	105.646
0.603047	106.066
0.615978	106.066
0.628909	106.066
0.637523	106.486
0.65261	106.486
0.665534	106.907
0.682769	107.327
0.695694	107.748
0.708625	107.748
0.719394	108.168
0.736635	108.168
0.747405	108.589
0.76464	109.009
0.779713	109.85
0.788334	109.85
0.799097	110.691
0.809866	111.111
0.81848	111.532
0.829243	112.372
0.835702	112.793
0.844316	113.213
0.855092	113.213
0.883077	115.315
0.891659	117.838
0.921773	121.622
0.928161	126.667
0.953855	137.598
0.955796	151.471
0.978733	201.502
