Adsorption isotherm of Nitrogen on AgI/UiO-66 (2)
DOI: 10.1002/cplu.201402430
Article source: Figure S4e
Adsorbate Nitrogen: InChIKey IJGRMHOSHXDMSA-UHFFFAOYSA-N
Kind: experiment
Temperature: 77 K
Tabular data in the source: 0
pressure (bar)	uptake (cm3(STP)/g)
0.008639	136.486
0.053996	143.919
0.077754	144.595
0.112311	145.946
0.144708	147.297
0.179266	147.973
0.211663	148.649
0.24838	150
0.280778	150.676
0.315335	150.676
0.347732	152.027
0.414687	152.703
0.449244	154.054
0.473002	154.73
0.50324	155.405
0.514039	154.73
0.524838	155.405
0.548596	155.405
0.583153	156.757
0.587473	157.432
0.604752	157.432
0.615551	156.757
0.62203	158.784
0.63067	158.108
0.639309	158.784
0.652268	158.784
0.673866	159.459
0.680346	160.135
0.691145	160.135
0.699784	160.135
0.708423	160.135
0.714903	160.811
0.721382	160.811
0.75378	162.162
0.758099	162.162
0.762419	162.162
0.777538	162.162
0.781857	163.514
0.792657	164.865
0.796976	164.865
0.805616	165.541
0.812095	166.216
0.820734	166.216
0.831533	166.216
0.842333	168.243
0.855292	168.243
0.885529	174.324
0.900648	176.351
0.920086	184.459
0.930886	185.135
0.952484	202.027
0.961123	231.757
0.989201	332.432
