Adsorption isotherm of Nitrogen on AgI/UiO-66 (.5)
DOI: 10.1002/cplu.201402430
Article source: Figure S4c
Adsorbate Nitrogen: InChIKey IJGRMHOSHXDMSA-UHFFFAOYSA-N
Kind: experiment
Temperature: 77 K
Tabular data in the source: 0
pressure (bar)	uptake (cm3(STP)/g)
0.008639	137.205
0.053996	144.608
0.079914	144.606
0.112311	146.624
0.144708	147.294
0.177106	148.638
0.211663	148.635
0.24622	149.979
0.278618	150.65
0.313175	151.32
0.347732	151.991
0.414687	153.332
0.449244	154.003
0.470842	154.674
0.50324	155.345
0.511879	154.671
0.524838	156.016
0.550756	156.014
0.583153	156.685
0.585313	157.358
0.604752	158.03
0.615551	157.356
0.63067	158.701
0.639309	158.7
0.652268	158.699
0.676026	159.371
0.682505	159.37
0.686825	160.043
0.706263	160.042
0.708423	160.041
0.714903	160.714
0.723542	160.714
0.75378	162.731
0.764579	162.73
0.775378	162.729
0.784017	164.075
0.790497	164.075
0.803456	164.747
0.812095	165.42
0.825054	166.092
0.844492	168.784
0.855292	168.783
0.885529	174.841
0.902808	175.513
0.917927	184.266
0.933045	184.938
0.952484	201.772
0.961123	231.401
0.984881	332.409
