Adsorption isotherm of Nitrogen on AgI/UiO-66 (1)
DOI: 10.1002/cplu.201402430
Article source: Figure S4d
Adsorbate Nitrogen: InChIKey IJGRMHOSHXDMSA-UHFFFAOYSA-N
Kind: experiment
Temperature: 77 K
Tabular data in the source: 0
pressure (bar)	uptake (cm3(STP)/g)
0.010776	92.994
0.068965	98.4431
0.079741	98.8623
0.114224	99.7006
0.146552	100.539
0.178879	100.539
0.215517	100.958
0.24569	101.377
0.280172	101.796
0.3125	102.635
0.346983	102.635
0.415948	103.473
0.448276	103.892
0.471983	104.311
0.50431	104.731
0.512931	104.731
0.523707	104.731
0.549569	104.731
0.586207	105.569
0.603448	105.988
0.618534	105.988
0.62931	106.407
0.635776	106.407
0.650862	106.407
0.659483	106.407
0.674569	106.826
0.685345	106.826
0.700431	106.826
0.715517	107.246
0.726293	107.246
0.743534	108.084
0.758621	108.922
0.767241	109.341
0.778017	109.76
0.790948	110.18
0.797414	110.599
0.806034	110.599
0.821121	111.437
0.831897	111.856
0.842672	112.275
0.851293	113.114
0.885776	115.629
0.892241	117.305
0.922414	121.497
0.926724	126.946
0.954741	137.006
0.956897	151.257
0.980603	200.719
