Adsorption isotherm of Trichloromethane on PQ-USY
DOI: 10.1007/Bf02699112
Adsorbate Trichloromethane: InChIKey HEDRZPFGACZZDS-UHFFFAOYSA-N
Temperature: 303 K
Tabular data in the source: 0
pressure (bar)	uptake (g/g)
1.02e-05	0.000434
1.78e-05	0.000665
3.33e-05	0.00124714
7.08e-05	0.00258656
0.000136	0.00497459
0.000243	0.00909791
0.000517	0.0193496
0.000876	0.0320008
