Adsorption isotherm of Trichloromethane on PQ-USY
DOI: 10.1007/Bf02699112
Adsorbate Trichloromethane: InChIKey HEDRZPFGACZZDS-UHFFFAOYSA-N
Temperature: 313 K
Tabular data in the source: 0
pressure (bar)	uptake (g/g)
0.0104985	0.128615
0.0135012	0.138
0.0227824	0.175692
0.0416663	0.186626
0.122278	0.230535
0.167036	0.252385
0.273481	0.281924
0.381179	0.32132
