Adsorption isotherm of Trichloromethane on PQ-USY
DOI: 10.1007/Bf02699112
Adsorbate Trichloromethane: InChIKey HEDRZPFGACZZDS-UHFFFAOYSA-N
Temperature: 303 K
Tabular data in the source: 0
pressure (bar)	uptake (g/g)
0.0101864	0.157285
0.0153879	0.177469
0.0230128	0.19429
0.0295947	0.206381
0.0465427	0.22368
0.0696052	0.247357
0.143636	0.290563
0.27904	0.344767
