Adsorption isotherm of Trichloromethane on PQ-USY
DOI: 10.1007/Bf02699112
Adsorbate Trichloromethane: InChIKey HEDRZPFGACZZDS-UHFFFAOYSA-N
Temperature: 323 K
Tabular data in the source: 0
pressure (bar)	uptake (g/g)
0.0110402	0.0675503
0.0136377	0.106235
0.0203954	0.131229
0.0412491	0.177469
0.08259	0.212705
0.136589	0.247357
0.206336	0.265407
0.452288	0.305555
