Adsorption isotherm of Trichloromethane on PQ-USY Siliceous Y Model
DOI: 10.1007/Bf02699112
Adsorbate Trichloromethane: InChIKey HEDRZPFGACZZDS-UHFFFAOYSA-N
Temperature: 303 K
Tabular data in the source: 0
pressure (bar)	uptake (g/g)
1.07e-05	0.000111
9.82e-05	0.00104579
0.000994	0.00932967
0.0098057	0.0791476
0.0874779	0.300213
0.18605	0.358014
