Adsorption isotherm of Trichloromethane on PQ-USY Silanol Nest Model
DOI: 10.1007/Bf02699112
Adsorbate Trichloromethane: InChIKey HEDRZPFGACZZDS-UHFFFAOYSA-N
Temperature: 303 K
Tabular data in the source: 0
pressure (bar)	uptake (g/g)
1.06e-05	6.66e-05
0.0001	0.000696
0.000949	0.0070443
0.00928642	0.0592609
0.0878534	0.250668
