Adsorption isotherm of Trichloromethane on PQ-USY
DOI: 10.1007/Bf02699112
Adsorbate Trichloromethane: InChIKey HEDRZPFGACZZDS-UHFFFAOYSA-N
Temperature: 303 K
Tabular data in the source: 0
pressure (bar)	uptake (g/g)
0.00781914	0.156097
0.0143003	0.177018
0.0275028	0.200742
0.0443548	0.221992
0.0663331	0.24549
0.121315	0.271476
0.181428	0.300213
0.27824	0.315702
