Adsorption isotherm of Trichloromethane on PQ-USY Acid Site Model
DOI: 10.1007/Bf02699112
Adsorbate Trichloromethane: InChIKey HEDRZPFGACZZDS-UHFFFAOYSA-N
Temperature: 303 K
Tabular data in the source: 0
pressure (bar)	uptake (g/g)
1.02e-05	0.000337
8.88e-05	0.00316314
0.000876	0.0282188
