Adsorption isotherm of Methane on Coal
DOI: 10.1016/j.coal.2013.11.009
Adsorbate Methane: InChIKey VNWKTOKETHGBQD-UHFFFAOYSA-N
Temperature: 318 K
Tabular data in the source: 0
pressure (bar)	uptake (mmol/g)
0	0.158228
0.831601	0.577499
2.4948	0.838509
5.40541	1.08365
9.14761	1.29711
13.7214	1.4868
19.5426	1.67644
27.4428	1.85018
34.0956	1.95277
44.9064	2.03936
54.0541	2.04691
66.1123	2.03061
74.8441	1.9828
82.7443	1.91128
89.3971	1.80817
96.0499	1.6655
101.871	1.57825
107.277	1.49892
114.761	1.42742
121.83	1.37176
128.898	1.33193
136.798	1.27623
146.778	1.23628
157.173	1.20423
164.657	1.17228
177.131	1.13223
