Adsorption isotherm of Carbon Dioxide on Coal
DOI: 10.1016/j.coal.2013.11.009
Adsorbate Carbon Dioxide: InChIKey CURLTUGMZLYLDI-UHFFFAOYSA-N
Temperature: 318 K
Tabular data in the source: 0
pressure (bar)	uptake (mmol/g)
0.4158	0.102832
1.6632	0.26101
2.9106	0.403366
5.82121	0.553567
8.31601	0.640494
11.6424	0.727388
14.553	0.790564
20.3742	0.877359
24.948	0.932557
32.4324	0.987641
37.8378	1.02698
42.4116	1.05054
47.4012	1.08199
52.3909	1.10552
57.3805	1.12115
61.5385	1.12889
68.1913	1.15237
72.3493	1.16802
76.9231	1.17575
82.3285	1.19927
92.3077	1.19888
102.703	1.21429
111.85	1.22184
120.998	1.22148
126.403	1.22918
133.472	1.22099
145.53	1.22842
157.588	1.22003
165.489	1.21972
172.973	1.21151
182.121	1.21115
190.852	1.20289
