Adsorption isotherm of Carbon Dioxide on Coal
DOI: 10.1016/j.coal.2013.11.009
Adsorbate Carbon Dioxide: InChIKey CURLTUGMZLYLDI-UHFFFAOYSA-N
Temperature: 318 K
Tabular data in the source: 0
pressure (bar)	uptake (mmol/g)
0.414938	0.163535
0.829876	0.226441
1.24481	0.289347
1.65975	0.47804
2.07469	0.603839
2.48963	0.666745
2.90456	0.729651
5.80913	0.918422
7.05394	0.975065
8.71369	1.03801
9.95851	1.09465
11.2033	1.15759
13.6929	1.24571
17.0124	1.34645
19.5021	1.422
24.0664	1.52277
26.971	1.57946
29.4606	1.62986
32.3651	1.67397
35.2697	1.7118
38.1743	1.74963
41.9087	1.78748
45.6432	1.81276
49.3776	1.83803
53.112	1.84444
57.2614	1.85086
61.4108	1.8447
65.5602	1.83854
69.2946	1.81979
72.6141	1.80103
76.3485	1.77599
79.668	1.73835
82.9876	1.70072
85.8921	1.65679
89.2116	1.61916
90.0415	1.57516
92.1162	1.52491
94.6058	1.46838
96.6805	1.41813
99.1701	1.36161
101.66	1.31137
104.564	1.26744
107.469	1.21722
110.373	1.17957
113.693	1.13565
117.012	1.10431
121.577	1.06043
126.971	1.01657
132.365	0.985295
139.419	0.941491
145.228	0.916517
153.527	0.866463
160.166	0.841515
