Adsorption isotherm of Nitrogen on Coal
DOI: 10.1016/j.coal.2013.11.009
Adsorbate Nitrogen: InChIKey IJGRMHOSHXDMSA-UHFFFAOYSA-N
Temperature: 308 K
Tabular data in the source: 0
pressure (bar)	uptake (mmol/g)
0.746888	0.0169994
2.73859	0.0509745
4.73029	0.0849497
6.97095	0.113235
9.21162	0.135842
11.2033	0.164139
11.9502	0.169782
14.1909	0.192388
16.6805	0.209305
18.9212	0.226234
21.1618	0.243163
23.1535	0.254425
25.3942	0.271354
27.8838	0.282592
30.3734	0.293831
32.6141	0.31076
35.1037	0.321998
37.3444	0.333249
39.834	0.338809
42.3237	0.350048
44.5643	0.361298
47.0539	0.366859
49.2946	0.378109
51.5353	0.378003
52.2822	0.383646
54.7718	0.394885
57.0124	0.400457
59.5021	0.406017
61.9917	0.411578
64.2324	0.422828
66.722	0.428389
69.2116	0.433949
71.7012	0.439509
73.9419	0.445082
76.4315	0.450642
78.9212	0.456202
81.4108	0.461763
83.9004	0.461645
86.1411	0.467217
88.6307	0.472778
91.1203	0.478338
93.61	0.483899
96.0996	0.483781
98.5892	0.489341
100.83	0.494913
