Adsorption isotherm of Carbon Dioxide on Coal
DOI: 10.1016/j.coal.2013.11.009
Adsorbate Carbon Dioxide: InChIKey CURLTUGMZLYLDI-UHFFFAOYSA-N
Temperature: 318 K
Tabular data in the source: 0
pressure (bar)	uptake (mmol/g)
0.665281	0.416667
0.997921	0.495283
1.33056	0.573899
1.6632	0.731132
2.32848	0.809748
2.99376	0.888365
5.32225	1.08491
6.65281	1.15566
7.98337	1.22642
9.97921	1.32862
12.3077	1.43082
15.9667	1.5566
18.6279	1.63522
21.9543	1.74528
24.948	1.80818
28.9397	1.89465
33.5967	1.95755
38.9189	2.01258
45.2391	2.0283
52.5572	2.04403
59.21	2.04403
63.5343	2.02044
68.5239	2.00472
74.5114	1.96541
77.5052	1.94182
80.8316	1.91824
83.8254	1.87893
86.4865	1.84748
89.4802	1.80031
96.4657	1.65881
102.453	1.5566
109.771	1.47013
112.765	1.43868
116.091	1.41509
116.757	1.40723
120.083	1.38365
123.077	1.36006
126.403	1.34434
132.391	1.30503
136.383	1.28931
142.703	1.25786
