Adsorption isotherm of Nitrogen on Coal
DOI: 10.1016/j.coal.2013.11.009
Adsorbate Nitrogen: InChIKey IJGRMHOSHXDMSA-UHFFFAOYSA-N
Temperature: 318 K
Tabular data in the source: 0
pressure (bar)	uptake (mmol/g)
0.665281	0.0157233
2.32848	0.0786164
4.32432	0.149371
6.32017	0.204403
8.64865	0.259434
11.3098	0.314465
13.9709	0.361635
18.9605	0.43239
23.2848	0.47956
26.6112	0.503145
30.9356	0.534591
34.262	0.558176
37.2557	0.573899
40.9148	0.597484
44.2412	0.613208
47.2349	0.628931
50.894	0.644654
54.2204	0.652516
57.2141	0.668239
61.2058	0.676101
64.5322	0.691824
67.526	0.699686
70.8524	0.707547
74.1788	0.715409
77.5052	0.72327
80.8316	0.731132
84.158	0.731132
87.4844	0.738994
91.1435	0.746855
94.4699	0.754717
97.7963	0.754717
101.455	0.762579
104.782	0.77044
108.108	0.77044
111.435	0.778302
114.761	0.778302
117.755	0.786164
121.081	0.786164
124.407	0.786164
127.401	0.794025
130.728	0.794025
134.054	0.794025
137.38	0.801887
139.044	0.809748
