Adsorption isotherm of Carbon Dioxide on Coal
DOI: 10.1016/j.coal.2013.11.009
Adsorbate Carbon Dioxide: InChIKey CURLTUGMZLYLDI-UHFFFAOYSA-N
Temperature: 308 K
Tabular data in the source: 0
pressure (bar)	uptake (mmol/g)
0.248963	0.147622
0.746888	0.249807
0.995851	0.306577
1.24481	0.363348
1.49378	0.420119
1.9917	0.476877
2.48963	0.527958
2.98755	0.584717
3.9834	0.635774
4.97925	0.686831
6.22407	0.737876
7.71784	0.783231
9.46058	0.828574
11.2033	0.86824
13.9419	0.924892
15.9336	0.958867
17.9253	0.992843
20.166	1.02113
22.1577	1.04942
24.3983	1.07771
26.639	1.10032
28.8797	1.12292
31.1203	1.15121
33.112	1.16247
35.6017	1.17939
37.8423	1.19632
40.332	1.21323
42.8216	1.22447
45.0622	1.23572
47.5519	1.24696
50.0415	1.25252
52.2822	1.25809
54.7718	1.26933
57.0124	1.26355
59.2531	1.26912
61.7427	1.26332
64.2324	1.25753
66.722	1.25173
68.9627	1.24027
71.4523	1.2288
73.6929	1.20598
75.9336	1.18316
77.6763	1.14333
79.1701	1.09783
80.4149	1.04667
81.6598	1.00118
83.4025	0.955675
85.3942	0.921511
87.6349	0.898692
89.8755	0.875873
92.3651	0.864399
95.3527	0.841545
98.0913	0.830059
102.075	0.807157
