Adsorption isotherm of Methane on Coal
DOI: 10.1016/j.coal.2013.11.009
Adsorbate Methane: InChIKey VNWKTOKETHGBQD-UHFFFAOYSA-N
Temperature: 308 K
Tabular data in the source: 0
pressure (bar)	uptake (mmol/g)
0.746888	0.0624252
1.49378	0.113494
2.48963	0.170229
3.23651	0.221298
4.23237	0.272355
5.47718	0.3234
7.21992	0.351709
8.46473	0.391398
10.2075	0.425385
12.1992	0.45936
14.4398	0.487645
16.6805	0.51593
18.4232	0.53856
20.6639	0.561167
22.9046	0.578096
25.3942	0.600691
27.6349	0.61762
30.1245	0.634537
32.3651	0.651465
34.8548	0.668382
37.0954	0.679633
39.5851	0.690871
42.0747	0.707788
44.3154	0.719039
46.805	0.730277
49.0456	0.741528
51.5353	0.752766
53.7759	0.758339
56.2656	0.769577
58.5062	0.77515
60.9959	0.786388
63.4855	0.791949
65.7261	0.797521
68.2158	0.803081
70.7054	0.808642
73.195	0.814202
75.6846	0.819763
77.9253	0.825335
80.4149	0.830895
82.9046	0.830777
85.3942	0.836338
87.8838	0.83622
90.3734	0.84178
96.0996	0.852866
100.83	0.846964
102.573	0.858238
