Adsorption isotherm of N-Hexane, Toluene on ZSM-5 zeolite
DOI: 10.1021/acs.jpcc.6b11577
Article source: Figure 4
Adsorbate N-Hexane: InChIKey VLKZOEOYAKHREP-UHFFFAOYSA-N
Adsorbate Toluene: InChIKey YXFVVABEGXRONW-UHFFFAOYSA-N
Kind: experiment
Temperature: 298 K
Tabular data in the source: 0
pressure (bar)	N-Hexane fraction	N-Hexane uptake (wt%)	Toluene fraction	Toluene uptake (wt%)	total uptake (wt%)
0.000102	0.5	3.356	0.5	0.283	
0.000198	0.5	3.5556	0.5	0.3137	
0.000294	0.5	3.7552	0.5	0.3444	
0.000392	0.5	3.9263	0.5	0.3707	
0.000524	0.5	4.0624	0.5	0.3576	
0.000658	0.5	4.2839	0.5	0.3445	
0.000765	0.5	4.3541	0.5	0.3357	
0.000875	0.5	4.4134	0.5	0.3445	
0.001001	0.5	4.5757	0.5	0.3248	
0.00199	0.5	4.9004	0.5	0.3446	
0.003	0.5	5.0563	0.5	0.3952	
0.003993	0.5	5.0696	0.5	0.4085	
0.004993	0.5	5.0982	0.5	0.4218	
0.006001	0.5	5.1444	0.5	0.435	
0.006997	0.5	5.1467	0.5	0.4527	
0.008002	0.5	5.1534	0.5	0.4528	
0.008996	0.5	5.1557	0.5	0.4508	
0.009999	0.5	5.1734	0.5	0.4553	
0.010998	0.5	5.1845	0.5	0.4773	
0.015004	0.5	5.2113	0.5	0.5151	
0.017999	0.5	5.249	0.5	0.5549	
