Adsorption isotherm of N-Hexane, Toluene on HSZ-Y zeolite
DOI: 10.1021/acs.jpcc.6b11577
Article source: Figure 4
Adsorbate N-Hexane: InChIKey VLKZOEOYAKHREP-UHFFFAOYSA-N
Adsorbate Toluene: InChIKey YXFVVABEGXRONW-UHFFFAOYSA-N
Kind: experiment
Temperature: 298 K
Tabular data in the source: 0
pressure (bar)	N-Hexane fraction	N-Hexane uptake (wt%)	Toluene fraction	Toluene uptake (wt%)	total uptake (wt%)
9.7e-05	0.5	3e-05	0.5	5.7329	
0.000188	0.5	0.1607	0.5	6.9751	
0.000289	0.5	0.4778	0.5	8.7818	
0.0004	0.5	0.7471	0.5	9.7069	
0.000518	0.5	0.9035	0.5	10.2412	
0.000616	0.5	1.0121	0.5	10.7276	
0.000762	0.5	1.1338	0.5	11.1229	
0.000878	0.5	1.1381	0.5	11.4052	
0.001997	0.5	1.4424	0.5	15.1188	
0.002991	0.5	1.4861	0.5	15.5534	
0.003993	0.5	1.4776	0.5	15.7578	
0.004991	0.5	1.4865	0.5	15.9491	
0.006004	0.5	1.5215	0.5	16.0796	
0.007001	0.5	1.4957	0.5	16.2145	
0.008004	0.5	1.4742	0.5	16.3494	
0.009002	0.5	1.4745	0.5	16.4539	
0.01	0.5	1.4878	0.5	16.5714	
0.010996	0.5	1.5097	0.5	16.6324	
0.012	0.5	1.51	0.5	16.7369	
0.013	0.5	1.4928	0.5	16.7719	
0.014003	0.5	1.5018	0.5	16.8199	
0.015004	0.5	1.515	0.5	17.0025	
0.016	0.5	1.537	0.5	17.1504	
0.017003	0.5	1.5807	0.5	17.2419	
