Adsorption isotherm of Acetylene on C10H7CuO5
DOI: 10.1016/j.jssc.2013.05.004
Adsorbate Acetylene: InChIKey HSFWRNGVRCDJHI-UHFFFAOYSA-N
Temperature: 296 K
Tabular data in the source: 0
pressure (bar)	uptake (mmol/g)
0.0967742	1.01565
0.125806	1.18774
0.15914	1.34029
0.188172	1.4811
0.221505	1.61017
0.252688	1.73533
0.286022	1.8605
0.317204	1.97001
0.346237	2.0678
0.37957	2.17731
0.410753	2.27119
0.439785	2.35724
0.474194	2.45111
0.506452	2.54107
0.53871	2.62712
0.567742	2.71317
0.597849	2.78357
0.66129	2.94394
0.722581	3.09257
0.788172	3.22947
0.849462	3.3781
0.915054	3.51499
0.977419	3.65189
1.03763	3.7927
1.06989	3.85919
