Adsorption isotherm of Nitrogen on C10H7CuO5
DOI: 10.1016/j.jssc.2013.05.004
Adsorbate Nitrogen: InChIKey IJGRMHOSHXDMSA-UHFFFAOYSA-N
Temperature: 77 K
Tabular data in the source: 0
pressure (bar)	uptake (cm3(STP)/g)
0.0112757	319.383
0.0521809	341.233
0.0927707	346.872
0.127078	349.692
0.164499	352.511
0.20812	353.921
0.239272	354.626
0.282894	356.035
0.31406	357.445
0.35454	357.445
0.391919	358.15
0.435541	359.559
0.472907	359.559
0.504059	360.264
0.547667	360.969
0.581933	361.674
0.622413	361.674
0.66602	362.379
0.700272	362.379
0.737652	363.084
0.77816	364.493
0.799998	366.608
0.834319	370.132
0.868612	372.247
0.927789	372.952
