Adsorption isotherm of Carbon Dioxide on C10H7CuO5
DOI: 10.1016/j.jssc.2013.05.004
Adsorbate Carbon Dioxide: InChIKey CURLTUGMZLYLDI-UHFFFAOYSA-N
Temperature: 273 K
Tabular data in the source: 0
pressure (bar)	uptake (mmol/g)
0.00367384	0.0108557
0.00716846	0.0517241
0.0141577	0.0823755
0.0316308	0.169221
0.0677419	0.327586
0.0968638	0.475734
0.12948	0.593231
0.159767	0.726054
0.192384	0.863985
0.221505	0.981481
0.22267	0.971264
0.254122	1.08365
0.285573	1.20626
0.317025	1.30843
0.347312	1.4106
0.377599	1.51277
0.41138	1.61494
0.440502	1.72222
0.473118	1.80907
0.536022	1.99298
0.59776	2.15134
0.661828	2.32503
0.69095	2.40677
0.723566	2.49872
0.787634	2.64687
0.848208	2.80524
0.880824	2.88697
0.943728	3.03512
1.00547	3.17816
1.03692	3.26501
1.06953	3.32631
