Adsorption isotherm of Acetylene on C10H7CuO5
DOI: 10.1016/j.jssc.2013.05.004
Adsorbate Acetylene: InChIKey HSFWRNGVRCDJHI-UHFFFAOYSA-N
Temperature: 273 K
Tabular data in the source: 0
pressure (bar)	uptake (mmol/g)
0.00587025	1.76212
0.0577962	1.95963
0.109714	2.1419
0.153441	2.30903
0.205376	2.52178
0.254566	2.70408
0.295558	2.856
0.352947	3.06869
0.402154	3.28148
0.456807	3.47895
0.514204	3.70688
0.582526	3.96516
0.639915	4.17785
0.683651	4.36022
0.732841	4.54252
0.771114	4.70972
0.817569	4.87681
0.864032	5.05915
0.91595	5.24141
0.951479	5.37816
0.997942	5.56049
1.04441	5.75807
1.1018	5.97076
