Adsorption isotherm of Methane on C10H7CuO5
DOI: 10.1016/j.jssc.2013.05.004
Adsorbate Methane: InChIKey VNWKTOKETHGBQD-UHFFFAOYSA-N
Temperature: 296 K
Tabular data in the source: 0
pressure (bar)	uptake (mmol/g)
0.0876466	0.00697296
0.11583	0.0179795
0.140771	0.0305628
0.176556	0.0486514
0.191747	0.0588784
0.203668	0.0628082
0.236201	0.0793239
0.276322	0.0989847
0.315357	0.117859
0.352228	0.136734
0.384766	0.154824
0.422722	0.174487
0.467176	0.194932
0.498629	0.212236
0.560438	0.242907
0.615744	0.27122
0.648274	0.286948
0.680809	0.304251
0.738283	0.333351
0.777321	0.353012
0.801177	0.364808
0.834792	0.381324
0.872748	0.400986
0.902025	0.415141
0.951908	0.440308
0.992032	0.460756
1.04191	0.485135
1.08854	0.509516
1.12216	0.526031
1.17421	0.551197
