Adsorption isotherm of Carbon Dioxide on C10H7CuO5
DOI: 10.1016/j.jssc.2013.05.004
Adsorbate Carbon Dioxide: InChIKey CURLTUGMZLYLDI-UHFFFAOYSA-N
Temperature: 296 K
Tabular data in the source: 0
pressure (bar)	uptake (mmol/g)
0.00483871	0.00843373
0.011595	0.0198795
0.0150896	0.0319277
0.0183513	0.0373494
0.0316308	0.0759036
0.0642473	0.15
0.0963978	0.226506
0.128082	0.298795
0.158369	0.36506
0.190287	0.435542
0.221272	0.503012
0.252025	0.570482
0.284642	0.633735
0.31586	0.7
0.347079	0.762651
0.378763	0.825301
0.409982	0.883735
0.441434	0.945181
0.472885	1.00663
0.503405	1.06566
0.534624	1.12349
0.566308	1.18193
0.59776	1.23795
0.62828	1.29578
0.660197	1.35542
0.691649	1.40843
0.7231	1.46145
0.754319	1.51566
0.78647	1.57229
0.817222	1.6253
0.847975	1.67771
0.879194	1.72952
0.911111	1.77892
0.94233	1.83373
0.973082	1.88253
1.00477	1.93253
1.03575	1.98675
1.0686	2.03614
