Adsorption isotherm of Carbon Dioxide on C10H7CuO5
DOI: 10.1016/j.jssc.2013.05.004
Adsorbate Carbon Dioxide: InChIKey CURLTUGMZLYLDI-UHFFFAOYSA-N
Temperature: 273 K
Tabular data in the source: 0
pressure (bar)	uptake (mmol/g)
0.0176523	0.230524
0.0630824	0.373563
0.100358	0.506386
0.148118	0.644317
0.183065	0.751596
0.225	0.884419
0.277419	1.04278
1.13826	3.73499
