Adsorption isotherm of Acetylene on C10H7CuO5
DOI: 10.1016/j.jssc.2013.05.004
Adsorbate Acetylene: InChIKey HSFWRNGVRCDJHI-UHFFFAOYSA-N
Temperature: 273 K
Tabular data in the source: 0
pressure (bar)	uptake (mmol/g)
0.0958696	1.76098
0.128721	1.98922
0.158838	2.20225
0.188945	2.40004
0.221764	2.5673
0.251847	2.71936
0.28193	2.87142
0.317467	3.02341
0.350269	3.16018
0.380344	3.297
0.413146	3.43378
0.443212	3.55535
0.473287	3.69216
0.503345	3.79848
0.536138	3.92002
0.601717	4.14784
0.661825	4.34525
0.724676	4.57311
0.787519	4.78573
0.85309	4.99831
0.913198	5.19572
1.00881	5.48414
1.07163	5.65102
