Adsorption isotherm of Acetylene on C10H7CuO5
DOI: 10.1016/j.jssc.2013.05.004
Adsorbate Acetylene: InChIKey HSFWRNGVRCDJHI-UHFFFAOYSA-N
Temperature: 296 K
Tabular data in the source: 0
pressure (bar)	uptake (cm3(STP)/g)
0.00652343	3.46389
0.0195703	7.69936
0.0326171	11.1656
0.068496	18.1016
0.0978514	22.7276
0.127207	25.8151
0.159824	30.0576
0.189179	33.1451
0.221796	35.8492
0.24789	38.5509
0.283769	41.2562
0.316386	44.3449
0.349003	46.6643
0.371835	48.5956
0.407714	50.9163
0.440331	52.8511
0.479472	55.5575
0.508827	57.4912
0.531659	59.0379
0.5708	60.9751
0.600155	62.9087
0.665389	66.3938
0.7241	69.4919
0.782811	72.59
0.851307	75.6916
0.910018	79.1743
0.975252	82.6594
1.03722	85.374
1.06332	86.9219
