Adsorption isotherm of Methane on C10H7CuO5
DOI: 10.1016/j.jssc.2013.05.004
Adsorbate Methane: InChIKey VNWKTOKETHGBQD-UHFFFAOYSA-N
Temperature: 273 K
Tabular data in the source: 0
pressure (bar)	uptake (mmol/g)
0.0287566	0.0225359
0.0734065	0.0569155
0.152471	0.116708
0.401329	0.304158
0.463049	0.3499
0.525046	0.397733
0.580506	0.439587
0.618903	0.46799
0.664973	0.503863
0.682039	0.51642
0.7247	0.548708
0.769639	0.581595
0.804333	0.609098
0.837042	0.633016
0.864061	0.653346
0.896766	0.678756
0.927482	0.701777
0.958766	0.725693
0.987776	0.747518
1.02702	0.777413
1.06172	0.802826
1.0987	0.829734
1.15131	0.87069
1.16837	0.885038
