Adsorption isotherm of Methane on C10H7CuO5
DOI: 10.1016/j.jssc.2013.05.004
Adsorbate Methane: InChIKey VNWKTOKETHGBQD-UHFFFAOYSA-N
Temperature: 273 K
Tabular data in the source: 0
pressure (bar)	uptake (mmol/g)
0.00517004	-0.00137179
0.0165546	0.00461143
0.0350521	0.0150804
0.0663218	0.0434745
0.0961708	0.0703745
0.127459	0.0927985
0.16015	0.122687
0.190013	0.145109
0.218432	0.1735
0.252567	0.19742
0.283851	0.221336
0.313695	0.249729
0.349255	0.27365
0.379113	0.297565
0.411818	0.322976
0.443097	0.348385
0.470105	0.372296
0.504235	0.397709
0.535528	0.41864
0.566817	0.441064
0.629389	0.487405
0.691976	0.529267
0.754558	0.572623
0.817135	0.617471
0.878296	0.659332
0.940888	0.699703
1.00489	0.746045
1.06463	0.786412
