Adsorption isotherm of Acetylene on C10H7CuO5
DOI: 10.1016/j.jssc.2013.05.004
Adsorbate Acetylene: InChIKey HSFWRNGVRCDJHI-UHFFFAOYSA-N
Temperature: 296 K
Tabular data in the source: 0
pressure (bar)	uptake (mmol/g)
0.0677419	1.28553
0.112903	1.40678
0.16129	1.5382
0.201505	1.64302
0.235914	1.7369
0.278065	1.85111
0.31828	1.96063
0.354839	2.05763
0.389892	2.14837
0.441505	2.28449
0.495269	2.42764
0.548602	2.57236
0.58	2.65997
0.616559	2.75385
0.647312	2.83677
0.685376	2.93846
0.723226	3.03546
0.757634	3.12934
0.811398	3.27484
0.865161	3.42347
0.92043	3.56975
0.988602	3.74967
1.03806	3.88031
1.09398	4.02894
1.12624	4.11734
1.15699	4.19948
