Adsorption isotherm of Carbon Dioxide on C10H7CuO5
DOI: 10.1016/j.jssc.2013.05.004
Adsorbate Carbon Dioxide: InChIKey CURLTUGMZLYLDI-UHFFFAOYSA-N
Temperature: 296 K
Tabular data in the source: 0
pressure (bar)	uptake (cm3(STP)/g)
0.0326171	1.16561
0.068496	3.10162
0.101113	4.65185
0.130469	6.58551
0.163086	8.13573
0.195703	8.91673
0.221796	10.8492
0.251152	12.0136
0.287031	13.9497
0.313124	15.1129
0.345742	16.6631
0.375097	18.2122
0.407714	19.3778
0.440331	20.928
0.469687	21.7078
0.502304	23.6427
0.534921	24.8083
0.567538	25.9739
0.600155	27.1395
0.658866	30.2376
0.7241	32.9534
0.786073	35.2835
0.81869	36.4491
0.848045	37.6135
0.880662	39.1637
0.910018	40.3282
0.97199	42.2736
0.998084	43.4368
1.03396	44.6036
1.06658	45.7692
