Adsorption isotherm of Methane on C10H7CuO5
DOI: 10.1016/j.jssc.2013.05.004
Adsorbate Methane: InChIKey VNWKTOKETHGBQD-UHFFFAOYSA-N
Temperature: 296 K
Tabular data in the source: 0
pressure (bar)	uptake (mmol/g)
0.0941326	0.00460682
0.126671	0.0226974
0.154882	0.0415779
0.188497	0.058093
0.21995	0.0753968
0.251403	0.0927005
0.282859	0.110792
0.316477	0.128094
0.347921	0.143036
0.379374	0.16034
0.40973	0.173707
0.440101	0.191011
0.470468	0.207528
0.50299	0.220895
0.536613	0.239772
0.565887	0.25314
0.601661	0.268079
0.629858	0.283022
0.660215	0.29639
0.693835	0.31448
0.725271	0.327059
0.756718	0.342788
0.787083	0.358518
0.818522	0.371885
0.851052	0.387613
0.882496	0.402555
0.912867	0.419859
0.943217	0.431652
0.97575	0.448167
1.00718	0.459959
1.03864	0.477263
1.07115	0.489054
