Adsorption isotherm of Carbon Dioxide on C10H7CuO5
DOI: 10.1016/j.jssc.2013.05.004
Adsorbate Carbon Dioxide: InChIKey CURLTUGMZLYLDI-UHFFFAOYSA-N
Temperature: 296 K
Tabular data in the source: 0
pressure (bar)	uptake (mmol/g)
0.0141577	0.0843373
0.0514337	0.14759
0.0828853	0.216867
0.117832	0.286145
0.157437	0.355422
0.188889	0.421687
0.22733	0.487952
0.257616	0.554217
0.286505	0.607229
0.317957	0.665663
0.354767	0.737349
0.388781	0.80241
0.428154	0.876506
0.461237	0.940964
0.523208	1.05904
0.566075	1.14277
0.603817	1.21446
0.634337	1.27711
0.714946	1.43012
0.750824	1.4994
0.788333	1.56928
0.826075	1.64337
0.86009	1.70783
0.89224	1.77048
1.08584	2.13916
1.10728	2.18554
1.14059	2.24699
