Adsorption isotherm of Hydrogen on C10H7CuO5
DOI: 10.1016/j.jssc.2013.05.004
Adsorbate Hydrogen: InChIKey UFHFLCQGNIYNRP-UHFFFAOYSA-N
Temperature: 77 K
Tabular data in the source: 0
pressure (bar)	uptake (cm3(STP)/g)
0.0138856	4.68293
0.017229	11.7073
0.0447784	31.2195
0.0690355	41.3659
0.0967896	51.5122
0.124595	59.3171
0.148903	67.122
0.180239	73.3659
0.204599	78.8293
0.228975	83.5122
0.263826	88.9756
0.288236	92.0976
0.309133	96
0.340521	99.9024
0.364931	103.024
0.396302	107.707
0.427706	110.829
0.445157	112.39
0.469568	115.512
0.500989	117.854
0.5254	120.976
0.553325	123.317
0.574255	125.659
0.609174	128
0.640579	131.122
0.658046	131.902
0.689468	134.244
0.710382	137.366
0.748814	138.927
0.783716	142.049
0.811624	145.171
0.843079	145.951
0.881461	149.854
0.923373	152.195
0.965269	155.317
1.0072	156.878
1.0421	160
1.07004	161.561
