Adsorption isotherm of Methane on C10H7CuO5
DOI: 10.1016/j.jssc.2013.05.004
Adsorbate Methane: InChIKey VNWKTOKETHGBQD-UHFFFAOYSA-N
Temperature: 296 K
Tabular data in the source: 0
pressure (bar)	uptake (cm3(STP)/g)
0.0424023	-0.369325
0.101113	0.805693
0.130469	1.20089
0.163086	1.59727
0.189179	1.9913
0.22832	2.39003
0.254414	2.78405
0.277246	3.1769
0.345742	3.58622
0.375097	4.36603
0.407714	4.37779
0.440331	4.77417
0.466425	4.78358
0.49578	5.5634
0.534921	5.57751
0.596893	6.36909
0.626249	6.37968
0.662128	6.77723
0.720838	7.18302
0.753456	7.57939
0.815428	7.98636
0.848045	8.76735
0.877401	8.77793
0.910018	9.17431
0.97199	9.96589
1.00135	10.3611
1.03396	10.3729
1.06658	10.7692
