Adsorption isotherm of Nitrogen on DMOF-1-bpdc
DOI: 10.1021/Ic202683s
Adsorbate Nitrogen: InChIKey IJGRMHOSHXDMSA-UHFFFAOYSA-N
Temperature: 77 K
Tabular data in the source: 0
pressure (bar)	uptake (cm3(STP)/g)
0.00372489	26.1008
0.0180263	39.2581
0.0394785	40.9743
0.0795225	43.2625
0.135298	44.9787
0.25257	46.1228
0.405595	45.5507
0.45136	46.1228
0.507135	46.1228
0.671602	46.1228
0.794594	47.2669
0.85752	47.2669
0.95906	46.6949
