Adsorption isotherm of Nitrogen on BMOF-1-dcppy
DOI: 10.1021/Ic202683s
Adsorbate Nitrogen: InChIKey IJGRMHOSHXDMSA-UHFFFAOYSA-N
Temperature: 77 K
Tabular data in the source: 0
pressure (bar)	uptake (cm3(STP)/g)
0.0137359	19.2361
0.0709416	22.0964
0.123857	23.8126
0.196794	24.3846
0.249709	23.8126
0.35411	25.5287
0.448499	26.6729
0.547179	26.6729
0.620117	26.6729
0.648719	26.6729
0.737388	333.296
0.780293	348.741
0.843219	361.898
0.909005	371.051
0.95906	378.488
