Adsorption isotherm of Nitrogen on BMOF-1-bpdc
DOI: 10.1021/Ic202683s
Adsorbate Nitrogen: InChIKey IJGRMHOSHXDMSA-UHFFFAOYSA-N
Temperature: 77 K
Tabular data in the source: 0
pressure (bar)	uptake (cm3(STP)/g)
0.00658518	9.51114
0.0623608	11.7994
0.139588	12.9435
0.198224	13.5155
0.298334	13.5155
0.421327	11.7994
0.521437	12.9435
0.618686	11.2273
0.670172	10.6553
0.75884	11.7994
0.863241	10.6553
0.920447	11.2273
0.95763	12.3714
