Adsorption isotherm of Carbon Dioxide on BMOF-1-dcppy
DOI: 10.1021/Ic202683s
Adsorbate Carbon Dioxide: InChIKey CURLTUGMZLYLDI-UHFFFAOYSA-N
Temperature: 196 K
Tabular data in the source: 0
pressure (bar)	uptake (cm3(STP)/g)
0.0178993	43.3864
0.0731388	53.5272
0.132857	62.5413
0.197054	67.0484
0.262744	70.992
0.335899	74.3723
0.403082	78.316
0.473251	80.0061
0.510575	81.6962
0.586716	160.006
0.709139	169.584
0.773336	172.4
0.812153	175.781
0.834547	185.358
0.87635	223.105
0.913674	278.316
0.95697	342.541
0.979364	361.133
