Adsorption isotherm of Nitrogen on DMOF-1-dcppy
DOI: 10.1021/Ic202683s
Adsorbate Nitrogen: InChIKey IJGRMHOSHXDMSA-UHFFFAOYSA-N
Temperature: 77 K
Tabular data in the source: 0
pressure (bar)	uptake (cm3(STP)/g)
0.00372489	21.5243
0.0223168	27.2449
0.0580703	29.5331
0.0938239	31.8214
0.294044	31.8214
0.418466	31.8214
0.520007	32.9655
0.615826	33.5375
0.670172	32.9655
0.761701	32.9655
0.85895	31.8214
0.919016	31.8214
0.974792	32.3934
