Adsorption isotherm of Carbon Dioxide on DMOF-1-bpdc
DOI: 10.1021/Ic202683s
Adsorbate Carbon Dioxide: InChIKey CURLTUGMZLYLDI-UHFFFAOYSA-N
Temperature: 196 K
Tabular data in the source: 0
pressure (bar)	uptake (cm3(STP)/g)
0.00894159	11.2737
0.0373078	25.9216
0.065674	34.9357
0.102998	41.1329
0.132857	50.1469
0.164209	66.485
0.216463	69.8652
0.300068	74.9357
0.365758	78.8793
0.434435	81.1329
0.503111	83.9498
0.571787	87.8934
0.637477	91.2737
0.709139	92.4005
0.774829	94.654
0.840519	97.4709
0.909195	100.288
0.976378	101.978
