Adsorption isotherm of Carbon Dioxide on BMOF-1-bpdc
DOI: 10.1021/Ic202683s
Adsorbate Carbon Dioxide: InChIKey CURLTUGMZLYLDI-UHFFFAOYSA-N
Temperature: 196 K
Tabular data in the source: 0
pressure (bar)	uptake (cm3(STP)/g)
0.00744863	18.5976
0.0178993	38.8793
0.0522374	56.9075
0.0731388	66.485
0.110463	74.9357
0.162716	80.5695
0.238857	88.4568
0.323956	92.4005
0.407561	95.7807
0.471758	98.0343
0.540435	99.161
0.604632	100.288
0.676294	101.978
0.746463	103.668
0.804688	104.795
0.873364	105.358
0.94204	107.048
0.976378	108.175
