Adsorption isotherm of Carbon Dioxide on DMOF-1-dcppy
DOI: 10.1021/Ic202683s
Adsorbate Carbon Dioxide: InChIKey CURLTUGMZLYLDI-UHFFFAOYSA-N
Temperature: 196 K
Tabular data in the source: 0
pressure (bar)	uptake (cm3(STP)/g)
0.00595567	4.51314
0.0343219	16.3441
0.065674	18.0343
0.137336	24.2315
0.195561	28.7385
0.274688	41.6962
0.347843	45.6399
0.43742	47.8934
0.516547	47.8934
0.565815	47.8934
0.676294	48.4568
0.759899	49.0202
0.833054	49.5836
0.918153	48.4568
0.991308	48.4568
