Adsorption isotherm of Carbon Dioxide on PAF-1-SO3H
DOI: 10.1039/C3cc45252b
Adsorbate Carbon Dioxide: InChIKey CURLTUGMZLYLDI-UHFFFAOYSA-N
Temperature: 295 K
Tabular data in the source: 0
pressure (bar)	uptake (cm3(STP)/g)
0.0115291	4.58514
0.0417324	10.4185
0.0772658	17.0851
0.114576	22.5851
0.166099	30.0851
0.230059	37.5851
0.304679	45.5851
0.381076	52.5851
0.445036	58.2518
0.516102	63.5851
0.580062	67.7518
0.642246	72.2518
0.725749	77.4185
0.816359	82.4185
0.885649	86.0851
0.953162	89.5851
1.02068	93.4185
1.05266	94.7518
1.08108	95.9185
