Adsorption isotherm of Carbon Dioxide on PAF-1
DOI: 10.1039/C3cc45252b
Adsorbate Carbon Dioxide: InChIKey CURLTUGMZLYLDI-UHFFFAOYSA-N
Temperature: 295 K
Tabular data in the source: 0
pressure (bar)	uptake (cm3(STP)/g)
0.0612758	1.41847
0.111022	3.08514
0.201632	5.2518
0.317116	8.58514
0.420162	11.0851
0.473462	12.5851
0.523209	14.0851
0.606712	16.0851
0.729302	19.7518
0.857222	23.0851
0.953162	25.5851
1.01002	27.0851
1.0491	28.0851
1.08464	28.9185
