Adsorption isotherm of Carbon Dioxide on Poly(FA)-900
DOI: 10.1039/C3cc45252b
Adsorbate Carbon Dioxide: InChIKey CURLTUGMZLYLDI-UHFFFAOYSA-N
Temperature: 295 K
Tabular data in the source: 0
pressure (bar)	uptake (cm3(STP)/g)
0.180312	8.41847
0.222952	10.2518
0.278029	11.9185
0.331329	13.5851
0.386406	15.0851
0.445036	16.4185
0.530316	17.9185
0.599606	19.0851
0.674226	20.4185
0.741739	21.4185
0.807476	22.5851
0.869659	23.4185
0.917629	24.4185
0.985142	25.4185
1.02245	25.9185
1.05976	26.9185
