Adsorption isotherm of Carbon Dioxide on PAF-1
DOI: 10.1039/C3cc45252b
Adsorbate Carbon Dioxide: InChIKey CURLTUGMZLYLDI-UHFFFAOYSA-N
Temperature: 273 K
Tabular data in the source: 0
pressure (bar)	uptake (cm3(STP)/g)
0.0061991	0.127706
0.0523924	2.12771
0.112799	5.12771
0.203409	9.37771
0.281582	13.1277
0.381076	17.3777
0.487676	22.6277
0.555189	25.3777
0.654682	30.3777
0.716866	33.3777
0.789709	36.3777
0.844786	38.8777
0.921182	42.6277
0.976259	44.8777
1.00113	45.8777
1.02423	47.3777
1.05443	48.6277
1.07753	49.8777
