Adsorption isotherm of Nitrogen on PAF-1-SO3H
DOI: 10.1039/C3cc45252b
Adsorbate Nitrogen: InChIKey IJGRMHOSHXDMSA-UHFFFAOYSA-N
Temperature: 77 K
Tabular data in the source: 0
pressure (bar)	uptake (cm3(STP)/g)
0.000826	19.7554
0.000826	60.7554
0.000826	123.255
0.000826	139.755
0.00757923	144.755
0.0160209	148.255
0.0295276	152.255
0.0497876	155.255
0.0801776	157.255
0.112256	158.755
0.144334	159.755
0.179789	160.755
0.228751	161.755
0.274336	162.755
0.353688	163.255
0.426286	163.755
0.527586	163.755
0.610314	164.255
0.693043	164.255
0.772394	164.255
0.846681	164.255
0.912526	164.255
0.946293	165.255
0.974994	165.755
