Adsorption isotherm of Nitrogen on PAF-1/C-900
DOI: 10.1039/C3cc45252b
Adsorbate Nitrogen: InChIKey IJGRMHOSHXDMSA-UHFFFAOYSA-N
Temperature: 77 K
Tabular data in the source: 0
pressure (bar)	uptake (cm3(STP)/g)
0.000826	1.3622
0.00251422	246.696
0.0143326	262.696
0.0329042	281.362
0.0565409	289.362
0.0970609	294.696
0.162906	302.696
0.289531	313.362
0.370571	318.696
0.490443	318.696
0.566418	318.696
0.647458	321.362
0.750446	321.362
0.851746	321.362
0.942916	321.362
0.980059	321.362
