Adsorption isotherm of Nitrogen on PAF-1
DOI: 10.1039/C3cc45252b
Adsorbate Nitrogen: InChIKey IJGRMHOSHXDMSA-UHFFFAOYSA-N
Temperature: 77 K
Tabular data in the source: 0
pressure (bar)	uptake (cm3(STP)/g)
0.000826	1.3622
0.00251422	246.696
0.00420256	516.029
0.0109559	617.362
0.0210859	718.696
0.0295276	798.696
0.0430342	870.696
0.0582292	945.362
0.0818659	1022.7
0.107191	1076.03
0.144334	1142.7
0.184854	1188.03
0.232128	1236.03
0.303038	1289.36
0.351999	1318.7
0.429663	1364.03
0.512391	1401.36
0.600184	1436.03
0.691354	1468.03
0.782524	1497.36
0.888889	1524.03
0.969929	1540.03
