Adsorption isotherm of Carbon Dioxide on PAF-1-SO3H
DOI: 10.1039/C3cc45252b
Adsorbate Carbon Dioxide: InChIKey CURLTUGMZLYLDI-UHFFFAOYSA-N
Temperature: 295 K
Tabular data in the source: 0
pressure (bar)	uptake (cm3(STP)/g)
0.0150824	3.91847
0.0346258	7.7518
0.0648291	12.2518
0.0932558	15.4185
0.130566	19.2518
0.166099	22.4185
0.226506	26.4185
0.290466	30.5851
0.349096	34.4185
0.388182	36.2518
0.462802	39.5851
0.537422	42.9185
0.619149	45.9185
0.684886	47.9185
0.757729	50.2518
0.844786	52.9185
0.910522	54.5851
0.992249	56.5851
1.0491	58.0851
