Adsorption isotherm of Carbon Dioxide on PAF-1/C-900
DOI: 10.1039/C3cc45252b
Adsorbate Carbon Dioxide: InChIKey CURLTUGMZLYLDI-UHFFFAOYSA-N
Temperature: 273 K
Tabular data in the source: 0
pressure (bar)	uptake (cm3(STP)/g)
0.0150824	9.62771
0.0275191	15.8777
0.0523924	24.8777
0.0790424	32.3777
0.107469	40.3777
0.143002	48.6277
0.180312	56.3777
0.222952	63.3777
0.283359	71.6277
0.333106	78.6277
0.386406	84.8777
0.437929	90.3777
0.493006	95.8777
0.546306	101.378
0.617372	107.628
0.681332	113.378
0.759506	118.878
0.814582	123.128
0.866106	126.628
0.924736	130.128
0.969152	132.878
1.00824	135.378
1.042	136.878
1.08108	139.378
