Adsorption isotherm of Nitrogen on PAF-1-900
DOI: 10.1039/C3cc45252b
Adsorbate Nitrogen: InChIKey IJGRMHOSHXDMSA-UHFFFAOYSA-N
Temperature: 77 K
Tabular data in the source: 0
pressure (bar)	uptake (cm3(STP)/g)
0.000826	1.3622
0.000826	185.362
0.0109559	212.029
0.0227742	222.696
0.0362809	228.029
0.0531642	233.362
0.107191	236.029
0.215244	238.696
0.328363	241.362
0.411091	241.362
0.525898	241.362
0.627198	241.362
0.753823	241.362
0.883824	241.362
0.936163	241.362
0.968241	241.362
