Adsorption isotherm of Carbon Dioxide on PAF-1/C-900
DOI: 10.1039/C3cc45252b
Adsorbate Carbon Dioxide: InChIKey CURLTUGMZLYLDI-UHFFFAOYSA-N
Temperature: 295 K
Tabular data in the source: 0
pressure (bar)	uptake (cm3(STP)/g)
0.0204124	5.41847
0.0364024	9.41847
0.0683824	15.0851
0.100362	20.5851
0.130566	24.9185
0.158992	29.4185
0.205186	34.9185
0.253156	39.9185
0.308232	46.0851
0.361532	50.9185
0.437929	57.2518
0.500112	61.9185
0.572956	67.0851
0.629809	70.7518
0.720419	76.2518
0.798592	80.9185
0.864329	84.5851
0.921182	87.7518
0.979812	90.4185
1.02778	92.5851
1.06687	94.5851
1.08286	95.2518
