Adsorption isotherm of Carbon Dioxide on PAF-1-900
DOI: 10.1039/C3cc45252b
Adsorbate Carbon Dioxide: InChIKey CURLTUGMZLYLDI-UHFFFAOYSA-N
Temperature: 295 K
Tabular data in the source: 0
pressure (bar)	uptake (cm3(STP)/g)
0.0133058	4.2518
0.0257424	7.91847
0.0399558	11.9185
0.0630524	15.9185
0.0950324	20.2518
0.121682	23.5851
0.146556	27.2518
0.171429	30.0851
0.203409	33.4185
0.226506	36.2518
0.253156	38.7518
0.278029	40.7518
0.306456	43.4185
0.336659	45.5851
0.365086	47.4185
0.389959	49.4185
0.414832	50.9185
0.441482	53.0851
0.469909	54.7518
0.510772	57.4185
0.569402	60.4185
0.638692	64.0851
0.700876	67.0851
0.763059	70.0851
0.816359	72.0851
0.867882	74.2518
0.921182	76.2518
0.974482	78.0851
1.02245	79.9185
1.05443	81.2518
