Adsorption isotherm of Nitrogen on PAF-1-SO3H
DOI: 10.1039/C3cc45252b
Adsorbate Nitrogen: InChIKey IJGRMHOSHXDMSA-UHFFFAOYSA-N
Temperature: 77 K
Tabular data in the source: 0
pressure (bar)	uptake (cm3(STP)/g)
0.000826	139.755
0.000826	247.755
0.00757923	258.255
0.0109559	266.255
0.0210859	276.755
0.0329042	282.755
0.0497876	287.755
0.0700476	292.755
0.107191	298.255
0.142646	303.755
0.201738	309.255
0.255764	312.255
0.323298	315.255
0.390831	316.755
0.470183	317.755
0.579924	318.755
0.679536	318.755
0.779148	318.755
0.870318	318.755
0.927721	316.755
0.964864	316.755
