Adsorption isotherm of Carbon Dioxide on IRMOF-1-H
DOI: 10.1016/j.apsusc.2013.07.068
Adsorbate Carbon Dioxide: InChIKey CURLTUGMZLYLDI-UHFFFAOYSA-N
Temperature: 298 K
Tabular data in the source: 0
pressure (bar)	uptake (mmol/m2)
0.0232612	2.84e-05
0.103261	0.000135
0.236595	0.000235
0.383261	0.000355
0.603261	0.000488
0.823261	0.000608
1.07659	0.000728
1.39659	0.000858
1.80326	0.000995
2.10326	0.00107504
2.41659	0.00115837
2.72993	0.00124504
3.16326	0.0013217
3.40993	0.00138504
3.64993	0.0014217
3.94993	0.00147504
