Adsorption isotherm of Carbon Dioxide on IRMOF-1/AGO-O
DOI: 10.1016/j.apsusc.2013.07.068
Adsorbate Carbon Dioxide: InChIKey CURLTUGMZLYLDI-UHFFFAOYSA-N
Temperature: 298 K
Tabular data in the source: 0
pressure (bar)	uptake (mmol/m2)
0.00992784	2.84e-05
0.109928	0.000295
0.223261	0.000468
0.403261	0.000655
0.596595	0.000822
0.789928	0.000948
1.00326	0.00102504
1.20993	0.0011117
1.40993	0.00119837
1.58993	0.00122504
1.78326	0.00130837
1.99659	0.00133837
2.18993	0.0014217
2.61659	0.00149837
2.99659	0.0016317
3.18326	0.00166504
3.58993	0.00176837
3.80993	0.0018217
3.98993	0.00185504
