Adsorption isotherm of Carbon Dioxide on IRMOF-1/AGO-O
DOI: 10.1016/j.apsusc.2013.07.068
Adsorbate Carbon Dioxide: InChIKey CURLTUGMZLYLDI-UHFFFAOYSA-N
Temperature: 298 K
Tabular data in the source: 0
pressure (bar)	uptake (mmol/g)
0.0165945	0.00585137
0.129928	0.0908514
0.216595	0.134185
0.416595	0.189185
0.596595	0.235851
0.829928	0.275851
1.04326	0.305851
1.33659	0.335851
1.66326	0.364185
2.02326	0.395851
2.40993	0.427518
2.78993	0.450851
3.20993	0.482518
3.42326	0.504185
3.62326	0.515851
3.84326	0.534185
3.99659	0.539185
