Adsorption isotherm of Carbon Dioxide on IRMOF-1-H
DOI: 10.1016/j.apsusc.2013.07.068
Adsorbate Carbon Dioxide: InChIKey CURLTUGMZLYLDI-UHFFFAOYSA-N
Temperature: 298 K
Tabular data in the source: 0
pressure (bar)	uptake (mmol/g)
0.0165945	0.00585137
0.109928	0.0641847
0.316595	0.127518
0.523261	0.185851
0.783261	0.250851
1.01659	0.304185
1.41659	0.369185
1.77659	0.419185
2.16993	0.469185
2.57659	0.509185
3.00326	0.550851
3.43659	0.585851
3.82993	0.620851
3.99659	0.632518
