Adsorption isotherm of Carbon Dioxide on IRMOF-1/GO-H
DOI: 10.1016/j.apsusc.2013.07.068
Adsorbate Carbon Dioxide: InChIKey CURLTUGMZLYLDI-UHFFFAOYSA-N
Temperature: 298 K
Tabular data in the source: 0
pressure (bar)	uptake (mmol/g)
0.0165945	0.00585137
0.103261	0.0808514
0.209928	0.135851
0.423261	0.234185
0.629928	0.314185
0.809928	0.389185
0.983261	0.447518
1.42993	0.567518
1.62993	0.625851
1.80993	0.665851
2.00326	0.704185
2.18993	0.750851
2.40993	0.787518
2.81659	0.867518
3.38326	0.970851
3.62993	0.999185
3.81659	1.02585
4.00993	1.04752
