Adsorption isotherm of Phosphate Ion, Water on MFB-MC
DOI: 10.1016/j.biortech.2017.09.035
Article source: Figure 4
Adsorbate Phosphate Ion: InChIKey NBIIXXVUZAFLBC-UHFFFAOYSA-K
Adsorbate Water: InChIKey XLYOFNOQVPJJNP-UHFFFAOYSA-N
Kind: experiment
Temperature: 293 K
Tabular data in the source: 0
pressure (bar)	Phosphate Ion fraction	Phosphate Ion uptake (mg/g)	Water fraction	Water uptake (mg/g)	total uptake (mg/g)
1.01325	1.61	21.71			
1.01325	14.41	84.09			
1.01325	34.11	133.46			
1.01325	71.66	195.32			
1.01325	150.64	259.03			
1.01325	251.25	321.51			
1.01325	458.4	348.85			
