Adsorption isotherm of Phosphate Ion, Water on MFB-MC
DOI: 10.1016/j.biortech.2017.09.035
Article source: Figure 4
Adsorbate Phosphate Ion: InChIKey NBIIXXVUZAFLBC-UHFFFAOYSA-K
Adsorbate Water: InChIKey XLYOFNOQVPJJNP-UHFFFAOYSA-N
Kind: experiment
Temperature: 303 K
Tabular data in the source: 0
pressure (bar)	Phosphate Ion fraction	Phosphate Ion uptake (mg/g)	Water fraction	Water uptake (mg/g)	total uptake (mg/g)
1.01325	1.08	30.4			
1.01325	10.4	110.47			
1.01325	27.42	173.11			
1.01325	57.08	235.21			
1.01325	136.22	343.25			
1.01325	229.53	395.41			
1.01325	425.76	428.9			
