Adsorption isotherm of Phosphate Ion, Water on MFB-MC
DOI: 10.1016/j.biortech.2017.09.035
Article source: Figure 4
Adsorbate Phosphate Ion: InChIKey NBIIXXVUZAFLBC-UHFFFAOYSA-K
Adsorbate Water: InChIKey XLYOFNOQVPJJNP-UHFFFAOYSA-N
Kind: experiment
Temperature: 283 K
Tabular data in the source: 0
pressure (bar)	Phosphate Ion fraction	Phosphate Ion uptake (mg/g)	Water fraction	Water uptake (mg/g)	total uptake (mg/g)
1.01325	3.56	19.18			
1.01325	16.09	54.27			
1.01325	38.39	96.95			
1.01325	79.31	117.06			
1.01325	169.41	191.87			
1.01325	274.28	222.12			
1.01325	464.35	239.84			
