Adsorption isotherm of Carbon Dioxide, Nitrogen on Active Carbon
DOI: 10.1021/acs.jced.6b00209
Article source: Figure  11
Adsorbate Carbon Dioxide: InChIKey CURLTUGMZLYLDI-UHFFFAOYSA-N
Adsorbate Nitrogen: InChIKey IJGRMHOSHXDMSA-UHFFFAOYSA-N
Kind: experiment
Temperature: 298 K
Tabular data in the source: 0
pressure (bar)	Carbon Dioxide fraction	Carbon Dioxide uptake (mmol/g)	Nitrogen fraction	Nitrogen uptake (mmol/g)	total uptake (mmol/g)
1.2025	0.2	0.651	0.8	0.8828	
5.5335	0.2	2.4742	0.8	3.0648	
10.8805	0.2	3.8532	0.8	4.6102	
19.1185	0.2	5.0422	0.8	5.8925	
31.186	0.2	6.0118	0.8	6.9052	
41.443	0.2	6.3984	0.8	7.3049	
61.208	0.2	6.7631	0.8	7.6435	
