Adsorption isotherm of Carbon Dioxide, Nitrogen, Methane on Active Carbon
DOI: 10.1021/acs.jced.6b00209
Article source: figure 12
Adsorbate Carbon Dioxide: InChIKey CURLTUGMZLYLDI-UHFFFAOYSA-N
Adsorbate Nitrogen: InChIKey IJGRMHOSHXDMSA-UHFFFAOYSA-N
Adsorbate Methane: InChIKey VNWKTOKETHGBQD-UHFFFAOYSA-N
Kind: experiment
Temperature: 298 K
Tabular data in the source: 0
pressure (bar)	Carbon Dioxide fraction	Carbon Dioxide uptake (mmol/g)	Nitrogen fraction	Nitrogen uptake (mmol/g)	Methane fraction	Methane uptake (mmol/g)	total uptake (mmol/g)
0.967333	0.1	1.078	0.2	0.0695	0.7	0.776	
4.852	0.1	3.2291	0.2	0.1228	0.7	2.1699	
10.39	0.1	4.6331	0.2	0.1576	0.7	3.2552	
20.099	0.1	6.1427	0.2	0.1709	0.7	3.7603	
30.2487	0.1	6.8682	0.2	0.186	0.7	4.0442	
38.3513	0.1	7.2069	0.2	0.1684	0.7	4.2782	
49.3677	0.1	7.4489	0.2	0.1749	0.7	4.3911	
58.3293	0.1	7.5529	0.2	0.1683	0.7	4.3708	
