Adsorption isotherm of Methane on Activated Carbon
DOI: 10.1021/acs.jced.6b00209
Article source: Figure  8
Adsorbate Methane: InChIKey VNWKTOKETHGBQD-UHFFFAOYSA-N
Kind: experiment
Temperature: 298 K
Tabular data in the source: 0
pressure (bar)	uptake (mmol/g)
0.283	0.1813
0.291	0.1922
0.421	0.6192
0.489	0.6688
0.837	0.9827
1.034	1.0758
5.282	2.8571
10.047	3.9065
20.385	5.1
27.428	5.5467
39.906	5.9974
49.796	6.179
58.243	6.2662
