Adsorption isotherm of Nitrogen on Activated Carbon
DOI: 10.1021/acs.jced.6b00209
Article source: Figure  8
Adsorbate Nitrogen: InChIKey IJGRMHOSHXDMSA-UHFFFAOYSA-N
Kind: experiment
Temperature: 298 K
Tabular data in the source: 0
pressure (bar)	uptake (mmol/g)
0.378	0.1183
0.718	0.3173
1.065	0.4013
5.063	1.2553
9.913	1.9309
19.824	2.7753
29.392	3.2701
40.08	3.617
47.008	3.7801
60.07	3.988
