Adsorption isotherm of Methane on Active Carbon
DOI: 10.1021/acs.jced.6b00209
Article source: Figure  10
Adsorbate Methane: InChIKey VNWKTOKETHGBQD-UHFFFAOYSA-N
Kind: experiment
Temperature: 298 K
Tabular data in the source: 0
pressure (bar)	uptake (mmol/g)
1.14	1.0849
5.251	2.9483
10.613	4.0295
22.172	5.0664
31.674	5.6052
39.537	5.6974
51.723	5.9041
59.847	6.0443
