Adsorption isotherm of Carbon Dioxide, Nitrogen on Active Carbon
DOI: 10.1021/acs.jced.6b00209
Article source: Figure  11
Adsorbate Carbon Dioxide: InChIKey CURLTUGMZLYLDI-UHFFFAOYSA-N
Adsorbate Nitrogen: InChIKey IJGRMHOSHXDMSA-UHFFFAOYSA-N
Kind: experiment
Temperature: 298 K
Tabular data in the source: 0
pressure (bar)	Carbon Dioxide fraction	Carbon Dioxide uptake (mmol/g)	Nitrogen fraction	Nitrogen uptake (mmol/g)	total uptake (mmol/g)
1.1885	0.2	0.7407	0.8	0.9613	
5.526	0.2	2.2125	0.8	2.8368	
10.7975	0.2	3.1767	0.8	4.057	
19.0455	0.2	4.5226	0.8	5.6029	
31.132	0.2	5.0661	0.8	6.1538	
41.337	0.2	5.3519	0.8	6.6022	
50.975	0.2	5.4906	0.8	6.8269	
61.1295	0.2	5.8792	0.8	7.0005	
