Adsorption isotherm of Methane on Active Carbon
DOI: 10.1021/acs.jced.6b00209
Article source: Figure  10
Adsorbate Methane: InChIKey VNWKTOKETHGBQD-UHFFFAOYSA-N
Kind: experiment
Temperature: 298 K
Tabular data in the source: 0
pressure (bar)	uptake (mmol/g)
1.319	1.0978
5.086	2.9779
10.543	4.0166
22.144	5.1845
31.6	5.6513
39.572	5.7565
51.62	5.7565
59.829	5.7657
