Adsorption isotherm of Methane on Activated Carbon
DOI: 10.1021/acs.jced.6b00209
Article source: Figure  6
Adsorbate Methane: InChIKey VNWKTOKETHGBQD-UHFFFAOYSA-N
Kind: experiment
Temperature: 363 K
Tabular data in the source: 0
pressure (bar)	uptake (mmol/g)
0.06764	0.04111
0.13963	0.07304
0.21952	0.11529
0.41102	0.19978
0.50818	0.24819
0.61501	0.2837
0.81959	0.36332
1.02806	0.44896
