Adsorption isotherm of Methane on Active Carbon
DOI: 10.1021/acs.jced.6b00209
Article source: figure 9
Adsorbate Methane: InChIKey VNWKTOKETHGBQD-UHFFFAOYSA-N
Kind: experiment
Temperature: 298 K
Tabular data in the source: 0
pressure (bar)	uptake (mmol/g)
1.122	0.5376
5.475	1.641
10.613	2.5961
23.21	3.5501
28.158	3.7802
40.397	4.0458
60.629	4.553
