Adsorption isotherm of Carbon Dioxide, Methane on Active Carbon
DOI: 10.1021/acs.jced.6b00209
Article source: Figure  10
Adsorbate Carbon Dioxide: InChIKey CURLTUGMZLYLDI-UHFFFAOYSA-N
Adsorbate Methane: InChIKey VNWKTOKETHGBQD-UHFFFAOYSA-N
Kind: experiment
Temperature: 298 K
Tabular data in the source: 0
pressure (bar)	Carbon Dioxide fraction	Carbon Dioxide uptake (mmol/g)	Methane fraction	Methane uptake (mmol/g)	total uptake (mmol/g)
1.216	0.1	1.2085	0.9	1.0978	
5.2115	0.1	3.2214	0.9	2.9779	
10.616	0.1	4.4982	0.9	4.0166	
22.1915	0.1	5.8524	0.9	5.1845	
31.692	0.1	6.3229	0.9	5.6513	
39.5715	0.1	6.4446	0.9	5.7565	
51.6635	0.1	6.4465	0.9	5.7565	
59.8365	0.1	6.417	0.9	5.7657	
