Adsorption isotherm of Carbon monoxide on Zeolite 5A
DOI: 10.1007/s10450-019-00093-7
Article source: Figure 9
Adsorbate Carbon monoxide: InChIKey UGFAIRIUMAVXCW-UHFFFAOYSA-N
Kind: experiment
Temperature: 82 K
Tabular data in the source: 0
pressure (bar)	uptake (cm3(STP)/g)
0.002272	0.479992
0.003907	0.701065
0.005309	0.726411
0.006564	0.770707
0.010769	0.808081
0.015889	0.847268
0.043278	0.898933
0.06694	0.898933
0.111127	0.898933
0.18667	0.931433
0.288732	0.95375
0.332605	0.988231
0.490761	0.988231
0.63606	0.988231
0.698962	0.988231
0.86418	1
1.06845	1
