Adsorption isotherm of Oxygen on Zeolite 5A
DOI: 10.1007/s10450-019-00093-7
Article source: Figure 9
Adsorbate Oxygen: InChIKey MYMOFIZGZYHOMD-UHFFFAOYSA-N
Kind: experiment
Temperature: 90 K
Tabular data in the source: 0
pressure (bar)	uptake (cm3(STP)/g)
0.003432	0.070523
0.012116	0.152237
0.022899	0.235912
0.03985	0.344568
0.060202	0.44708
0.072697	0.491492
0.101126	0.580091
0.154584	0.676603
0.215035	0.726411
0.282004	0.770707
0.378654	0.827442
0.520556	0.847268
0.674676	0.888354
0.777193	0.888354
0.949641	0.909639
