Adsorption isotherm of Carbon Dioxide on {[Zn(bpydb)(bpy)](DMA)-(EtOH)6}n
DOI: 10.1021/Cg500942g
Adsorbate Carbon Dioxide: InChIKey CURLTUGMZLYLDI-UHFFFAOYSA-N
Temperature: 298 K
Tabular data in the source: 0
pressure (bar)	uptake (cm3(STP)/g)
3.07103	5.53466
4.92084	9.15356
7.07402	12.3008
8.91288	14.5965
10.9409	16.9074
12.7047	18.7012
14.822	20.358
16.3465	21.8021
18.0102	22.9268
20.2666	24.2642
21.5519	25.3586
23.569	26.3462
25.422	27.486
27.0607	28.4434
28.6744	29.2335
30.2631	29.8564
32.2802	30.844
33.8939	31.6341
35.5076	32.4242
37.5247	33.4119
38.9242	34.0196
40.7271	34.8248
42.53	35.63
44.3079	36.268
45.8965	36.8908
47.6744	37.5287
49.4523	38.1667
51.066	38.9568
52.6297	39.4123
54.4076	40.0502
56.1604	40.5209
57.5599	41.1286
59.3128	41.5992
61.2798	42.2523
62.8435	42.7078
64.2428	43.3155
66.1851	43.8013
