Adsorption isotherm of Nitrogen on {[Zn(bpydb)(bpy)](DMA)-(EtOH)6}n
DOI: 10.1021/Cg500942g
Adsorbate Nitrogen: InChIKey IJGRMHOSHXDMSA-UHFFFAOYSA-N
Temperature: 273 K
Tabular data in the source: 0
pressure (bar)	uptake (cm3(STP)/g)
0.038914	1.33477
0.056476	1.24969
0.084293	1.70733
0.108271	1.81685
0.136088	2.27448
0.160065	2.384
0.187461	2.67442
0.215278	3.13206
0.239256	3.24158
0.27007	3.7129
0.294047	3.82242
0.321864	4.28006
0.346263	4.55679
0.37408	5.01442
0.397636	4.95673
0.422456	5.40067
0.450273	5.85831
0.474671	6.13504
0.502488	6.59268
0.526465	6.7022
0.548289	7.13245
0.578681	7.43656
0.609495	7.90789
0.627478	7.99003
0.658293	8.46135
0.685689	8.75177
0.70709	9.01481
0.737904	9.48614
0.768298	9.79025
0.786281	9.87239
0.813256	9.9956
0.838496	10.6068
0.866314	11.0644
0.897128	11.5357
0.921105	11.6452
0.945503	11.922
0.960489	11.9904
0.991724	12.629
1.0217	12.7659
1.03968	12.848
