Adsorption isotherm of Nitrogen on {[Zn(bpydb)(bpy)](DMA)-(EtOH)6}n
DOI: 10.1021/Cg500942g
Adsorbate Nitrogen: InChIKey IJGRMHOSHXDMSA-UHFFFAOYSA-N
Temperature: 298 K
Tabular data in the source: 0
pressure (bar)	uptake (cm3(STP)/g)
0.0308141	0.471325
0.0522156	0.734367
0.0791904	0.857576
0.106586	1.148
0.124569	1.23014
0.163532	1.40811
0.184513	1.50394
0.205493	1.59977
0.232047	1.55576
0.265437	1.87356
0.290258	2.31751
0.317232	2.44072
0.338213	2.53655
0.362611	2.81328
0.392583	2.95018
0.41656	3.0597
0.440117	3.002
0.467513	3.29243
0.491912	3.56916
0.519308	3.85958
0.545861	3.81558
0.570681	4.25952
0.597235	4.21552
0.62463	4.50594
0.648608	4.61546
0.673007	4.89219
0.702979	5.02909
0.720962	5.11123
0.747937	5.23444
0.774911	5.35765
0.796312	5.62069
0.823708	5.91111
0.85368	6.04801
0.880655	6.17122
0.901635	6.26705
0.932029	6.57116
0.958582	6.52716
0.98256	6.63668
1.00953	6.75989
1.02752	6.84203
