Adsorption isotherm of Carbon Dioxide on {[Zn(bpydb)(bpy)](DMA)-(EtOH)6}n
DOI: 10.1021/Cg500942g
Adsorbate Carbon Dioxide: InChIKey CURLTUGMZLYLDI-UHFFFAOYSA-N
Temperature: 195 K
Tabular data in the source: 0
pressure (bar)	uptake (cm3(STP)/g)
-0.000794462	1.39705
0.00336478	2.55368
0.0052341	3.97238
0.022058	16.7408
0.0307504	19.3378
0.0412185	27.2825
0.0426673	30.382
0.0509857	32.6953
0.0562666	34.7031
0.0782311	39.373
0.0801005	40.7917
0.0922511	42.0133
0.104776	43.5186
0.119964	45.0456
0.130198	46.813
0.142349	48.0347
0.1545	49.2563
0.171977	50.5212
0.178053	51.132
0.187166	52.0482
0.201232	52.724
0.216421	54.251
0.22516	54.8834
0.236562	55.5376
0.24834	56.4754
0.259742	57.1296
0.271145	57.7837
0.27722	58.3945
0.28825	58.7649
0.302316	59.4406
0.316383	60.1164
0.322084	60.4435
0.336151	61.1193
0.347554	61.7734
0.353256	62.1004
0.366948	62.4925
0.386716	63.4953
0.401156	64.4549
0.425878	65.2173
0.450601	65.9797
0.472658	66.7205
0.506119	68.1153
0.531215	69.1615
0.564302	70.2726
0.586734	71.2971
0.614493	72.365
0.642252	73.4328
0.66431	74.1735
0.697771	75.5684
0.722493	76.3309
0.752543	77.1366
0.771936	77.8557
0.803107	79.5127
0.836194	80.6238
0.86358	81.4079
0.890966	82.192
0.909986	82.6273
0.943073	83.7385
0.965505	84.763
0.996676	86.4199
1.01836	86.8769
1.05411	88.0097
1.08187	89.0776
1.0986	89.775
1.12408	91.1049
1.14575	91.5619
