Adsorption isotherm of Carbon Dioxide on {[Zn(bpydb)(bpy)](DMA)-(EtOH)6}n
DOI: 10.1021/Cg500942g
Adsorbate Carbon Dioxide: InChIKey CURLTUGMZLYLDI-UHFFFAOYSA-N
Temperature: 273 K
Tabular data in the source: 0
pressure (bar)	uptake (cm3(STP)/g)
1.24861	1.67191
2.07396	3.11605
3.09062	4.42315
4.31215	5.76048
5.19928	6.71788
5.99754	7.82744
6.98714	8.79996
7.8878	9.92465
8.93919	10.4104
9.83989	11.5351
10.6999	12.1579
11.676	12.9632
12.6656	13.9357
13.5121	14.3912
14.4881	15.1964
15.3481	15.8193
16.4266	16.6396
17.2731	17.0951
18.1332	17.718
19.0957	18.3559
20.0581	18.9938
20.8023	19.4342
21.6488	19.8898
22.7001	20.3755
23.5466	20.8311
24.5091	21.469
25.4581	21.9397
26.407	22.4103
27.1375	22.6834
27.9841	23.139
29.049	23.792
29.9844	24.0954
30.8444	24.7182
31.6774	25.0065
32.6263	25.4771
33.5617	25.7805
34.2923	26.0536
35.3437	26.5394
