Adsorption isotherm of Nitrogen on iCOF-AB-50-Re
DOI: 10.1002/anie.202108522
Article source: Figure S7C
Adsorbate Nitrogen: InChIKey IJGRMHOSHXDMSA-UHFFFAOYSA-N
Kind: experiment
Temperature: 77 K
Tabular data in the source: 0
pressure (bar)	uptake (cm3(STP)/g)
0.005011	11.0008
0.003823	23.5953
0.002639	32.1824
0.003807	37.9072
0.003207	49.9291
0.003196	59.6612
0.003184	70.5382
0.003171	82.5602
0.003745	94.5822
0.003735	103.742
0.00372	117.481
0.00605	134.655
0.006622	148.395
0.007781	162.134
0.010116	174.156
0.031787	221.099
0.059927	257.165
0.079861	281.782
0.098037	303.536
0.113866	323.572
0.136147	349.334
0.156676	367.08
0.183056	402.574
0.197106	438.64
0.229904	510.772
0.258656	524.511
0.280961	529.091
0.307372	535.388
0.332026	538.823
0.356679	543.403
0.377812	545.12
0.404226	549.128
0.428294	551.417
0.455886	553.135
0.478778	557.142
0.504607	558.86
0.531608	563.439
0.557439	564.012
0.580921	565.729
0.60675	568.019
0.631407	569.164
0.656648	572.026
0.684239	573.744
0.71007	574.889
0.735897	579.469
0.758792	580.614
0.784033	584.048
0.808688	586.338
0.835103	589.773
0.860344	592.636
0.884408	598.36
0.910233	605.23
0.932533	613.245
0.961281	630.419
0.983556	662.478
0.989411	676.789
1.00171	707.131
0.997012	705.413
0.972398	664.767
0.95305	641.868
0.925476	624.122
0.906107	619.542
0.886737	616.107
0.862084	612.672
0.83743	609.237
0.809255	604.658
0.786363	600.65
0.759362	595.498
0.734707	593.208
0.711228	589.773
0.681873	590.346
0.658392	588.056
0.632563	585.193
0.606144	585.193
0.583253	580.614
0.556248	579.469
0.531593	577.751
0.506349	576.606
0.486982	570.309
0.455871	566.302
0.430041	564.584
0.406563	560.005
0.382495	557.715
0.354317	555.425
0.329077	551.417
0.305597	548.555
0.28212	542.258
0.255124	533.671
0.239285	522.221
0.210563	481.003
0.19944	452.379
0.176008	405.436
0.149623	374.523
0.130859	353.913
0.105055	328.152
0.095083	320.71
0.077499	294.376
0.0517	264.607
