Adsorption isotherm of Nitrogen on COF-OH-100
DOI: 10.1002/anie.202108522
Article source: Figure S3A
Adsorbate Nitrogen: InChIKey IJGRMHOSHXDMSA-UHFFFAOYSA-N
Kind: experiment
Temperature: 77 K
Tabular data in the source: 0
pressure (bar)	uptake (cm3(STP)/g)
0.005118	10.0751
0.00478	30.9317
0.003765	55.7611
0.004479	75.3762
0.004479	95.3776
0.004479	122.966
0.004949	146.416
0.005418	168.486
0.005418	188.488
0.005888	208.489
0.006357	230.56
0.006827	248.492
0.006827	274.011
0.010114	318.152
0.029366	378.846
0.058949	420.918
0.08008	444.368
0.097924	460.921
0.116941	483.336
0.136429	506.441
0.165542	543.685
0.183855	569.204
0.201934	601.62
0.224708	714.042
0.248187	829.912
0.2827	894.744
0.345388	910.607
0.362292	917.504
0.376849	921.643
0.409249	926.47
0.427563	931.298
0.456676	936.126
0.479216	937.506
0.503164	940.954
0.52899	944.403
0.554347	945.092
0.581112	948.541
0.603182	953.369
0.632296	956.817
0.653426	957.507
0.678783	960.266
0.705079	960.956
0.733253	965.094
0.756262	967.163
0.782558	968.542
0.807915	970.611
0.828107	974.06
0.858629	976.129
0.884455	980.267
0.909812	983.026
0.937282	985.095
0.957708	992.682
0.983535	1003.72
0.995274	1011.99
1.00607	1021.3
1.00371	1023.78
0.99067	1013.72
0.983822	1006.53
0.958387	997.433
0.942408	993.602
0.916321	989.77
0.887951	984.98
0.863494	984.022
0.837733	982.585
0.812298	979.712
0.78458	978.275
0.764689	975.401
0.735014	971.569
0.71284	972.527
0.68447	967.738
0.660666	966.301
0.634252	964.864
0.610774	961.511
0.58273	958.637
0.561534	954.327
0.532186	951.453
0.511316	949.058
0.48425	943.311
0.45588	938.042
0.432728	933.253
0.40501	929.421
0.383162	924.152
0.35577	917.926
0.331314	909.783
0.308487	902.12
0.2824	887.272
0.257291	877.693
0.230225	736.879
0.204138	609.475
0.180334	563.016
0.149681	519.43
0.133702	502.667
0.103702	465.308
0.075984	433.217
0.05381	409.748
0.040767	395.858
