Adsorption isotherm of Nitrogen on TAPT-DATA-DMTA-50
DOI: 10.1002/anie.202108522
Article source: Figure S5
Adsorbate Nitrogen: InChIKey IJGRMHOSHXDMSA-UHFFFAOYSA-N
Kind: experiment
Temperature: 77 K
Tabular data in the source: 0
pressure (bar)	uptake (cm3(STP)/g)
0.008337	2.83111
0.018687	5.24053
0.042999	8.4156
0.061108	11.7145
0.082315	14.2553
0.101974	17.1752
0.123184	20.4754
0.143357	22.7627
0.165084	26.0631
0.183192	28.9823
0.202852	32.2819
0.228714	35.3311
0.253545	39.0126
0.276826	42.6935
0.305277	46.7564
0.329594	50.8175
0.356493	54.5
0.379774	58.434
0.404605	61.989
0.432538	65.672
0.455304	69.8589
0.482721	73.6682
0.506004	77.9819
0.533936	81.2852
0.5567	85.0924
0.583086	89.6606
0.609467	93.0898
0.634298	96.7713
0.659648	100.833
0.683961	104.134
0.71138	108.45
0.734146	112.637
0.761043	115.94
0.787946	120.255
0.811226	123.936
0.837611	128.125
0.862961	132.186
0.88676	136.373
0.913666	141.448
0.938503	146.395
0.964897	152.482
0.990269	161.354
0.993905	165.152
1.00376	172.244
1.00325	174.016
1.00948	179.335
0.989285	172.238
0.971676	165.269
0.946825	157.284
0.920425	149.805
0.895069	144.351
0.888322	138.652
0.863504	137.882
0.836599	133.06
0.81073	128.492
0.78486	123.671
0.760028	119.989
0.734678	115.801
0.710878	111.741
0.683461	107.678
0.660697	103.998
0.633795	99.6822
0.610514	95.8747
0.583613	91.8125
0.557744	87.2445
0.534464	83.6902
0.507045	79.3746
0.48273	75.6933
0.458929	71.2527
0.43203	67.5702
0.406681	63.7619
0.380297	59.5733
0.355464	55.6386
0.330633	51.957
0.306317	48.0226
0.280454	44.7202
0.255105	40.9119
0.229755	36.9769
0.202339	33.2942
0.182159	29.235
0.164053	26.6955
0.141291	23.268
0.122669	20.7283
0.102493	17.6817
0.083866	14.1294
0.06059	11.5877
0.039381	8.54055
