Adsorption isotherm of Nitrogen on iCOF-AB-50
DOI: 10.1002/anie.202108522
Article source: Figure 1B
Adsorbate Nitrogen: InChIKey IJGRMHOSHXDMSA-UHFFFAOYSA-N
Kind: experiment
Temperature: 77 K
Tabular data in the source: 0
pressure (bar)	uptake (cm3(STP)/g)
0.00346	13.8454
0.003788	26.5675
0.004456	44.3782
0.004433	59.6453
0.00441	74.9124
0.004218	87.1262
0.004373	99.8486
0.004696	115.624
0.004674	130.382
0.004648	148.194
0.004626	162.952
0.005645	177.2
0.005974	189.413
0.009419	205.694
0.031211	249.94
0.060298	288.07
0.080039	311.963
0.115371	350.084
0.137887	373.974
0.157632	395.067
0.183603	428.876
0.198475	460.408
0.224079	507.194
0.256978	548.372
0.284031	554.953
0.306577	558.486
0.333806	563.031
0.356527	566.055
0.383583	570.091
0.406651	573.115
0.427985	575.632
0.452616	577.635
0.477594	579.13
0.503261	584.185
0.530668	585.168
0.555297	588.189
0.580276	589.684
0.603517	592.707
0.632312	594.196
0.655554	596.711
0.682614	598.202
0.704813	601.736
0.731871	604.754
0.754768	606.251
0.782868	608.25
0.806112	609.238
0.827269	613.791
0.857099	619.35
0.881379	623.899
0.90739	630.481
0.930624	638.593
0.959397	654.841
0.98156	682.801
0.990559	697.039
0.999542	722.472
1.00372	743.728
0.995308	731.37
0.989301	720.068
0.981371	706.296
0.960925	683.705
0.936859	665.005
0.915915	653.017
0.889186	642.803
0.862452	635.769
0.83716	631.561
0.810182	627.002
0.783202	623.503
0.759834	621.413
0.733093	618.974
0.709967	616.176
0.682985	614.091
0.658894	612.355
0.631913	609.563
0.608542	609.24
0.582526	605.739
0.557712	604.004
0.531214	600.858
0.507603	600.182
0.484726	592.083
0.454375	586.822
0.432695	584.022
0.402338	583.002
0.38066	578.789
0.353918	577.056
0.329108	572.848
0.305743	568.99
0.277805	561.252
0.251551	555.631
0.230152	525.973
0.20227	481.48
0.179216	430.267
0.145062	390.376
0.122942	359.305
0.097443	332.48
0.077967	305.646
0.052226	278.821
0.041884	266.465
