Adsorption isotherm of Nitrogen on COF-OH-33
DOI: 10.1002/anie.202108522
Article source: Figure S3A
Adsorbate Nitrogen: InChIKey IJGRMHOSHXDMSA-UHFFFAOYSA-N
Kind: experiment
Temperature: 77 K
Tabular data in the source: 0
pressure (bar)	uptake (cm3(STP)/g)
0.009175	241.484
0.031489	313.986
0.059212	364.638
0.097079	423.235
0.11804	450.051
0.221891	609.207
0.235508	680.936
0.236447	710.593
0.242552	739.561
0.246308	768.528
0.274483	794.737
0.2989	804.393
0.329422	816.808
0.358536	822.325
0.379197	833.36
0.398919	836.809
0.427093	843.706
0.457146	851.982
0.479216	853.362
0.502224	855.431
0.531338	858.19
0.552938	863.707
0.579704	867.156
0.603652	869.915
0.631357	874.053
0.653426	877.501
0.68254	880.26
0.703671	882.329
0.731375	887.157
0.752975	891.985
0.783028	896.813
0.801811	898.193
0.827168	903.71
0.856281	910.607
0.880229	916.125
0.907464	925.091
0.934699	943.023
0.969448	1016.82
1.00654	1076.83
1.00756	1090.16
0.999735	1070.04
0.989952	1056.82
0.982909	1043.03
0.969213	1017.74
0.929691	952.219
0.90543	939.575
0.878821	928.654
0.856516	923.482
0.826776	917.734
0.782558	909.113
0.754384	906.814
0.728558	903.365
0.705079	897.618
0.680427	891.87
0.649513	889.571
0.6276	888.422
0.601774	885.548
0.579469	880.375
0.550121	879.8
0.528599	878.076
0.480076	863.133
0.452293	855.086
0.434685	852.787
0.40338	848.189
0.381075	844.741
0.356814	836.694
0.332161	824.049
0.309466	820.601
0.28403	808.531
0.255074	794.737
0.232378	637.829
0.182681	551.042
0.16742	509.085
0.127507	453.334
0.100506	415.4
0.079767	389.536
0.063723	363.098
0.043375	327.463
