Adsorption isotherm of Nitrogen on iCOF-AB-67
DOI: 10.1002/anie.202108522
Article source: Figure S3B
Adsorbate Nitrogen: InChIKey IJGRMHOSHXDMSA-UHFFFAOYSA-N
Kind: experiment
Temperature: 77 K
Tabular data in the source: 0
pressure (bar)	uptake (cm3(STP)/g)
0.004258	14.6823
0.002352	34.6837
0.003261	60.8925
0.003709	79.5145
0.004619	104.344
0.004596	123.655
0.004576	140.208
0.005965	157.451
0.009707	174.694
0.028004	209.179
0.062762	242.285
0.082494	257.458
0.097055	271.252
0.119607	287.805
0.135579	300.909
0.156248	318.842
0.183964	342.292
0.203218	364.362
0.222478	380.915
0.253941	416.779
0.278856	422.987
0.309889	425.746
0.333396	429.884
0.356908	430.574
0.379948	431.953
0.408629	435.401
0.429789	436.091
0.453767	439.54
0.481511	440.229
0.505493	440.919
0.531355	442.299
0.554395	444.023
0.581196	446.437
0.606585	449.885
0.63198	448.506
0.655017	452.299
0.681349	454.023
0.707682	454.713
0.733545	454.713
0.757995	457.472
0.786207	459.541
0.808307	460.921
0.829467	461.955
0.860029	465.059
0.88448	466.438
0.909397	471.266
0.934318	473.335
0.956409	481.612
0.985071	500.923
0.991641	511.959
0.998208	525.063
1.00384	533.339
1.00195	542.995
0.99538	530.581
0.989751	518.856
0.984589	510.579
0.960159	491.957
0.925375	479.543
0.897167	474.715
0.872246	472.645
0.860961	471.956
0.835101	469.197
0.808769	467.818
0.785257	467.128
0.760808	464.369
0.734474	464.369
0.709552	463.679
0.684633	460.231
0.657831	458.851
0.633851	456.782
0.608457	456.782
0.581188	452.644
0.558615	454.023
0.531341	453.334
0.50736	452.644
0.481971	449.196
0.459401	447.126
0.429777	445.747
0.405798	442.988
0.380404	443.678
0.355956	439.54
0.328687	435.401
0.307997	434.712
0.279316	431.263
0.259569	428.504
0.233744	396.778
0.202739	371.259
0.178322	341.602
0.153419	325.049
0.129463	303.668
0.1041	278.149
0.07732	258.837
0.050543	236.767
0.042563	224.352
