Adsorption isotherm of Nitrogen on COF-OH-50
DOI: 10.1002/anie.202108522
Article source: Figure 1B
Adsorbate Nitrogen: InChIKey IJGRMHOSHXDMSA-UHFFFAOYSA-N
Kind: experiment
Temperature: 77 K
Tabular data in the source: 0
pressure (bar)	uptake (cm3(STP)/g)
0.006363	207.631
0.006341	222.288
0.006315	239.998
0.00959	277.245
0.030744	330.347
0.056906	375.503
0.075601	402.96
0.095547	428.583
0.115488	457.87
0.136265	484.713
0.156211	510.335
0.176155	537.18
0.20066	576.842
0.221355	659.257
0.248611	808.229
0.284807	825.281
0.307275	835.023
0.323079	846.605
0.355124	855.724
0.372052	857.636
0.397721	861.165
0.427197	871.304
0.455648	870.759
0.477844	876.837
0.501088	877.824
0.529183	883.386
0.551038	884.884
0.578442	888.411
0.60203	891.943
0.629784	892.925
0.653371	896.965
0.68147	899.474
0.702975	904.026
0.730382	905.517
0.754317	908.539
0.782761	912.574
0.804615	915.09
0.826816	917.606
0.856298	923.674
0.882659	928.729
0.906589	934.805
0.929819	945.462
0.958243	962.728
0.98006	990.18
0.989053	1009
1.00567	1033.91
1.00598	1058.34
0.995589	1046.65
0.987974	1034.44
0.982788	1022.24
0.965135	994.271
0.939845	969.367
0.903786	953.638
0.877776	945.529
0.861474	942.497
0.837197	936.422
0.809792	933.404
0.783777	928.857
0.760885	924.816
0.734176	920.27
0.710932	919.282
0.683181	915.756
0.660289	911.206
0.632536	908.697
0.609644	904.656
0.581891	902.656
0.558302	899.633
0.530899	895.597
0.510087	892.062
0.48269	884.464
0.457724	874.318
0.432404	869.262
0.405346	866.244
0.381414	861.695
0.354017	853.079
0.330431	848.529
0.305812	838.892
0.282577	831.798
0.252073	813.517
0.23271	768.758
0.204532	586.608
0.182722	554.576
0.16576	528.644
0.146719	500.679
0.12594	475.26
0.101357	441.196
0.084047	416.282
0.060854	380.689
0.041812	353.742
