Adsorption isotherm of Nitrogen on iCOF-AB-33
DOI: 10.1002/anie.202108522
Article source: Figure S3B
Adsorbate Nitrogen: InChIKey IJGRMHOSHXDMSA-UHFFFAOYSA-N
Kind: experiment
Temperature: 77 K
Tabular data in the source: 0
pressure (bar)	uptake (cm3(STP)/g)
0.007546	169.579
0.005867	213.676
0.010714	237.512
0.029345	285.184
0.064249	334.843
0.081714	358.017
0.097491	377.053
0.116654	396.088
0.147646	432.505
0.156095	444.919
0.183692	489.612
0.199446	527.684
0.229278	589.757
0.25069	615.414
0.280587	624.518
0.309923	630.312
0.33136	635.278
0.36465	638.588
0.377623	642.726
0.399629	644.382
0.427554	650.589
0.454925	648.52
0.478622	651.003
0.504571	658.452
0.530528	658.452
0.555918	660.935
0.580744	663.417
0.606138	663.417
0.630398	666.728
0.655788	670.039
0.683434	673.349
0.706567	675.832
0.73365	678.315
0.756784	679.97
0.784432	682.453
0.80813	684.109
0.829006	686.592
0.861161	694.868
0.884294	697.351
0.909683	700.661
0.932245	708.938
0.958185	723.008
0.982982	749.492
0.990865	763.562
1.00156	786.323
1.00548	809.083
0.996474	791.702
0.990846	779.288
0.980142	765.218
0.966621	747.01
0.940684	729.629
0.917561	718.87
0.890484	711.421
0.86397	704.8
0.835761	700.661
0.809807	697.351
0.786675	694.04
0.76072	691.557
0.734767	688.247
0.70994	686.592
0.682859	682.453
0.660287	682.453
0.633205	679.143
0.608381	675.005
0.581862	672.522
0.558162	672.522
0.532209	668.383
0.507384	665.073
0.489329	663.417
0.461122	656.796
0.431786	651.003
0.404141	646.037
0.382132	647.692
0.359569	640.243
0.330229	637.76
0.307094	636.105
0.281149	626.174
0.259711	622.035
0.232093	594.723
0.201688	540.099
0.176368	479.68
0.152162	430.849
0.129619	407.675
0.104255	383.674
0.077773	350.568
0.051852	319.945
0.041713	305.048
