Adsorption isotherm of Nitrogen on iCOF-AB-100
DOI: 10.1002/anie.202108522
Article source: Figure S3B
Adsorbate Nitrogen: InChIKey IJGRMHOSHXDMSA-UHFFFAOYSA-N
Kind: experiment
Temperature: 77 K
Tabular data in the source: 0
pressure (bar)	uptake (cm3(STP)/g)
0.003811	11.0683
0.004464	30.9317
0.010545	41.8566
0.032202	51.7884
0.064685	68.6723
0.081609	72.645
0.099889	74.6314
0.121551	80.5904
0.140504	86.5494
0.160814	90.5221
0.182476	96.4812
0.202783	102.44
0.223758	116.345
0.251504	130.249
0.277229	136.208
0.304307	143.16
0.328001	148.126
0.354405	152.099
0.379454	157.065
0.404501	163.024
0.431586	164.017
0.457311	169.976
0.483033	177.921
0.50944	179.908
0.531104	183.88
0.558183	189.839
0.585265	192.819
0.608284	196.792
0.631977	202.751
0.658384	204.737
0.684784	211.689
0.710515	212.682
0.734885	218.641
0.758576	226.587
0.786338	227.58
0.810707	234.532
0.828308	238.505
0.860801	247.443
0.884492	255.389
0.910896	259.362
0.93797	269.293
0.963685	283.198
0.984655	301.075
0.99277	310.013
1.0029	331.863
1.00773	352.223
0.989709	321.6
0.971676	300.909
0.946304	283.529
0.918102	272.769
0.892716	266.976
0.885946	266.148
0.860557	262.01
0.834607	256.217
0.810066	251.251
0.785523	247.94
0.761266	242.147
0.735313	238.008
0.707667	234.698
0.685099	231.387
0.658583	226.421
0.632067	221.455
0.608939	214.834
0.583548	213.179
0.555901	209.868
0.532207	204.903
0.506822	198.281
0.48087	193.316
0.453788	190.005
0.431784	187.522
0.403577	180.901
0.379313	180.073
0.356185	173.452
0.329106	167.659
0.305973	165.176
0.278892	161.037
0.253508	153.589
0.234336	142.002
0.206706	124.621
0.177947	108.068
0.144674	91.5153
0.132264	87.3771
0.10575	81.5836
0.077541	76.6177
0.053287	67.5136
0.042007	62.5477
