Adsorption isotherm of Nitrogen on COF-OH-67
DOI: 10.1002/anie.202108522
Article source: Figure S3A
Adsorbate Nitrogen: InChIKey IJGRMHOSHXDMSA-UHFFFAOYSA-N
Kind: experiment
Temperature: 77 K
Tabular data in the source: 0
pressure (bar)	uptake (cm3(STP)/g)
0.010114	287.805
0.028897	351.258
0.059419	389.191
0.076793	418.159
0.097454	444.368
0.118585	471.956
0.158029	527.822
0.186673	578.86
0.221421	671.28
0.247247	814.049
0.274483	841.637
0.310639	863.018
0.331301	874.743
0.362762	881.64
0.395632	889.226
0.413945	891.985
0.431319	896.813
0.457615	901.641
0.479216	903.71
0.503164	907.159
0.52852	909.918
0.554816	913.366
0.578765	918.194
0.603182	920.263
0.630417	924.401
0.652018	924.401
0.681131	927.85
0.705079	931.988
0.729966	934.057
0.754854	936.816
0.780211	940.264
0.803689	940.954
0.829046	945.092
0.856281	949.231
0.884925	951.989
0.907934	960.266
0.931882	966.473
0.95583	971.991
0.982596	992.682
1.00701	1047.86
0.996683	1036.13
0.987761	1021.65
0.9671	985.095
0.929534	971.301
0.899951	963.714
0.874125	957.507
0.864733	956.128
0.838437	951.989
0.811672	947.851
0.784437	945.782
0.763306	943.713
0.734662	938.885
0.712123	936.816
0.684418	933.367
0.661879	931.988
0.635583	928.54
0.611165	926.47
0.58346	923.712
0.559982	920.263
0.530868	916.815
0.510207	911.987
0.484381	907.159
0.454798	901.641
0.433667	894.744
0.407371	891.985
0.382484	887.847
0.355718	880.26
0.33224	869.915
0.301248	855.431
0.280587	840.947
0.258517	832.671
0.228465	691.281
0.190429	587.136
0.169768	529.201
0.147229	499.544
0.126568	480.232
0.109663	456.093
0.088063	431.263
0.061297	400.227
0.040636	374.708
