Adsorption isotherm of Nitrogen on COF-OH-0
DOI: 10.1002/anie.202108522
Article source: Figure S3A
Adsorbate Nitrogen: InChIKey IJGRMHOSHXDMSA-UHFFFAOYSA-N
Kind: experiment
Temperature: 77 K
Tabular data in the source: 0
pressure (bar)	uptake (cm3(STP)/g)
0.006921	188.35
0.010302	228.077
0.031151	274.425
0.058198	320.773
0.080174	364.638
0.098206	399.399
0.119054	433.332
0.135959	459.817
0.156808	489.612
0.17822	521.89
0.1878	588.93
0.204704	643.554
0.223863	687.419
0.246966	708.11
0.264997	717.214
0.280211	724.663
0.303314	738.733
0.331488	742.871
0.36079	751.975
0.378258	756.941
0.403615	766.045
0.427844	766.873
0.452638	770.184
0.480812	773.494
0.505605	775.977
0.531526	778.46
0.553502	781.771
0.581676	783.426
0.606469	786.737
0.63239	786.737
0.655493	791.702
0.681976	795.013
0.706206	795.013
0.73269	796.668
0.758047	799.979
0.785094	803.289
0.809324	804.945
0.835244	806.6
0.861728	809.911
0.885958	814.049
0.910751	813.221
0.936108	814.876
0.963156	818.187
1.00035	822.325
1.00678	825.774
0.986431	818.877
0.963343	817.727
0.945734	817.152
0.919125	814.853
0.912473	814.279
0.887038	812.554
0.861603	810.83
0.835385	810.255
0.80995	807.956
0.783732	806.232
0.760254	805.657
0.734427	803.358
0.70821	801.634
0.68434	799.91
0.659296	795.312
0.632687	793.588
0.608426	792.438
0.582599	788.99
0.55873	785.541
0.531729	781.518
0.509033	780.943
0.480859	777.494
0.455424	774.046
0.43038	770.023
0.406119	767.149
0.380293	764.85
0.358379	757.378
0.329814	753.355
0.3079	745.883
0.278161	728.066
0.252334	718.295
0.204595	671.165
0.18816	621.736
0.171333	527.477
0.141594	469.427
0.120072	440.689
0.103246	411.377
0.081332	372.294
0.062158	327.463
0.039853	285.506
