Adsorption isotherm of Nitrogen on Zr-fum-MOF
DOI: 10.4209/aaqr.2013.11.0337
Adsorbate Nitrogen: InChIKey IJGRMHOSHXDMSA-UHFFFAOYSA-N
Temperature: 77 K
Tabular data in the source: 0
pressure (bar)	uptake (cm3(STP)/g)
-0.00097972	77.1253
-0.000888439	69.9397
-0.000651117	51.2572
-0.000279919	22.0358
0.00297566	85.75
0.0191076	95.8178
0.027213	97.738
0.037351	99.6591
0.0495274	101.102
0.075925	103.031
0.100296	104.481
0.124667	105.93
0.151077	106.901
0.175455	107.871
0.199832	108.841
0.224209	109.811
0.248587	110.781
0.270932	111.75
0.295315	112.241
0.344075	113.703
0.392842	114.685
0.441609	115.667
0.488343	116.648
0.537116	117.151
0.587915	118.134
0.636689	118.637
0.683423	119.618
0.732189	120.601
0.782995	121.105
0.82769	122.564
0.880522	123.548
0.9252	126.444
0.94752	129.329
0.959654	134.126
0.965678	139.877
0.969652	147.065
