Adsorption isotherm of Methane on C13H8CuNO4
DOI: 10.1016/j.micromeso.2011.02.018
Adsorbate Methane: InChIKey VNWKTOKETHGBQD-UHFFFAOYSA-N
Temperature: 298 K
Tabular data in the source: 0
pressure (bar)	uptake (cm3(STP)/g)
0.990479	1.07499
2.04704	2.14919
2.90584	2.50114
3.96263	3.21301
5.87775	5.00148
10.7339	56.0298
15.6846	63.941
20.5714	68.5921
