Adsorption isotherm of Methane on C13H8CuNO4
DOI: 10.1016/j.micromeso.2011.02.018
Adsorbate Methane: InChIKey VNWKTOKETHGBQD-UHFFFAOYSA-N
Temperature: 298 K
Tabular data in the source: 0
pressure (bar)	uptake (cm3(STP)/g)
1.05495	2.10272
1.91209	2.79168
3.0989	3.47284
3.95604	4.51641
4.81319	5.20536
5.86813	6.24425
6.3956	6.941
6.85714	7.63931
7.38462	8.33606
7.84615	9.38898
8.30769	9.37807
8.83516	11.4933
8.96703	14.327
9.0989	17.87
9.23077	21.413
9.2967	24.9575
9.75824	40.1948
9.95604	44.8001
10.0879	48.3431
10.1538	51.8876
10.4176	55.0729
11.0769	57.8942
11.6703	59.6532
12.2637	61.0576
12.8571	62.1074
13.5165	63.1556
14.4396	64.9069
15.033	65.9567
15.956	66.9987
16.6154	67.6923
17.2088	68.3875
17.8681	69.0811
18.4615	69.7763
19.1209	70.47
19.7802	70.809
20.3736	71.5042
20.8352	71.4933
21.4945	71.8323
22.0879	72.1729
22.7473	72.8665
23.4066	73.2055
24.0659	73.5445
24.7253	73.529
25.3187	73.8695
25.978	74.2086
26.6374	74.5476
27.2967	74.8866
27.8901	75.2272
28.5495	75.5662
29.2088	75.9052
29.8681	75.8896
30.5275	76.2287
31.1209	76.5692
31.7802	76.9083
32.4396	77.2473
33.0989	77.5863
33.7582	77.5707
34.4176	77.9097
