Adsorption isotherm of Nitrogen on C13H8CuNO4
DOI: 10.1016/j.micromeso.2011.02.018
Adsorbate Nitrogen: InChIKey IJGRMHOSHXDMSA-UHFFFAOYSA-N
Temperature: 77 K
Tabular data in the source: 0
pressure (bar)	uptake (cm3(STP)/g)
6.05e-06	10.2353
8.27e-06	20.5215
9.35e-06	30.6302
9.74e-06	41.2711
1.03e-05	51.2025
1.04e-05	61.3113
1.07e-05	71.4201
1.07e-05	81.7062
1.13e-05	91.4603
1.26e-05	101.569
1.98e-05	111.323
6.2e-05	121.964
0.000384	131.718
0.000709	141.472
0.000824	151.581
0.00194215	160.094
0.00670248	164.705
0.0130588	166.123
0.0201871	166.833
0.0291531	167.188
0.0377577	167.72
0.0438563	168.074
0.0537905	168.252
0.0624789	168.252
0.0725706	168.429
0.0831527	168.252
0.0965836	168.606
0.104803	168.606
0.180649	168.429
0.230804	167.897
0.283085	167.542
0.32881	166.833
