Adsorption isotherm of Methane on C13H8CuNO4
DOI: 10.1016/j.micromeso.2011.02.018
Adsorbate Methane: InChIKey VNWKTOKETHGBQD-UHFFFAOYSA-N
Temperature: 353 K
Tabular data in the source: 0
pressure (bar)	uptake (cm3(STP)/g)
3.95604	0.615696
5.53846	1.28751
6.98901	1.60782
8.24176	1.93282
9.56044	2.25625
10.3516	2.59216
11.1429	2.92806
11.4725	3.27488
12.0659	2.90624
12.7253	2.89066
13.3846	3.22968
13.978	3.57026
14.4396	3.55935
15.0989	3.89837
15.7582	4.23739
16.4176	4.22181
17.011	4.56239
17.6703	4.90141
18.3297	4.88582
18.989	5.22485
19.6484	5.20926
20.2418	5.54984
20.9011	5.53425
21.5604	5.51867
22.2198	5.14847
22.8791	4.77827
23.5385	4.76268
24.1319	5.45788
24.7253	7.2169
25.3187	9.68514
25.7802	12.1565
26.1099	15.3402
26.5055	18.1677
26.8352	21.3514
27.1648	24.1805
27.4945	27.3642
27.7582	29.8402
28.0879	33.0239
28.4176	35.853
28.7473	39.0367
29.1429	41.8642
29.6044	44.6902
30	46.0993
30.6593	47.5021
31.978	48.8894
33.3626	49.5659
34.6154	49.8909
35.011	50.2361
