Adsorption isotherm of Methanol on C13H8CuNO4
DOI: 10.1016/j.micromeso.2011.02.018
Adsorbate Methanol: InChIKey OKKJLVBELUTLKV-UHFFFAOYSA-N
Temperature: 298 K
Tabular data in the source: 0
pressure (bar)	uptake (cm3(STP)/g)
0.00555462	2.50784
0.00802333	5.01567
0.0108006	7.02194
0.0135779	9.52978
0.0154295	25.0784
0.0157381	54.6708
0.0160467	73.7304
0.0178982	84.2633
0.0197497	86.7712
0.0225271	93.7931
0.0249958	96.3009
0.0277731	98.3072
0.0302418	100.815
0.0327105	102.32
0.0394995	106.834
0.0438197	108.84
0.0453627	110.345
0.0580149	115.361
0.0641867	117.367
0.0740615	122.382
0.0851708	125.893
0.0882567	126.897
0.0944285	130.909
0.0975144	131.912
0.106772	135.423
0.112018	136.426
0.115104	137.429
0.117881	138.433
0.120967	138.934
0.130533	141.442
0.133619	141.944
0.136397	142.445
0.139483	143.448
0.14226	143.448
0.145346	144.451
0.148432	144.953
0.151209	145.455
0.154295	146.458
0.157381	146.959
0.160467	147.461
