Adsorption isotherm of Methane on C13H8CuNO4
DOI: 10.1016/j.micromeso.2011.02.018
Adsorbate Methane: InChIKey VNWKTOKETHGBQD-UHFFFAOYSA-N
Temperature: 278 K
Tabular data in the source: 0
pressure (bar)	uptake (cm3(STP)/g)
0.659341	2.11207
1.05495	4.23038
2.24176	4.20232
2.9011	5.25057
3.49451	6.65498
4.02198	8.41556
4.54945	10.8854
4.74725	14.0722
4.87912	14.4237
5.20879	15.8343
5.40659	19.3757
5.6044	22.5625
5.86813	26.1024
6	29.2908
6.1978	32.8322
6.32967	36.3752
6.52747	39.562
6.65934	43.105
6.79121	46.648
7.18681	54.0854
7.38462	57.6268
7.51648	60.8152
7.71429	64.3566
7.84615	67.1904
7.97802	67.1873
8.24176	69.3087
8.9011	70.3569
9.49451	71.4067
9.82418	71.7536
9.89011	71.752
10.4835	72.0926
11.0769	72.7878
12.6593	73.4596
13.8462	74.4954
14.6374	75.8951
15.0989	76.2388
15.7582	76.5778
16.3516	77.273
17.011	77.9666
17.6703	78.3057
18.2637	79.0009
18.9231	79.3399
19.5824	79.6789
20.1758	80.3741
20.8352	80.7131
21.4945	81.0521
22.0879	81.7473
22.7473	82.0864
23.4066	82.4254
24.0659	82.7644
24.6593	83.105
25.3187	83.444
25.978	83.783
26.6374	84.122
27.2308	84.4626
27.8901	84.8017
28.5495	84.7861
29.2088	85.1251
29.8681	85.4641
30.5275	85.4485
31.1209	85.7891
31.7802	86.1281
32.4396	86.1125
33.0989	86.4516
33.7582	86.436
34.4176	86.4204
34.8791	86.4095
