Adsorption isotherm of Methane on C13H8CuNO4
DOI: 10.1016/j.micromeso.2011.02.018
Adsorbate Methane: InChIKey VNWKTOKETHGBQD-UHFFFAOYSA-N
Temperature: 333 K
Tabular data in the source: 0
pressure (bar)	uptake (cm3(STP)/g)
3.03297	0.637519
6.72527	1.25945
11.4725	3.27488
12.0659	2.90624
12.7253	2.89066
13.3846	3.22968
13.978	3.57026
15.1648	7.44291
15.6264	9.91427
15.956	13.098
16.3516	15.9255
16.6813	19.1092
17.011	21.9383
17.2747	25.1235
17.6044	28.3072
17.9341	31.4909
18.2637	34.6746
18.5934	37.5037
18.989	40.6858
19.3846	43.5134
19.7802	46.3409
20.2418	49.1669
20.7692	50.2182
21.4286	51.6211
22.022	52.3163
22.6813	52.6553
23.3407	52.6397
24	52.9787
24.6593	53.3177
25.2527	53.6583
25.9121	54.352
26.5055	54.6925
27.1648	55.3862
27.8242	55.7252
28.4176	56.4204
29.0769	56.7594
29.7363	57.0984
30.3956	57.4375
30.989	57.778
31.6484	58.1171
32.3077	58.4561
32.967	58.7951
33.6264	58.7795
34.2198	59.1201
