Adsorption isotherm of Methane on C13H8CuNO4
DOI: 10.1016/j.micromeso.2011.02.018
Adsorbate Methane: InChIKey VNWKTOKETHGBQD-UHFFFAOYSA-N
Temperature: 298 K
Tabular data in the source: 0
pressure (bar)	uptake (cm3(STP)/g)
0.0658404	0.361524
0.99	1.79964
1.91464	2.51311
2.90512	3.5881
5.94335	5.72532
10.8	56.029
15.6844	64.3033
20.5053	68.5929
30.2811	74.6343
