Adsorption isotherm of Nitrogen on CuBTC
DOI: 10.1039/C2cc34493a
Adsorbate Nitrogen: InChIKey IJGRMHOSHXDMSA-UHFFFAOYSA-N
Temperature: 77 K
Tabular data in the source: 0
pressure (bar)	uptake (cm3(STP)/g)
0	0
0.00552	376.465
0.0184	388.701
0.03496	398.91
0.04968	405.046
0.06624	407.115
0.07912	413.247
0.092	411.239
0.10672	417.375
0.1196	417.402
0.13616	419.471
0.14904	421.533
0.16192	421.56
0.17664	425.661
0.18952	423.653
0.20424	427.753
0.21896	425.749
0.23184	429.846
0.24656	429.877
0.25944	431.939
0.27416	434.004
0.28888	434.035
0.33856	436.174
0.38824	438.313
0.43608	440.448
0.4876	444.626
0.53544	446.761
0.58328	448.896
0.63296	451.035
0.6808	453.17
0.72864	453.27
0.77648	455.405
0.82616	457.544
0.87584	457.648
0.8924	459.718
0.92368	459.784
0.94392	463.896
0.95312	463.915
0.96784	468.016
