Adsorption isotherm of Nitrogen on CuBTC
DOI: 10.1039/C2cc34493a
Adsorbate Nitrogen: InChIKey IJGRMHOSHXDMSA-UHFFFAOYSA-N
Temperature: 77 K
Tabular data in the source: 0
pressure (bar)	uptake (cm3(STP)/g)
0.0092	451.763
0.02208	455.86
0.03864	457.93
0.05152	464.061
0.06624	470.197
0.07728	472.255
0.08648	478.379
0.09568	486.538
0.11224	486.572
0.12696	488.638
0.14352	492.742
0.15824	492.773
0.1748	494.843
0.19504	492.85
0.20976	496.951
0.23	496.993
0.25024	497.036
0.26496	499.101
0.28888	499.152
0.33672	503.322
0.3864	503.426
0.43424	503.526
0.48392	507.7
0.5336	507.804
0.5796	509.935
0.62744	510.035
0.67896	512.178
0.72496	512.274
0.77464	514.413
0.82248	514.513
0.87216	514.617
0.8924	516.695
0.92	514.718
0.94024	516.795
0.95128	516.818
0.966	522.954
