Adsorption isotherm of Nitrogen on MOF-74-Ni
DOI: 10.1039/C2cc34493a
Adsorbate Nitrogen: InChIKey IJGRMHOSHXDMSA-UHFFFAOYSA-N
Temperature: 77 K
Tabular data in the source: 0
pressure (bar)	uptake (cm3(STP)/g)
0	177.035
0.00184	213.667
0.00552	209.605
0.0092	227.926
0.01104	229.965
0.02392	240.166
0.03864	242.232
0.04048	242.236
0.05888	246.344
0.07544	248.414
0.09384	250.487
0.11224	252.561
0.13064	252.599
0.1472	254.669
0.1656	256.742
0.184	258.816
0.2024	258.854
0.21896	260.924
0.23736	260.962
0.25576	263.036
0.27416	263.074
0.29256	265.148
0.31096	265.186
0.32936	267.26
0.34776	269.333
0.36616	269.372
0.38456	269.41
0.42504	271.53
0.46552	273.649
0.48208	275.719
0.52992	279.889
0.5796	282.028
0.62928	286.202
0.67712	292.407
0.7268	300.65
0.7728	312.956
0.8188	331.366
0.87032	364.032
0.89056	378.319
0.92	433.322
0.93104	472.008
0.94576	514.772
0.95864	561.601
0.96232	586.027
0.96784	598.248
