Adsorption isotherm of Methane on ZJU-48a
DOI: 10.1039/C3ta12086d
Adsorbate Methane: InChIKey VNWKTOKETHGBQD-UHFFFAOYSA-N
Temperature: 296 K
Tabular data in the source: 0
pressure (bar)	uptake (mmol/g)
0.0131093	0.00334601
0.111822	0.0127154
0.270767	0.0255983
0.436404	0.0361388
0.566906	0.044337
0.658927	0.0466793
0.762659	0.0548775
0.878103	0.0572199
0.990201	0.0619046
