Adsorption isotherm of Ethene on ZJU-48a
DOI: 10.1039/C3ta12086d
Adsorbate Ethene: InChIKey VGGSQFUCUMXWEO-UHFFFAOYSA-N
Temperature: 273 K
Tabular data in the source: 0
pressure (bar)	uptake (cm3(STP)/g)
0.012191	1.48426
0.0942332	9.91669
0.176275	16.0904
0.251184	22.2642
0.349277	28.7391
0.434887	34.1599
0.508011	38.2256
0.593621	43.0441
0.664962	47.4109
0.764839	51.4765
0.845098	55.0904
0.937841	59.7584
1.01275	63.0711
1.05555	64.5769
