Adsorption isotherm of Acetylene on ZJU-48a
DOI: 10.1039/C3ta12086d
Adsorbate Acetylene: InChIKey HSFWRNGVRCDJHI-UHFFFAOYSA-N
Temperature: 273 K
Tabular data in the source: 0
pressure (bar)	uptake (cm3(STP)/g)
0.0139745	2.99005
0.0639133	9.61553
0.129904	18.4997
0.227998	27.9862
0.297555	33.1059
0.37068	38.075
0.456289	44.0982
0.538331	49.6696
0.638209	55.241
0.736303	60.8124
0.884335	68.492
0.98778	73.4611
1.05734	76.7738
