Adsorption isotherm of Nitrogen on ZJU-48a
DOI: 10.1039/C3ta12086d
Adsorbate Nitrogen: InChIKey IJGRMHOSHXDMSA-UHFFFAOYSA-N
Temperature: 77 K
Tabular data in the source: 0
pressure (bar)	uptake (cm3(STP)/g)
0	0
0.00311061	165.493
0.00311061	300.011
0.00650032	357.231
0.00989002	390.358
0.0420922	434.528
0.0895481	449.586
0.148868	461.632
0.235305	470.667
0.331912	480.706
0.460721	490.744
0.555632	497.771
0.647154	502.791
0.720033	506.806
0.796301	511.826
0.843757	514.837
0.899687	518.853
0.940364	522.868
1.01155	528.891
