Adsorption isotherm of Ethane on ZJU-48a
DOI: 10.1039/C3ta12086d
Adsorbate Ethane: InChIKey OTMSDBZUPAUEDD-UHFFFAOYSA-N
Temperature: 296 K
Tabular data in the source: 0
pressure (bar)	uptake (mmol/g)
0.00307069	0.00100367
0.0515906	0.0326253
0.116842	0.0665893
0.183766	0.100553
0.25069	0.131004
0.315941	0.159112
0.39123	0.193076
0.44477	0.218842
0.511694	0.24695
0.583637	0.278571
0.665619	0.314878
0.735889	0.342986
0.804486	0.372265
0.874757	0.400373
0.929969	0.421454
1.00359	0.450733
