Adsorption isotherm of Ethane on ZJU-48a
DOI: 10.1039/C3ta12086d
Adsorbate Ethane: InChIKey OTMSDBZUPAUEDD-UHFFFAOYSA-N
Temperature: 273 K
Tabular data in the source: 0
pressure (bar)	uptake (cm3(STP)/g)
0.00862394	1.33368
0.0639133	8.56148
0.131687	17.7468
0.224431	26.4804
0.31539	35.0634
0.401	41.8395
0.486609	48.3144
0.600755	56.5962
0.673879	61.5653
0.74522	65.7816
0.818345	69.9978
0.916439	74.5151
0.969945	76.6233
1.0288	79.4843
