Adsorption isotherm of Methane on ZJU-48a
DOI: 10.1039/C3ta12086d
Adsorbate Methane: InChIKey VNWKTOKETHGBQD-UHFFFAOYSA-N
Temperature: 296 K
Tabular data in the source: 0
pressure (bar)	uptake (cm3(STP)/g)
0.00327336	0.0860287
0.110285	0.788731
0.244049	1.59182
0.393866	2.89684
0.52228	4.00109
0.656044	4.80418
0.780891	5.80804
0.8665	6.41035
0.962811	7.11306
1.03772	7.5146
