Adsorption isotherm of Acetylene on ZJU-48a
DOI: 10.1039/C3ta12086d
Adsorbate Acetylene: InChIKey HSFWRNGVRCDJHI-UHFFFAOYSA-N
Temperature: 296 K
Tabular data in the source: 0
pressure (bar)	uptake (mmol/g)
0.00307069	0.00100367
0.0532637	0.0548775
0.123534	0.114607
0.20217	0.179022
0.270767	0.230553
0.330999	0.279742
0.377845	0.314878
0.433058	0.359382
0.496636	0.405058
0.571925	0.455418
0.65558	0.513977
0.760986	0.573706
0.874757	0.642805
0.931642	0.677941
