Adsorption isotherm of Ethene on ZJU-48a
DOI: 10.1039/C3ta12086d
Adsorbate Ethene: InChIKey VGGSQFUCUMXWEO-UHFFFAOYSA-N
Temperature: 296 K
Tabular data in the source: 0
pressure (bar)	uptake (cm3(STP)/g)
0.0335933	1.19028
0.0995838	4.6034
0.169141	8.01653
0.240482	10.9277
0.34036	14.8428
0.433103	18.4567
0.504444	20.866
0.574002	23.3756
0.657828	26.1864
0.722035	28.2945
0.782674	30.4026
0.843314	32.31
0.911088	34.4181
0.959243	35.9239
1.03415	38.2327
