Adsorption isotherm of Ethane on ZJU-48a
DOI: 10.1039/C3ta12086d
Adsorbate Ethane: InChIKey OTMSDBZUPAUEDD-UHFFFAOYSA-N
Temperature: 296 K
Tabular data in the source: 0
pressure (bar)	uptake (cm3(STP)/g)
0.0228921	0.989504
0.112068	4.90456
0.208379	9.02039
0.286854	12.4335
0.383164	16.6497
0.509795	21.8698
0.590054	24.8814
0.697065	28.9972
0.784458	32.9123
0.857583	35.9239
0.921789	37.7308
0.989563	40.5416
1.03415	42.3486
