Adsorption isotherm of Ethene on ZJU-48a
DOI: 10.1039/C3ta12086d
Adsorbate Ethene: InChIKey VGGSQFUCUMXWEO-UHFFFAOYSA-N
Temperature: 296 K
Tabular data in the source: 0
pressure (bar)	uptake (mmol/g)
0.0064169	0.00334601
0.0766872	0.0431658
0.145284	0.078301
0.20217	0.105238
0.270767	0.135688
0.346057	0.16731
0.451462	0.209472
0.525078	0.242265
0.602041	0.271544
0.668965	0.298481
0.734216	0.330103
0.796121	0.355869
0.873084	0.388661
0.934988	0.410914
1.00191	0.430823
