Adsorption isotherm of Methane on ZJU-48a
DOI: 10.1039/C3ta12086d
Adsorbate Methane: InChIKey VNWKTOKETHGBQD-UHFFFAOYSA-N
Temperature: 273 K
Tabular data in the source: 0
pressure (bar)	uptake (cm3(STP)/g)
0.012191	0.279622
0.194111	2.23715
0.386732	4.64642
0.565084	6.75453
0.722035	8.26032
0.852232	9.61553
0.939625	10.3684
1.03594	11.2719
1.07874	11.8742
