Adsorption isotherm of Acetylene on ZJU-48a
DOI: 10.1039/C3ta12086d
Adsorbate Acetylene: InChIKey HSFWRNGVRCDJHI-UHFFFAOYSA-N
Temperature: 293 K
Tabular data in the source: 0
pressure (bar)	uptake (cm3(STP)/g)
0.0139745	2.4953
0.0692638	7.91614
0.154873	14.7424
0.258318	21.3679
0.37068	27.893
0.486609	33.5146
0.615023	39.5378
0.747004	45.3602
0.843314	49.2752
0.952109	52.9895
1.0609	56.6034
