Adsorption isotherm of Reactive Red 195, Water, Gentian violet on Ag-Cr-AC nanocomposite
DOI: 10.1016/j.ultsonch.2016.12.010
Article source: Figure 8
Adsorbate Reactive Red 195: InChIKey GCFAQSYBSUQUPL-UHFFFAOYSA-I
Adsorbate Water: InChIKey XLYOFNOQVPJJNP-UHFFFAOYSA-N
Adsorbate Gentian violet: InChIKey ZXJXZNDDNMQXFV-UHFFFAOYSA-M
Kind: experiment
Temperature: 313 K
Tabular data in the source: 0
pressure (bar)	Reactive Red 195 fraction	Reactive Red 195 uptake (mg/g)	Water fraction	Water uptake (mg/g)	Gentian violet fraction	Gentian violet uptake (mg/g)	total uptake (mg/g)
1.01325	1.416	35.8935			2.1211	29.1881	
1.01325	4.693	53.8435			5.8637	42.3311	
1.01325	8.22	68.6029			8.8742	61.9231	
1.01325	11.936	81.7814			11.6357	84.6233	
1.01325	14.154	109.977			14.8639	102.368	
