Adsorption isotherm of Reactive Red 223, Water on carbon loaded É£-Fe2O3 nanocomposite
DOI: 10.1016/j.ultsonch.2016.12.010
Article source: Figure 11
Adsorbate Reactive Red 223: InChIKey NIST-ISODB-48472CED0E20AEA37382
Adsorbate Water: InChIKey XLYOFNOQVPJJNP-UHFFFAOYSA-N
Kind: experiment
Temperature: 303 K
Tabular data in the source: 0
pressure (bar)	Reactive Red 223 fraction	Reactive Red 223 uptake (mg/g)	Water fraction	Water uptake (mg/g)	total uptake (mg/g)
1.01325	3.729	2.676			
1.01325	13.093	3.84692			
1.01325	18.015	3.98227			
1.01325	22.841	4.35432			
