Adsorption isotherm of Reactive Red 223, Water on carbon loaded É£-Fe2O3 nanocomposite
DOI: 10.1016/j.ultsonch.2016.12.010
Article source: Figure 11
Adsorbate Reactive Red 223: InChIKey Reactive Brilliant Red M-GE
Adsorbate Water: InChIKey XLYOFNOQVPJJNP-UHFFFAOYSA-N
Kind: experiment
Temperature: 308 K
Tabular data in the source: 0
pressure (bar)	Reactive Red 223 fraction	Reactive Red 223 uptake (mg/g)	Water fraction	Water uptake (mg/g)	total uptake (mg/g)
1.01325	3.661	2.77833			
1.01325	8.027	4.02679			
1.01325	13.052	4.01353			
1.01325	17.59	4.95633			
1.01325	22.381	5.28115			
