Adsorption isotherm of Reactive Red 195, Water, Gentian violet on Ag-Cr-AC nanocomposite
DOI: 10.1016/j.ultsonch.2016.12.010
Article source: Figure 8
Adsorbate Reactive Red 195: InChIKey GCFAQSYBSUQUPL-UHFFFAOYSA-I
Adsorbate Water: InChIKey XLYOFNOQVPJJNP-UHFFFAOYSA-N
Adsorbate Gentian violet: InChIKey ZXJXZNDDNMQXFV-UHFFFAOYSA-M
Kind: experiment
Temperature: 308 K
Tabular data in the source: 0
pressure (bar)	Reactive Red 195 fraction	Reactive Red 195 uptake (mg/g)	Water fraction	Water uptake (mg/g)	Gentian violet fraction	Gentian violet uptake (mg/g)	total uptake (mg/g)
1.01325	2.651	23.6169			2.6869	23.7905	
1.01325	5.801	42.3864			6.4139	36.5902	
1.01325	10.796	42.6332			8.589	64.2312	
1.01325	13.541	65.909			12.595	75.0238	
1.01325	17.017	80.7871			12.6192	125.277	
