Adsorption isotherm of Water, Gentian violet on Ag-Cr-AC nanocomposite
DOI: 10.1016/j.ultsonch.2016.12.010
Article source: Figure 8
Adsorbate Water: InChIKey XLYOFNOQVPJJNP-UHFFFAOYSA-N
Adsorbate Gentian violet: InChIKey ZXJXZNDDNMQXFV-UHFFFAOYSA-M
Kind: experiment
Temperature: 313 K
Tabular data in the source: 0
pressure (bar)	Water fraction	Water uptake (mg/g)	Gentian violet fraction	Gentian violet uptake (mg/g)	total uptake (mg/g)
1.01325			1.5531	34.3606	
1.01325			4.746	52.442	
1.01325			7.199	78.2245	
1.01325			9.0064	160.199	
1.01325			9.3765	106.563	
