Adsorption isotherm of Malachite green, Water on carbon loaded É£-Fe2O3 nanocomposite
DOI: 10.1016/j.ultsonch.2016.12.010
Article source: Figure 11
Adsorbate Malachite green: InChIKey FDZZZRQASAIRJF-UHFFFAOYSA-M
Adsorbate Water: InChIKey XLYOFNOQVPJJNP-UHFFFAOYSA-N
Kind: experiment
Temperature: 308 K
Tabular data in the source: 0
pressure (bar)	Malachite green fraction	Malachite green uptake (mg/g)	Water fraction	Water uptake (mg/g)	total uptake (mg/g)
1.01325	3.8667	2.83337			
1.01325	7.8656	5.40703			
1.01325	12.0483	7.37982			
1.01325	15.6449	10.9704			
1.01325	18.4085	16.6292			
