Adsorption isotherm of Water, Gentian violet on Ag-Cr-AC nanocomposite
DOI: 10.1016/j.ultsonch.2016.12.010
Article source: Figure 8
Adsorbate Water: InChIKey XLYOFNOQVPJJNP-UHFFFAOYSA-N
Adsorbate Gentian violet: InChIKey ZXJXZNDDNMQXFV-UHFFFAOYSA-M
Kind: experiment
Temperature: 308 K
Tabular data in the source: 0
pressure (bar)	Water fraction	Water uptake (mg/g)	Gentian violet fraction	Gentian violet uptake (mg/g)	total uptake (mg/g)
1.01325			2.6011	24.3617	
1.01325			5.0962	48.9831	
1.01325			5.6786	93.2141	
1.01325			6.2648	137.961	
1.01325			9.3662	157.125	
