Adsorption isotherm of Reactive Red 195, Water on Ag-Cr-AC nanocomposite
DOI: 10.1016/j.ultsonch.2016.12.010
Article source: Figure 8
Adsorbate Reactive Red 195: InChIKey GCFAQSYBSUQUPL-UHFFFAOYSA-I
Adsorbate Water: InChIKey XLYOFNOQVPJJNP-UHFFFAOYSA-N
Kind: experiment
Temperature: 308 K
Tabular data in the source: 0
pressure (bar)	Reactive Red 195 fraction	Reactive Red 195 uptake (mg/g)	Water fraction	Water uptake (mg/g)	total uptake (mg/g)
1.01325	2.524	25.0347			
1.01325	4.328	56.0259			
1.01325	7.802	73.0524			
1.01325	12.651	73.9047			
1.01325	18.486	65.211			
