Adsorption isotherm of Reactive Red 195, Water on Ag-Cr-AC nanocomposite
DOI: 10.1016/j.ultsonch.2016.12.010
Article source: Figure 8
Adsorbate Reactive Red 195: InChIKey GCFAQSYBSUQUPL-UHFFFAOYSA-I
Adsorbate Water: InChIKey XLYOFNOQVPJJNP-UHFFFAOYSA-N
Kind: experiment
Temperature: 313 K
Tabular data in the source: 0
pressure (bar)	Reactive Red 195 fraction	Reactive Red 195 uptake (mg/g)	Water fraction	Water uptake (mg/g)	total uptake (mg/g)
1.01325	1.281	37.0124			
1.01325	3.48	64.7562			
1.01325	8.417	66.5902			
1.01325	13.097	69.7651			
1.01325	18.185	67.8519			
