Adsorption isotherm of Malachite green, Water on carbon loaded É£-Fe2O3 nanocomposite
DOI: 10.1016/j.ultsonch.2016.12.010
Article source: Figure 11
Adsorbate Malachite green: InChIKey FDZZZRQASAIRJF-UHFFFAOYSA-M
Adsorbate Water: InChIKey XLYOFNOQVPJJNP-UHFFFAOYSA-N
Kind: experiment
Temperature: 303 K
Tabular data in the source: 0
pressure (bar)	Malachite green fraction	Malachite green uptake (mg/g)	Water fraction	Water uptake (mg/g)	total uptake (mg/g)
1.01325	3.1658	4.64739			
1.01325	7.5381	6.26348			
1.01325	12.4504	6.42237			
1.01325	15.8173	10.6014			
1.01325	18.8452	15.6107			
