Adsorption isotherm of Carbon Dioxide on IRMOF-1
DOI: 10.1002/Cjce.20700
Adsorbate Carbon Dioxide: InChIKey CURLTUGMZLYLDI-UHFFFAOYSA-N
Temperature: 298 K
Tabular data in the source: 0
pressure (bar)	uptake (mmol/g)
0.0181818	0.0147528
0.0363636	0.031348
0.069697	0.0633077
0.136364	0.126613
0.172727	0.159189
