Adsorption isotherm of Nitrogen on IRMOF-1
DOI: 10.1002/Cjce.20700
Adsorbate Nitrogen: InChIKey IJGRMHOSHXDMSA-UHFFFAOYSA-N
Temperature: 298 K
Tabular data in the source: 0
pressure (bar)	uptake (mmol/g)
0.0848485	0.0126446
0.166667	0.0281799
0.336364	0.0553985
0.666667	0.11079
0.836364	0.140903
