Adsorption isotherm of Carbon Dioxide on IRMOF-1
DOI: 10.1002/Cjce.20700
Adsorbate Carbon Dioxide: InChIKey CURLTUGMZLYLDI-UHFFFAOYSA-N
Temperature: 298 K
Tabular data in the source: 0
pressure (bar)	uptake (mmol/g)
0.0151515	0.0141363
0.0363636	0.0301196
0.069697	0.0614654
0.133333	0.125382
0.166667	0.15857
