Adsorption isotherm of Nitrogen on IRMOF-1
DOI: 10.1002/Cjce.20700
Adsorbate Nitrogen: InChIKey IJGRMHOSHXDMSA-UHFFFAOYSA-N
Temperature: 298 K
Tabular data in the source: 0
pressure (bar)	uptake (mmol/g)
0.0848485	0.0126446
0.166667	0.0272151
0.333333	0.0563598
0.669697	0.112723
0.836364	0.140903
