Adsorption isotherm of Carbon Dioxide on Mg-MOF-74
DOI: 10.1016/j.memsci.2011.05.001
Article source: Figure 9b
Adsorbate Carbon Dioxide: InChIKey CURLTUGMZLYLDI-UHFFFAOYSA-N
Kind: experiment
Temperature: 313 K
Tabular data in the source: 0
pressure (bar)	uptake (mmol/g)
2252.16	0.4108
4601.51	0.7191
8951.59	1.2827
11053.5	1.5641
13001.7	1.7177
18578	2.2038
28787.2	2.9455
36124.3	3.3036
55975.8	4.0452
67998.6	4.4287
85329.7	4.8634
107078	5.2215
148115	5.6819
177052	5.9633
218625	6.1937
274410	6.3985
312392	6.6542
344350	6.8077
392103	6.9102
453733	7.1148
516654	7.1918
560273	7.3707
607715	7.3965
669885	7.55
726440	7.6012
762781	7.678
840814	7.7293
882673	7.8316
957194	8.036
1089930	8.113
2261520	9.2129
4466840	11.0276
7382440	12.3311
9722990	13.1233
12600900	13.7113
15812500	14.3502
18595200	14.6315
21872600	14.8362
24900000	14.9898
29288700	15.1689
35018700	15.1694
