Adsorption isotherm of Methane on Mg-MOF-74
DOI: 10.1016/j.memsci.2011.05.001
Adsorbate Methane: InChIKey VNWKTOKETHGBQD-UHFFFAOYSA-N
Temperature: 300 K
Tabular data in the source: 0
pressure (bar)	uptake (kmol/m3)
6.36693	0.161399
19.9553	0.144126
29.084	0.174894
40.5483	0.202694
45.4289	0.323608
60.4863	1.10955
69.3604	3.13217
71.892	3.89166
74.6296	4.9475
76.7239	6.30077
80.084	8.03379
85.9766	10.4839
88.9148	12.0904
95.6558	14.5818
99.239	15.8061
