Adsorption isotherm of Carbon Dioxide on Mg-MOF-74
DOI: 10.1016/j.memsci.2011.05.001
Adsorbate Carbon Dioxide: InChIKey CURLTUGMZLYLDI-UHFFFAOYSA-N
Temperature: 300 K
Tabular data in the source: 0
pressure (bar)	uptake (kmol/m3)
-0.245979	4.10615
7.2615	4.8153
14.7766	5.7079
26.355	6.69127
32.572	7.19432
40.5067	7.90336
47.5831	8.52087
57.869	9.25228
65.1494	9.6404
83.3309	10.1406
91.0291	10.2993
94.6621	10.3213
100.434	10.3888
