Adsorption isotherm of Carbon Dioxide on Mg-MOF-74
DOI: 10.1016/j.memsci.2011.05.001
Adsorbate Carbon Dioxide: InChIKey CURLTUGMZLYLDI-UHFFFAOYSA-N
Temperature: 300 K
Tabular data in the source: 0
pressure (bar)	uptake (kmol/m3)
-0.54602	4.05565
7.34242	4.88861
15.0149	5.56021
20.5598	6.23084
32.7055	7.18093
40.1657	7.87546
44.6408	8.24611
56.9988	9.17325
64.4534	9.59131
69.1371	9.7547
82.548	10.1524
89.7842	10.2939
100.211	10.3908
