Adsorption isotherm of Nitrogen on Mg-MOF-74
DOI: 10.1016/j.memsci.2011.05.001
Adsorbate Nitrogen: InChIKey IJGRMHOSHXDMSA-UHFFFAOYSA-N
Temperature: 300 K
Tabular data in the source: 0
pressure (bar)	uptake (kmol/m3)
-0.178454	1.19895
8.13268	1.89387
18.366	2.95829
22.6308	3.44404
32.6485	4.37012
40.3238	5.17995
47.3575	5.82822
56.9418	6.36244
65.2511	6.96521
74.1944	7.3609
81.6457	7.61769
89.5168	7.5982
99.9433	7.69506
