Adsorption isotherm of Carbon Dioxide on Mg-MOF-74
DOI: 10.1016/j.memsci.2011.05.001
Article source: Figure 9a
Adsorbate Carbon Dioxide: InChIKey CURLTUGMZLYLDI-UHFFFAOYSA-N
Kind: experiment
Isotherm type: absolute
Temperature: 298 K
Tabular data in the source: 0
pressure (bar)	uptake (mmol/g)
5885.73	1.3673
6180.16	1.4217
8695.61	1.2186
9585.17	1.9001
9903.76	1.8533
14394.6	2.4626
15114.7	2.8688
19925.1	3.0973
23828.7	3.732
24221.4	3.4781
26705.5	3.9351
32456.4	4.0874
34633.8	4.2906
38185.6	4.4683
44207.9	4.7983
53727.9	5.0014
57345.6	5.1537
69694.7	5.3315
79378	5.4838
96493.9	5.6869
109901	5.8646
129300	6.0169
152125	6.1439
191029	6.3216
224750	6.4739
260196	6.6262
296347	6.7278
316228	6.8293
366100	6.9055
390661	7.0071
403552	7.134
474898	7.2355
540879	7.4133
606038	7.5656
736546	7.7179
940156	7.8956
1036330	8.0226
1161450	8.1495
1219550	8.2511
1259800	8.4034
1366470	8.8096
1556320	8.9365
1688110	9.0381
1954340	9.2412
2085450	9.4951
2189780	9.7489
2336680	9.9774
2794470	10.2821
2982630	10.6121
3869010	10.9168
4264810	11.4499
4937420	11.6784
5532230	12.0085
6200120	12.2877
6834390	12.6178
7659490	12.6939
7912250	12.8463
8865430	12.9986
9308940	13.1001
9618340	13.2779
9935740	13.4048
10602300	13.5063
11689600	13.6841
12679400	13.8618
13533200	13.9887
14679100	14.1157
15922100	14.2426
17555000	14.3949
19669800	14.5219
21335400	14.7757
25101500	14.9788
30019300	15.2835
34753600	15.4612
39582200	15.5628
45814200	15.7913
51345200	15.7151
