Adsorption isotherm of Hydrogen on Mg-MOF-74
DOI: 10.1016/j.memsci.2011.05.001
Adsorbate Hydrogen: InChIKey UFHFLCQGNIYNRP-UHFFFAOYSA-N
Temperature: 300 K
Tabular data in the source: 0
pressure (bar)	uptake (kmol/m3)
13.9232	0.616874
18.6494	1.23495
24.006	1.6006
31.5183	2.42441
40.0959	3.17916
49.5282	3.93371
57.0357	4.64285
65.1765	5.16837
72.2413	5.51068
82.7332	6.05857
90.0117	6.40083
94.9324	6.56019
100.28	6.71944
