Adsorption isotherm of Methane on MgMOF-74
DOI: 10.1016/j.memsci.2011.05.001
Article source: Fig. 9c
Adsorbate Methane: InChIKey VNWKTOKETHGBQD-UHFFFAOYSA-N
Kind: experiment
Isotherm type: absolute
Temperature: 298 K
Tabular data in the source: 0
pressure (bar)	uptake (mmol/g)
626902	0
761553	0
925124	0
1080940	0
1347720	0
1475710	0
1658440	0
1888430	0
2149810	0
2264120	0
2511890	0
3012310	0
4059760	0
4621680	0
5060580	0
6475900	0
7182900	0
8840970	0
10330000	0
13216000	0
16266700	0
21081400	0
24957400	0
27688500	0
31521000	0
35424200	0
40327400	0
42481500	0
45321100	0
48989200	0
54350100	0
63503800	0
72310300	0
75179600	0
80204700	0
96183400	0
