Adsorption isotherm of Nitrogen on Mg-MOF-74
DOI: 10.1016/j.memsci.2011.05.001
Adsorbate Nitrogen: InChIKey IJGRMHOSHXDMSA-UHFFFAOYSA-N
Temperature: 300 K
Tabular data in the source: 0
pressure (bar)	uptake (kmol/m3)
52.2204	0.442093
60.7113	0.516045
66.2252	0.805646
71.7302	1.51899
76.1744	2.1913
80.1823	3.41502
86.5049	5.61037
88.602	6.83652
91.7588	8.14607
95.3348	9.70932
99.331	11.4839
