Adsorption isotherm of Hydrogen on Mg-MOF-74
DOI: 10.1016/j.memsci.2011.05.001
Adsorbate Hydrogen: InChIKey UFHFLCQGNIYNRP-UHFFFAOYSA-N
Temperature: 300 K
Tabular data in the source: 0
pressure (bar)	uptake (kmol/m3)
0.635248	0.126312
11.8899	0.0272597
26.1152	0.00917654
39.0639	0.119835
45.858	0.111198
59.4455	0.136299
65.6036	0.0860975
79.3925	0.619416
85.7449	1.41643
91.6673	2.46822
100.305	5.63521
