Adsorption isotherm of Carbon Dioxide on Mg-MOF-74
DOI: 10.1016/j.memsci.2011.05.001
Adsorbate Carbon Dioxide: InChIKey CURLTUGMZLYLDI-UHFFFAOYSA-N
Temperature: 300 K
Tabular data in the source: 0
pressure (bar)	uptake (kmol/m3)
6.1501	0.373539
20.1595	0.525222
29.2828	0.810235
34.1463	1.73626
39.4398	2.40749
45.5465	4.77261
51.8611	7.34933
56.4861	9.50447
59.4233	11.1533
65.9583	13.3484
71.4344	15.4177
77.3468	16.9356
79.6625	17.8648
85.1611	18.8748
89.3966	19.3779
