Adsorption isotherm of Nitrogen on FJI-2
DOI: 10.1039/C3ta12391j
Adsorbate Nitrogen: InChIKey IJGRMHOSHXDMSA-UHFFFAOYSA-N
Temperature: 273 K
Tabular data in the source: 0
pressure (bar)	uptake (cm3(STP)/g)
0.0127495	0.149791
0.17006	1.7229
0.397287	3.29601
0.639808	5.74307
0.821153	6.61702
0.987203	8.01534
