Adsorption isotherm of Methane on FJI-2
DOI: 10.1039/C3ta12391j
Adsorbate Methane: InChIKey VNWKTOKETHGBQD-UHFFFAOYSA-N
Temperature: 273 K
Tabular data in the source: 0
pressure (bar)	uptake (cm3(STP)/g)
0.00837971	1.02374
0.132918	4.86912
0.301153	9.93803
0.51527	15.5313
0.731573	21.2994
0.923842	25.4943
0.995943	27.0674
