Adsorption isotherm of Hydrogen on FJI-2
DOI: 10.1039/C3ta12391j
Adsorbate Hydrogen: InChIKey UFHFLCQGNIYNRP-UHFFFAOYSA-N
Temperature: 87 K
Tabular data in the source: 0
pressure (bar)	uptake (cm3(STP)/g)
1.27495	4.86909
4.33377	15.3565
10.0144	29.7767
19.1909	45.18
32.0817	60.9111
50.4346	77.2977
70.0985	89.096
89.1069	98.6002
99.3758	102.205
