Adsorption isotherm of Hydrogen on FJI-2
DOI: 10.1039/C3ta12391j
Adsorbate Hydrogen: InChIKey UFHFLCQGNIYNRP-UHFFFAOYSA-N
Temperature: 87 K
Tabular data in the source: 0
pressure (bar)	uptake (cm3(STP)/g)
0.837971	16.012
4.55226	35.6758
9.79595	56.9783
14.1657	72.054
25.3086	92.0456
41.4766	110.726
55.0228	122.525
69.88	133.34
99.3758	148.415
