Adsorption isotherm of Nitrogen on FJI-2
DOI: 10.1039/C3ta12391j
Adsorbate Nitrogen: InChIKey IJGRMHOSHXDMSA-UHFFFAOYSA-N
Temperature: 77 K
Tabular data in the source: 0
pressure (bar)	uptake (cm3(STP)/g)
0.00400996	21.3024
0.00619484	228.538
0.0105646	259.891
0.0345982	275.949
0.0651864	287.42
0.119808	293.538
0.242161	301.185
0.371069	304.244
0.60485	308.832
0.843002	310.361
0.985018	311.126
