Adsorption isotherm of Carbon Dioxide on FJI-2
DOI: 10.1039/C3ta12391j
Adsorbate Carbon Dioxide: InChIKey CURLTUGMZLYLDI-UHFFFAOYSA-N
Temperature: 273 K
Tabular data in the source: 0
pressure (bar)	uptake (cm3(STP)/g)
0.0149343	2.59685
0.0673713	10.1128
0.143842	19.3767
0.248716	29.1649
0.386363	39.6523
0.624514	53.9851
0.843002	63.9481
0.980649	70.5901
