Adsorption isotherm of Carbon Dioxide on MIL-53(Al)
DOI: 10.1021/Ie5006146
Adsorbate Carbon Dioxide: InChIKey CURLTUGMZLYLDI-UHFFFAOYSA-N
Temperature: 350 K
Tabular data in the source: 0
pressure (bar)	uptake (mmol/g)
1.26359	0.753271
2.64748	1.58189
3.97198	2.29712
5.29801	2.86093
6.62404	3.42473
7.77	3.83767
10.0029	4.51229
11.6335	4.8859
15.2587	5.55631
18.7644	6.07567
24.0244	6.70327
