Adsorption isotherm of Carbon Dioxide on MIL-53(Al)
DOI: 10.1021/Ie5006146
Adsorbate Carbon Dioxide: InChIKey CURLTUGMZLYLDI-UHFFFAOYSA-N
Temperature: 332 K
Tabular data in the source: 0
pressure (bar)	uptake (mmol/g)
0.959386	0.905612
1.25977	1.13183
2.09923	1.92424
2.63984	2.33901
3.54328	2.79053
4.3245	3.35599
4.8061	3.61951
5.40762	3.99624
6.0103	4.2594
6.37198	4.40973
6.79381	4.59772
7.33556	4.89892
8.05969	5.12386
8.60259	5.31149
9.20641	5.46108
10.1114	5.76118
10.4734	5.87365
10.8964	5.94807
11.6209	6.13515
12.165	6.20922
12.8293	6.35862
13.4339	6.4325
13.9166	6.58246
14.5818	6.65616
15.2465	6.76771
15.6086	6.88018
16.4553	6.95332
17.3618	7.102
21.1716	7.46901
22.1999	7.5416
23.9535	7.72557
