Adsorption isotherm of Nitrogen on MIL-53(Al)
DOI: 10.1021/Ie5006146
Adsorbate Nitrogen: InChIKey IJGRMHOSHXDMSA-UHFFFAOYSA-N
Temperature: 294 K
Tabular data in the source: 0
pressure (bar)	uptake (mmol/g)
0.367129	0.0736214
1.36276	0.322546
2.67305	0.635901
3.98416	0.902816
8.02601	1.5176
12.017	2.03031
15.9052	2.40389
19.8472	2.71236
