Adsorption isotherm of Carbon monoxide on MIL-53(Al)
DOI: 10.1021/Ie5006146
Adsorbate Carbon monoxide: InChIKey UGFAIRIUMAVXCW-UHFFFAOYSA-N
Temperature: 314 K
Tabular data in the source: 0
pressure (bar)	uptake (mmol/g)
0.759167	0.142136
3.98495	0.788558
8.03646	1.38157
11.9625	1.88358
15.89	2.29437
19.8826	2.60084
25.7771	3.00856
