Adsorption isotherm of Methane on MIL-53(Al)
DOI: 10.1021/Ie5006146
Adsorbate Methane: InChIKey VNWKTOKETHGBQD-UHFFFAOYSA-N
Temperature: 314 K
Tabular data in the source: 0
pressure (bar)	uptake (mmol/g)
0.592417	0.306225
1.30332	0.588272
4.08768	1.59804
7.93839	2.5563
12.0261	3.25265
15.5806	3.76119
19.1351	4.12735
24.763	4.6992
