Adsorption isotherm of Methane on MIL-53(Al)
DOI: 10.1021/Ie5006146
Adsorbate Methane: InChIKey VNWKTOKETHGBQD-UHFFFAOYSA-N
Temperature: 294 K
Tabular data in the source: 0
pressure (bar)	uptake (mmol/g)
0.236967	0.236388
0.7109	0.780352
1.30332	1.32387
3.90995	2.76143
7.93839	3.86139
12.0261	4.55773
15.5806	5.11373
19.1943	5.55086
24.6445	6.02847
