Adsorption isotherm of Carbon Dioxide on MIL-53(Al)
DOI: 10.1021/Ie5006146
Adsorbate Carbon Dioxide: InChIKey CURLTUGMZLYLDI-UHFFFAOYSA-N
Temperature: 294 K
Tabular data in the source: 0
pressure (bar)	uptake (mmol/g)
0.173965	0.756571
0.346785	1.62671
0.703117	2.30702
1.42609	2.64552
2.62991	3.32327
4.55365	4.64236
5.27166	5.47299
5.50578	6.26724
5.7989	7.21272
5.97631	7.62859
6.2763	7.89266
7.72417	8.38039
9.65593	8.90451
11.3478	9.20223
14.673	9.60856
17.9388	9.90151
22.5973	10.1524
