Adsorption isotherm of Carbon Dioxide on MIL-53(Al)
DOI: 10.1021/Ie5006146
Adsorbate Carbon Dioxide: InChIKey CURLTUGMZLYLDI-UHFFFAOYSA-N
Temperature: 314 K
Tabular data in the source: 0
pressure (bar)	uptake (mmol/g)
0.95213	1.62488
1.31266	1.88877
2.0322	2.56798
2.63258	3.05827
4.19961	3.73492
4.92449	3.88414
5.46701	4.10963
6.43136	4.52311
7.75625	5.20049
8.7164	6.03039
9.1348	6.55909
9.73632	6.93581
10.2191	7.08577
10.8819	7.3866
11.3045	7.49889
11.4861	7.49834
14.9308	8.05573
18.256	8.46206
23.1555	8.82578
