Adsorption isotherm of Nitrogen on MIL-53(Al)
DOI: 10.1021/Ie5006146
Adsorbate Nitrogen: InChIKey IJGRMHOSHXDMSA-UHFFFAOYSA-N
Temperature: 350 K
Tabular data in the source: 0
pressure (bar)	uptake (mmol/g)
0.735563	0.072937
1.41865	0.136684
4.04608	0.373289
8.0423	0.588776
12.0371	0.887857
15.9813	1.06629
19.976	1.36537
