Adsorption isotherm of Nitrogen on MIL-53(Al)
DOI: 10.1021/Ie5006146
Adsorbate Nitrogen: InChIKey IJGRMHOSHXDMSA-UHFFFAOYSA-N
Temperature: 314 K
Tabular data in the source: 0
pressure (bar)	uptake (mmol/g)
0.840177	0.109894
4.09546	0.558956
8.03318	1.10892
11.9217	1.46392
15.9159	1.79087
19.9102	2.11781
