Adsorption isotherm of Methane on MIL-53(Al)
DOI: 10.1021/Ie5006146
Adsorbate Methane: InChIKey VNWKTOKETHGBQD-UHFFFAOYSA-N
Temperature: 350 K
Tabular data in the source: 0
pressure (bar)	uptake (mmol/g)
1.36256	0.32703
3.96919	0.957812
8.35308	1.74795
11.8483	2.18552
15.6991	2.5743
19.5498	2.89188
25.3555	3.29696
