Adsorption isotherm of Carbon monoxide on MIL-53(Al)
DOI: 10.1021/Ie5006146
Adsorbate Carbon monoxide: InChIKey UGFAIRIUMAVXCW-UHFFFAOYSA-N
Temperature: 294 K
Tabular data in the source: 0
pressure (bar)	uptake (mmol/g)
0.25216	0.10384
0.75834	0.194254
1.32591	0.414865
2.84321	0.764284
4.10731	1.07501
6.06734	1.51494
7.96557	1.85074
10.0542	2.18623
11.8898	2.47001
13.9165	2.70137
15.8803	2.90677
19.8088	3.25242
19.8706	3.35655
23.6094	3.66341
25.8927	3.72499
