Adsorption isotherm of Carbon monoxide on MIL-53(Al)
DOI: 10.1021/Ie5006146
Adsorbate Carbon monoxide: InChIKey UGFAIRIUMAVXCW-UHFFFAOYSA-N
Temperature: 350 K
Tabular data in the source: 0
pressure (bar)	uptake (mmol/g)
1.39267	0.206292
3.98971	0.488876
7.98065	0.899574
11.8451	1.28441
15.965	1.56461
20.0215	1.84492
26.0442	2.17426
