Adsorption isotherm of Nitrogen on MIL-53(Al)
DOI: 10.1021/Ie5006146
Adsorbate Nitrogen: InChIKey IJGRMHOSHXDMSA-UHFFFAOYSA-N
Temperature: 77 K
Tabular data in the source: 0
pressure (bar)	uptake (cm3(STP)/g)
-0.00284219	80.7147
-0.000975795	199.373
-0.000518875	106.016
-0.000464664	94.9397
-0.000348498	71.2048
-0.000271054	55.3815
-0.0001394	28.4819
-7.7444e-06	1.58233
0.00157211	178.787
0.00190512	110.747
0.00222264	45.8716
0.00226911	36.3776
0.00233107	23.719
0.00238528	12.6427
0.00364761	254.723
0.0037328	237.317
0.003818	219.912
0.004151	151.872
0.00426717	128.137
0.00566116	343.318
0.00574635	325.912
0.00583928	306.924
0.00589349	295.848
0.00842592	278.426
0.0105247	349.615
0.0177966	363.808
0.0275391	373.238
0.0520037	374.661
0.0715738	376.116
0.0935834	379.137
0.118048	380.56
0.14252	380.401
0.164538	381.839
0.189002	383.262
0.220816	383.055
0.242841	382.912
0.259964	384.382
0.284437	384.223
0.296665	385.726
0.321137	385.566
0.33826	387.037
0.362733	386.877
0.377416	386.782
0.40188	388.205
0.4288	388.029
0.467933	392.521
0.502193	392.298
0.546236	393.593
0.58049	394.952
0.61719	396.296
0.636776	394.586
0.658794	396.025
0.695501	395.786
0.719974	395.626
0.741992	397.065
0.766463	396.905
0.790928	398.328
0.815401	398.169
0.839865	399.592
0.861882	401.031
0.886347	402.454
0.910812	403.877
0.935276	405.299
0.957278	409.903
