Adsorption isotherm of Zn(II) on Rice Straw Biochar
DOI: 10.1016/j.colsurfa.2017.08.041
Article source: Figure 4
Adsorbate Zn(II): InChIKey PTFCDOFLOPIGGS-UHFFFAOYSA-N
Kind: experiment
Temperature: 298 K
Tabular data in the source: 0
pressure (bar)	uptake (mg/g)
1.01325	0
1.01325	10.921
1.01325	20.307
1.01325	26.015
1.01325	28.979
1.01325	40.368
