Adsorption isotherm of Copper(II) Ion on Rice Straw Biochar
DOI: 10.1016/j.colsurfa.2017.08.041
Article source: Figure 4
Adsorbate Copper(II) Ion: InChIKey JPVYNHNXODAKFH-UHFFFAOYSA-N
Kind: experiment
Temperature: 298 K
Tabular data in the source: 0
pressure (bar)	uptake (mg/g)
1.01325	0.241
1.01325	4.052
1.01325	9.235
1.01325	18.94
1.01325	39.61
1.01325	44.922
1.01325	54.986
