Adsorption isotherm of Copper(II) Ion, Zn(II) on Rice Straw Biochar
DOI: 10.1016/j.colsurfa.2017.08.041
Article source: Figure 4
Adsorbate Copper(II) Ion: InChIKey JPVYNHNXODAKFH-UHFFFAOYSA-N
Adsorbate Zn(II): InChIKey PTFCDOFLOPIGGS-UHFFFAOYSA-N
Kind: experiment
Temperature: 298 K
Tabular data in the source: 0
pressure (bar)	Copper(II) Ion fraction	Copper(II) Ion uptake (mg/g)	Zn(II) fraction	Zn(II) uptake (mg/g)	total uptake (mg/g)
1.01325	0.185	0.643	0.226	1.165	
1.01325	0.275	2.051	2.925	2.296	
1.01325	1.488	3.497	5.399	3.027	
1.01325	3.352	6.753	12.932	4.821	
1.01325	8.209	11.896	35.299	4.276	
1.01325	26.925	19.639	78.462	4.252	
1.01325	45.262	29.031	141.408	5.182	
1.01325	224.913	36.401	284.611	8.099	
