Adsorption isotherm of Nitrogen on C28H28Cu4N20O2
DOI: 10.1016/j.jssc.2009.06.041
Adsorbate Nitrogen: InChIKey IJGRMHOSHXDMSA-UHFFFAOYSA-N
Temperature: 77 K
Tabular data in the source: 0
pressure (bar)	uptake (ml/g)
0.00129173	2.04464
0.00364304	2.17228
0.0083569	2.61926
0.0447274	3.31974
0.0834642	4.40346
0.125698	5.16745
0.151514	5.74083
0.186705	6.3136
0.219552	6.88652
0.253568	7.39546
0.289934	8.03205
0.322782	8.60497
0.354438	8.85848
0.388446	9.23963
0.423634	9.7485
0.45647	10.1297
0.490478	10.5109
0.525654	10.828
0.525657	10.8919
0.559665	11.2731
0.560837	11.273
0.596013	11.5902
0.628846	11.9075
0.662861	12.4165
0.696858	12.6059
0.732042	13.0509
0.764874	13.3682
0.79771	13.7495
0.834065	14.1943
0.866901	14.5756
0.900924	15.2123
0.936142	16.2324
0.969202	20.4474
