Adsorption isotherm of Ethene on FIR-8a-ht
DOI: 10.1021/Ic4020256
Adsorbate Ethene: InChIKey VGGSQFUCUMXWEO-UHFFFAOYSA-N
Temperature: 298 K
Tabular data in the source: 0
pressure (bar)	uptake (cm3(STP)/g)
0.0100322	2.9703
0.0167063	5.19844
0.0268087	6.92903
0.036883	9.1555
0.0537157	12.1225
0.063776	14.5969
0.0772647	16.5738
0.107656	20.2779
0.131261	23.7374
0.161723	26.2018
0.20233	29.653
0.23615	32.8596
0.276826	35.0711
0.320889	37.5289
0.354794	39.2479
0.398884	41.2098
0.466777	43.16
0.531228	45.8557
0.599135	47.558
0.663641	49.262
0.731562	50.7164
0.799511	51.6748
0.86406	52.635
0.931995	53.8414
