Adsorption isotherm of N-propane on FIR-8a-ht
DOI: 10.1021/Ic4020256
Adsorbate N-propane: InChIKey ATUOYWHBWRKTHZ-UHFFFAOYSA-N
Temperature: 298 K
Tabular data in the source: 0
pressure (bar)	uptake (cm3(STP)/g)
0.00240267	17.6021
0.00285229	9.66803
0.00545166	23.799
0.00866927	27.0206
0.0119431	29.2504
0.0186172	31.4785
0.0252912	33.7066
0.0286212	34.9447
0.0387517	36.1794
0.0522544	37.9083
0.0657992	38.8934
0.0793301	40.1265
0.103048	41.6025
0.130194	42.5809
0.153925	43.809
0.194672	44.7808
0.235405	46.0005
0.27618	46.4764
0.316941	47.2003
0.357702	47.9241
0.401877	48.3984
0.466441	49.1106
0.534389	50.0691
0.595566	50.535
0.67033	51.2422
0.932037	53.0976
