Adsorption isotherm of Hydrogen on FIR-8a-ht
DOI: 10.1021/Ic4020256
Adsorbate Hydrogen: InChIKey UFHFLCQGNIYNRP-UHFFFAOYSA-N
Temperature: 77 K
Tabular data in the source: 0
pressure (bar)	uptake (cm3(STP)/g)
0.00824256	7.39057
0.0201013	10.6686
0.0281843	15.5936
0.0324385	21.3435
0.0404151	24.6248
0.048445	28.7278
0.0643451	34.4684
0.0725877	41.8589
0.0884347	46.7776
0.104229	50.8744
0.116193	55.7962
0.132041	60.7148
0.147782	63.9897
0.171499	70.5458
0.199098	77.0988
0.226697	83.6517
0.25419	88.5609
0.281682	93.4701
0.344433	103.282
0.414946	113.088
0.485301	120.428
0.547944	128.597
0.622127	135.112
0.688493	140.811
0.754912	147.333
0.821331	153.854
0.887644	158.732
0.949862	160.325
1.02006	165.2
