Adsorption isotherm of Nitrogen on FIR-8a-ht
DOI: 10.1021/Ic4020256
Adsorbate Nitrogen: InChIKey IJGRMHOSHXDMSA-UHFFFAOYSA-N
Temperature: 77 K
Tabular data in the source: 0
pressure (bar)	uptake (cm3(STP)/g)
0.00462647	11.5031
0.0052646	21.3656
0.00654087	41.0906
0.00723218	51.775
0.00787032	61.6375
0.00845527	70.6781
0.00914659	81.3624
0.00978471	31.2249
0.0103697	100.266
0.0110078	110.128
0.0114332	116.703
0.0136667	91.2218
0.015847	124.919
0.016432	133.959
0.0168041	139.712
0.0285565	141.347
0.0522206	147.081
0.0833828	148.699
0.0989107	148.687
0.133848	148.659
0.164957	149.455
0.184368	149.439
0.211541	149.417
0.374584	149.285
0.421221	150.069
0.471687	150.028
0.522099	149.166
0.572565	149.125
0.619202	149.909
0.677433	149.861
0.724016	149.824
0.817183	149.748
0.852175	150.542
0.906522	150.498
0.945288	149.644
0.991872	149.606
