Adsorption isotherm of Methane on FIR-8a-ht
DOI: 10.1021/Ic4020256
Adsorbate Methane: InChIKey VNWKTOKETHGBQD-UHFFFAOYSA-N
Temperature: 298 K
Tabular data in the source: 0
pressure (bar)	uptake (cm3(STP)/g)
0.00337216	0.494217
0.02716	0.73051
0.0407329	1.21974
0.0577342	1.21142
0.0679069	1.7023
0.081508	1.69565
0.108668	2.42616
0.135842	2.90873
0.163016	3.3913
0.200376	4.11682
0.241151	4.59273
0.281913	5.31658
0.322688	5.7925
0.360048	6.51801
0.400809	7.24187
0.468759	8.20035
0.533293	9.40844
0.601256	10.119
0.665805	11.0791
0.730368	11.7913
0.801731	12.5002
0.869666	13.7066
0.930829	14.4205
