Adsorption isotherm of Hydrogen on FIR-12a-ht
DOI: 10.1021/Ic4020256
Adsorbate Hydrogen: InChIKey UFHFLCQGNIYNRP-UHFFFAOYSA-N
Temperature: 77 K
Tabular data in the source: 0
pressure (bar)	uptake (cm3(STP)/g)
0.00781714	0.815577
0.0233451	0.802981
0.0389261	1.61226
0.0661	1.59022
0.0816811	2.3995
0.0972091	2.3869
0.120501	2.36801
0.139911	2.35226
0.190377	2.31133
0.221433	2.28613
0.275833	3.06392
0.345709	3.00724
0.431113	2.93797
0.477749	3.72205
0.543743	3.66852
0.609736	3.61499
0.67573	3.56146
0.745606	3.50478
0.811653	4.27312
0.877647	4.21959
0.978578	4.13771
