Adsorption isotherm of Carbon Dioxide on FIR-8a-ht
DOI: 10.1021/Ic4020256
Adsorbate Carbon Dioxide: InChIKey CURLTUGMZLYLDI-UHFFFAOYSA-N
Temperature: 298 K
Tabular data in the source: 0
pressure (bar)	uptake (cm3(STP)/g)
0.0131146	0.864708
0.0229339	1.15753
0.0360485	2.02224
0.0491497	2.60238
0.062251	3.18253
0.0753523	3.76267
0.0884669	4.62738
0.101568	5.20752
0.111401	5.78491
0.134348	7.22701
0.163819	8.39005
0.190035	9.8349
0.216238	10.9952
0.24244	12.1555
0.268656	13.6003
0.324317	15.6391
0.373467	18.2415
0.42914	20.5648
0.484787	22.319
0.537193	24.6396
0.602672	26.9712
0.668179	29.8719
0.733646	31.9189
0.805649	33.9714
0.871128	36.303
0.936582	38.0655
1.01842	40.6954
