Adsorption isotherm of Ethane on FIR-8a-ht
DOI: 10.1021/Ic4020256
Adsorbate Ethane: InChIKey OTMSDBZUPAUEDD-UHFFFAOYSA-N
Temperature: 298 K
Tabular data in the source: 0
pressure (bar)	uptake (cm3(STP)/g)
-7.02534e-05	1.2397
0.00663191	2.97196
0.00996193	4.21
0.0132358	6.4398
0.0199098	8.66794
0.0299982	10.6465
0.033272	12.8763
0.0365458	15.1061
0.0499783	18.0747
0.066811	21.0417
0.0802856	23.2665
0.107263	27.2202
0.130896	30.1839
0.157958	32.65
0.198592	35.6053
0.235868	37.8185
0.276545	40.03
0.31385	41.7472
0.357983	42.9653
0.395315	44.1867
0.463208	46.1369
0.53453	47.5896
0.595664	48.7994
0.870847	52.8796
1.01019	54.0511
