Adsorption isotherm of Nitrogen on FIR-12a-ht
DOI: 10.1021/Ic4020256
Adsorbate Nitrogen: InChIKey IJGRMHOSHXDMSA-UHFFFAOYSA-N
Temperature: 77 K
Tabular data in the source: 0
pressure (bar)	uptake (cm3(STP)/g)
0.167778	2.32966
0.300341	3.04404
0.456215	2.9176
0.514668	2.87019
0.561501	3.65412
0.83428	3.43285
0.861558	3.41072
0.881113	4.21677
0.916114	3.36647
0.939494	3.3475
