Adsorption isotherm of Carbon Dioxide on FIR-8a-ht
DOI: 10.1021/Ic4020256
Adsorbate Carbon Dioxide: InChIKey CURLTUGMZLYLDI-UHFFFAOYSA-N
Temperature: 273 K
Tabular data in the source: 0
pressure (bar)	uptake (cm3(STP)/g)
0.0328595	3.72687
0.0492427	4.59433
0.0558466	6.02266
0.0722431	7.17469
0.0821155	8.60577
0.0985387	10.3269
0.111653	11.1916
0.137909	13.4902
0.160909	16.0705
0.190433	18.3718
0.219972	20.9577
0.242971	23.538
0.269228	25.8366
0.321712	29.8645
0.377453	33.6107
0.426655	37.3513
0.482382	40.8129
0.538096	43.9899
0.603643	47.7443
0.669148	50.6451
0.734668	53.8303
0.806699	56.452
0.872178	58.7836
0.940927	61.1179
