Adsorption isotherm of Carbon Dioxide on PCMOF-5
DOI: 10.1021/Ja310435e
Adsorbate Carbon Dioxide: InChIKey CURLTUGMZLYLDI-UHFFFAOYSA-N
Temperature: 273 K
Tabular data in the source: 0
pressure (bar)	uptake (mmol/g)
0.00193377	0.024686
0.0273479	0.0915874
0.0488521	0.151447
0.0644915	0.232432
0.10359	0.383841
0.144644	0.485954
0.216976	0.626799
0.287353	0.778207
0.365551	0.929616
0.437883	1.06694
0.504351	1.19722
0.541494	1.25004
0.611872	1.3768
0.686159	1.50708
0.719393	1.53877
0.756537	1.61976
0.791725	1.65849
0.867968	1.77469
0.975489	1.95426
0.998948	1.98595
1.09865	1.92962
1.20422	1.90849
