Adsorption isotherm of Nitrogen on PCMOF-5
DOI: 10.1021/Ja310435e
Adsorbate Nitrogen: InChIKey IJGRMHOSHXDMSA-UHFFFAOYSA-N
Temperature: 77 K
Tabular data in the source: 0
pressure (bar)	uptake (mmol/g)
0.00515504	0.318214
0.00801532	0.409743
0.0137359	0.512713
0.025177	0.632845
0.05521	0.741536
0.0780923	0.793021
0.102405	0.867389
0.120997	0.907433
0.143879	0.947477
0.191074	1.02756
0.238268	1.05045
0.278312	1.02184
0.324077	1.05617
0.407025	1.06761
0.524297	1.02756
0.567201	1.02756
0.591514	1.06761
0.635848	1.05045
0.703065	1.13626
0.723087	1.11337
0.796024	1.26211
0.814616	1.34792
0.861811	1.61106
0.898994	2.05727
0.907575	2.18312
0.95048	3.61898
