Adsorption isotherm of Nitrogen on Carbon
DOI: 10.1016/j.fluid.2004.08.014
Adsorbate Nitrogen: InChIKey IJGRMHOSHXDMSA-UHFFFAOYSA-N
Temperature: 77 K
Tabular data in the source: 0
pressure (bar)	uptake (micromoles/m2)
0.00372489	0.139543
0.00658518	4.00093
0.00944547	6.48938
0.0266072	8.37717
0.0909636	10.5224
0.178202	11.9811
0.274022	13.1824
0.362691	14.727
0.45565	16.2716
0.548609	18.2452
0.635848	19.8755
0.730238	22.0207
0.821767	26.1395
0.914726	29.3145
