Adsorption isotherm of Nitrogen on Carbon
DOI: 10.1016/j.fluid.2004.08.014
Adsorbate Nitrogen: InChIKey IJGRMHOSHXDMSA-UHFFFAOYSA-N
Temperature: 77 K
Tabular data in the source: 0
pressure (bar)	uptake (micromoles/m2)
0.000865	0.568586
0.0123058	3.05703
0.0337579	5.88872
0.0609306	7.51908
0.0966842	8.80621
0.181063	10.8656
0.25257	12.2386
0.326937	13.6973
0.379853	15.6709
0.428477	17.4729
0.477102	18.5026
0.530017	20.1329
0.575782	21.6775
0.621547	21.9349
0.65444	23.3937
0.707355	25.6247
0.75026	27.8557
0.804605	31.4597
0.830348	33.7765
0.8518	38.5818
0.880403	42.7864
0.900425	48.2782
0.927597	55.6577
