Adsorption isotherm of Nitrogen on Carbon
DOI: 10.1016/j.fluid.2004.08.014
Adsorbate Nitrogen: InChIKey IJGRMHOSHXDMSA-UHFFFAOYSA-N
Temperature: 77 K
Tabular data in the source: 0
pressure (bar)	uptake (molecules/unitcell)
0.0103947	0.02823
0.0285921	0.0338638
0.0610695	0.0507652
0.0993326	0.0902018
0.295346	0.231047
0.606746	0.501469
1.04623	0.777526
1.98838	1.2395
2.82236	1.70147
6.51618	2.4395
10.1943	2.86203
20.5392	3.34654
30.3109	3.56626
59.8926	3.75781
91.8943	3.83668
313.1	3.95499
1026.07	3.98316
3171.88	3.99443
9616.28	4.00569
