Adsorption isotherm of Carbon Dioxide on Zn(GA)2
DOI: 10.1038/Nchem.1871
Adsorbate Carbon Dioxide: InChIKey CURLTUGMZLYLDI-UHFFFAOYSA-N
Temperature: 195 K
Tabular data in the source: 0
pressure (bar)	uptake (wt%)
0.0457421	2.72267
0.0512279	10.6418
0.0592792	14.6025
0.0642419	16.2898
0.0688622	17.1706
0.0755436	17.9052
0.0799771	18.346
0.0886884	18.8611
0.0973686	19.3029
0.131653	20.0436
0.159506	20.6363
0.185142	21.0085
0.208561	21.1602
0.23632	21.5329
0.261924	21.8318
0.281128	22.056
0.306608	22.0616
0.359816	22.3665
0.410901	22.671
0.464078	22.9027
0.510884	23.1329
0.561969	23.4374
0.617301	23.7428
0.668385	24.0473
0.702421	24.2014
0.762061	24.6544
0.866354	25.2639
0.915347	25.6412
0.9664	25.8724
1.01948	25.8841
