Adsorption isotherm of Carbon Dioxide on Zn[(GA).60(GS).40]2
DOI: 10.1038/Nchem.1871
Adsorbate Carbon Dioxide: InChIKey CURLTUGMZLYLDI-UHFFFAOYSA-N
Temperature: 195 K
Tabular data in the source: 0
pressure (bar)	uptake (wt%)
0.172022	0.111148
0.199687	0.263861
0.223044	0.268998
0.250585	0.128428
0.276065	0.134032
0.29733	0.212023
0.403497	0.235373
0.505978	1.57756
0.602369	3.57823
0.705099	5.50699
0.801365	7.21438
0.901816	8.77606
1.00651	10.3387
