Adsorption isotherm of Carbon Dioxide on Zn[(GA).25(GT).75]2
DOI: 10.1038/Nchem.1871
Adsorbate Carbon Dioxide: InChIKey CURLTUGMZLYLDI-UHFFFAOYSA-N
Temperature: 195 K
Tabular data in the source: 0
pressure (bar)	uptake (wt%)
0.00574114	1.84448
0.0847159	10.2408
0.228979	11.1007
0.248731	11.2085
0.282273	11.3534
0.307886	11.4275
0.410167	11.5496
0.510517	11.7062
0.614797	11.8634
0.713046	11.8805
0.815293	11.9679
0.913712	12.1589
1.01196	12.176
