Adsorption isotherm of Carbon Dioxide on Zn[(GA).75(GT).25]2
DOI: 10.1038/Nchem.1871
Adsorbate Carbon Dioxide: InChIKey CURLTUGMZLYLDI-UHFFFAOYSA-N
Temperature: 195 K
Tabular data in the source: 0
pressure (bar)	uptake (wt%)
0.0317256	-0.286277
0.0615146	-0.133098
0.0785013	-0.129362
0.10192	0.0224165
0.123123	-0.046234
0.153036	0.400228
0.175608	3.55769
0.204177	5.8367
0.230404	7.602
0.256538	9.14733
0.280424	10.3989
0.304186	11.3572
0.404699	13.0655
0.503057	14.7001
0.605476	15.8956
0.703679	17.1636
0.808221	18.3596
0.908422	19.3347
1.00644	20.1627
