Adsorption isotherm of Carbon Dioxide on Zn[(GS).50(GT).50]2
DOI: 10.1038/Nchem.1871
Adsorbate Carbon Dioxide: InChIKey CURLTUGMZLYLDI-UHFFFAOYSA-N
Temperature: 195 K
Tabular data in the source: 0
pressure (bar)	uptake (wt%)
0.0150705	7.34175
0.0360871	8.73671
0.0582486	9.29709
0.0861683	9.71933
0.101888	9.72207
0.133464	9.86669
0.163041	9.97618
0.184656	9.97994
0.212473	10.2978
0.240154	10.4765
0.261837	10.5499
0.291482	10.729
0.31906	10.8033
0.411585	10.9933
0.513968	11.2198
0.616318	11.4115
0.714703	11.5678
0.813123	11.7588
0.917334	11.8465
1.01558	11.8636
