Adsorption isotherm of Carbon Dioxide on Zn[(GS).25(GT).75]2
DOI: 10.1038/Nchem.1871
Adsorbate Carbon Dioxide: InChIKey CURLTUGMZLYLDI-UHFFFAOYSA-N
Temperature: 195 K
Tabular data in the source: 0
pressure (bar)	uptake (wt%)
0.00693721	3.06208
0.00980777	5.98431
0.0357454	8.38883
0.0600427	9.12349
0.0862367	9.78891
0.11009	10.0713
0.135942	10.3889
0.167552	10.5683
0.191269	10.7115
0.210953	10.7497
0.234669	10.893
0.258317	10.9667
0.289893	11.1113
0.309611	11.1843
0.415686	11.1679
0.514242	11.4981
0.61056	11.5497
0.710807	11.6019
0.813123	11.7588
0.91537	11.8462
1.00779	11.9318
