Adsorption isotherm of Carbon Dioxide on Zn[(GA).50(GS).50]2
DOI: 10.1038/Nchem.1871
Adsorbate Carbon Dioxide: InChIKey CURLTUGMZLYLDI-UHFFFAOYSA-N
Temperature: 195 K
Tabular data in the source: 0
pressure (bar)	uptake (wt%)
0.00627662	-0.218561
0.0253867	-0.214358
0.0508979	-0.135433
0.0785325	-0.0560412
0.101858	-0.124225
0.127338	-0.118621
0.150726	-0.0401629
0.169836	-0.0359598
0.201686	-0.0289546
0.225043	-0.0238175
0.2484	-0.0186804
0.27388	-0.0130763
0.299391	0.0658485
0.403435	0.088732
0.501046	-0.0364268
0.596565	-0.088732
0.700671	0.0807928
0.804808	0.323638
0.896392	1.00361
1.00056	1.31977
