Adsorption isotherm of Carbon Dioxide on Zn[(GA).75(GS).25]2
DOI: 10.1038/Nchem.1871
Adsorbate Carbon Dioxide: InChIKey CURLTUGMZLYLDI-UHFFFAOYSA-N
Temperature: 195 K
Tabular data in the source: 0
pressure (bar)	uptake (wt%)
0.00640116	0.0747217
0.0212957	0.151311
0.0383135	0.228368
0.0489925	0.377344
0.0787193	0.383883
0.102076	0.38902
0.129617	0.24845
0.155054	10.1514
0.181873	13.3098
0.206008	15.1479
0.23414	16.4005
0.255747	17.285
0.277043	17.4363
0.309173	18.1032
0.411685	19.5187
0.507391	19.9063
0.613963	20.8828
0.711855	21.4176
0.813868	21.6599
0.909512	21.9009
1.01153	22.1433
