Adsorption isotherm of Carbon Dioxide on Zn[(GA).90(GS).10]2
DOI: 10.1038/Nchem.1871
Adsorbate Carbon Dioxide: InChIKey CURLTUGMZLYLDI-UHFFFAOYSA-N
Temperature: 195 K
Tabular data in the source: 0
pressure (bar)	uptake (wt%)
0.10113	8.16007
0.136778	17.1122
0.165098	18.8046
0.212122	19.5481
0.242098	20.1412
0.259178	20.3649
0.286937	20.7376
0.310481	21.1827
0.410589	21.9378
0.510698	22.693
0.619362	23.5966
0.713007	24.1304
0.817268	24.6666
0.912943	24.9809
1.01911	25.0042
