Adsorption isotherm of 2,2-Dimethyl-Butane, N-Hexane on Zeolite MFI
DOI: 10.1007/s10450-007-9010-z
Article source: Figure 7
Adsorbate 2,2-Dimethyl-Butane: InChIKey HNRMPXKDFBEGFZ-UHFFFAOYSA-N
Adsorbate N-Hexane: InChIKey VLKZOEOYAKHREP-UHFFFAOYSA-N
Kind: experiment
Temperature: 423 K
Tabular data in the source: 0
pressure (bar)	2,2-Dimethyl-Butane fraction	2,2-Dimethyl-Butane uptake (mmol/g)	N-Hexane fraction	N-Hexane uptake (mmol/g)	total uptake (mmol/g)
0.013802	0.589	0.1669	0.411	0.1364	
0.062184	0.651	0.257	0.349	0.2344	
0.21427	0.635	0.2848	0.365	0.298	
0.43479	0.565	0.2848	0.435	0.3669	
0.64325	0.551	0.2914	0.449	0.4424	
0.99519	0.508	0.3205	0.492	0.5285	
1.47877	0.525	0.3285	0.475	0.6967	
