Adsorption isotherm of 2-Methyl Pentane, N-Hexane on Zeolite MFI
DOI: 10.1007/s10450-007-9010-z
Article source: Figure 7
Adsorbate 2-Methyl Pentane: InChIKey AFABGHUZZDYHJO-UHFFFAOYSA-N
Adsorbate N-Hexane: InChIKey VLKZOEOYAKHREP-UHFFFAOYSA-N
Kind: experiment
Temperature: 423 K
Tabular data in the source: 0
pressure (bar)	2-Methyl Pentane fraction	2-Methyl Pentane uptake (mmol/g)	N-Hexane fraction	N-Hexane uptake (mmol/g)	total uptake (mmol/g)
0.012093	0.86	0.2407	0.14	0.2361	
0.137661	0.617	0.3392	0.383	0.3539	
0.27769	0.57	0.3472	0.43	0.4056	
0.43745	0.553	0.3472	0.447	0.4606	
0.67885	0.528	0.3617	0.472	0.5237	
1.00686	0.528	0.3552	0.472	0.5998	
1.50907	0.519	0.3891	0.481	0.6904	
