Adsorption isotherm of 2,2-Dimethyl-Butane on Zeolite MFI
DOI: 10.1007/s10450-007-9010-z
Article source: Figure 5
Adsorbate 2,2-Dimethyl-Butane: InChIKey HNRMPXKDFBEGFZ-UHFFFAOYSA-N
Kind: experiment
Temperature: 423 K
Tabular data in the source: 0
pressure (bar)	uptake (mmol/g)
0.0015	0.0133
0.00275	0.0264
0.00382	0.0387
0.00487	0.0511
0.006	0.0641
0.00717	0.0781
0.00835	0.0911
0.0095	0.104
0.0198	0.231
0.0316	0.336
0.0505	0.421
0.0804	0.474
0.117	0.5
0.307	0.538
0.508	0.553
0.702	0.559
0.861	0.563
1.04	0.564
1.2	0.565
1.32	0.566
1.45	0.566
1.55	0.565
2.28	0.587
2.4	0.596
2.46	0.603
