Adsorption isotherm of N-Hexane, 2,3-dimethyl-butane on Zeolite MFI
DOI: 10.1007/s10450-007-9010-z
Article source: Figure 7
Adsorbate N-Hexane: InChIKey VLKZOEOYAKHREP-UHFFFAOYSA-N
Adsorbate 2,3-dimethyl-butane: InChIKey ZFFMLCVRJBZUDZ-UHFFFAOYSA-N
Kind: experiment
Temperature: 423 K
Tabular data in the source: 0
pressure (bar)	N-Hexane fraction	N-Hexane uptake (mmol/g)	2,3-dimethyl-butane fraction	2,3-dimethyl-butane uptake (mmol/g)	total uptake (mmol/g)
0.018787	0.256	0.2197	0.744	0.2766	
0.182699	0.4	0.3186	0.6	0.362	
0.35022	0.414	0.3675	0.586	0.3553	
0.53434	0.431	0.4244	0.569	0.3403	
0.77476	0.44	0.5153	0.56	0.3336	
1.07123	0.472	0.6061	0.528	0.3268	
1.61397	0.464	0.7471	0.536	0.3403	
