Adsorption isotherm of 2-Methyl Pentane, 2,3-dimethyl-butane on Zeolite MFI
DOI: 10.1007/s10450-007-9010-z
Article source: Figure 7
Adsorbate 2-Methyl Pentane: InChIKey AFABGHUZZDYHJO-UHFFFAOYSA-N
Adsorbate 2,3-dimethyl-butane: InChIKey ZFFMLCVRJBZUDZ-UHFFFAOYSA-N
Kind: experiment
Temperature: 423 K
Tabular data in the source: 0
pressure (bar)	2-Methyl Pentane fraction	2-Methyl Pentane uptake (mmol/g)	2,3-dimethyl-butane fraction	2,3-dimethyl-butane uptake (mmol/g)	total uptake (mmol/g)
0.009398	0.228	0.206	0.772	0.2219	
0.151333	0.321	0.3482	0.679	0.2977	
0.40064	0.435	0.404	0.565	0.2924	
0.7541	0.475	0.404	0.525	0.2924	
0.93512	0.467	0.4811	0.533	0.2698	
