Adsorption isotherm of 2,3-dimethyl-butane on Zeolite MFI
DOI: 10.1007/s10450-007-9010-z
Article source: Figure 5
Adsorbate 2,3-dimethyl-butane: InChIKey ZFFMLCVRJBZUDZ-UHFFFAOYSA-N
Kind: experiment
Temperature: 423 K
Tabular data in the source: 0
pressure (bar)	uptake (mmol/g)
0.000516	0.00661
0.00107	0.0136
0.00164	0.0205
0.00222	0.0266
0.00284	0.0336
0.00346	0.0406
0.00411	0.0474
0.00474	0.0535
0.00534	0.0597
0.00603	0.0658
0.00668	0.072
0.00733	0.0773
0.00798	0.0827
0.00869	0.0873
0.00943	0.0935
0.0169	0.198
0.0267	0.294
0.0414	0.374
0.0645	0.442
0.0991	0.486
0.247	0.55
0.418	0.563
0.583	0.57
0.76	0.575
0.896	0.575
1.06	0.58
1.18	0.58
1.33	0.58
1.47	0.58
1.6	0.58
1.73	0.579
1.9	0.58
2.02	0.584
2.15	0.599
2.27	0.611
2.37	0.629
2.5	0.655
