Adsorption isotherm of 2-Methyl Pentane on Zeolite MFI
DOI: 10.1007/s10450-007-9010-z
Article source: Figure 3, Figure 5
Adsorbate 2-Methyl Pentane: InChIKey AFABGHUZZDYHJO-UHFFFAOYSA-N
Kind: experiment
Temperature: 423 K
Tabular data in the source: 0
pressure (bar)	uptake (mmol/g)
0.000713	0.0159
0.00129	0.032
0.00192	0.0482
0.00249	0.0612
0.00319	0.0765
0.00384	0.0905
0.00456	0.105
0.00529	0.118
0.00604	0.131
0.00688	0.146
0.00771	0.158
0.00856	0.171
0.00946	0.183
0.0161	0.314
0.0252	0.406
0.0421	0.481
0.0677	0.523
0.105	0.551
0.297	0.59
0.465	0.6
0.628	0.611
0.795	0.614
0.932	0.62
1.1	0.624
1.23	0.629
1.35	0.634
1.45	0.638
1.52	0.645
1.61	0.651
1.72	0.657
1.83	0.663
1.94	0.674
2.05	0.686
2.16	0.717
2.28	0.722
2.36	0.75
2.44	0.776
