Adsorption isotherm of N-Hexane on Zeolite MFI
DOI: 10.1007/s10450-007-9010-z
Article source: Figure 3, Figure 5
Adsorbate N-Hexane: InChIKey VLKZOEOYAKHREP-UHFFFAOYSA-N
Kind: experiment
Temperature: 423 K
Tabular data in the source: 0
pressure (bar)	uptake (mmol/g)
0.000477	0.0156
0.000954	0.0318
0.0014	0.0465
0.00188	0.0609
0.0024	0.0749
0.0029	0.0878
0.00345	0.101
0.004	0.115
0.0046	0.129
0.00517	0.142
0.00582	0.156
0.00655	0.172
0.00725	0.185
0.00802	0.199
0.0162	0.36
0.0274	0.47
0.0485	0.546
0.0826	0.597
0.122	0.638
0.265	0.755
0.421	0.843
0.569	0.905
0.73	0.952
0.887	0.993
1.04	1.02
1.2	1.04
1.34	1.06
1.47	1.09
1.58	1.11
1.72	1.12
1.86	1.16
1.97	1.18
