Adsorption isotherm of Nitrogen on Rh@ZIF-8
DOI: 10.1007/s12274-014-0501-4
Adsorbate Nitrogen: InChIKey IJGRMHOSHXDMSA-UHFFFAOYSA-N
Temperature: 77 K
Tabular data in the source: 0
pressure (bar)	uptake (cm3(STP)/g)
0	0
0.002702	51.4925
0.002702	252.837
0.005404	252.837
0.010808	285.594
0.021616	304.298
0.029722	332.373
0.062146	348.686
0.083762	348.636
0.105378	348.586
0.124292	350.883
0.164822	353.131
0.183736	353.087
0.308028	355.141
0.356664	357.37
0.45934	359.474
0.510678	359.355
0.60795	363.813
0.659288	366.035
0.713328	365.91
0.761964	370.48
0.8106	372.709
0.829514	372.665
0.86464	374.925
0.886256	377.216
0.913276	384.177
0.937594	388.804
0.964614	393.423
0.98623	409.761
0.997038	421.442
1.00244	437.818
