Adsorption isotherm of Nitrogen on ZIF-8
DOI: 10.1007/s12274-014-0501-4
Adsorbate Nitrogen: InChIKey IJGRMHOSHXDMSA-UHFFFAOYSA-N
Temperature: 77 K
Tabular data in the source: 0
pressure (bar)	uptake (cm3(STP)/g)
0	95.9866
0.002702	222.402
0.005404	196.643
0.008106	325.399
0.021616	348.779
0.032424	381.53
0.075656	407.183
0.091868	409.487
0.105378	409.456
0.126994	411.747
0.164822	411.659
0.183736	411.616
0.308028	416.011
0.359366	418.233
0.45934	418.002
0.710626	426.786
0.759262	429.015
0.834918	438.205
0.861938	438.142
0.886256	447.451
0.910574	454.418
0.937594	470.743
0.961912	489.416
0.988932	533.835
0.994336	550.211
0.99974	587.657
