Adsorption isotherm of Nitrogen on MOF/BFG
DOI: 10.1021/Ja105089w
Adsorbate Nitrogen: InChIKey IJGRMHOSHXDMSA-UHFFFAOYSA-N
Temperature: 77 K
Tabular data in the source: 0
pressure (bar)	uptake (cm3(STP)/g)
-0.00036	207.688
0.00182509	115.268
0.00400996	8.42726
0.00619484	223.419
0.0564469	237.839
0.132918	243.738
0.253086	247.016
0.447539	248.982
0.696615	249.637
0.923842	254.226
0.987203	262.091
