Adsorption isotherm of Nitrogen on IRMOF-1
DOI: 10.1021/Ja105089w
Adsorbate Nitrogen: InChIKey IJGRMHOSHXDMSA-UHFFFAOYSA-N
Temperature: 77 K
Tabular data in the source: 0
pressure (bar)	uptake (cm3(STP)/g)
0.00182509	2.5281
0.00182509	188.024
0.00400996	107.402
0.0127495	204.41
0.0542621	214.898
0.137287	223.419
0.200649	224.73
0.497791	227.352
0.814598	235.217
0.919472	238.494
0.995943	247.016
