Adsorption isotherm of 1-Propanol on Co3(HCOO)6
DOI: 10.1002/adfm.200800058
Adsorbate 1-Propanol: InChIKey BDERNNFJNOPAEC-UHFFFAOYSA-N
Temperature: 373 K
Tabular data in the source: 0
pressure (bar)	uptake (mmol/g)
0.000468581	0.0811416
0.000736341	0.118572
0.00123839	0.180933
0.00150615	0.218363
0.00177391	0.262048
0.00207514	0.305721
0.0023429	0.343151
0.00257719	0.380594
0.00284495	0.424279
0.00317965	0.474194
0.00344742	0.511624
0.00371518	0.549054
0.00394947	0.586497
0.00431764	0.642655
0.00455193	0.680098
0.00481969	0.723783
0.00508745	0.761213
0.00538868	0.811142
0.00562297	0.848585
0.00589073	0.886014
0.00615849	0.9297
0.00649319	0.973359
0.00676095	1.01079
0.00702871	1.04822
0.00729647	1.07939
0.00753076	1.11058
0.00779852	1.14175
0.00809975	1.17917
0.00836751	1.21035
0.0086018	1.23528
0.00890303	1.26644
0.00920426	1.29134
0.00950549	1.3225
0.00963937	1.33496
0.00994061	1.35987
0.0102418	1.38477
0.0106769	1.42214
0.0109782	1.44079
0.0113129	1.46568
0.011748	1.49679
0.0120492	1.51544
0.0123839	1.53407
0.0127521	1.56521
0.0130533	1.58386
0.013388	1.6025
0.0137897	1.62736
0.0140909	1.63975
0.0143921	1.65215
0.0148272	1.677
0.0151619	1.68313
