Adsorption isotherm of Benzene on Co3(HCOO)6
DOI: 10.1002/adfm.200800058
Adsorbate Benzene: InChIKey UHOVQNZJYSORNB-UHFFFAOYSA-N
Temperature: 383 K
Tabular data in the source: 0
pressure (bar)	uptake (mmol/g)
0.00704988	0.0294303
0.0118256	0.0588606
0.014782	0.0824049
0.0168288	0.100063
0.0191029	0.117721
0.0209222	0.135379
0.022969	0.16481
0.0247883	0.19424
0.0266076	0.235443
0.0279721	0.276645
0.0293366	0.323733
0.0304737	0.376708
0.0313833	0.429683
0.0320656	0.482657
0.0327478	0.541518
0.0334301	0.594492
0.0341123	0.653353
0.0345672	0.712214
0.0352494	0.788732
0.0357042	0.847593
0.0361591	0.906454
0.0366139	0.959428
0.0372962	1.01829
0.037751	1.07715
0.0382058	1.13601
0.0386606	1.18898
0.0393429	1.24785
0.0397977	1.30671
0.04048	1.35968
0.0411622	1.41854
0.0420719	1.47152
0.0429815	1.52449
0.0441186	1.57746
0.0452557	1.62455
0.0468476	1.66576
0.0486669	1.70696
0.0504863	1.7305
0.0523056	1.76582
0.0543523	1.78348
0.0563991	1.79525
0.0584458	1.81291
0.06072	1.83057
0.0625393	1.85411
0.064586	1.85411
0.0668602	1.87177
0.0691343	1.87765
0.0711811	1.88943
0.0734552	1.9012
0.075502	1.91297
0.0777761	1.91886
0.0800503	1.93063
0.082097	1.93651
0.0839163	1.94829
0.0861905	1.94829
0.0882372	1.96006
0.0905114	1.96595
0.0927855	1.97183
0.0948323	1.97772
0.0971064	1.9836
0.0993806	1.98949
