Adsorption isotherm of Toluene on Co3(HCOO)6
DOI: 10.1002/adfm.200800058
Adsorbate Toluene: InChIKey YXFVVABEGXRONW-UHFFFAOYSA-N
Temperature: 348 K
Tabular data in the source: 0
pressure (bar)	uptake (mmol/g)
0.000800103	0.0394982
0.00147655	0.0571055
0.00209156	0.0747028
0.00270642	0.087926
0.00338272	0.101159
0.00393613	0.114372
0.00455084	0.123221
0.0051041	0.13206
0.00614903	0.145354
0.00670229	0.154193
0.007317	0.163042
0.0079317	0.171891
0.00891534	0.189549
0.00952989	0.194024
0.0100832	0.202863
0.0106979	0.211712
0.0116815	0.22937
0.0122964	0.242593
0.0128498	0.255806
0.0134645	0.264655
0.0144483	0.286687
0.0150631	0.29991
0.0156166	0.313123
0.0161698	0.321962
0.0172151	0.344004
0.0177685	0.357217
0.0183833	0.37044
0.0189369	0.388027
0.0199821	0.410069
0.0205356	0.423282
0.0211504	0.436506
0.021704	0.454093
0.0227494	0.480509
0.0233028	0.493722
0.0239177	0.506945
0.0244712	0.524532
0.0255168	0.555323
0.0260702	0.568536
0.0266852	0.586133
