Adsorption isotherm of Ethanol on Co3(HCOO)6
DOI: 10.1002/adfm.200800058
Adsorbate Ethanol: InChIKey LFQSCWFLJHTTHZ-UHFFFAOYSA-N
Temperature: 343 K
Tabular data in the source: 0
pressure (bar)	uptake (mmol/g)
0.000769168	0.140983
0.00153834	0.234971
0.00192292	0.308819
0.00256389	0.409521
0.00294848	0.476656
0.00333306	0.537077
0.00371764	0.604211
0.00423042	0.664633
0.0047432	0.731767
0.00512778	0.792188
0.00551237	0.852609
0.00589695	0.919744
0.00666612	1.02045
0.0071789	1.08087
0.00769168	1.14129
0.00820445	1.20842
0.00871723	1.26884
0.00923001	1.32927
0.00974279	1.38969
0.0102556	1.45011
0.0112811	1.55081
0.0119221	1.65151
0.0137168	1.68508
0.0152552	1.75221
0.0164089	1.78578
0.0176909	1.82606
0.0188446	1.83949
0.0199984	1.86634
0.0212803	1.88648
0.0224341	1.89991
0.0232032	1.92005
0.024357	1.92676
0.0256389	1.94019
0.0269209	1.95362
0.0280746	1.96033
0.0291002	1.96704
0.0303821	1.97376
0.0315359	1.98718
0.0328178	1.9939
0.0340998	2.00732
0.0346125	2.01404
0.0358945	2.02746
0.0371764	2.02746
0.0383302	2.04089
0.0399967	2.04761
0.0412787	2.05432
0.0425606	2.05432
0.0438425	2.05432
0.0449963	2.06103
0.0456373	2.06103
0.0469192	2.06103
0.0482012	2.06103
0.0494831	2.06775
0.0508933	2.07446
0.0521752	2.07446
0.0534571	2.08789
0.0542263	2.0946
