Adsorption isotherm of Hydrogen on Co3(HCOO)6
DOI: 10.1002/adfm.200800058
Adsorbate Hydrogen: InChIKey UFHFLCQGNIYNRP-UHFFFAOYSA-N
Temperature: 298 K
Tabular data in the source: 0
pressure (bar)	uptake (wt%)
2.19608	0.00840959
3.76471	0.0140196
5.17647	0.0196242
6.7451	0.0252342
8.15686	0.0308388
9.72549	0.0364488
11.1373	0.0448312
12.549	0.047658
14.1176	0.053268
15.5294	0.0616503
16.7843	0.0644717
18.3529	0.0700817
19.7647	0.0784641
21.1765	0.0812908
22.5882	0.0868954
24.1569	0.0925054
25.7255	0.0953377
27.1373	0.100942
28.7059	0.106552
30.1176	0.109379
31.6863	0.114989
33.2549	0.120599
34.6667	0.126204
36.2353	0.129036
37.8039	0.134646
39.2157	0.143028
40.6275	0.145855
42.1961	0.151465
43.6078	0.15707
45.1765	0.159902
46.5882	0.165507
48.1569	0.171117
49.5686	0.176721
51.1373	0.182331
52.7059	0.185163
54.1176	0.190768
55.6863	0.1936
57.2549	0.19921
58.6667	0.204815
60.2353	0.210425
61.6471	0.216029
63.0588	0.216078
64.4706	0.221683
66.0392	0.224515
67.6078	0.230125
69.0196	0.23573
70.5882	0.238562
