Adsorption isotherm of 1-Propanol on Co3(HCOO)6
DOI: 10.1002/adfm.200800058
Adsorbate 1-Propanol: InChIKey BDERNNFJNOPAEC-UHFFFAOYSA-N
Temperature: 323 K
Tabular data in the source: 0
pressure (bar)	uptake (mmol/g)
0.000334701	0.106217
0.000736341	0.181129
0.0010041	0.249838
0.00137227	0.374809
0.00160656	0.449786
0.00174044	0.506036
0.00190779	0.562272
0.00214208	0.662273
0.00227596	0.718522
0.00240984	0.774772
0.00277801	0.987324
0.00287842	1.04359
0.0030123	1.10609
0.00321312	1.21862
0.00331354	1.27488
0.00341395	1.3374
0.00351436	1.39366
0.00364824	1.45617
0.00374865	1.51243
0.00384906	1.57495
0.00394947	1.63121
0.00404988	1.69373
0.00418376	1.74998
0.00431764	1.85002
0.00441805	1.86249
0.00455193	1.91874
0.00468581	1.97499
0.00485316	2.03122
0.00502051	2.08746
0.00522133	2.13743
0.00538868	2.23745
0.00635931	2.24959
0.00662707	2.25574
0.00696177	2.25561
0.00729647	2.26173
0.0075977	2.26787
0.00769811	2.26783
0.00803281	2.2677
0.00836751	2.27382
0.00880262	2.27365
0.00913732	2.27352
0.00947202	2.27965
0.00987366	2.27949
0.0102084	2.28562
0.0105431	2.28549
0.0109447	2.28533
0.0112794	2.29145
0.0116141	2.29132
0.0119823	2.29118
0.012317	2.2973
0.0126517	2.29717
0.0130533	2.29702
0.013388	2.29688
0.0137227	2.30301
0.0140909	2.29661
0.0144256	2.30273
0.0147603	2.3026
0.0151619	2.30245
0.0154966	2.30232
0.0157979	2.30845
