Adsorption isotherm of Benzene on Co3(HCOO)6
DOI: 10.1002/adfm.200800058
Adsorbate Benzene: InChIKey UHOVQNZJYSORNB-UHFFFAOYSA-N
Temperature: 408 K
Tabular data in the source: 0
pressure (bar)	uptake (mmol/g)
0.00977887	0.00588606
0.0152368	0.0235443
0.0197852	0.0294303
0.0311559	0.0412024
0.041617	0.0706328
0.0461654	0.0824049
0.0523056	0.111835
0.0575361	0.123607
0.0625393	0.141266
0.067315	0.16481
0.072773	0.19424
0.0784584	0.235443
0.0827793	0.264873
0.0855082	0.311961
0.0889195	0.38848
0.093013	0.435569
0.0946049	0.541518
0.0957419	0.618037
0.0973339	0.735758
0.0984709	0.829935
0.0989258	0.894682
