Adsorption isotherm of N-propane on Co3(HCOO)6
DOI: 10.1002/adfm.200800058
Adsorbate N-propane: InChIKey ATUOYWHBWRKTHZ-UHFFFAOYSA-N
Temperature: 333 K
Tabular data in the source: 0
pressure (bar)	uptake (mmol/g)
0.0145236	0.529816
0.0163391	0.586784
0.0181545	0.643752
0.0217854	0.700707
0.0236009	0.757675
0.0254163	0.814643
0.0272318	0.871611
0.0308627	0.922868
0.0417554	1.12223
0.0453863	1.17918
0.0508327	1.23043
0.0544636	1.28738
0.05991	1.34433
0.0671718	1.39556
0.0726181	1.4468
0.0816954	1.49803
0.0889572	1.54926
0.0980345	1.60048
0.108927	1.64599
0.11982	1.6915
0.132528	1.737
0.163391	1.85076
0.190623	1.87337
0.217854	1.91307
0.236009	1.93004
0.252348	1.95273
0.270503	1.964
0.297734	1.98661
0.314073	1.9979
0.332228	2.00917
0.350383	2.02045
0.366722	2.02604
0.384876	2.03731
0.403031	2.04289
0.423001	2.04845
0.441155	2.05403
0.45931	2.05961
0.475649	2.06519
0.493803	2.06507
0.511958	2.07065
0.530112	2.07053
0.548267	2.07611
0.566422	2.07598
0.584576	2.08156
0.602731	2.08144
0.620885	2.08702
0.63904	2.08689
0.657194	2.08677
0.673533	2.08666
0.691688	2.09224
0.709842	2.09212
0.727997	2.092
0.744336	2.09189
0.76249	2.09177
0.780645	2.09165
0.796984	2.09154
0.815139	2.09142
0.833293	2.0913
0.847817	2.0912
