Adsorption isotherm of Ethylbenzene on Co3(HCOO)6
DOI: 10.1002/adfm.200800058
Adsorbate Ethylbenzene: InChIKey YNQLUTRBYVCPMQ-UHFFFAOYSA-N
Temperature: 313 K
Tabular data in the source: 0
pressure (bar)	uptake (mmol/g)
0.000417564	0.122286
0.000521956	0.152031
0.000626347	0.178471
0.000751616	0.208216
0.000856007	0.234656
0.000960398	0.264401
0.00106479	0.290842
0.00119006	0.320587
0.00129445	0.347027
0.00139884	0.380077
0.00148235	0.409822
0.00158674	0.439567
0.00167026	0.469312
0.00175377	0.499058
0.00185816	0.528803
0.00194167	0.558548
0.00202519	0.588293
0.0021087	0.618038
0.00219221	0.647783
0.00238012	0.707274
0.00248451	0.737019
0.00256802	0.766764
0.00267241	0.793204
0.0027768	0.822949
0.00290207	0.84939
0.00300646	0.879135
0.00313173	0.905575
0.003257	0.93532
0.00340315	0.94854
0.00357018	0.971675
0.00375808	0.9882
0.00392511	1.00473
0.00411301	1.01795
0.00425916	1.02786
0.00444706	1.03778
0.00465584	1.04769
0.00484375	1.05761
0.00505253	1.06422
0.0051778	1.07413
0.00538658	1.08074
0.00557449	1.08735
0.00578327	1.09396
0.00597117	1.09396
0.0061382	1.10388
0.00634698	1.10718
0.00653488	1.11379
0.00674367	1.1171
0.00693157	1.12371
0.0069942	1.12371
0.00720299	1.12701
0.00739089	1.13032
0.0075788	1.13693
0.00778758	1.13693
