Adsorption isotherm of Ethanol on Co3(HCOO)6
DOI: 10.1002/adfm.200800058
Adsorbate Ethanol: InChIKey LFQSCWFLJHTTHZ-UHFFFAOYSA-N
Temperature: 373 K
Tabular data in the source: 0
pressure (bar)	uptake (mmol/g)
0.00294848	0.181263
0.00384584	0.228258
0.00461501	0.275252
0.00551237	0.32896
0.00666612	0.389381
0.00756348	0.436375
0.00846084	0.483369
0.0093582	0.52365
0.0103838	0.570644
0.0112811	0.610925
0.0119221	0.637779
0.0129477	0.678059
0.013845	0.71834
0.0148706	0.758621
0.0158961	0.798902
0.0169217	0.839182
0.0179472	0.859323
0.0188446	0.906317
0.0198702	0.939884
0.0208957	0.973452
0.0220495	1.00702
0.023075	1.06073
0.0239724	1.07415
0.0252543	1.10101
0.0264081	1.13457
0.0274336	1.16143
0.0285874	1.21514
0.0296129	1.22185
0.0307667	1.2487
0.0319205	1.27556
0.0330742	1.30241
0.0343561	1.35612
0.0353817	1.35612
0.0366637	1.38297
0.0378174	1.40311
0.0389712	1.42997
0.0398685	1.45682
0.0411505	1.47025
0.0423042	1.49039
0.043458	1.51724
0.0443553	1.53738
0.0453809	1.55752
0.0469192	1.57766
0.0482012	1.5978
0.0493549	1.61123
0.0511496	1.63137
0.0521752	1.65151
0.0534571	1.67836
0.0542263	1.67165
