Adsorption isotherm of Toluene on Co3(HCOO)6
DOI: 10.1002/adfm.200800058
Adsorbate Toluene: InChIKey YXFVVABEGXRONW-UHFFFAOYSA-N
Temperature: 323 K
Tabular data in the source: 0
pressure (bar)	uptake (mmol/g)
0.000370957	0.0656724
0.000618107	0.10508
0.000865256	0.144487
0.000865875	0.161984
0.00111241	0.183895
0.001421	0.223312
0.00166814	0.26272
0.00197673	0.302137
0.00228532	0.341555
0.00259376	0.376598
0.00290235	0.416016
0.00308775	0.446665
0.00345731	0.47297
0.00382718	0.508024
0.00419706	0.543077
0.00456693	0.578131
0.00499824	0.613194
0.00536812	0.648248
0.00610786	0.718355
0.00647774	0.753408
0.00684761	0.788461
0.00721749	0.823515
0.00758736	0.858568
0.00795723	0.893622
0.00832711	0.928675
0.00869729	0.972477
0.00918942	0.990054
0.00968186	1.01638
0.0101743	1.04271
0.0106666	1.06466
0.0111589	1.08661
0.0117125	1.10419
0.0122659	1.11741
0.0128194	1.135
0.013373	1.15258
0.0139266	1.17017
0.0141725	1.17458
0.0144184	1.179
0.0150333	1.19222
0.0155867	1.20543
0.0162014	1.21428
0.016755	1.23187
0.0173081	1.23634
0.0179228	1.24518
0.0184762	1.2584
0.0190907	1.26287
0.0198899	1.27613
0.0205046	1.28498
0.0210577	1.28944
0.0216724	1.29829
0.0223487	1.31152
0.0229631	1.31162
0.0235778	1.32047
0.0241309	1.32494
0.0247456	1.33379
0.0251146	1.34259
0.0252989	1.34263
0.0254216	1.33827
0.0260362	1.34275
0.0266505	1.34285
0.0268961	1.33851
