Adsorption isotherm of Toluene on Co3(HCOO)6
DOI: 10.1002/adfm.200800058
Adsorbate Toluene: InChIKey YXFVVABEGXRONW-UHFFFAOYSA-N
Temperature: 313 K
Tabular data in the source: 0
pressure (bar)	uptake (mmol/g)
0.000932112	0.297592
0.00111798	0.341363
0.00124225	0.380751
0.00142811	0.424522
0.00161398	0.468294
0.00179969	0.507691
0.00198556	0.551462
0.00217127	0.59086
0.00235713	0.634631
0.00254284	0.674029
0.00278999	0.713436
0.00297586	0.757208
0.00316157	0.796605
0.00340872	0.836012
0.00371731	0.87543
0.00396446	0.914837
0.00421161	0.954245
0.00452019	0.993662
0.00482878	1.03308
0.00513722	1.06812
0.00550709	1.10318
0.00587805	1.16885
0.00710823	1.20842
0.00760051	1.23037
0.00815424	1.25233
0.00870781	1.26992
0.00926123	1.28313
0.00987609	1.29635
0.0104295	1.30957
0.0109829	1.32278
0.0115363	1.33599
0.0120896	1.34483
0.0127043	1.35368
0.0132576	1.36252
0.0138723	1.37137
0.0144255	1.38021
0.0150402	1.38906
0.0155935	1.3979
0.016208	1.40237
0.0167615	1.41558
0.017376	1.42006
0.0179291	1.42452
0.0185438	1.43337
0.0191584	1.43785
0.0197116	1.44669
0.0202647	1.45115
0.0208793	1.45563
0.021494	1.46448
0.0220471	1.46894
0.0226004	1.47778
0.0232147	1.47788
0.0237679	1.48235
0.0243824	1.48682
0.0249969	1.49129
0.0255501	1.49576
0.0261032	1.50022
0.0267177	1.5047
