Adsorption isotherm of 1-Propanol on Co3(HCOO)6
DOI: 10.1002/adfm.200800058
Adsorbate 1-Propanol: InChIKey BDERNNFJNOPAEC-UHFFFAOYSA-N
Temperature: 363 K
Tabular data in the source: 0
pressure (bar)	uptake (mmol/g)
0.000401641	0.0749121
0.000870221	0.137286
0.00120492	0.205969
0.00143921	0.255923
0.00164003	0.299635
0.00187432	0.34959
0.00217555	0.412029
0.00237637	0.461997
0.00257719	0.511965
0.00281148	0.561919
0.0030123	0.605631
0.00321312	0.643087
0.00338048	0.699323
0.00354783	0.749304
0.00374865	0.799271
0.00394947	0.855495
0.00415029	0.905462
0.00428417	0.955456
0.00441805	0.980427
0.00461887	1.03039
0.00481969	1.08036
0.00502051	1.13033
0.00522133	1.1803
0.00538868	1.23028
0.00562297	1.26772
0.00585726	1.31767
0.00609155	1.36137
0.00632584	1.40507
0.0065936	1.44876
0.00682789	1.49246
0.00709565	1.52989
0.00736341	1.56732
0.00756423	1.60477
0.00769811	1.60472
0.00796587	1.63589
0.0082671	1.66706
0.00853486	1.69823
0.00886956	1.70435
0.00917079	1.72926
0.00950549	1.7479
0.00984019	1.77279
0.0101749	1.78517
0.0104761	1.80382
0.0107774	1.82247
0.0110786	1.83486
0.0114133	1.84724
0.0117145	1.86589
0.0120492	1.87202
0.0123504	1.88441
0.0126851	1.89053
0.0129864	1.90293
0.0133211	1.90905
0.0136558	1.92143
0.013957	1.92757
0.0142917	1.9337
0.0146264	1.94608
0.0149276	1.95222
0.0152623	1.95834
0.0155636	1.97073
0.0158983	1.97686
