Adsorption isotherm of Benzene on Co3(HCOO)6
DOI: 10.1002/adfm.200800058
Adsorbate Benzene: InChIKey UHOVQNZJYSORNB-UHFFFAOYSA-N
Temperature: 403 K
Tabular data in the source: 0
pressure (bar)	uptake (mmol/g)
0.0159191	0.0235443
0.0238786	0.0470885
0.0270625	0.0529746
0.0293366	0.0647467
0.0318382	0.0706328
0.0338849	0.0824049
0.0361591	0.0824049
0.0384332	0.094177
0.04048	0.105949
0.0420719	0.105949
0.044346	0.117721
0.0463928	0.129493
0.0486669	0.135379
0.0507137	0.147152
0.0529878	0.153038
0.0550346	0.16481
0.0570813	0.182468
0.0589006	0.200126
0.0611748	0.211898
0.0632215	0.22367
0.0652683	0.247215
0.067315	0.276645
0.0730004	0.32962
0.0734552	0.435569
0.075502	0.541518
0.0764116	0.594492
0.0773213	0.647467
0.0780035	0.706328
0.0789132	0.759302
0.0795954	0.818163
0.0802777	0.871137
0.082097	0.982973
0.0832341	1.07715
0.0845986	1.11835
0.0857357	1.16544
0.0868727	1.21842
0.0880098	1.27139
0.0891469	1.31848
0.0905114	1.36557
0.0918759	1.41266
0.093013	1.46563
0.0948323	1.49506
0.0966516	1.53038
0.0986984	1.55981
