Adsorption isotherm of Benzene on Co3(HCOO)6
DOI: 10.1002/adfm.200800058
Adsorbate Benzene: InChIKey UHOVQNZJYSORNB-UHFFFAOYSA-N
Temperature: 373 K
Tabular data in the source: 0
pressure (bar)	uptake (mmol/g)
0.00181932	0.0235443
0.00386606	0.0470885
0.0059128	0.0706328
0.00795954	0.094177
0.0100063	0.129493
0.0115982	0.16481
0.0127353	0.217784
0.0140998	0.264873
0.014782	0.317847
0.0156917	0.376708
0.0163739	0.429683
0.0170562	0.488543
0.017511	0.541518
0.0179658	0.600378
0.0184207	0.659239
0.0188755	0.7181
0.02024	0.882909
0.0206948	0.94177
0.0211496	1.00063
0.0216045	1.05361
0.0222867	1.15367
0.0227416	1.21253
0.0231964	1.27139
0.0238786	1.32436
0.0243335	1.38322
0.0250157	1.44209
0.025698	1.49506
0.0263802	1.55392
0.0272899	1.6069
0.0284269	1.65398
0.029564	1.70696
0.0311559	1.74816
0.0327478	1.78936
0.0345672	1.81879
0.0366139	1.84822
0.0382058	1.86588
0.0402526	1.88943
0.0425267	1.9012
0.0445734	1.91886
0.0468476	1.93063
0.0493492	1.94829
0.0516233	1.95417
0.0536701	1.96595
0.0559442	1.97183
0.0582184	1.97772
0.0602651	1.9836
0.0625393	1.98949
0.064586	1.99538
0.0668602	2.00715
0.0691343	2.01303
0.0709537	2.01892
0.0732278	2.01892
0.075502	2.02481
0.0775487	2.03658
0.0798229	2.03658
0.082097	2.04246
0.0843712	2.04246
0.0866453	2.04835
0.0889195	2.05424
0.0911936	2.05424
0.0927855	2.05424
0.0950597	2.05424
0.0973339	2.05424
