Adsorption isotherm of Ethanol on Co3(HCOO)6
DOI: 10.1002/adfm.200800058
Adsorbate Ethanol: InChIKey LFQSCWFLJHTTHZ-UHFFFAOYSA-N
Temperature: 413 K
Tabular data in the source: 0
pressure (bar)	uptake (mmol/g)
0.00166653	0.0268538
0.00423042	0.0537077
0.00615334	0.0671346
0.00679431	0.0671346
0.00794806	0.087275
0.0102556	0.100702
0.0124349	0.114129
0.0137168	0.120842
0.0148706	0.134269
0.0161525	0.140983
0.017819	0.15441
0.019101	0.161123
0.0202547	0.17455
0.0215367	0.181263
0.0228186	0.19469
0.0239724	0.201404
0.0252543	0.208117
0.0264081	0.221544
0.02769	0.228258
0.0288438	0.241685
0.0299975	0.248398
0.0311513	0.261825
0.0324332	0.261825
0.0346125	0.281965
0.0358945	0.288679
0.0370482	0.302106
0.0383302	0.308819
0.0396121	0.315533
0.0399967	0.322246
0.0412787	0.32896
0.0424324	0.342386
0.0437144	0.355813
0.0449963	0.362527
0.0458937	0.36924
0.0471756	0.382667
0.0484576	0.382667
0.0496113	0.396094
0.0508933	0.409521
0.052047	0.416235
0.0533289	0.422948
