Adsorption isotherm of N-propane on Co3(HCOO)6
DOI: 10.1002/adfm.200800058
Adsorbate N-propane: InChIKey ATUOYWHBWRKTHZ-UHFFFAOYSA-N
Temperature: 373 K
Tabular data in the source: 0
pressure (bar)	uptake (mmol/g)
0.0108927	0.0569072
0.01997	0.108128
0.0290473	0.15935
0.0435709	0.239025
0.0526482	0.290246
0.0617254	0.335769
0.0726181	0.386978
0.0816954	0.432502
0.0907727	0.483723
0.101665	0.529234
0.110743	0.574757
0.121635	0.625967
0.130713	0.67149
0.141605	0.722699
0.152498	0.76821
0.163391	0.813721
0.174284	0.859233
0.185176	0.904744
0.197884	0.944545
0.208777	0.990056
0.221485	1.03556
0.234194	1.08675
0.246902	1.12086
0.25961	1.16066
0.272318	1.20046
0.286842	1.24025
0.29955	1.27435
0.314073	1.30844
0.330413	1.35392
0.344936	1.37661
0.35946	1.405
0.375799	1.43338
0.392138	1.46176
0.408477	1.48445
0.424816	1.50713
0.441155	1.52981
0.457494	1.5525
0.475649	1.56947
0.491988	1.59215
0.510142	1.60912
0.526482	1.62611
0.542821	1.64879
0.560975	1.66576
0.577314	1.67705
0.595469	1.69402
0.611808	1.71101
0.629962	1.71659
0.648117	1.72786
0.664456	1.73915
0.682611	1.74472
0.69895	1.75601
0.717104	1.76159
0.735259	1.76716
0.751598	1.77845
0.769752	1.78403
0.787907	1.78961
0.806061	1.79518
0.8224	1.80077
0.840555	1.81205
0.856894	1.81194
