Adsorption isotherm of 1-Propanol on Co3(HCOO)6
DOI: 10.1002/adfm.200800058
Adsorbate 1-Propanol: InChIKey BDERNNFJNOPAEC-UHFFFAOYSA-N
Temperature: 413 K
Tabular data in the source: 0
pressure (bar)	uptake (mmol/g)
0.000769811	0.0434893
0.00147268	0.0619817
0.00214208	0.0742315
0.00244331	0.0803695
0.00277801	0.0864944
0.00324659	0.0925669
0.0035813	0.104948
0.003916	0.104817
0.00431764	0.117171
0.00465234	0.11704
0.00498704	0.123165
0.00542215	0.135507
0.00575685	0.141631
0.00605808	0.141514
0.00649319	0.153855
0.00682789	0.153724
0.00716259	0.159849
0.00756423	0.165948
0.00789893	0.172073
0.00823363	0.178198
0.00853486	0.190591
0.0086018	0.184309
0.0089365	0.190434
0.00923773	0.196572
0.00967284	0.202658
0.0100075	0.202527
0.0103422	0.208652
0.01061	0.221059
0.0107104	0.221019
0.0110451	0.220889
0.0113798	0.227013
0.0116476	0.23942
0.0119823	0.239289
0.012317	0.245414
0.012819	0.251474
0.0131537	0.263854
0.0134884	0.263723
0.0138566	0.276091
0.0141913	0.27596
0.014526	0.282085
0.0148607	0.28821
0.0151954	0.300591
