Adsorption isotherm of Hydrogen on Co3(HCOO)6
DOI: 10.1002/adfm.200800058
Adsorbate Hydrogen: InChIKey UFHFLCQGNIYNRP-UHFFFAOYSA-N
Temperature: 77 K
Tabular data in the source: 0
pressure (bar)	uptake (cm3(STP)/g)
0.00110136	50
0.00144077	65.4088
0.00345647	56.9182
0.0059224	68.8679
0.0169775	70.7547
0.0346062	71.0692
0.0566542	72.0126
0.105121	72.327
0.151385	72.6415
0.204257	72.956
0.307792	73.2704
0.402529	74.2138
0.510462	74.2138
0.613997	74.5283
0.713126	74.8428
0.814472	75.7862
0.915811	76.4151
0.966515	78.3019
0.986436	82.7044
1.00639	88.3648
1.01313	94.3396
