Adsorption isotherm of P-Xylene on Co3(HCOO)6
DOI: 10.1002/adfm.200800058
Adsorbate P-Xylene: InChIKey URLKBWYHVLBVBO-UHFFFAOYSA-N
Temperature: 308 K
Tabular data in the source: 0
pressure (bar)	uptake (mmol/g)
0.000156194	0.0804664
0.000273339	0.104133
0.000390484	0.13135
0.000507629	0.143183
0.00060525	0.153833
0.000702871	0.163299
0.000820016	0.172766
0.000956686	0.182233
0.00109335	0.190516
0.00124955	0.198799
0.00152289	0.209449
0.00167908	0.216549
0.0018548	0.221283
0.00206956	0.229566
0.00224528	0.234299
0.002421	0.239032
0.00263577	0.244949
0.00281148	0.249682
0.0029872	0.254416
0.00318244	0.259149
0.00335816	0.263882
0.0035534	0.267432
0.00372912	0.272166
0.00390484	0.275716
0.00410008	0.280449
0.0042758	0.283999
0.00445152	0.288732
0.00464676	0.292282
0.00482248	0.295832
0.00499819	0.299382
0.00519344	0.304116
0.00536915	0.307666
0.00554487	0.311216
0.00574011	0.314766
0.00591583	0.318316
0.00609155	0.323049
0.00626727	0.326599
0.00648203	0.331332
0.00665775	0.334882
0.00685299	0.338432
0.00702871	0.341982
0.00720443	0.345532
0.00739967	0.349082
0.00757539	0.352632
0.00777063	0.356182
0.00794635	0.359732
0.00804397	0.362099
