Adsorption isotherm of 1-Propanol on Co3(HCOO)6
DOI: 10.1002/adfm.200800058
Adsorbate 1-Propanol: InChIKey BDERNNFJNOPAEC-UHFFFAOYSA-N
Temperature: 393 K
Tabular data in the source: 0
pressure (bar)	uptake (mmol/g)
0.00127186	0.0745718
0.00160656	0.0932082
0.00190779	0.111858
0.00220902	0.130507
0.00251025	0.142901
0.00284495	0.161537
0.00317965	0.173918
0.00348089	0.192567
0.00381559	0.204948
0.00411682	0.223598
0.00445152	0.235978
0.00475275	0.248372
0.00508745	0.260753
0.00538868	0.279402
0.00572338	0.291783
0.00602461	0.304176
0.00635931	0.322813
0.00666054	0.335207
0.00699524	0.353843
0.00732994	0.366224
0.00763117	0.378617
0.00796587	0.397254
0.0082671	0.409648
0.0086018	0.422028
0.00890303	0.440678
0.00920426	0.453071
0.00953896	0.465452
0.00984019	0.484102
0.0101749	0.496482
0.0105096	0.515119
0.0108108	0.533768
0.0111455	0.546149
0.0114468	0.564798
0.0117815	0.583435
0.0120827	0.602084
0.0124174	0.614465
0.0127186	0.633114
0.0130533	0.651751
0.0133546	0.664144
0.0136893	0.682781
0.0139905	0.70143
0.0143252	0.713811
0.0146264	0.73246
0.0149611	0.751097
0.0152623	0.776002
0.015597	0.794638
