Adsorption isotherm of Toluene on Co3(HCOO)6
DOI: 10.1002/adfm.200800058
Adsorbate Toluene: InChIKey YXFVVABEGXRONW-UHFFFAOYSA-N
Temperature: 303 K
Tabular data in the source: 0
pressure (bar)	uptake (mmol/g)
0.00087253	0.350071
0.000996956	0.393833
0.00112123	0.43322
0.00130709	0.476991
0.00143152	0.520753
0.00155594	0.564514
0.00174166	0.603912
0.00186608	0.647673
0.00205195	0.691445
0.00223766	0.730842
0.00242352	0.774613
0.00260923	0.814011
0.0027951	0.857782
0.00298096	0.901554
0.00329033	0.962842
0.00353748	1.00225
0.00372334	1.04602
0.00397049	1.08543
0.00421764	1.12484
0.00452623	1.16425
0.00477338	1.20366
0.00508181	1.2387
0.00545184	1.27813
0.00588424	1.34381
0.00723698	1.37465
0.00785184	1.38788
0.00840541	1.40547
0.0088358	1.41428
0.00938922	1.4275
0.0100041	1.44072
0.0105576	1.45831
0.0111725	1.47153
0.0116029	1.48035
0.0122176	1.4892
0.012771	1.50241
0.0133857	1.51126
0.013939	1.5201
0.0144306	1.52455
0.0150452	1.52903
0.0155984	1.53787
0.016213	1.54234
0.0171349	1.55124
0.0177494	1.55572
0.018364	1.56019
0.0189171	1.56466
0.0195316	1.56913
0.019839	1.57356
0.0204535	1.57803
0.0210681	1.58251
0.0216212	1.58697
0.022666	1.59589
0.0232805	1.60037
0.0238951	1.60484
0.0244482	1.60931
0.0250013	1.61377
0.0253699	1.61383
0.0259845	1.61831
0.0265989	1.61841
0.0270905	1.62286
