Adsorption isotherm of Ethanol on Co3(HCOO)6
DOI: 10.1002/adfm.200800058
Adsorbate Ethanol: InChIKey LFQSCWFLJHTTHZ-UHFFFAOYSA-N
Temperature: 333 K
Tabular data in the source: 0
pressure (bar)	uptake (mmol/g)
0.00282028	0.537077
0.00320486	0.604211
0.00358945	0.664633
0.00397403	0.731767
0.00435862	0.792188
0.0047432	0.859323
0.00512778	0.919744
0.00551237	0.986879
0.00589695	1.0473
0.00628153	1.11443
0.00679431	1.195
0.0071789	1.25542
0.00769168	1.32255
0.00807626	1.38297
0.00846084	1.45011
0.00897362	1.51053
0.0094864	1.57095
0.00999918	1.63137
0.010512	1.69851
0.0110247	1.75893
0.0116657	1.81263
0.0119221	1.92005
0.0153834	1.98718
0.0165371	2.00732
0.0179472	2.02746
0.019101	2.04761
0.0203829	2.05432
0.0215367	2.07446
0.0228186	2.08117
0.0234596	2.08789
0.0247416	2.0946
0.0260235	2.10131
0.0271773	2.10803
0.0291002	2.12145
0.0303821	2.12817
0.0316641	2.12817
0.0328178	2.14159
0.0347407	2.14831
0.0360227	2.14831
0.0373046	2.15502
0.0385866	2.15502
0.0401249	2.16173
0.0414069	2.16845
0.0426888	2.16845
0.0439707	2.16845
0.0457655	2.18187
0.0470474	2.18187
0.0483294	2.18187
0.0494831	2.18859
0.0507651	2.1953
0.0512778	2.1953
0.0525598	2.1953
0.0538417	2.20201
0.0544827	2.1953
