Adsorption isotherm of Ethanol on Co3(HCOO)6
DOI: 10.1002/adfm.200800058
Adsorbate Ethanol: InChIKey LFQSCWFLJHTTHZ-UHFFFAOYSA-N
Temperature: 393 K
Tabular data in the source: 0
pressure (bar)	uptake (mmol/g)
0.00628153	0.147696
0.00743529	0.161123
0.00858904	0.181263
0.00987098	0.208117
0.0110247	0.228258
0.0121785	0.241685
0.0133322	0.261825
0.014486	0.288679
0.0157679	0.302106
0.0169217	0.32896
0.0179472	0.3491
0.0192292	0.36924
0.0203829	0.389381
0.0215367	0.416235
0.0228186	0.436375
0.0232032	0.456515
0.024357	0.463229
0.0256389	0.483369
0.0267927	0.503509
0.0280746	0.530363
0.0288438	0.557217
0.0299975	0.563931
0.0311513	0.584071
0.0324332	0.604211
0.033587	0.631065
0.0340998	0.651206
0.0353817	0.657919
0.0365355	0.678059
0.0376892	0.704913
0.0389712	0.725054
0.0399967	0.745194
0.0412787	0.765334
0.0424324	0.785475
0.0435862	0.805615
0.0447399	0.832469
0.0460219	0.845896
0.0471756	0.87275
0.0484576	0.89289
0.0496113	0.913031
0.0507651	0.926457
0.0511496	0.946598
0.0523034	0.966738
0.0535853	0.980165
