Adsorption isotherm of Benzene on Co3(HCOO)6
DOI: 10.1002/adfm.200800058
Adsorbate Benzene: InChIKey UHOVQNZJYSORNB-UHFFFAOYSA-N
Temperature: 393 K
Tabular data in the source: 0
pressure (bar)	uptake (mmol/g)
0.0154643	0.0588606
0.0177384	0.0647467
0.0197852	0.0824049
0.0220593	0.0882909
0.024106	0.100063
0.0266076	0.117721
0.0288818	0.129493
0.0309285	0.141266
0.0332027	0.158924
0.0352494	0.176582
0.0372962	0.200126
0.0379784	0.211898
0.0397977	0.241329
0.041617	0.276645
0.043209	0.311961
0.0448009	0.353164
0.0461654	0.400252
0.0484395	0.435569
0.0493492	0.55329
0.0502588	0.606265
0.0509411	0.665125
0.0516233	0.7181
0.0523056	0.77696
0.0529878	0.829935
0.0536701	0.888796
0.0543523	0.9712
0.0550346	1.03006
0.0557168	1.08304
0.0563991	1.1419
0.0570813	1.19487
0.0577636	1.25373
0.0584458	1.30671
0.0593555	1.35968
0.0595829	1.48329
0.0629941	1.50683
0.064586	1.55392
0.0661779	1.58924
0.0679973	1.62455
0.070044	1.6481
0.0716359	1.66576
0.0734552	1.6893
0.075502	1.71284
0.0777761	1.7305
0.0798229	1.74816
0.0816422	1.75405
0.0825518	1.76582
0.0845986	1.77759
0.0868727	1.78936
0.0889195	1.80114
0.0911936	1.81291
0.0932404	1.82468
0.0955145	1.83645
0.0975613	1.84822
