Adsorption isotherm of P-Xylene on Co3(HCOO)6
DOI: 10.1002/adfm.200800058
Adsorbate P-Xylene: InChIKey URLKBWYHVLBVBO-UHFFFAOYSA-N
Temperature: 333 K
Tabular data in the source: 0
pressure (bar)	uptake (mmol/g)
0.000351436	0.0686331
0.000468581	0.0780997
0.00060525	0.086383
0.000741919	0.0946663
0.000917637	0.100583
0.00111288	0.107683
0.0012886	0.111233
0.00148384	0.115966
0.00165956	0.119516
0.0018548	0.123066
0.00203052	0.125433
0.00220623	0.128983
0.00240148	0.13135
0.00259672	0.1349
0.00277244	0.137266
0.00296768	0.139633
0.0031434	0.141999
0.00333864	0.144366
0.00351436	0.146733
0.0037096	0.149099
0.00390484	0.151466
0.00408056	0.152649
0.0042758	0.155016
0.00445152	0.157383
0.00462723	0.159749
0.00482248	0.162116
0.00501772	0.163299
0.00519344	0.165666
0.00527153	0.166849
0.00546677	0.168033
0.00564249	0.170399
0.00583773	0.172766
0.00601345	0.175133
0.00618917	0.176316
0.00638441	0.178683
0.00656013	0.181049
0.00675537	0.182233
0.00695061	0.184599
0.00712633	0.185783
0.00732157	0.188149
0.00749729	0.190516
0.00763396	0.186966
