Adsorption isotherm of Ethylbenzene on Co3(HCOO)6
DOI: 10.1002/adfm.200800058
Adsorbate Ethylbenzene: InChIKey YNQLUTRBYVCPMQ-UHFFFAOYSA-N
Temperature: 323 K
Tabular data in the source: 0
pressure (bar)	uptake (mmol/g)
0.000542834	0.0991505
0.000688981	0.122286
0.000814251	0.148726
0.000960398	0.175166
0.00108567	0.198301
0.00121094	0.224741
0.00133621	0.254486
0.0014406	0.271011
0.00156587	0.297452
0.00169114	0.323892
0.00181641	0.350332
0.00194167	0.376772
0.00206694	0.403212
0.00217134	0.429652
0.00231748	0.459397
0.002401	0.479228
0.00252627	0.505668
0.00265153	0.532108
0.0027768	0.558548
0.00290207	0.584988
0.00302734	0.611428
0.00315261	0.637868
0.003257	0.670919
0.00334052	0.674224
0.00348666	0.697359
0.00363281	0.720494
0.00377896	0.743629
0.00394598	0.763459
0.00417564	0.793204
0.00428004	0.803119
0.00444706	0.819644
0.00463497	0.836169
0.00482287	0.852695
0.00501077	0.865915
0.0051778	0.879135
0.0053657	0.88905
0.00557449	0.90227
0.00576239	0.912185
0.00599205	0.932015
0.00609644	0.932015
0.00630522	0.938625
0.00649313	0.94854
0.00670191	0.958455
0.00691069	0.96837
0.00701508	0.971675
0.00722387	0.978285
0.00741177	0.984895
0.00762055	0.991505
0.00791285	1.00142
0.00812163	1.00473
0.00830953	1.01134
0.00851832	1.01795
0.00868534	1.02456
