Adsorption isotherm of Ethylbenzene on Co3(HCOO)6
DOI: 10.1002/adfm.200800058
Adsorbate Ethylbenzene: InChIKey YNQLUTRBYVCPMQ-UHFFFAOYSA-N
Temperature: 333 K
Tabular data in the source: 0
pressure (bar)	uptake (mmol/g)
0.000563712	0.0826254
0.00070986	0.102456
0.000876885	0.125591
0.00102303	0.145421
0.00119006	0.168556
0.00133621	0.175166
0.00137796	0.191691
0.00152411	0.211521
0.00169114	0.231351
0.00185816	0.251181
0.00202519	0.271011
0.00219221	0.290842
0.00227573	0.290842
0.00233836	0.307367
0.00250539	0.327197
0.00267241	0.347027
0.00283944	0.363552
0.00302734	0.383382
0.00329876	0.409822
0.00346579	0.426347
0.00365369	0.446177
0.00382071	0.462702
0.00400862	0.479228
0.00417564	0.495753
0.00434267	0.512278
0.00453057	0.528803
0.00471848	0.545328
0.00490638	0.558548
0.00509429	0.591598
0.00519868	0.584988
0.00538658	0.601513
0.00557449	0.614733
0.00574151	0.631258
0.00592942	0.647783
0.00603381	0.667614
0.0061382	0.661004
0.0063261	0.674224
0.00651401	0.690749
0.00670191	0.703969
0.00691069	0.727104
0.0069942	0.723799
0.00718211	0.737019
0.00737001	0.750239
0.00755792	0.763459
0.0077667	0.776679
0.00787109	0.779984
0.00803812	0.796509
0.0082469	0.809729
0.0084348	0.819644
0.0087271	0.819644
