Adsorption isotherm of N-propane on Co3(HCOO)6
DOI: 10.1002/adfm.200800058
Adsorbate N-propane: InChIKey ATUOYWHBWRKTHZ-UHFFFAOYSA-N
Temperature: 363 K
Tabular data in the source: 0
pressure (bar)	uptake (mmol/g)
0.0108927	0.233545
0.0145236	0.159447
0.01997	0.21639
0.0236009	0.267648
0.0290473	0.324591
0.0344936	0.375837
0.0417554	0.432768
0.0472018	0.484014
0.0526482	0.540957
0.05991	0.592191
0.0671718	0.643424
0.0744336	0.694658
0.0816954	0.745891
0.0889572	0.797125
0.0980345	0.848346
0.107112	0.899567
0.116189	0.950788
0.125266	0.996312
0.136159	1.04182
0.163391	1.10432
0.181545	1.22386
0.194254	1.26935
0.206962	1.30916
0.21967	1.34326
0.234194	1.38305
0.246902	1.41715
0.261425	1.45124
0.275949	1.48533
0.288657	1.51374
0.294103	1.5194
0.308627	1.54779
0.324966	1.57617
0.341305	1.60455
0.357644	1.62724
0.373983	1.64992
0.390323	1.6726
0.413923	1.71803
0.435709	1.71788
0.452048	1.74057
0.468387	1.75755
0.486542	1.76883
0.502881	1.78581
0.521035	1.79709
0.544636	1.81972
0.562791	1.8253
0.57913	1.83658
0.597284	1.84786
0.613623	1.85914
0.631778	1.86472
0.649932	1.876
0.664456	1.8645
0.689872	1.89282
0.706211	1.89841
0.724366	1.90399
0.74252	1.90957
0.75886	1.92085
0.777014	1.92643
0.787907	1.91496
0.811508	1.9319
0.829662	1.93747
0.849632	1.92025
