Adsorption isotherm of Toluene on Co3(HCOO)6
DOI: 10.1002/adfm.200800058
Adsorbate Toluene: InChIKey YXFVVABEGXRONW-UHFFFAOYSA-N
Temperature: 363 K
Tabular data in the source: 0
pressure (bar)	uptake (mmol/g)
0.00135244	0.0220924
0.00202842	0.0265774
0.00258215	0.0485387
0.00319608	0.0355171
0.00381063	0.039992
0.00442517	0.0444669
0.00497828	0.0489318
0.00559283	0.0534067
0.00596162	0.0578413
0.00657616	0.0623162
0.00719071	0.0667911
0.00774382	0.0712559
0.00835837	0.0757308
0.00891147	0.0801957
0.00952602	0.0846706
0.0101406	0.0891455
0.0107551	0.0936204
0.0113084	0.102459
0.0118613	0.10255
0.0124759	0.107025
0.013029	0.11149
0.0136435	0.115965
0.0142581	0.12044
0.0148726	0.124915
0.0154257	0.129379
0.0160403	0.133854
0.0166548	0.138329
0.0172694	0.142804
0.0178225	0.147269
0.018437	0.151744
0.0190516	0.156219
0.0196661	0.160694
0.0202192	0.165159
0.0208338	0.169633
0.0214483	0.174108
0.0220629	0.178583
0.022616	0.183048
0.0232305	0.187523
0.0238451	0.191998
0.0243982	0.196463
0.0250127	0.200938
0.0256273	0.205413
0.0262418	0.209888
0.0267949	0.214352
