Adsorption isotherm of P-Xylene on Co3(HCOO)6
DOI: 10.1002/adfm.200800058
Adsorbate P-Xylene: InChIKey URLKBWYHVLBVBO-UHFFFAOYSA-N
Temperature: 413 K
Tabular data in the source: 0
pressure (bar)	uptake (mmol/g)
0.000937161	0.00473332
0.00136669	0.00591665
0.00156194	0.00591665
0.00210861	0.0082833
0.00230386	0.00946663
0.0024991	0.00946663
0.00269434	0.01065
0.00288958	0.01065
0.00304577	0.01065
0.00324102	0.0118333
0.00343626	0.0118333
0.0036315	0.0130166
0.00380722	0.0118333
0.00398294	0.0141999
0.00402198	0.0141999
0.00421723	0.0141999
0.00441247	0.0141999
0.00458819	0.0153833
0.00478343	0.0153833
0.00497867	0.0153833
0.00517391	0.0165666
0.00536915	0.0165666
0.00550582	0.0165666
0.00570107	0.0177499
0.00589631	0.0177499
0.00609155	0.0177499
0.00626727	0.0189333
0.00646251	0.0189333
0.00665775	0.0189333
0.00683347	0.0201166
0.00702871	0.0201166
0.0071849	0.0201166
0.00738015	0.0201166
0.00757539	0.0212999
0.00777063	0.0212999
0.00794635	0.0212999
