Adsorption isotherm of Methanol on Co3(HCOO)6
DOI: 10.1002/adfm.200800058
Adsorbate Methanol: InChIKey OKKJLVBELUTLKV-UHFFFAOYSA-N
Temperature: 353 K
Tabular data in the source: 0
pressure (bar)	uptake (mmol/g)
0.0036632	0.0915622
0.00563406	0.149852
0.00817106	0.208106
0.0098634	0.241378
0.0121188	0.291305
0.0143743	0.341232
0.0166297	0.391159
0.0188852	0.441086
0.0214267	0.474306
0.0231175	0.515923
0.0256591	0.549143
0.0279145	0.59907
0.030456	0.632289
0.0329961	0.673854
0.0349745	0.690419
0.0358176	0.723745
0.0383577	0.76531
0.0408992	0.798529
0.0434407	0.831749
0.0459807	0.873313
0.0479622	0.873189
0.0485223	0.906533
0.0510653	0.931408
0.0538899	0.96461
0.0564315	0.997829
0.0589745	1.0227
0.0612345	1.0476
0.063776	1.08082
0.0666021	1.10567
0.0691452	1.13055
0.0716867	1.16377
0.0742328	1.17195
0.0764913	1.20519
0.0793174	1.23005
0.081862	1.24658
0.0846881	1.27144
0.0858173	1.28805
0.086668	1.27966
0.0892111	1.30453
0.0920372	1.32939
0.0945817	1.34592
0.0974063	1.37912
0.0991047	1.37901
0.0999539	1.37896
0.102497	1.40384
0.10504	1.42871
0.107868	1.44522
0.110695	1.46174
0.111543	1.47003
