Adsorption isotherm of Toluene on Co3(HCOO)6
DOI: 10.1002/adfm.200800058
Adsorbate Toluene: InChIKey YXFVVABEGXRONW-UHFFFAOYSA-N
Temperature: 333 K
Tabular data in the source: 0
pressure (bar)	uptake (mmol/g)
0.000739437	0.0613587
0.0011706	0.0920481
0.00160175	0.122738
0.00209435	0.153437
0.00252535	0.179752
0.00307954	0.214836
0.00363312	0.232423
0.00412556	0.258749
0.00461785	0.2807
0.00517173	0.307035
0.00566402	0.328987
0.0061563	0.350938
0.00658746	0.381627
0.00701847	0.407943
0.00751106	0.438642
0.00794207	0.464958
0.00837322	0.495647
0.00880438	0.526336
0.00923539	0.552652
0.00972798	0.583351
0.0101591	0.614041
0.0105903	0.64473
0.0110213	0.671045
0.0115137	0.697371
0.0119449	0.72806
0.0124375	0.75876
0.0128685	0.785075
0.0133609	0.8114
0.0138534	0.837726
0.0143457	0.859677
0.0148381	0.886002
0.0153304	0.907954
0.015884	0.925541
0.0164377	0.947502
0.0169913	0.96509
0.0174834	0.982667
0.0180984	1.00026
0.018652	1.01785
0.0192054	1.03106
0.019759	1.04865
0.0203737	1.0575
0.0209271	1.07071
0.021542	1.08394
0.0220954	1.09715
0.0227101	1.106
0.0232635	1.11921
0.0238782	1.12806
0.0244316	1.14127
0.0250463	1.15012
0.0255997	1.16334
0.0262144	1.17219
0.0267677	1.18102
