Adsorption isotherm of N-propane on Co3(HCOO)6
DOI: 10.1002/adfm.200800058
Adsorbate N-propane: InChIKey ATUOYWHBWRKTHZ-UHFFFAOYSA-N
Temperature: 348 K
Tabular data in the source: 0
pressure (bar)	uptake (mmol/g)
0.0108927	0.233545
0.0272318	0.489845
0.0363091	0.58665
0.0381245	0.649316
0.0435709	0.70626
0.0472018	0.757517
0.0526482	0.814461
0.0580945	0.865707
0.0635409	0.92265
0.0689872	0.973896
0.076249	1.03083
0.0835109	1.08206
0.0907727	1.13329
0.0980345	1.18453
0.107112	1.23575
0.114374	1.28698
0.123451	1.33251
0.134344	1.4236
0.154314	1.45765
0.165206	1.50317
0.177914	1.54297
0.190623	1.58277
0.203331	1.61687
0.217854	1.65096
0.232378	1.72494
0.254163	1.72479
0.270503	1.75317
0.286842	1.78156
0.303181	1.80424
0.321335	1.82121
0.33949	1.84388
0.355829	1.86087
0.373983	1.87784
0.390323	1.89482
0.408477	1.9061
0.430262	1.90595
0.435709	1.92301
0.453863	1.93429
0.470202	1.94557
0.488357	1.95115
0.506512	1.95673
0.526482	1.9452
0.546452	1.97355
0.564606	1.97913
0.580945	1.98472
0.597284	1.99031
0.615439	1.99019
0.626331	1.98442
0.629962	1.99579
0.648117	2.00136
0.666271	2.00124
0.682611	2.00683
0.700765	2.00671
0.71892	2.01229
0.726181	2.01224
0.744336	2.01212
0.76249	2.012
0.780645	2.01188
0.7988	2.01175
0.816954	2.02873
0.847817	2.02852
