Adsorption isotherm of 1-Propanol on Co3(HCOO)6
DOI: 10.1002/adfm.200800058
Adsorbate 1-Propanol: InChIKey BDERNNFJNOPAEC-UHFFFAOYSA-N
Temperature: 383 K
Tabular data in the source: 0
pressure (bar)	uptake (mmol/g)
0.000602461	0.0936008
0.00110451	0.130939
0.00140574	0.155844
0.00170697	0.18075
0.0020082	0.211911
0.00227596	0.230573
0.00261066	0.24921
0.00291189	0.280371
0.00321312	0.305276
0.00348089	0.323938
0.00378212	0.348844
0.00411682	0.373736
0.00441805	0.398641
0.00471928	0.423546
0.00502051	0.448452
0.00532174	0.473357
0.00562297	0.492006
0.0059242	0.516912
0.00622543	0.541817
0.00652666	0.566722
0.00682789	0.591627
0.00712912	0.616533
0.00746382	0.641425
0.00776505	0.66633
0.00806628	0.691235
0.00836751	0.71614
0.00870221	0.734777
0.00896997	0.759695
0.0092712	0.7846
0.00957243	0.815761
0.00987366	0.834411
0.0101749	0.859316
0.0105096	0.884208
0.0108108	0.902858
0.0111121	0.927763
0.0114133	0.952668
0.0117145	0.971318
0.0120157	0.996223
0.0123504	1.01486
0.0126517	1.03976
0.0129529	1.05841
0.0132541	1.08958
0.0135554	1.10822
0.0138901	1.13312
0.0141913	1.15177
0.0144925	1.17042
0.0148272	1.19531
0.0151285	1.21396
0.0154297	1.23886
0.0157309	1.26377
