Adsorption isotherm of Ethanol on Co3(HCOO)6
DOI: 10.1002/adfm.200800058
Adsorbate Ethanol: InChIKey LFQSCWFLJHTTHZ-UHFFFAOYSA-N
Temperature: 323 K
Tabular data in the source: 0
pressure (bar)	uptake (mmol/g)
0.00115375	0.939884
0.00128195	1.00702
0.00141014	1.07415
0.00153834	1.14129
0.00166653	1.20842
0.00192292	1.27556
0.00205111	1.34269
0.0023075	1.40311
0.00256389	1.47025
0.00294848	1.53738
0.00333306	1.5978
0.00384584	1.66494
0.00423042	1.72536
0.00487139	1.78578
0.00551237	1.83949
0.00640973	1.89991
0.00679431	1.89991
0.00756348	1.9469
0.00858904	1.98718
0.00974279	2.02075
0.0108965	2.04761
0.0119221	2.08117
0.0124349	2.08117
0.0135886	2.0946
0.0148706	2.10803
0.0160243	2.12817
0.0175627	2.13488
0.0180754	2.14831
0.0193574	2.14831
0.0206393	2.16173
0.0217931	2.16845
0.0235878	2.18187
0.0248697	2.18187
0.0261517	2.18859
0.0274336	2.1953
0.0291002	2.20201
0.0303821	2.20873
0.0316641	2.21544
0.032946	2.21544
0.0348689	2.22216
0.0361509	2.22216
0.0374328	2.22887
0.0387148	2.22887
0.0402531	2.22887
0.041535	2.23558
0.042817	2.23558
0.0440989	2.2423
0.0458937	2.2423
0.0471756	2.2423
0.0484576	2.24901
0.0497395	2.24901
0.0515342	2.24901
0.0528162	2.24901
0.0543545	2.24901
