Adsorption isotherm of P-Xylene on Co3(HCOO)6
DOI: 10.1002/adfm.200800058
Adsorbate P-Xylene: InChIKey URLKBWYHVLBVBO-UHFFFAOYSA-N
Temperature: 373 K
Tabular data in the source: 0
pressure (bar)	uptake (mmol/g)
0.00037096	0.0130166
0.000546677	0.0177499
0.000722395	0.0224833
0.000917637	0.0272166
0.00109335	0.0295832
0.00124955	0.0343165
0.00144479	0.0366832
0.00164003	0.0402332
0.00181575	0.0425998
0.00201099	0.0449665
0.00218671	0.0473332
0.00238195	0.0485165
0.00255767	0.0508832
0.00275291	0.0532498
0.00287006	0.0544331
0.0030653	0.0556165
0.00324102	0.0579831
0.00343626	0.0591665
0.0036315	0.0603498
0.00380722	0.0615331
0.00398294	0.0638998
0.00417818	0.0650831
0.00437342	0.0662664
0.00456866	0.0674498
0.00466628	0.0686331
0.00486152	0.0686331
0.00505677	0.0698164
0.00525201	0.0709997
0.0054082	0.0721831
0.00560344	0.0733664
0.00579869	0.0745497
0.0059744	0.0757331
0.00616965	0.0769164
0.00636489	0.0780997
0.00654061	0.0780997
0.00673585	0.0792831
0.00693109	0.0792831
0.00712633	0.0816497
0.00730205	0.0816497
0.00749729	0.0816497
0.00769253	0.082833
0.00788778	0.0840164
0.00796587	0.086383
