Adsorption isotherm of 1-Propanol on Co3(HCOO)6
DOI: 10.1002/adfm.200800058
Adsorbate 1-Propanol: InChIKey BDERNNFJNOPAEC-UHFFFAOYSA-N
Temperature: 353 K
Tabular data in the source: 0
pressure (bar)	uptake (mmol/g)
0.000502051	0.143686
0.000803281	0.193614
0.00120492	0.306061
0.00164003	0.405983
0.00180738	0.462219
0.00197473	0.5122
0.00220902	0.587178
0.00237637	0.643414
0.00254372	0.69965
0.0026776	0.749644
0.00284495	0.805881
0.0030123	0.862117
0.00314618	0.918366
0.00331354	0.968347
0.00348089	1.02458
0.00361477	1.08083
0.00378212	1.13707
0.003916	1.19332
0.00408335	1.24956
0.00428417	1.31829
0.00438458	1.35579
0.00455193	1.41202
0.00468581	1.46827
0.00485316	1.51825
0.00502051	1.57449
0.00518786	1.63072
0.00532174	1.73702
0.00575685	1.76187
0.00599114	1.81183
0.00622543	1.84927
0.00645972	1.89922
0.00676095	1.91162
0.00706218	1.93027
0.00739688	1.9489
0.00766464	1.96131
0.00796587	1.97996
0.00830057	1.99234
0.00856833	2.011
0.00886956	2.01089
0.00920426	2.01701
0.00953896	2.02939
0.00984019	2.03553
0.0101749	2.04165
0.0105096	2.05404
0.0108108	2.06643
0.0111121	2.06631
0.0114468	2.07244
0.011748	2.08483
0.0120492	2.07846
0.0123839	2.09084
0.0127186	2.09071
0.0129864	2.09686
0.0133211	2.10298
0.0136558	2.10911
0.013957	2.1215
0.0142582	2.11513
0.0145595	2.12127
0.0148942	2.12739
0.0152289	2.12726
0.0155636	2.13338
0.0157979	2.13329
