Adsorption isotherm of P-Xylene on Co3(HCOO)6
DOI: 10.1002/adfm.200800058
Adsorbate P-Xylene: InChIKey URLKBWYHVLBVBO-UHFFFAOYSA-N
Temperature: 313 K
Tabular data in the source: 0
pressure (bar)	uptake (mmol/g)
0.000117145	0.0473332
0.000214766	0.0709997
0.000390484	0.097033
0.000546677	0.11715
0.000644298	0.1278
0.000741919	0.137266
0.000859065	0.146733
0.000995734	0.156199
0.0011324	0.164483
0.00126907	0.172766
0.00150336	0.183416
0.00165956	0.189333
0.00183527	0.195249
0.00203052	0.201166
0.00220623	0.205899
0.00238195	0.211816
0.00261624	0.216549
0.00279196	0.221283
0.0029872	0.224833
0.00318244	0.229566
0.00335816	0.233116
0.0035534	0.235483
0.0037096	0.237849
0.00388532	0.241399
0.00406103	0.244949
0.0042758	0.247316
0.00443199	0.250866
0.00462723	0.254416
0.00480295	0.256782
0.00497867	0.260332
0.00517391	0.262699
0.00534963	0.263882
0.00552535	0.267432
0.00572059	0.269799
0.00591583	0.273349
0.00611107	0.275716
0.00628679	0.278082
0.00646251	0.279266
0.00663823	0.282816
0.00683347	0.285182
0.00698966	0.286366
0.00716538	0.289916
0.00736062	0.292282
0.00755586	0.294649
0.00775111	0.297016
0.00796587	0.302932
