Adsorption isotherm of Ethanol on Co3(HCOO)6
DOI: 10.1002/adfm.200800058
Adsorbate Ethanol: InChIKey LFQSCWFLJHTTHZ-UHFFFAOYSA-N
Temperature: 313 K
Tabular data in the source: 0
pressure (bar)	uptake (mmol/g)
0.000512778	0.758621
0.000897362	1.08758
0.00102556	1.15472
0.00115375	1.30912
0.00128195	1.37626
0.00141014	1.44339
0.00166653	1.51053
0.00179472	1.57766
0.00205111	1.6448
0.0023075	1.70522
0.00269209	1.77235
0.00307667	1.83277
0.00358945	1.89991
0.00423042	1.95362
0.00499959	2.00732
0.00576876	2.06103
0.00666612	2.08789
0.00781987	2.12145
0.00897362	2.14831
0.0102556	2.16845
0.0114093	2.18859
0.0123067	2.20201
0.0135886	2.20873
0.0147424	2.22216
0.0160243	2.22887
0.0173063	2.2423
0.0179472	2.2423
0.0192292	2.24901
0.0205111	2.24901
0.0217931	2.25572
0.0229468	2.25572
0.0235878	2.26244
0.0248697	2.26915
0.0261517	2.26915
0.0274336	2.26915
0.0287156	2.26915
0.0299975	2.28258
0.0312795	2.28258
0.0324332	2.28929
0.0337152	2.28929
0.0347407	2.28929
0.0360227	2.28929
0.0373046	2.28929
0.0385866	2.28929
0.0397403	2.296
0.0410223	2.296
0.0423042	2.296
0.0435862	2.296
0.0448681	2.296
0.0458937	2.296
0.0471756	2.296
0.0484576	2.30272
0.0497395	2.30272
0.0508933	2.31614
0.0519188	2.30272
0.0532008	2.30943
0.0543545	2.31614
