Adsorption isotherm of Methanol on Co3(HCOO)6
DOI: 10.1002/adfm.200800058
Adsorbate Methanol: InChIKey OKKJLVBELUTLKV-UHFFFAOYSA-N
Temperature: 373 K
Tabular data in the source: 0
pressure (bar)	uptake (mmol/g)
0.00395535	0.0414758
0.00903842	0.107915
0.0101692	0.116189
0.0129968	0.132701
0.0155383	0.165921
0.0180799	0.199141
0.0209075	0.215653
0.0217537	0.232289
0.0245828	0.240457
0.0271243	0.273677
0.029952	0.290189
0.032495	0.315064
0.0353226	0.331576
0.0375826	0.356469
0.0404087	0.381326
0.0429518	0.406201
0.0457794	0.422713
0.0488871	0.455897
0.0517162	0.464065
0.0542593	0.48894
0.0570884	0.497108
0.05963	0.530327
0.061893	0.53853
0.0647206	0.555043
0.0675497	0.56321
0.0700943	0.57974
0.0746173	0.612836
0.0774449	0.629348
0.079991	0.637534
0.0828186	0.654046
0.0853602	0.687266
0.0876247	0.687124
0.0904523	0.703636
0.0929969	0.720166
0.095826	0.728334
0.0983691	0.753209
0.100067	0.753103
0.102897	0.76127
0.105441	0.7778
0.108269	0.794313
0.110812	0.819187
0.112795	0.810719
0.115622	0.827231
0.118169	0.835416
0.119578	0.868707
