Adsorption isotherm of P-Xylene on Co3(HCOO)6
DOI: 10.1002/adfm.200800058
Adsorbate P-Xylene: InChIKey URLKBWYHVLBVBO-UHFFFAOYSA-N
Temperature: 323 K
Tabular data in the source: 0
pressure (bar)	uptake (mmol/g)
5.86e-05	0.0307666
0.000156194	0.0638998
0.000273339	0.082833
0.000390484	0.0958497
0.000546677	0.108866
0.000702871	0.1207
0.000937161	0.130166
0.0011324	0.13135
0.00130812	0.141999
0.00148384	0.146733
0.00167908	0.150283
0.0018548	0.155016
0.00201099	0.158566
0.00220623	0.160933
0.00238195	0.164483
0.00257719	0.166849
0.00275291	0.170399
0.00287006	0.171583
0.0030653	0.175133
0.00324102	0.177499
0.00343626	0.179866
0.00367055	0.183416
0.00386579	0.185783
0.00404151	0.188149
0.00423675	0.190516
0.00441247	0.194066
0.00449057	0.194066
0.00468581	0.196433
0.00486152	0.198799
0.00505677	0.201166
0.00533011	0.204716
0.00552535	0.207083
0.00570107	0.209449
0.00589631	0.210633
0.0061306	0.214183
0.00632584	0.216549
0.00650156	0.218916
0.0066968	0.221283
0.00693109	0.223649
0.00712633	0.226016
0.00730205	0.228383
0.00749729	0.230749
0.00767301	0.230749
