Adsorption isotherm of Nitrogen on Co3(HCOO)6
DOI: 10.1002/adfm.200800058
Adsorbate Nitrogen: InChIKey IJGRMHOSHXDMSA-UHFFFAOYSA-N
Temperature: 77 K
Tabular data in the source: 0
pressure (bar)	uptake (cm3(STP)/g)
0.000921262	41.8239
0.0014477	65.7233
0.0026114	18.5535
0.00329715	49.6855
0.00566611	57.2327
0.00813204	69.1824
0.0279911	70.7547
0.0522557	72.327
0.105121	72.327
0.157993	72.6415
0.20646	72.956
0.303386	73.2704
0.406935	74.2138
0.611794	74.5283
0.715336	75.1572
0.814465	75.4717
0.915811	76.4151
0.964312	78.3019
1.00639	88.3648
1.01092	94.3396
