Adsorption isotherm of 1-Butanol on Co3(HCOO)6
DOI: 10.1002/adfm.200800058
Adsorbate 1-Butanol: InChIKey LRHPLDYGYMQRHN-UHFFFAOYSA-N
Temperature: 303 K
Tabular data in the source: 0
pressure (bar)	uptake (mmol/g)
0.000168969	0.0672656
0.000348398	0.158991
0.000601716	0.287408
0.000675574	0.330213
0.000738821	0.379134
0.000802068	0.428054
0.000875927	0.470859
0.00090749	0.50755
0.000970737	0.55647
0.00102337	0.611506
0.00107604	0.660426
0.00113926	0.715462
0.00120241	0.782727
0.00125505	0.837763
0.00130769	0.892798
0.00134977	0.941719
0.00140241	0.996754
0.00145504	1.05179
0.00148661	1.08848
0.00152866	1.14352
0.0015813	1.19855
0.00162335	1.25359
0.00167599	1.30862
0.00171804	1.36366
0.0017812	1.43092
0.00182325	1.48596
0.00187589	1.54099
0.00191794	1.59603
0.00197058	1.65107
0.00207582	1.76725
0.00212846	1.82229
0.00217051	1.87732
0.00223376	1.92624
0.0022864	1.98128
0.00232845	2.03631
0.00240234	2.073
0.0024762	2.11581
0.00255005	2.15862
0.0026133	2.20754
0.0027085	2.21365
0.00280367	2.22588
0.00290942	2.23811
0.00300462	2.24423
0.00309985	2.24423
0.00319505	2.25034
0.00344897	2.25646
0.00370289	2.26257
0.00402032	2.26257
0.00423189	2.2748
