Adsorption isotherm of P-Xylene on Co3(HCOO)6
DOI: 10.1002/adfm.200800058
Adsorbate P-Xylene: InChIKey URLKBWYHVLBVBO-UHFFFAOYSA-N
Temperature: 393 K
Tabular data in the source: 0
pressure (bar)	uptake (mmol/g)
0.000351436	0.00709997
0.000527153	0.00946663
0.000722395	0.0118333
0.000898113	0.0141999
0.00109335	0.0153833
0.00126907	0.0177499
0.00144479	0.0201166
0.00164003	0.0212999
0.00183527	0.0224833
0.00201099	0.0248499
0.00220623	0.0260332
0.00238195	0.0272166
0.00257719	0.0283999
0.00277244	0.0295832
0.00296768	0.0307666
0.0031434	0.0319499
0.00333864	0.0331332
0.00353388	0.0343165
0.00372912	0.0354999
0.00390484	0.0366832
0.00410008	0.0366832
0.00429532	0.0378665
0.00447104	0.0390499
0.00466628	0.0390499
0.00486152	0.0402332
0.00503724	0.0402332
0.00523248	0.0425998
0.00542773	0.0425998
0.00562297	0.0425998
0.00579869	0.0437832
0.00599393	0.0437832
0.00618917	0.0449665
0.00638441	0.0461498
0.00657965	0.0461498
0.0067749	0.0473332
0.00697014	0.0473332
0.00716538	0.0473332
0.0073411	0.0485165
0.00753634	0.0485165
0.00773158	0.0496998
0.00792682	0.0508832
