Adsorption isotherm of Ethanol on Co3(HCOO)6
DOI: 10.1002/adfm.200800058
Adsorbate Ethanol: InChIKey LFQSCWFLJHTTHZ-UHFFFAOYSA-N
Temperature: 353 K
Tabular data in the source: 0
pressure (bar)	uptake (mmol/g)
0.00282028	0.221544
0.00346125	0.281965
0.00410223	0.335673
0.00461501	0.396094
0.00525598	0.456515
0.00576876	0.516936
0.00653792	0.597498
0.0070507	0.657919
0.00756348	0.71834
0.00807626	0.785475
0.00846084	0.845896
0.00897362	0.906317
0.0094864	0.966738
0.00999918	1.02716
0.010512	1.09429
0.0110247	1.15472
0.0115375	1.21514
0.0119221	1.31584
0.0134604	1.35612
0.0143578	1.40983
0.0155115	1.46353
0.0165371	1.50381
0.0175627	1.53738
0.0187164	1.57095
0.0198702	1.5978
0.0210239	1.62466
0.0221777	1.65151
0.0233314	1.67836
0.0244852	1.69851
0.0256389	1.71865
0.0269209	1.73207
0.0280746	1.75221
0.0293566	1.77235
0.0305103	1.78578
0.0317923	1.79921
0.032946	1.81263
0.034228	1.82606
0.0353817	1.83277
0.0366637	1.8462
0.0379456	1.85291
0.0390993	1.86634
0.0403813	1.87306
0.0416632	1.88648
0.042817	1.89991
0.0440989	1.90662
0.0452527	1.92676
0.0465346	1.92005
0.0478166	1.92005
0.0489703	1.92676
0.0502523	1.92676
0.0515342	1.92676
0.0528162	1.94019
0.0540981	1.95362
