Adsorption isotherm of Toluene on Co3(HCOO)6
DOI: 10.1002/adfm.200800058
Adsorbate Toluene: InChIKey YXFVVABEGXRONW-UHFFFAOYSA-N
Temperature: 353 K
Tabular data in the source: 0
pressure (bar)	uptake (mmol/g)
0.00196745	0.0396897
0.00258215	0.0485387
0.00331989	0.061782
0.00387299	0.0662469
0.0044877	0.0750959
0.00504096	0.0839348
0.0056555	0.0884098
0.00608589	0.0972286
0.00670059	0.106078
0.00725385	0.114917
0.0078684	0.119391
0.00842166	0.12823
0.00866758	0.132645
0.00928228	0.141494
0.00983554	0.150333
0.0104501	0.154808
0.0110033	0.163647
0.0114953	0.17685
0.0120484	0.181315
0.012663	0.18579
0.0132777	0.194639
0.0138309	0.203478
0.014015	0.194759
0.0142613	0.212296
0.0148759	0.216771
0.0154291	0.22561
0.0160438	0.234459
0.0165971	0.243298
0.0168424	0.230216
0.0170273	0.247743
0.017642	0.256592
0.0181953	0.265431
0.01881	0.27428
0.0193633	0.283119
0.0197321	0.287553
0.0203468	0.296402
0.0209	0.305241
0.0215146	0.309716
0.0220678	0.318555
0.0226211	0.327394
0.0232358	0.336243
0.0237891	0.345082
0.0244036	0.349557
0.024957	0.36277
0.0251418	0.375923
