Adsorption isotherm of Hydrogen on Co3(HCOO)6
DOI: 10.1002/adfm.200800058
Adsorbate Hydrogen: InChIKey UFHFLCQGNIYNRP-UHFFFAOYSA-N
Temperature: 77 K
Tabular data in the source: 0
pressure (bar)	uptake (wt%)
0.313725	0.5639
0.470588	0.591683
0.627451	0.644466
1.2549	0.69171
2.03922	0.716737
3.13725	0.73622
3.92157	0.744581
5.4902	0.750191
6.7451	0.753012
8.31373	0.755844
11.6078	0.758736
13.1765	0.761569
14.7451	0.764401
16.3137	0.764455
17.8824	0.76451
19.7647	0.767353
21.3333	0.770185
22.902	0.773017
24.3137	0.775844
25.8824	0.778676
27.451	0.781509
28.8627	0.784336
30.4314	0.787168
32	0.79
33.4118	0.795605
34.9804	0.801215
36.3922	0.804041
37.9608	0.809651
39.5294	0.815261
40.9412	0.818088
42.5098	0.82092
43.9216	0.826525
45.4902	0.829357
47.0588	0.83219
48.4706	0.837794
50.0392	0.840626
51.6078	0.843459
53.1765	0.846291
54.7451	0.849123
56.3137	0.851955
57.7255	0.854782
59.2941	0.854837
60.8627	0.857669
62.7451	0.854956
64	0.857778
65.5686	0.857832
67.1373	0.857887
68.7059	0.855163
70.1176	0.852435
71.6863	0.852489
72.7843	0.849749
