Adsorption isotherm of Methanol on Co3(HCOO)6
DOI: 10.1002/adfm.200800058
Adsorbate Methanol: InChIKey OKKJLVBELUTLKV-UHFFFAOYSA-N
Temperature: 303 K
Tabular data in the source: 0
pressure (bar)	uptake (mmol/g)
0.000794703	0.300359
0.00189064	0.500562
0.00270956	0.667405
0.00297749	0.750835
0.00352848	0.834247
0.00379641	0.917677
0.0043474	1.00109
0.00461684	1.07617
0.00516784	1.15959
0.0060019	1.24298
0.00655289	1.32639
0.00738695	1.40979
0.00933662	1.5849
0.0104553	1.65994
0.0115739	1.73497
0.0129756	1.80998
0.0140942	1.88502
0.0154959	1.96003
0.0168992	2.0267
0.01887	2.08499
0.0205563	2.15164
0.0228072	2.2266
0.0250627	2.27653
0.027035	2.32647
0.029289	2.38475
0.0315459	2.42633
0.0340875	2.45955
0.0354967	2.49284
0.0380367	2.5344
0.0405783	2.56762
0.0431198	2.60084
0.0456629	2.62572
0.0482059	2.65059
0.050749	2.67547
0.0532905	2.70869
0.0561166	2.73354
0.0586597	2.75842
0.0612027	2.78329
0.0637458	2.80817
0.0665734	2.82468
0.069401	2.84119
0.0719441	2.86607
0.0744871	2.89094
0.0770317	2.90747
0.0798593	2.92398
0.0826869	2.9405
0.085233	2.94868
0.0877776	2.96521
0.0906052	2.98172
0.0931482	3.0066
0.0959774	3.01477
0.0985204	3.03964
0.101067	3.04783
0.103896	3.05599
0.106439	3.08087
0.109268	3.08904
0.112379	3.10553
0.115206	3.12204
0.117751	3.13857
