Adsorption isotherm of P-Xylene on Co3(HCOO)6
DOI: 10.1002/adfm.200800058
Adsorbate P-Xylene: InChIKey URLKBWYHVLBVBO-UHFFFAOYSA-N
Temperature: 353 K
Tabular data in the source: 0
pressure (bar)	uptake (mmol/g)
0.00037096	0.0236666
0.000507629	0.0307666
0.000663823	0.0390499
0.000820016	0.0449665
0.000995734	0.0520665
0.00117145	0.0650831
0.00142527	0.0650831
0.00160098	0.0709997
0.0017767	0.0745497
0.00197194	0.0792831
0.00203052	0.082833
0.00210861	0.082833
0.00230386	0.0851997
0.00247957	0.0887497
0.00267481	0.0922997
0.00285053	0.0946663
0.00302625	0.097033
0.00320197	0.0993996
0.00339721	0.101766
0.00359245	0.104133
0.00376817	0.104133
0.00394389	0.107683
0.00413913	0.108866
0.00433437	0.11005
0.00451009	0.112416
0.00468581	0.1136
0.00488105	0.1136
0.00507629	0.114783
0.00525201	0.11715
0.00544725	0.115966
0.00564249	0.118333
0.00581821	0.119516
0.00601345	0.119516
0.00620869	0.1207
0.00640394	0.121883
0.00659918	0.121883
0.00679442	0.121883
0.00698966	0.123066
0.00710681	0.125433
0.00714586	0.125433
0.00732157	0.12425
0.00751682	0.12425
0.00771206	0.12425
0.00794635	0.130166
