Adsorption isotherm of Toluene on Co3(HCOO)6
DOI: 10.1002/adfm.200800058
Adsorbate Toluene: InChIKey YXFVVABEGXRONW-UHFFFAOYSA-N
Temperature: 338 K
Tabular data in the source: 0
pressure (bar)	uptake (mmol/g)
0.000923291	0.0482666
0.00153846	0.070238
0.00203074	0.0921892
0.00258432	0.109776
0.0034457	0.144911
0.00399928	0.162498
0.0041839	0.171276
0.00455285	0.180085
0.00510658	0.202046
0.00566015	0.219634
0.00609069	0.232826
0.00664426	0.250414
0.00719799	0.272375
0.00775156	0.289962
0.00830528	0.311924
0.00885901	0.333885
0.0093513	0.355836
0.00990503	0.377798
0.0103975	0.404123
0.0109512	0.426084
0.0115048	0.443671
0.0116281	0.456814
0.0121206	0.483139
0.0126128	0.505091
0.0131053	0.531416
0.0135977	0.557741
0.0141516	0.584077
0.0143978	0.59724
0.0148903	0.623565
0.0153827	0.64989
0.0159364	0.671852
0.0164287	0.693803
0.0169212	0.720128
0.0171672	0.728917
0.0177208	0.746504
0.0182745	0.768465
0.0188281	0.786053
0.0193817	0.80364
0.0198737	0.816843
0.0203659	0.838794
0.020981	0.856391
0.0215344	0.869605
0.0220879	0.887192
0.022703	0.904789
0.0232564	0.918002
0.0238712	0.931225
0.0244248	0.948813
0.0249782	0.962026
0.0254702	0.975229
0.0260851	0.988452
0.0266385	1.00166
