Adsorption isotherm of Ethanol on Co3(HCOO)6
DOI: 10.1002/adfm.200800058
Adsorbate Ethanol: InChIKey LFQSCWFLJHTTHZ-UHFFFAOYSA-N
Temperature: 383 K
Tabular data in the source: 0
pressure (bar)	uptake (mmol/g)
0.00307667	0.114129
0.00410223	0.147696
0.00525598	0.181263
0.00628153	0.221544
0.00730709	0.255111
0.00846084	0.288679
0.00961459	0.315533
0.0106402	0.355813
0.0123067	0.402808
0.0134604	0.429661
0.014486	0.463229
0.0156397	0.496796
0.0167935	0.530363
0.0179472	0.563931
0.019101	0.590784
0.0202547	0.624352
0.0214085	0.651206
0.0224341	0.684773
0.0234596	0.711627
0.0246134	0.745194
0.0257671	0.772048
0.0269209	0.805615
0.0279464	0.832469
0.0291002	0.859323
0.0301257	0.89289
0.0314077	0.919744
0.0325614	0.946598
0.0337152	0.973452
0.0344843	0.986879
0.0356381	1.01373
0.0367918	1.03387
0.0380738	1.06073
0.0392275	1.08087
0.0403813	1.10101
0.041535	1.12115
0.042817	1.14129
0.0439707	1.16143
0.0457655	1.195
0.0469192	1.21514
0.0482012	1.22856
0.0493549	1.2487
0.0506369	1.26213
0.0512778	1.27556
0.0524316	1.2957
0.0537135	1.30241
