Adsorption isotherm of Toluene on Co3(HCOO)6
DOI: 10.1002/adfm.200800058
Adsorbate Toluene: InChIKey YXFVVABEGXRONW-UHFFFAOYSA-N
Temperature: 343 K
Tabular data in the source: 0
pressure (bar)	uptake (mmol/g)
0.000738973	0.0482363
0.00166149	0.0746323
0.00258432	0.109776
0.00350652	0.127424
0.00412123	0.136273
0.00467449	0.145112
0.00528919	0.153961
0.00608837	0.167215
0.00664178	0.180428
0.00725664	0.193651
0.00781006	0.206864
0.00842491	0.220087
0.00879386	0.228896
0.00934728	0.242109
0.00996213	0.255332
0.0105157	0.272919
0.0110691	0.286132
0.0115611	0.299335
0.0121145	0.312548
0.0126681	0.330136
0.0132831	0.347733
0.0138367	0.36532
0.0143285	0.374149
0.0148208	0.3961
0.0153744	0.413688
0.0159279	0.431275
0.0164817	0.453236
0.0170967	0.470833
0.0176504	0.492795
0.018204	0.510382
0.0187577	0.532343
0.0192498	0.54992
0.0198034	0.567508
0.0202958	0.593833
0.0208494	0.61142
0.0214031	0.633382
0.0219569	0.655343
0.0225719	0.67294
0.0230642	0.694891
0.0236177	0.712479
0.0241713	0.730066
0.0247863	0.747663
0.0253397	0.760876
0.0258933	0.778463
0.0265082	0.791687
0.0268157	0.800485
