Adsorption isotherm of N-propane on Co3(HCOO)6
DOI: 10.1002/adfm.200800058
Adsorbate N-propane: InChIKey ATUOYWHBWRKTHZ-UHFFFAOYSA-N
Temperature: 423 K
Tabular data in the source: 0
pressure (bar)	uptake (mmol/g)
0.0453863	0.0338849
0.0617254	0.0508697
0.07988	0.0735404
0.096219	0.0905253
0.114374	0.107498
0.130713	0.124483
0.145236	0.14148
0.161575	0.164163
0.177914	0.181148
0.194254	0.198132
0.212408	0.220803
0.226932	0.232102
0.241455	0.243401
0.255979	0.266096
0.272318	0.288779
0.290473	0.305752
0.306812	0.322737
0.324966	0.345407
0.337674	0.356718
0.354013	0.379401
0.372168	0.396374
0.388507	0.413359
0.404846	0.436042
0.421185	0.458725
0.437524	0.470011
0.453863	0.486996
0.470202	0.503981
0.488357	0.526652
0.504696	0.543637
0.521035	0.577716
0.535559	0.577619
0.553713	0.594591
0.570052	0.617274
0.586391	0.634259
0.604546	0.651232
0.617254	0.685335
0.635409	0.685214
0.651748	0.707896
0.668087	0.724881
0.686241	0.741854
0.702581	0.764537
0.717104	0.79293
0.733443	0.798519
0.749782	0.815504
0.767937	0.832476
0.784276	0.855159
0.80243	0.872132
0.81877	0.883419
0.833293	0.906114
0.847817	0.906017
