Adsorption isotherm of Hydrogen on Co3(HCOO)6
DOI: 10.1002/adfm.200800058
Adsorbate Hydrogen: InChIKey UFHFLCQGNIYNRP-UHFFFAOYSA-N
Temperature: 87 K
Tabular data in the source: 0
pressure (bar)	uptake (cm3(STP)/g)
0.0044747	3.14465
0.00894248	5.97484
0.017878	11.6352
0.0400853	19.8113
0.0489516	22.327
0.0755158	28.3019
0.102066	33.6478
0.126386	37.7358
0.150671	40.2516
0.181586	43.7107
0.199242	45.283
0.2544	49.3711
0.318369	53.4591
0.358059	55.3459
0.457272	59.434
0.556463	62.5786
0.660039	64.7799
0.761427	67.6101
0.862786	69.1824
0.964153	71.0692
0.992795	71.3836
1.02144	72.0126
