Adsorption isotherm of Benzene on Co3(HCOO)6
DOI: 10.1002/adfm.200800058
Adsorbate Benzene: InChIKey UHOVQNZJYSORNB-UHFFFAOYSA-N
Temperature: 413 K
Tabular data in the source: 0
pressure (bar)	uptake (mmol/g)
0.0191029	0.0235443
0.025698	0.0412024
0.0318382	0.0412024
0.0341123	0.0529746
0.0361591	0.0588606
0.0384332	0.0647467
0.0407074	0.0706328
0.0420719	0.0706328
0.044346	0.0765188
0.0466202	0.0824049
0.0486669	0.0882909
0.0509411	0.094177
0.0548071	0.094177
0.0584458	0.105949
0.0634489	0.123607
0.0657231	0.129493
0.0679973	0.135379
0.070044	0.141266
0.0720907	0.153038
0.0743649	0.158924
0.076639	0.16481
0.0786858	0.176582
0.0809599	0.182468
0.0830067	0.19424
0.0850534	0.206012
0.0873276	0.217784
0.0893743	0.229556
0.0914211	0.241329
0.0936952	0.258987
0.0957419	0.276645
0.0977887	0.294303
