Adsorption isotherm of Methanol on Co3(HCOO)6
DOI: 10.1002/adfm.200800058
Adsorbate Methanol: InChIKey OKKJLVBELUTLKV-UHFFFAOYSA-N
Temperature: 333 K
Tabular data in the source: 0
pressure (bar)	uptake (mmol/g)
0.00251883	0.158391
0.00363747	0.233423
0.00475611	0.308455
0.00587475	0.383488
0.00727645	0.458502
0.00867815	0.533516
0.0100829	0.591841
0.0117692	0.658493
0.0131709	0.733507
0.0148572	0.800159
0.0165434	0.866811
0.0182312	0.925118
0.0202006	0.991752
0.022179	1.00832
0.0227346	1.0667
0.0247039	1.13333
0.0263917	1.19164
0.0286471	1.24156
0.0309041	1.28315
0.033158	1.34142
0.0356965	1.39133
0.037952	1.44125
0.0402089	1.48284
0.042749	1.5244
0.045289	1.56597
0.0483936	1.61584
0.0509352	1.64906
0.0534767	1.68228
0.0560182	1.7155
0.0585598	1.74872
0.0605352	1.78197
0.062232	1.79021
0.0647736	1.82343
0.0675997	1.84829
0.0701427	1.87316
0.0726858	1.89804
0.0752288	1.92291
0.078058	1.93108
0.080601	1.95595
0.0834287	1.97247
0.0862517	2.01401
0.087384	2.01394
0.0902116	2.03046
0.0927562	2.04699
0.0955838	2.0635
0.0981284	2.08003
0.100673	2.09656
0.103501	2.11307
0.106047	2.12126
0.108874	2.13777
0.111417	2.16264
0.11255	2.16257
0.115379	2.17074
0.117923	2.18727
0.119337	2.19553
