Adsorption isotherm of P-Xylene on Co3(HCOO)6
DOI: 10.1002/adfm.200800058
Adsorbate P-Xylene: InChIKey URLKBWYHVLBVBO-UHFFFAOYSA-N
Temperature: 343 K
Tabular data in the source: 0
pressure (bar)	uptake (mmol/g)
3.9e-05	0.0177499
0.000175718	0.0354999
0.000312387	0.0473332
0.000429532	0.0567998
0.000566202	0.0650831
0.000722395	0.0733664
0.000878589	0.0792831
0.00105431	0.0851997
0.00119098	0.0887497
0.00136669	0.0922997
0.00156194	0.0958497
0.00173765	0.0993996
0.0019329	0.101766
0.00208909	0.105316
0.00228433	0.107683
0.00246005	0.11005
0.00265529	0.112416
0.00292863	0.115966
0.00312387	0.11715
0.00329959	0.119516
0.00349483	0.121883
0.00367055	0.123066
0.00380722	0.125433
0.00398294	0.126616
0.00417818	0.1278
0.0043539	0.130166
0.00462723	0.132533
0.00482248	0.133716
0.00499819	0.136083
0.00519344	0.137266
0.00546677	0.139633
0.00566202	0.140816
0.00585726	0.141999
0.00603298	0.143183
0.00630632	0.145549
0.00648203	0.146733
0.00667728	0.149099
0.00685299	0.150283
0.00704823	0.151466
0.0071849	0.152649
0.00738015	0.153833
0.00755586	0.156199
0.00775111	0.157383
0.00794635	0.157383
