Adsorption isotherm of 1-Butanol on Co3(HCOO)6
DOI: 10.1002/adfm.200800058
Adsorbate 1-Butanol: InChIKey LRHPLDYGYMQRHN-UHFFFAOYSA-N
Temperature: 358 K
Tabular data in the source: 0
pressure (bar)	uptake (mmol/g)
0.000296032	0.0489205
0.000391142	0.0733807
0.000486223	0.103956
0.000612987	0.146761
0.000718618	0.183452
0.000803118	0.214027
0.000908749	0.250717
0.00100383	0.281293
0.0010883	0.317983
0.00118338	0.348558
0.00126785	0.385249
0.00136293	0.415824
0.00147914	0.452514
0.00157422	0.483089
0.00166933	0.50755
0.00178557	0.538125
0.00187007	0.5687
0.00197577	0.59316
0.00207088	0.617621
0.00216596	0.648196
0.00226107	0.672656
0.00235621	0.691001
0.00245132	0.715462
0.00255704	0.733807
0.00265218	0.752152
0.00274729	0.776612
0.00285301	0.794957
0.00293754	0.819418
0.00304326	0.837763
0.0031384	0.856108
0.00321244	0.862223
0.00330758	0.880568
0.0034133	0.898913
0.00349789	0.911143
0.00360364	0.923374
0.00369878	0.941719
0.00377279	0.953949
0.00387854	0.966179
0.00397371	0.978409
0.00405833	0.984524
0.00416405	1.00287
