Adsorption isotherm of Methanol on Co3(HCOO)6
DOI: 10.1002/adfm.200800058
Adsorbate Methanol: InChIKey OKKJLVBELUTLKV-UHFFFAOYSA-N
Temperature: 323 K
Tabular data in the source: 0
pressure (bar)	uptake (mmol/g)
0.00277919	0.283545
0.00333018	0.366957
0.00416576	0.442007
0.00471675	0.52542
0.00583539	0.600452
0.00666945	0.683846
0.00778809	0.758878
0.00861306	0.892342
0.00974533	0.892271
0.011147	0.967285
0.0122657	1.04232
0.0136674	1.11733
0.0147875	1.18402
0.0164723	1.25902
0.0181586	1.32567
0.0198449	1.39232
0.0226589	1.48393
0.0243452	1.55059
0.0263175	1.60053
0.0285715	1.6588
0.0305423	1.71709
0.0327978	1.76702
0.0356178	1.82526
0.0378748	1.86684
0.0404148	1.9084
0.0426733	1.94164
0.0452148	1.97486
0.048601	2.03306
0.0511425	2.06628
0.0536856	2.09115
0.0562271	2.12437
0.0587702	2.14925
0.0610317	2.1658
0.0635732	2.19902
0.0661178	2.21555
0.0689439	2.2404
0.0714869	2.26528
0.074033	2.27346
0.0768606	2.28998
0.0794052	2.30651
0.0822328	2.32302
0.0847774	2.33955
0.0870389	2.3561
0.0898665	2.37261
0.0924111	2.38914
0.0952402	2.39731
0.0977848	2.41384
0.0997647	2.42206
0.102594	2.43022
0.105138	2.44676
0.107968	2.45492
0.110797	2.46309
0.111643	2.47973
0.112777	2.47131
0.115604	2.48782
0.11815	2.49601
0.119277	2.52932
