Adsorption isotherm of Ethylbenzene on Co3(HCOO)6
DOI: 10.1002/adfm.200800058
Adsorbate Ethylbenzene: InChIKey YNQLUTRBYVCPMQ-UHFFFAOYSA-N
Temperature: 363 K
Tabular data in the source: 0
pressure (bar)	uptake (mmol/g)
0.000835129	0.0231351
0.00104391	0.0264401
0.00125269	0.0297452
0.00135708	0.0363552
0.00154499	0.0363552
0.00173289	0.0396602
0.00194167	0.0429652
0.00215046	0.0462702
0.00238012	0.0495753
0.0025889	0.0561853
0.0027768	0.0594903
0.00298559	0.0627953
0.00319437	0.0661004
0.00334052	0.0661004
0.0035493	0.0727104
0.0037372	0.0760154
0.00394598	0.0826254
0.00413389	0.0859305
0.00423828	0.0826254
0.00444706	0.0892355
0.00463497	0.0925405
0.00484375	0.0991505
0.00505253	0.102456
0.00515692	0.102456
0.0053657	0.109066
0.00555361	0.112371
0.00576239	0.115676
0.00597117	0.118981
0.00615908	0.122286
0.00636786	0.125591
0.00657664	0.128896
0.00676454	0.135506
0.0069942	0.138811
0.00720299	0.142116
0.00741177	0.145421
0.00759967	0.148726
0.00789197	0.155336
0.00810075	0.158641
0.00830953	0.161946
0.00849744	0.168556
