Adsorption isotherm of Methanol on Co3(HCOO)6
DOI: 10.1002/adfm.200800058
Adsorbate Methanol: InChIKey OKKJLVBELUTLKV-UHFFFAOYSA-N
Temperature: 343 K
Tabular data in the source: 0
pressure (bar)	uptake (mmol/g)
0.00281098	0.108305
0.0042142	0.174974
0.00618354	0.241609
0.00787134	0.299916
0.00899452	0.349914
0.0109654	0.408203
0.0126532	0.46651
0.0146225	0.533144
0.0165934	0.591434
0.0188473	0.649705
0.0208197	0.69965
0.0225105	0.741268
0.0244814	0.799557
0.0267368	0.849484
0.0289923	0.899411
0.0312492	0.940993
0.0337892	0.982557
0.0357616	1.0325
0.0380171	1.08243
0.0405571	1.12399
0.0430986	1.15721
0.0453556	1.19879
0.0478956	1.24036
0.0504371	1.27358
0.0529787	1.3068
0.0555202	1.34002
0.0580617	1.37324
0.0603187	1.41482
0.0628633	1.43135
0.0654048	1.46457
0.0679478	1.48944
0.0704894	1.52266
0.073311	1.57256
0.0744447	1.56414
0.0772724	1.58065
0.0798154	1.60553
0.0826415	1.63038
0.0851861	1.64691
0.0877276	1.68013
0.0905552	1.69665
0.0933814	1.7215
0.0959259	1.73803
0.0990351	1.76287
0.0990427	1.72115
0.101863	1.77939
0.104407	1.79592
0.107233	1.82077
0.109779	1.82896
0.111473	1.85389
0.114302	1.86205
0.116847	1.87858
0.119389	1.9118
