Adsorption isotherm of Benzene on Co3(HCOO)6
DOI: 10.1002/adfm.200800058
Adsorbate Benzene: InChIKey UHOVQNZJYSORNB-UHFFFAOYSA-N
Temperature: 353 K
Tabular data in the source: 0
pressure (bar)	uptake (mmol/g)
0.000227416	0.241329
0.000909662	0.482657
0.00159191	0.782846
0.00181932	0.841707
0.00227416	0.9712
0.00250157	1.03006
0.00272899	1.08892
0.00318382	1.14778
0.00341123	1.20664
0.00409348	1.31259
0.0059128	1.49506
0.00773213	1.6481
0.00977887	1.74227
0.0111434	1.78936
0.0125079	1.83645
0.0140998	1.87177
0.0177384	1.9424
0.0216045	1.9836
0.0231964	1.99538
0.0252431	2.01303
0.0270625	2.02481
0.0293366	2.03658
0.0313833	2.04835
0.0336575	2.05424
0.0359317	2.06601
0.0382058	2.07778
0.04048	2.07778
0.0427541	2.08955
0.0448009	2.09544
0.047075	2.10132
0.0493492	2.10721
0.0516233	2.1131
0.0538975	2.1131
0.0561716	2.1131
0.0584458	2.11898
0.0604925	2.1131
0.0625393	2.12487
0.0648134	2.13075
0.0668602	2.13664
0.0691343	2.13664
0.0714085	2.13075
0.0736826	2.13664
0.0759568	2.14253
0.078231	2.14253
0.0802777	2.14841
0.0825518	2.14253
0.084826	2.14841
0.0871002	2.14841
0.0893743	2.14841
0.093013	2.14841
0.0952871	2.1543
0.0975613	2.1543
0.0984709	2.14841
