Adsorption isotherm of N-propane on Co3(HCOO)6
DOI: 10.1002/adfm.200800058
Adsorbate N-propane: InChIKey ATUOYWHBWRKTHZ-UHFFFAOYSA-N
Temperature: 313 K
Tabular data in the source: 0
pressure (bar)	uptake (mmol/g)
0.00544636	0.848964
0.00907727	0.376007
0.0145236	1.17369
0.0163391	1.23066
0.01997	1.37878
0.0217854	1.43575
0.0254163	1.4927
0.0272318	1.54967
0.0308627	1.60663
0.0363091	1.68066
0.0417554	1.72621
0.0490172	1.77745
0.0562791	1.82868
0.0671718	1.87419
0.07988	1.91969
0.0925881	1.95379
0.108927	1.98217
0.125266	2.01055
0.141605	2.02754
0.15976	2.03881
0.172468	2.05012
0.190623	2.0614
0.206962	2.07269
0.225116	2.07826
0.243271	2.08384
0.25961	2.09513
0.277764	2.09501
0.295919	2.10058
0.314073	2.10616
0.332228	2.11174
0.350383	2.11161
0.364906	2.11722
0.383061	2.11709
0.401215	2.12267
0.421185	2.12254
0.43934	2.12811
0.457494	2.12799
0.475649	2.12787
0.493803	2.13345
0.511958	2.13333
0.530112	2.13321
0.546452	2.1331
0.562791	2.13869
0.580945	2.13856
0.5991	2.13844
0.617254	2.14402
0.635409	2.1439
0.653563	2.14378
0.671718	2.14366
0.689872	2.14354
0.708027	2.14341
0.726181	2.14899
0.744336	2.14887
0.76249	2.14875
0.780645	2.14863
0.795169	2.14853
0.813323	2.14841
0.831478	2.14829
