Adsorption isotherm of 1-Butanol on Co3(HCOO)6
DOI: 10.1002/adfm.200800058
Adsorbate 1-Butanol: InChIKey LRHPLDYGYMQRHN-UHFFFAOYSA-N
Temperature: 333 K
Tabular data in the source: 0
pressure (bar)	uptake (mmol/g)
0.000137345	0.0428054
0.000306314	0.110071
0.00054929	0.189567
0.000612537	0.238487
0.000697006	0.275178
0.000770865	0.317983
0.000844723	0.360788
0.000897449	0.397479
0.000960696	0.446399
0.00103452	0.49532
0.0010978	0.538125
0.00120319	0.623736
0.00126644	0.672656
0.00131908	0.727692
0.00138232	0.776612
0.00148768	0.868338
0.00155093	0.917258
0.00166693	0.996754
0.00173018	1.04567
0.00177236	1.07625
0.0018356	1.12517
0.00190946	1.16798
0.00197271	1.2169
0.00207816	1.29028
0.00215202	1.33308
0.00222588	1.37589
0.00231035	1.41258
0.002342	1.43092
0.00243708	1.4615
0.00252158	1.49207
0.0026484	1.52265
0.00274354	1.54099
0.00284926	1.55934
0.00293379	1.5838
0.00302896	1.59603
0.00312413	1.60826
0.00324044	1.62661
0.00334619	1.63884
0.00344136	1.65107
0.00350479	1.6633
0.00361057	1.66941
0.00370574	1.68164
0.00377972	1.69999
0.00387492	1.7061
0.00398067	1.71833
0.00406523	1.73668
0.00417098	1.74891
