Adsorption isotherm of 1-Butanol on Co3(HCOO)6
DOI: 10.1002/adfm.200800058
Adsorbate 1-Butanol: InChIKey LRHPLDYGYMQRHN-UHFFFAOYSA-N
Temperature: 348 K
Tabular data in the source: 0
pressure (bar)	uptake (mmol/g)
0.000243246	0.0244602
0.000327686	0.0672656
0.000454449	0.110071
0.000612867	0.171222
0.000707917	0.207912
0.000792387	0.244602
0.000908479	0.305753
0.000982367	0.342443
0.00106684	0.379134
0.00121458	0.458629
0.00128844	0.501435
0.0013623	0.54424
0.00149949	0.617621
0.00157335	0.660426
0.00165779	0.703232
0.00179502	0.770497
0.00187949	0.807187
0.00196396	0.843878
0.00209066	0.898913
0.00217513	0.935604
0.00225963	0.966179
0.00237581	1.00898
0.00247092	1.03344
0.002566	1.06402
0.00266111	1.08848
0.00275625	1.10683
0.00286197	1.12517
0.00294653	1.14352
0.00304167	1.16186
0.0032214	1.19244
0.00331657	1.20467
0.00342229	1.22301
0.00351746	1.23524
0.00362322	1.24747
0.00379242	1.26582
0.00389818	1.27805
0.00406735	1.30251
0.00417311	1.31474
