Adsorption isotherm of 1-Propanol on Co3(HCOO)6
DOI: 10.1002/adfm.200800058
Adsorbate 1-Propanol: InChIKey BDERNNFJNOPAEC-UHFFFAOYSA-N
Temperature: 343 K
Tabular data in the source: 0
pressure (bar)	uptake (mmol/g)
0.000602461	0.149903
0.00107104	0.274835
0.00147268	0.412304
0.00180738	0.543544
0.00214208	0.662273
0.00227596	0.718522
0.00240984	0.774772
0.00281148	0.937265
0.00294536	0.993514
0.00304577	1.05603
0.00331354	1.17479
0.00344742	1.23104
0.00354783	1.29355
0.00368171	1.3498
0.00378212	1.40607
0.003916	1.46857
0.00401641	1.52483
0.00415029	1.58108
0.00428417	1.64359
0.00441805	1.69984
0.0045854	1.75608
0.00471928	1.81232
0.00488663	1.86856
0.00505398	1.91854
0.00528827	1.9685
0.00552256	2.0122
0.00579032	2.04337
0.00609155	2.06827
0.0065936	2.0931
0.0069283	2.09923
0.00722953	2.11162
0.00766464	2.11771
0.00796587	2.12384
0.00830057	2.12997
0.0086018	2.14236
0.0089365	2.14223
0.0092712	2.14836
0.0096059	2.15448
0.00980672	2.16066
0.0101414	2.16678
0.0104761	2.16665
0.0108778	2.17901
0.0112125	2.17888
0.0115472	2.17874
0.0118484	2.18488
0.0121831	2.18475
0.0125178	2.18462
0.012819	2.19076
0.0130198	2.19068
0.0133546	2.19681
0.0136893	2.19667
0.0140574	2.20279
0.0143921	2.20266
0.0147268	2.20252
0.0151285	2.20862
0.0154297	2.20851
0.0157644	2.21463
