Adsorption isotherm of N-propane on Co3(HCOO)6
DOI: 10.1002/adfm.200800058
Adsorbate N-propane: InChIKey ATUOYWHBWRKTHZ-UHFFFAOYSA-N
Temperature: 393 K
Tabular data in the source: 0
pressure (bar)	uptake (mmol/g)
0.0108927	0.0569072
0.0163391	0.0454748
0.0308627	0.0795658
0.0435709	0.107971
0.0580945	0.142062
0.0708027	0.176165
0.0853263	0.210256
0.0998499	0.244347
0.114374	0.278438
0.128897	0.312529
0.13979	0.340946
0.154314	0.375037
0.167022	0.414838
0.17973	0.448941
0.194254	0.48873
0.208777	0.522821
0.221485	0.556924
0.237824	0.596701
0.250533	0.636502
0.265056	0.670593
0.27958	0.704684
0.294103	0.738775
0.308627	0.772866
0.323151	0.801259
0.335859	0.829664
0.350383	0.863755
0.364906	0.897846
0.37943	0.926239
0.395769	0.954619
0.410292	0.98871
0.424816	1.0228
0.43934	1.0455
0.455679	1.07388
0.470202	1.09657
0.486542	1.12495
0.502881	1.15333
0.51922	1.17602
0.528297	1.18735
0.544636	1.21573
0.560975	1.23842
0.577314	1.2554
0.593653	1.27808
0.611808	1.29506
0.629962	1.31773
0.648117	1.3347
0.664456	1.35168
0.680795	1.36867
0.69895	1.38564
0.715289	1.39693
0.729812	1.41393
0.747967	1.4252
0.766121	1.44217
0.78246	1.45916
0.800615	1.47043
0.816954	1.48172
0.835109	1.4873
0.851448	1.49289
