Adsorption isotherm of 1-Butanol on Co3(HCOO)6
DOI: 10.1002/adfm.200800058
Adsorbate 1-Butanol: InChIKey LRHPLDYGYMQRHN-UHFFFAOYSA-N
Temperature: 318 K
Tabular data in the source: 0
pressure (bar)	uptake (mmol/g)
0.000221844	0.0733807
0.00036971	0.128416
0.000443629	0.158991
0.000770895	0.311868
0.000939713	0.409709
0.00109777	0.54424
0.00127693	0.691001
0.00154041	0.905028
0.00166672	1.03956
0.00179313	1.15575
0.00185638	1.20467
0.00190901	1.2597
0.00197226	1.30862
0.00207762	1.40035
0.00213029	1.44927
0.0021935	1.5043
0.00224617	1.55322
0.00230939	1.60826
0.0023726	1.6633
0.00243585	1.71222
0.0024991	1.76114
0.00256234	1.81006
0.00261498	1.86509
0.0026889	1.89567
0.00276273	1.94459
0.00283661	1.98128
0.00291044	2.0302
0.00298439	2.05466
0.00307944	2.09135
0.00317455	2.11581
0.00320621	2.13415
0.00331196	2.14638
0.0034071	2.16473
0.00350227	2.17696
0.00360808	2.17696
0.00371386	2.18308
0.00381964	2.18919
0.00391484	2.19531
0.00402062	2.20142
0.00412643	2.20142
0.00423222	2.20754
