Adsorption isotherm of Benzene on Co3(HCOO)6
DOI: 10.1002/adfm.200800058
Adsorbate Benzene: InChIKey UHOVQNZJYSORNB-UHFFFAOYSA-N
Temperature: 313 K
Tabular data in the source: 0
pressure (bar)	uptake (mmol/g)
0.000682247	0.341392
0.00136449	0.735758
0.00227416	0.9712
0.00250157	1.03006
0.00272899	1.08892
0.00318382	1.14778
0.00341123	1.20664
0.00454831	1.44797
0.00773213	1.68341
0.00977887	1.74227
0.0111434	1.78936
0.0125079	1.83645
0.0140998	1.87177
0.022969	2.01303
0.0250157	2.03658
0.0270625	2.05424
0.0291092	2.06601
0.0311559	2.07778
0.0332027	2.08955
0.0352494	2.10721
0.0382058	2.11898
0.04048	2.12487
0.0425267	2.13664
0.0448009	2.14253
0.047075	2.14841
0.0491218	2.14841
0.0513959	2.16019
0.0536701	2.16607
0.0557168	2.17196
0.057991	2.17196
0.0600377	2.16607
0.0620844	2.18373
0.0643586	2.18373
0.0666328	2.18962
0.0689069	2.18962
0.0707262	2.1955
0.072773	2.1955
0.0750471	2.1955
0.0773213	2.20139
0.0795954	2.20727
0.082097	2.20727
0.0843712	2.20727
0.0866453	2.21316
0.0889195	2.21316
0.0911936	2.21316
0.0932404	2.21905
0.0955145	2.21905
0.0977887	2.21905
0.0986984	2.21905
