Adsorption isotherm of Methanol on Co3(HCOO)6
DOI: 10.1002/adfm.200800058
Adsorbate Methanol: InChIKey OKKJLVBELUTLKV-UHFFFAOYSA-N
Temperature: 313 K
Tabular data in the source: 0
pressure (bar)	uptake (mmol/g)
0.00302441	0.492147
0.00357541	0.575559
0.0041264	0.658971
0.00467891	0.734039
0.0052299	0.817451
0.00606396	0.900846
0.00689953	0.975896
0.00773359	1.05929
0.00996482	1.24273
0.0110835	1.31777
0.0122021	1.3928
0.0133207	1.46783
0.0147224	1.54284
0.0161241	1.61786
0.0175274	1.68453
0.0192136	1.75118
0.0208999	1.81783
0.0228678	1.89281
0.0248386	1.9511
0.0268095	2.00939
0.0290649	2.05932
0.0310373	2.10926
0.0332927	2.15919
0.0358328	2.20075
0.0380882	2.25068
0.0406313	2.27555
0.0431713	2.31712
0.0457128	2.35034
0.0471251	2.36694
0.0485359	2.39189
0.051079	2.41676
0.0539051	2.44162
0.0564481	2.46649
0.0589912	2.49137
0.0604095	2.47459
0.0615388	2.49121
0.0635126	2.53281
0.0663403	2.54932
0.0691679	2.56583
0.071711	2.59071
0.0731308	2.56558
0.074257	2.59889
0.0770862	2.60706
0.0796307	2.62359
0.0824584	2.6401
0.0869844	2.65651
0.089812	2.67302
0.0923581	2.68121
0.0951857	2.69772
0.098861	2.72252
0.0999948	2.71411
0.102824	2.72227
0.10537	2.73046
0.108198	2.74697
0.11159	2.77179
0.112727	2.74669
0.115556	2.75486
0.118944	2.80471
