Adsorption isotherm of Ethylbenzene on Co3(HCOO)6
DOI: 10.1002/adfm.200800058
Adsorbate Ethylbenzene: InChIKey YNQLUTRBYVCPMQ-UHFFFAOYSA-N
Temperature: 343 K
Tabular data in the source: 0
pressure (bar)	uptake (mmol/g)
0.000459321	0.0330502
0.000647225	0.0429652
0.000856007	0.0561853
0.00104391	0.0661004
0.00125269	0.0760154
0.00141972	0.0859305
0.00160762	0.0991505
0.00181641	0.109066
0.00200431	0.118981
0.00219221	0.132201
0.00235924	0.142116
0.00254714	0.152031
0.00275593	0.161946
0.00294383	0.171861
0.00315261	0.185081
0.00329876	0.194996
0.00348666	0.204911
0.00369545	0.214826
0.00388335	0.224741
0.00409213	0.234656
0.00423828	0.247876
0.00444706	0.254486
0.00463497	0.267706
0.00482287	0.277621
0.00503165	0.287537
0.00515692	0.297452
0.00534483	0.307367
0.00555361	0.317282
0.00574151	0.330502
0.00592942	0.340417
0.00605468	0.350332
0.00626347	0.356942
0.00645137	0.370162
0.00663927	0.380077
0.00684806	0.389992
0.0069942	0.399907
0.00718211	0.409822
0.00739089	0.423042
0.0075788	0.432957
0.00778758	0.442872
0.00789197	0.452787
0.00807987	0.462702
0.00828865	0.472618
0.00847656	0.482533
