Adsorption isotherm of 1-Propanol on Co3(HCOO)6
DOI: 10.1002/adfm.200800058
Adsorbate 1-Propanol: InChIKey BDERNNFJNOPAEC-UHFFFAOYSA-N
Temperature: 303 K
Tabular data in the source: 0
pressure (bar)	uptake (mmol/g)
0.000334701	0.118729
0.000468581	0.174978
0.000602461	0.231228
0.000736341	0.287477
0.000903691	0.343713
0.000970631	0.387478
0.00110451	0.443727
0.00120492	0.506245
0.0013388	0.562495
0.00143921	0.618757
0.00157309	0.681263
0.0016735	0.737525
0.00177391	0.800044
0.00190779	0.856293
0.0020082	0.918811
0.00210861	0.98133
0.00220902	1.04385
0.00230943	1.10011
0.00240984	1.16263
0.00251025	1.21889
0.00257719	1.28142
0.0026776	1.33769
0.00277801	1.4002
0.00287842	1.46272
0.00297883	1.51898
0.00307924	1.5815
0.00331354	1.72529
0.00341395	1.78156
0.00351436	1.84407
0.00364824	1.90032
0.00374865	1.96284
0.00388253	2.01909
0.00401641	2.07534
0.00415029	2.13159
0.00435111	2.29416
0.00508745	2.30013
0.00538868	2.31878
0.00565644	2.31867
0.00599114	2.3248
0.00629237	2.33094
0.0065936	2.33082
0.0069283	2.33694
0.007263	2.33681
0.00756423	2.3367
0.00769811	2.3429
0.00803281	2.34277
0.00836751	2.34264
0.00866874	2.34878
0.00876915	2.34874
0.00910385	2.34861
0.00943855	2.35473
0.00973978	2.35461
0.0100745	2.35448
0.0104092	2.35435
0.0107439	2.35422
0.0110786	2.36035
0.0114133	2.36021
0.011748	2.36008
0.0119488	2.36
0.0122835	2.35987
0.0126182	2.35974
0.012886	2.35964
0.0131537	2.36579
0.0134884	2.36566
0.0138231	2.36553
0.0139235	2.35923
0.0142248	2.36537
0.0145595	2.36524
0.0148942	2.36511
0.0151285	2.37127
0.0154632	2.37114
0.0157979	2.37101
