Adsorption isotherm of Ethylbenzene on Co3(HCOO)6
DOI: 10.1002/adfm.200800058
Adsorbate Ethylbenzene: InChIKey YNQLUTRBYVCPMQ-UHFFFAOYSA-N
Temperature: 353 K
Tabular data in the source: 0
pressure (bar)	uptake (mmol/g)
0.000396686	0.0198301
0.000730738	0.0297452
0.00110655	0.0396602
0.00135708	0.0495753
0.00156587	0.0561853
0.00175377	0.0627953
0.00196255	0.0694054
0.00215046	0.0760154
0.00233836	0.0826254
0.00254714	0.0859305
0.00273505	0.0925405
0.00294383	0.0991505
0.00313173	0.105761
0.00334052	0.112371
0.0035493	0.118981
0.0037372	0.125591
0.00394598	0.132201
0.00413389	0.138811
0.00434267	0.145421
0.00453057	0.152031
0.00473936	0.155336
0.00492726	0.161946
0.00511516	0.168556
0.00532395	0.175166
0.00551185	0.181776
0.00572063	0.188386
0.00590854	0.194996
0.00611732	0.201606
0.0063261	0.208216
0.00651401	0.214826
0.00672279	0.218131
0.00691069	0.224741
0.00711947	0.231351
0.00730738	0.237961
0.00751616	0.244571
0.00770406	0.251181
0.00791285	0.257791
0.00812163	0.264401
0.00830953	0.271011
0.00851832	0.274316
0.00870622	0.280926
