Adsorption isotherm of P-Xylene on Co3(HCOO)6
DOI: 10.1002/adfm.200800058
Adsorbate P-Xylene: InChIKey URLKBWYHVLBVBO-UHFFFAOYSA-N
Temperature: 303 K
Tabular data in the source: 0
pressure (bar)	uptake (mmol/g)
7.81e-05	0.0449665
0.000175718	0.0946663
0.000331911	0.132533
0.000488105	0.151466
0.000585726	0.162116
0.000663823	0.172766
0.000780968	0.182233
0.000917637	0.195249
0.00105431	0.203533
0.00119098	0.210633
0.00132765	0.218916
0.00146431	0.227199
0.00162051	0.233116
0.0017767	0.239032
0.0019329	0.246132
0.00205004	0.250866
0.00220623	0.256782
0.00238195	0.263882
0.00253815	0.267432
0.00259672	0.270982
0.00277244	0.276899
0.00294815	0.281632
0.0031434	0.289916
0.00331911	0.294649
0.00349483	0.300566
0.0037096	0.306482
0.00388532	0.312399
0.00406103	0.317132
0.00425627	0.324232
0.00443199	0.328966
0.00460771	0.333699
0.00480295	0.339615
0.00497867	0.344349
0.00515439	0.350265
0.00533011	0.353815
0.00536915	0.356182
0.00554487	0.360915
0.00572059	0.366832
0.00591583	0.371565
0.00609155	0.376299
0.00626727	0.382215
0.00646251	0.386949
0.00663823	0.391682
0.00681394	0.397599
0.00697014	0.399965
0.00712633	0.405882
0.00730205	0.410615
0.00747777	0.416532
0.00757539	0.418899
0.00775111	0.423632
0.00792682	0.428365
0.00808302	0.433098
