Adsorption isotherm of Ethanol on Co3(HCOO)6
DOI: 10.1002/adfm.200800058
Adsorbate Ethanol: InChIKey LFQSCWFLJHTTHZ-UHFFFAOYSA-N
Temperature: 403 K
Tabular data in the source: 0
pressure (bar)	uptake (mmol/g)
0.00282028	0.0402808
0.00858904	0.0939884
0.0106402	0.114129
0.0124349	0.140983
0.0137168	0.15441
0.0148706	0.167836
0.0161525	0.181263
0.017819	0.19469
0.0189728	0.214831
0.0202547	0.228258
0.0214085	0.241685
0.0226904	0.261825
0.0238442	0.275252
0.0251261	0.281965
0.0262799	0.302106
0.0275618	0.315533
0.0287156	0.342386
0.0298693	0.342386
0.0310231	0.355813
0.032305	0.36924
0.033587	0.382667
0.0344843	0.396094
0.0356381	0.409521
0.03692	0.422948
0.0380738	0.436375
0.0393557	0.449802
0.0405095	0.463229
0.0417914	0.476656
0.0429452	0.496796
0.0442271	0.510223
0.0453809	0.530363
0.0466628	0.537077
0.0478166	0.550504
0.0490985	0.563931
0.0502523	0.577358
0.051406	0.590784
0.052688	0.604211
0.0538417	0.624352
