Adsorption isotherm of Methanol on Co3(HCOO)6
DOI: 10.1002/adfm.200800058
Adsorbate Methanol: InChIKey OKKJLVBELUTLKV-UHFFFAOYSA-N
Temperature: 363 K
Tabular data in the source: 0
pressure (bar)	uptake (mmol/g)
0.00479849	0.0748018
0.00902782	0.166329
0.0101616	0.157913
0.0127031	0.191133
0.0152432	0.232697
0.0177847	0.265917
0.0203262	0.299136
0.0228678	0.332356
0.0254093	0.365576
0.0279508	0.398795
0.0304939	0.42367
0.0330354	0.45689
0.035577	0.490109
0.03812	0.514984
0.040663	0.539859
0.0432061	0.564734
0.0460307	0.597936
0.0485753	0.614466
0.0511168	0.647686
0.0536598	0.67256
0.0562029	0.697435
0.059029	0.722292
0.0615736	0.738823
0.0641151	0.772042
0.0666582	0.796917
0.0694843	0.821774
0.0720273	0.846649
0.0731566	0.863268
0.0745719	0.863179
0.0771149	0.888054
0.0799426	0.904566
0.0824871	0.921096
0.0853148	0.937609
0.0864455	0.945883
0.0872917	0.962519
0.0901208	0.970687
0.0926639	0.995562
0.09549	1.02042
0.0980345	1.03695
0.100579	1.05348
0.103407	1.06999
0.106234	1.0865
0.108777	1.11138
0.111322	1.12791
0.113868	1.13609
0.116411	1.16097
0.119519	1.19415
