Adsorption isotherm of Ethanol on Co3(HCOO)6
DOI: 10.1002/adfm.200800058
Adsorbate Ethanol: InChIKey LFQSCWFLJHTTHZ-UHFFFAOYSA-N
Temperature: 423 K
Tabular data in the source: 0
pressure (bar)	uptake (mmol/g)
0.00166653	0.0268538
0.00384584	0.0335673
0.00499959	0.0402808
0.00679431	0.0402808
0.00807626	0.0469942
0.0093582	0.0537077
0.0106402	0.0537077
0.0135886	0.0604211
0.0148706	0.0671346
0.0161525	0.0738481
0.0180754	0.0805615
0.0193574	0.0805615
0.0206393	0.087275
0.0219213	0.087275
0.0233314	0.0939884
0.0246134	0.100702
0.0258953	0.100702
0.0271773	0.107415
0.028972	0.107415
0.0302539	0.114129
0.0315359	0.120842
0.0328178	0.120842
0.0346125	0.127556
0.0358945	0.134269
0.0371764	0.134269
0.0384584	0.140983
0.0399967	0.147696
0.0412787	0.147696
0.0425606	0.15441
0.0438425	0.161123
0.0456373	0.161123
0.0469192	0.167836
0.0482012	0.167836
0.0494831	0.17455
0.0506369	0.181263
0.0519188	0.181263
0.0532008	0.181263
0.0542263	0.17455
