Adsorption isotherm of Hydrogen on [HSm{VO(TPPS)}]n
DOI: 10.1039/C1dt10956a
Adsorbate Hydrogen: InChIKey UFHFLCQGNIYNRP-UHFFFAOYSA-N
Temperature: 120 K
Tabular data in the source: 0
pressure (bar)	uptake (mmol/g)
0.189391	0.0920759
0.486533	0.419807
0.661323	0.474429
1.11578	0.753
1.98973	1.08073
2.8462	1.32107
3.79006	1.52317
4.85628	1.74166
5.85258	1.7635
7.2509	1.94922
