Adsorption isotherm of Hydrogen on [HSm{VO(TPPS)}]n
DOI: 10.1039/C1dt10956a
Adsorbate Hydrogen: InChIKey UFHFLCQGNIYNRP-UHFFFAOYSA-N
Temperature: 150 K
Tabular data in the source: 0
pressure (bar)	uptake (mmol/g)
0.154433	0.113925
0.38166	0.15216
0.608886	0.299639
1.50031	0.496278
2.39174	0.709303
3.423	0.92779
4.45426	1.10258
5.36317	1.29376
6.44687	1.2446
7.44317	1.34292
7.88015	1.34838
