Adsorption isotherm of Hydrogen on [HSm{VO(TPPS)}]n
DOI: 10.1039/C1dt10956a
Adsorbate Hydrogen: InChIKey UFHFLCQGNIYNRP-UHFFFAOYSA-N
Temperature: 77 K
Tabular data in the source: 0
pressure (bar)	uptake (mmol/g)
0.416618	1.90552
0.923508	2.00384
1.44788	2.05846
2.67141	2.17317
3.37057	2.18955
4.75141	2.12947
6.28956	1.97107
7.75779	1.86729
