Adsorption isotherm of Nitrogen on [HSm{VO(TPPS)}]n
DOI: 10.1039/C1dt10956a
Adsorbate Nitrogen: InChIKey IJGRMHOSHXDMSA-UHFFFAOYSA-N
Temperature: 77 K
Tabular data in the source: 0
pressure (bar)	uptake (mmol/g)
0.00981525	0.0095507
0.0511094	0.0252818
0.08858	0.0370801
0.123756	0.0488784
0.160462	0.056744
0.194874	0.0606767
0.232345	0.0587104
0.268286	0.0626431
0.304992	0.0626431
0.338639	0.0646095
