Adsorption isotherm of Carbon Dioxide on [HSm{VO(TPPS)}]n
DOI: 10.1039/C1dt10956a
Adsorbate Carbon Dioxide: InChIKey CURLTUGMZLYLDI-UHFFFAOYSA-N
Temperature: 77 K
Tabular data in the source: 0
pressure (bar)	uptake (mmol/g)
0.00140349	0.0292146
0.02358	0.131467
0.0671682	0.312374
0.0946976	0.398895
0.128345	0.485416
0.161227	0.569971
0.191815	0.644694
0.226992	0.711551
0.267521	0.782341
0.305756	0.839366
0.334815	0.864929
0.347815	0.894425
