Adsorption isotherm of Nitrogen on [HSm{VO(TPPS)}]n
DOI: 10.1039/C1dt10956a
Adsorbate Nitrogen: InChIKey IJGRMHOSHXDMSA-UHFFFAOYSA-N
Temperature: 77 K
Tabular data in the source: 0
pressure (bar)	uptake (mmol/g)
0.0193041	0.00162291
0.104514	0.0112364
0.194094	0.0295893
0.331741	0.0593036
0.421321	0.0785305
0.541489	0.111741
0.666027	0.151068
0.836447	0.211371
0.906363	0.245455
0.910733	0.255942
0.956615	0.281287
0.960985	0.291774
0.967539	0.310127
0.998128	0.335472
