Adsorption isotherm of Carbon Dioxide on PFC_C45
DOI: 10.1021/acs.jpcc.5b10552
Article source: Figure 6b
Adsorbate Carbon Dioxide: InChIKey CURLTUGMZLYLDI-UHFFFAOYSA-N
Kind: experiment
Temperature: 273 K
Tabular data in the source: 0
pressure (bar)	uptake (cm3(STP)/g)
0	0
0.284396	6.70843
0.425835	10.9003
0.999946	18.4535
1.28738	21.8112
1.42882	26.0031
2.00598	30.2055
2.43865	33.5667
2.87057	37.7656
3.30325	41.1268
3.44621	43.6434
4.02487	46.1704
4.4568	50.3693
5.17845	55.4129
5.75635	58.7777
6.33502	61.3047
7.63533	68.8754
8.21476	70.5647
9.66031	78.1389
9.94854	80.6589
10.6732	82.3518
11.3956	86.5577
11.975	88.2471
12.9879	92.46
13.5666	94.9871
14.0016	95.8353
15.5938	101.738
16.3178	104.268
17.3306	108.481
19.069	113.549
19.6484	115.239
20.662	118.614
22.5456	123.685
23.2695	126.216
25.0086	130.446
26.8921	135.518
28.0517	138.059
30.66	144.824
32.2561	146.538
33.5602	149.92
