Adsorption isotherm of Carbon Dioxide on RFC_N10
DOI: 10.1021/acs.jpcc.5b10552
Article source: Figure 7b
Adsorbate Carbon Dioxide: InChIKey CURLTUGMZLYLDI-UHFFFAOYSA-N
Kind: experiment
Temperature: 273 K
Tabular data in the source: 0
pressure (bar)	uptake (cm3(STP)/g)
0	0
0.426265	8.45903
0.994621	19.7377
1.42259	26.3144
1.99605	31.9459
2.5695	37.5774
3.28676	44.1462
3.86106	48.8365
4.57916	54.4641
5.29811	59.1505
5.584	62.9074
6.30464	65.7114
7.74339	74.143
9.32766	81.6295
9.90282	85.3786
10.4797	87.2453
11.6317	92.8611
12.6399	97.5396
13.2168	99.4064
13.7937	101.273
15.6672	108.752
16.0994	110.622
17.3978	114.352
18.6953	119.023
19.4159	121.827
20.5714	123.678
22.5912	129.27
23.0235	131.14
24.8995	135.795
26.9194	141.388
27.7855	143.247
30.6733	148.815
32.1163	152.541
33.7048	155.321
