Adsorption isotherm of Nitrogen on RFC_C380
DOI: 10.1021/acs.jpcc.5b10552
Article source: Figure 5a
Adsorbate Nitrogen: InChIKey IJGRMHOSHXDMSA-UHFFFAOYSA-N
Kind: experiment
Temperature: 77 K
Tabular data in the source: 0
pressure (bar)	uptake (cm3(STP)/g)
0	0
0.005143	493.976
0.010287	638.554
0.020574	686.747
0.036004	734.94
0.046291	795.181
0.077151	843.373
0.133729	963.855
0.174876	1048.19
0.221166	1156.63
0.25717	1192.77
0.28803	1253.01
0.329178	1301.2
0.344608	1325.3
0.401185	1361.45
0.462906	1385.54
0.51434	1397.59
0.576061	1421.69
0.658355	1433.73
0.704645	1433.73
0.75608	1445.78
0.807514	1445.78
0.853805	1445.78
0.930956	1469.88
0.96696	1493.98
0.987533	1542.17
0.99782	1662.65
1.00811	1698.8
