Adsorption isotherm of Carbon Dioxide on RFC_C45
DOI: 10.1021/acs.jpcc.5b10552
Article source: Figure 6a
Adsorbate Carbon Dioxide: InChIKey CURLTUGMZLYLDI-UHFFFAOYSA-N
Kind: experiment
Temperature: 273 K
Tabular data in the source: 0
pressure (bar)	uptake (cm3(STP)/g)
0	0
0.549628	10.5317
1.39743	19.978
2.24912	28.3657
3.54222	36.7131
4.9708	48.2227
5.39662	52.4165
5.96963	56.5969
7.25883	66.0028
7.83958	68.0661
9.42309	77.4451
10.2942	80.54
11.599	85.7117
12.6134	89.8518
13.9221	93.9649
15.3662	101.24
16.2374	104.335
16.9653	106.385
18.7154	110.458
19.4394	113.566
20.4616	115.589
22.2039	121.779
23.2222	124.86
26.7263	131.947
27.8917	135.015
30.3658	142.197
31.6822	144.193
33.4323	148.265
