Adsorption isotherm of Carbon Dioxide on RFC_C120
DOI: 10.1021/acs.jpcc.5b10552
Article source: Figure 6a
Adsorbate Carbon Dioxide: InChIKey CURLTUGMZLYLDI-UHFFFAOYSA-N
Kind: experiment
Temperature: 273 K
Tabular data in the source: 0
pressure (bar)	uptake (cm3(STP)/g)
0	0
1.14207	9.41936
2.28804	17.7802
3.73217	25.0555
4.59555	30.2676
5.75319	35.4527
7.63485	43.7462
8.94353	47.8593
9.66365	52.0263
11.1156	57.1845
12.4203	62.3562
13.7329	65.4108
15.6185	72.6457
16.7878	74.6552
18.9676	81.8632
20.2763	85.9764
22.1735	90.0357
23.0447	93.1306
24.3572	96.1852
25.0852	98.235
26.8353	102.308
27.7064	105.403
30.0412	110.48
30.4748	112.557
31.6402	115.625
32.6585	118.706
33.6807	120.729
