Adsorption isotherm of Carbon Dioxide on PFC
DOI: 10.1021/acs.jpcc.5b10552
Article source: Figure 6b
Adsorbate Carbon Dioxide: InChIKey CURLTUGMZLYLDI-UHFFFAOYSA-N
Kind: experiment
Temperature: 273 K
Tabular data in the source: 0
pressure (bar)	uptake (cm3(STP)/g)
0	0
0.139156	6.70493
0.281354	10.0591
0.423551	13.4134
0.709468	18.4464
0.996905	21.8042
1.28358	25.9996
1.57102	29.3573
2.14894	32.722
2.29189	35.2386
2.72533	37.7621
3.30173	42.8022
3.73592	44.4881
4.31462	47.0151
4.60281	49.5352
5.18071	52.8999
5.75941	55.4269
6.33807	57.954
7.35169	61.3292
8.0764	63.0221
9.52421	68.0832
10.2496	68.9384
11.9887	73.1689
12.7134	74.8618
13.873	77.4028
15.9033	80.8026
17.2082	83.3472
18.9488	85.9023
22.5753	91.016
25.042	93.5886
27.2191	95.3165
27.7993	96.1682
30.5566	98.7479
32.1527	100.462
33.6035	102.172
