Adsorption isotherm of Nitrogen on RFC_N10
DOI: 10.1021/acs.jpcc.5b10552
Article source: Figure 5a
Adsorbate Nitrogen: InChIKey IJGRMHOSHXDMSA-UHFFFAOYSA-N
Kind: experiment
Temperature: 77 K
Tabular data in the source: 0
pressure (bar)	uptake (cm3(STP)/g)
0	0
0.005143	349.398
0.020574	373.494
0.092581	409.639
0.169733	421.687
0.298317	421.687
0.344608	421.687
0.411472	421.687
0.483479	421.687
0.529771	421.687
0.601778	421.687
0.658355	421.687
0.720076	421.687
0.786941	421.687
0.864091	421.687
0.925813	433.735
0.982389	445.783
1.00811	445.783
