Adsorption isotherm of Nitrogen on RFC_C45
DOI: 10.1021/acs.jpcc.5b10552
Article source: Figure 5a
Adsorbate Nitrogen: InChIKey IJGRMHOSHXDMSA-UHFFFAOYSA-N
Kind: experiment
Temperature: 77 K
Tabular data in the source: 0
pressure (bar)	uptake (cm3(STP)/g)
0	0
0.005143	349.398
0.020574	397.59
0.03086	409.639
0.046291	421.687
0.066864	421.687
0.082294	433.735
0.128585	445.783
0.180019	445.783
0.25717	445.783
0.354895	457.831
0.447476	457.831
0.565774	457.831
0.689216	457.831
0.766367	457.831
0.822944	457.831
0.889809	457.831
0.925813	457.831
0.961816	457.831
0.977246	469.88
0.992676	481.928
1.00296	518.072
