Adsorption isotherm of Nitrogen on RFC
DOI: 10.1021/acs.jpcc.5b10552
Article source: Figure 5a
Adsorbate Nitrogen: InChIKey IJGRMHOSHXDMSA-UHFFFAOYSA-N
Kind: experiment
Temperature: 77 K
Tabular data in the source: 0
pressure (bar)	uptake (cm3(STP)/g)
0	0
0.005143	180.723
0.020574	180.723
0.061721	192.771
0.154302	204.819
0.221166	192.771
0.293174	204.819
0.411472	204.819
0.457763	192.771
0.529771	204.819
0.617208	204.819
0.72522	204.819
0.786941	204.819
0.853805	204.819
0.894952	204.819
0.925813	204.819
0.96696	216.867
1.00296	228.916
