Adsorption isotherm of Carbon Dioxide on RFC
DOI: 10.1021/acs.jpcc.5b10552
Article source: Figure 6a
Adsorbate Carbon Dioxide: InChIKey CURLTUGMZLYLDI-UHFFFAOYSA-N
Kind: experiment
Temperature: 273 K
Tabular data in the source: 0
pressure (bar)	uptake (cm3(STP)/g)
0	0
0.263136	8.44154
0.828335	14.7391
1.39743	19.978
1.82327	24.1719
2.39626	28.3523
2.96924	32.5327
3.68548	37.7582
4.4056	41.9251
5.27676	45.0201
6.44606	47.0295
7.46045	51.1696
9.6481	56.2605
11.2588	58.2296
12.4242	61.2976
13.1561	62.2889
15.2082	64.2176
17.2526	68.2635
20.7683	72.1748
22.8205	74.1035
25.1708	74.9467
26.7815	76.9158
27.6644	76.8351
30.5954	79.7416
32.0668	79.6071
33.6815	80.5176
