Adsorption isotherm of Carbon Dioxide on RFC_C240
DOI: 10.1021/acs.jpcc.5b10552
Article source: Figure 6a
Adsorbate Carbon Dioxide: InChIKey CURLTUGMZLYLDI-UHFFFAOYSA-N
Kind: experiment
Temperature: 273 K
Tabular data in the source: 0
pressure (bar)	uptake (cm3(STP)/g)
0	0
0.576875	3.12185
1.42467	12.5681
2.02491	9.33863
3.30633	20.8616
3.3219	16.6274
4.92095	21.7722
5.188	29.1552
6.369	27.989
7.51495	36.3498
8.26232	33.1068
10.0046	39.2967
10.1245	46.6931
11.4527	45.5135
12.7458	53.8608
13.3421	51.6899
15.3826	56.7943
15.8007	63.1053
16.9816	61.939
19.0221	67.0434
19.1576	70.2057
20.4818	70.0846
22.801	79.3963
24.5511	83.469
26.8858	88.5465
27.6177	89.5378
30.1034	93.5433
30.5293	97.7371
32.2833	100.751
33.5958	103.806
