Adsorption isotherm of Carbon Dioxide on RFC_N10
DOI: 10.1021/acs.jpcc.5b10552
Article source: Figure 6a
Adsorbate Carbon Dioxide: InChIKey CURLTUGMZLYLDI-UHFFFAOYSA-N
Kind: experiment
Temperature: 273 K
Tabular data in the source: 0
pressure (bar)	uptake (cm3(STP)/g)
0	0
0.394704	12.6623
0.948227	22.1355
1.80381	29.4647
2.21798	36.8342
3.07356	44.1634
3.93302	50.434
4.64536	56.718
5.07511	59.8533
5.79523	64.0203
7.673	73.3724
11.4324	91.018
12.5901	96.2031
13.6084	99.2846
15.4939	106.52
17.093	111.664
18.9785	118.899
20.2911	121.954
22.3277	128.117
24.6586	134.253
26.8462	139.344
27.729	139.263
30.2031	146.444
31.806	150.53
33.7072	153.531
