Adsorption isotherm of Nitrogen on RFC_C240
DOI: 10.1021/acs.jpcc.5b10552
Article source: Figure 5a
Adsorbate Nitrogen: InChIKey IJGRMHOSHXDMSA-UHFFFAOYSA-N
Kind: experiment
Temperature: 77 K
Tabular data in the source: 0
pressure (bar)	uptake (cm3(STP)/g)
0	0
0.005143	493.976
0.010287	566.265
0.01543	602.41
0.025717	650.602
0.041147	698.795
0.056577	734.94
0.077151	771.084
0.087438	807.229
0.108011	843.373
0.128585	879.518
0.149159	903.614
0.169733	939.759
0.200593	987.952
0.231453	1024.1
0.25717	1048.19
0.277744	1060.24
0.293174	1072.29
0.329178	1084.34
0.370325	1108.43
0.396042	1108.43
0.426902	1120.48
0.473193	1120.48
0.524626	1120.48
0.570918	1132.53
0.606922	1132.53
0.653212	1132.53
0.689216	1144.58
0.70979	1144.58
0.745794	1144.58
0.797227	1156.63
0.833231	1156.63
0.858948	1156.63
0.900095	1168.67
0.941242	1168.67
0.972103	1180.72
0.987533	1216.87
0.99782	1265.06
1.00296	1289.16
