Adsorption isotherm of Carbon Dioxide on PFC_C120
DOI: 10.1021/acs.jpcc.5b10552
Article source: Figure 6b
Adsorbate Carbon Dioxide: InChIKey CURLTUGMZLYLDI-UHFFFAOYSA-N
Kind: experiment
Temperature: 273 K
Tabular data in the source: 0
pressure (bar)	uptake (cm3(STP)/g)
0	0
0.576395	5.04009
1.00907	8.40131
1.29727	10.9214
1.87519	14.2861
2.59682	19.3297
3.46369	24.3768
4.7663	29.4344
5.3442	32.7991
5.63163	36.1568
6.06662	37.005
7.65665	45.4204
8.23608	47.1097
9.68465	51.3332
10.1181	53.8567
10.5523	55.5426
11.7104	59.759
12.2891	62.2861
13.013	64.8166
13.8814	68.1884
15.4752	72.4153
16.1984	75.7836
17.212	79.1588
19.0948	85.0681
19.6735	87.5952
20.5426	90.1292
21.5571	92.6668
22.7151	96.8832
23.2946	98.5726
25.0337	102.803
25.6131	104.492
26.9165	108.712
27.9293	112.925
27.9301	112.088
30.3938	118.011
30.6828	119.693
32.2774	123.083
33.2918	125.62
33.726	127.306
