Adsorption isotherm of Carbon Dioxide on RFC_C45
DOI: 10.1021/acs.jpcc.5b10552
Article source: Figure 7b
Adsorbate Carbon Dioxide: InChIKey CURLTUGMZLYLDI-UHFFFAOYSA-N
Kind: experiment
Temperature: 273 K
Tabular data in the source: 0
pressure (bar)	uptake (cm3(STP)/g)
0	0
0.426265	8.45903
0.854231	15.0357
1.13756	21.6162
1.56553	28.1928
2.13984	32.8832
2.57035	36.6362
3.28846	42.2638
3.86533	44.1305
4.29414	49.7659
5.30067	56.3269
6.30975	60.0642
7.46007	67.5624
8.03693	69.4292
9.04433	75.0489
9.61949	78.798
10.7723	83.4726
11.7815	87.21
12.645	91.8924
13.6558	93.7474
15.5293	101.226
16.2483	105.912
17.1144	107.771
18.9905	112.426
19.855	116.168
20.8649	118.964
22.5963	123.623
23.3178	125.485
25.1939	130.14
27.0692	135.737
27.7915	136.658
30.9668	144.102
32.1214	146.894
33.5661	148.737
