Adsorption isotherm of Nitrogen on RFC_C120
DOI: 10.1021/acs.jpcc.5b10552
Article source: Figure 5a
Adsorbate Nitrogen: InChIKey IJGRMHOSHXDMSA-UHFFFAOYSA-N
Kind: experiment
Temperature: 77 K
Tabular data in the source: 0
pressure (bar)	uptake (cm3(STP)/g)
0	0
0.005143	385.542
0.010287	530.12
0.020574	566.265
0.03086	602.41
0.051434	650.602
0.082294	686.747
0.092581	698.795
0.123441	746.988
0.159445	759.036
0.200593	771.084
0.236597	771.084
0.282887	783.133
0.344608	807.229
0.380612	807.229
0.426902	807.229
0.46805	807.229
0.51434	819.277
0.596634	819.277
0.668642	819.277
0.740649	819.277
0.812657	831.325
0.869235	819.277
0.910382	819.277
0.956672	831.325
0.977246	843.373
0.987533	843.373
1.00296	879.518
1.00811	903.614
