Adsorption isotherm of Nitrogen on Cu2(C6H4(PO3H)2)2(C2H4N4)2(H2O)3
DOI: 10.1080/10610278.2010.523119
Adsorbate Nitrogen: InChIKey IJGRMHOSHXDMSA-UHFFFAOYSA-N
Temperature: 77 K
Tabular data in the source: 0
pressure (bar)	uptake (mmol/g)
0.00636943	0.0213625
0.0159236	0.0260904
0.0382166	0.0307881
0.0509554	0.040259
0.0732484	0.0449567
0.0923567	0.0496619
0.111465	0.0543671
0.127389	0.0590798
0.165605	0.0684902
0.207006	0.0802684
0.248408	0.0872959
0.286624	0.0967064
0.347134	0.106064
0.388535	0.115467
0.429936	0.120119
0.471338	0.129522
0.506369	0.13894
0.547771	0.143592
0.585987	0.155378
0.605096	0.157708
0.649682	0.169478
0.691083	0.181256
0.732484	0.193034
0.770701	0.211946
0.802548	0.235623
0.812102	0.242727
0.847134	0.2949
