Adsorption isotherm of Carbon Dioxide on Cu2(C6H4(PO3H)2)2(C2H4N4)2(H2O)3
DOI: 10.1080/10610278.2010.523119
Adsorbate Carbon Dioxide: InChIKey CURLTUGMZLYLDI-UHFFFAOYSA-N
Temperature: 273 K
Tabular data in the source: 0
pressure (bar)	uptake (mmol/g)
0.00636943	0.0308637
0.0318471	0.0735586
0.0605096	0.101994
0.0828025	0.120943
0.0987261	0.144659
0.117834	0.16124
0.140127	0.18019
0.152866	0.192036
0.175159	0.20861
0.197452	0.227559
0.254777	0.270179
0.27707	0.286753
0.292994	0.298591
0.315287	0.315166
0.33121	0.324629
0.353503	0.341203
0.363057	0.348306
0.388535	0.362498
0.436306	0.376636
0.493631	0.386001
0.509554	0.395464
0.544586	0.402507
0.579618	0.40955
0.61465	0.418968
0.646497	0.428393
0.684713	0.437804
0.72293	0.444839
0.757962	0.454257
0.792994	0.463675
0.83121	0.47546
0.866242	0.480128
0.901274	0.489546
0.936306	0.496588
0.974522	0.505999
1.00955	0.513041
1.04459	0.520084
