Adsorption isotherm of Hydrogen on Cu2(C6H4(PO3H)2)2(C2H4N4)2(H2O)3
DOI: 10.1080/10610278.2010.523119
Adsorbate Hydrogen: InChIKey UFHFLCQGNIYNRP-UHFFFAOYSA-N
Temperature: 77 K
Tabular data in the source: 0
pressure (bar)	uptake (mmol/g)
0.00955414	0.0047279
0.0318471	0.0118008
0.0605096	0.0164834
0.0796178	0.0188133
0.101911	0.0235109
0.117834	0.0258484
0.146497	0.0281556
0.16879	0.0281026
0.200637	0.0327776
0.235669	0.0350697
0.267516	0.0373693
0.299363	0.039669
0.334395	0.0419611
0.366242	0.046636
0.398089	0.0489357
0.429936	0.0512353
0.468153	0.0511445
0.503185	0.0558119
0.538217	0.058104
0.570064	0.0604036
0.601911	0.0650786
0.636943	0.0649954
0.665605	0.0696779
0.707006	0.0743302
0.732484	0.0813955
0.773885	0.0836725
0.802548	0.088355
0.83758	0.0882718
0.866242	0.0929543
0.901274	0.0952464
0.933121	0.097546
0.971338	0.102206
1.03503	0.106805
1.06688	0.113855
1.09873	0.11853
1.13694	0.125565
