Adsorption isotherm of Water on UiO-66
DOI: 10.1039/C4cc04945d
Adsorbate Water: InChIKey XLYOFNOQVPJJNP-UHFFFAOYSA-N
Temperature: 298 K
Tabular data in the source: 0
pressure (bar)	uptake (mmol/g)
6.94649e-05	0.209108
0.000552129	0.628467
0.000760166	1.15135
0.0014523	2.51136
0.00228301	4.18514
0.00304174	4.91873
0.00380227	6.17452
0.00463442	8.26606
0.00695007	21.9552
0.00929393	23.8429
0.011563	23.9549
0.013833	24.3802
0.0160337	24.5964
0.0183023	24.6039
0.0206404	24.8206
0.0228407	24.9323
0.0251777	24.8357
0.0274478	25.261
0.0297161	25.1641
