Adsorption isotherm of Water on UiO-66
DOI: 10.1039/C4cc04945d
Adsorbate Water: InChIKey XLYOFNOQVPJJNP-UHFFFAOYSA-N
Temperature: 298 K
Tabular data in the source: 0
pressure (bar)	uptake (mmol/g)
0.000138212	0.209337
0.00151495	0.736107
0.00474855	1.47793
0.0111869	14.5542
0.0173899	19.1701
0.0237873	20.3402
0.0299757	20.6741
