Adsorption isotherm of Carbon Dioxide on UiO-66
DOI: 10.1039/C4cc04945d
Adsorbate Carbon Dioxide: InChIKey CURLTUGMZLYLDI-UHFFFAOYSA-N
Temperature: 300 K
Tabular data in the source: 0
pressure (bar)	uptake (mmol/g)
0.0852482	0.163066
0.385401	1.07199
0.597599	1.30473
0.852605	1.65399
1.02261	1.88683
1.19237	2.07302
1.44627	2.21237
1.65797	2.35182
1.78554	2.53811
2.12407	2.72391
5.04355	4.25646
9.98782	5.69099
15.0133	6.51892
19.9946	6.97377
