Adsorption isotherm of Water on UiO-66
DOI: 10.1039/C4cc04945d
Adsorbate Water: InChIKey XLYOFNOQVPJJNP-UHFFFAOYSA-N
Temperature: 298 K
Tabular data in the source: 0
pressure (bar)	uptake (mmol/g)
1.07697e-06	0.31332
0.00351148	1.57825
0.00654316	3.57267
0.00975759	18.727
0.0128548	19.7816
0.0158131	20.4181
0.0187713	21.0546
0.021866	21.3782
0.0250305	22.0153
0.028136	25.4721
