Adsorption isotherm of Carbon Dioxide on UiO-66
DOI: 10.1039/C4cc04945d
Adsorbate Carbon Dioxide: InChIKey CURLTUGMZLYLDI-UHFFFAOYSA-N
Temperature: 300 K
Tabular data in the source: 0
pressure (bar)	uptake (mmol/g)
1.45143	3.19195
1.7479	3.40117
2.21387	3.74994
2.8068	4.16838
3.48386	4.53998
4.41458	5.00428
5.6409	5.51454
8.30328	6.30133
10.6266	6.80903
14.3007	7.40688
18.4379	7.81705
