Adsorption isotherm of Water on UiO-66
DOI: 10.1039/C4cc04945d
Adsorbate Water: InChIKey XLYOFNOQVPJJNP-UHFFFAOYSA-N
Temperature: 298 K
Tabular data in the source: 0
pressure (bar)	uptake (mmol/g)
0.00233812	0.21665
0.00453803	0.223963
0.00687542	0.231733
0.00914408	0.239275
0.0114815	0.247045
0.0137497	0.150147
0.01595	0.261899
0.0182187	0.269441
0.0204877	0.381423
0.0228254	0.493632
0.0251551	18.2559
0.0274252	18.6812
0.0297619	18.4801
