Adsorption isotherm of Water on UiO-66
DOI: 10.1039/C4cc04945d
Adsorbate Water: InChIKey XLYOFNOQVPJJNP-UHFFFAOYSA-N
Temperature: 298 K
Tabular data in the source: 0
pressure (bar)	uptake (mmol/g)
7.19779e-05	0.940187
0.000279655	1.35863
0.000761243	1.46467
0.00151925	1.98938
0.00228516	4.81177
0.00308374	17.1382
0.00384104	17.454
0.00466778	17.979
0.006949	21.6419
0.00922413	23.5294
0.0114272	24.4766
0.0137657	24.7977
0.0161035	24.9099
0.0183041	25.1261
0.0207095	24.9252
0.0229102	25.1414
0.0251792	25.2534
0.0274485	25.4698
0.0297855	25.3732
