Adsorption isotherm of Carbon Dioxide on UiO-66
DOI: 10.1039/C4cc04945d
Adsorbate Carbon Dioxide: InChIKey CURLTUGMZLYLDI-UHFFFAOYSA-N
Temperature: 300 K
Tabular data in the source: 0
pressure (bar)	uptake (mmol/g)
0.0916449	1.37588
0.221547	2.00531
0.266078	2.44836
0.394135	2.72794
0.521946	2.96088
0.649756	3.19382
0.735128	3.38021
0.863062	3.63647
0.990995	3.89273
1.16051	4.03228
1.37283	4.28834
1.62759	4.59096
1.88173	4.77695
1.96661	4.87005
3.02514	5.56729
3.99818	6.05481
5.01279	6.42563
6.02716	6.74979
7.04091	6.95734
8.05467	7.16489
8.98354	7.27934
9.99705	7.44024
11.0524	7.53107
12.0655	7.622
13.0363	7.68971
14.0495	7.78064
15.0624	7.82493
16.0332	7.89263
17.046	7.9136
18.0588	7.95788
19.0295	8.00226
