Adsorption isotherm of Carbon Dioxide on UiO-66
DOI: 10.1039/C4cc04945d
Adsorbate Carbon Dioxide: InChIKey CURLTUGMZLYLDI-UHFFFAOYSA-N
Temperature: 300 K
Tabular data in the source: 0
pressure (bar)	uptake (mmol/g)
0.0904148	1.14265
0.178246	1.7955
0.265094	2.26177
0.393643	2.63465
0.521946	2.96088
0.607563	3.19392
0.735497	3.45018
0.863062	3.63647
0.864169	3.84638
1.0338	4.00925
1.11918	4.19564
1.28881	4.35851
1.37394	4.49825
1.5015	4.68454
1.62931	4.91748
1.92565	5.10338
2.01078	5.24312
3.0276	6.03375
4.04296	6.54451
5.01513	6.86877
6.02938	7.16961
7.00118	7.4239
8.05688	7.58471
9.02819	7.74571
10.0836	7.85986
11.0546	7.95089
12.0254	8.0186
13.0387	8.13285
14.0517	8.20046
15.0647	8.26807
16.0776	8.31236
17.006	8.33351
18.019	8.40112
19.074	8.42198
