Adsorption isotherm of Carbon Dioxide on UiO-66
DOI: 10.1039/C4cc04945d
Adsorbate Carbon Dioxide: InChIKey CURLTUGMZLYLDI-UHFFFAOYSA-N
Temperature: 300 K
Tabular data in the source: 0
pressure (bar)	uptake (mmol/g)
0.00073808	0.13994
0.171604	0.536043
0.854574	2.02716
1.23653	2.4461
2.21067	3.14353
3.39677	4.02706
4.70797	4.63042
7.03304	5.46465
8.34326	5.88142
10.0752	6.25055
13.2002	6.75638
14.9736	6.98548
16.6622	7.14481
18.2239	7.25779
