Adsorption isotherm of Water on UiO-66
DOI: 10.1039/C4cc04945d
Adsorbate Water: InChIKey XLYOFNOQVPJJNP-UHFFFAOYSA-N
Temperature: 298 K
Tabular data in the source: 0
pressure (bar)	uptake (mmol/g)
0.000964628	0.634702
0.0019962	0.746291
0.00316636	1.17294
0.00399241	1.49258
0.00495669	2.02257
0.00606204	3.60062
0.00785271	4.55496
0.00861002	4.87415
0.00985074	5.82483
0.0104054	7.18978
0.0107556	9.07693
0.010896	9.91556
0.0111058	10.9641
0.0113156	12.0126
0.0113891	13.3743
0.0115989	14.4229
0.0116029	15.5747
0.0117451	16.9369
0.0120272	19.0331
0.0123771	20.8155
0.0147876	22.0881
0.0181588	22.8436
0.0196032	23.0626
0.0212535	23.1783
0.0230409	23.1902
0.0270989	23.7408
0.0294366	23.8611
0.0308127	24.1845
