Adsorption isotherm of Carbon Dioxide on UiO-66
DOI: 10.1039/C4cc04945d
Adsorbate Carbon Dioxide: InChIKey CURLTUGMZLYLDI-UHFFFAOYSA-N
Temperature: 300 K
Tabular data in the source: 0
pressure (bar)	uptake (mmol/g)
0.0879545	0.67618
0.259189	1.14225
0.345298	1.46858
0.473601	1.79481
0.517025	2.02795
0.687029	2.26079
0.688137	2.4707
0.900458	2.72676
1.07059	2.98293
1.28291	3.23899
1.4951	3.47173
1.91864	3.77395
3.01875	4.35448
3.99117	4.72539
5.00504	4.95626
6.0188	5.1638
6.99011	5.3248
8.04569	5.46228
9.0587	5.52989
9.98733	5.5977
11.0427	5.68853
12.0135	5.75624
13.0684	5.7771
13.9548	5.82168
15.0097	5.84254
15.9805	5.91025
17.0354	5.90779
18.0481	5.92875
19.0187	5.94981
