Adsorption isotherm of Nitrogen on TTZ-2
DOI: 10.1016/j.eurpolymj.2014.12.018
Article source: Figure 3
Adsorbate Nitrogen: InChIKey IJGRMHOSHXDMSA-UHFFFAOYSA-N
Kind: experiment
Temperature: 77 K
Tabular data in the source: 0
pressure (bar)	uptake (cm3(STP)/g)
0	0
0.045872	3.43348
0.095012	6.86695
0.147435	10.7296
0.196561	13.7339
0.199774	12.0172
0.248887	14.5923
0.248942	16.309
0.298056	18.8841
0.301282	17.5966
0.353718	21.8884
0.406114	24.8927
0.451916	26.1803
0.45524	27.897
0.504297	28.7554
0.504381	31.3305
0.553521	34.7639
0.556663	30.9013
0.605916	37.7682
0.609128	36.0515
0.658325	41.2017
0.661509	38.6266
0.710622	41.2017
0.762961	42.4893
0.763058	45.4936
0.812199	48.927
0.864566	51.073
0.864637	53.2189
0.913706	54.5064
0.917073	57.5107
0.962974	61.8026
0.969384	57.9399
1.01324	99.5708
