Adsorption isotherm of Nitrogen on Tp-Tta
DOI: 10.1021/jacs.7b06640
Article source: Figure 2 (c)
Adsorbate Nitrogen: InChIKey IJGRMHOSHXDMSA-UHFFFAOYSA-N
Kind: experiment
Temperature: 77 K
Tabular data in the source: 0
pressure (bar)	uptake (cm3(STP)/g)
0	5.65371
0	16.9611
0	26.384
0	33.9223
0	45.2297
0.006485	58.4217
0.025949	64.0754
0.060977	71.6137
0.086927	75.3828
0.111579	79.1519
0.137518	83.8634
0.162171	86.6902
0.189417	91.4016
0.214069	94.2285
0.238722	97.9976
0.264661	101.767
0.29061	105.536
0.313966	107.42
0.339915	112.132
0.367161	114.959
0.391804	118.728
0.41905	122.497
0.441108	126.266
0.465761	129.093
0.49171	133.804
0.517649	137.574
0.544895	142.285
0.570845	143.227
0.599388	148.881
0.62015	151.708
0.653881	156.419
0.669444	158.304
0.697987	163.958
0.721343	165.842
0.747292	169.611
0.770637	175.265
0.799181	179.976
0.822536	185.63
0.848485	190.342
0.871841	195.995
0.900374	203.534
0.921135	209.187
0.947085	218.61
0.971737	231.802
0.996379	254.417
0.024652	93.2862
0.040216	96.1131
0.063571	101.767
0.088224	105.536
0.112876	109.305
0.137518	113.074
0.163468	116.843
0.190714	119.67
0.215366	122.497
0.241316	126.266
0.267255	130.035
0.291907	132.862
0.317857	135.689
0.342509	137.574
0.368458	141.343
0.394397	144.17
0.422941	147.939
0.443702	150.766
0.468355	153.592
0.495601	156.419
0.524144	160.188
0.546192	163.958
0.572142	165.842
0.596794	168.669
0.62015	171.496
0.648683	175.265
0.669444	176.207
0.697987	180.919
0.723937	184.688
0.747292	187.515
0.775835	191.284
0.799181	194.111
0.822536	199.764
0.852376	203.534
0.874435	209.187
0.900374	216.726
0.934115	226.148
0.954867	238.398
0.980816	260.071
0.997686	277.974
1.01195	286.455
