Adsorption isotherm of Nitrogen on Tp-Bpy
DOI: 10.1021/jacs.7b06640
Article source: Figure 2 (c)
Adsorbate Nitrogen: InChIKey IJGRMHOSHXDMSA-UHFFFAOYSA-N
Kind: experiment
Temperature: 77 K
Tabular data in the source: 0
pressure (bar)	uptake (cm3(STP)/g)
0	-1.88457
0.023355	229.918
0.049305	265.724
0.075244	295.878
0.098599	331.684
0.127143	358.068
0.160874	367.491
0.181635	373.145
0.208881	376.914
0.23093	380.683
0.256879	386.337
0.285422	390.106
0.312669	393.875
0.337321	396.702
0.369755	398.587
0.38921	405.183
0.417753	407.067
0.443702	410.836
0.474839	410.836
0.493007	416.49
0.52154	416.49
0.552677	422.144
0.578627	424.028
0.604576	425.913
0.62015	428.74
0.647386	431.567
0.674632	433.451
0.703175	438.163
0.723937	442.874
0.755074	448.528
0.775835	448.528
0.804369	456.066
0.827724	459.835
0.853673	467.373
0.877029	474.912
0.905572	484.335
0.97044	552.179
1.00417	693.522
1.01066	879.152
0.046701	277.032
0.08563	324.146
0.123252	366.549
0.159577	380.683
0.199793	390.106
0.233524	395.76
0.27375	401.413
0.313966	407.067
0.356775	412.721
0.390507	414.605
0.429436	420.259
0.470948	424.028
0.518946	431.567
0.55138	434.393
0.596794	440.047
0.629228	443.816
0.672038	450.412
0.712254	455.124
0.75248	461.72
0.799181	469.258
0.8381	473.027
0.877029	484.335
0.906869	497.526
0.960054	638.869
1.01066	880.094
