Adsorption isotherm of Nitrogen on Tp-Azo
DOI: 10.1021/jacs.7b06640
Article source: Figure 2 (c)
Adsorbate Nitrogen: InChIKey IJGRMHOSHXDMSA-UHFFFAOYSA-N
Kind: experiment
Temperature: 77 K
Tabular data in the source: 0
pressure (bar)	uptake (cm3(STP)/g)
0.028543	122.497
0.051899	139.458
0.076541	155.477
0.106381	169.611
0.137518	177.15
0.441108	222.379
0.469652	224.264
0.493007	228.033
0.518946	231.802
0.544895	234.629
0.568251	239.34
0.5942	242.167
0.62015	243.11
0.651287	244.052
0.674632	246.879
0.695393	250.648
0.718749	254.417
0.747292	260.071
0.770637	263.84
0.796587	267.609
0.822536	269.494
0.845891	273.263
0.871841	277.974
0.89778	283.628
0.926323	290.224
0.947085	298.704
0.020761	135.689
0.045404	154.535
0.552677	248.763
0.643495	256.302
0.963945	323.204
0.988598	340.165
1.00028	351.472
1.00806	356.184
