Adsorption isotherm of Nitrogen on Tp-Ttba
DOI: 10.1021/jacs.7b06640
Article source: Figure 2 (c)
Adsorbate Nitrogen: InChIKey IJGRMHOSHXDMSA-UHFFFAOYSA-N
Kind: experiment
Temperature: 77 K
Tabular data in the source: 0
pressure (bar)	uptake (cm3(STP)/g)
0	48.9988
0	67.8445
0	82.9211
0	103.651
0.005188	111.19
0.007782	120.612
0.025949	141.343
0.057087	163.958
0.086927	173.38
0.112876	177.15
0.138815	182.803
0.163468	186.572
0.189417	190.342
0.214069	194.111
0.241316	197.88
0.264661	201.649
0.289313	204.476
0.31656	209.187
0.339915	211.072
0.367161	215.783
0.3931	218.61
0.416456	221.437
0.441108	225.206
0.468355	228.033
0.493007	230.86
0.518946	234.629
0.546192	238.398
0.573439	241.225
0.5942	244.994
0.625337	248.763
0.662959	254.417
0.673335	256.302
0.695393	260.071
0.720046	263.84
0.744698	267.609
0.76934	272.32
0.796587	277.032
0.822536	280.801
0.848485	284.57
0.871841	288.339
0.89778	292.108
0.923729	297.762
0.947085	303.416
0.975628	311.896
1.00158	318.492
0.022058	158.304
0.041513	173.38
0.063571	187.515
0.088224	194.111
0.114173	199.764
0.140112	204.476
0.164765	208.245
0.190714	212.014
0.216663	216.726
0.241316	219.552
0.265958	223.322
0.29061	226.148
0.31656	229.918
0.342509	231.802
0.368458	235.571
0.3931	238.398
0.417753	241.225
0.447593	244.994
0.468355	246.879
0.495601	250.648
0.520243	255.359
0.544895	263.84
0.570845	265.724
0.596794	268.551
0.621446	271.378
0.646089	273.263
0.677226	277.032
0.697987	278.916
0.723937	282.686
0.749886	284.57
0.775835	287.397
0.799181	290.224
0.827724	295.878
0.851079	297.762
0.877029	300.589
0.901671	303.416
0.926323	307.185
0.952273	310.954
0.975628	314.723
0.998983	320.377
1.02233	325.088
