Adsorption isotherm of Nitrogen on PTSA mediated
DOI: 10.1021/jacs.7b06640
Article source: Figure S18
Adsorbate Nitrogen: InChIKey IJGRMHOSHXDMSA-UHFFFAOYSA-N
Kind: experiment
Temperature: 77 K
Tabular data in the source: 0
pressure (bar)	uptake (cm3(STP)/g)
0	1.12994
0.025068	229.379
0.052061	267.797
0.074231	294.915
0.098336	331.073
0.129189	355.932
0.160033	367.232
0.183175	374.011
0.208243	378.531
0.230413	380.791
0.256443	385.311
0.286334	389.831
0.31429	393.22
0.338395	396.61
0.370211	398.87
0.390456	402.26
0.419374	405.65
0.444442	409.04
0.475295	412.429
0.492642	415.819
0.523496	416.949
0.551451	421.469
0.577482	424.859
0.604475	427.119
0.619906	428.249
0.647862	430.508
0.674855	433.898
0.703783	439.548
0.724991	444.068
0.753909	446.328
0.776089	448.588
0.804044	455.367
0.828149	459.887
0.853217	466.667
0.878275	474.576
0.904305	482.486
0.971798	552.542
1.00554	693.785
1.01229	880.226
0.046275	276.836
0.086765	324.294
0.123404	367.232
0.160033	380.791
0.19957	390.96
0.233311	396.61
0.2738	401.13
0.316215	406.78
0.357677	412.429
0.391418	415.819
0.429983	419.209
0.472397	423.729
0.520608	430.508
0.552424	433.898
0.597726	439.548
0.629542	444.068
0.674855	448.588
0.713419	455.367
0.753909	459.887
0.799221	470.056
0.839711	473.446
0.877312	482.486
0.908166	496.045
0.961189	638.418
1.01133	880.226
