Adsorption isotherm of Nitrogen on PTSA
DOI: 10.1021/jacs.7b06640
Article source: Figure S18
Adsorbate Nitrogen: InChIKey IJGRMHOSHXDMSA-UHFFFAOYSA-N
Kind: experiment
Temperature: 77 K
Tabular data in the source: 0
pressure (bar)	uptake (cm3(STP)/g)
0	12.4294
0	23.7288
0	35.0283
0.00386	44.0678
0.007711	55.3672
0.02603	66.6667
0.061697	80.226
0.089662	91.5254
0.113758	100.565
0.138825	111.864
0.164856	122.034
0.191849	128.814
0.216917	133.333
0.241984	140.113
0.267052	144.633
0.293083	148.023
0.31815	152.542
0.344181	157.062
0.370211	161.582
0.395269	164.972
0.420337	169.492
0.445404	172.881
0.471435	177.401
0.496503	181.921
0.52157	185.311
0.547601	189.831
0.572669	193.22
0.597726	196.61
0.622794	200
0.647862	204.52
0.67293	209.04
0.699923	211.299
0.724028	216.949
0.750058	220.339
0.775126	222.599
0.800184	227.119
0.825252	229.379
0.852245	236.158
0.877312	238.418
0.90238	240.678
0.927448	247.458
0.952516	250.847
0.977584	254.237
0.99493	258.757
1.00458	261.017
0.023143	87.0057
0.036639	94.9153
0.06267	103.955
0.087727	114.124
0.115693	123.164
0.139788	135.593
0.163893	144.633
0.188961	150.282
0.214029	154.802
0.239097	160.452
0.264154	163.842
0.289222	168.362
0.313327	172.881
0.339358	175.141
0.365388	179.661
0.389493	181.921
0.414551	186.441
0.440581	190.96
0.466612	195.48
0.49168	196.61
0.51771	200
0.542778	204.52
0.566883	206.78
0.591951	211.299
0.617981	213.559
0.643039	218.079
0.669069	220.339
0.694137	224.859
0.719205	227.119
0.744273	229.379
0.770303	231.638
0.796333	233.898
0.821401	237.288
0.844534	240.678
0.871527	245.198
0.895632	248.588
0.921662	251.977
0.94673	254.237
0.973723	256.497
0.99493	258.757
1.02386	262.147
