Adsorption isotherm of N-Butane on silicate-1
DOI: 10.1016/j.memsci.2017.06.009
Article source: Figure 4
Adsorbate N-Butane: InChIKey IJDNQMDRQITEOD-UHFFFAOYSA-N
Kind: experiment
Temperature: 298 K
Tabular data in the source: 0
pressure (bar)	uptake (cm3(STP)/g)
0.00093	2.415
0.00797	12.332
0.06006	20.997
0.19479	27.108
0.38231	31.685
0.621	35.242
0.89276	37.376
1.07021	38.479
