Adsorption isotherm of Isobutane on silicate-1
DOI: 10.1016/j.memsci.2017.06.009
Article source: Figure 4
Adsorbate Isobutane: InChIKey NNPPMTNAJDCUHE-UHFFFAOYSA-N
Kind: experiment
Temperature: 298 K
Tabular data in the source: 0
pressure (bar)	uptake (cm3(STP)/g)
0.02345	1.695
0.11851	8.338
0.20639	14.728
0.29301	20.826
0.37161	25.501
0.53265	32.865
0.71678	35.467
0.93028	36.765
1.08537	37.444
