Adsorption isotherm of Hydrogen on MOF-177
DOI: 10.1039/B922991d
Adsorbate Hydrogen: InChIKey UFHFLCQGNIYNRP-UHFFFAOYSA-N
Temperature: 77 K
Tabular data in the source: 0
pressure (bar)	uptake (wt%)
4.67153	2.8685
6.618	3.44648
10.5109	4.36697
15.5718	5.0948
20.6326	5.58716
25.3041	5.86544
30.365	6.10092
35.8151	6.22936
40.4866	6.25076
51.7762	6.27217
60.3406	6.16514
69.6837	6.0367
80.9732	5.80122
90.7056	5.60856
100.438	5.4159
114.842	5.15902
