Adsorption isotherm of Hydrogen on MOF-177
DOI: 10.1039/B922991d
Adsorbate Hydrogen: InChIKey UFHFLCQGNIYNRP-UHFFFAOYSA-N
Temperature: 77 K
Tabular data in the source: 0
pressure (bar)	uptake (wt%)
12.7653	5.57065
15.0992	6.15761
17.0527	6.45109
19.3973	6.79348
21.7397	7.18478
23.6975	7.38043
26.0421	7.72283
28.3931	7.91848
32.6975	8.40761
37.4017	8.75
39.3594	8.94565
41.3172	9.1413
47.9855	9.53261
52.6896	9.875
58.1824	10.1685
61.3199	10.3641
67.2081	10.6087
71.1321	10.8043
77.0182	11.0978
80.9465	11.1957
86.0503	11.3913
90.7609	11.587
96.2622	11.6848
100.58	11.8804
105.683	12.0761
110.791	12.1739
