Adsorption isotherm of Hydrogen on MOF-177
DOI: 10.1039/B922991d
Adsorbate Hydrogen: InChIKey UFHFLCQGNIYNRP-UHFFFAOYSA-N
Temperature: 77 K
Tabular data in the source: 0
pressure (bar)	uptake (wt%)
6.24664	1.75543
9.75818	2.3913
11.3227	2.58696
16.0247	2.97826
21.1263	3.22283
26.2259	3.5163
30.9343	3.76087
35.6427	4.00543
41.1462	4.05435
49.3939	4.29891
59.2211	4.39674
70.6085	4.78804
78.4737	4.78804
90.2629	4.9837
101.266	5.17935
108.735	5.22826
118.962	5.17935
127.605	5.375
