Adsorption isotherm of Hydrogen on MOF-177
DOI: 10.1039/B922991d
Adsorbate Hydrogen: InChIKey UFHFLCQGNIYNRP-UHFFFAOYSA-N
Temperature: 77 K
Tabular data in the source: 0
pressure (bar)	uptake (wt%)
1.16788	0.192661
1.94647	0.428135
2.33577	0.899083
3.11436	0.642202
4.67153	1.13456
6.22871	1.43425
8.56448	1.69113
10.9002	1.88379
14.7932	2.18349
20.2433	2.39755
24.5255	2.5474
29.9757	2.63303
35.4258	2.71865
40.8759	2.71865
49.8297	2.74006
59.562	2.65443
70.4623	2.59021
72.0195	2.59021
79.0268	2.52599
91.4842	2.44037
102.774	2.33333
110.56	2.24771
112.506	2.29052
120.292	2.16208
129.635	2.11927
