Adsorption isotherm of Hydrogen on MOF-177
DOI: 10.1039/B922991d
Adsorbate Hydrogen: InChIKey UFHFLCQGNIYNRP-UHFFFAOYSA-N
Temperature: 77 K
Tabular data in the source: 0
pressure (bar)	uptake (wt%)
3.84007	2.83152
6.91561	4.44565
11.156	6.40217
21.2589	9.19022
39.6031	12.3696
56.7974	14.8641
85.7596	18.0435
118.276	20.8804
