Adsorption isotherm of Hydrogen on MOF-177
DOI: 10.1039/B922991d
Adsorbate Hydrogen: InChIKey UFHFLCQGNIYNRP-UHFFFAOYSA-N
Temperature: 77 K
Tabular data in the source: 0
pressure (bar)	uptake (wt%)
2.72506	1.96942
6.22871	3.38226
10.1217	4.79511
20.6326	6.27217
38.9294	6.97859
58.0049	6.87156
88.3698	6.29358
121.071	5.60856
