Adsorption isotherm of Hydrogen on MOF-177
DOI: 10.1039/B922991d
Adsorbate Hydrogen: InChIKey UFHFLCQGNIYNRP-UHFFFAOYSA-N
Temperature: 77 K
Tabular data in the source: 0
pressure (bar)	uptake (wt%)
5.45012	1.24159
8.17518	1.79817
12.4574	2.07645
15.1825	2.31193
19.4647	2.48318
23.747	2.65443
32.7007	2.82569
42.0438	2.88991
52.5547	2.88991
59.562	2.8685
65.7908	2.78287
69.2944	2.80428
82.5304	2.61162
86.0341	2.61162
91.8735	2.56881
97.3236	2.50459
99.6594	2.48318
105.888	2.39755
123.017	2.2263
127.689	2.11927
