Adsorption isotherm of Hydrogen on MOF-177
DOI: 10.1039/B922991d
Adsorbate Hydrogen: InChIKey UFHFLCQGNIYNRP-UHFFFAOYSA-N
Temperature: 77 K
Tabular data in the source: 0
pressure (bar)	uptake (wt%)
7.78589	2.82569
9.73236	3.10398
15.1825	3.74618
19.854	4.06728
25.6934	4.36697
30.365	4.51682
34.2579	4.53823
34.6472	4.53823
39.708	4.60245
49.4404	4.62385
59.562	4.53823
79.0268	4.34557
100.827	4.02446
128.467	3.66055
