Adsorption isotherm of Hydrogen on MOF-177
DOI: 10.1039/B922991d
Adsorbate Hydrogen: InChIKey UFHFLCQGNIYNRP-UHFFFAOYSA-N
Temperature: 77 K
Tabular data in the source: 0
pressure (bar)	uptake (wt%)
6.16543	3.61413
16.2726	6.30435
20.9575	7.08696
25.6531	7.625
31.1309	8.26087
35.4397	8.65217
40.5349	9.04348
51.5141	9.77717
59.7554	10.1685
68.779	10.6576
80.1643	11.0978
89.9808	11.4402
98.6175	11.7826
109.218	12.1739
112.758	12.1739
