Adsorption isotherm of Hydrogen on MOF-177
DOI: 10.1039/B922991d
Adsorbate Hydrogen: InChIKey UFHFLCQGNIYNRP-UHFFFAOYSA-N
Temperature: 77 K
Tabular data in the source: 0
pressure (bar)	uptake (wt%)
6.17825	3.32065
7.73205	3.76087
9.6791	4.20109
10.8396	4.6413
12.7888	5.03261
17.4716	5.86413
21.7718	6.45109
26.8628	6.94022
30.385	7.33152
36.6579	7.77174
39.7954	7.96739
42.9308	8.21196
48.8169	8.50543
52.3476	8.70109
55.4873	8.84783
59.0202	8.99457
62.551	9.19022
66.4772	9.33696
70.0101	9.4837
73.9384	9.58152
77.4713	9.72826
81.0064	9.82609
84.9347	9.92391
88.4676	10.0707
92.0026	10.1685
95.9309	10.2663
99.4681	10.3152
103.396	10.413
106.931	10.5109
110.86	10.6087
114.79	10.6576
118.325	10.7554
122.254	10.8533
126.184	10.9022
129.721	10.9511
133.652	11
137.58	11.0978
141.117	11.1467
145.048	11.1957
148.978	11.2446
152.909	11.2935
156.446	11.3424
