Adsorption isotherm of Hydrogen on MOF-177
DOI: 10.1039/B922991d
Adsorbate Hydrogen: InChIKey UFHFLCQGNIYNRP-UHFFFAOYSA-N
Temperature: 77 K
Tabular data in the source: 0
pressure (bar)	uptake (wt%)
7.39659	1.92661
8.17518	2.24771
11.2895	2.63303
15.1825	2.93272
21.0219	3.25382
25.3041	3.42508
30.7543	3.53211
35.8151	3.63914
40.0973	3.66055
51.3869	3.59633
59.9513	3.59633
70.4623	3.46789
81.3625	3.42508
90.3163	3.29664
99.2701	3.1896
110.17	3.08257
119.124	3.03976
