Adsorption isotherm of Hydrogen on MOF-177
DOI: 10.1039/B922991d
Adsorbate Hydrogen: InChIKey UFHFLCQGNIYNRP-UHFFFAOYSA-N
Temperature: 77 K
Tabular data in the source: 0
pressure (bar)	uptake (wt%)
10.1023	3.5163
11.265	3.90761
14.7872	4.29891
19.0874	4.88587
23.7894	5.27717
29.6712	5.66848
34.3732	6.05978
39.866	6.35326
45.363	6.54891
51.2469	6.8913
57.9259	7.03804
62.6365	7.2337
67.7424	7.38043
74.8147	7.52717
79.9228	7.625
87.7815	7.77174
92.1031	7.86957
101.531	8.11413
107.034	8.16304
112.142	8.26087
118.432	8.30978
125.113	8.40761
