Adsorption isotherm of Hydrogen on MOF-177
DOI: 10.1039/B922991d
Adsorbate Hydrogen: InChIKey UFHFLCQGNIYNRP-UHFFFAOYSA-N
Temperature: 77 K
Tabular data in the source: 0
pressure (bar)	uptake (wt%)
4.67153	2.95413
6.618	3.55352
7.78589	3.78899
12.4574	4.7737
13.6253	4.96636
16.3504	5.30887
18.6861	5.54434
22.1898	5.84404
25.6934	5.97248
28.4185	6.10092
32.3114	6.25076
36.2044	6.33639
40.4866	6.3792
45.5474	6.44343
52.5547	6.42202
57.6156	6.3792
63.8443	6.29358
70.073	6.16514
74.3552	6.10092
79.4161	6.01529
83.6983	5.92966
88.3698	5.82263
94.2092	5.69419
99.2701	5.56575
103.163	5.48012
109.781	5.33028
