Adsorption isotherm of Hydrogen on MOF-177
DOI: 10.1039/B922991d
Adsorbate Hydrogen: InChIKey UFHFLCQGNIYNRP-UHFFFAOYSA-N
Temperature: 77 K
Tabular data in the source: 0
pressure (bar)	uptake (wt%)
3.1134	1.46196
7.75769	3.17391
17.9055	4.93478
38.684	6.40217
66.5627	7.38043
95.2449	7.96739
130.6	8.84783
