Adsorption isotherm of Hydrogen on MOF-177
DOI: 10.1039/B922991d
Adsorbate Hydrogen: InChIKey UFHFLCQGNIYNRP-UHFFFAOYSA-N
Temperature: 77 K
Tabular data in the source: 0
pressure (bar)	uptake (wt%)
9.36706	2.34239
13.6715	2.83152
18.3693	3.32065
22.6844	3.56522
26.6127	3.66304
32.8899	4.00543
42.3174	4.25
47.4212	4.44565
51.7428	4.54348
56.8509	4.6413
61.959	4.73913
68.6379	4.88587
72.9638	4.88587
77.6786	4.9837
82.7867	5.08152
87.5037	5.13043
92.616	5.13043
98.1174	5.22826
105.983	5.22826
112.662	5.375
116.594	5.375
120.525	5.42391
126.03	5.42391
