Adsorption isotherm of Hydrogen on MOF-177
DOI: 10.1039/B922991d
Adsorbate Hydrogen: InChIKey UFHFLCQGNIYNRP-UHFFFAOYSA-N
Temperature: 77 K
Tabular data in the source: 0
pressure (bar)	uptake (wt%)
3.50365	2.35474
8.95377	4.51682
26.8613	6.55046
51.7762	6.91437
78.6375	6.61468
106.667	6.16514
