Adsorption isotherm of Hydrogen on MOF-177
DOI: 10.1039/B922991d
Adsorbate Hydrogen: InChIKey UFHFLCQGNIYNRP-UHFFFAOYSA-N
Temperature: 77 K
Tabular data in the source: 0
pressure (bar)	uptake (wt%)
1.55718	0.792049
9.73236	1.99083
27.6399	2.61162
44.7689	2.76147
61.1192	2.61162
80.9732	2.37615
105.888	2.16208
149.1	1.9052
