Adsorption isotherm of Hydrogen on MOF-177
DOI: 10.1039/B922991d
Adsorbate Hydrogen: InChIKey UFHFLCQGNIYNRP-UHFFFAOYSA-N
Temperature: 77 K
Tabular data in the source: 0
pressure (bar)	uptake (wt%)
8.92465	3.46739
10.8717	3.90761
15.9499	4.69022
21.0387	5.22826
26.5272	5.61957
30.8381	5.96196
34.7622	6.15761
49.2828	6.84239
58.3149	7.13587
77.1678	7.67391
99.56	8.21196
126.282	8.65217
