Adsorption isotherm of Hydrogen on MOF-177
DOI: 10.1039/B922991d
Adsorbate Hydrogen: InChIKey UFHFLCQGNIYNRP-UHFFFAOYSA-N
Temperature: 77 K
Tabular data in the source: 0
pressure (bar)	uptake (wt%)
1.94647	1.94647
3.50365	2.71865
4.67153	3.1682
5.83942	3.55352
6.618	3.85321
7.78589	4.32416
11.6788	4.98777
13.6253	5.30887
15.5718	5.58716
18.6861	5.86544
21.4112	6.12232
22.9684	6.25076
25.3041	6.3792
29.9757	6.59327
35.0365	6.76453
39.708	6.82875
44.3796	6.85015
49.0511	6.85015
54.8905	6.82875
59.1727	6.76453
63.8443	6.72171
70.073	6.63609
74.7445	6.55046
79.4161	6.42202
83.6983	6.31498
89.5377	6.20795
93.82	6.10092
99.2701	5.97248
106.667	5.77982
112.895	5.65138
117.956	5.50153
