Adsorption isotherm of Hydrogen on MOF-177
DOI: 10.1039/B922991d
Adsorbate Hydrogen: InChIKey UFHFLCQGNIYNRP-UHFFFAOYSA-N
Temperature: 77 K
Tabular data in the source: 0
pressure (bar)	uptake (wt%)
4.20982	3.36957
5.36822	3.8587
6.52021	4.49457
7.67648	5.03261
9.22386	5.61957
12.325	6.64674
13.4899	6.98913
15.0415	7.47826
17.7644	8.16304
20.1005	8.70109
23.6056	9.4837
26.3349	10.0217
29.4553	10.6087
31.7978	11
34.1402	11.3913
36.0873	11.8315
41.5565	12.663
45.0702	13.25
48.9857	13.6413
52.8905	14.2772
55.2415	14.4728
59.9328	15.1087
62.6707	15.4511
65.4085	15.7935
68.1464	16.1359
70.8842	16.4783
74.0175	16.7717
79.1042	17.3587
83.4108	17.7989
85.7596	18.0435
88.8972	18.2391
91.635	18.5815
94.7683	18.875
97.5104	19.1196
101.039	19.3641
107.306	19.9511
110.441	20.1957
113.97	20.4402
115.919	20.8315
116.321	20.6359
