Adsorption isotherm of Hydrogen on MOF-177
DOI: 10.1039/B922991d
Adsorbate Hydrogen: InChIKey UFHFLCQGNIYNRP-UHFFFAOYSA-N
Temperature: 77 K
Tabular data in the source: 0
pressure (bar)	uptake (wt%)
7.74915	3.36957
10.829	4.88587
26.4503	7.38043
47.9897	9.43478
70.7474	10.6087
84.5008	10.8533
