Adsorption isotherm of Hydrogen on MOF-177
DOI: 10.1039/B922991d
Adsorbate Hydrogen: InChIKey UFHFLCQGNIYNRP-UHFFFAOYSA-N
Temperature: 77 K
Tabular data in the source: 0
pressure (bar)	uptake (wt%)
1.94647	0.792049
6.618	2.48318
17.5182	4.00306
38.5401	4.64526
67.3479	4.43119
96.9343	3.93884
132.749	3.72477
