Adsorption isotherm of Hydrogen on MOF-177
DOI: 10.1039/B922991d
Adsorbate Hydrogen: InChIKey UFHFLCQGNIYNRP-UHFFFAOYSA-N
Temperature: 77 K
Tabular data in the source: 0
pressure (bar)	uptake (wt%)
9.73236	2.37615
12.0681	2.65443
14.7932	2.8685
16.7397	2.97554
19.0754	3.14679
24.1363	3.33945
27.2506	3.4893
28.8078	3.4893
32.3114	3.55352
38.1509	3.66055
42.0438	3.68196
43.601	3.68196
47.1046	3.70336
49.4404	3.70336
52.5547	3.68196
58.0049	3.66055
63.8443	3.61774
70.8516	3.5107
76.691	3.44648
77.8589	3.42508
82.9197	3.38226
84.0876	3.36086
88.7591	3.31804
92.2628	3.27523
96.1557	3.1682
103.552	3.10398
107.835	3.03976
111.727	2.99694
115.62	2.95413
