Adsorption isotherm of Hydrogen on MOF-177
DOI: 10.1039/B922991d
Adsorbate Hydrogen: InChIKey UFHFLCQGNIYNRP-UHFFFAOYSA-N
Temperature: 77 K
Tabular data in the source: 0
pressure (bar)	uptake (wt%)
5.06083	1.5841
5.83942	1.71254
7.39659	2.50459
8.95377	2.8685
11.2895	3.08257
12.8467	3.36086
16.3504	3.61774
19.4647	3.8318
23.747	4.11009
28.4185	4.23853
31.5328	4.32416
35.8151	4.40979
42.4331	4.4526
49.0511	4.49541
54.8905	4.4526
63.0657	4.40979
70.8516	4.30275
77.4696	4.23853
83.309	4.1315
89.1484	4.04587
94.2092	3.98165
102.384	3.8318
105.888	3.76758
109.781	3.70336
113.285	3.63914
117.178	3.59633
120.681	3.53211
124.185	3.46789
128.078	3.40367
