Adsorption isotherm of Hydrogen on MOF-177
DOI: 10.1039/B922991d
Adsorbate Hydrogen: InChIKey UFHFLCQGNIYNRP-UHFFFAOYSA-N
Temperature: 77 K
Tabular data in the source: 0
pressure (bar)	uptake (wt%)
9.73681	2.88043
12.4704	3.32065
15.9862	3.8587
21.8658	4.29891
25.3945	4.54348
31.6759	4.78804
36.3843	5.03261
41.097	5.17935
50.9114	5.57065
59.9478	5.7663
70.1618	6.01087
79.9847	6.20652
89.4165	6.35326
99.2416	6.5
108.278	6.69565
116.139	6.79348
