Adsorption isotherm of Hydrogen on MOF-177
DOI: 10.1039/B922991d
Adsorbate Hydrogen: InChIKey UFHFLCQGNIYNRP-UHFFFAOYSA-N
Temperature: 77 K
Tabular data in the source: 0
pressure (bar)	uptake (wt%)
3.89294	2.33333
10.9002	4.08869
19.854	5.07339
27.6399	5.45872
37.3723	5.62997
47.1046	5.75841
55.6691	5.737
95.7664	5.03058
159.221	4.00306
