Adsorption isotherm of Hydrogen on MOF-177
DOI: 10.1039/B922991d
Adsorbate Hydrogen: InChIKey UFHFLCQGNIYNRP-UHFFFAOYSA-N
Temperature: 77 K
Tabular data in the source: 0
pressure (bar)	uptake (wt%)
11.297	3.17391
12.8572	3.46739
14.8128	3.71196
18.3436	3.90761
19.517	4.05435
23.4367	4.34783
28.532	4.73913
33.2426	4.93478
37.9531	5.13043
43.448	5.375
48.1607	5.52174
53.2645	5.71739
58.3748	5.7663
63.0874	5.91304
67.409	6.01087
74.4834	6.1087
77.6273	6.15761
81.9489	6.25543
83.1287	6.25543
86.2683	6.40217
90.5942	6.40217
96.0998	6.40217
100.419	6.54891
105.138	6.54891
110.64	6.64674
115.359	6.64674
