Adsorption isotherm of Hydrogen on MOF-177
DOI: 10.1039/B922991d
Adsorbate Hydrogen: InChIKey UFHFLCQGNIYNRP-UHFFFAOYSA-N
Temperature: 77 K
Tabular data in the source: 0
pressure (bar)	uptake (wt%)
3.89294	2.33333
5.06083	2.61162
6.22871	2.93272
7.78589	3.44648
9.73236	3.74618
12.8467	4.32416
14.7932	4.60245
17.9075	4.90214
22.1898	5.15902
24.5255	5.30887
30.365	5.50153
34.6472	5.65138
40.0973	5.69419
43.9903	5.75841
48.6618	5.737
52.5547	5.75841
58.3942	5.69419
63.0657	5.62997
68.5158	5.56575
73.9659	5.45872
80.9732	5.33028
86.8127	5.22324
91.0949	5.13761
98.1022	5.00917
104.72	4.85933
111.727	4.73089
118.345	4.60245
124.574	4.47401
130.803	4.36697
137.421	4.25994
143.26	4.1315
148.321	4.04587
153.771	3.93884
158.443	3.87462
