Adsorption isotherm of Hydrogen on MOF-177
DOI: 10.1039/B922991d
Adsorbate Hydrogen: InChIKey UFHFLCQGNIYNRP-UHFFFAOYSA-N
Temperature: 77 K
Tabular data in the source: 0
pressure (bar)	uptake (wt%)
11.7117	2.68478
28.1836	3.71196
44.6748	4.29891
60.7877	4.54348
80.0489	4.73913
104.811	5.03261
146.473	5.57065
