Adsorption isotherm of Hydrogen on MOF-177
DOI: 10.1039/B922991d
Adsorbate Hydrogen: InChIKey UFHFLCQGNIYNRP-UHFFFAOYSA-N
Temperature: 77 K
Tabular data in the source: 0
pressure (bar)	uptake (wt%)
5.40669	2.97826
12.402	4.88587
20.5984	6.30435
28.0362	7.08696
37.4423	7.82065
46.4616	8.40761
55.094	8.84783
93.5735	10.2174
155.651	11.538
