Adsorption isotherm of Carbon Dioxide on BPL Carbon
DOI: 10.1080/01496398608058387
Article source: Figure 1
Adsorbate Carbon Dioxide: InChIKey CURLTUGMZLYLDI-UHFFFAOYSA-N
Kind: experiment
Temperature: 304 K
Tabular data in the source: 0
pressure (bar)	uptake (mmol/g)
0.061808	0.213
0.218862	0.502
0.365783	0.821
0.998051	1.68
1.22603	1.85
1.57054	2.11
