Adsorption isotherm of Methane on BPL Carbon
DOI: 10.1080/01496398608058387
Article source: Figure 2
Adsorbate Methane: InChIKey VNWKTOKETHGBQD-UHFFFAOYSA-N
Kind: experiment
Temperature: 304 K
Tabular data in the source: 0
pressure (bar)	uptake (mmol/g)
0.088254	0.116
0.261418	0.283
0.391114	0.379
0.817693	0.69
1.02338	0.797
1.2463	0.909
