Adsorption isotherm of Carbon Dioxide, Methane on BPL Carbon
DOI: 10.1080/01496398608058387
Article source: Figure 4
Adsorbate Carbon Dioxide: InChIKey CURLTUGMZLYLDI-UHFFFAOYSA-N
Adsorbate Methane: InChIKey VNWKTOKETHGBQD-UHFFFAOYSA-N
Kind: experiment
Temperature: 304 K
Tabular data in the source: 0
pressure (bar)	Carbon Dioxide fraction	Carbon Dioxide uptake (mmol/g)	Methane fraction	Methane uptake (mmol/g)	total uptake (mmol/g)
1.01325	0.04521	0.753776	0.95479	0.092039	
1.01325	0.095559	0.689963	0.904441	0.20815	
1.01325	0.251873	0.527058	0.748127	0.505696	
1.01325	0.50552	0.304196	0.49448	0.939224	
1.01325	0.782298	0.127792	0.217702	1.35065	
