Adsorption isotherm of Nitrogen on BPL Carbon
DOI: 10.1080/01496398608058387
Article source: Figure 3
Adsorbate Nitrogen: InChIKey IJGRMHOSHXDMSA-UHFFFAOYSA-N
Kind: experiment
Temperature: 304 K
Tabular data in the source: 0
pressure (bar)	uptake (mmol/g)
0.120577	0.0318
0.353624	0.0903
0.744739	0.193
0.946376	0.239
1.1551	0.283
1.56041	0.386
