Adsorption isotherm of Carbon Dioxide, Nitrogen on BPL Carbon
DOI: 10.1080/01496398608058387
Article source: Figure 5
Adsorbate Carbon Dioxide: InChIKey CURLTUGMZLYLDI-UHFFFAOYSA-N
Adsorbate Nitrogen: InChIKey IJGRMHOSHXDMSA-UHFFFAOYSA-N
Kind: experiment
Temperature: 304 K
Tabular data in the source: 0
pressure (bar)	Carbon Dioxide fraction	Carbon Dioxide uptake (mmol/g)	Nitrogen fraction	Nitrogen uptake (mmol/g)	total uptake (mmol/g)
1.01325	0.04521	0.092039	0.95479	0.753776	
1.01325	0.095559	0.20815	0.904441	0.689963	
1.01325	0.251873	0.505696	0.748127	0.527058	
1.01325	0.50552	0.939224	0.49448	0.304196	
1.01325	0.782298	1.35065	0.217702	0.127792	
