Adsorption isotherm of Methane on NU-111
DOI: 10.1039/C3cc40819a
Adsorbate Methane: InChIKey VNWKTOKETHGBQD-UHFFFAOYSA-N
Temperature: 125 K
Tabular data in the source: 0
pressure (bar)	uptake (g/g)
0.280697	0.00842701
0.280697	0.331788
0.892462	0.491284
1.81011	0.628931
3.18658	0.716326
5.63364	0.753469
8.69246	0.766578
