Adsorption isotherm of Hydrogen on NU-111
DOI: 10.1039/C3cc40819a
Adsorbate Hydrogen: InChIKey UFHFLCQGNIYNRP-UHFFFAOYSA-N
Temperature: 100 K
Tabular data in the source: 0
pressure (bar)	uptake (g/g)
0.118631	0.000374478
6.22535	0.00998792
15.3144	0.0182904
28.806	0.0292148
35.9069	0.0344585
49.3985	0.042761
63.0321	0.0506266
