Adsorption isotherm of Hydrogen on NU-111
DOI: 10.1039/C3cc40819a
Adsorbate Hydrogen: InChIKey UFHFLCQGNIYNRP-UHFFFAOYSA-N
Temperature: 200 K
Tabular data in the source: 0
pressure (bar)	uptake (g/g)
0.260648	0.000374478
22.1312	0.00430725
41.3035	0.00824002
58.7716	0.0121728
63.7422	0.0130467
