Adsorption isotherm of Hydrogen on NU-111
DOI: 10.1039/C3cc40819a
Adsorbate Hydrogen: InChIKey UFHFLCQGNIYNRP-UHFFFAOYSA-N
Temperature: 298 K
Tabular data in the source: 0
pressure (bar)	uptake (g/g)
0.280697	0.000842701
0.280697	0.0331788
0.433639	0.0604898
0.433639	0.0775318
1.0454	0.0810276
1.81011	0.0845234
2.26893	0.0873637
2.42187	0.091078
