Adsorption isotherm of Methane on NU-111
DOI: 10.1039/C3cc40819a
Adsorbate Methane: InChIKey VNWKTOKETHGBQD-UHFFFAOYSA-N
Temperature: 270 K
Tabular data in the source: 0
pressure (bar)	uptake (g/g)
0.280697	0.00842701
7.62187	0.108931
14.3513	0.176662
22.4572	0.242209
27.9631	0.283721
36.3748	0.333973
42.9513	0.360192
56.2572	0.406074
63.7513	0.427923
