Adsorption isotherm of Carbon Dioxide on NU-111
DOI: 10.1039/C3cc40819a
Adsorbate Carbon Dioxide: InChIKey CURLTUGMZLYLDI-UHFFFAOYSA-N
Temperature: 240 K
Tabular data in the source: 0
pressure (bar)	uptake (g/g)
0.210625	0.167235
0.879196	0.372723
1.69634	0.640479
2.14205	1.05145
2.4392	1.38148
2.81062	1.64301
4.22205	1.97926
7.04491	2.12871
10.0163	2.1972
15.5878	2.22211
