Adsorption isotherm of Hydrogen on NU-111
DOI: 10.1039/C3cc40819a
Adsorbate Hydrogen: InChIKey UFHFLCQGNIYNRP-UHFFFAOYSA-N
Temperature: 50 K
Tabular data in the source: 0
pressure (bar)	uptake (g/g)
0.118631	0.000374
0.260648	0.014358
1.25477	0.024845
2.67493	0.035769
5.7993	0.050627
10.2018	0.064173
13.3262	0.072038
17.5867	0.081652
21.5632	0.086895
28.0959	0.093887
35.0548	0.099131
42.7237	0.106122
55.3632	0.113988
63.3161	0.11661
