Adsorption isotherm of Hydrogen on NU-111
DOI: 10.1039/C3cc40819a
Adsorbate Hydrogen: InChIKey UFHFLCQGNIYNRP-UHFFFAOYSA-N
Temperature: 150 K
Tabular data in the source: 0
pressure (bar)	uptake (g/g)
0.118631	0.000374478
8.63964	0.00474423
21.7052	0.0134837
32.0724	0.0182904
47.5522	0.025719
56.3573	0.0300888
63.8842	0.0322736
