Adsorption isotherm of Hydrogen on NU-111
DOI: 10.1039/C3cc40819a
Adsorbate Hydrogen: InChIKey UFHFLCQGNIYNRP-UHFFFAOYSA-N
Temperature: 150 K
Tabular data in the source: 0
pressure (bar)	uptake (g/g)
0.118631	0.000374478
19.4329	0.00955095
35.6228	0.0161056
51.6707	0.0226602
63.3161	0.025719
