Adsorption isotherm of Carbon Dioxide on NU-111
DOI: 10.1039/C3cc40819a
Adsorbate Carbon Dioxide: InChIKey CURLTUGMZLYLDI-UHFFFAOYSA-N
Temperature: 240 K
Tabular data in the source: 0
pressure (bar)	uptake (g/g)
0.210625	0.167235
0.879196	0.372723
1.69634	0.640479
2.29062	0.902009
2.73634	1.25071
3.33062	1.51847
4.5192	1.92945
5.41062	2.07889
6.45062	2.12248
7.93634	2.17229
10.4621	2.20343
11.2049	2.24079
12.1706	2.46496
12.2449	2.8448
