Adsorption isotherm of Hydrogen on NU-111
DOI: 10.1039/C3cc40819a
Adsorbate Hydrogen: InChIKey UFHFLCQGNIYNRP-UHFFFAOYSA-N
Temperature: 30 K
Tabular data in the source: 0
pressure (bar)	uptake (g/g)
0.118631	0.000811
0.544681	0.121416
1.25477	0.14545
2.53292	0.158996
4.23712	0.168173
6.36737	0.170358
10.2018	0.172106
15.3144	0.17298
