Adsorption isotherm of Methane on NU-111
DOI: 10.1039/C3cc40819a
Adsorbate Methane: InChIKey VNWKTOKETHGBQD-UHFFFAOYSA-N
Temperature: 150 K
Tabular data in the source: 0
pressure (bar)	uptake (g/g)
0.280697	0.00842701
1.35129	0.128595
2.8807	0.21162
4.86893	0.299015
7.01011	0.397335
10.0689	0.469435
13.5866	0.537166
19.0925	0.587419
26.5866	0.633301
35.916	0.663889
