Adsorption isotherm of Hydrogen on NU-111
DOI: 10.1039/C3cc40819a
Adsorbate Hydrogen: InChIKey UFHFLCQGNIYNRP-UHFFFAOYSA-N
Temperature: 77 K
Tabular data in the source: 0
pressure (bar)	uptake (g/g)
0.118631	0.000374478
1.5388	0.0112988
3.81107	0.0200383
8.63964	0.0331476
17.3027	0.0488787
29.9422	0.0659207
39.3153	0.0742232
51.2447	0.0833997
63.7422	0.0903913
