Adsorption isotherm of Methane on NU-111
DOI: 10.1039/C3cc40819a
Adsorbate Methane: InChIKey VNWKTOKETHGBQD-UHFFFAOYSA-N
Temperature: 240 K
Tabular data in the source: 0
pressure (bar)	uptake (g/g)
0.280697	0.00842701
2.57482	0.0848976
5.4807	0.139519
8.99834	0.207251
15.116	0.290276
24.5983	0.388595
31.4807	0.432293
39.8925	0.47599
49.3748	0.500024
58.7042	0.526242
64.2101	0.539351
