Adsorption isotherm of Carbon Dioxide on NU-111
DOI: 10.1039/C3cc40819a
Adsorbate Carbon Dioxide: InChIKey CURLTUGMZLYLDI-UHFFFAOYSA-N
Temperature: 270 K
Tabular data in the source: 0
pressure (bar)	uptake (g/g)
0.582053	0.11742
2.29062	0.410084
3.77634	0.565756
5.26205	0.895782
6.67348	1.18222
8.23348	1.42507
10.3135	1.65546
13.6563	1.81736
18.8563	1.93567
22.3478	1.97303
27.0278	2.00417
30.5192	2.00417
