Adsorption isotherm of Carbon Dioxide on NU-111
DOI: 10.1039/C3cc40819a
Adsorbate Carbon Dioxide: InChIKey CURLTUGMZLYLDI-UHFFFAOYSA-N
Temperature: 298 K
Tabular data in the source: 0
pressure (bar)	uptake (g/g)
0.730624	0.0987397
3.40491	0.279319
6.5992	0.491034
10.1649	0.696521
11.9478	0.852193
14.3249	1.01409
16.5535	1.16354
20.1935	1.30053
22.6449	1.41884
24.7992	1.50602
27.2506	1.56829
29.4049	1.56829
