Adsorption isotherm of Hydrogen on NU-111
DOI: 10.1039/C3cc40819a
Adsorbate Hydrogen: InChIKey UFHFLCQGNIYNRP-UHFFFAOYSA-N
Temperature: 77 K
Tabular data in the source: 0
pressure (bar)	uptake (g/g)
0.118631	0.000374478
0.260648	0.0143577
3.81107	0.0340215
9.49174	0.0541224
14.7464	0.0685425
20.9951	0.0803409
26.6758	0.0877694
33.9186	0.0943241
42.0136	0.100879
50.2506	0.106122
60.0497	0.111803
64.0262	0.113551
