Adsorption isotherm of Hydrogen on NU-111
DOI: 10.1039/C3cc40819a
Adsorbate Hydrogen: InChIKey UFHFLCQGNIYNRP-UHFFFAOYSA-N
Temperature: 77 K
Tabular data in the source: 0
pressure (bar)	uptake (g/g)
0.118631	0.000374478
4.0951	0.0178535
9.34972	0.0300888
16.7346	0.044072
25.5396	0.0554333
33.7766	0.0637358
40.3094	0.0694165
55.9312	0.0794669
64.0262	0.0847106
