Adsorption isotherm of Hydrogen on NU-111
DOI: 10.1039/C3cc40819a
Adsorbate Hydrogen: InChIKey UFHFLCQGNIYNRP-UHFFFAOYSA-N
Temperature: 50 K
Tabular data in the source: 0
pressure (bar)	uptake (g/g)
0.118631	0.000374
0.260648	0.014358
1.25477	0.024845
2.67493	0.035769
5.7993	0.050627
10.2018	0.064173
17.7287	0.079467
29.0901	0.092576
39.1733	0.101753
49.1144	0.107433
56.3573	0.109181
63.7422	0.111803
