Adsorption isotherm of Methane on NU-111
DOI: 10.1039/C3cc40819a
Adsorbate Methane: InChIKey VNWKTOKETHGBQD-UHFFFAOYSA-N
Temperature: 200 K
Tabular data in the source: 0
pressure (bar)	uptake (g/g)
0.280697	0.00842701
2.57482	0.0848976
5.4807	0.139519
8.99834	0.207251
15.116	0.290276
20.4689	0.358007
25.8219	0.403889
32.7042	0.454141
37.5983	0.491284
43.1042	0.526242
50.1395	0.5612
55.6454	0.574309
63.7513	0.598343
