Adsorption isotherm of Methane on NU-111
DOI: 10.1039/C3cc40819a
Adsorbate Methane: InChIKey VNWKTOKETHGBQD-UHFFFAOYSA-N
Temperature: 240 K
Tabular data in the source: 0
pressure (bar)	uptake (g/g)
0.280697	0.00842701
4.25717	0.078343
10.8336	0.150444
19.3983	0.226914
25.3631	0.279351
33.6219	0.333973
41.5748	0.384225
49.5278	0.425738
59.0101	0.462881
64.0572	0.486914
