Adsorption isotherm of Methane on NU-111
DOI: 10.1039/C3cc40819a
Adsorbate Methane: InChIKey VNWKTOKETHGBQD-UHFFFAOYSA-N
Temperature: 298 K
Tabular data in the source: 0
pressure (bar)	uptake (g/g)
0.280697	0.00842701
9.30423	0.0870825
19.5513	0.163553
28.5748	0.21162
37.9042	0.253133
47.6925	0.294645
56.1042	0.325234
64.0572	0.349267
