Adsorption isotherm of Carbon Dioxide on NU-111
DOI: 10.1039/C3cc40819a
Adsorbate Carbon Dioxide: InChIKey CURLTUGMZLYLDI-UHFFFAOYSA-N
Temperature: 270 K
Tabular data in the source: 0
pressure (bar)	uptake (g/g)
0.582053	0.11742
2.29062	0.410084
3.77634	0.565756
5.5592	0.789925
7.34205	1.16354
9.7192	1.46243
13.2106	1.79245
17.5935	1.95435
23.9821	2.08512
28.5878	2.11625
30.4449	2.15361
