Adsorption isotherm of Methane on NU-111
DOI: 10.1039/C3cc40819a
Adsorbate Methane: InChIKey VNWKTOKETHGBQD-UHFFFAOYSA-N
Temperature: 125 K
Tabular data in the source: 0
pressure (bar)	uptake (g/g)
0.280697	0.00842701
0.280697	0.331788
0.892462	0.491284
1.81011	0.628931
2.72776	0.711956
4.10423	0.751284
5.93952	0.777503
8.53952	0.792797
9.61011	0.803721
9.76305	0.832124
9.76305	0.853973
