Adsorption isotherm of Carbon Dioxide on NU-111
DOI: 10.1039/C3cc40819a
Adsorbate Carbon Dioxide: InChIKey CURLTUGMZLYLDI-UHFFFAOYSA-N
Temperature: 298 K
Tabular data in the source: 0
pressure (bar)	uptake (g/g)
0.730624	0.0987397
3.40491	0.279319
6.5992	0.491034
9.42205	0.634252
12.8392	0.877101
16.4792	1.1075
18.5592	1.23203
22.4963	1.40016
25.8392	1.51847
30.3706	1.68037
