Adsorption isotherm of Hydrogen on NU-111
DOI: 10.1039/C3cc40819a
Adsorbate Hydrogen: InChIKey UFHFLCQGNIYNRP-UHFFFAOYSA-N
Temperature: 298 K
Tabular data in the source: 0
pressure (bar)	uptake (g/g)
0.280697	0.000842701
0.280697	0.0331788
0.433639	0.0604898
0.58658	0.0762209
2.11599	0.0805906
