Adsorption isotherm of Hydrogen on NU-111
DOI: 10.1039/C3cc40819a
Adsorbate Hydrogen: InChIKey UFHFLCQGNIYNRP-UHFFFAOYSA-N
Temperature: 30 K
Tabular data in the source: 0
pressure (bar)	uptake (g/g)
0.118631	0.00811453
0.544681	1.21416
1.25477	1.4545
2.53292	1.58996
4.23712	1.68173
6.36737	1.70358
8.49762	1.71669
9.49174	1.76038
9.63376	1.95702
