Adsorption isotherm of Hydrogen on NU-111
DOI: 10.1039/C3cc40819a
Adsorbate Hydrogen: InChIKey UFHFLCQGNIYNRP-UHFFFAOYSA-N
Temperature: 200 K
Tabular data in the source: 0
pressure (bar)	uptake (g/g)
0.260648	0.000374478
10.7699	0.0034333
28.948	0.00780305
40.8775	0.0117358
59.1976	0.0152316
63.8842	0.0152316
