Adsorption isotherm of Carbon Dioxide on NU-111
DOI: 10.1039/C3cc40819a
Adsorbate Carbon Dioxide: InChIKey CURLTUGMZLYLDI-UHFFFAOYSA-N
Temperature: 220 K
Tabular data in the source: 0
pressure (bar)	uptake (g/g)
0.28491	0.304227
0.953482	0.65916
1.10205	1.039
1.47348	1.69905
1.84491	2.06644
2.36491	2.20343
3.77634	2.27192
6.52491	2.30929
8.97634	2.30929
