Adsorption isotherm of Hydrogen on NU-111
DOI: 10.1039/C3cc40819a
Adsorbate Hydrogen: InChIKey UFHFLCQGNIYNRP-UHFFFAOYSA-N
Temperature: 100 K
Tabular data in the source: 0
pressure (bar)	uptake (g/g)
0.118631	0.000374478
9.34972	0.00955095
22.5573	0.0200383
37.043	0.0296518
52.6648	0.0375173
63.6001	0.043198
