Adsorption isotherm of Nitrogen on alumina-magnesia mixed oxide (0.5 wt% Mg)
DOI: 10.1016/j.cattod.2017.04.064
Article source: Figure 1
Adsorbate Nitrogen: InChIKey IJGRMHOSHXDMSA-UHFFFAOYSA-N
Kind: experiment
Temperature: 75 K
Tabular data in the source: 0
pressure (bar)	uptake (cm3(STP)/g)
0.007233	34.37
0.020737	40.92
0.057224	46.13
0.073616	49.25
0.089205	52.99
0.104153	55.91
0.120712	57.36
0.134697	59.34
0.149805	60.48
0.189508	65.69
0.264086	74.32
0.41228	102.42
0.49426	126.25
0.498919	149.68
0.570602	260.48
0.607089	222.67
0.615132	295.05
0.636503	264.43
0.644378	306.81
0.662702	288.48
0.673472	312.95
0.682798	303.89
0.692116	314.93
0.697585	305.66
0.703695	317.11
0.70562	308.16
0.722821	316.8
0.723142	313.57
0.735836	317
0.739854	318.98
0.751113	320.33
0.75497	321.17
0.759469	325.75
