Adsorption isotherm of Nitrogen on alumina-magnesia mixed oxide (2 wt% Mg)
DOI: 10.1016/j.cattod.2017.04.064
Article source: Figure 1
Adsorbate Nitrogen: InChIKey IJGRMHOSHXDMSA-UHFFFAOYSA-N
Kind: experiment
Temperature: 75 K
Tabular data in the source: 0
pressure (bar)	uptake (cm3(STP)/g)
0.007394	36.34
0.021219	41.55
0.058026	45.81
0.074578	50.29
0.088884	53.2
0.103351	54.87
0.119261	57.68
0.133888	58.51
0.150607	59.65
0.189508	64.23
0.257815	74.74
0.267943	73.49
0.338664	83.47
0.340918	85.45
0.405207	98.15
0.422248	99.71
0.493289	124.59
0.49956	148.64
0.559832	165.19
0.569479	247.67
0.605164	212.05
0.616094	279.84
0.634418	249.64
0.640849	290.88
0.672028	281.19
0.67299	297.23
0.68987	289.31
0.691635	297.74
0.708194	295.14
0.708675	299.1
0.718643	300.24
0.721698	296.49
0.734393	298.36
0.73825	301.59
0.750624	302.21
0.757857	305.03
