Adsorption isotherm of Nitrogen on alumina-magnesia mixed oxide (8 wt% Mg)
DOI: 10.1016/j.cattod.2017.04.064
Article source: Figure 1
Adsorbate Nitrogen: InChIKey IJGRMHOSHXDMSA-UHFFFAOYSA-N
Kind: experiment
Temperature: 75 K
Tabular data in the source: 0
pressure (bar)	uptake (cm3(STP)/g)
0.00579	37.8
0.021379	43.32
0.044041	48.42
0.062044	51.54
0.072974	53.41
0.088563	55.81
0.103511	55.91
0.107208	59.55
0.121995	59.34
0.134216	61.53
0.148675	63.82
0.187897	67.46
0.193686	69.85
0.260069	78.8
0.263605	78.07
0.33577	88.37
0.34172	94.41
0.410516	108.67
0.415656	102.21
0.490402	121.05
0.497796	154.27
0.559512	151.76
0.564339	216.95
0.606929	190.08
0.614162	239.33
0.636343	246.41
0.645509	221.63
0.668973	237.87
0.671066	251.72
0.685211	245.88
0.692284	253.28
0.702886	249.84
0.704658	254.73
0.713655	251.61
0.722661	252.96
0.725716	255.56
0.739533	254.42
0.742588	256.39
0.75497	257.64
