Adsorption isotherm of Nitrogen on Î³-alumina
DOI: 10.1016/j.cattod.2017.04.064
Article source: Figure 1
Adsorbate Nitrogen: InChIKey IJGRMHOSHXDMSA-UHFFFAOYSA-N
Kind: experiment
Temperature: 75 K
Tabular data in the source: 0
pressure (bar)	uptake (cm3(STP)/g)
0.006431	41.03
0.023304	48.53
0.046134	54.04
0.058026	56.33
0.073135	58
0.089045	60.08
0.105764	64.76
0.107529	64.34
0.120231	65.38
0.136943	67.88
0.150126	69.86
0.187576	74.23
0.194969	74.95
0.261191	85.46
0.332562	97.01
0.415656	118.45
0.420644	121.79
0.496345	179.57
0.503418	151.35
0.557908	189.56
0.56996	280.68
0.601949	300.36
0.605164	240.27
0.635701	275.67
0.643737	317.64
0.666238	300.87
0.668492	322.22
0.682798	312.95
0.691956	322.84
0.715909	323.46
0.718964	324.5
0.734714	325.75
0.738731	326.59
0.750944	328.46
