Adsorption isotherm of Ethene on UTSA-34a
DOI: 10.1002/chem.201103927
Adsorbate Ethene: InChIKey VGGSQFUCUMXWEO-UHFFFAOYSA-N
Temperature: 293 K
Tabular data in the source: 0
pressure (bar)	uptake (cm3(STP)/g)
0.0223535	2.77782
0.0351269	6.59149
0.063867	10.4103
0.0958005	14.9229
0.127734	18.7428
0.159668	22.2163
0.185214	24.9952
0.220341	27.4309
0.252275	30.5581
0.284208	32.6464
0.316142	34.7347
0.344882	36.8219
0.386395	38.2207
0.411942	40.3069
0.443876	41.7026
0.472616	43.0972
0.504549	44.4928
0.539676	45.5432
0.574803	46.9399
0.597156	47.9861
0.635477	49.0375
0.661023	50.4311
0.69615	51.1351
0.72489	52.1834
0.760017	52.8875
0.788757	53.9358
0.820691	54.6388
0.849431	54.9944
0.884558	56.0448
0.913298	56.4004
0.942038	57.1024
0.977165	57.4601
1.0091	58.1632
1.03784	58.8651
