Adsorption isotherm of Methane on UTSA-34a
DOI: 10.1002/chem.201103927
Adsorbate Methane: InChIKey VNWKTOKETHGBQD-UHFFFAOYSA-N
Temperature: 296 K
Tabular data in the source: 0
pressure (bar)	uptake (mmol/g)
0.00849983	0.00516605
0.0134713	0.00516605
0.0186462	0.0103321
0.0272452	0.0206642
0.0367037	0.0206642
0.0481227	0.0309963
0.0684368	0.0413284
0.0873333	0.0671587
0.0973285	0.0671587
0.12088	0.0929889
0.150131	0.113653
0.186461	0.139483
0.231583	0.17048
0.279936	0.206642
0.338386	0.242804
0.387467	0.278967
0.455852	0.320295
0.536305	0.382288
0.614094	0.423616
0.684375	0.475277
0.82727	0.557934
1.02746	0.681919
1.14505	0.738745
1.24199	0.790406
1.31113	0.8369
1.42214	0.888561
1.54253	0.935055
1.67313	0.986716
1.76628	1.03838
1.91581	1.08487
