Adsorption isotherm of Carbon Dioxide on UTSA-34b
DOI: 10.1002/chem.201103927
Adsorbate Carbon Dioxide: InChIKey CURLTUGMZLYLDI-UHFFFAOYSA-N
Temperature: 270 K
Tabular data in the source: 0
pressure (bar)	uptake (cm3(STP)/g)
0.244103	61.6
0.47609	85.4
0.93109	105
1.27212	119
1.72442	130.2
2.17628	140
2.51596	149.8
3.8684	169.4
4.54506	180.6
4.99468	183.4
5.78308	193.2
6.57147	203
7.47071	208.6
8.37083	217
9.15878	225.4
10.0576	229.6
10.9572	236.6
11.9691	243.6
12.8692	252
13.768	256.2
14.7794	261.8
15.7908	267.4
16.8027	274.4
17.8141	280
18.7124	282.8
19.7238	288.4
20.7348	292.6
21.8575	295.4
22.8685	299.6
23.8794	303.8
25.0021	306.6
26.0126	309.4
26.911	312.2
27.921	313.6
