Adsorption isotherm of Acetylene on UTSA-34b
DOI: 10.1002/chem.201103927
Adsorbate Acetylene: InChIKey HSFWRNGVRCDJHI-UHFFFAOYSA-N
Temperature: 273 K
Tabular data in the source: 0
pressure (bar)	uptake (cm3(STP)/g)
0.00297927	13.5338
0.0148964	23.6842
0.0297927	38.5714
0.0625647	54.812
0.0893781	66.9925
0.125129	77.1429
0.154922	85.2632
0.184715	93.3835
0.217487	100.15
0.247279	105.564
0.283031	110.977
0.309844	115.038
0.345595	120.451
0.378367	125.188
0.40816	127.218
0.440932	131.278
0.470725	134.662
0.503497	137.368
0.527331	139.398
0.566061	142.105
0.598833	143.459
0.628626	146.842
0.658419	147.519
0.691191	150.226
0.723963	151.579
0.753756	153.609
0.77759	155.639
0.819299	156.316
0.846113	157.669
0.875906	159.023
0.911657	161.729
0.94145	163.083
0.968263	163.759
0.998056	165.113
1.03679	165.789
