Adsorption isotherm of Acetylene on UTSA-34b
DOI: 10.1002/chem.201103927
Adsorbate Acetylene: InChIKey HSFWRNGVRCDJHI-UHFFFAOYSA-N
Temperature: 273 K
Tabular data in the source: 0
pressure (bar)	uptake (mmol/g)
0.000396004	0.0246543
0.000747412	0.0806264
0.00131453	0.194791
0.00223182	0.309068
0.00392527	0.481204
0.00578695	0.62491
0.00883812	0.826476
0.0139827	1.11489
0.0206148	1.34555
0.0283211	1.57643
0.0432534	1.95191
0.0573614	2.24088
0.0788043	2.64568
0.108264	3.16642
0.133794	3.54256
0.165345	3.94769
0.204336	4.32384
0.261592	4.78683
0.30125	5.19218
0.399515	5.71303
0.51146	6.20501
0.702656	6.66778
0.899545	7.13077
1.07313	7.39108
1.37382	7.65117
1.82195	7.94014
