Adsorption isotherm of Methane on UTSA-34b
DOI: 10.1002/chem.201103927
Adsorbate Methane: InChIKey VNWKTOKETHGBQD-UHFFFAOYSA-N
Temperature: 270 K
Tabular data in the source: 0
pressure (bar)	uptake (cm3(STP)/g)
0.524476	14.9573
0.874126	28.4188
1.57343	41.8803
1.92308	52.3504
2.44755	62.8205
3.32168	74.7863
4.02098	88.2479
5.06993	100.214
5.76923	104.701
6.99301	115.171
8.04196	122.65
9.26573	131.624
10.4895	143.59
11.7133	148.077
12.9371	157.051
14.5105	164.53
15.9091	170.513
17.4825	175
19.0559	180.983
20.6294	186.966
22.028	188.462
23.6014	192.949
25.3497	197.436
26.7483	198.932
28.3217	203.419
29.8951	206.41
31.4685	209.402
33.042	210.897
34.7902	213.889
36.3636	216.88
38.1119	219.872
38.986	221.368
40.7343	224.359
42.3077	228.846
43.5315	230.342
45.1049	233.333
46.3287	236.325
