Adsorption isotherm of Methane on UTSA-34b
DOI: 10.1002/chem.201103927
Adsorbate Methane: InChIKey VNWKTOKETHGBQD-UHFFFAOYSA-N
Temperature: 290 K
Tabular data in the source: 0
pressure (bar)	uptake (cm3(STP)/g)
0.87108	12.0172
1.0453	22.5322
1.91638	33.0472
2.26481	42.0601
2.96167	49.5708
4.18118	63.0901
5.57491	79.6137
6.96864	88.6266
8.01394	99.1416
9.40767	106.652
10.8014	114.163
12.0209	121.674
13.5889	129.185
15.1568	135.193
16.5505	142.704
18.1185	147.21
19.6864	153.219
21.2544	157.725
22.8223	163.734
24.3902	166.738
26.1324	171.245
27.7003	175.751
29.4425	177.253
31.0105	180.258
32.7526	183.262
34.3206	186.266
36.0627	189.27
37.6307	193.777
39.3728	195.279
40.9408	199.785
42.5087	201.288
44.2509	204.292
45.8188	205.794
