Adsorption isotherm of Hydrogen on UTSA-34b
DOI: 10.1002/chem.201103927
Adsorbate Hydrogen: InChIKey UFHFLCQGNIYNRP-UHFFFAOYSA-N
Temperature: 77 K
Tabular data in the source: 0
pressure (bar)	uptake (wt%)
0.174825	0.174825
0.34965	1.88936
0.524476	1.99149
0.699301	2.11064
1.04895	2.36596
2.0979	2.70638
2.7972	2.91064
3.4965	3.02979
4.54545	3.13191
5.59441	3.21702
6.81818	3.30213
8.04196	3.38723
9.61538	3.4383
11.1888	3.5234
12.7622	3.54043
14.5105	3.57447
16.0839	3.60851
17.8322	3.64255
19.5804	3.65957
21.1538	3.6766
22.9021	3.69362
24.6503	3.71064
26.3986	3.72766
28.1469	3.74468
29.8951	3.74468
31.4685	3.7617
33.2168	3.7617
34.965	3.77872
36.7133	3.77872
38.4615	3.77872
40.2098	3.77872
41.958	3.79574
43.7063	3.79574
45.4545	3.77872
47.028	3.79574
48.7762	3.77872
