Adsorption isotherm of Ethene on UTSA-34b
DOI: 10.1002/chem.201103927
Adsorbate Ethene: InChIKey VGGSQFUCUMXWEO-UHFFFAOYSA-N
Temperature: 296 K
Tabular data in the source: 0
pressure (bar)	uptake (cm3(STP)/g)
0.0119659	5.55957
0.0209867	7.58123
0.0390065	12.6354
0.0660361	20.2166
0.0991196	27.2924
0.126182	33.3574
0.156288	38.4116
0.189426	42.9603
0.219531	48.0144
0.255702	52.0578
0.288851	56.1011
0.315957	60.1444
0.349138	62.6715
0.379298	65.1986
0.409459	67.7256
0.44264	70.2527
0.472801	72.7798
0.502972	74.8014
0.536164	76.8231
0.566335	78.8448
0.60256	80.361
0.62971	82.3827
0.659892	83.8989
0.690085	84.9097
0.726299	86.9314
0.75647	88.9531
0.786663	89.9639
0.819877	90.9747
0.880263	92.9964
0.910456	94.0072
0.97082	97.0397
1.00405	97.5451
1.03123	98.0505
1.06745	99.5668
