Adsorption isotherm of Carbon Dioxide on UTSA-34b
DOI: 10.1002/chem.201103927
Adsorbate Carbon Dioxide: InChIKey CURLTUGMZLYLDI-UHFFFAOYSA-N
Temperature: 240 K
Tabular data in the source: 0
pressure (bar)	uptake (cm3(STP)/g)
0.13641	75.6
0.142692	95.2
0.258013	105
0.261603	116.2
0.489103	126
0.603974	134.4
1.05538	142.8
1.28244	151.2
1.73474	162.4
2.18615	170.8
2.52538	179.2
3.42686	191.8
4.44096	205.8
6.5791	226.8
8.15365	239.4
8.7159	243.6
8.94026	243.6
