Adsorption isotherm of Ethene on UTSA-34b
DOI: 10.1002/chem.201103927
Adsorbate Ethene: InChIKey VGGSQFUCUMXWEO-UHFFFAOYSA-N
Temperature: 296 K
Tabular data in the source: 0
pressure (bar)	uptake (mmol/g)
0.00251189	0.0254545
0.00409035	0.0509091
0.00614101	0.0763636
0.00921956	0.127273
0.0138414	0.203636
0.0202246	0.305455
0.0265173	0.381818
0.034768	0.483636
0.0481227	0.661818
0.0630957	0.890909
0.0921956	1.14545
0.117649	1.42545
0.150131	1.75636
0.196842	2.03636
0.251189	2.39273
0.338386	2.8
0.431811	3.10545
0.551031	3.46182
0.703168	3.79273
0.873326	4.09818
1.17649	4.42909
1.46119	4.78545
1.96842	5.11636
