Adsorption isotherm of Ethene on UTSA-34b
DOI: 10.1002/chem.201103927
Adsorbate Ethene: InChIKey VGGSQFUCUMXWEO-UHFFFAOYSA-N
Temperature: 296 K
Tabular data in the source: 0
pressure (bar)	uptake (cm3(STP)/g)
0.013374	6.05505
0.0334351	13.7615
0.0635266	20.9174
0.0936182	28.6239
0.12371	34.1284
0.160488	40.7339
0.193923	45.1376
0.220672	48.9908
0.25745	53.3945
0.287542	56.6972
0.31429	60
0.351068	63.3028
0.38116	66.055
0.444687	71.0092
0.478122	73.211
0.508213	75.4128
0.538305	77.6147
0.57174	79.8165
0.628579	82.5688
0.658671	84.7706
0.722198	86.9725
0.755633	88.0734
0.815816	90.2752
0.879343	92.4771
0.942869	94.6789
1.03314	97.9817
1.06658	99.633
