Adsorption isotherm of Ethene on UTSA-34b
DOI: 10.1002/chem.201103927
Adsorbate Ethene: InChIKey VGGSQFUCUMXWEO-UHFFFAOYSA-N
Temperature: 273 K
Tabular data in the source: 0
pressure (bar)	uptake (mmol/g)
0.00134713	0.0509091
0.00207802	0.0509091
0.00329344	0.127273
0.00494447	0.203636
0.00783646	0.330909
0.0117649	0.483636
0.0171906	0.712727
0.0251189	0.992727
0.0357223	1.27273
0.0455848	1.60364
0.0597682	1.85818
0.0742318	2.18909
0.0849983	2.39273
0.12088	2.87636
0.162841	3.30909
0.213507	3.69091
0.279936	4.04727
0.357224	4.42909
0.468369	4.76
0.630957	5.19273
0.742315	5.39636
0.873326	5.6
1.08466	5.85455
1.24199	5.98182
1.46119	6.18545
1.71907	6.38909
2.07801	6.56727
