Adsorption isotherm of Ethane on UTSA-34a
DOI: 10.1002/chem.201103927
Adsorbate Ethane: InChIKey OTMSDBZUPAUEDD-UHFFFAOYSA-N
Temperature: 273 K
Tabular data in the source: 0
pressure (bar)	uptake (cm3(STP)/g)
0.00654343	6.59112
0.0163586	16.0072
0.0327171	25.8968
0.0621626	37.2039
0.091608	43.3345
0.121053	48.9946
0.153771	52.7737
0.186488	55.6117
0.222477	57.9805
0.24865	59.4038
0.284639	61.3021
0.317356	62.7283
0.346802	63.6824
0.382791	64.6395
0.412236	65.5936
0.441681	66.5478
0.471127	67.502
0.503844	67.987
0.539833	68.4735
0.566007	69.4262
0.598724	69.9112
0.631441	69.9257
0.660886	70.4092
0.693603	70.4237
0.716505	71.375
0.759038	71.8643
0.788483	71.8773
0.847374	72.3739
0.880091	72.3883
0.909537	72.8719
0.938982	72.4143
0.974971	72.9008
1.00442	72.9137
1.03713	72.9282
1.06658	72.9412
