Adsorption isotherm of Methane on UTSA-34a
DOI: 10.1002/chem.201103927
Adsorbate Methane: InChIKey VNWKTOKETHGBQD-UHFFFAOYSA-N
Temperature: 293 K
Tabular data in the source: 0
pressure (bar)	uptake (cm3(STP)/g)
0.0351269	0.357726
0.063867	0.713378
0.159668	2.47609
0.194794	2.83381
0.226728	3.53682
0.255468	3.89247
0.287402	4.59548
0.348075	5.30783
0.386395	6.01291
0.415136	6.36856
0.447069	6.72525
0.533289	8.13853
0.597156	8.85191
0.632283	9.55595
0.661023	9.56529
0.728084	10.9723
0.753631	10.9806
0.788757	11.3384
0.849431	12.7433
0.881365	12.4074
0.910105	12.763
0.973972	13.8227
1.00591	14.1794
1.04103	14.5372
1.06977	14.8928
