Adsorption isotherm of Carbon Dioxide on UTSA-34b
DOI: 10.1002/chem.201103927
Adsorbate Carbon Dioxide: InChIKey CURLTUGMZLYLDI-UHFFFAOYSA-N
Temperature: 270 K
Tabular data in the source: 0
pressure (bar)	uptake (cm3(STP)/g)
0.11041	16.8
0.44164	67.2
0.55205	84
0.993691	103.6
1.32492	117.6
1.65615	128.8
2.31861	140
2.64984	148.4
3.53312	162.4
4.63722	177.8
6.62461	198.8
9.38486	224
13.0284	243.6
18.1073	271.6
23.2965	287
26.1672	294
27.6025	294
