Adsorption isotherm of Methane on UTSA-34b
DOI: 10.1002/chem.201103927
Adsorbate Methane: InChIKey VNWKTOKETHGBQD-UHFFFAOYSA-N
Temperature: 290 K
Tabular data in the source: 0
pressure (bar)	uptake (cm3(STP)/g)
0.699301	10.4701
1.22378	19.4444
1.57343	28.4188
2.44755	41.8803
2.97203	50.8547
4.02098	59.8291
4.8951	70.2991
6.11888	77.7778
7.16783	86.7521
8.39161	95.7265
9.79021	103.205
11.1888	112.179
12.5874	118.162
13.986	124.145
15.5594	131.624
16.958	136.111
18.5315	140.598
20.1049	145.085
21.8531	148.077
23.4266	152.564
25	155.556
26.7483	158.547
28.4965	160.043
30.0699	163.034
31.8182	164.53
33.5664	167.521
35.1399	169.017
36.8881	172.009
38.6364	173.504
40.2098	176.496
41.958	177.991
43.7063	179.487
45.1049	180.983
46.6783	182.479
