Adsorption isotherm of Methane on UTSA-34b
DOI: 10.1002/chem.201103927
Adsorbate Methane: InChIKey VNWKTOKETHGBQD-UHFFFAOYSA-N
Temperature: 150 K
Tabular data in the source: 0
pressure (bar)	uptake (cm3(STP)/g)
0.174825	207.906
0.34965	266.239
0.524476	246.795
0.699301	276.709
1.04895	296.154
1.57343	309.615
2.44755	323.077
3.84615	332.051
5.24476	336.538
5.94406	338.034
