Adsorption isotherm of Hydrogen on UTSA-34b
DOI: 10.1002/chem.201103927
Adsorbate Hydrogen: InChIKey UFHFLCQGNIYNRP-UHFFFAOYSA-N
Temperature: 200 K
Tabular data in the source: 0
pressure (bar)	uptake (wt%)
2.24138	0.0738004
3.7931	0.118019
5.17241	0.147395
6.72414	0.191614
8.44828	0.235781
10	0.28
11.2069	0.309428
17.2414	0.426779
22.069	0.514703
23.7931	0.529083
28.7931	0.602062
29.6552	0.601805
30.5172	0.616442
35.6897	0.674475
37.4138	0.673962
43.1034	0.731842
44.6552	0.746273
46.3793	0.745759
46.8966	0.745605
50.3448	0.744578
