Adsorption isotherm of Methane on UTSA-34a
DOI: 10.1002/chem.201103927
Adsorbate Methane: InChIKey VNWKTOKETHGBQD-UHFFFAOYSA-N
Temperature: 273 K
Tabular data in the source: 0
pressure (bar)	uptake (cm3(STP)/g)
0.0294454	0.954168
0.0654343	1.91122
0.0948797	2.86539
0.124325	4.29015
0.157042	4.77517
0.189759	6.20137
0.219205	6.68495
0.251922	7.64056
0.314085	9.55034
0.346802	10.506
0.382791	11.463
0.408964	12.4157
0.43841	12.8993
0.47767	13.8578
0.503844	14.3399
0.536561	15.2956
0.566007	15.7791
0.595452	16.7333
0.631441	17.6904
0.660886	18.1739
0.693603	18.659
0.726321	20.0852
0.755766	20.0982
0.788483	21.0538
0.824472	21.5402
0.880091	22.0354
0.909537	23.4601
0.974971	24.9008
1.00442	24.9137
1.03713	25.3988
1.07312	26.3558
