Adsorption isotherm of Methane on UTSA-34b
DOI: 10.1002/chem.201103927
Adsorbate Methane: InChIKey VNWKTOKETHGBQD-UHFFFAOYSA-N
Temperature: 200 K
Tabular data in the source: 0
pressure (bar)	uptake (cm3(STP)/g)
0.389417	79.6137
0.410426	121.674
0.578499	108.155
0.773583	148.712
1.12849	159.227
1.31156	175.751
1.66872	190.773
2.1992	202.79
2.73042	216.309
3.6113	229.828
5.54563	252.361
6.77316	259.871
8.17627	268.884
9.75344	276.395
11.5054	283.906
13.0811	288.412
14.8316	292.918
16.0577	297.425
17.6326	300.429
19.2083	304.936
20.958	307.94
22.1833	310.944
23.933	313.948
25.508	316.953
27.0821	318.455
29.3564	321.459
