Adsorption isotherm of Ethene on UTSA-34a
DOI: 10.1002/chem.201103927
Adsorbate Ethene: InChIKey VGGSQFUCUMXWEO-UHFFFAOYSA-N
Temperature: 273 K
Tabular data in the source: 0
pressure (bar)	uptake (mmol/g)
0.00146541	0.0149254
0.00192548	0.0149254
0.00314695	0.0447761
0.00528457	0.104478
0.00911801	0.19403
0.0144904	0.328358
0.0224037	0.492537
0.029407	0.641791
0.0407577	0.820896
0.0534946	0.985075
0.0629651	1.10448
0.0871887	1.41791
0.124099	1.70149
0.15841	1.9403
0.225448	2.23881
0.287778	2.47761
0.357521	2.68657
0.456504	2.8806
0.615483	3.10448
0.68602	3.20896
0.807476	3.32836
0.976741	3.44776
1.18173	3.53731
1.39095	3.65672
1.68269	3.76119
2.03563	3.86567
