Adsorption isotherm of Nitrogen on UTSA-34b
DOI: 10.1002/chem.201103927
Adsorbate Nitrogen: InChIKey IJGRMHOSHXDMSA-UHFFFAOYSA-N
Temperature: 77 K
Tabular data in the source: 0
pressure (bar)	uptake (cm3(STP)/g)
0.00376992	205.517
0.00565925	307.586
0.00574672	293.793
0.0132166	315.862
0.0182636	320
0.0308854	329.655
0.0688907	336.552
0.0993037	340.69
0.111987	340.69
0.129734	342.069
0.160165	343.448
0.193132	344.828
0.223562	346.207
0.251465	346.207
0.276822	347.586
0.299643	348.966
0.317399	348.966
0.385888	348.966
0.446757	350.345
0.477197	350.345
0.505099	350.345
0.573597	348.966
0.604027	350.345
0.669979	350.345
0.700427	348.966
0.781598	348.966
0.796809	350.345
0.875453	348.966
0.905892	348.966
