Adsorption isotherm of Hydrogen on UTSA-34b
DOI: 10.1002/chem.201103927
Adsorbate Hydrogen: InChIKey UFHFLCQGNIYNRP-UHFFFAOYSA-N
Temperature: 100 K
Tabular data in the source: 0
pressure (bar)	uptake (wt%)
0.344828	0.34245
0.689655	0.506178
0.862069	0.699743
1.03448	0.818841
1.55172	1.05698
1.89655	1.17603
2.24138	1.2504
2.75862	1.36939
3.27586	1.51817
4.13793	1.66685
5	1.78574
5.86207	1.91953
7.24138	2.03827
7.93103	2.05296
9.31034	2.14191
10.5172	2.23091
12.069	2.27513
13.6207	2.33424
15.1724	2.39335
16.7241	2.42268
18.4483	2.45195
20	2.48128
21.5517	2.5255
23.1034	2.52503
24.8276	2.52452
26.5517	2.5389
28.2759	2.53839
30	2.53787
31.5517	2.53741
33.2759	2.5369
34.8276	2.53643
36.5517	2.53592
38.2759	2.52051
40	2.52
41.7241	2.51949
43.1034	2.51908
44.6552	2.50372
46.3793	2.48831
48.1034	2.4878
49.1379	2.4726
