Adsorption isotherm of Methane on UTSA-34b
DOI: 10.1002/chem.201103927
Adsorbate Methane: InChIKey VNWKTOKETHGBQD-UHFFFAOYSA-N
Temperature: 200 K
Tabular data in the source: 0
pressure (bar)	uptake (cm3(STP)/g)
0.174825	52.3504
0.34965	77.7778
0.524476	107.692
0.699301	121.154
0.874126	146.581
1.57343	176.496
1.92308	189.957
2.27273	200.427
2.7972	213.889
3.84615	227.35
4.54545	239.316
5.59441	246.795
8.04196	263.248
9.44056	267.735
11.5385	273.718
13.1119	278.205
15.9091	284.188
16.958	285.684
21.6783	290.171
25.6993	294.658
27.4476	294.658
29.3706	296.154
