Adsorption isotherm of Ethane on UTSA-34b
DOI: 10.1002/chem.201103927
Adsorbate Ethane: InChIKey OTMSDBZUPAUEDD-UHFFFAOYSA-N
Temperature: 273 K
Tabular data in the source: 0
pressure (bar)	uptake (cm3(STP)/g)
0.00297927	4.73684
0.0148964	16.2406
0.0297927	27.7444
0.0625647	43.985
0.0923574	54.812
0.119171	63.609
0.157901	71.7293
0.184715	76.4662
0.220466	83.2331
0.250259	87.2932
0.280051	90.6767
0.312823	94.0602
0.345595	96.7669
0.378367	98.797
0.414119	102.18
0.437953	102.857
0.470725	104.887
0.503497	106.241
0.536269	108.271
0.566061	108.947
0.601813	110.301
0.628626	110.977
0.664377	113.008
0.691191	113.008
0.786527	116.391
0.81632	116.391
0.911657	117.068
0.974222	118.421
1.00401	119.098
1.03381	119.098
1.0636	119.774
