Adsorption isotherm of Hydrogen on UTSA-34b
DOI: 10.1002/chem.201103927
Adsorbate Hydrogen: InChIKey UFHFLCQGNIYNRP-UHFFFAOYSA-N
Temperature: 77 K
Tabular data in the source: 0
pressure (bar)	uptake (wt%)
0.689655	0.689655
0.862069	2.11464
1.2069	2.2039
1.89655	2.59092
2.06897	2.68023
3.27586	2.88839
3.7931	2.97759
5	3.0517
5.86207	3.12591
7.24138	3.19997
8.44828	3.25919
10.1724	3.28846
11.7241	3.31778
13.4483	3.31727
15.1724	3.33165
16.8966	3.34603
18.4483	3.33067
20.1724	3.31527
21.8966	3.29986
23.6207	3.28445
25.3448	3.26905
26.8966	3.25369
28.6207	3.23828
30.3448	3.20798
31.8966	3.19263
33.6207	3.17722
35.3448	3.14692
36.8966	3.11667
38.6207	3.10126
40.1724	3.07101
41.8966	3.04071
43.6207	3.01041
45.1724	2.98016
46.8966	2.94986
48.4483	2.91961
48.9655	2.90456
