Adsorption isotherm of Hydrogen on UTSA-34b
DOI: 10.1002/chem.201103927
Adsorbate Hydrogen: InChIKey UFHFLCQGNIYNRP-UHFFFAOYSA-N
Temperature: 125 K
Tabular data in the source: 0
pressure (bar)	uptake (wt%)
0.699301	0.238298
1.57343	0.391489
2.7972	0.578723
3.14685	0.697872
4.1958	0.8
5.06993	0.919149
6.64336	1.07234
7.69231	1.19149
8.91608	1.2766
10.3147	1.37872
11.3636	1.44681
12.7622	1.53191
14.1608	1.6
15.7343	1.66809
16.6084	1.73617
19.9301	1.8383
22.5524	1.95745
24.1259	1.97447
27.4476	2.0766
29.021	2.11064
32.3427	2.1617
35.1399	2.22979
36.8881	2.24681
40.2098	2.29787
42.4825	2.33191
43.7063	2.34894
45.4545	2.36596
46.3287	2.36596
49.4755	2.4
