Adsorption isotherm of Methane on UTSA-34b
DOI: 10.1002/chem.201103927
Adsorbate Methane: InChIKey VNWKTOKETHGBQD-UHFFFAOYSA-N
Temperature: 273 K
Tabular data in the source: 0
pressure (bar)	uptake (mmol/g)
0.00286411	0.00727273
0.00518561	0.00727273
0.00889467	0.0145455
0.0169957	0.0218182
0.0268776	0.0509091
0.0371475	0.0654545
0.0486441	0.08
0.0728719	0.123636
0.0979851	0.174545
0.124847	0.218182
0.159024	0.283636
0.202557	0.349091
0.257907	0.443636
0.302965	0.509091
0.37537	0.625455
0.464944	0.763636
0.575835	0.909091
0.640522	1.01818
0.73189	1.13455
0.836128	1.26545
0.92969	1.40364
1.00719	1.46909
1.12022	1.58545
1.18118	1.65818
1.24545	1.73091
1.31335	1.79636
1.38482	1.86909
1.46017	1.94182
1.49922	1.98545
