Adsorption isotherm of Ethane on UTSA-34a
DOI: 10.1002/chem.201103927
Adsorbate Ethane: InChIKey OTMSDBZUPAUEDD-UHFFFAOYSA-N
Temperature: 296 K
Tabular data in the source: 0
pressure (bar)	uptake (mmol/g)
0.00117522	0.0254545
0.00166694	0.0381818
0.00218097	0.0381818
0.00285378	0.0509091
0.00363513	0.0636364
0.00463138	0.101818
0.00605955	0.101818
0.00793049	0.14
0.0101039	0.178182
0.0125326	0.229091
0.0159702	0.292727
0.0203489	0.343636
0.0252453	0.42
0.0388598	0.585455
0.0469364	0.674545
0.056697	0.776364
0.0684952	0.890909
0.0784007	0.98
0.0897222	1.04364
0.120788	1.26
0.154055	1.43818
0.186165	1.59091
0.2506	1.79455
0.302892	1.97273
0.365917	2.08727
0.430331	2.20182
0.506036	2.30364
0.579277	2.40545
0.681185	2.50727
0.80102	2.60909
0.967598	2.71091
1.1687	2.8
1.30225	2.88909
1.57291	2.97818
1.89982	3.06727
2.17394	3.11818
