Adsorption isotherm of Ethane on UTSA-34b
DOI: 10.1002/chem.201103927
Adsorbate Ethane: InChIKey OTMSDBZUPAUEDD-UHFFFAOYSA-N
Temperature: 296 K
Tabular data in the source: 0
pressure (bar)	uptake (mmol/g)
0.00250288	-0.00289777
0.00406762	0.0173866
0.00661059	0.037671
0.00964229	0.101933
0.0140627	0.188014
0.017925	0.230884
0.0228455	0.295572
0.0283387	0.382165
0.0391516	0.512053
0.0485568	0.642282
0.070762	0.902911
0.0925806	1.14206
0.131263	1.51187
0.17633	1.88184
0.218514	2.18662
0.270818	2.46958
0.373602	2.92675
0.450744	3.18797
0.515446	3.36209
0.638699	3.68869
0.73031	3.88463
0.857984	4.05867
0.981144	4.23279
1.21611	4.49393
1.42871	4.66796
1.67849	4.842
2.02606	4.99413
