Adsorption isotherm of Acetylene on UTSA-34a
DOI: 10.1002/chem.201103927
Adsorbate Acetylene: InChIKey HSFWRNGVRCDJHI-UHFFFAOYSA-N
Temperature: 293 K
Tabular data in the source: 0
pressure (bar)	uptake (cm3(STP)/g)
0.0351269	7.97677
0.063867	14.2199
0.0989939	20.1187
0.127734	24.6302
0.159668	29.1428
0.188408	33.3079
0.220341	36.7815
0.252275	39.9088
0.287402	43.7297
0.319335	46.1643
0.351269	48.2526
0.380009	50.6862
0.415136	53.1218
0.447069	54.8638
0.472616	57.2963
0.507743	59.0393
0.536483	60.7803
0.57161	62.5233
0.60035	63.9179
0.62909	66.0051
0.661023	67.0545
0.69615	68.7975
0.721697	69.8447
0.760017	70.8961
0.785564	71.9434
0.817498	73.339
0.849431	74.3884
0.878171	75.0903
0.913298	76.8333
0.951618	77.8847
0.970778	78.2373
0.999519	79.6319
1.03145	79.6423
