Adsorption isotherm of Nitrogen on UTSA-34a
DOI: 10.1002/chem.201103927
Adsorbate Nitrogen: InChIKey IJGRMHOSHXDMSA-UHFFFAOYSA-N
Temperature: 77 K
Tabular data in the source: 0
pressure (bar)	uptake (cm3(STP)/g)
0.00391862	182.069
0.00397985	172.414
0.0114847	188.966
0.0215874	195.862
0.0367808	200
0.0671938	204.138
0.100152	206.897
0.117917	205.517
0.133128	206.897
0.161022	208.276
0.193989	209.655
0.22442	211.034
0.254859	211.034
0.29038	209.655
0.300518	211.034
0.318265	212.414
0.384217	212.414
0.41212	212.414
0.447623	213.793
0.475526	213.793
0.508502	213.793
0.57699	213.793
0.604902	212.414
0.637869	213.793
0.668317	212.414
0.701275	215.172
0.764699	213.793
0.795147	212.414
0.86109	213.793
0.891512	216.552
