Adsorption isotherm of Hydrogen on UTSA-34b
DOI: 10.1002/chem.201103927
Adsorbate Hydrogen: InChIKey UFHFLCQGNIYNRP-UHFFFAOYSA-N
Temperature: 150 K
Tabular data in the source: 0
pressure (bar)	uptake (wt%)
0.874126	0.119149
1.3986	0.187234
2.44755	0.27234
3.14685	0.357447
4.37063	0.459574
5.59441	0.544681
8.04196	0.731915
9.44056	0.817021
11.014	0.902128
12.2378	0.953191
13.6364	1.05532
15.2098	1.1234
16.7832	1.19149
17.6573	1.22553
19.2308	1.29362
20.979	1.34468
22.5524	1.41277
23.6014	1.44681
25	1.49787
26.7483	1.53191
28.3217	1.58298
29.3706	1.61702
30.9441	1.65106
32.5175	1.68511
34.2657	1.71915
35.8392	1.75319
37.2378	1.78723
38.8112	1.82128
40.5594	1.85532
42.1329	1.87234
43.8811	1.88936
45.4545	1.9234
47.028	1.9234
50.6993	1.95745
