Adsorption isotherm of Methane on UTSA-34b
DOI: 10.1002/chem.201103927
Adsorbate Methane: InChIKey VNWKTOKETHGBQD-UHFFFAOYSA-N
Temperature: 296 K
Tabular data in the source: 0
pressure (bar)	uptake (cm3(STP)/g)
0.0392682	0.505415
0.0664506	1.01083
0.0996759	1.51625
0.12988	2.02166
0.163105	2.52708
0.193287	4.04332
0.223502	4.04332
0.253706	4.54874
0.320156	5.55957
0.347328	6.5704
0.380542	7.58123
0.413778	7.58123
0.447003	8.08664
0.477207	8.59206
0.510433	9.09747
0.540636	9.60289
0.573851	10.6137
0.634269	11.1191
0.697698	12.13
0.727902	12.6354
0.758106	13.1408
0.78831	13.6462
0.818514	14.1516
0.884964	15.1625
0.915168	15.6679
0.978597	16.6787
1.0088	17.1841
1.039	17.6895
1.06921	18.1949
