Adsorption isotherm of Hydrogen on UTSA-34b
DOI: 10.1002/chem.201103927
Adsorbate Hydrogen: InChIKey UFHFLCQGNIYNRP-UHFFFAOYSA-N
Temperature: 100 K
Tabular data in the source: 0
pressure (bar)	uptake (wt%)
0.34965	0.289362
0.524476	0.476596
0.699301	0.629787
0.874126	0.817021
1.22378	1.0383
1.92308	1.25957
2.44755	1.42979
2.97203	1.54894
3.4965	1.68511
4.72028	1.85532
5.76923	1.97447
6.99301	2.11064
7.69231	2.14468
9.09091	2.24681
10.3147	2.36596
11.8881	2.43404
13.4615	2.50213
15.035	2.58723
16.4336	2.6383
20.2797	2.75745
21.8531	2.79149
23.2517	2.82553
26.3986	2.89362
27.972	2.91064
33.042	2.97872
34.7902	2.99574
39.3357	3.06383
41.0839	3.08085
42.4825	3.08085
44.2308	3.09787
45.8042	3.11489
46.6783	3.11489
48.4266	3.11489
48.951	3.13191
