Adsorption isotherm of Carbon Dioxide on UTSA-34b
DOI: 10.1002/chem.201103927
Adsorbate Carbon Dioxide: InChIKey CURLTUGMZLYLDI-UHFFFAOYSA-N
Temperature: 240 K
Tabular data in the source: 0
pressure (bar)	uptake (cm3(STP)/g)
0.11041	74.2
0.22082	93.8
0.44164	124.6
0.55205	116.2
0.772871	134.4
0.993691	141.4
1.32492	151.2
1.54574	159.6
1.98738	169.4
2.53943	176.4
3.3123	190.4
4.52681	203
6.62461	221.2
8.17035	233.8
8.61199	236.6
8.94322	239.4
