Adsorption isotherm of Hydrogen on UTSA-34b
DOI: 10.1002/chem.201103927
Adsorbate Hydrogen: InChIKey UFHFLCQGNIYNRP-UHFFFAOYSA-N
Temperature: 200 K
Tabular data in the source: 0
pressure (bar)	uptake (wt%)
1.04895	0.0510638
2.0979	0.0851064
3.84615	0.119149
5.41958	0.170213
6.81818	0.238298
8.39161	0.289362
10.1399	0.340426
11.7133	0.374468
13.2867	0.425532
15.035	0.476596
16.6084	0.52766
18.3566	0.561702
20.1049	0.595745
21.6783	0.629787
23.2517	0.66383
25	0.697872
26.5734	0.731915
28.3217	0.765957
29.7203	0.782979
31.4685	0.817021
33.042	0.851064
34.7902	0.868085
36.5385	0.902128
38.1119	0.93617
39.8601	0.953191
41.6084	0.970213
43.1818	1.00426
44.9301	1.02128
46.5035	1.05532
48.0769	1.05532
49.8252	1.07234
50.3497	1.07234
