Adsorption isotherm of Ethane on UTSA-34b
DOI: 10.1002/chem.201103927
Adsorbate Ethane: InChIKey OTMSDBZUPAUEDD-UHFFFAOYSA-N
Temperature: 273 K
Tabular data in the source: 0
pressure (bar)	uptake (mmol/g)
0.0015819	0.0203696
0.00212814	0.0630691
0.00294131	0.105683
0.00385203	0.12665
0.00592898	0.234378
0.00755718	0.277248
0.0160576	0.689413
0.0199209	0.754187
0.0240458	0.90632
0.0290255	1.05845
0.0323147	1.18902
0.0379752	1.2976
0.0446098	1.49346
0.0524083	1.6675
0.0632354	1.9069
0.0762781	2.21176
0.094554	2.45109
0.108095	2.69066
0.133943	3.01726
0.161584	3.3003
0.194929	3.58335
0.22894	3.82284
0.291471	4.12753
0.38123	4.43214
0.485309	4.75865
0.618045	4.99788
0.746026	5.15002
0.92523	5.28025
1.14759	5.38866
1.38523	5.54079
1.71798	5.67102
