Adsorption isotherm of Ethane on UTSA-34a
DOI: 10.1002/chem.201103927
Adsorbate Ethane: InChIKey OTMSDBZUPAUEDD-UHFFFAOYSA-N
Temperature: 273 K
Tabular data in the source: 0
pressure (bar)	uptake (mmol/g)
0.00120773	0.0763636
0.00158045	0.101818
0.00206805	0.114545
0.00263475	0.152727
0.00344826	0.190909
0.0043937	0.241818
0.00476409	0.28
0.00575135	0.305455
0.00732892	0.369091
0.00909243	0.445455
0.011591	0.56
0.0198829	0.827273
0.0233808	0.929091
0.0274941	1.03091
0.032337	1.15818
0.0380181	1.23455
0.0435251	1.34909
0.0498253	1.45091
0.0585963	1.56545
0.0635594	1.65455
0.0747343	1.74364
0.0855598	1.85818
0.0928068	1.94727
0.109124	2.03636
0.124942	2.16364
0.15091	2.25273
0.187351	2.41818
0.238928	2.58364
0.288671	2.71091
0.378207	2.88909
0.469212	2.96545
0.566732	3.05455
0.896223	3.23273
1.34231	3.33455
2.065	3.42364
