Adsorption isotherm of Ethene on UTSA-34b
DOI: 10.1002/chem.201103927
Adsorbate Ethene: InChIKey VGGSQFUCUMXWEO-UHFFFAOYSA-N
Temperature: 273 K
Tabular data in the source: 0
pressure (bar)	uptake (cm3(STP)/g)
0.0148964	16.9173
0.0297927	25.7143
0.0625647	43.985
0.0893781	55.4887
0.125129	64.2857
0.157901	72.406
0.190673	78.4962
0.223445	83.9098
0.247279	87.2932
0.378367	100.15
0.411139	102.857
0.443911	104.887
0.470725	106.241
0.506476	108.947
0.536269	109.624
0.569041	112.331
0.598833	113.684
0.625647	114.361
0.658419	116.391
0.691191	117.068
0.720984	118.421
0.753756	119.774
0.783548	121.128
0.81632	121.128
0.849092	123.158
0.878885	123.835
0.911657	125.188
0.93847	125.188
0.974222	126.541
1.00103	127.218
1.03381	128.571
