Adsorption isotherm of Methane on UTSA-34b
DOI: 10.1002/chem.201103927
Adsorbate Methane: InChIKey VNWKTOKETHGBQD-UHFFFAOYSA-N
Temperature: 240 K
Tabular data in the source: 0
pressure (bar)	uptake (cm3(STP)/g)
0.524476	22.4359
0.699301	46.3675
0.874126	32.906
1.22378	64.3162
1.74825	77.7778
1.92308	91.2393
2.44755	106.197
2.7972	122.65
3.67133	139.103
4.72028	152.564
5.59441	163.034
8.04196	183.974
11.3636	201.923
16.0839	218.376
21.5035	234.829
27.4476	245.299
34.2657	254.274
40.5594	261.752
44.4056	267.735
45.4545	269.231
46.8531	270.726
