Adsorption isotherm of Carbon Dioxide on UTSA-34b
DOI: 10.1002/chem.201103927
Adsorbate Carbon Dioxide: InChIKey CURLTUGMZLYLDI-UHFFFAOYSA-N
Temperature: 290 K
Tabular data in the source: 0
pressure (bar)	uptake (cm3(STP)/g)
0.0121154	37.8
0.354936	57.4
0.584231	72.8
0.926603	91
1.37981	105
1.94474	117.6
2.28532	130.2
3.07506	144.2
3.86346	154
4.08917	158.2
4.87712	166.6
5.55288	175
6.45256	182
7.35269	190.4
8.14019	197.4
9.03942	203
10.0513	210
10.951	217
11.9619	221.2
12.9738	228.2
13.9852	233.8
14.9966	239.4
15.8958	245
17.0185	247.8
18.0299	253.4
19.1526	256.2
20.1636	260.4
21.175	266
22.1851	267.4
23.1956	270.2
24.3183	273
25.3283	274.4
26.4506	275.8
27.5728	277.2
28.3585	278.6
