Adsorption isotherm of Methane on UTSA-34b
DOI: 10.1002/chem.201103927
Adsorbate Methane: InChIKey VNWKTOKETHGBQD-UHFFFAOYSA-N
Temperature: 273 K
Tabular data in the source: 0
pressure (bar)	uptake (cm3(STP)/g)
0.0357512	-2.84e-14
0.065544	1.35338
0.0953367	2.70677
0.128109	3.38346
0.154922	4.73684
0.187694	5.41353
0.223445	6.76692
0.253238	8.1203
0.283031	9.47368
0.315803	9.47368
0.348575	11.5038
0.411139	13.5338
0.440932	13.5338
0.473704	15.5639
0.503497	16.2406
0.533289	16.9173
0.569041	18.2707
0.598833	19.6241
0.628626	20.3008
0.661398	20.9774
0.69417	21.6541
0.756735	24.3609
0.786527	24.3609
0.81632	25.0376
0.852071	26.391
0.878885	27.0677
0.911657	28.4211
0.974222	29.7744
1.00997	30.4511
1.03381	30.4511
1.06658	31.8045
