Adsorption isotherm of Methane on UTSA-34b
DOI: 10.1002/chem.201103927
Adsorbate Methane: InChIKey VNWKTOKETHGBQD-UHFFFAOYSA-N
Temperature: 296 K
Tabular data in the source: 0
pressure (bar)	uptake (cm3(STP)/g)
0.0635266	1.10092
0.100305	1.65138
0.127053	2.75229
0.160488	2.75229
0.19058	3.30275
0.254107	4.95413
0.287542	5.50459
0.344381	6.05505
0.38116	7.15596
0.411251	8.25688
0.441343	8.25688
0.474778	8.80734
0.501526	9.3578
0.538305	9.90826
0.57174	10.4587
0.628579	11.0092
0.665358	12.1101
0.718854	12.6606
0.755633	13.211
0.819159	14.8624
0.882686	15.4128
0.909434	16.5138
0.972961	16.5138
1.0064	17.0642
1.03649	17.6147
