Adsorption isotherm of Hydrogen on UTSA-34b
DOI: 10.1002/chem.201103927
Adsorbate Hydrogen: InChIKey UFHFLCQGNIYNRP-UHFFFAOYSA-N
Temperature: 87 K
Tabular data in the source: 0
pressure (bar)	uptake (wt%)
0.174825	0.174825
0.34965	1.1234
0.699301	1.41277
1.3986	1.80426
2.0979	2.05957
2.7972	2.22979
4.1958	2.48511
5.06993	2.60426
5.94406	2.68936
7.16783	2.77447
10.6643	2.99574
15.9091	3.18298
21.6783	3.30213
27.4476	3.38723
33.3916	3.4383
35.1399	3.4383
41.0839	3.48936
42.8322	3.48936
45.8042	3.50638
49.1259	3.5234
