Adsorption isotherm of Acetylene on UTSA-34b
DOI: 10.1002/chem.201103927
Adsorbate Acetylene: InChIKey HSFWRNGVRCDJHI-UHFFFAOYSA-N
Temperature: 296 K
Tabular data in the source: 0
pressure (bar)	uptake (mmol/g)
0.00174333	0.01999
0.0028572	0.0474207
0.0040663	0.0752957
0.00599487	0.161031
0.00823588	0.246988
0.0113146	0.303959
0.0155443	0.389916
0.021355	0.446888
0.0273388	0.649009
0.0498104	0.90799
0.0788043	1.28336
0.120354	1.71681
0.171284	2.12149
0.280722	2.84458
0.37229	3.27847
0.51146	3.85718
0.632071	4.34927
0.809182	4.81226
1	5.15942
1.28021	5.68038
1.47429	5.94081
1.69779	6.20123
1.95519	6.46166
2.02541	6.60647
