Adsorption isotherm of Ethene on UTSA-34a
DOI: 10.1002/chem.201103927
Adsorbate Ethene: InChIKey VGGSQFUCUMXWEO-UHFFFAOYSA-N
Temperature: 273 K
Tabular data in the source: 0
pressure (bar)	uptake (cm3(STP)/g)
0.0130869	8.94695
0.0327171	16.9556
0.0621626	26.3804
0.091608	33.4522
0.124325	39.1137
0.153771	43.8326
0.186488	47.6117
0.222477	50.4511
0.251922	53.2876
0.284639	55.655
0.314085	58.0209
0.350073	59.4486
0.382791	60.8748
0.408964	62.7687
0.441681	64.1949
0.47767	65.1519
0.507116	66.5767
0.536561	66.5897
0.566007	68.0144
0.598724	69.4406
0.631441	70.3962
0.660886	71.3504
0.693603	72.306
0.726321	72.7911
0.755766	73.7452
0.795027	74.2331
0.817929	74.7138
0.850646	74.7283
0.912808	76.1674
0.974971	77.1361
1.00442	77.6196
1.03713	78.5752
