Adsorption isotherm of Methane on UTSA-34b
DOI: 10.1002/chem.201103927
Adsorbate Methane: InChIKey VNWKTOKETHGBQD-UHFFFAOYSA-N
Temperature: 296 K
Tabular data in the source: 0
pressure (bar)	uptake (mmol/g)
0.00609691	0.00727273
0.0148522	0.0145455
0.0283792	0.0218182
0.0473773	0.0363636
0.0654742	0.0581818
0.0954993	0.08
0.131964	0.109091
0.163694	0.138182
0.203015	0.181818
0.251805	0.218182
0.303947	0.269091
0.366886	0.32
0.431026	0.378182
0.506377	0.436364
0.594844	0.501818
0.662122	0.56
0.736935	0.625455
0.842634	0.690909
0.937844	0.756364
1.04361	0.836364
1.16107	0.930909
1.25773	1.00364
1.36258	1.06909
1.43672	1.14182
1.55649	1.20727
1.68607	1.28
1.82644	1.35273
1.97869	1.41818
