Adsorption isotherm of Ethane on UTSA-34a
DOI: 10.1002/chem.201103927
Adsorbate Ethane: InChIKey OTMSDBZUPAUEDD-UHFFFAOYSA-N
Temperature: 293 K
Tabular data in the source: 0
pressure (bar)	uptake (cm3(STP)/g)
0.0191601	5.89367
0.0351269	11.0937
0.063867	18.722
0.0958005	24.6199
0.127734	29.1324
0.159668	32.606
0.191601	36.4258
0.223535	39.2068
0.255468	41.9877
0.293788	43.0391
0.319335	45.1253
0.351269	46.8673
0.380009	47.9156
0.418329	50.006
0.443876	50.3606
0.475809	51.7562
0.510936	52.4603
0.536483	53.5075
0.568416	54.5569
0.603543	54.9146
0.632283	55.9629
0.664217	56.6659
0.692957	57.0215
0.72489	57.7246
0.756824	58.4276
0.788757	59.1306
0.814304	59.1389
0.852624	60.1903
0.884558	60.547
0.913298	60.9026
0.973972	61.2686
1.00591	61.9716
1.03465	62.6736
