Adsorption isotherm of Methane on UTSA-34b
DOI: 10.1002/chem.201103927
Adsorbate Methane: InChIKey VNWKTOKETHGBQD-UHFFFAOYSA-N
Temperature: 240 K
Tabular data in the source: 0
pressure (bar)	uptake (cm3(STP)/g)
0.174216	19.5279
0.696864	45.0644
1.21951	64.5923
1.56794	76.6094
1.74216	93.133
2.43902	106.652
2.96167	124.678
4.00697	139.7
4.87805	154.721
5.74913	166.738
6.09756	172.747
7.49129	181.76
8.01394	189.27
9.40767	196.781
11.1498	208.798
12.5436	214.807
14.1115	220.815
15.5052	228.326
17.0732	232.833
18.6411	238.841
20.3833	243.348
21.9512	247.854
23.5192	253.863
25.0871	258.369
26.6551	262.876
28.223	265.88
29.9652	268.884
31.7073	273.391
33.2753	276.395
35.0174	277.897
36.5854	282.403
38.1533	286.91
39.8955	289.914
41.4634	294.421
43.2056	297.425
44.7735	300.429
46.1672	304.936
