Adsorption isotherm of Methane on UTSA-34b
DOI: 10.1002/chem.201103927
Adsorbate Methane: InChIKey VNWKTOKETHGBQD-UHFFFAOYSA-N
Temperature: 270 K
Tabular data in the source: 0
pressure (bar)	uptake (cm3(STP)/g)
0.87108	27.0386
1.39373	45.0644
2.43902	64.5923
3.3101	76.6094
4.18118	91.6309
5.57491	106.652
6.62021	117.167
8.18815	127.682
9.40767	139.7
11.324	153.219
12.7178	162.232
14.1115	169.742
15.331	177.253
16.7247	181.76
18.4669	189.27
20.0348	193.777
21.2544	198.283
22.8223	204.292
24.5645	208.798
25.9582	216.309
27.7003	217.811
29.2683	222.318
31.0105	225.322
32.4042	228.326
33.9721	232.833
35.7143	235.837
36.7596	240.343
38.3275	241.845
40.2439	247.854
41.9861	252.361
43.554	256.867
45.122	261.373
46.6899	262.876
