Adsorption isotherm of Ethene on UTSA-34a
DOI: 10.1002/chem.201103927
Adsorbate Ethene: InChIKey VGGSQFUCUMXWEO-UHFFFAOYSA-N
Temperature: 296 K
Tabular data in the source: 0
pressure (bar)	uptake (mmol/g)
0.00233911	8.88e-16
0.00334049	0.0148699
0.00532341	0.0148699
0.00825411	0.0446097
0.013895	0.104089
0.0221432	0.178439
0.0334049	0.252788
0.0464162	0.356877
0.0700229	0.490706
0.0921064	0.654275
0.11469	0.788104
0.142811	0.921933
0.18277	1.0855
0.20395	1.17472
0.24041	1.29368
0.307677	1.5316
0.393766	1.73978
0.503942	1.96283
0.594032	2.08178
0.681292	2.21561
0.78137	2.33457
0.896151	2.4684
1.05635	2.58736
1.21153	2.72119
1.59361	2.92937
2.0395	3.13755
