Adsorption isotherm of Acetylene on UTSA-34a
DOI: 10.1002/chem.201103927
Adsorbate Acetylene: InChIKey HSFWRNGVRCDJHI-UHFFFAOYSA-N
Temperature: 273 K
Tabular data in the source: 0
pressure (bar)	uptake (cm3(STP)/g)
0.0327171	21.6615
0.0654343	33.9112
0.0948797	42.8654
0.124325	50.8784
0.157042	57.0105
0.186488	61.7293
0.219205	66.4497
0.24865	70.2274
0.281367	73.0653
0.317356	75.9047
0.346802	78.2707
0.382791	81.1101
0.412236	83.476
0.441681	84.4302
0.474399	86.7975
0.503844	88.2223
0.536561	89.6485
0.566007	91.0733
0.598724	92.4995
0.631441	93.4551
0.660886	94.4092
0.693603	95.3649
0.723049	96.7896
0.752494	97.2732
0.785211	98.6994
0.817929	99.1844
0.847374	99.668
0.880091	100.624
0.909537	101.107
0.968428	102.545
0.994601	103.027
1.03386	103.515
