Adsorption isotherm of Methane on UTSA-34a
DOI: 10.1002/chem.201103927
Adsorbate Methane: InChIKey VNWKTOKETHGBQD-UHFFFAOYSA-N
Temperature: 273 K
Tabular data in the source: 0
pressure (bar)	uptake (mmol/g)
0.0117649	0.0206642
0.0176628	0.0309963
0.0258083	0.0361624
0.0367037	0.0516605
0.0468371	0.0671587
0.0614101	0.0878229
0.0827275	0.118819
0.111445	0.17048
0.146119	0.22214
0.176628	0.258303
0.219369	0.320295
0.258086	0.377122
0.303636	0.428782
0.367034	0.506273
0.431811	0.573432
0.494445	0.661255
0.566162	0.754244
0.666084	0.8369
0.742315	0.935055
0.849986	1.02804
0.973274	1.12103
1.02746	1.1572
1.05567	1.20886
1.14505	1.25535
1.2088	1.30701
1.27609	1.35867
