Adsorption isotherm of Methane on UTSA-34b
DOI: 10.1002/chem.201103927
Adsorbate Methane: InChIKey VNWKTOKETHGBQD-UHFFFAOYSA-N
Temperature: 150 K
Tabular data in the source: 0
pressure (bar)	uptake (cm3(STP)/g)
0.0780336	156.223
0.27912	208.798
0.297128	244.85
0.307632	265.88
0.313635	277.897
0.667037	285.408
0.846364	294.421
1.02644	304.936
1.37984	312.446
2.0844	322.961
2.78595	327.468
3.48825	333.476
4.36463	337.983
5.24175	343.991
5.94105	343.991
