Adsorption isotherm of Hydrogen on UTSA-34b
DOI: 10.1002/chem.201103927
Adsorbate Hydrogen: InChIKey UFHFLCQGNIYNRP-UHFFFAOYSA-N
Temperature: 125 K
Tabular data in the source: 0
pressure (bar)	uptake (wt%)
0.517241	0.133888
1.2069	0.297513
1.72414	0.401614
2.41379	0.505664
3.10345	0.565033
3.44828	0.654292
4.13793	0.773236
5.17241	0.862289
6.72414	1.02566
7.75862	1.11471
9.13793	1.18877
10.5172	1.27772
11.5517	1.33698
12.931	1.41104
14.4828	1.47015
16.2069	1.52921
16.5517	1.5589
18.1034	1.58822
19.8276	1.63239
21.3793	1.67661
23.1034	1.72078
23.9655	1.73541
25.6897	1.76469
27.2414	1.77912
28.9655	1.80839
30	1.82298
31.7241	1.83736
33.2759	1.85179
35	1.86617
36.5517	1.86571
37.931	1.88019
39.6552	1.87968
41.3793	1.87916
43.1034	1.89354
44.8276	1.89303
46.3793	1.89257
48.1034	1.89205
49.8276	1.89154
