Adsorption isotherm of Acetylene on UTSA-34b
DOI: 10.1002/chem.201103927
Adsorbate Acetylene: InChIKey HSFWRNGVRCDJHI-UHFFFAOYSA-N
Temperature: 296 K
Tabular data in the source: 0
pressure (bar)	uptake (cm3(STP)/g)
0.0167175	7.70642
0.0334351	15.9633
0.0601831	25.3211
0.0936182	32.4771
0.12371	39.633
0.153801	45.6881
0.183893	51.1927
0.220672	56.1468
0.24742	60.5505
0.274168	64.4037
0.317633	69.3578
0.337694	71.5596
0.38116	75.9633
0.411251	79.2661
0.441343	82.0183
0.468091	85.3211
0.494839	86.9725
0.534961	90.2752
0.568396	93.0275
0.625236	96.8807
0.665358	99.633
0.722198	104.037
0.752289	105.688
0.785724	106.789
0.815816	108.991
0.852594	111.193
0.882686	112.844
0.912778	113.945
0.976304	117.248
1.00305	118.349
1.03649	119.45
