Adsorption isotherm of Carbon Dioxide on UTSA-34b
DOI: 10.1002/chem.201103927
Adsorbate Carbon Dioxide: InChIKey CURLTUGMZLYLDI-UHFFFAOYSA-N
Temperature: 290 K
Tabular data in the source: 0
pressure (bar)	uptake (cm3(STP)/g)
0.22082	0.22082
0.33123	51.8
0.662461	72.8
0.993691	91
1.43533	105
1.87697	119
2.31861	128.8
3.20189	142.8
3.97476	151.2
4.63722	159.6
5.41009	169.4
6.29338	176.4
7.17666	183.4
7.94953	193.2
8.94322	196
9.8265	203
10.8202	210
11.8139	214.2
12.8076	219.8
13.8013	225.4
14.795	229.6
15.6782	236.6
16.6719	238
17.776	240.8
18.7697	245
19.8738	249.2
20.9779	252
21.8612	253.4
22.9653	256.2
23.959	257.6
25.0631	260.4
26.1672	260.4
27.1609	260.4
28.1546	260.4
