Adsorption isotherm of Acetylene on UTSA-34b
DOI: 10.1002/chem.201103927
Adsorbate Acetylene: InChIKey HSFWRNGVRCDJHI-UHFFFAOYSA-N
Temperature: 296 K
Tabular data in the source: 0
pressure (bar)	uptake (cm3(STP)/g)
0.0179325	9.09747
0.0359413	14.657
0.0659379	24.7653
0.0929567	32.852
0.126073	38.4116
0.153124	44.9819
0.189262	50.5415
0.222389	55.5957
0.252506	60.1444
0.282622	64.6931
0.31576	69.2419
0.34591	72.2744
0.382091	75.8123
0.41224	78.8448
0.4454	82.3827
0.478571	85.4152
0.502699	87.4368
0.538891	90.4693
0.569051	92.9964
0.596212	94.5126
0.629404	96.5343
0.662575	99.5668
0.692757	101.083
0.722928	103.105
0.75611	105.632
0.786292	107.148
0.819485	109.17
0.849667	110.686
0.876816	112.708
0.913052	113.718
0.940213	115.235
0.967384	116.245
1.00059	117.762
1.03983	119.278
