Adsorption isotherm of Hydrogen on UTSA-34b
DOI: 10.1002/chem.201103927
Adsorbate Hydrogen: InChIKey UFHFLCQGNIYNRP-UHFFFAOYSA-N
Temperature: 87 K
Tabular data in the source: 0
pressure (bar)	uptake (wt%)
0.172414	0.670161
0.344828	0.938195
0.689655	1.19128
1.03448	1.42948
1.37931	1.66767
1.89655	1.92071
2.41379	2.0546
3.10345	2.20333
3.62069	2.30743
4.31034	2.41148
5.17241	2.51548
6.03448	2.60459
7.24138	2.6638
8.7931	2.73781
10.3448	2.79692
11.7241	2.84119
13.4483	2.88536
16.0345	2.94416
20.1724	2.97271
21.8966	2.9722
23.4483	2.97174
25.1724	2.97123
27.2414	2.95572
28.7931	2.95525
35.1724	2.90867
41.2069	2.8473
42.7586	2.83194
46.0345	2.80118
49.3103	2.77042
