Adsorption isotherm of Ethane on UTSA-34b
DOI: 10.1002/chem.201103927
Adsorbate Ethane: InChIKey OTMSDBZUPAUEDD-UHFFFAOYSA-N
Temperature: 296 K
Tabular data in the source: 0
pressure (bar)	uptake (cm3(STP)/g)
0.0300916	13.211
0.0668702	20.9174
0.0969617	28.6239
0.127053	35.7798
0.254107	52.844
0.284198	57.7982
0.354412	64.4037
0.511557	75.9633
0.541648	78.1651
0.628579	82.0183
0.69545	85.8716
0.785724	89.7248
0.879343	92.4771
0.972961	95.7798
1.04317	97.9817
