Adsorption isotherm of Ethane on UTSA-34b
DOI: 10.1002/chem.201103927
Adsorbate Ethane: InChIKey OTMSDBZUPAUEDD-UHFFFAOYSA-N
Temperature: 296 K
Tabular data in the source: 0
pressure (bar)	uptake (cm3(STP)/g)
0.0149656	6.5704
0.0329635	12.6354
0.0630037	20.722
0.0960872	27.7978
0.126149	34.8736
0.159276	39.9278
0.186371	44.4765
0.222531	49.0253
0.252648	53.574
0.285818	56.6065
0.318978	60.1444
0.352149	63.1769
0.379277	66.2094
0.412458	68.7365
0.439597	71.2635
0.472779	73.7906
0.505971	75.8123
0.539175	77.3285
0.569357	78.8448
0.60256	80.361
0.632731	82.3827
0.662902	84.4043
0.696128	84.9097
0.72631	86.426
0.789706	88.9531
0.82291	90.4693
0.883295	92.491
0.910456	94.0072
0.973874	95.5235
1.01011	96.5343
1.03729	97.0397
