Adsorption isotherm of Acetylene on UTSA-34a
DOI: 10.1002/chem.201103927
Adsorbate Acetylene: InChIKey HSFWRNGVRCDJHI-UHFFFAOYSA-N
Temperature: 273 K
Tabular data in the source: 0
pressure (bar)	uptake (mmol/g)
0.00166644	0.0552089
0.00263166	0.0916966
0.00393849	0.147199
0.00674202	0.24007
0.01009	0.371045
0.0163685	0.539535
0.0244968	0.74598
0.0320509	0.915058
0.0454559	1.17825
0.0610928	1.4416
0.0757495	1.7429
0.0964806	1.94978
0.140559	2.43932
0.194061	2.79693
0.24717	3.11703
0.379985	3.68189
0.483977	4.00198
0.705097	4.35944
1.05523	4.62249
1.45688	4.81029
1.90615	4.94163
