Adsorption isotherm of Hydrogen on UTSA-34b
DOI: 10.1002/chem.201103927
Adsorbate Hydrogen: InChIKey UFHFLCQGNIYNRP-UHFFFAOYSA-N
Temperature: 150 K
Tabular data in the source: 0
pressure (bar)	uptake (wt%)
0.689655	0.0742627
1.37931	0.163419
2.24138	0.222737
2.93103	0.296999
3.7931	0.371211
4.82759	0.445371
5.68966	0.504688
7.24138	0.608481
8.44828	0.667696
10.1724	0.771438
12.5862	0.874974
17.931	1.08189
20.6897	1.15554
23.7931	1.25887
29.8276	1.37622
37.4138	1.46332
40.8621	1.50698
43.7931	1.521
50.6897	1.53384
