Adsorption isotherm of Acetylene on UTSA-34a
DOI: 10.1002/chem.201103927
Adsorbate Acetylene: InChIKey HSFWRNGVRCDJHI-UHFFFAOYSA-N
Temperature: 296 K
Tabular data in the source: 0
pressure (bar)	uptake (mmol/g)
0.00242778	0.0164452
0.00383407	0.052933
0.00771187	0.08876
0.0139306	0.143749
0.0177431	0.180824
0.022599	0.236767
0.0287833	0.330446
0.0366606	0.348653
0.0454559	0.461273
0.0799319	0.799354
0.113364	1.00595
0.152363	1.30703
0.216088	1.64569
0.275226	1.89032
0.360097	2.1726
0.446483	2.43616
0.497162	2.60568
0.584167	2.79392
0.668195	2.96337
0.744038	3.13288
0.874247	3.28339
1	3.45283
1.175	3.58447
1.27367	3.69745
1.45688	3.84803
1.71184	4.0174
1.95807	4.16798
