Adsorption isotherm of Methanol on [Zn3(H2PO4)6(H2O)3](Hbim)
DOI: 10.1021/Ja4051668
Adsorbate Methanol: InChIKey OKKJLVBELUTLKV-UHFFFAOYSA-N
Temperature: 298 K
Tabular data in the source: 0
pressure (bar)	uptake (mol/mol)
0.0398042	0.0338543
0.0703849	0.0705423
0.0951403	0.10902
0.109218	0.104695
0.116012	0.148691
0.118925	0.147796
0.125233	0.191941
