Adsorption isotherm of Methanol on [Zn3(HPO4)6](Hbim)
DOI: 10.1021/Ja4051668
Adsorbate Methanol: InChIKey OKKJLVBELUTLKV-UHFFFAOYSA-N
Temperature: 298 K
Tabular data in the source: 0
pressure (bar)	uptake (mol/mol)
0.00582086	0.0903776
0.0101899	0.0890354
0.0198943	0.17822
0.0257196	0.17643
0.0329923	0.358528
0.044634	0.539283
0.0533631	0.720933
0.061119	0.948965
0.0625395	1.68586
0.0674208	1.13136
0.069801	2.09837
0.0751208	2.51148
0.0799551	2.92474
0.0852659	3.52219
0.088154	4.02822
0.0900711	4.53454
0.0929592	5.04057
0.0953685	5.40849
0.0982678	5.6841
0.102612	6.18967
0.10406	6.37356
0.106952	6.78742
0.114209	7.2921
0.120976	7.8891
0.124354	8.30281
