Adsorption isotherm of M-Xylene on {[Zn4O(L)3(DMF)2] xG}n
DOI: 10.1038/Srep05761
Adsorbate M-Xylene: InChIKey IVSZLXZYQVIEFR-UHFFFAOYSA-N
Temperature: 298 K
Tabular data in the source: 0
pressure (bar)	uptake (molecules/formula unit)
0.0058875	0.107276
0.00697892	0.111329
0.00806983	0.155086
0.00923677	0.20836
0.0103532	0.242054
