Adsorption isotherm of P-Xylene on {[Zn4O(L)3(DMF)2] xG}n
DOI: 10.1038/Srep05761
Adsorbate P-Xylene: InChIKey URLKBWYHVLBVBO-UHFFFAOYSA-N
Temperature: 298 K
Tabular data in the source: 0
pressure (bar)	uptake (molecules/formula unit)
7.99978e-05	0.0392951
0.000426833	0.196339
0.000585496	0.374192
0.000798113	0.531919
0.000928068	0.848875
0.00111158	1.17548
0.001161	1.49285
0.00116819	0.956835
0.00134877	1.50182
0.0014265	1.70986
0.00145508	1.58068
0.0014794	1.76915
0.00166303	2.08583
0.00168881	2.1651
0.00171459	2.24438
0.0017465	1.86704
0.00179392	2.3333
0.00182569	1.9659
0.00206169	2.38157
0.0021373	2.74843
0.00216147	2.94682
0.00216281	2.84755
0.00218619	3.1055
0.00218686	3.05587
0.00219231	2.64889
0.00221196	3.18477
0.00229156	3.25385
0.00230075	2.56894
0.00238275	2.45934
0.0024784	3.3323
0.00263906	3.36126
0.0029863	3.48853
0.00325434	3.51694
0.00365619	3.57445
0.00413844	3.64147
0.00486228	3.70727
0.00553231	3.78326
0.0059614	3.81086
0.00673907	3.86645
0.00722145	3.92355
0.00781161	3.95032
0.0083748	3.98716
0.00893825	4.00414
0.00955511	4.04071
0.010145	4.08733
0.0107085	4.10432
0.0112444	4.17107
