Adsorption isotherm of P-Xylene on {[Zn4O(L)3(DMF)2] xG}n
DOI: 10.1038/Srep05761
Adsorbate P-Xylene: InChIKey URLKBWYHVLBVBO-UHFFFAOYSA-N
Temperature: 298 K
Tabular data in the source: 0
pressure (bar)	uptake (molecules/formula unit)
0.00110751	3.47824
0.00126765	3.5469
0.00164266	3.60454
0.001937	3.67253
0.0022049	3.71086
0.00247254	3.76906
0.00282097	3.80698
0.00311572	3.84519
0.00338389	3.86367
0.00386667	3.89099
0.00440301	3.92797
0.00496633	3.95488
0.00563702	3.98124
0.00636126	4.01726
0.00708564	4.04335
0.0081053	4.06794
0.00885639	4.10382
0.00990275	4.13819
0.0107612	4.17353
0.0115928	4.209
