Adsorption isotherm of M-Xylene on {[Zn4O(L)3(DMF)2] xG}n
DOI: 10.1038/Srep05761
Adsorbate M-Xylene: InChIKey IVSZLXZYQVIEFR-UHFFFAOYSA-N
Temperature: 298 K
Tabular data in the source: 0
pressure (bar)	uptake (molecules/formula unit)
0.00136826	0.191148
0.00213118	0.0778618
0.00431389	0.0958929
0.00550661	0.119251
0.00756188	0.177671
0.00999782	0.243967
0.0110126	0.288134
