Adsorption isotherm of Ethylbenzene on {[Zn4O(L)3(DMF)2] xG}n
DOI: 10.1038/Srep05761
Adsorbate Ethylbenzene: InChIKey YNQLUTRBYVCPMQ-UHFFFAOYSA-N
Temperature: 298 K
Tabular data in the source: 0
pressure (bar)	uptake (molecules/formula unit)
0.00160281	0.121528
0.0024498	0.0580093
0.00332595	-0.00564612
0.00501688	0.0757672
0.00895292	0.245925
0.0119839	0.460022
0.0126242	0.566205
