Adsorption isotherm of Ethylbenzene on {[Zn4O(L)3(DMF)2] xG}n
DOI: 10.1038/Srep05761
Adsorbate Ethylbenzene: InChIKey YNQLUTRBYVCPMQ-UHFFFAOYSA-N
Temperature: 298 K
Tabular data in the source: 0
pressure (bar)	uptake (molecules/formula unit)
0.000203945	0.0188963
0.00107938	0.00487205
0.0014295	0.00323286
0.00387929	0.0612421
0.00533738	0.104043
0.00662056	0.137738
0.0083993	0.198889
0.0102651	0.289409
0.012276	0.438803
