Adsorption isotherm of O-Xylene on {[Zn4O(L)3(DMF)2] xG}n
DOI: 10.1038/Srep05761
Adsorbate O-Xylene: InChIKey CTQNGGLPUBDAKN-UHFFFAOYSA-N
Temperature: 298 K
Tabular data in the source: 0
pressure (bar)	uptake (molecules/formula unit)
0.000305358	0.0178035
0.00105897	0.0226755
0.00289244	0.000455332
0.00425706	0.0111556
0.00527549	0.0142519
0.00647716	0.026045
0.00792348	0.0163464
