Adsorption isotherm of O-Xylene on {[Zn4O(L)3(DMF)2] xG}n
DOI: 10.1038/Srep05761
Adsorbate O-Xylene: InChIKey CTQNGGLPUBDAKN-UHFFFAOYSA-N
Temperature: 298 K
Tabular data in the source: 0
pressure (bar)	uptake (molecules/formula unit)
0.000732333	0.0943448
0.00144551	0.0697113
0.00199531	0.0858756
0.00289152	0.0897915
0.0051325	0.054913
0.0074954	0.0489937
0.00883995	0.0300519
