Adsorption isotherm of Hydrogen on Zeolite RHO
DOI: 10.1016/j.apsusc.2008.11.072
Adsorbate Hydrogen: InChIKey UFHFLCQGNIYNRP-UHFFFAOYSA-N
Temperature: 80 K
Tabular data in the source: 0
pressure (bar)	uptake (wt%)
0.000200957	0.0168675
0.00045933	0.0421687
0.00100478	0.0899598
0.00146411	0.11245
0.0021244	0.132129
0.00272727	0.165863
0.00324402	0.205221
0.00373206	0.230522
0.00436364	0.26988
0.00488038	0.312048
0.00562679	0.362651
0.00620096	0.393574
0.00720574	0.441365
0.0077799	0.463855
0.00852632	0.503213
0.00889952	0.528514
0.00955981	0.570683
0.0100191	0.607229
