Adsorption isotherm of Hydrogen on Zeolite RHO
DOI: 10.1016/j.apsusc.2008.11.072
Adsorbate Hydrogen: InChIKey UFHFLCQGNIYNRP-UHFFFAOYSA-N
Temperature: 80 K
Tabular data in the source: 0
pressure (bar)	uptake (wt%)
0.000172249	0.00843373
0.000631579	0.0393574
0.000976077	0.0618474
0.00160766	0.0983936
0.0021244	0.132129
0.00269856	0.165863
0.00324402	0.199598
0.00378947	0.233333
0.00439234	0.264257
0.00502392	0.306426
0.00562679	0.342972
0.00640191	0.390763
0.00711962	0.441365
0.0077512	0.483534
0.00832536	0.52008
0.00887081	0.553815
0.00947368	0.593173
0.00999043	0.624096
