Adsorption isotherm of Nitrogen on Desolvated C30H36Co2N2O16
DOI: 10.1016/j.micromeso.2011.10.036
Adsorbate Nitrogen: InChIKey IJGRMHOSHXDMSA-UHFFFAOYSA-N
Temperature: 77 K
Tabular data in the source: 0
pressure (bar)	uptake (cm3(STP)/g)
0.0105371	1.54013
0.0337187	2.00534
0.0632226	2.16386
0.0990487	2.78492
0.118015	2.78792
0.134875	3.09828
0.155949	3.40931
0.177023	3.2588
0.193883	3.41532
0.240246	3.26881
0.292931	3.58485
0.345617	3.43935
0.387765	3.59987
0.436236	3.60754
0.482599	3.46104
0.535284	3.62323
0.581648	3.47672
0.628011	3.63791
0.678589	3.79977
0.729167	4.11547
0.777637	4.58468
0.796604	5.04922
0.826108	5.66928
0.84929	6.28834
0.874579	7.36926
0.899868	8.75788
0.920942	10.7612
0.946231	14.1498
0.950446	16.3044
0.96309	19.3833
0.969413	50.1535
