Adsorption isotherm of Argon on Desolvated C30H36Co2N2O16
DOI: 10.1016/j.micromeso.2011.10.036
Adsorbate Argon: InChIKey XKRFYHLGVUSROY-UHFFFAOYSA-N
Temperature: 77 K
Tabular data in the source: 0
pressure (bar)	uptake (cm3(STP)/g)
0.00178959	0.924078
0.0041757	1.5408
0.00894794	1.69731
0.0155098	2.31637
0.0226681	2.78191
0.0268438	2.93809
0.0340022	3.40364
0.0447397	3.87118
0.0489154	4.02737
0.0626356	4.80427
0.0769523	5.73536
0.0888829	6.20357
0.110358	7.13866
0.124675	7.76206
0.137798	8.23094
0.151518	9.31553
0.165239	10.0924
0.178362	10.869
0.192082	12.1075
0.205206	12.884
0.220716	13.8158
0.226085	14.4342
0.233839	15.2077
0.240998	15.8271
0.248156	16.6004
0.254718	17.8348
0.260683	18.6074
0.267245	19.5341
0.269631	20.3047
0.270824	33.69
