Adsorption isotherm of As(III), Water on Fe-SM (iron-coated S. muticum)
DOI: 10.1016/j.jenvman.2017.01.054
Article source: Figure 6
Adsorbate As(III): InChIKey LULLIKNODDLMDQ-UHFFFAOYSA-N
Adsorbate Water: InChIKey XLYOFNOQVPJJNP-UHFFFAOYSA-N
Kind: experiment
Temperature: 293 K
Tabular data in the source: 0
pressure (bar)	As(III) fraction	As(III) uptake (mg/g)	Water fraction	Water uptake (mg/g)	total uptake (mg/g)
1.01325	0.1792	0.1345			
1.01325	1.5305	0.409			
1.01325	2.2993	0.8546			
1.01325	5.4574	1.077			
1.01325	9.8711	1.5865			
1.01325	16.2413	2.353			
