Adsorption isotherm of Arsenate, Water on Fe-SM (iron-coated S. muticum)
DOI: 10.1016/j.jenvman.2017.01.054
Article source: Figure 6
Adsorbate Arsenate: InChIKey HAYXDMNJJFVXCI-UHFFFAOYSA-N
Adsorbate Water: InChIKey XLYOFNOQVPJJNP-UHFFFAOYSA-N
Kind: experiment
Temperature: 293 K
Tabular data in the source: 0
pressure (bar)	Arsenate fraction	Arsenate uptake (mg/g)	Water fraction	Water uptake (mg/g)	total uptake (mg/g)
1.01325	0.1159	0.0955			
1.01325	0.6906	0.4156			
1.01325	2.1188	0.8901			
1.01325	2.4232	1.3466			
1.01325	5.2336	1.7703			
1.01325	8.2638	2.8255			
