Adsorption isotherm of Methane on Activated carbon: EcoSorb
DOI: 10.1007/s10973-014-3931-z
Article source: Table 1
Adsorbate Methane: InChIKey VNWKTOKETHGBQD-UHFFFAOYSA-N
Kind: experiment
Temperature: 323 K
Tabular data in the source: 0
pressure (bar)	uptake (mmol/g)
0.2	0.14
0.6	0.3
1.1	0.48
1.7	0.69
2.5	0.91
3.5	1.15
4.5	1.36
5.6	1.54
6.7	1.72
7.8	1.87
9	2.04
10.4	2.2
11.6	2.36
13.1	2.5
14.7	2.67
16.8	2.85
18.6	3.02
