Adsorption isotherm of Methane on Activated carbon: EcoSorb
DOI: 10.1007/s10973-014-3931-z
Article source: Table 1
Adsorbate Methane: InChIKey VNWKTOKETHGBQD-UHFFFAOYSA-N
Kind: experiment
Temperature: 303 K
Tabular data in the source: 0
pressure (bar)	uptake (mmol/g)
1.5	0.75
3.9	1.51
7.2	2.18
10.6	2.66
14.5	3.08
18.8	3.41
22.2	3.63
