Adsorption isotherm of Carbon Dioxide, Methane on Activated carbon: EcoSorb
DOI: 10.1007/s10973-014-3931-z
Article source: Table 4c
Adsorbate Carbon Dioxide: InChIKey CURLTUGMZLYLDI-UHFFFAOYSA-N
Adsorbate Methane: InChIKey VNWKTOKETHGBQD-UHFFFAOYSA-N
Kind: experiment
Temperature: 303 K
Tabular data in the source: 0
pressure (bar)	Carbon Dioxide fraction	Carbon Dioxide uptake (mmol/g)	Methane fraction	Methane uptake (mmol/g)	total uptake (mmol/g)
3.4	0.5	1.64	0.5	1.08	
6.8	0.5	3	0.5	1.56	
9.8	0.5	4.08	0.5	1.87	
12.9	0.5	5.09	0.5	2.18	
16.2	0.5	6.03	0.5	2.51	
19.1	0.5	6.85	0.5	2.78	
21.3	0.5	7.55	0.5	3	
23.9	0.5	8.28	0.5	3.25	
