Adsorption isotherm of Carbon Dioxide, Methane on Activated carbon: EcoSorb
DOI: 10.1007/s10973-014-3931-z
Article source: Table 4b
Adsorbate Carbon Dioxide: InChIKey CURLTUGMZLYLDI-UHFFFAOYSA-N
Adsorbate Methane: InChIKey VNWKTOKETHGBQD-UHFFFAOYSA-N
Kind: experiment
Temperature: 323 K
Tabular data in the source: 0
pressure (bar)	Carbon Dioxide fraction	Carbon Dioxide uptake (mmol/g)	Methane fraction	Methane uptake (mmol/g)	total uptake (mmol/g)
5.1	0.5	1.58	0.5	1.15	
8	0.5	2.48	0.5	1.47	
12.7	0.5	3.67	0.5	2.02	
16.3	0.5	4.55	0.5	2.4	
18.6	0.5	5.1	0.5	2.59	
20.6	0.5	5.59	0.5	2.73	
22.2	0.5	6.02	0.5	2.85	
25.6	0.5	6.76	0.5	3.17	
