Adsorption isotherm of Methane on Activated carbon: EcoSorb
DOI: 10.1007/s10973-014-3931-z
Article source: Table 1
Adsorbate Methane: InChIKey VNWKTOKETHGBQD-UHFFFAOYSA-N
Kind: experiment
Temperature: 353 K
Tabular data in the source: 0
pressure (bar)	uptake (mmol/g)
0.5	0.18
1.9	0.52
3.5	0.83
5.4	1.13
7.3	1.39
9.5	1.65
11.7	1.86
14.7	2.13
17.2	2.31
20	2.51
22.4	2.66
