Adsorption isotherm of Carbon Dioxide on Activated carbon: EcoSorb
DOI: 10.1007/s10973-014-3931-z
Article source: Table 2
Adsorbate Carbon Dioxide: InChIKey CURLTUGMZLYLDI-UHFFFAOYSA-N
Kind: experiment
Temperature: 323 K
Tabular data in the source: 0
pressure (bar)	uptake (mmol/g)
0.3	0.3
0.8	0.79
1.7	1.42
3	2.1
4.6	2.72
6.3	3.34
8.3	3.9
10.1	4.35
11.9	4.74
13.8	5.09
15.6	5.4
17.4	5.67
19.2	5.93
20.9	6.16
