Adsorption isotherm of Carbon Dioxide on Activated carbon: EcoSorb
DOI: 10.1007/s10973-014-3931-z
Article source: Table 2
Adsorbate Carbon Dioxide: InChIKey CURLTUGMZLYLDI-UHFFFAOYSA-N
Kind: experiment
Temperature: 353 K
Tabular data in the source: 0
pressure (bar)	uptake (mmol/g)
0.4	0.28
1.1	0.63
2.2	1.04
3.6	1.5
5.2	1.94
6.8	2.33
8.6	2.7
10.4	3.02
12.3	3.34
14.1	3.61
16.1	3.87
17.6	4.07
19.3	4.25
21.2	4.45
