Adsorption isotherm of Carbon Dioxide, Methane on Activated carbon: EcoSorb
DOI: 10.1007/s10973-014-3931-z
Article source: Table 4a
Adsorbate Carbon Dioxide: InChIKey CURLTUGMZLYLDI-UHFFFAOYSA-N
Adsorbate Methane: InChIKey VNWKTOKETHGBQD-UHFFFAOYSA-N
Kind: experiment
Temperature: 353 K
Tabular data in the source: 0
pressure (bar)	Carbon Dioxide fraction	Carbon Dioxide uptake (mmol/g)	Methane fraction	Methane uptake (mmol/g)	total uptake (mmol/g)
6	0.5	1.11	0.5	0.87	
9.3	0.5	1.82	0.5	1.21	
12.5	0.5	2.4	0.5	1.45	
14.7	0.5	2.79	0.5	1.6	
18.8	0.5	3.39	0.5	1.88	
22.3	0.5	3.94	0.5	2.03	
25.1	0.5	4.34	0.5	2.09	
