Adsorption isotherm of Carbon Dioxide on Activated carbon: EcoSorb
DOI: 10.1007/s10973-014-3931-z
Article source: Table 2
Adsorbate Carbon Dioxide: InChIKey CURLTUGMZLYLDI-UHFFFAOYSA-N
Kind: experiment
Temperature: 303 K
Tabular data in the source: 0
pressure (bar)	uptake (mmol/g)
0.9	1.01
2.8	2.44
5.8	3.79
9.3	4.88
13	5.69
16.7	6.31
20.4	6.79
