Adsorption isotherm of Nitrogen on HPC-bpdc
DOI: 10.1016/j.electacta.2015.08.088
Article source: Figure 5
Adsorbate Nitrogen: InChIKey IJGRMHOSHXDMSA-UHFFFAOYSA-N
Kind: experiment
Temperature: 77 K
Tabular data in the source: 0
pressure (bar)	uptake (cm3(STP)/g)
0.000689	109.22
0.002341	208.5
0.015239	306.19
0.053935	328.6
0.083897	335
0.122178	341
0.156304	347
0.191677	351
0.229126	354.19
0.263668	358.99
0.294045	364.19
0.331495	367.79
0.350635	368.99
0.371022	370.98
0.390588	371.78
0.407225	372.18
0.438747	377.27
0.474748	376.31
0.475741	387.11
0.511732	419.52
0.512401	381.07
0.547743	383.29
0.548067	419.83
0.57813	385.19
0.584068	423.64
0.6095	386.77
0.620403	426.17
0.6531	389.62
0.656728	428.39
0.686132	392.48
0.692729	431.56
0.72114	398.19
0.725761	432.83
0.7578	398.5
0.760444	436
0.797762	440.76
0.798096	405.49
0.829467	443.61
0.829477	443.61
0.850603	445.2
0.86415	413.42
0.889583	453.13
0.898175	422.94
0.929545	463.93
0.933183	436.28
0.965546	456.93
0.968191	481.08
0.994941	492.52
1.00253	502.82
