Adsorption isotherm of Nitrogen on HPC-bdc
DOI: 10.1016/j.electacta.2015.08.088
Article source: Figure 5
Adsorbate Nitrogen: InChIKey IJGRMHOSHXDMSA-UHFFFAOYSA-N
Kind: experiment
Temperature: 77 K
Tabular data in the source: 0
pressure (bar)	uptake (cm3(STP)/g)
0.000162	274.29
0.000952	189.37
0.001155	100.28
0.001814	300.51
0.002148	387.75
0.004134	469.28
0.006769	538.88
0.018005	598
0.031715	638.68
0.049396	672.53
0.06195	689.69
0.068394	700.18
0.082438	717.34
0.09251	729.1
0.105398	744.84
0.121256	762.16
0.129848	767.4
0.147853	785.04
0.158594	794.73
0.184199	816.66
0.193784	822.23
0.221213	840.66
0.224019	840.66
0.256565	863.23
0.268623	871.65
0.296041	885.63
0.328759	902.96
0.337017	905.82
0.363939	922.03
0.370383	926.63
0.400457	940.3
0.409211	946.02
0.437643	960.02
0.45117	974.03
0.469277	974.83
0.482601	1015.48
0.509655	988.45
0.516109	1049.12
0.544004	1003.07
0.548999	1059.53
0.580015	1018.28
0.585628	1070.34
0.614769	1031.7
0.62018	1080.95
0.650365	1047.71
0.656606	1093.36
0.685119	1060.93
0.691796	1103.85
0.721697	1078.12
0.728517	1116.46
0.75631	1094.26
0.769158	1130.84
0.789352	1115.2
0.799059	1144.97
0.82056	1135.38
0.83735	1164.39
0.861212	1165.4
0.869075	1179.02
0.881669	1195.92
0.897658	1195.42
0.905552	1235.92
0.922412	1227.51
0.926151	1260.35
0.93448	1243.13
0.945514	1309.6
0.950712	1277.97
0.955089	1327.62
0.959457	1356.45
0.962162	1316.84
0.962375	1306
0.966539	1323.82
0.971109	1357.06
0.973196	1427.53
0.977563	1389.29
0.980481	1426.93
0.985477	1487.4
0.990472	1489
0.99109	1457.77
0.99796	1517.63
0.999004	1539.61
0.999216	1539.46
1.00046	1605.73
1.00171	1587.71
1.00566	1623.95
