Adsorption isotherm of Nitrogen on HPC-btc
DOI: 10.1016/j.electacta.2015.08.088
Article source: Figure 5
Adsorbate Nitrogen: InChIKey IJGRMHOSHXDMSA-UHFFFAOYSA-N
Kind: experiment
Temperature: 77 K
Tabular data in the source: 0
pressure (bar)	uptake (cm3(STP)/g)
0.001125	165.7
0.001317	40.66
0.001469	72.6
0.008866	236.71
0.038098	274.35
0.071292	297.06
0.105479	315.49
0.135532	329.46
0.16824	343.44
0.184584	348.99
0.202255	356.77
0.214647	361.22
0.236118	369
0.246027	373.45
0.270305	379.96
0.278401	382.66
0.307795	390.75
0.341658	400.28
0.375845	410.92
0.383606	411.23
0.407722	417.9
0.425231	424.41
0.438109	429.33
0.464038	434.89
0.466186	445.22
0.488478	472.7
0.505997	443.78
0.513171	490.42
0.545169	452.59
0.546729	499.75
0.578718	506.55
0.586337	462.67
0.61176	512.34
0.625398	473.5
0.644528	519.15
0.66761	483.33
0.678087	525.19
0.708768	493.41
0.720826	534.77
0.748366	505.51
0.760677	542.33
0.785066	515.59
0.801582	550.14
0.822556	526.43
0.844311	559.97
0.862671	542.56
0.885216	566.77
0.90239	556.03
0.922534	579.38
0.941867	568.09
0.962831	587.31
0.979853	581.59
0.994383	591.12
1.00594	599.54
