Adsorption isotherm of Nitrogen on AC
DOI: 10.1016/j.electacta.2015.08.088
Article source: Figure 5
Adsorbate Nitrogen: InChIKey IJGRMHOSHXDMSA-UHFFFAOYSA-N
Kind: experiment
Temperature: 77 K
Tabular data in the source: 0
pressure (bar)	uptake (cm3(STP)/g)
0.000517	110.12
0.001186	150.48
0.004164	187.97
0.020032	214.67
0.048129	239.13
0.092094	261.05
0.120192	268.67
0.160519	280.43
0.194564	286.78
0.232571	292.17
0.268602	297.88
0.301989	302.65
0.337351	305.18
0.369745	305.81
0.404783	305.49
0.437835	307.39
0.478821	307.38
0.511874	308.97
0.550215	310.55
0.585577	311.18
0.616978	310.85
0.652675	310.85
0.690692	311.79
0.723744	313.06
0.755469	314.01
0.792493	314.64
0.830835	314.95
0.85033	313.99
0.869835	312.72
0.885702	313.03
0.902887	313.03
0.924043	313.34
0.934946	314.61
0.959902	315.66
0.967816	316.06
1.00467	318.06
