Adsorption isotherm of Nitrogen on HPC-btb
DOI: 10.1016/j.electacta.2015.08.088
Article source: Figure 5
Adsorbate Nitrogen: InChIKey IJGRMHOSHXDMSA-UHFFFAOYSA-N
Kind: experiment
Temperature: 77 K
Tabular data in the source: 0
pressure (bar)	uptake (cm3(STP)/g)
0.000993	183.7
0.008096	206.18
0.056519	214.58
0.085113	217.12
0.121306	221.23
0.156172	223.29
0.192203	224.7
0.226411	226.6
0.261449	228.17
0.299132	229.91
0.332842	231.48
0.351355	232.43
0.368864	232.27
0.385886	233.21
0.405057	233.68
0.427865	234.47
0.436133	235.74
0.473401	240.03
0.478609	250.44
0.496097	264.24
0.508175	303.02
0.511509	320.68
0.544409	325.67
0.54753	242.61
0.579245	327.52
0.579417	244.26
0.602326	328.27
0.616107	246.79
0.632764	328.51
0.651135	247.1
0.661095	328.76
0.683133	329
0.686173	250.58
0.713561	329.49
0.721211	252.48
0.752652	331.75
0.757901	255.32
0.788856	332.24
0.793922	259.44
0.830044	263.14
0.833976	333.99
0.862833	337.01
0.86493	319.11
0.888539	337.5
0.898773	276.73
0.921855	341.52
0.932616	285.04
0.961473	345.54
0.968819	305.95
0.997676	337.97
1.00948	353.85
