Adsorption isotherm of Ethene on ZIF-8
DOI: 10.1021/Jz300855a
Adsorbate Ethene: InChIKey VGGSQFUCUMXWEO-UHFFFAOYSA-N
Temperature: 308 K
Tabular data in the source: 0
pressure (bar)	uptake (mmol/g)
0.101695	0.129032
0.180791	0.215054
0.39548	0.430108
0.80226	0.83871
1.27684	1.35484
1.88701	1.89247
2.50847	2.4086
3.23164	2.88172
3.66102	3.13978
