Adsorption isotherm of Oxygen on ZIF-8
DOI: 10.1021/Jz300855a
Adsorbate Oxygen: InChIKey MYMOFIZGZYHOMD-UHFFFAOYSA-N
Temperature: 308 K
Tabular data in the source: 0
pressure (bar)	uptake (mmol/g)
1.2	0.0755287
3.6	0.302115
4.93333	0.407855
7.06667	0.60423
9.73333	0.830816
11.6	0.996979
15.3333	1.3142
19.3333	1.67674
22.6667	1.94864
25.0667	2.16012
28.2667	2.44713
30.8	2.65861
33.4667	2.9003
35.8667	3.12689
38.8	3.36858
41.2	3.56495
42.9333	3.71601
45.3333	3.92749
46.4	4.01813
48.6667	4.22961
50.6667	4.39577
