Adsorption isotherm of Propene on ZIF-8
DOI: 10.1021/Jz300855a
Adsorbate Propene: InChIKey QQONPFPTGQHPMA-UHFFFAOYSA-N
Temperature: 308 K
Tabular data in the source: 0
pressure (bar)	uptake (mmol/g)
0.0677966	0.580645
0.158192	1.22581
0.305085	2.32258
0.677966	3.54839
1.20904	4.27957
1.83051	4.70968
2.49718	5.07527
3.19774	5.39785
3.66102	5.5914
