Adsorption isotherm of Hydrogen on ZIF-8
DOI: 10.1021/Jz300855a
Adsorbate Hydrogen: InChIKey UFHFLCQGNIYNRP-UHFFFAOYSA-N
Temperature: 308 K
Tabular data in the source: 0
pressure (bar)	uptake (mmol/g)
0.933333	0.0302115
4	0.181269
6.53333	0.302115
9.86667	0.468278
12.5333	0.589124
14.9333	0.694864
16.4	0.770393
18.6667	0.876133
21.0667	0.996979
23.6	1.11782
25.8667	1.22356
28.1333	1.32931
30.4	1.45015
33.0667	1.571
36.1333	1.70695
38.9333	1.8429
41.0667	1.94864
43.0667	2.03927
45.4667	2.14502
47.7333	2.25076
