Adsorption isotherm of Ethanol on ZIF-8
DOI: 10.1021/Jz300855a
Adsorbate Ethanol: InChIKey LFQSCWFLJHTTHZ-UHFFFAOYSA-N
Temperature: 308 K
Tabular data in the source: 0
pressure (bar)	uptake (mmol/g)
0.0072463	0.273171
0.0139928	4.60976
0.0279857	5.22439
0.0409791	5.42927
0.054722	5.58293
0.0692146	5.71951
0.082208	5.92439
0.0959509	6.0439
0.109694	6.16341
