Adsorption isotherm of Oxygen on ZIF-8
DOI: 10.1021/Jz300855a
Adsorbate Oxygen: InChIKey MYMOFIZGZYHOMD-UHFFFAOYSA-N
Temperature: 308 K
Tabular data in the source: 0
pressure (bar)	uptake (mmol/g)
2.66667	0.226586
6	0.468278
9.06667	0.740181
14.4	1.14804
25.6	2.40181
34.8	3.08157
50.8	4.30514
