Adsorption isotherm of N-propane on ZIF-8
DOI: 10.1021/Jz300855a
Adsorbate N-propane: InChIKey ATUOYWHBWRKTHZ-UHFFFAOYSA-N
Temperature: 308 K
Tabular data in the source: 0
pressure (bar)	uptake (mmol/g)
0.0564972	0.709677
0.0903955	1.03226
0.124294	1.39785
0.169492	1.76344
0.237288	2.15054
0.316384	2.55914
0.40678	2.90323
0.508475	3.2043
0.59887	3.44086
0.779661	3.78495
0.937853	4
1.17514	4.23656
1.34463	4.36559
1.48023	4.47312
1.66102	4.58065
1.87571	4.68817
2.10169	4.75269
2.30508	4.83871
2.47458	4.88172
2.68927	4.92473
2.89266	4.98925
3.07345	5.01075
3.18644	5.03226
3.40113	5.07527
3.67232	5.09677
