Adsorption isotherm of 1-butene on ZIF-8
DOI: 10.1021/Jz300855a
Adsorbate 1-butene: InChIKey VXNZUUAINFGPBY-UHFFFAOYSA-N
Temperature: 308 K
Tabular data in the source: 0
pressure (bar)	uptake (mmol/g)
0.0112994	0.774194
0.0225989	1.37634
0.0338983	1.84946
0.0564972	2.34409
0.079096	2.7957
0.135593	3.2043
0.214689	3.54839
0.293785	3.72043
0.372881	3.80645
0.440678	3.89247
0.587571	3.97849
0.757062	4.04301
0.915254	4.04301
1.09605	4.08602
1.27684	4.12903
1.49153	4.15054
1.64972	4.17204
1.85311	4.17204
2.0226	4.19355
