Adsorption isotherm of Ethane on ZIF-8
DOI: 10.1021/Jz300855a
Adsorbate Ethane: InChIKey OTMSDBZUPAUEDD-UHFFFAOYSA-N
Temperature: 308 K
Tabular data in the source: 0
pressure (bar)	uptake (mmol/g)
0.112994	0.236559
0.19209	0.387097
0.271186	0.537634
0.350282	0.688172
0.440678	0.83871
0.519774	0.967742
0.610169	1.11828
0.689266	1.24731
0.768362	1.37634
0.858757	1.50538
0.949153	1.63441
1.03955	1.76344
1.12994	1.89247
1.22034	1.97849
1.31073	2.08602
1.41243	2.21505
1.54802	2.3871
1.67232	2.49462
1.77401	2.60215
1.81921	2.64516
1.9209	2.73118
2.0904	2.90323
2.19209	2.98925
2.42938	3.1828
2.65537	3.37634
2.82486	3.50538
3.03955	3.65591
3.15254	3.69892
3.26554	3.78495
3.34463	3.84946
3.45763	3.89247
3.66102	4.02151
