Adsorption isotherm of Methane on ZIF-8
DOI: 10.1021/Jz300855a
Adsorbate Methane: InChIKey VNWKTOKETHGBQD-UHFFFAOYSA-N
Temperature: 308 K
Tabular data in the source: 0
pressure (bar)	uptake (mmol/g)
0.169492	0.0645161
0.293785	0.0860215
0.485876	0.107527
0.632768	0.150538
0.768362	0.172043
0.915254	0.193548
1.07345	0.258065
1.29944	0.301075
1.44633	0.322581
1.64972	0.387097
1.81921	0.408602
2.0452	0.451613
2.36158	0.537634
2.62147	0.602151
2.83616	0.645161
3.05085	0.688172
3.24294	0.731183
3.37853	0.752688
3.52542	0.795699
3.70621	0.83871
