Adsorption isotherm of Ethane on ZIF-8
DOI: 10.1021/Jz300855a
Adsorbate Ethane: InChIKey OTMSDBZUPAUEDD-UHFFFAOYSA-N
Temperature: 308 K
Tabular data in the source: 0
pressure (bar)	uptake (mmol/g)
0.180791	0.322581
0.39548	0.666667
0.779661	1.33333
1.28814	2.12903
1.86441	2.77419
2.49718	3.31183
3.17514	3.72043
3.67232	3.95699
