Adsorption isotherm of N-Butane on ZIF-8
DOI: 10.1021/Jz300855a
Adsorbate N-Butane: InChIKey IJDNQMDRQITEOD-UHFFFAOYSA-N
Temperature: 308 K
Tabular data in the source: 0
pressure (bar)	uptake (mmol/g)
0.0304569	1.86408
0.269036	3.39806
0.730964	3.76699
1.0203	3.86408
1.51269	3.82524
1.80711	3.86408
