Adsorption isotherm of 1-butene on ZIF-8
DOI: 10.1021/Jz300855a
Adsorbate 1-butene: InChIKey VXNZUUAINFGPBY-UHFFFAOYSA-N
Temperature: 308 K
Tabular data in the source: 0
pressure (bar)	uptake (mmol/g)
0.0225989	0.344086
0.0564972	2.04301
0.101695	3.07527
0.214689	3.52688
0.384181	3.82796
0.723164	4
1.11864	4.10753
1.54802	4.15054
2.0339	4.17204
