Adsorption isotherm of Carbon Dioxide on ZIF-8
DOI: 10.1021/Jz300855a
Adsorbate Carbon Dioxide: InChIKey CURLTUGMZLYLDI-UHFFFAOYSA-N
Temperature: 308 K
Tabular data in the source: 0
pressure (bar)	uptake (mmol/g)
0.237288	0.129032
0.350282	0.193548
0.485876	0.27957
0.610169	0.344086
0.757062	0.408602
0.926554	0.516129
1.07345	0.602151
1.23164	0.688172
1.43503	0.795699
1.58192	0.903226
1.75141	0.989247
1.89831	1.07527
2.0226	1.13978
2.16949	1.22581
2.30508	1.31183
2.45198	1.37634
2.64407	1.48387
2.80226	1.5914
2.98305	1.67742
3.15254	1.78495
3.34463	1.87097
3.51412	1.97849
3.67232	2.06452
3.83051	2.15054
3.9774	2.25806
