Adsorption isotherm of Carbon Dioxide on ZIF-8
DOI: 10.1021/Jz300855a
Adsorbate Carbon Dioxide: InChIKey CURLTUGMZLYLDI-UHFFFAOYSA-N
Temperature: 308 K
Tabular data in the source: 0
pressure (bar)	uptake (mmol/g)
0.180791	0.129032
0.418079	0.236559
0.824859	0.473118
1.32203	0.752688
1.89831	1.05376
2.56497	1.41935
3.42373	1.93548
3.9887	2.25806
