Adsorption isotherm of N-Butane on ZIF-8
DOI: 10.1021/Jz300855a
Adsorbate N-Butane: InChIKey IJDNQMDRQITEOD-UHFFFAOYSA-N
Temperature: 308 K
Tabular data in the source: 0
pressure (bar)	uptake (mmol/g)
0.0112994	0.344086
0.0225989	1.22581
0.0564972	2.47312
0.282486	3.29032
0.59887	3.56989
1.03955	3.74194
1.48023	3.80645
1.75141	3.89247
1.9209	3.91398
