Adsorption isotherm of Nitrogen on ZIF-8
DOI: 10.1021/Jz300855a
Adsorbate Nitrogen: InChIKey IJGRMHOSHXDMSA-UHFFFAOYSA-N
Temperature: 77 K
Tabular data in the source: 0
pressure (bar)	uptake (cm3(STP)/g)
4.89e-05	10.2339
0.000279184	58.4795
0.000453675	95.0292
0.000858492	179.825
0.00115164	241.228
0.00138196	289.474
0.00347585	228.07
0.00365034	264.62
0.00381785	299.708
0.00387368	311.404
0.00631655	323.099
0.00642124	345.029
0.00648406	358.187
0.00654688	371.345
0.00672835	409.357
0.00898276	381.579
0.00904558	394.737
0.00918517	423.977
0.0211343	426.901
0.0473916	426.901
0.0808099	426.901
0.116615	426.901
0.138099	426.901
0.157188	425.439
0.197774	426.901
0.235967	426.901
0.293255	426.901
0.362479	426.901
0.460347	426.901
0.555828	426.901
0.653696	426.901
0.739622	425.439
0.839878	425.439
0.851813	425.439
0.885231	425.439
0.935366	426.901
0.956849	426.901
0.964003	425.439
