Adsorption isotherm of N-propane on ZIF-8
DOI: 10.1021/Jz300855a
Adsorbate N-propane: InChIKey ATUOYWHBWRKTHZ-UHFFFAOYSA-N
Temperature: 308 K
Tabular data in the source: 0
pressure (bar)	uptake (mmol/g)
0.0564972	0.623656
0.135593	1.35484
0.271186	2.60215
0.700565	3.65591
1.24294	4.15054
1.86441	4.51613
2.49718	4.7957
3.18644	5.09677
3.66102	5.29032
