Adsorption isotherm of N-Butane on ZIF-8
DOI: 10.1021/Jz300855a
Adsorbate N-Butane: InChIKey IJDNQMDRQITEOD-UHFFFAOYSA-N
Temperature: 308 K
Tabular data in the source: 0
pressure (bar)	uptake (mmol/g)
0.0101523	0.349515
0.0152284	0.737864
0.0203046	1.14563
0.0304569	1.57282
0.0406091	2.03883
0.0558376	2.34951
0.0862944	2.75728
0.126904	3.1068
0.19797	3.33981
0.309645	3.53398
0.406091	3.63107
0.522843	3.68932
0.639594	3.74757
0.781726	3.76699
0.862944	3.78641
0.949239	3.78641
1.09645	3.80583
1.22843	3.82524
1.35533	3.84466
1.44162	3.84466
1.60406	3.84466
1.71066	3.86408
1.7868	3.86408
