Adsorption isotherm of Nitrogen on ZIF-8
DOI: 10.1021/Jz300855a
Adsorbate Nitrogen: InChIKey IJGRMHOSHXDMSA-UHFFFAOYSA-N
Temperature: 77 K
Tabular data in the source: 0
pressure (bar)	uptake (cm3(STP)/g)
0.00234101	0.00234101
0.00468202	252.89
0.00702304	333.815
0.0117051	343.931
0.0140461	355.491
0.0163871	365.607
0.0187281	391.618
0.0210691	406.069
0.0304332	408.96
0.0468202	410.405
0.0749124	411.85
0.0842764	411.85
0.119392	411.85
0.13812	413.295
0.156848	411.85
0.196645	413.295
0.238783	414.74
0.294968	413.295
0.341788	413.295
0.437769	416.185
0.533751	417.63
0.632073	417.63
0.718691	419.075
0.781898	419.075
0.814672	420.52
0.849787	419.075
0.882562	421.965
0.898949	421.965
0.922359	423.41
0.941087	427.746
0.952792	434.971
0.959815	437.861
