Adsorption isotherm of Nitrogen on ZIF-8
DOI: 10.1021/Jz300855a
Adsorbate Nitrogen: InChIKey IJGRMHOSHXDMSA-UHFFFAOYSA-N
Temperature: 77 K
Tabular data in the source: 0
pressure (bar)	uptake (cm3(STP)/g)
0.00232421	0.00232421
0.00464842	274.566
0.00697263	382.948
0.00929684	369.942
0.0116211	419.075
0.0232421	439.306
0.0488084	439.306
0.0697263	440.751
0.116211	440.751
0.137128	440.751
0.155722	442.197
0.192909	442.197
0.292851	442.197
0.339335	442.197
0.436952	443.642
0.534568	445.087
0.634509	445.087
0.720505	445.087
0.780935	446.532
0.818122	446.532
0.852985	447.977
0.885524	447.977
0.899469	447.977
0.911091	449.422
0.925036	450.867
0.938981	452.312
0.957575	453.757
