Adsorption isotherm of Nitrogen on ZIF-8
DOI: 10.1021/Jz300855a
Adsorbate Nitrogen: InChIKey IJGRMHOSHXDMSA-UHFFFAOYSA-N
Temperature: 77 K
Tabular data in the source: 0
pressure (bar)	uptake (cm3(STP)/g)
5.55e-17	5.55e-17
0.00238118	17.5439
0.00476235	266.667
0.00714353	315.789
0.0119059	343.86
0.0166682	364.912
0.0214306	392.982
0.0285741	407.018
0.0452424	417.544
0.0547671	421.053
0.08096	431.579
0.116678	438.596
0.159539	442.105
0.195256	442.105
0.235736	442.105
0.290504	445.614
0.342889	449.123
0.440518	456.14
0.538146	459.649
0.635774	466.667
0.721496	473.684
0.778645	480.702
0.816744	487.719
0.85008	498.246
0.878654	512.281
0.900085	533.333
0.911991	554.386
0.926278	589.474
0.935802	645.614
0.945327	719.298
0.947708	807.018
0.952471	880.702
0.954852	954.386
0.957233	1028.07
0.959614	1094.74
