Adsorption isotherm of Hydrogen on ZIF-8
DOI: 10.1021/Jz300855a
Adsorbate Hydrogen: InChIKey UFHFLCQGNIYNRP-UHFFFAOYSA-N
Temperature: 308 K
Tabular data in the source: 0
pressure (bar)	uptake (mmol/g)
6	0.362538
12.5333	0.70997
20.5333	1.0574
28	1.40483
36.1333	1.75227
47.4667	2.08459
