Adsorption isotherm of Nitrogen on ZIF-8
DOI: 10.1021/Jz300855a
Adsorbate Nitrogen: InChIKey IJGRMHOSHXDMSA-UHFFFAOYSA-N
Temperature: 308 K
Tabular data in the source: 0
pressure (bar)	uptake (mmol/g)
0.146893	0.0215054
0.39548	0.0430108
0.779661	0.0430108
1.53672	0.129032
2.29379	0.193548
3.31073	0.27957
3.9096	0.344086
