Adsorption isotherm of Isobutene on ZIF-8
DOI: 10.1021/Jz300855a
Adsorbate Isobutene: InChIKey VQTUBCCKSQIDNK-UHFFFAOYSA-N
Temperature: 308 K
Tabular data in the source: 0
pressure (bar)	uptake (mmol/g)
0.0143541	0.0576923
0.0430622	1.32692
0.0502392	1.73077
0.0933014	2.61538
0.215311	3.44231
0.344498	3.76923
0.610048	4.09615
0.983254	4.42308
1.48565	4.65385
2.01675	4.88462
2.49043	5.03846
