Adsorption isotherm of Propene on ZIF-8
DOI: 10.1021/Jz300855a
Adsorbate Propene: InChIKey QQONPFPTGQHPMA-UHFFFAOYSA-N
Temperature: 308 K
Tabular data in the source: 0
pressure (bar)	uptake (mmol/g)
0.0677966	0.580645
0.0903955	0.817204
0.112994	1.09677
0.180791	1.52688
0.237288	1.84946
0.305085	2.15054
0.39548	2.58065
0.508475	2.94624
0.610169	3.24731
0.745763	3.5914
0.870056	3.82796
0.99435	4
1.25424	4.34409
1.36723	4.45161
1.57062	4.64516
1.74011	4.77419
1.9096	4.90323
2.15819	5.01075
2.39548	5.11828
2.61017	5.2043
2.85876	5.29032
3.02825	5.33333
3.26554	5.39785
3.46893	5.44086
3.64972	5.48387
