Adsorption isotherm of N-Butane on ZIF-8
DOI: 10.1021/Jz300855a
Adsorbate N-Butane: InChIKey IJDNQMDRQITEOD-UHFFFAOYSA-N
Temperature: 308 K
Tabular data in the source: 0
pressure (bar)	uptake (mmol/g)
0.0112994	0.0112994
0.0225989	1.41935
0.0338983	1.89247
0.0451977	2.21505
0.079096	2.53763
0.0903955	2.77419
0.124294	3.01075
0.180791	3.22581
0.271186	3.39785
0.350282	3.50538
0.485876	3.5914
0.610169	3.67742
0.779661	3.72043
0.926554	3.74194
1.08475	3.78495
1.24294	3.78495
1.44633	3.80645
1.67232	3.80645
1.77401	3.82796
1.88701	3.82796
