Adsorption isotherm of Isobutane on ZIF-8
DOI: 10.1021/Jz300855a
Adsorbate Isobutane: InChIKey NNPPMTNAJDCUHE-UHFFFAOYSA-N
Temperature: 308 K
Tabular data in the source: 0
pressure (bar)	uptake (mmol/g)
0.0358852	1.59615
0.26555	3.40385
0.767943	4
1.63636	4.36538
2.2823	4.61538
