Adsorption isotherm of Helium on ZIF-8
DOI: 10.1021/Jz300855a
Adsorbate Helium: InChIKey SWQJXJOGLNCZEY-UHFFFAOYSA-N
Temperature: 308 K
Tabular data in the source: 0
pressure (bar)	uptake (mmol/g)
1.2	0.0151057
4.53333	0.0302115
8.26667	0.0755287
11.6	0.0906344
14	0.10574
17.6	0.151057
20.5333	0.151057
23.6	0.181269
26.2667	0.226586
29.3333	0.241692
32.2667	0.256798
35.8667	0.302115
38.1333	0.302115
42.1333	0.347432
46.1333	0.377644
47.6	0.392749
48.8	0.407855
