Adsorption isotherm of Isobutane on ZIF-8
DOI: 10.1021/Jz300855a
Adsorbate Isobutane: InChIKey NNPPMTNAJDCUHE-UHFFFAOYSA-N
Temperature: 308 K
Tabular data in the source: 0
pressure (bar)	uptake (mmol/g)
0.00717703	0.461538
0.0215311	0.942308
0.0287081	1.23077
0.0430622	1.82692
0.0574163	2.01923
0.0717703	2.21154
0.0789474	2.40385
0.100478	2.71154
0.129187	2.88462
0.150718	3.07692
0.179426	3.25
0.244019	3.55769
0.315789	3.73077
0.373206	3.84615
0.437799	3.90385
0.502392	3.96154
0.566986	4.03846
0.638756	4.07692
0.710526	4.11538
0.77512	4.15385
0.84689	4.17308
0.91866	4.21154
0.983254	4.23077
1.05502	4.25
1.12679	4.25
1.19856	4.26923
1.27033	4.28846
1.34211	4.28846
1.4067	4.30769
1.47847	4.32692
1.55024	4.32692
1.67943	4.34615
1.7512	4.34615
1.82297	4.34615
1.89474	4.36538
1.96651	4.36538
2.03828	4.36538
2.11005	4.38462
2.18182	4.38462
2.25359	4.38462
