Adsorption isotherm of Ethanol on ZIF-8
DOI: 10.1021/Jz300855a
Adsorbate Ethanol: InChIKey LFQSCWFLJHTTHZ-UHFFFAOYSA-N
Temperature: 308 K
Tabular data in the source: 0
pressure (bar)	uptake (mmol/g)
0.00574706	0.0682927
0.0109944	2.33902
0.0164916	5.12195
0.0222386	5.44634
0.0279857	5.56585
0.0414788	5.83902
0.054722	5.99268
0.068465	6.1122
0.082208	6.19756
0.0959509	6.26585
0.110194	6.33415
