Adsorption isotherm of Helium on ZIF-8
DOI: 10.1021/Jz300855a
Adsorbate Helium: InChIKey SWQJXJOGLNCZEY-UHFFFAOYSA-N
Temperature: 308 K
Tabular data in the source: 0
pressure (bar)	uptake (mmol/g)
7.86667	0.10574
14.4	0.120846
21.4667	0.241692
29.7333	0.241692
38	0.302115
49.3333	0.362538
