Adsorption isotherm of Isobutene on ZIF-8
DOI: 10.1021/Jz300855a
Adsorbate Isobutene: InChIKey VQTUBCCKSQIDNK-UHFFFAOYSA-N
Temperature: 308 K
Tabular data in the source: 0
pressure (bar)	uptake (mmol/g)
0.0143541	0.0143541
0.0215311	0.730769
0.0287081	1.44231
0.0717703	2.07692
0.0933014	2.36538
0.129187	2.73077
0.172249	3.07692
0.229665	3.44231
0.308612	3.75
0.430622	4.05769
0.574163	4.25
0.688995	4.36538
0.811005	4.46154
0.933014	4.55769
1.0622	4.59615
1.19139	4.63462
1.32057	4.67308
1.44258	4.71154
1.55742	4.75
1.67225	4.75
1.80861	4.80769
1.93062	4.80769
2.05981	4.82692
2.20335	4.84615
2.32536	4.82692
2.46172	4.86538
