Adsorption isotherm of Ethene on ZIF-8
DOI: 10.1021/Jz300855a
Adsorbate Ethene: InChIKey VGGSQFUCUMXWEO-UHFFFAOYSA-N
Temperature: 308 K
Tabular data in the source: 0
pressure (bar)	uptake (mmol/g)
0.0564972	0.0860215
0.282486	0.322581
0.440678	0.494624
0.621469	0.688172
0.79096	0.88172
0.99435	1.07527
1.16384	1.22581
1.36723	1.41935
1.57062	1.5914
1.71751	1.74194
1.9209	1.91398
2.14689	2.08602
2.32768	2.23656
2.51977	2.36559
2.73446	2.53763
2.93785	2.68817
3.17514	2.83871
3.36723	2.96774
3.50282	3.05376
3.64972	3.13978
