Adsorption isotherm of Methane on ZIF-8
DOI: 10.1021/Jz300855a
Adsorbate Methane: InChIKey VNWKTOKETHGBQD-UHFFFAOYSA-N
Temperature: 308 K
Tabular data in the source: 0
pressure (bar)	uptake (mmol/g)
0.271186	0.0645161
0.734463	0.150538
1.58192	0.387097
2.50847	0.580645
3.26554	0.752688
3.71751	0.83871
