Adsorption isotherm of Nitrogen on ZIF-8
DOI: 10.1021/Jz300855a
Adsorbate Nitrogen: InChIKey IJGRMHOSHXDMSA-UHFFFAOYSA-N
Temperature: 308 K
Tabular data in the source: 0
pressure (bar)	uptake (mmol/g)
0.305085	0.0215054
0.463277	0.0430108
0.59887	0.0645161
0.734463	0.0645161
0.813559	0.0860215
0.926554	0.0860215
1.01695	0.107527
1.12994	0.107527
1.25424	0.129032
1.36723	0.129032
1.69492	0.172043
1.80791	0.172043
1.9322	0.193548
2.0452	0.193548
2.41808	0.236559
2.53107	0.236559
2.65537	0.258065
2.76836	0.258065
2.90395	0.27957
3.01695	0.27957
3.14124	0.301075
3.25424	0.301075
3.37853	0.322581
3.49153	0.322581
3.58192	0.344086
3.69492	0.344086
3.80791	0.365591
3.89831	0.344086
