Adsorption isotherm of Phosphate Ion, Water on ACF-ZrFe
DOI: 10.1016/j.jcis.2017.01.024
Article source: Figure 3
Adsorbate Phosphate Ion: InChIKey NBIIXXVUZAFLBC-UHFFFAOYSA-K
Adsorbate Water: InChIKey XLYOFNOQVPJJNP-UHFFFAOYSA-N
Kind: experiment
Temperature: 298 K
Tabular data in the source: 0
pressure (bar)	Phosphate Ion fraction	Phosphate Ion uptake (mg/g)	Water fraction	Water uptake (mg/g)	total uptake (mg/g)
10.1325	-0.9586	4.798			
10.1325	-0.8984	9.851			
10.1325	-0.3139	14.488			
10.1325	0.1597	18.69			
10.1325	0.6283	20.86			
10.1325	0.8701	22.468			
10.1325	1.1774	25.002			
10.1325	1.3891	25.748			
10.1325	1.5453	26.06			
