Adsorption isotherm of Ethene on Fe2(m-dobdc)
DOI: 10.1021/jacs.7b06397
Article source: Figure 2
Adsorbate Ethene: InChIKey VGGSQFUCUMXWEO-UHFFFAOYSA-N
Kind: experiment
Temperature: 298 K
Tabular data in the source: 0
pressure (bar)	uptake (mmol/g)
9.4e-05	0.3078
0.000191	0.5587
0.000275	0.7327
0.000367	0.9016
0.000502	1.0756
0.000739	1.3621
0.000987	1.5923
0.001209	1.7612
0.001438	1.9658
0.001813	2.1602
0.001977	2.2829
0.002393	2.4058
0.002897	2.5695
0.003347	2.7434
0.003868	2.902
0.004317	3.0145
0.004847	3.1117
0.007102	3.4801
0.009876	3.7819
0.012592	4.1093
0.014551	4.2218
0.01731	4.3651
0.020008	4.4776
0.024077	4.6158
0.028477	4.759
0.038036	4.9842
0.051689	5.1888
0.080724	5.4038
0.102353	5.5369
0.150003	5.6955
0.198061	5.8184
0.252581	5.9668
0.302204	6.0589
0.365847	6.151
0.406069	6.2176
0.455932	6.2892
0.497164	6.3659
0.568068	6.4734
0.64506	6.5808
0.711869	6.6678
0.789951	6.7445
0.876597	6.8469
0.961612	6.9441
1.03086	7.0157
