Adsorption isotherm of Ethane on Fe2(m-dobdc)
DOI: 10.1021/jacs.7b06397
Article source: Figure 2
Adsorbate Ethane: InChIKey OTMSDBZUPAUEDD-UHFFFAOYSA-N
Kind: experiment
Temperature: 298 K
Tabular data in the source: 0
pressure (bar)	uptake (mmol/g)
9.8e-05	0.0368
0.000189	0.0473
0.000291	0.0424
0.000401	0.0528
0.000488	0.0631
0.000707	0.0479
0.000995	0.0634
0.001255	0.084
0.001476	0.1045
0.001839	0.1148
0.002266	0.1251
0.002604	0.1252
0.00308	0.1355
0.003602	0.156
0.003998	0.1714
0.00431	0.1817
0.004702	0.1868
0.007388	0.2177
0.010397	0.2997
0.012809	0.3918
0.014801	0.4532
0.01834	0.5454
0.022202	0.5812
0.027189	0.7092
0.031974	0.8473
0.037377	0.9803
0.051098	1.2003
0.074834	1.7119
0.094297	2.2029
0.142922	2.9752
0.191911	3.5071
0.239056	3.86
0.296074	4.2283
0.358344	4.525
0.404576	4.7705
0.441164	4.929
0.486743	5.0825
0.562471	5.2819
0.696627	5.507
0.823948	5.6963
0.952138	5.8856
1.03229	5.9879
1.10027	6.1055
