Adsorption isotherm of N-propane on Co2(m-dobdc)
DOI: 10.1021/jacs.7b06397
Article source: Figure 2
Adsorbate N-propane: InChIKey ATUOYWHBWRKTHZ-UHFFFAOYSA-N
Kind: experiment
Temperature: 298 K
Tabular data in the source: 0
pressure (bar)	uptake (mmol/g)
1.1e-05	0.0406
2.6e-05	0.0447
4.9e-05	0.0448
9.6e-05	0.0976
0.000189	0.118
0.000292	0.1424
0.000393	0.1992
0.000494	0.2398
0.000731	0.4021
0.000922	0.5036
0.001196	0.6456
0.001403	0.7552
0.001638	0.8769
0.00187	1.0109
0.002359	1.2746
0.002937	1.5059
0.003445	1.721
0.003932	1.8711
0.004307	2.07
0.004893	2.2566
0.007863	2.841
0.009097	2.9952
0.012291	3.2955
0.013344	3.3969
0.014223	3.474
0.017865	3.7175
0.019129	3.7824
0.02538	4.034
0.027804	4.1152
0.029505	4.1882
0.039683	4.4357
0.049843	4.5778
0.078995	4.9105
0.094384	5.0282
0.146218	5.2596
0.195749	5.4138
0.245923	5.5355
0.304719	5.6248
0.339938	5.7141
0.402439	5.7831
0.461424	5.8237
0.519517	5.8724
0.598412	5.9333
0.689287	5.9941
0.751623	6.0185
0.823379	6.0672
0.90615	6.1078
1.01088	6.1524
1.07771	6.1808
