Adsorption isotherm of N-propane on Fe2(m-dobdc)
DOI: 10.1021/jacs.7b06397
Article source: Figure 2
Adsorbate N-propane: InChIKey ATUOYWHBWRKTHZ-UHFFFAOYSA-N
Kind: experiment
Temperature: 298 K
Tabular data in the source: 0
pressure (bar)	uptake (mmol/g)
0.000129	0.0789
0.000262	0.1045
0.000482	0.1864
0.000832	0.2836
0.001395	0.5034
0.002339	0.846
0.003641	1.3828
0.00643	2.1702
0.015574	3.2745
0.028471	3.9238
0.047742	4.3584
0.071384	4.6294
0.099609	4.8237
0.145546	5.0844
0.195074	5.1969
0.255564	5.3146
0.291676	5.4117
0.338688	5.514
0.388776	5.5804
0.448849	5.6622
0.503501	5.7134
0.591289	5.7441
0.714825	5.8157
0.788134	5.8617
0.879023	5.9128
0.974765	5.9486
1.06881	5.9997
