Adsorption isotherm of Ethene on Co2(m-dobdc)
DOI: 10.1021/jacs.7b06397
Article source: Figure 2
Adsorbate Ethene: InChIKey VGGSQFUCUMXWEO-UHFFFAOYSA-N
Kind: experiment
Temperature: 298 K
Tabular data in the source: 0
pressure (bar)	uptake (mmol/g)
1e-05	0.0205
2.4e-05	0.049
5e-05	0.1158
0.000192	0.3081
0.000297	0.4131
0.000384	0.4644
0.000782	0.8457
0.00096	1.0043
0.001142	1.168
0.001406	1.3164
0.001649	1.457
0.0019	1.5926
0.0023	1.8305
0.002924	2.0863
0.003418	2.2627
0.003849	2.4136
0.004284	2.562
0.004671	2.6771
0.00807	3.2551
0.00957	3.5364
0.011992	3.7641
0.014018	3.9559
0.018884	4.2782
0.037696	5.1146
0.046838	5.245
0.074628	5.57
0.096006	5.6698
0.141938	5.9001
0.175307	6.0305
0.230834	6.1508
0.284315	6.2813
0.318273	6.3376
0.343163	6.3683
0.387525	6.4093
0.41419	6.4502
0.454465	6.4912
0.482948	6.527
0.53592	6.591
0.599929	6.6779
0.658264	6.7496
0.70762	6.811
0.771792	6.8852
0.824898	6.9389
0.866363	6.9798
0.939507	7.0514
1.01883	7.1256
