Adsorption isotherm of Propene on Co2(m-dobdc)
DOI: 10.1021/jacs.7b06397
Article source: Figure 2
Adsorbate Propene: InChIKey QQONPFPTGQHPMA-UHFFFAOYSA-N
Kind: experiment
Temperature: 298 K
Tabular data in the source: 0
pressure (bar)	uptake (mmol/g)
3.3e-05	0.3855
6.6e-05	0.7894
0.000109	1.2189
0.000153	1.6023
0.000215	2.0114
0.000281	2.451
0.00038	2.8089
0.000519	3.269
0.000642	3.6269
0.000911	4.0513
0.001242	4.3938
0.001743	4.8079
0.002667	5.1761
0.004684	5.5595
0.010962	5.9993
0.023399	6.3879
0.04772	6.6845
0.080947	6.9146
0.121032	7.022
0.141351	7.0731
0.19059	7.1754
0.227719	7.2214
0.278484	7.2725
0.330826	7.3186
0.381944	7.3697
0.433411	7.4055
0.506174	7.4311
0.58776	7.4567
0.655541	7.4771
0.73536	7.4976
0.820163	7.518
0.899083	7.5538
0.968947	7.5794
1.06219	7.605
