Adsorption isotherm of Ethene on Mn2(m-dobdc)
DOI: 10.1021/jacs.7b06397
Article source: Figure 2
Adsorbate Ethene: InChIKey VGGSQFUCUMXWEO-UHFFFAOYSA-N
Kind: experiment
Temperature: 298 K
Tabular data in the source: 0
pressure (bar)	uptake (mmol/g)
9.6e-05	0.1461
0.000249	0.2689
0.000483	0.5269
0.000691	0.7654
0.001024	0.9524
0.001796	1.4488
0.002458	1.7195
0.004667	2.4864
0.007226	2.9441
0.010634	3.3759
0.020049	4.0784
0.032674	4.5747
0.043742	4.8261
0.049877	4.9228
0.070778	5.1935
0.095433	5.3869
0.139476	5.5804
0.19797	5.7352
0.253688	5.877
0.30669	5.9415
0.404576	6.1156
0.489103	6.2252
0.570033	6.3412
0.654787	6.4508
0.71978	6.5475
0.785597	6.6313
0.876395	6.7151
0.984918	6.8182
