Adsorption isotherm of Propene on Fe2(m-dobdc)
DOI: 10.1021/jacs.7b06397
Article source: Figure 2
Adsorbate Propene: InChIKey QQONPFPTGQHPMA-UHFFFAOYSA-N
Kind: experiment
Temperature: 298 K
Tabular data in the source: 0
pressure (bar)	uptake (mmol/g)
3.9e-05	0.8806
5.3e-05	1.043
0.000196	2.3253
0.001042	4.2
0.006947	5.5392
0.022946	6.0344
0.044249	6.2698
0.066711	6.497
0.097836	6.6107
0.15021	6.7406
0.18026	6.8461
0.24581	6.9435
0.289668	7.0409
0.347616	7.0815
0.413428	7.1302
0.444734	7.1627
0.4917	7.1951
0.533703	7.2195
0.579429	7.2438
0.652379	7.2763
0.734514	7.325
0.84217	7.3818
0.965606	7.4305
1.07721	7.4792
