Adsorption isotherm of Ethane on Co2(m-dobdc)
DOI: 10.1021/jacs.7b06397
Article source: Figure 2
Adsorbate Ethane: InChIKey OTMSDBZUPAUEDD-UHFFFAOYSA-N
Kind: experiment
Temperature: 298 K
Tabular data in the source: 0
pressure (bar)	uptake (mmol/g)
1.1e-05	0.0307
2.7e-05	0.0056
4.8e-05	0.0211
0.000211	0.032
0.000385	0.0528
0.000771	0.094
0.001417	0.1096
0.002665	0.1508
0.005069	0.2226
0.007176	0.2637
0.0101	0.361
0.01349	0.4736
0.015682	0.5657
0.017914	0.6374
0.020826	0.7142
0.025651	0.8625
0.03069	0.9956
0.033473	1.0877
0.03672	1.2002
0.047087	1.4918
0.073502	2.1363
0.097006	2.5352
0.142889	3.2769
0.190766	3.7116
0.236211	4.1668
0.301162	4.5095
0.3322	4.7141
0.360247	4.8778
0.390571	4.9903
0.423545	5.1131
0.453942	5.1949
0.478189	5.2512
0.515585	5.3484
0.595799	5.5172
0.634892	5.6093
0.704531	5.7371
0.746449	5.8139
0.809469	5.9213
0.877809	6.0134
0.9517	6.1106
1.05609	6.264
