Adsorption isotherm of Propene on Ni2(m-dobdc)
DOI: 10.1021/jacs.7b06397
Article source: Figure 2
Adsorbate Propene: InChIKey QQONPFPTGQHPMA-UHFFFAOYSA-N
Kind: experiment
Temperature: 298 K
Tabular data in the source: 0
pressure (bar)	uptake (mmol/g)
1.6e-05	0.3774
3.4e-05	0.7102
6.1e-05	1.1485
9.2e-05	1.5218
0.000122	1.8302
0.000172	2.1548
0.00024	2.5606
0.000333	2.9096
0.000436	3.2627
0.000623	3.6563
0.001389	4.3015
0.002113	4.6262
0.003619	4.9995
0.009915	5.4743
0.023801	5.8599
0.04982	6.2373
0.091369	6.4971
0.143516	6.7
0.199297	6.8258
0.243613	6.9192
0.308745	6.9922
0.402254	7.0693
0.480618	7.1627
0.556032	7.2236
0.67655	7.3007
0.815643	7.3615
1.00138	7.4387
1.04809	7.463
