Adsorption isotherm of Ethane on Mn2(m-dobdc)
DOI: 10.1021/jacs.7b06397
Article source: Figure 2
Adsorbate Ethane: InChIKey OTMSDBZUPAUEDD-UHFFFAOYSA-N
Kind: experiment
Temperature: 298 K
Tabular data in the source: 0
pressure (bar)	uptake (mmol/g)
0.000147	0.0303
0.00028	0.0499
0.00075	0.0761
0.001334	0.0764
0.002113	0.0766
0.003251	0.0897
0.00609	0.1608
0.008582	0.2061
0.01076	0.2577
0.02045	0.5028
0.029881	0.6834
0.03971	0.8896
0.051263	1.1281
0.074869	1.5793
0.099472	2.0304
0.155096	2.7972
0.206016	3.4352
0.248886	3.8283
0.305211	4.2085
0.408413	4.6596
0.523239	4.9947
0.632266	5.3105
0.715649	5.5038
0.798178	5.6907
0.883894	5.8453
1.00046	5.9936
1.11609	6.1225
