Adsorption isotherm of Ethene on Ni2(m-dobdc)
DOI: 10.1021/jacs.7b06397
Article source: Figure 2
Adsorbate Ethene: InChIKey VGGSQFUCUMXWEO-UHFFFAOYSA-N
Kind: experiment
Temperature: 298 K
Tabular data in the source: 0
pressure (bar)	uptake (mmol/g)
1e-05	0.0265
2.3e-05	0.0593
4.5e-05	0.1327
0.000198	0.4002
0.000307	0.564
0.000394	0.6613
0.000463	0.7789
0.00077	1.0911
0.000971	1.3213
0.001274	1.4953
0.001447	1.6385
0.001712	1.7971
0.002036	1.9404
0.002353	2.0631
0.002915	2.2627
0.003272	2.4008
0.003674	2.5287
0.004173	2.6821
0.00463	2.7691
0.006823	3.0965
0.012314	3.5775
0.015882	3.8588
0.018459	4.0123
0.024367	4.2783
0.028655	4.396
0.0394	4.6109
0.049957	4.7388
0.07236	5.01
0.100069	5.1636
0.144112	5.3376
0.177501	5.4451
0.244062	5.6395
0.298882	5.7368
0.353509	5.8289
0.406256	5.9159
0.497508	6.0387
0.568329	6.141
0.641653	6.2484
0.758927	6.407
0.857038	6.5298
0.967832	6.6372
1.06782	6.714
