Adsorption isotherm of N-propane on Mn2(m-dobdc)
DOI: 10.1021/jacs.7b06397
Article source: Figure 2
Adsorbate N-propane: InChIKey ATUOYWHBWRKTHZ-UHFFFAOYSA-N
Kind: experiment
Temperature: 298 K
Tabular data in the source: 0
pressure (bar)	uptake (mmol/g)
0.00012	0.0733
0.000526	0.1627
0.000731	0.1993
0.001034	0.3088
0.001779	0.5483
0.00247	0.7512
0.004917	1.51
0.008194	2.3094
0.009833	2.5935
0.022961	3.7175
0.02937	3.9447
0.043471	4.2653
0.075474	4.6468
0.095675	4.8254
0.149589	5.0607
0.201187	5.1825
0.251594	5.3205
0.297852	5.3895
0.415528	5.5275
0.507809	5.6249
0.609397	5.7385
0.695665	5.8034
0.801124	5.8887
0.893923	5.9576
1.01555	6.0266
