Adsorption isotherm of Ethane on Ni2(m-dobdc)
DOI: 10.1021/jacs.7b06397
Article source: Figure 2
Adsorbate Ethane: InChIKey OTMSDBZUPAUEDD-UHFFFAOYSA-N
Kind: experiment
Temperature: 298 K
Tabular data in the source: 0
pressure (bar)	uptake (mmol/g)
1.2e-05	0.0103
2.3e-05	0.0228
4.7e-05	0.019
9.5e-05	0.0599
0.0002	0.0684
0.000306	0.0604
0.000508	0.085
0.001179	0.0976
0.002057	0.1343
0.00314	0.1751
0.004684	0.2483
0.009164	0.3542
0.011965	0.4923
0.015689	0.6344
0.018685	0.736
0.023185	0.8944
0.028774	1.0446
0.037213	1.2396
0.050153	1.5644
0.074422	2.1652
0.097118	2.5955
0.150869	3.2979
0.19147	3.8093
0.24088	4.0773
0.307256	4.4102
0.321588	4.5726
0.399117	4.804
0.445554	4.9421
0.504313	5.1126
0.581433	5.3115
0.658112	5.478
0.751969	5.6404
0.835603	5.7662
0.903441	5.8637
0.958959	5.9327
1.0416	6.0342
1.07078	6.0707
