Adsorption isotherm of N-propane on Ni2(m-dobdc)
DOI: 10.1021/jacs.7b06397
Article source: Figure 2
Adsorbate N-propane: InChIKey ATUOYWHBWRKTHZ-UHFFFAOYSA-N
Kind: experiment
Temperature: 298 K
Tabular data in the source: 0
pressure (bar)	uptake (mmol/g)
1e-05	0.0365
2.4e-05	0.0528
4.7e-05	0.0367
0.000198	0.118
0.000397	0.2235
0.001015	0.5563
0.001218	0.6294
0.001475	0.7511
0.001707	0.9054
0.001922	1.0027
0.002951	1.4735
0.003261	1.6195
0.003774	1.8062
0.004287	1.9766
0.004783	2.1714
0.007616	2.772
0.009741	3.056
0.012462	3.3644
0.014158	3.5186
0.017306	3.7378
0.018446	3.7865
0.029635	4.1598
0.040041	4.3789
0.048495	4.5007
0.076524	4.874
0.098787	5.012
0.147571	5.2068
0.193108	5.3813
0.251594	5.5112
0.293765	5.6086
0.339938	5.6816
0.402439	5.7506
0.442894	5.7953
0.467735	5.8277
0.514754	5.8764
0.561306	5.9089
0.631975	5.9454
0.695505	5.9901
0.741481	6.0185
0.815831	6.0672
0.869761	6.0956
0.935621	6.1199
0.997241	6.1565
1.04858	6.1808
