Adsorption isotherm of Propene on Mn2(m-dobdc)
DOI: 10.1021/jacs.7b06397
Article source: Figure 2
Adsorbate Propene: InChIKey QQONPFPTGQHPMA-UHFFFAOYSA-N
Kind: experiment
Temperature: 298 K
Tabular data in the source: 0
pressure (bar)	uptake (mmol/g)
9.7e-05	1.3002
0.000238	2.3172
0.000459	3.1531
0.000724	3.6482
0.000943	3.9403
0.001705	4.4517
0.002325	4.6546
0.005381	5.1091
0.007752	5.2471
0.010191	5.3364
0.020568	5.6205
0.030172	5.7504
0.038592	5.8559
0.051677	5.9858
0.07308	6.14
0.099655	6.3104
0.144844	6.4728
0.192176	6.6026
0.264423	6.7325
0.317395	6.8299
0.405976	6.9354
0.4917	7.0166
0.574116	7.1059
0.664355	7.1708
0.761728	7.2439
0.931108	7.3332
1.03872	7.3981
