Adsorption isotherm of Nitrogen on Cu-MOF
DOI: 10.1002/adfm.201300510
Adsorbate Nitrogen: InChIKey IJGRMHOSHXDMSA-UHFFFAOYSA-N
Temperature: 77 K
Tabular data in the source: 0
pressure (bar)	uptake (cm3(STP)/g)
0.00372489	12.9435
0.00515504	32.3934
0.00658518	43.8346
0.00944547	71.8654
0.0108756	91.3153
0.0123058	135.936
0.0165962	175.98
0.0194565	197.146
0.0380483	205.155
0.0766622	214.308
0.133868	217.168
0.188213	218.884
0.249709	220.6
0.301195	222.316
0.389864	225.749
0.475672	227.465
0.572922	230.325
0.644429	232.613
0.75026	237.19
0.827487	240.622
0.866101	248.631
0.929027	264.649
0.95191	284.671
0.966211	298.4
0.981943	335.584
0.981943	364.759
0.989093	387.069
