Adsorption isotherm of Nitrogen on Cu-MOF
DOI: 10.1002/adfm.201300510
Adsorbate Nitrogen: InChIKey IJGRMHOSHXDMSA-UHFFFAOYSA-N
Temperature: 77 K
Tabular data in the source: 0
pressure (bar)	uptake (cm3(STP)/g)
0.00229475	55.8478
0.00372489	111.337
0.00372489	134.22
0.00515504	20.9523
0.00515504	89.5992
0.00515504	156.53
0.0294675	178.84
0.065221	187.993
0.116706	190.281
0.15675	193.142
0.191074	193.142
0.266871	194.858
0.342669	195.43
0.415606	197.146
0.497124	198.29
0.55862	200.578
0.632988	201.15
0.721657	204.583
0.810326	207.443
0.888983	210.875
0.923307	219.456
0.95048	233.186
0.95477	257.212
0.964781	278.95
0.991954	325.287
0.996244	349.885
