Adsorption isotherm of Nitrogen on Cu-MOF
DOI: 10.1002/adfm.201300510
Adsorbate Nitrogen: InChIKey IJGRMHOSHXDMSA-UHFFFAOYSA-N
Temperature: 77 K
Tabular data in the source: 0
pressure (bar)	uptake (cm3(STP)/g)
0.00515504	23.2405
0.00515504	39.8302
0.00515504	70.1492
0.00658518	98.7521
0.00801532	160.534
0.00944547	188.565
0.0123058	219.456
0.0180263	231.469
0.025177	249.203
0.0723718	254.924
0.113846	258.928
0.172482	262.36
0.202515	262.932
0.276882	265.793
0.35268	268.653
0.438488	273.23
0.521437	275.518
0.565771	274.946
0.644429	275.518
0.703065	280.666
0.737388	284.099
0.800315	288.103
0.85895	292.679
0.904715	316.134
0.924737	337.3
0.95763	381.348
0.980513	394.506
