Adsorption isotherm of Nitrogen on IRMOF-2-Br
DOI: 10.1021/Cg201136k
Adsorbate Nitrogen: InChIKey IJGRMHOSHXDMSA-UHFFFAOYSA-N
Temperature: 292 K
Tabular data in the source: 0
pressure (bar)	uptake (cm3(STP)/mol)
0.0608924	237.845
0.0852494	313.576
0.107171	400.062
0.126656	464.96
0.151013	551.472
0.172934	616.395
0.189984	692.049
0.211906	767.753
0.258184	908.408
0.309334	1092.24
0.360483	1265.29
0.414069	1459.93
0.457911	1611.34
0.511496	1795.2
0.56021	1968.23
0.613796	2141.3
0.664945	2314.35
0.718531	2498.21
0.75263	2627.95
0.789166	2757.72
0.818394	2887.41
0.840316	2973.9
0.85493	3027.96
0.879287	3114.48
0.893901	3190.1
0.923129	3287.45
0.928001	3341.41
0.947486	3395.53
0.954793	3460.29
0.974279	3525.19
0.981586	3579.18
0.991329	3633.19
1.00594	3719.6
