Adsorption isotherm of Nitrogen on IRMOF-1
DOI: 10.1021/Cg201136k
Adsorbate Nitrogen: InChIKey IJGRMHOSHXDMSA-UHFFFAOYSA-N
Temperature: 292 K
Tabular data in the source: 0
pressure (bar)	uptake (cm3(STP)/mol)
0.0146142	54.0639
0.0267927	108.102
0.0657638	227.115
0.0852494	281.231
0.112042	346.206
0.131528	432.666
0.151013	497.564
0.170499	551.679
0.194856	616.629
0.207034	659.885
0.263055	832.988
0.309334	995.205
0.360483	1157.47
0.409197	1319.72
0.457911	1471.18
0.511496	1644.26
0.562646	1806.53
0.608924	1957.96
0.660074	2131.01
0.713659	2282.53
0.75263	2423.1
0.78673	2509.72
0.813523	2585.48
0.83788	2639.64
0.859801	2704.57
0.881722	2758.71
0.891465	2791.16
0.920694	2877.72
0.935308	2931.79
0.952358	2953.53
0.974279	3029.23
0.984022	3094.03
0.993764	3180.39
1.00107	3255.94
