Adsorption isotherm of Nitrogen on IRMOF-2-Cl
DOI: 10.1021/Cg201136k
Adsorbate Nitrogen: InChIKey IJGRMHOSHXDMSA-UHFFFAOYSA-N
Temperature: 292 K
Tabular data in the source: 0
pressure (bar)	uptake (cm3(STP)/mol)
0.0121785	43.2563
0.0608924	216.281
0.124221	411.025
0.148578	475.974
0.177806	562.539
0.306898	962.834
0.360483	1114.35
0.411633	1276.62
0.465218	1449.69
0.511496	1611.91
0.567517	1774.23
0.616231	1936.48
0.664945	2087.94
0.716095	2239.43
0.762373	2390.86
0.789166	2477.4
0.818394	2574.75
0.835444	2618.05
0.852494	2672.14
0.889029	2780.35
0.923129	2866.97
0.942615	2931.86
0.964536	2996.79
0.986457	3050.93
1.00351	3083.45
