Adsorption isotherm of Nitrogen on IRMOF-2-Br
DOI: 10.1021/Cg201136k
Adsorbate Nitrogen: InChIKey IJGRMHOSHXDMSA-UHFFFAOYSA-N
Temperature: 77 K
Tabular data in the source: 0
pressure (bar)	uptake (cm3(STP)/g)
0.000984477	439.024
0.00276638	333.659
0.00716699	496.098
0.0132757	520.244
0.0254093	531.22
0.0436123	548.78
0.0618005	559.756
0.0880418	561.951
0.106215	566.341
0.126407	570.732
0.138521	572.927
0.156689	575.122
0.178889	575.122
0.215221	577.317
0.247527	583.902
0.263672	583.902
0.281831	581.707
0.300005	586.098
0.324228	588.293
0.356518	588.293
0.400923	590.488
0.453396	590.488
0.501837	592.683
0.554319	597.073
0.610828	597.073
0.709719	597.073
0.754119	597.073
0.780365	601.463
0.816697	603.659
0.840915	603.659
0.887329	601.463
0.949907	608.049
0.978161	608.049
1.00641	605.854
