Adsorption isotherm of Nitrogen on IRMOF-2-I
DOI: 10.1021/Cg201136k
Adsorbate Nitrogen: InChIKey IJGRMHOSHXDMSA-UHFFFAOYSA-N
Temperature: 292 K
Tabular data in the source: 0
pressure (bar)	uptake (cm3(STP)/mol)
0.109606	389.306
0.133963	475.819
0.151013	551.472
0.172934	627.177
0.19242	692.074
0.211906	767.753
0.263055	940.804
0.311769	1135.39
0.362919	1319.23
0.409197	1481.44
0.460347	1654.49
0.506625	1816.71
0.557775	2000.54
0.608924	2184.38
0.664945	2379.04
0.706352	2541.21
0.759938	2735.85
0.791602	2865.57
0.82083	2984.48
0.835444	3060.1
0.857365	3146.59
0.881722	3254.67
0.891465	3297.9
0.928001	3427.66
0.947486	3546.47
0.9621	3632.88
0.976715	3697.72
0.984022	3816.4
0.9962	3870.44
1.00594	3924.45
