Adsorption isotherm of Nitrogen on IRMOF-2-F
DOI: 10.1021/Cg201136k
Adsorbate Nitrogen: InChIKey IJGRMHOSHXDMSA-UHFFFAOYSA-N
Temperature: 77 K
Tabular data in the source: 0
pressure (bar)	uptake (cm3(STP)/g)
0.00232337	136.098
0.00952973	649.756
0.0136547	689.268
0.0217766	711.22
0.0298887	728.78
0.0501197	750.732
0.0662799	757.317
0.0824499	768.293
0.104665	774.878
0.13697	781.463
0.161198	785.854
0.183403	788.049
0.217732	796.829
0.256082	799.024
0.272228	799.024
0.288373	799.024
0.308565	803.415
0.328746	803.415
0.357006	805.61
0.409483	807.805
0.453888	810
0.506366	812.195
0.558848	816.585
0.613344	818.78
0.663793	816.585
0.712234	818.78
0.752593	816.585
0.784894	820.976
0.819203	820.976
0.853517	823.171
0.879748	820.976
0.905989	823.171
0.932231	825.366
0.96654	825.366
1.00893	827.561
