Adsorption isotherm of Nitrogen on IRMOF-2-F
DOI: 10.1021/Cg201136k
Adsorbate Nitrogen: InChIKey IJGRMHOSHXDMSA-UHFFFAOYSA-N
Temperature: 292 K
Tabular data in the source: 0
pressure (bar)	uptake (cm3(STP)/mol)
0.0316641	118.28
0.0633281	215.054
0.0852494	279.57
0.109606	322.581
0.124221	387.097
0.153449	473.118
0.170499	526.882
0.189984	591.398
0.20947	645.161
0.263055	795.699
0.314205	946.237
0.360483	1075.27
0.411633	1225.81
0.462782	1365.59
0.511496	1516.13
0.56021	1655.91
0.618667	1806.45
0.664945	1956.99
0.711224	2107.53
0.757502	2247.31
0.789166	2333.33
0.862237	2548.39
0.881722	2602.15
0.896337	2645.16
0.930436	2752.69
0.954793	2806.45
0.974279	2860.22
0.991329	2892.47
1.00351	2913.98
