Adsorption isotherm of Nitrogen on IRMOF-2-I
DOI: 10.1021/Cg201136k
Adsorbate Nitrogen: InChIKey IJGRMHOSHXDMSA-UHFFFAOYSA-N
Temperature: 77 K
Tabular data in the source: 0
pressure (bar)	uptake (cm3(STP)/g)
0.000383946	171.22
0.00487316	373.171
0.00900304	414.878
0.0130837	434.634
0.0292586	447.805
0.049465	458.78
0.0696567	463.171
0.0817756	467.561
0.114071	469.756
0.134258	471.951
0.162517	474.146
0.182709	478.537
0.198854	478.537
0.223078	480.732
0.40271	487.317
0.455197	493.902
0.505647	491.707
0.554093	496.098
0.608584	496.098
0.661061	498.293
0.711521	500.488
0.749866	500.488
0.784175	500.488
0.81243	500.488
0.836648	500.488
0.852798	502.683
0.901234	502.683
0.923429	500.488
0.967839	504.878
1.00417	507.073
