Adsorption isotherm of Nitrogen on IRMOF-2-Cl
DOI: 10.1021/Cg201136k
Adsorbate Nitrogen: InChIKey IJGRMHOSHXDMSA-UHFFFAOYSA-N
Temperature: 77 K
Tabular data in the source: 0
pressure (bar)	uptake (cm3(STP)/g)
0.000388868	173.415
0.00935253	570.732
0.0174695	590.488
0.0215404	605.854
0.0296327	614.634
0.0478308	630
0.0619728	636.585
0.0821743	645.366
0.110439	649.756
0.126594	654.146
0.140726	656.341
0.158895	658.537
0.179091	665.122
0.19725	662.927
0.215423	667.317
0.245696	667.317
0.263855	665.122
0.28002	673.902
0.324415	671.707
0.358733	676.098
0.405161	680.488
0.453598	680.488
0.508088	680.488
0.556535	684.878
0.604971	684.878
0.659471	689.268
0.707908	689.268
0.748276	691.463
0.784603	691.463
0.814881	693.659
0.837086	695.854
0.857263	693.659
0.877444	693.659
0.907722	695.854
0.925881	693.659
1.00663	702.439
