Adsorption isotherm of Water on MIL-101
DOI: 10.1039/C2ce06608d
Adsorbate Water: InChIKey XLYOFNOQVPJJNP-UHFFFAOYSA-N
Temperature: 298 K
Tabular data in the source: 0
pressure (bar)	uptake (cm3(STP)/g)
0.0141104	19.5052
0.113872	55.5044
0.310794	65.8728
0.390545	88.8342
0.417648	215.409
0.426901	546.249
0.465256	604.752
0.475078	792.892
0.478679	955.066
0.51857	968.168
0.618235	994.438
0.733676	1007.78
0.924795	1034.35
