Adsorption isotherm of Carbon Dioxide on MIL-101
DOI: 10.1039/C2ce06608d
Adsorbate Carbon Dioxide: InChIKey CURLTUGMZLYLDI-UHFFFAOYSA-N
Temperature: 298 K
Tabular data in the source: 0
pressure (bar)	uptake (mg/g)
0.0187051	2.85849
0.0747877	8.58433
0.159944	16.6987
0.238886	25.7599
0.348977	37.2106
0.442437	45.8038
0.556633	53.457
0.674984	61.5871
0.73936	66.8419
0.818248	71.1538
0.91583	77.3743
1.01341	83.5948
