Adsorption isotherm of Carbon Dioxide on DETA-MIL-101
DOI: 10.1039/C2ce06608d
Adsorbate Carbon Dioxide: InChIKey CURLTUGMZLYLDI-UHFFFAOYSA-N
Temperature: 273 K
Tabular data in the source: 0
pressure (bar)	uptake (mg/g)
0.033343	12.8391
0.0603634	17.1263
0.0998319	21.4194
0.184971	28.109
0.263865	32.8958
0.390487	38.6551
0.481812	42.023
0.568982	44.914
0.662382	48.2829
0.778593	50.7128
0.923855	53.6314
1.03177	56.0573
