Adsorption isotherm of Carbon Dioxide on MIL-101
DOI: 10.1039/C2ce06608d
Adsorbate Carbon Dioxide: InChIKey CURLTUGMZLYLDI-UHFFFAOYSA-N
Temperature: 273 K
Tabular data in the source: 0
pressure (bar)	uptake (mg/g)
0.0187435	6.18304
0.0727678	13.3327
0.135118	22.861
0.216179	35.7227
0.315946	51.4429
0.436486	69.5477
0.55493	85.7517
0.646359	98.1434
0.735692	108.634
0.812571	118.644
0.910202	129.139
1.01824	142.489
