Adsorption isotherm of Carbon Dioxide on DETA-MIL-101
DOI: 10.1039/C2ce06608d
Adsorbate Carbon Dioxide: InChIKey CURLTUGMZLYLDI-UHFFFAOYSA-N
Temperature: 298 K
Tabular data in the source: 0
pressure (bar)	uptake (mg/g)
0.041609	9.99338
0.128818	16.2089
0.203556	20.5188
0.282427	23.4059
0.38619	25.8299
0.477509	28.7228
0.5958	31.6286
0.720304	33.5875
0.826136	35.5375
0.927818	37.4855
1.0295	39.4335
