Adsorption isotherm of Water on DETA-MIL-101
DOI: 10.1039/C2ce06608d
Adsorbate Water: InChIKey XLYOFNOQVPJJNP-UHFFFAOYSA-N
Temperature: 298 K
Tabular data in the source: 0
pressure (bar)	uptake (cm3(STP)/g)
0.01209	16.2554
0.18926	39.5327
0.244992	46.2
0.334587	59.4635
0.394328	69.387
0.461925	69.6062
0.467889	69.6256
0.557452	79.6458
0.661093	105.928
0.728722	109.39
0.780478	116.045
0.816329	122.648
0.86212	129.283
0.907944	139.161
