Adsorption isotherm of Oxygen on Silica Gel
DOI: 10.1021/ja01353a013
Article source: Table I
Adsorbate Oxygen: InChIKey MYMOFIZGZYHOMD-UHFFFAOYSA-N
Kind: experiment
Temperature: 373 K
Tabular data in the source: 0
pressure (bar)	uptake (cm3(STP)/g)
0.023865	0.08
0.118124	0.54
0.178519	0.9
0.295842	1.52
0.438631	2.19
0.556088	2.87
0.628482	3.18
0.760604	3.92
0.870862	4.38
1.01325	5.01
