Adsorption isotherm of Oxygen on Silica Gel
DOI: 10.1021/ja01353a013
Article source: Table I
Adsorbate Oxygen: InChIKey MYMOFIZGZYHOMD-UHFFFAOYSA-N
Kind: experiment
Temperature: 273 K
Tabular data in the source: 0
pressure (bar)	uptake (cm3(STP)/g)
0.110658	3.32
0.189851	5.57
0.299042	8.73
0.439431	12.68
0.540089	15.48
0.725407	20.42
0.803267	22.48
0.889927	24.86
1.01325	28.03
