Adsorption isotherm of Oxygen, Carbon monoxide on Silica Gel
DOI: 10.1021/ja01353a013
Article source: Table IV
Adsorbate Oxygen: InChIKey MYMOFIZGZYHOMD-UHFFFAOYSA-N
Adsorbate Carbon monoxide: InChIKey UGFAIRIUMAVXCW-UHFFFAOYSA-N
Kind: experiment
Temperature: 373 K
Tabular data in the source: 0
pressure (bar)	Oxygen fraction	Oxygen uptake (cm3(STP)/g)	Carbon monoxide fraction	Carbon monoxide uptake (cm3(STP)/g)	total uptake (cm3(STP)/g)
1.01325	0.276711	1.56	0.723289	5.27	
1.01325	0.376842	1.96	0.623158	4.4	
1.01325	0.441711	2.33	0.558289	4.05	
1.01325	0.722237	3.72	0.277763	2.16	
