Adsorption isotherm of Carbon Dioxide, Oxygen on Silica Gel
DOI: 10.1021/ja01353a013
Article source: Table V
Adsorbate Carbon Dioxide: InChIKey CURLTUGMZLYLDI-UHFFFAOYSA-N
Adsorbate Oxygen: InChIKey MYMOFIZGZYHOMD-UHFFFAOYSA-N
Kind: experiment
Temperature: 373 K
Tabular data in the source: 0
pressure (bar)	Carbon Dioxide fraction	Carbon Dioxide uptake (cm3(STP)/g)	Oxygen fraction	Oxygen uptake (cm3(STP)/g)	total uptake (cm3(STP)/g)
1.01325	0.759868	65.14	0.240132	1.81	
1.01325	0.738158	63.89	0.261842	1.78	
1.01325	0.422895	38.82	0.577105	2.9	
1.01325	0.191974	18.65	0.808026	4.25	
1.01325	0.186842	18.45	0.813158	4.21	
