Adsorption isotherm of Carbon monoxide on Silica Gel
DOI: 10.1021/ja01353a013
Article source: Table II
Adsorbate Carbon monoxide: InChIKey UGFAIRIUMAVXCW-UHFFFAOYSA-N
Kind: experiment
Temperature: 273 K
Tabular data in the source: 0
pressure (bar)	uptake (cm3(STP)/g)
0.127323	7.09
0.169853	9.48
0.266245	14.37
0.36317	19.41
0.489826	25.54
0.618216	31.7
0.732873	37.01
0.863796	42.65
1.01325	48.89
