Adsorption isotherm of Carbon Dioxide, Carbon monoxide on Silica Gel
DOI: 10.1021/ja01353a013
Article source: Table VI
Adsorbate Carbon Dioxide: InChIKey CURLTUGMZLYLDI-UHFFFAOYSA-N
Adsorbate Carbon monoxide: InChIKey UGFAIRIUMAVXCW-UHFFFAOYSA-N
Kind: experiment
Temperature: 373 K
Tabular data in the source: 0
pressure (bar)	Carbon Dioxide fraction	Carbon Dioxide uptake (cm3(STP)/g)	Carbon monoxide fraction	Carbon monoxide uptake (cm3(STP)/g)	total uptake (cm3(STP)/g)
1.01325	0.721579	61.51	0.278421	2.98	
1.01325	0.658553	57.3	0.341447	3.21	
1.01325	0.503947	45.42	0.496053	3.77	
1.01325	0.493553	44.68	0.506447	3.7	
1.01325	0.269737	25.93	0.730263	5.53	
