Adsorption isotherm of Carbon Dioxide on Silica Gel
DOI: 10.1021/ja01353a013
Article source: Table II
Adsorbate Carbon Dioxide: InChIKey CURLTUGMZLYLDI-UHFFFAOYSA-N
Kind: experiment
Temperature: 373 K
Tabular data in the source: 0
pressure (bar)	uptake (cm3(STP)/g)
0.035064	3.37
0.103458	10.07
0.153187	14.73
0.188118	17.94
0.254379	23.93
0.31984	29.61
0.385302	35.18
0.443697	40.02
0.504492	44.82
0.579686	50.76
0.636348	55.05
0.715674	61.01
0.790735	66.4
0.918724	75.47
1.01325	81.78
