Adsorption isotherm of Oxygen, Carbon monoxide on Silica Gel
DOI: 10.1021/ja01353a013
Article source: Table III
Adsorbate Oxygen: InChIKey MYMOFIZGZYHOMD-UHFFFAOYSA-N
Adsorbate Carbon monoxide: InChIKey UGFAIRIUMAVXCW-UHFFFAOYSA-N
Kind: experiment
Temperature: 273 K
Tabular data in the source: 0
pressure (bar)	Oxygen fraction	Oxygen uptake (cm3(STP)/g)	Carbon monoxide fraction	Carbon monoxide uptake (cm3(STP)/g)	total uptake (cm3(STP)/g)
1.01325	0.302895	8.31	0.697105	35.02	
1.01325	0.514605	14.1	0.485395	24.69	
1.01325	0.769868	21.73	0.230132	11.63	
