Adsorption isotherm of Carbon monoxide on Silica Gel
DOI: 10.1021/ja01353a013
Article source: Table II
Adsorbate Carbon monoxide: InChIKey UGFAIRIUMAVXCW-UHFFFAOYSA-N
Kind: experiment
Temperature: 373 K
Tabular data in the source: 0
pressure (bar)	uptake (cm3(STP)/g)
0.035064	0.26
0.170519	1.37
0.299175	2.36
0.427965	3.37
0.579286	4.42
0.716208	5.3
0.852463	6.33
1.01325	7.4
