Adsorption isotherm of Nitrogen on AOP-CH2
DOI: 10.1021/La302695q
Adsorbate Nitrogen: InChIKey IJGRMHOSHXDMSA-UHFFFAOYSA-N
Temperature: 77 K
Tabular data in the source: 0
pressure (bar)	uptake (cm3(STP)/cm3)
0.0129969	14.0351
0.0487385	19.2982
0.113723	24.5614
0.142966	26.3158
0.188455	28.0702
0.227446	29.8246
0.272935	31.5789
0.315175	36.8421
0.367163	36.8421
0.393157	38.5965
0.428898	40.3509
0.46464	43.8596
0.493883	61.4035
0.516628	66.6667
0.542622	71.9298
0.558868	70.1754
0.594609	73.6842
0.6336	78.9474
0.659594	80.7018
0.679089	85.9649
0.698585	87.7193
0.737575	92.9825
0.753822	96.4912
0.776566	100
0.805809	107.018
0.831803	112.281
0.851298	121.053
0.877292	133.333
0.906535	143.86
0.926031	161.404
0.952025	196.491
