Adsorption isotherm of Nitrogen on AOP-C6H4
DOI: 10.1021/La302695q
Adsorbate Nitrogen: InChIKey IJGRMHOSHXDMSA-UHFFFAOYSA-N
Temperature: 77 K
Tabular data in the source: 0
pressure (bar)	uptake (cm3(STP)/cm3)
0.0163556	8.77193
0.0392533	12.2807
0.0719644	10.5263
0.0948622	15.7895
0.11776	15.7895
0.160284	15.7895
0.186453	15.7895
0.219164	17.5439
0.251876	17.5439
0.297671	17.5439
0.340196	21.0526
0.379449	22.807
0.415431	22.807
0.4416	24.5614
0.454684	26.3158
0.487396	36.8421
0.526649	40.3509
0.562631	43.8596
0.611698	47.3684
0.683662	50.8772
0.716373	54.386
0.755627	57.8947
0.781796	61.4035
0.817778	66.6667
0.85376	68.4211
0.870116	73.6842
0.902827	84.2105
0.928996	94.7368
0.955164	107.018
