Adsorption isotherm of Nitrogen on AOP-CH2
DOI: 10.1021/La302695q
Adsorbate Nitrogen: InChIKey IJGRMHOSHXDMSA-UHFFFAOYSA-N
Temperature: 77 K
Tabular data in the source: 0
pressure (bar)	uptake (cm3(STP)/cm3)
0.00974769	22.807
0.0389908	29.8246
0.0714831	35.0877
0.103975	36.8421
0.133218	40.3509
0.165711	43.8596
0.198203	45.614
0.217698	45.614
0.246942	49.1228
0.279434	49.1228
0.308677	52.6316
0.360665	56.1404
0.389908	57.8947
0.415902	59.6491
0.458142	68.4211
0.484135	78.9474
0.503631	92.9825
0.536123	94.7368
0.565366	98.2456
0.594609	105.263
0.627102	108.772
0.656345	114.035
0.685588	117.544
0.740825	135.088
0.770068	140.351
0.792812	149.123
0.8448	171.93
0.867545	180.702
0.906535	200
0.926031	217.544
0.948775	240.351
0.968271	268.421
