Adsorption isotherm of Water on AOP-CH2
DOI: 10.1021/La302695q
Adsorbate Water: InChIKey XLYOFNOQVPJJNP-UHFFFAOYSA-N
Temperature: 298 K
Tabular data in the source: 0
pressure (bar)	uptake (mmol/g)
0.0021101	1.86874
0.00343868	2.69928
0.00500171	3.11456
0.00820593	4.15275
0.0105505	4.9833
0.0121135	6.02148
0.0148488	7.26731
0.0166463	8.51313
0.0192253	11.4201
0.0219606	17.8568
0.02368	24.5012
0.0248523	30.7303
0.0255556	36.5442
0.0261027	42.1504
0.0267279	46.926
0.027275	51.2864
0.0279002	55.2315
0.0285254	58.5537
0.0290724	61.6683
0.0295414	64.3676
0.0300103	66.0287
0.030401	67.2745
