Adsorption isotherm of Nitrogen on AOP-C3H6
DOI: 10.1021/La302695q
Adsorbate Nitrogen: InChIKey IJGRMHOSHXDMSA-UHFFFAOYSA-N
Temperature: 77 K
Tabular data in the source: 0
pressure (bar)	uptake (cm3(STP)/cm3)
0.0196176	8.70596
0.0750506	10.3545
0.114183	12.0323
0.150067	15.4642
0.185928	15.3997
0.21202	17.101
0.270702	16.9954
0.319615	18.6556
0.362007	20.3276
0.40114	22.0054
0.446793	23.6715
0.469625	25.3787
0.48922	30.5882
0.512052	32.2953
0.541381	30.4943
0.560964	33.9556
0.583785	33.9145
0.632687	33.8265
0.678339	35.4926
0.6979	35.4574
0.733784	38.8893
0.779437	40.5554
0.821829	42.2274
0.841413	45.6887
0.880625	59.6041
0.896948	63.0713
0.92972	89.2361
0.956211	152.125
