Adsorption isotherm of Nitrogen on AOP-C2H4
DOI: 10.1021/La302695q
Adsorbate Nitrogen: InChIKey IJGRMHOSHXDMSA-UHFFFAOYSA-N
Temperature: 77 K
Tabular data in the source: 0
pressure (bar)	uptake (cm3(STP)/cm3)
0.149465	1.75439
0.181957	1.75439
0.217698	1.75439
0.250191	3.50877
0.279434	3.50877
0.308677	3.50877
0.341169	5.26316
0.373662	5.26316
0.402905	5.26316
0.435397	7.01754
0.467889	7.01754
0.484135	14.0351
0.503631	21.0526
0.529625	22.807
0.562117	24.5614
0.581612	24.5614
0.610855	26.3158
0.643348	26.3158
0.672591	29.8246
0.701834	31.5789
0.734326	31.5789
0.763569	31.5789
0.796062	35.0877
0.825305	38.5965
0.848049	42.1053
0.877292	45.614
0.909785	49.1228
0.935778	52.6316
0.952025	57.8947
0.97152	70.1754
