Adsorption isotherm of Nitrogen on AOP-CH2
DOI: 10.1021/La302695q
Adsorbate Nitrogen: InChIKey IJGRMHOSHXDMSA-UHFFFAOYSA-N
Temperature: 77 K
Tabular data in the source: 0
pressure (bar)	uptake (cm3(STP)/cm3)
0.0194954	1.75439
0.0552369	8.77193
0.0877292	10.5263
0.116972	12.2807
0.139717	12.2807
0.165711	14.0351
0.201452	14.0351
0.246942	15.7895
0.289182	19.2982
0.331422	19.2982
0.360665	22.807
0.406154	22.807
0.432148	21.0526
0.461391	22.807
0.487385	49.1228
0.513378	54.386
0.529625	54.386
0.552369	56.1404
0.578363	61.4035
0.623852	63.1579
0.646597	63.1579
0.672591	66.6667
0.714831	70.1754
0.724578	71.9298
0.766818	78.9474
0.779815	84.2105
0.809058	87.7193
0.831803	91.2281
0.857797	100
0.880542	110.526
0.909785	114.035
0.926031	122.807
0.948775	136.842
