Adsorption isotherm of Carbon Dioxide on MIL-53(Cr)
DOI: 10.1002/anie.200803067
Adsorbate Carbon Dioxide: InChIKey CURLTUGMZLYLDI-UHFFFAOYSA-N
Temperature: 300 K
Tabular data in the source: 0
pressure (bar)	uptake (molecules/unitcell)
0.0441696	0.233918
0.309187	1.16959
1.06007	2.10526
1.94346	2.36842
2.82686	2.45614
4.15194	2.83626
4.63781	2.89474
4.77032	2.98246
5.21201	3.36257
5.47703	3.77193
5.65371	4.21053
5.91873	4.4152
6.05124	4.73684
6.27208	4.94152
6.62544	5.38012
6.80212	6.11111
7.24382	6.19883
7.68551	6.37427
7.95053	6.63743
8.21555	6.95906
8.5689	6.92982
9.0106	7.01754
9.23145	7.19298
9.62898	7.25146
9.71731	7.30994
10.2473	7.36842
10.7332	7.4269
11.0424	7.5731
15.106	8.24561
16.5194	8.42105
17.8887	8.56725
19.0813	8.74269
20.4064	8.88889
