Adsorption isotherm of Carbon Dioxide on MIL-53(Cr)
DOI: 10.1002/anie.200803067
Adsorbate Carbon Dioxide: InChIKey CURLTUGMZLYLDI-UHFFFAOYSA-N
Temperature: 300 K
Tabular data in the source: 0
pressure (bar)	uptake (molecules/unitcell)
0.441696	0.906433
0.883392	2.04678
3.44523	2.63158
5.87456	4.00585
6.75795	5.08772
7.11131	5.96491
13.0742	7.92398
