Adsorption isotherm of Carbon Dioxide on [Eu(BDC)(NO3)(DMF)2]
DOI: 10.1021/acs.inorgchem.5b01311
Article source: Figure S8
Adsorbate Carbon Dioxide: InChIKey CURLTUGMZLYLDI-UHFFFAOYSA-N
Kind: experiment
Temperature: 195 K
Tabular data in the source: 0
pressure (bar)	uptake (cm3(STP)/g)
0	1.81197
0.004039	3.28205
0.008078	4.41026
0.010097	5.19658
0.016155	5.77778
0.018175	6.32479
0.026252	6.80342
0.032311	7.24786
0.040388	7.62393
0.046447	7.82906
0.052505	8.8547
0.056544	8
0.062602	8.17094
0.072699	8.44444
0.092893	9.88034
0.098951	8.8547
0.119146	9.19658
0.141359	10.5299
0.163573	10.7009
0.183767	10.9402
0.185787	9.91453
0.203962	10.188
0.208	11.1795
0.228194	10.359
0.230213	11.3504
0.250408	10.5299
0.252427	11.4872
0.272621	10.7009
0.274641	11.6239
0.292815	10.8376
0.296854	11.7607
0.31503	11.8974
0.319068	11.0427
0.337243	11.1795
0.341281	12
0.359456	12.1709
0.369554	11.4188
0.387729	11.5556
0.403884	12.3761
0.426097	12.5812
0.434175	11.7607
0.454369	12.547
0.456388	11.8974
0.474563	12.1026
0.492737	12.1709
0.494757	12.8547
0.514952	12.3419
0.52101	12.8889
0.535146	12.4444
0.541204	13.0256
0.561398	13.1282
0.563418	12.6154
0.579573	12.6838
0.583612	13.2308
0.603806	13.3333
0.615922	12.8547
0.62602	13.3675
0.632078	12.9231
0.648233	13.4701
0.650253	13.094
0.674486	13.1282
0.676504	13.5726
0.690641	13.2308
0.69266	13.641
0.714874	13.6752
0.716893	13.3333
0.73103	13.4701
0.733048	13.7436
0.753243	13.5385
0.759301	13.7778
0.781514	13.6752
0.795651	13.7094
0.803729	13.9145
0.819884	13.8462
0.832	14.0171
0.846136	14.0855
0.848155	13.8462
0.872388	14.0171
0.884504	14.0171
0.894602	14.2222
0.906719	14.188
0.914796	14.3248
0.93499	14.359
0.93701	14.4274
0.953165	14.3932
0.955185	14.5299
0.979418	14.5299
0.981437	14.6325
1.00769	14.7009
1.01375	14.735
1.02586	14.8376
1.0299	14.8376
1.04202	14.9402
