Adsorption isotherm of Nitrogen on [Eu(BDC)(NO3)(DMF)2](LT)
DOI: 10.1021/acs.inorgchem.5b01311
Article source: Figure S7
Adsorbate Nitrogen: InChIKey IJGRMHOSHXDMSA-UHFFFAOYSA-N
Kind: experiment
Temperature: 77 K
Tabular data in the source: 0
pressure (bar)	uptake (cm3(STP)/g)
0	2.8818
0.005282	3.22496
0.015845	3.39119
0.022887	3.49808
0.02993	3.59314
0.038732	3.65287
0.044014	3.67688
0.049296	4.18553
0.054578	3.74855
0.070422	3.8206
0.086268	3.91628
0.09331	4.31867
0.109155	3.95337
0.110915	4.3672
0.128521	4.02566
0.132042	4.40416
0.149648	4.44087
0.151408	4.07457
0.169014	4.48953
0.170775	4.1114
0.18838	4.14811
0.193662	4.51492
0.211268	4.1852
0.232394	4.23398
0.234155	4.56507
0.251761	4.58996
0.253521	4.25911
0.267606	4.59108
0.274648	4.29607
0.290493	4.32084
0.292254	4.61647
0.31162	4.62967
0.315141	4.34623
0.334507	4.35942
0.353873	4.39626
0.355634	4.66825
0.373239	4.40945
0.376761	4.69339
0.394366	4.44641
0.397887	4.73035
0.413732	4.43596
0.415493	4.71977
0.434859	4.47292
0.452465	4.75786
0.454225	4.50976
0.475352	4.53489
0.492958	4.54796
0.5	4.82033
0.515845	4.56141
0.535211	4.5746
0.536972	4.87023
0.552817	4.87136
0.554577	4.63508
0.575704	4.90844
0.577465	4.6367
0.596831	4.9454
0.598592	4.67366
0.614437	4.95847
0.616197	4.68673
0.639085	5.04296
0.65493	5.05591
0.65669	4.76052
0.676056	5.10468
0.677817	4.78566
0.695423	5.15334
0.697183	4.83432
0.71831	4.85945
0.735915	5.29806
0.739437	4.93187
0.753521	5.34659
0.757042	5.01587
0.776408	5.07634
0.778169	5.47836
0.799296	5.58624
0.815141	5.24457
0.818662	5.71764
0.836268	5.39974
0.838028	5.90813
0.857394	6.09863
0.859155	5.57866
0.878521	5.78098
0.899648	6.01889
0.90493	6.72848
0.919014	6.36305
0.922535	7.15526
0.93838	6.84906
0.943662	7.80688
0.961268	7.619
