Adsorption isotherm of Carbon Dioxide on [Eu(BDC)(NO3)(DMF)2]
DOI: 10.1021/acs.inorgchem.5b01311
Article source: Figure S8
Adsorbate Carbon Dioxide: InChIKey CURLTUGMZLYLDI-UHFFFAOYSA-N
Kind: experiment
Temperature: 273 K
Tabular data in the source: 0
pressure (bar)	uptake (cm3(STP)/g)
0.471649	0.957265
0.606407	0.717949
1.28019	1.64103
2.29087	2.94017
3.30155	3.00855
3.36893	3.65812
4.04272	4.23932
4.31224	3.62393
5.12078	4.82051
5.92933	4.61538
6.80526	5.64103
7.00739	4.99145
7.81593	6.05128
7.95067	5.36752
8.75922	6.42735
8.8266	5.74359
9.70254	6.01709
9.76989	6.80342
10.5111	7.04274
10.5784	6.35897
11.3196	7.31624
11.5218	6.70085
12.465	7.65812
12.5998	6.97436
13.2062	7.93162
13.341	7.24786
14.1495	7.48718
14.3516	8.2735
15.2276	8.44444
15.295	7.79487
16.1709	8.61538
16.2382	8.06838
17.0468	8.23932
17.9227	8.44444
17.9901	9.16239
18.866	9.36752
19.0008	8.71795
19.8767	9.53846
20.0115	8.88889
20.82	9.77778
20.9547	9.16239
21.7633	9.33333
21.8981	9.98291
22.5718	9.53846
22.6392	10.1538
23.4478	9.7094
23.6499	10.2906
24.4584	10.4274
24.5932	10.0171
25.3344	10.6667
25.4691	10.1197
26.345	10.2906
26.4124	10.8376
26.8841	10.8718
27.2884	10.5299
28.299	10.6667
28.3664	11.1453
28.9728	11.2479
29.175	10.906
29.9835	11.4188
30.1856	11.1111
30.7921	11.2137
30.8594	11.6923
31.7353	11.6923
31.8701	11.3846
32.6787	11.5897
32.9482	11.9316
33.8915	11.9658
34.0936	11.7949
34.7	11.9316
35.6431	12.0684
35.7781	12.3077
36.5193	12.1368
36.7213	12.3761
37.4625	12.3761
