Adsorption isotherm of Hydrogen on [Eu(BDC)(NO3)(DMF)2]
DOI: 10.1021/acs.inorgchem.5b01311
Article source: Figure 6
Adsorbate Hydrogen: InChIKey UFHFLCQGNIYNRP-UHFFFAOYSA-N
Kind: experiment
Temperature: 77 K
Tabular data in the source: 0
pressure (bar)	uptake (cm3(STP)/g)
0.014368	10.8705
0.025862	11.4302
0.04023	16.9373
0.066092	20.5301
0.071839	18.1672
0.094828	22.5479
0.100575	20.0725
0.12069	24.2289
0.123563	21.7542
0.149425	25.5719
0.152299	23.0972
0.172414	26.5789
0.181034	24.3278
0.201149	27.5845
0.206897	25.3341
0.229885	28.3653
0.232759	26.2279
0.255747	29.0342
0.264368	29.4821
0.275862	27.5677
0.304598	28.236
0.307471	30.2596
0.333333	30.4787
0.33908	29.0154
0.341954	31.039
0.359195	29.4607
0.385057	31.5916
0.390805	30.1284
0.416667	32.1468
0.41954	30.5717
0.422414	32.4828
0.442529	31.1288
0.465517	32.923
0.471264	31.5722
0.491379	33.1421
0.497126	32.1287
0.502874	33.4769
0.520115	32.3484
0.543103	33.9176
0.548851	32.6793
0.574713	34.2479
0.577586	33.1227
0.583333	34.4709
0.600575	33.5673
0.626437	34.7986
0.62931	33.8983
0.655172	35.1295
0.658046	34.1167
0.66092	35.3531
0.686782	34.3352
0.701149	34.5568
