Adsorption isotherm of Carbon Dioxide on [Eu(BDC)(NO3)(DMF)2]
DOI: 10.1021/acs.inorgchem.5b01311
Article source: Figure S8
Adsorbate Carbon Dioxide: InChIKey CURLTUGMZLYLDI-UHFFFAOYSA-N
Kind: experiment
Temperature: 295 K
Tabular data in the source: 0
pressure (bar)	uptake (cm3(STP)/g)
3.83185	1.26496
5.45747	1.64103
7.08313	1.94872
8.82487	2.2906
8.941	2.05128
10.2183	2.52991
11.4955	2.39316
11.96	2.83761
13.0051	2.66667
13.4695	3.07692
13.8179	2.76923
14.979	3.35043
15.3274	2.94017
16.6047	3.58974
16.8369	3.17949
18.3464	3.82906
19.8559	4.03419
21.3655	3.69231
21.4815	4.20513
22.7589	3.96581
22.9911	4.41026
24.3845	4.5812
24.7328	4.13675
26.2423	4.82051
26.3585	4.34188
27.7519	4.54701
29.3775	4.71795
31.0031	4.88889
31.1192	5.29915
32.5126	5.47009
32.6287	4.99145
34.3705	5.16239
35.88	5.77778
35.9961	5.36752
37.3895	5.47009
37.5056	5.94872
39.0151	6.08547
39.1313	5.64103
40.5247	5.77778
40.6408	6.22222
42.0342	5.94872
42.3825	6.39316
43.5437	6.11966
44.1243	6.46154
45.1693	6.22222
45.4015	6.59829
47.0272	6.76923
47.2594	6.39316
48.6528	6.90598
48.8851	6.49573
50.2785	6.66667
51.9041	6.73504
52.0202	7.07692
53.0653	6.90598
53.1813	7.17949
54.9231	7.31624
55.2715	7.07692
56.781	7.1453
57.9421	7.4188
58.1744	7.28205
58.7549	7.55556
60.032	7.58974
61.1933	7.62393
61.89	7.65812
62.9353	7.69231
64.7933	7.76068
