Adsorption isotherm of Hydrogen on Cu3(TATB)2(H2O)3
DOI: 10.1021/Ja058777l
Adsorbate Hydrogen: InChIKey UFHFLCQGNIYNRP-UHFFFAOYSA-N
Temperature: 77 K
Tabular data in the source: 0
pressure (bar)	uptake (wt%)
0.0020817	0.032634
0.0189474	0.0932401
0.0400555	0.144522
0.0442534	0.177156
0.0695643	0.25641
0.0885462	0.317016
0.107528	0.377622
0.130743	0.438228
0.172949	0.550117
0.196163	0.610723
0.217266	0.666667
0.261613	0.755245
0.305956	0.848485
0.350308	0.932401
0.39466	1.01632
0.439017	1.09557
0.487616	1.1655
0.523513	1.24009
0.662982	1.43124
0.707354	1.4965
0.768626	1.58974
0.85953	1.67832
0.946192	1.77622
1.00115	1.83217
1.03283	1.89277
1.10685	1.93939
