Adsorption isotherm of Nitrogen on Cu3(TATB)2(H2O)3
DOI: 10.1021/Ja058777l
Adsorbate Nitrogen: InChIKey IJGRMHOSHXDMSA-UHFFFAOYSA-N
Temperature: 77 K
Tabular data in the source: 0
pressure (bar)	uptake (cm3(STP)/g)
0.00339809	181.193
0.00550637	52.7523
0.00814599	639.908
0.01028	497.706
0.0105714	341.743
0.0228653	761.468
0.037709	816.514
0.0637924	855.505
0.101133	869.266
0.140354	876.147
0.190786	883.028
0.256151	896.789
0.321525	905.963
0.394376	912.844
0.422392	917.431
0.465367	915.138
0.489642	922.018
0.506466	917.431
0.530754	917.431
0.560642	919.725
0.609214	922.018
0.633493	926.606
0.674588	931.193
0.706345	933.486
0.741847	931.193
0.790418	933.486
0.835249	938.073
0.891307	933.486
0.943607	940.367
0.960409	947.248
