Adsorption isotherm of Carbon Dioxide on IRMOF-1
DOI: 10.1016/j.memsci.2012.10.058
Adsorbate Carbon Dioxide: InChIKey CURLTUGMZLYLDI-UHFFFAOYSA-N
Temperature: 298 K
Tabular data in the source: 0
pressure (bar)	uptake (mmol/cm3)
2.41828	1.00878
10.4586	4.8192
20.0721	8.03534
30.3847	9.25887
60.2737	10.2726
