Adsorption isotherm of Methane on CuBTC
DOI: 10.1016/j.memsci.2012.10.058
Adsorbate Methane: InChIKey VNWKTOKETHGBQD-UHFFFAOYSA-N
Temperature: 298 K
Tabular data in the source: 0
pressure (bar)	uptake (mmol/cm3)
0.146007	0.0649162
2.41828	0.204748
5.3897	0.239706
9.93424	0.239706
19.8973	0.239706
30.0351	0.134832
59.7494	0.134832
