Adsorption isotherm of Methane on IRMOF-1
DOI: 10.1016/j.memsci.2012.10.058
Adsorbate Methane: InChIKey VNWKTOKETHGBQD-UHFFFAOYSA-N
Temperature: 298 K
Tabular data in the source: 0
pressure (bar)	uptake (mmol/cm3)
0.495587	0.0649162
2.0687	0.799034
4.86533	2.12744
9.75945	3.91029
19.8973	4.95903
29.5107	5.02895
59.7494	4.85416
