Adsorption isotherm of Carbon Dioxide on CuBTC
DOI: 10.1016/j.memsci.2012.10.058
Adsorbate Carbon Dioxide: InChIKey CURLTUGMZLYLDI-UHFFFAOYSA-N
Temperature: 298 K
Tabular data in the source: 0
pressure (bar)	uptake (mmol/cm3)
0.320797	0.414496
1.01996	1.42828
1.54433	2.09248
1.89391	2.54693
5.21491	5.97282
10.4586	9.85315
19.8973	12.44
30.2099	13.3839
60.2737	14.3627
