Adsorption isotherm of Nitrogen on IRMOF-1
DOI: 10.1016/j.memsci.2012.10.058
Adsorbate Nitrogen: InChIKey IJGRMHOSHXDMSA-UHFFFAOYSA-N
Temperature: 298 K
Tabular data in the source: 0
pressure (bar)	uptake (mmol/cm3)
0.146007	0.0299582
1.36954	0.16979
4.51576	0.34458
9.93424	0.589286
19.5477	0.624244
29.6855	0.309622
59.9242	0.449454
