Adsorption isotherm of Carbon Dioxide on CuBTC
DOI: 10.1016/j.memsci.2012.10.058
Adsorbate Carbon Dioxide: InChIKey CURLTUGMZLYLDI-UHFFFAOYSA-N
Temperature: 298 K
Tabular data in the source: 0
pressure (bar)	uptake (mmol/cm3)
0.320797	0.554328
1.19475	1.63803
1.89391	2.61685
4.86533	5.76307
9.75945	9.60845
19.8973	12.475
29.8603	13.3489
60.0989	14.3278
