Adsorption isotherm of Carbon Dioxide on IRMOF-1
DOI: 10.1016/j.memsci.2012.10.058
Adsorbate Carbon Dioxide: InChIKey CURLTUGMZLYLDI-UHFFFAOYSA-N
Temperature: 298 K
Tabular data in the source: 0
pressure (bar)	uptake (mmol/cm3)
1.36954	0.659202
5.04012	1.67298
9.93424	4.01517
19.7225	9.50357
29.8603	11.9506
60.2737	14.0831
