Adsorption isotherm of Nitrogen on CuBTC
DOI: 10.1016/j.memsci.2012.10.058
Adsorbate Nitrogen: InChIKey IJGRMHOSHXDMSA-UHFFFAOYSA-N
Temperature: 298 K
Tabular data in the source: 0
pressure (bar)	uptake (mmol/cm3)
0.320797	0.0649162
1.89391	0.309622
5.21491	0.449454
10.109	0.414496
19.8973	0.274664
29.5107	0.16979
59.7494	0.0998742
