Adsorption isotherm of Nitrogen on CuBTC/VACNT
DOI: 10.1039/C3ra44250k
Adsorbate Nitrogen: InChIKey IJGRMHOSHXDMSA-UHFFFAOYSA-N
Temperature: 298 K
Tabular data in the source: 0
pressure (bar)	uptake (mmol/g)
0.0022084	0.020744
0.0032381	0.0264646
0.00598398	0.0436263
0.0081578	0.0550674
0.0110753	0.0779497
0.0131919	0.0893909
0.0161094	0.100832
0.0191413	0.129435
0.022116	0.152317
0.0250907	0.163758
0.0281226	0.18092
0.0310401	0.192361
0.0340148	0.220964
0.0360742	0.232405
0.0371039	0.232405
