Adsorption isotherm of Nitrogen on CuBTC
DOI: 10.1039/C3ra44250k
Adsorbate Nitrogen: InChIKey IJGRMHOSHXDMSA-UHFFFAOYSA-N
Temperature: 308 K
Tabular data in the source: 0
pressure (bar)	uptake (mmol/g)
0.00140752	0.00358227
0.00312369	0.00930284
0.00701368	0.0150234
0.00895868	0.020744
0.012105	0.0150234
0.0149653	0.00930284
0.0181688	0.0150234
0.0208003	0.0264646
0.0250335	0.020744
0.0290379	0.020744
0.0324702	0.00930284
0.0339576	0.020744
0.0350445	0.0150234
0.0365318	0.0150234
