Adsorption isotherm of Carbon Dioxide on CuBTC
DOI: 10.1039/C3ra44250k
Adsorbate Carbon Dioxide: InChIKey CURLTUGMZLYLDI-UHFFFAOYSA-N
Temperature: 298 K
Tabular data in the source: 0
pressure (bar)	uptake (mmol/g)
0.000778	0.129435
0.00306649	0.352537
0.0051831	0.552757
0.00712809	0.718654
0.00895868	0.890271
0.0111325	1.05045
0.0128487	1.18774
0.0150797	1.35364
0.0170247	1.49093
0.0189125	1.60534
0.0208003	1.73692
0.0229741	1.84561
0.0250907	1.96574
0.0268069	2.06299
0.0290379	2.1774
0.0308685	2.25749
0.0330423	2.3719
0.0350445	2.46343
0.0370467	2.54924
