Adsorption isotherm of Carbon Dioxide on CuBTC
DOI: 10.1039/C3ra44250k
Adsorbate Carbon Dioxide: InChIKey CURLTUGMZLYLDI-UHFFFAOYSA-N
Temperature: 308 K
Tabular data in the source: 0
pressure (bar)	uptake (mmol/g)
0.00112149	0.0779497
0.00312369	0.215243
0.00506869	0.358258
0.00707089	0.472669
0.00907309	0.587081
0.0119906	0.730095
0.0150225	0.873109
0.0171391	0.964638
0.0190269	1.05045
0.0210291	1.14198
0.0232029	1.23923
0.0260632	1.35364
0.0290951	1.46233
0.032127	1.57674
0.0350445	1.67971
0.0370467	1.75408
