Adsorption isotherm of Carbon Dioxide on CuBTC
DOI: 10.1039/C3ra44250k
Adsorbate Carbon Dioxide: InChIKey CURLTUGMZLYLDI-UHFFFAOYSA-N
Temperature: 273 K
Tabular data in the source: 0
pressure (bar)	uptake (mmol/g)
0.0011787	0.449787
0.00209399	0.701492
0.00295208	0.936036
0.00409619	1.15914
0.00604118	1.47377
0.00792897	1.74836
0.00998838	1.97718
0.0129631	2.25177
0.0159378	2.49775
0.0190841	2.71513
0.0220016	2.86959
0.0248047	3.02976
0.0277794	3.16706
0.0308685	3.29291
0.0337288	3.4016
0.036017	3.48169
0.0370467	3.50457
