Adsorption isotherm of Nitrogen on CuBTC
DOI: 10.1039/C3ra44250k
Adsorbate Nitrogen: InChIKey IJGRMHOSHXDMSA-UHFFFAOYSA-N
Temperature: 273 K
Tabular data in the source: 0
pressure (bar)	uptake (mmol/g)
0.0012359	0.0264646
0.00312369	0.0493468
0.00506869	0.0722291
0.00798618	0.100832
0.0110753	0.129435
0.0131919	0.152317
0.0151941	0.175199
0.0181688	0.209523
0.0210291	0.243846
0.0241182	0.272449
0.0270929	0.301052
0.0301248	0.329655
0.0329851	0.358258
0.0351589	0.38114
0.0369323	0.392581
