Adsorption isotherm of Nitrogen on 3DFD-printed ZSM-5 monolith 400 micro meter
DOI: 10.1016/j.cej.2016.09.046
Article source: Figure S4
Adsorbate Nitrogen: InChIKey IJGRMHOSHXDMSA-UHFFFAOYSA-N
Kind: experiment
Temperature: 303 K
Tabular data in the source: 0
pressure (bar)	uptake (mmol/g)
0.165	0.0209
0.392	0.0788
0.888	0.158
1.4	0.224
1.9	0.278
2.89	0.372
4.89	0.507
7.39	0.622
9.89	0.7
12.4	0.758
14.9	0.8
19.9	0.857
24.8	0.881
29.8	0.896
