Adsorption isotherm of Carbon Dioxide on 3DFD-printed ZSM-5 monolith 400 micro meter
DOI: 10.1016/j.cej.2016.09.046
Article source: Figure S2
Adsorbate Carbon Dioxide: InChIKey CURLTUGMZLYLDI-UHFFFAOYSA-N
Kind: experiment
Temperature: 303 K
Tabular data in the source: 0
pressure (bar)	uptake (mmol/g)
0.133	0.829
0.388	1.18
0.895	1.39
1.39	1.5
1.9	1.58
2.9	1.68
4.9	1.79
7.4	1.88
9.91	1.93
12.4	1.98
14.9	2.01
19.9	2.06
24.8	2.1
