Adsorption isotherm of Carbon Dioxide, Nitrogen on 3DFD-printed ZSM-5 monolith 900 micro meter
DOI: 10.1016/j.cej.2016.09.046
Article source: Figure 7
Adsorbate Carbon Dioxide: InChIKey CURLTUGMZLYLDI-UHFFFAOYSA-N
Adsorbate Nitrogen: InChIKey IJGRMHOSHXDMSA-UHFFFAOYSA-N
Kind: experiment
Temperature: 303 K
Tabular data in the source: 0
pressure (bar)	Carbon Dioxide fraction	Carbon Dioxide uptake (mmol/g)	Nitrogen fraction	Nitrogen uptake (mmol/g)	total uptake (mmol/g)
2.3	0	0	1	0.135	
2.3	0.1	0.425	0.9	0	
2.3	0.25	0.666	0.75	0	
2.3	0.5	0.976	0.5	0.00615	
2.3	0.75	1.01	0.25	0.0197	
2.3	1	1.08	0	0	
