Adsorption isotherm of Carbon Dioxide, Methane on 3DFD-printed ZSM-5 monolith 900 micro meter
DOI: 10.1016/j.cej.2016.09.046
Article source: Figure 7
Adsorbate Carbon Dioxide: InChIKey CURLTUGMZLYLDI-UHFFFAOYSA-N
Adsorbate Methane: InChIKey VNWKTOKETHGBQD-UHFFFAOYSA-N
Kind: experiment
Temperature: 303 K
Tabular data in the source: 0
pressure (bar)	Carbon Dioxide fraction	Carbon Dioxide uptake (mmol/g)	Methane fraction	Methane uptake (mmol/g)	total uptake (mmol/g)
2.3	0	0.00123	1	0.301	
2.3	0.1	0.384	0.9	0.0959	
2.3	0.25	0.612	0.75	0.0406	
2.3	0.5	0.918	0.5	0.0713	
2.3	0.75	0.987	0.25	0.0725	
2.3	1	1.08	0	0.00369	
