Adsorption isotherm of M-Xylene on MAF-X8
DOI: 10.1002/anie.201402894
Adsorbate M-Xylene: InChIKey IVSZLXZYQVIEFR-UHFFFAOYSA-N
Temperature: 433 K
Tabular data in the source: 0
pressure (bar)	uptake (mmol/g)
1.55654e-12	0.0333333
1.01281e-11	0.108333
1.21426e-10	0.241667
6.77673e-10	0.3
3.5026e-09	0.35
1.23336e-08	0.358333
3.72495e-08	0.35
2.8178e-07	0.433333
1.69804e-06	0.5
1.39496e-05	0.608333
7.76279e-05	0.658333
0.000588911	0.75
0.0032867	0.808333
0.0197488	0.866667
0.149824	0.958333
0.905441	1.03333
2.72678	1.01667
10.3679	1.03333
42.5657	1.05833
138.414	1.05
307.525	1.00833
2727.91	1.125
4445.8	1.04167
13427.3	1.03333
