Adsorption isotherm of O-Xylene on MAF-X8
DOI: 10.1002/anie.201402894
Adsorbate O-Xylene: InChIKey CTQNGGLPUBDAKN-UHFFFAOYSA-N
Temperature: 433 K
Tabular data in the source: 0
pressure (bar)	uptake (mmol/g)
1.60059e-11	0.15
1.53748e-10	0.283333
1.4642e-09	0.391667
5.53529e-09	0.391667
4.21134e-08	0.491667
9.35664e-08	0.45
8.55933e-07	0.441667
3.50399e-06	0.458333
9.77277e-06	0.433333
2.1713e-05	0.391667
5.62457e-05	0.366667
6.26312e-05	0.25
9.48041e-05	0.166667
0.000333834	0.175
0.000739571	0.125
0.0024188	0.133333
0.0062477	0.1
0.023687	0.108333
0.0717447	0.108333
0.216686	0.1
0.887054	0.116667
2.67141	0.1
