Adsorption isotherm of P-Xylene on MAF-X8
DOI: 10.1002/anie.201402894
Adsorbate P-Xylene: InChIKey URLKBWYHVLBVBO-UHFFFAOYSA-N
Temperature: 433 K
Tabular data in the source: 0
pressure (bar)	uptake (mmol/g)
4.42028e-13	0.025
1.96517e-12	0.0666667
3.2028e-11	0.233333
1.53306e-09	0.525
9.21192e-08	0.833333
4.76124e-07	0.883333
1.43798e-06	0.875
1.17794e-05	0.975
2.82591e-05	0.941667
0.000214383	1.03333
0.00110489	1.075
0.00980099	1.19167
0.0588911	1.25
0.706057	1.38333
46.0744	1.71667
1498.24	1.95833
3082.83	1.90833
50387.2	2.08333
140929	2.06667
394185	2.05
2037510	2.1
7725030	2.10833
13633300	2.04167
55975800	2.06667
312392000	2.125
