Adsorption isotherm of Methane on Zeolite DD3R
DOI: 10.1016/j.micromeso.2006.05.018
Adsorbate Methane: InChIKey VNWKTOKETHGBQD-UHFFFAOYSA-N
Temperature: 298 K
Tabular data in the source: 0
pressure (bar)	uptake (mmol/g)
0.548838	0.174678
0.844613	0.332425
1.56292	0.487354
1.98546	0.569045
3.0418	0.740876
3.92912	0.847918
4.81644	0.935242
7.22489	1.09862
12.1263	1.25919
14.408	1.31552
19.3094	1.40848
23.9573	1.46764
28.901	1.53524
33.8869	1.52961
