Adsorption isotherm of Nitrogen on Zeolite DD3R
DOI: 10.1016/j.micromeso.2006.05.018
Adsorbate Nitrogen: InChIKey IJGRMHOSHXDMSA-UHFFFAOYSA-N
Temperature: 77 K
Tabular data in the source: 0
pressure (bar)	uptake (cm3(STP)/g)
0.00372489	48.4284
0.0266072	84.182
0.0437689	87.3283
0.0780923	90.6176
0.0966842	91.9047
0.135298	93.0489
0.176772	93.7639
0.269731	94.765
0.371272	95.1941
0.442779	95.6231
0.535738	96.0522
0.640139	96.3382
0.695914	96.6242
0.781723	95.9091
0.843219	97.6253
0.893274	98.7694
0.939038	99.1985
0.977652	99.3415
