Adsorption isotherm of Carbon Dioxide on Zeolite DD3R
DOI: 10.1016/j.micromeso.2006.05.018
Adsorbate Carbon Dioxide: InChIKey CURLTUGMZLYLDI-UHFFFAOYSA-N
Temperature: 273 K
Tabular data in the source: 0
pressure (bar)	uptake (mmol/g)
0.0417962	0.172589
0.126303	0.468363
0.168557	0.843011
0.253064	1.2078
0.506585	1.63174
0.760106	1.89794
1.05588	2.11977
2.66151	2.44019
4.47842	2.58808
9.63335	2.77048
11.915	2.81977
14.5348	2.83949
19.5207	2.84935
23.8305	2.86907
