Adsorption isotherm of Methane on Zeolite DD3R
DOI: 10.1016/j.micromeso.2006.05.018
Adsorbate Methane: InChIKey VNWKTOKETHGBQD-UHFFFAOYSA-N
Temperature: 323 K
Tabular data in the source: 0
pressure (bar)	uptake (mmol/g)
0.253064	0.126791
1.09813	0.27327
2.06997	0.43665
3.0418	0.546509
4.77419	0.707073
7.18264	0.850735
9.6756	0.966228
12.0418	1.05355
14.7883	1.12116
19.2671	1.20003
24.084	1.2789
29.1122	1.34369
