Adsorption isotherm of Methane on Zeolite DD3R
DOI: 10.1016/j.micromeso.2006.05.018
Adsorbate Methane: InChIKey VNWKTOKETHGBQD-UHFFFAOYSA-N
Temperature: 348 K
Tabular data in the source: 0
pressure (bar)	uptake (mmol/g)
0.0840497	3.05e-05
0.464331	0.0901713
1.09813	0.197214
2.11222	0.321157
3.1263	0.43665
7.3094	0.704256
9.88687	0.808481
12.4221	0.895805
15.2108	0.977495
19.5207	1.09862
24.5488	1.18876
29.3657	1.25637
