Adsorption isotherm of Carbon Dioxide on Zeolite DD3R
DOI: 10.1016/j.micromeso.2006.05.018
Adsorbate Carbon Dioxide: InChIKey CURLTUGMZLYLDI-UHFFFAOYSA-N
Temperature: 348 K
Tabular data in the source: 0
pressure (bar)	uptake (mmol/g)
0.0417962	0.00498294
0.337571	0.236673
0.760106	0.463434
1.77419	0.754279
2.40799	0.956391
4.35166	1.21766
6.63335	1.40991
11.577	1.79442
14.3235	1.93738
18.7179	2.1247
23.7038	2.26273
28.7319	2.31695
33.5066	2.34653
