Adsorption isotherm of Carbon Dioxide on Zeolite DD3R
DOI: 10.1016/j.micromeso.2006.05.018
Adsorbate Carbon Dioxide: InChIKey CURLTUGMZLYLDI-UHFFFAOYSA-N
Temperature: 298 K
Tabular data in the source: 0
pressure (bar)	uptake (mmol/g)
0.0417962	0.00991251
0.295317	0.586673
0.633345	1.01555
1.22489	1.52822
2.23898	1.8585
3.80236	2.07048
4.64743	2.16907
6.84461	2.31695
11.7883	2.48949
14.3657	2.56343
18.9714	2.66695
23.8305	2.71132
28.8164	2.75076
33.9291	2.76555
