Adsorption isotherm of Methane on Zeolite DD3R
DOI: 10.1016/j.micromeso.2006.05.018
Adsorbate Methane: InChIKey VNWKTOKETHGBQD-UHFFFAOYSA-N
Temperature: 273 K
Tabular data in the source: 0
pressure (bar)	uptake (mmol/g)
0.0417962	0.121157
0.126303	0.23665
0.464331	0.374678
0.80236	0.515523
1.47842	0.814115
2.4925	1.0113
3.76011	1.17468
4.77419	1.25073
7.22489	1.35496
9.50659	1.4282
11.8728	1.46764
14.6193	1.52397
19.1404	1.58595
24.0418	1.64228
29.1545	1.70144
