Adsorption isotherm of Carbon Dioxide on Zeolite DD3R
DOI: 10.1016/j.micromeso.2006.05.018
Adsorbate Carbon Dioxide: InChIKey CURLTUGMZLYLDI-UHFFFAOYSA-N
Temperature: 323 K
Tabular data in the source: 0
pressure (bar)	uptake (mmol/g)
0.0417962	0.0937153
0.295317	0.428927
0.675599	0.675405
1.3094	1.12893
2.74602	1.49372
4.47842	1.75498
7.05588	1.96695
12.0418	2.25287
14.3657	2.32188
19.0136	2.43526
23.915	2.52893
28.9855	2.62259
