Adsorption isotherm of Nitrogen on [Cu3(ipO)2(pyz)2]n
DOI: 10.1039/C0dt01531h
Adsorbate Nitrogen: InChIKey IJGRMHOSHXDMSA-UHFFFAOYSA-N
Temperature: 77 K
Tabular data in the source: 0
pressure (bar)	uptake (cm3(STP)/g)
0.0360607	0.485969
0.0561017	0.97453
0.0861605	1.6254
0.1142	1.7848
0.162287	2.59669
0.214367	3.08007
0.256441	3.729
0.312531	4.37566
0.364612	4.85904
0.41469	5.34274
0.460795	6.81069
0.51693	8.76882
0.573021	9.41549
0.617091	9.90016
0.669177	10.5475
0.71925	10.8672
0.769333	11.5149
0.819416	12.1625
0.865489	12.6469
0.885519	12.8076
0.919583	13.4578
