Adsorption isotherm of Hydrogen on [Cu3(ipO)2(pyz)2]n
DOI: 10.1039/C0dt01531h
Adsorbate Hydrogen: InChIKey UFHFLCQGNIYNRP-UHFFFAOYSA-N
Temperature: 77 K
Tabular data in the source: 0
pressure (bar)	uptake (cm3(STP)/g)
0.00202982	0.819344
0.0261195	2.61872
0.0562385	5.07287
0.0783202	6.70864
0.11245	9.32607
0.130515	10.6346
0.160634	13.0888
0.182711	14.5606
0.204803	16.5242
0.238933	19.1417
0.263033	21.2689
0.28111	22.9053
0.307219	25.1962
0.329301	26.832
0.34938	28.4681
0.363435	29.6133
0.385512	31.0852
0.409618	33.3764
0.433697	34.8479
0.461802	36.9745
0.483884	38.6102
0.511979	40.409
0.558128	43.1884
0.58822	44.8229
0.612293	46.1304
0.62834	46.9475
0.654421	48.4187
0.692523	50.0519
0.714594	51.3598
0.732643	52.1765
0.77075	53.9737
0.816883	56.2613
0.850925	56.2558
0.903	56.5752
