Adsorption isotherm of Water on [Ni(dipn)]2[Ni(dipn)(H2O)][Fe(CN)6]2.2H2O
DOI: 10.1021/Ja069166b
Adsorbate Water: InChIKey XLYOFNOQVPJJNP-UHFFFAOYSA-N
Temperature: 298 K
Tabular data in the source: 0
pressure (bar)	uptake (ml/g)
0.000231672	6.60547
0.000616707	18.9881
0.000847728	26.4178
0.001082	29.7267
0.00131368	36.3321
0.00162496	42.1176
0.00209416	47.9112
0.00240674	52.0484
0.00279633	58.6621
0.00326553	64.4557
0.0038933	69.4334
0.0043625	75.2271
0.00506923	80.2089
0.00608855	89.3279
0.00726708	96.8069
0.00844496	105.11
0.0097018	113.417
0.0132433	128.437
0.0148166	135.936
0.0159951	143.415
0.0170934	152.538
0.0185871	160.858
0.019765	169.161
0.0209429	177.464
0.0225919	189.088
0.0244785	199.901
0.02589	212.337
0.0273008	225.597
0.0284755	238.021
0.0295705	251.265
0.030428	265.32
