Adsorption isotherm of Nitrogen on [{[Ni(cyclam)]2(mtb)}n]*3nEtOH
DOI: 10.1002/chem.200701813
Adsorbate Nitrogen: InChIKey IJGRMHOSHXDMSA-UHFFFAOYSA-N
Temperature: 77 K
Tabular data in the source: 0
pressure (bar)	uptake (cm3(STP)/g)
0.0586318	2.1349
0.154766	2.52818
0.25964	2.52818
0.360144	3.51137
0.456279	3.90465
0.558968	4.49457
0.650733	4.6912
0.766531	5.47776
0.860481	6.46095
0.947875	13.3433
