Adsorption isotherm of Methane on [{[Ni(cyclam)]2(mtb)}n]*3nEtOH
DOI: 10.1002/chem.200701813
Adsorbate Methane: InChIKey VNWKTOKETHGBQD-UHFFFAOYSA-N
Temperature: 195 K
Tabular data in the source: 0
pressure (bar)	uptake (cm3(STP)/g)
0.0258587	0.561792
0.106699	0.95507
0.154766	0.758431
0.25527	1.15171
0.35796	1.15171
0.462833	1.93826
0.60485	2.1349
0.759976	2.52818
0.860481	3.31473
0.956615	3.90465
