Adsorption isotherm of Hydrogen on [{[Ni(cyclam)]2(mtb)}n]*3nEtOH
DOI: 10.1002/chem.200701813
Adsorbate Hydrogen: InChIKey UFHFLCQGNIYNRP-UHFFFAOYSA-N
Temperature: 77 K
Tabular data in the source: 0
pressure (bar)	uptake (cm3(STP)/g)
0.0280436	6.85423
0.0389679	15.5063
0.0630016	23.5685
0.0979595	28.6811
0.161321	35.1702
0.244346	41.8559
0.390733	50.508
0.445354	51.8845
0.495607	57.3904
0.705355	65.0593
0.733758	71.5483
0.941321	77.6441
