Adsorption isotherm of Carbon Dioxide on [{[Ni(cyclam)]2(mtb)}n]*3nEtOH
DOI: 10.1002/chem.200701813
Adsorbate Carbon Dioxide: InChIKey CURLTUGMZLYLDI-UHFFFAOYSA-N
Temperature: 195 K
Tabular data in the source: 0
pressure (bar)	uptake (cm3(STP)/g)
0.00182509	10.1971
0.00837971	20.8156
0.0193041	24.1584
0.0433377	27.6979
0.0935898	33.4004
0.141657	35.9567
0.235607	40.6761
0.395102	45.0021
0.652918	50.7047
0.947875	56.4072
