Adsorption isotherm of Oxygen on [{[Ni(cyclam)]2(mtb)}n]*3nEtOH
DOI: 10.1002/chem.200701813
Adsorbate Oxygen: InChIKey MYMOFIZGZYHOMD-UHFFFAOYSA-N
Temperature: 77 K
Tabular data in the source: 0
pressure (bar)	uptake (cm3(STP)/g)
0.00619484	0.758431
0.00837971	6.06767
0.00837971	10.1971
0.0433377	12.1635
0.0695562	13.9332
0.100144	15.5063
0.156951	18.8492
