Adsorption isotherm of Hydrogen on [{[Ni(cyclam)]2(mtb)}n]*3nEtOH
DOI: 10.1002/chem.200701813
Adsorbate Hydrogen: InChIKey UFHFLCQGNIYNRP-UHFFFAOYSA-N
Temperature: 77 K
Tabular data in the source: 0
pressure (bar)	uptake (wt%)
0.309742	0.0699155
0.637473	0.586857
5.11646	0.81321
9.59546	0.932504
14.8392	1.01815
19.5366	1.0885
30.024	1.17721
40.1837	1.23227
44.7719	1.23839
49.9064	1.2445
