Adsorption isotherm of Nitrogen on Liao POR-COF
DOI: 10.1039/c6ce00168h
Article source: Figure 2b
Adsorbate Nitrogen: InChIKey IJGRMHOSHXDMSA-UHFFFAOYSA-N
Kind: experiment
Temperature: 77 K
Tabular data in the source: 0
pressure (bar)	uptake ()
0.050662	122.353
0.101325	129.842
0.151987	134.572
0.20265	138.907
0.253312	142.06
0.303975	144.819
0.354637	146.79
0.4053	148.367
0.455962	149.943
0.506625	151.52
0.557288	153.885
0.60795	155.461
0.658613	157.038
0.709275	159.009
0.759937	160.979
0.8106	164.133
0.861262	167.286
0.911925	171.621
0.962587	178.322
0.995235	195.444
0.330609	145.794
0.376865	149.299
0.289222	144.626
0.274615	143.458
0.233228	141.121
0.225924	140.537
0.182103	137.617
0.16993	136.449
0.128543	132.944
0.121239	131.776
0.087156	128.855
0.072549	126.519
0.038466	119.509
0.026293	117.173
0.018989	113.084
0.01412	110.164
0.009251	106.075
0.006817	101.986
0.001948	97.8972
0.00633	92.6402
0.001461	87.9673
0.001461	83.2944
0.000974	79.2056
0.001461	74.5327
0.001461	68.6916
0.001461	65.1869
0.000974	61.0981
0.001461	55.8411
0.000974	51.1682
0.001461	45.3271
0.001461	40.6542
0.001461	35.9813
0.001461	31.3084
0.001461	24.8832
0.000974	20.2103
0.001461	15.5374
0.001461	10.8645
0.001461	5.02336
0.050638	140.537
0.06768	142.29
0.077418	144.042
0.089591	146.379
0.101763	146.963
0.113936	148.715
0.123674	149.883
0.206448	155.724
0.29896	159.229
0.40121	162.15
0.508329	163.902
0.603276	165.654
0.712829	169.743
0.807776	172.664
0.91733	177.921
0.958717	185.514
