Adsorption isotherm of Hydrogen on CA2
DOI: 10.1021/jp048169c
Article source: Figure 3
Adsorbate Hydrogen: InChIKey UFHFLCQGNIYNRP-UHFFFAOYSA-N
Kind: experiment
Temperature: 293 K
Tabular data in the source: 0
pressure (bar)	uptake (wt%)
0.371287	8e-06
10.0248	0.127421
20.0495	0.242121
50.1238	0.478094
80.198	0.691806
100.248	0.800359
