Adsorption isotherm of Hydrogen on purified SWNT
DOI: 10.1021/jp048169c
Article source: Figure 3
Adsorbate Hydrogen: InChIKey UFHFLCQGNIYNRP-UHFFFAOYSA-N
Kind: experiment
Temperature: 293 K
Tabular data in the source: 0
pressure (bar)	uptake (wt%)
0	0
4.08416	0.019168
18.9356	0.079907
46.7822	0.204525
70.5446	0.300436
86.1386	0.36437
92.0792	0.396298
