Adsorption isotherm of Hydrogen on CA1
DOI: 10.1021/jp048169c
Article source: Figure 3
Adsorbate Hydrogen: InChIKey UFHFLCQGNIYNRP-UHFFFAOYSA-N
Kind: experiment
Temperature: 293 K
Tabular data in the source: 0
pressure (bar)	uptake (wt%)
0.371287	8e-06
2.9703	0.019144
8.16832	0.057417
10.7673	0.070193
25.2475	0.169087
43.4406	0.277599
54.2079	0.341432
