Adsorption isotherm of Hydrogen on raw SWNT
DOI: 10.1021/jp048169c
Article source: Figure 3
Adsorbate Hydrogen: InChIKey UFHFLCQGNIYNRP-UHFFFAOYSA-N
Kind: experiment
Temperature: 293 K
Tabular data in the source: 0
pressure (bar)	uptake (wt%)
0	0
6.68317	0.025583
27.8465	0.105537
64.2327	0.27804
