Adsorption isotherm of Nitrogen on Ni-ISO-4
DOI: 10.1134/S1023193512080113
Adsorbate Nitrogen: InChIKey IJGRMHOSHXDMSA-UHFFFAOYSA-N
Temperature: 77 K
Tabular data in the source: 0
pressure (bar)	uptake (cm3(STP)/g)
0.0149343	-3.18372
0.0761108	2.84654
0.148212	4.68183
0.205018	5.73057
0.303338	7.04149
0.403842	7.82805
0.506531	8.6146
0.607035	9.13897
0.707539	10.9743
0.812413	13.8583
0.860481	16.7423
0.908548	23.0348
0.932581	28.2785
0.960985	38.2415
0.980649	58.4297
0.991573	75.9961
1.00468	99.0684
1.00687	118.208
