Adsorption isotherm of Ethane on Zeolite Na-MFI
DOI: 10.1016/S0167-2991(05)80453-7
Adsorbate Ethane: InChIKey OTMSDBZUPAUEDD-UHFFFAOYSA-N
Temperature: 295 K
Tabular data in the source: 0
pressure (bar)	uptake (molecules/unitcell)
2.85e-08	0.113717
2.27e-07	0.0965554
1.96e-06	0.268173
1.32e-05	1.93286
2.69e-05	3.59755
6.65e-05	6.39491
9.24e-05	7.45893
0.000122	8.40283
0.000147	8.952
0.000283	10.3249
0.000521	11.2517
0.000761	11.6636
0.00103986	11.9725
