Adsorption isotherm of Methane on Zeolite Na-MFI
DOI: 10.1016/S0167-2991(05)80453-7
Adsorbate Methane: InChIKey VNWKTOKETHGBQD-UHFFFAOYSA-N
Temperature: 300 K
Tabular data in the source: 0
pressure (bar)	uptake (molecules/unitcell)
0.00413804	0.00201505
0.0391608	0.00427609
0.40583	0.0117621
3.84061	0.0307174
37.1805	0.0889932
394.156	0.235446
