Adsorption isotherm of Ethane on Zeolite Na-MOF
DOI: 10.1016/S0167-2991(05)80453-7
Adsorbate Ethane: InChIKey OTMSDBZUPAUEDD-UHFFFAOYSA-N
Temperature: 296 K
Tabular data in the source: 0
pressure (bar)	uptake (molecules/unitcell)
4.59e-07	0.000122
5.06e-06	0.05646
1e-05	0.146601
5.06e-05	0.518432
0.000103	0.969136
0.00054	2.83956
0.001	3.87618
0.00474137	6.24238
0.0106664	6.9635
0.0522586	7.66209
0.113811	7.88745
