Adsorption isotherm of Ethane on Zeolite Na-MFI
DOI: 10.1016/S0167-2991(05)80453-7
Adsorbate Ethane: InChIKey OTMSDBZUPAUEDD-UHFFFAOYSA-N
Temperature: 297 K
Tabular data in the source: 0
pressure (bar)	uptake (molecules/unitcell)
2.51e-06	0.422628
6.31e-06	1.00613
2.1e-05	2.3619
2.64e-05	2.92824
3.12e-05	3.40877
4.19e-05	3.99226
5.03e-05	4.5586
