Adsorption isotherm of Ethane on Zeolite Na-MFI
DOI: 10.1016/S0167-2991(05)80453-7
Adsorbate Ethane: InChIKey OTMSDBZUPAUEDD-UHFFFAOYSA-N
Temperature: 297 K
Tabular data in the source: 0
pressure (bar)	uptake (molecules/unitcell)
2.99e-08	0.130879
2.38e-07	0.130879
1.9e-06	0.319658
5.1e-06	0.611407
8.49e-06	0.971803
1.51e-05	1.84705
2.14e-05	2.51636
3.5e-05	4.04375
4.71e-05	5.03913
6.43e-05	6.18896
8.94e-05	7.27015
0.000122	8.24837
0.000283	10.1362
0.000538	11.1659
0.00102288	11.8695
