Adsorption isotherm of Ethane on Zeolite Na-MFI
DOI: 10.1016/S0167-2991(05)80453-7
Adsorbate Ethane: InChIKey OTMSDBZUPAUEDD-UHFFFAOYSA-N
Temperature: 295 K
Tabular data in the source: 0
pressure (bar)	uptake (molecules/unitcell)
1.93e-06	0.353981
4.25e-06	0.697215
7.32e-06	1.05761
2.1e-05	2.56784
4.19e-05	4.07807
5.19e-05	4.67873
6.54e-05	5.41669
7.97e-05	6.06883
0.000128	7.45893
0.000204	8.7289
0.000357	9.96454
0.000456	10.3593
0.000575	10.754
0.000724	11.0801
