Adsorption isotherm of Ethane on Zeolite Na-MFI
DOI: 10.1016/S0167-2991(05)80453-7
Adsorbate Ethane: InChIKey OTMSDBZUPAUEDD-UHFFFAOYSA-N
Temperature: 300 K
Tabular data in the source: 0
pressure (bar)	uptake (molecules/unitcell)
0.00039	0.00718454
0.00395436	0.0436011
0.0382818	0.0844932
0.387816	0.172457
4.01901	0.356594
38.9076	0.709194
394.156	1.37432
