Adsorption isotherm of Ethane on Zeolite Na-MOF
DOI: 10.1016/S0167-2991(05)80453-7
Adsorbate Ethane: InChIKey OTMSDBZUPAUEDD-UHFFFAOYSA-N
Temperature: 296 K
Tabular data in the source: 0
pressure (bar)	uptake (molecules/unitcell)
9.37e-09	0.05646
1e-07	0.0902628
1.03e-06	0.326883
1.07e-05	1.60012
5.23e-05	2.9297
0.000103	3.77477
0.000148	3.92125
0.000321	4.77759
0.000576	5.37477
0.0011018	5.7128
0.00999649	6.63674
0.096775	7.47054
