Adsorption isotherm of Ethane on Zeolite Na-MOF
DOI: 10.1016/S0167-2991(05)80453-7
Adsorbate Ethane: InChIKey OTMSDBZUPAUEDD-UHFFFAOYSA-N
Temperature: 296 K
Tabular data in the source: 0
pressure (bar)	uptake (molecules/unitcell)
9.37e-07	0.0677276
2.82e-06	0.495897
1.03e-05	1.28463
3.21e-05	3.03111
9.37e-05	4.84519
0.000332	6.1635
0.0011018	6.95223
0.00342814	7.36914
0.011018	7.80857
0.0331875	7.94378
