Adsorption isotherm of Ethane on Zeolite Na-MOF
DOI: 10.1016/S0167-2991(05)80453-7
Adsorbate Ethane: InChIKey OTMSDBZUPAUEDD-UHFFFAOYSA-N
Temperature: 296 K
Tabular data in the source: 0
pressure (bar)	uptake (molecules/unitcell)
0.000198	4.48463
0.000321	5.82547
0.000523	6.69308
0.000797	7.49308
0.00117563	7.79731
0.00173494	8.06773
