Adsorption isotherm of N-propane on Zeolite Na-MOF
DOI: 10.1016/S0167-2991(05)80453-7
Adsorbate N-propane: InChIKey ATUOYWHBWRKTHZ-UHFFFAOYSA-N
Temperature: 300 K
Tabular data in the source: 0
pressure (bar)	uptake (molecules/unitcell)
0.000117	0.0438833
0.000524	0.27067
0.00105985	0.631024
0.00543381	3.2988
0.0104959	5.63313
0.0312075	8.23263
0.0550476	8.72752
0.10633	9.71336
0.323409	10.6022
1.053	11.023
3.20278	11.2396
9.96517	11.7999
55.9475	11.7999
