Adsorption isotherm of N-Butane on Zeolite Na-MOF
DOI: 10.1016/S0167-2991(05)80453-7
Adsorbate N-Butane: InChIKey IJDNQMDRQITEOD-UHFFFAOYSA-N
Temperature: 300 K
Tabular data in the source: 0
pressure (bar)	uptake (molecules/unitcell)
0.000115	0.844902
0.000513	3.81712
0.00105985	5.79997
0.00543381	7.9184
0.0104959	7.99581
0.103943	8.64302
0.497825	9.07386
1.02936	8.98601
10.6675	9.34261
103.271	9.61932
