Adsorption isotherm of Methane on Zeolite Na-MFI
DOI: 10.1016/S0167-2991(05)80453-7
Adsorbate Methane: InChIKey VNWKTOKETHGBQD-UHFFFAOYSA-N
Temperature: 300 K
Tabular data in the source: 0
pressure (bar)	uptake (molecules/unitcell)
0.000536	0.0023697
0.00108419	0.00363588
0.00519262	0.0175839
0.0102603	0.0337454
0.10161	0.345202
0.323409	1.08809
0.715851	2.46374
1.07718	3.42971
3.13089	6.97763
7.0892	9.80833
49.9442	14.6162
103.271	15.7993
494.606	16.749
1119.93	17.5839
