Adsorption isotherm of Ethane on Zeolite Na-MOF
DOI: 10.1016/S0167-2991(05)80453-7
Adsorbate Ethane: InChIKey OTMSDBZUPAUEDD-UHFFFAOYSA-N
Temperature: 296 K
Tabular data in the source: 0
pressure (bar)	uptake (molecules/unitcell)
9.07e-09	0.0113896
9.37e-08	0.0339248
9.37e-07	0.248009
1e-05	1.54378
5.4e-05	3.04238
0.000148	4.21421
0.000311	4.9466
0.000595	5.65646
0.00106664	6.18604
0.011018	7.49308
0.10326	7.90998
