Adsorption isotherm of Methane on Zeolite Na-MOF
DOI: 10.1016/S0167-2991(05)80453-7
Adsorbate Methane: InChIKey VNWKTOKETHGBQD-UHFFFAOYSA-N
Temperature: 296 K
Tabular data in the source: 0
pressure (bar)	uptake (molecules/unitcell)
3.26e-06	0.636427
1.03e-05	1.30001
2.77e-05	1.81487
0.000139	3.39374
0.000252	4.24039
