Adsorption isotherm of N-Butane on Zeolite Na-MFI
DOI: 10.1016/S0167-2991(05)80453-7
Adsorbate N-Butane: InChIKey IJDNQMDRQITEOD-UHFFFAOYSA-N
Temperature: 300 K
Tabular data in the source: 0
pressure (bar)	uptake (molecules/unitcell)
0.000399	1.01979
0.00395436	5.65163
0.0365825	7.81662
0.387816	8.02207
4.01901	7.91868
38.9076	7.32571
394.156	6.35152
