Adsorption isotherm of N-propane on Zeolite Na-MFI
DOI: 10.1016/S0167-2991(05)80453-7
Adsorbate N-propane: InChIKey ATUOYWHBWRKTHZ-UHFFFAOYSA-N
Temperature: 300 K
Tabular data in the source: 0
pressure (bar)	uptake (molecules/unitcell)
0.000408	0.0751826
0.00404516	0.427609
0.0409798	0.727835
0.396721	1.07411
4.01901	1.62678
38.9076	2.30909
403.206	3.19364
