Adsorption isotherm of Ethane on Zeolite Na-MFI
DOI: 10.1016/S0167-2991(05)80453-7
Adsorbate Ethane: InChIKey OTMSDBZUPAUEDD-UHFFFAOYSA-N
Temperature: 300 K
Tabular data in the source: 0
pressure (bar)	uptake (molecules/unitcell)
0.000112	0.00677691
0.000524	0.023774
0.00110908	0.0533097
0.00531184	0.268049
0.0107369	0.702303
0.0993291	5.41812
0.31615	8.89901
0.732288	10.1976
3.13089	11.5725
10.4281	12.1493
51.091	14.0583
