Adsorption isotherm of Nitrogen on [Zn4O(bdc)(bpz)2]*4DMF*6H2O
DOI: 10.1021/Ic702085x
Adsorbate Nitrogen: InChIKey IJGRMHOSHXDMSA-UHFFFAOYSA-N
Temperature: 77 K
Tabular data in the source: 0
pressure (bar)	uptake (cm3(STP)/g)
0.00182509	0.936194
0.00182509	172.449
0.00619484	375.642
0.0280436	404.045
0.102329	423.709
0.207203	433.541
0.325186	436.819
0.475943	441.188
0.626699	442.281
0.998128	455.39
