Adsorption isotherm of Benzene on [Zn4O(bdc)(bpz)2]*4DMF*6H2O
DOI: 10.1021/Ic702085x
Adsorbate Benzene: InChIKey UHOVQNZJYSORNB-UHFFFAOYSA-N
Temperature: 298 K
Tabular data in the source: 0
pressure (bar)	uptake (mg/g)
0.0127495	286.905
0.0149343	374.737
0.0284156	514.783
0.0429814	529.64
0.0502643	536.631
0.0910487	553.236
0.176987	568.967
0.424606	586.446
0.595026	593.438
0.828079	601.304
0.884886	610.917
