Adsorption isotherm of Toluene on [Zn4O(bdc)(bpz)2]*4DMF*6H2O
DOI: 10.1021/Ic702085x
Adsorbate Toluene: InChIKey YXFVVABEGXRONW-UHFFFAOYSA-N
Temperature: 298 K
Tabular data in the source: 0
pressure (bar)	uptake (mg/g)
0.00656687	426.514
0.0123932	456.228
0.026959	478.077
0.0852223	505.169
0.115811	510.413
0.241077	527.892
0.41441	534.009
0.592113	540.127
0.826623	551.488
0.88343	558.48
