Adsorption isotherm of Methanol on [Zn4O(bdc)(bpz)2]*4DMF*6H2O
DOI: 10.1021/Ic702085x
Adsorbate Methanol: InChIKey OKKJLVBELUTLKV-UHFFFAOYSA-N
Temperature: 298 K
Tabular data in the source: 0
pressure (bar)	uptake (mg/g)
0.00511028	3.52206
0.0925052	27.1187
0.12018	99.6565
0.181357	409.909
0.242533	434.379
0.296427	448.362
0.420236	464.094
0.597939	478.951
0.833906	492.06
0.886343	499.051
