Adsorption isotherm of Methane on Activated carbon: PINPEL20
DOI: 10.1016/j.jece.2017.02.015
Article source: Figure 4c
Adsorbate Methane: InChIKey VNWKTOKETHGBQD-UHFFFAOYSA-N
Kind: experiment
Temperature: 303 K
Tabular data in the source: 0
pressure (bar)	uptake (mmol/g)
0.584	0.637
1.03	0.906
3	1.68
5.03	2.04
8	2.44
10	2.69
