Adsorption isotherm of Carbon Dioxide on Activated carbon: PINPEL20
DOI: 10.1016/j.jece.2017.02.015
Article source: Figure 4d
Adsorbate Carbon Dioxide: InChIKey CURLTUGMZLYLDI-UHFFFAOYSA-N
Kind: experiment
Temperature: 303 K
Tabular data in the source: 0
pressure (bar)	uptake (mmol/g)
0.517	1.38
1.01	1.92
2.94	2.93
4.97	3.44
8.05	3.88
10	4.03
