Adsorption isotherm of Nitrogen on UiO-66@SiO2-0.64
DOI: 10.1039/c4ra12263a
Article source: Figure  3c
Adsorbate Nitrogen: InChIKey IJGRMHOSHXDMSA-UHFFFAOYSA-N
Kind: experiment
Temperature: 77 K
Tabular data in the source: 0
pressure (bar)	uptake (cm3(STP)/g)
0.012068	73.494
0.031694	84.759
0.063814	91.757
0.079216	94.176
0.103362	97.367
0.124235	100.146
0.143689	101.691
0.164643	103.442
0.186286	105.81
0.205122	106.223
0.250769	110.291
0.257021	109.623
0.306488	113.691
0.359167	117.296
0.40145	121.364
0.409495	119.821
0.442709	121.882
0.454129	125.278
0.495621	126.31
0.503048	129.243
0.552292	134.288
0.561979	133.054
0.604262	140.156
0.655542	152.247
0.712132	182.236
0.753007	186.869
0.762025	240.049
0.809303	234.756
0.816568	393.366
0.839001	397.277
0.861506	398.822
0.886513	400.162
0.886746	399.733
0.897071	401.14
0.908713	394.456
0.92302	401.863
0.934581	399.395
0.954117	404.026
0.97045	402.433
0.981393	406.446
0.99031	408.916
0.994687	406.19
1.00187	408.094
1.00672	412.054
