Adsorption isotherm of Nitrogen on UiO-66@SiO2-0.32
DOI: 10.1039/c4ra12263a
Article source: Figure  3c
Adsorbate Nitrogen: InChIKey IJGRMHOSHXDMSA-UHFFFAOYSA-N
Kind: experiment
Temperature: 77 K
Tabular data in the source: 0
pressure (bar)	uptake (cm3(STP)/g)
0.011196	52.974
0.032231	63.313
0.059822	70.002
0.087565	74.325
0.101872	76.126
0.122816	79.111
0.145401	82.302
0.163224	84.001
0.185182	85.289
0.205112	87.349
0.24857	90.85
0.25545	90.954
0.305779	95.382
0.360018	99.399
0.402068	103.517
0.408401	103.004
0.446063	106.093
0.452396	108.357
0.502501	112.425
0.553772	118.499
0.605042	126.167
0.661632	144.482
0.69509	161.56
0.815555	403.961
0.824552	268.96
0.837674	410.546
0.862063	414.251
0.898013	415.592
0.939587	417.448
0.961787	420.742
0.970308	418.891
0.985548	425.527
0.994535	422.493
0.996339	428.202
1.00399	426.146
1.00845	430.981
