Adsorption isotherm of Nitrogen on UiO-66
DOI: 10.1039/c4ra12263a
Article source: Figure  3c
Adsorbate Nitrogen: InChIKey IJGRMHOSHXDMSA-UHFFFAOYSA-N
Kind: experiment
Temperature: 77 K
Tabular data in the source: 0
pressure (bar)	uptake (cm3(STP)/g)
0.011531	256.018
0.03365	269.444
0.06578	274.179
0.085944	275.981
0.103757	276.651
0.125015	278.145
0.143233	278.661
0.164329	279.177
0.183793	279.745
0.203795	279.85
0.235054	279.75
0.253657	280.472
0.28523	280.681
0.30438	281.249
0.336814	280.275
0.355185	281.1
0.387609	280.331
0.424268	281.312
0.437633	280.285
0.474829	281.112
0.487647	280.393
0.525867	280.603
0.540245	280.038
0.57737	280.711
0.591515	279.786
0.626756	280.716
0.640516	279.483
0.676233	280.875
0.69131	279.797
0.726956	280.829
0.7418	279.699
0.758914	280.626
0.792676	280.424
0.806202	281.763
0.819405	280.375
0.830348	281.456
0.843318	280.635
0.856298	281.973
0.868254	281.357
0.882085	282.747
0.894588	282.44
0.910223	283.625
0.92226	284.86
0.935939	284.45
0.953752	287.949
0.95969	286.51
0.977746	295.203
0.983531	290.678
0.991425	294.485
0.991982	301.993
1.00198	301.326
1.00605	308.012
