Adsorption isotherm of Nitrogen on UiO-66@SiO2-0.16
DOI: 10.1039/c4ra12263a
Article source: Figure  3c
Adsorbate Nitrogen: InChIKey IJGRMHOSHXDMSA-UHFFFAOYSA-N
Kind: experiment
Temperature: 77 K
Tabular data in the source: 0
pressure (bar)	uptake (cm3(STP)/g)
0.010973	40.803
0.028959	50.157
0.066317	59.102
0.086248	62.496
0.101649	64.964
0.122046	67.998
0.144094	71.083
0.163711	73.449
0.182466	75.661
0.203724	76.896
0.250313	81.423
0.30432	85.437
0.360585	90.273
0.403111	94.594
0.444766	97.681
0.501974	102.723
0.552394	109.717
0.602651	118.047
0.665655	139.225
0.704584	153.052
0.76393	231.932
0.765379	231.27
0.812414	222.642
0.817095	259.505
0.825485	244.431
0.83813	423.98
0.854838	305.637
0.868224	427.323
0.881548	380.1
0.890809	429.124
0.928867	425.737
0.936841	432.932
0.964199	436.84
0.966772	431.804
0.981464	435.043
0.985072	442.34
0.992884	445.733
0.993269	437.1
1.00109	440.595
1.00782	446.968
