Adsorption isotherm of Nitrogen on NH2-SiO2
DOI: 10.1039/c4ra12263a
Article source: Figure  3c
Adsorbate Nitrogen: InChIKey IJGRMHOSHXDMSA-UHFFFAOYSA-N
Kind: experiment
Temperature: 77 K
Tabular data in the source: 0
pressure (bar)	uptake (cm3(STP)/g)
0.010477	32.858
0.032201	43.298
0.064321	51.888
0.086592	56.159
0.100585	58.474
0.123556	61.87
0.142939	65.214
0.148958	65.934
0.164197	67.17
0.183115	69.794
0.203744	71.802
0.249077	77.668
0.259858	78.235
0.306123	82.147
0.361062	87.398
0.402645	92.39
0.408583	92.185
0.444999	94.914
0.502521	101.398
0.555514	109.116
0.604981	116.526
0.659605	132.626
0.70126	155.82
0.711656	149.651
0.758863	175.879
0.75933	177.457
0.810681	230.234
0.814116	256.08
0.828889	263.71
0.839984	474.273
0.859054	342.179
0.864292	478.08
0.887577	479.882
0.912118	481.222
0.927519	477.881
0.939313	482.818
0.950732	484.259
0.972375	485.393
0.989722	485.909
1.00763	487.71
