Adsorption isotherm of Nitrogen on C18H16N2NiO6.5
DOI: 10.1039/C2dt12198k
Adsorbate Nitrogen: InChIKey IJGRMHOSHXDMSA-UHFFFAOYSA-N
Temperature: 77 K
Tabular data in the source: 0
pressure (bar)	uptake (cm3(STP)/g)
0.000187693	10.7179
0.000397709	20.3818
0.00053253	21.9116
0.00127185	22.6923
0.00292466	24.5569
0.00440417	24.9715
