Adsorption isotherm of Nitrogen on C18H16N2NiO6.5
DOI: 10.1039/C2dt12198k
Adsorbate Nitrogen: InChIKey IJGRMHOSHXDMSA-UHFFFAOYSA-N
Temperature: 77 K
Tabular data in the source: 0
pressure (bar)	uptake (cm3(STP)/g)
0.000221178	3.13702
0.00185666	4.55662
0.00400529	5.11881
