Adsorption isotherm of Nitrogen on C18H16N2NiO6.5
DOI: 10.1039/C2dt12198k
Adsorbate Nitrogen: InChIKey IJGRMHOSHXDMSA-UHFFFAOYSA-N
Temperature: 77 K
Tabular data in the source: 0
pressure (bar)	uptake (cm3(STP)/g)
2.64e-05	1.59407
0.000222059	13.9902
0.000382729	21.8785
0.000518431	25.2614
0.000758995	27.1674
0.00119606	28.3227
0.00199089	28.8509
0.00314231	29.2814
0.00450081	30.1987
