Adsorption isotherm of Nitrogen on C18H16N2NiO6.5
DOI: 10.1039/C2dt12198k
Adsorbate Nitrogen: InChIKey IJGRMHOSHXDMSA-UHFFFAOYSA-N
Temperature: 77 K
Tabular data in the source: 0
pressure (bar)	uptake (cm3(STP)/g)
1.32e-05	0.797033
0.000153914	8.68101
0.000325158	14.807
0.000563959	16.0068
0.000903804	16.6994
0.00158584	17.0263
0.00237069	17.5524
0.00318402	17.9965
0.00412278	18.2036
