Adsorption isotherm of Carbon Dioxide on C18H16N2NiO6.5
DOI: 10.1039/C2dt12198k
Adsorbate Carbon Dioxide: InChIKey CURLTUGMZLYLDI-UHFFFAOYSA-N
Temperature: 195 K
Tabular data in the source: 0
pressure (bar)	uptake (cm3(STP)/g)
0.0022457	1.58197
0.0177264	47.2095
0.0598332	61.8714
0.114697	69.6864
0.217219	77.741
0.335212	83.3602
0.439148	87.9664
0.539061	92.2382
0.642997	96.8444
0.791036	104.185
1.01087	113.772
