Adsorption isotherm of Carbon Dioxide on C18H16N2NiO6.5
DOI: 10.1039/C2dt12198k
Adsorbate Carbon Dioxide: InChIKey CURLTUGMZLYLDI-UHFFFAOYSA-N
Temperature: 298 K
Tabular data in the source: 0
pressure (bar)	uptake (cm3(STP)/g)
0.45009	2.52246
1.34671	6.67627
2.72631	11.5768
4.30693	16.7329
5.72032	20.0805
7.13104	22.7598
8.81927	24.8165
11.4317	27.9146
15.8443	31.084
18.0903	32.5639
20.1343	33.5655
22.2147	33.6826
24.4998	34.9462
28.6589	34.7347
29.9807	35.1731
