Adsorption isotherm of Methane on C18H16N2NiO6.5
DOI: 10.1039/C2dt12198k
Adsorbate Methane: InChIKey VNWKTOKETHGBQD-UHFFFAOYSA-N
Temperature: 298 K
Tabular data in the source: 0
pressure (bar)	uptake (cm3(STP)/g)
0.455437	3.85914
1.40634	11.584
2.74769	16.9236
4.20735	21.8372
5.74082	25.2044
7.22802	27.0057
8.75436	28.5907
10.2007	30.1626
14.568	31.9888
16.8948	33.7045
18.9806	35.1582
21.2292	37.3064
25.5272	41.7929
27.5436	45.9069
29.8047	51.1741
