Adsorption isotherm of Methane on C18H16N2NiO6.5
DOI: 10.1039/C2dt12198k
Adsorbate Methane: InChIKey VNWKTOKETHGBQD-UHFFFAOYSA-N
Temperature: 273 K
Tabular data in the source: 0
pressure (bar)	uptake (cm3(STP)/g)
0.00860486	0.653297
0.096235	0.982434
0.202562	1.18869
0.367265	1.50818
0.556987	1.87621
0.659211	2.23365
0.759285	2.42777
0.859357	2.6219
0.972138	3.31812
