Adsorption isotherm of Nitrogen on C18H16N2NiO6.5
DOI: 10.1039/C2dt12198k
Adsorbate Nitrogen: InChIKey IJGRMHOSHXDMSA-UHFFFAOYSA-N
Temperature: 77 K
Tabular data in the source: 0
pressure (bar)	uptake (cm3(STP)/g)
0.00207471	0.636382
0.00365791	11.2966
0.0205815	18.5824
0.0980495	20.1997
0.203353	22.5745
0.26681	23.1861
0.352064	23.9
0.457135	24.7072
0.5564	26.4269
0.649627	27.4917
0.758614	28.0039
0.875714	29.8075
0.980831	30.9282
