Adsorption isotherm of Hydrogen on C18H16N2NiO6.5
DOI: 10.1039/C2dt12198k
Adsorbate Hydrogen: InChIKey UFHFLCQGNIYNRP-UHFFFAOYSA-N
Temperature: 77 K
Tabular data in the source: 0
pressure (bar)	uptake (cm3(STP)/g)
0.194932	18.7331
0.650592	52.648
0.868619	67.1548
1.42817	77.0421
2.41731	84.3279
4.69709	94.2734
6.80073	100.183
8.8163	104.074
12.3938	108.443
16.81	112.503
18.2892	112.3
19.8493	112.332
21.2822	110.562
24.3634	110.842
27.2435	110.867
28.8107	112.682
