Adsorption isotherm of Carbon Dioxide on C18H16N2NiO6.5
DOI: 10.1039/C2dt12198k
Adsorbate Carbon Dioxide: InChIKey CURLTUGMZLYLDI-UHFFFAOYSA-N
Temperature: 273 K
Tabular data in the source: 0
pressure (bar)	uptake (cm3(STP)/g)
4.98994	0.967812
46.2534	13.0109
112.707	20.6628
264.401	31.0817
397.847	38.1111
507.29	43.3279
611.643	47.2582
717.759	51.8297
796.794	54.7397
