Adsorption isotherm of Nitrogen on C18H16N2NiO6.5
DOI: 10.1039/C2dt12198k
Adsorbate Nitrogen: InChIKey IJGRMHOSHXDMSA-UHFFFAOYSA-N
Temperature: 77 K
Tabular data in the source: 0
pressure (bar)	uptake (cm3(STP)/g)
0.00665272	0.967812
0.0984525	1.30504
0.169602	2.07966
0.365447	2.14126
0.551264	3.13831
0.659543	3.03005
0.75955	3.06489
0.859689	3.4183
0.995336	3.99973
