Adsorption isotherm of Nitrogen on TP-COF-BZ
DOI: 10.1021/jacs.7b02303
Article source: Figure 3 (c)
Adsorbate Nitrogen: InChIKey IJGRMHOSHXDMSA-UHFFFAOYSA-N
Kind: experiment
Temperature: 77 K
Tabular data in the source: 0
pressure (bar)	uptake (cm3(STP)/g)
0	3.30189
0	6.13208
0	8.96226
0	12.7359
0	15.566
0	20.283
0	23.1132
0	26.8868
0	29.717
0	33.0189
0	36.3208
0.002087	41.9811
0.002087	45.7547
0.002087	50.4717
0.002087	55.1887
0.006272	58.9623
0.010447	64.6226
0.018806	74.0566
0.029253	80.1887
0.039699	85.3774
0.048048	91.0377
0.081475	104.245
0.131621	123.113
0.156689	129.245
0.194291	134.434
0.229805	137.736
0.267417	139.623
0.298757	141.038
0.334271	142.453
0.369786	142.925
0.403213	143.868
0.440814	144.811
0.474242	145.755
0.511843	145.755
0.547368	146.226
0.582882	146.698
0.616309	146.698
0.653911	147.642
0.687338	148.113
0.72494	149.528
0.758367	149.528
0.793892	150.472
0.829406	151.415
0.867008	152.358
0.900435	154.245
0.933862	157.547
0.971464	163.679
1.0028	179.245
0.144155	137.264
0.192203	144.811
0.227718	147.642
0.263232	148.585
0.298757	150
0.334271	150.943
0.35098	150.943
0.386494	151.415
0.438727	151.887
0.478416	153.302
0.511843	154.245
0.528562	155.189
0.580795	155.189
0.618397	155.66
0.633018	155.66
0.687338	156.132
0.72494	156.132
0.739571	156.604
0.777173	157.075
0.812687	157.547
0.848202	158.962
0.883716	160.849
0.921328	164.623
0.95893	171.226
1.00072	179.245
