Adsorption isotherm of Nitrogen on TP-COF-DAB
DOI: 10.1021/jacs.7b02303
Article source: Figure 3 (a)
Adsorbate Nitrogen: InChIKey IJGRMHOSHXDMSA-UHFFFAOYSA-N
Kind: experiment
Temperature: 77 K
Tabular data in the source: 0
pressure (bar)	uptake (cm3(STP)/g)
0.002057	4.49871
0.002057	16.0668
0.002057	22.4936
0.006181	31.491
0.006181	37.9177
0.010295	44.3445
0.020599	53.9846
0.030894	61.054
0.043246	66.1954
0.051483	70.0514
0.086501	77.1208
0.123566	80.3342
0.158574	82.9049
0.193592	85.4756
0.228599	88.6889
0.265674	89.3316
0.302739	91.2596
0.333633	92.545
0.368641	94.473
0.405715	95.1157
0.44278	97.0437
0.475731	98.329
0.512806	98.9717
0.547814	99.6144
0.582821	100.9
0.619896	102.185
0.652847	104.113
0.687855	106.041
0.722863	107.326
0.759937	109.897
0.797012	112.468
0.829963	115.039
0.864971	118.895
0.902036	125.321
0.934987	134.961
0.970004	156.17
1.00707	246.144
0.142098	95.7583
0.195648	99.6144
0.228599	100.9
0.265674	102.185
0.298625	103.47
0.33569	104.756
0.370698	104.756
0.405715	106.041
0.440723	106.684
0.475731	108.612
0.510749	109.897
0.549871	111.183
0.582821	112.468
0.617839	113.111
0.652847	113.753
0.687855	115.681
0.72493	116.967
0.741405	118.252
0.776413	121.465
0.813488	125.321
0.850552	131.748
0.891741	142.031
0.93293	166.452
0.970004	203.728
1.00707	246.787
