Adsorption isotherm of Isobutane on Zeolite 13X
DOI: 10.1021/Ie800473q
Adsorbate Isobutane: InChIKey NNPPMTNAJDCUHE-UHFFFAOYSA-N
Temperature: 393 K
Tabular data in the source: 0
pressure (bar)	uptake (molecules/unitcell)
0.011836	2.68426
0.0234788	5.68756
0.0453632	9.29152
0.0682404	11.8443
0.114063	15.198
0.171586	17
0.238504	18.6018
0.409298	20.5539
0.649022	22.0555
1.08483	23.4571
1.44949	24.0577
