Adsorption isotherm of Isobutane on Zeolite 13X
DOI: 10.1021/Ie800473q
Adsorbate Isobutane: InChIKey NNPPMTNAJDCUHE-UHFFFAOYSA-N
Temperature: 353 K
Tabular data in the source: 0
pressure (bar)	uptake (molecules/unitcell)
0.00489697	9.49174
0.0190172	15.6485
0.070062	19.9532
0.126738	22.4059
0.198339	23.407
0.294459	23.9076
0.518811	25.6595
0.591855	26.11
0.750215	26.2101
0.844638	26.1601
1.12856	26.6106
1.3571	26.8108
