Adsorption isotherm of N-propane on Zeolite 13X
DOI: 10.1021/Ie800473q
Adsorbate N-propane: InChIKey ATUOYWHBWRKTHZ-UHFFFAOYSA-N
Temperature: 373 K
Tabular data in the source: 0
pressure (bar)	uptake (molecules/unitcell)
0.00395478	1.85976
0.0146601	6.87385
0.0295367	11.6062
0.0557722	15.6062
0.0913066	18.1978
0.136506	20.0006
0.226396	22.3105
0.400642	23.8316
0.576106	24.564
0.81774	25.6344
1.42846	26.3105
