Adsorption isotherm of Isobutane on Zeolite 13X
DOI: 10.1021/Ie800473q
Adsorbate Isobutane: InChIKey NNPPMTNAJDCUHE-UHFFFAOYSA-N
Temperature: 353 K
Tabular data in the source: 0
pressure (bar)	uptake (molecules/unitcell)
0.0049619	10.593
0.0187683	16.3493
0.0691452	21.2547
0.12508	22.8064
0.206333	24.308
0.294459	25.3091
0.505322	26.11
0.780454	26.7607
1.02915	27.1111
1.28745	27.6117
1.50791	27.7618
