Adsorption isotherm of Isobutane on Zeolite 13X
DOI: 10.1021/Ie800473q
Adsorbate Isobutane: InChIKey NNPPMTNAJDCUHE-UHFFFAOYSA-N
Temperature: 373 K
Tabular data in the source: 0
pressure (bar)	uptake (molecules/unitcell)
0.00412629	1.91466
0.0146128	6.67703
0.0289871	11.6968
0.0552729	15.6011
0.0899857	18.3041
0.126738	19.9774
0.22038	22.1655
0.248118	22.6374
0.344883	23.4097
0.403942	23.7958
0.568923	24.6968
0.71171	24.9972
0.844638	25.5978
1.08483	25.8982
1.32181	25.984
1.48818	26.1985
