Adsorption isotherm of Isobutane on Zeolite 13X
DOI: 10.1021/Ie800473q
Adsorbate Isobutane: InChIKey NNPPMTNAJDCUHE-UHFFFAOYSA-N
Temperature: 373 K
Tabular data in the source: 0
pressure (bar)	uptake (molecules/unitcell)
0.00407229	1.27109
0.0144216	4.70343
0.0301555	9.46581
0.0524361	14.6572
0.0923878	18.2183
0.248118	23.0665
0.349456	24.1391
0.409298	24.2678
0.58411	25.083
0.760162	26.1127
0.938502	26.5417
1.22137	27.2282
