Adsorption isotherm of Isobutane on Zeolite 13X
DOI: 10.1021/Ie800473q
Adsorbate Isobutane: InChIKey NNPPMTNAJDCUHE-UHFFFAOYSA-N
Temperature: 393 K
Tabular data in the source: 0
pressure (bar)	uptake (molecules/unitcell)
0.011836	2.98459
0.0237901	6.48844
0.0447696	9.79207
0.0691452	12.5952
0.111097	15.8988
0.171586	17.951
0.314505	20.2035
0.532661	21.9054
0.902139	23.3069
1.20539	24.0577
1.44949	24.5082
