Adsorption isotherm of Isobutane on Zeolite 13X
DOI: 10.1021/Ie800473q
Adsorbate Isobutane: InChIKey NNPPMTNAJDCUHE-UHFFFAOYSA-N
Temperature: 373 K
Tabular data in the source: 0
pressure (bar)	uptake (molecules/unitcell)
0.00391451	1.38283
0.0150029	6.5385
0.0289871	11.2437
0.0552729	14.8476
0.0911788	17.7008
0.130122	19.2024
0.217496	21.2046
0.251407	21.7552
0.58411	24.2079
0.740398	24.308
1.05662	25.0088
1.46871	25.9098
