Adsorption isotherm of Isobutane on Zeolite 13X
DOI: 10.1021/Ie800473q
Adsorbate Isobutane: InChIKey NNPPMTNAJDCUHE-UHFFFAOYSA-N
Temperature: 373 K
Tabular data in the source: 0
pressure (bar)	uptake (molecules/unitcell)
0.00391451	1.68316
0.0146128	6.83883
0.0286078	11.4439
0.0545496	15.4483
0.0911788	18.2514
0.128419	19.9532
0.223302	22.0055
0.344883	23.407
0.591855	24.7085
0.811912	25.3592
1.05662	25.7596
1.48818	26.11
