Adsorption isotherm of 1-butene on Zeolite 13X
DOI: 10.1021/Ie800473q
Adsorbate 1-butene: InChIKey VXNZUUAINFGPBY-UHFFFAOYSA-N
Temperature: 333 K
Tabular data in the source: 0
pressure (bar)	uptake (molecules/unitcell)
0.0072763	26.8174
0.0557722	31.0076
0.285941	32.9301
0.474237	35.1484
0.526097	35.0005
0.639106	35.247
0.756506	35.3949
0.861292	35.5428
1.0738	35.9865
