Adsorption isotherm of 1-butene on Zeolite 13X
DOI: 10.1021/Ie800473q
Adsorbate 1-butene: InChIKey VXNZUUAINFGPBY-UHFFFAOYSA-N
Temperature: 353 K
Tabular data in the source: 0
pressure (bar)	uptake (molecules/unitcell)
0.00101292	15.3315
0.00499494	23.6132
0.0266251	26.6695
0.0961696	29.578
0.186364	30.909
0.334105	31.9442
0.462091	32.3879
0.614712	32.7822
0.756506	33.2259
1.0738	33.6203
