Adsorption isotherm of 1-butene on Zeolite 13X
DOI: 10.1021/Ie800473q
Adsorbate 1-butene: InChIKey VXNZUUAINFGPBY-UHFFFAOYSA-N
Temperature: 393 K
Tabular data in the source: 0
pressure (bar)	uptake (molecules/unitcell)
0.00293457	9.07096
0.0236912	17.9442
0.0949301	24.1062
0.198852	27.1625
0.271482	27.8526
0.338467	28.3456
0.512623	29.1836
0.673144	29.8245
0.766383	30.071
0.861292	30.2681
1.0463	30.7611
