Adsorption isotherm of 1-butene on Zeolite 13X
DOI: 10.1021/Ie800473q
Adsorbate 1-butene: InChIKey VXNZUUAINFGPBY-UHFFFAOYSA-N
Temperature: 373 K
Tabular data in the source: 0
pressure (bar)	uptake (molecules/unitcell)
0.019502	20.5077
0.0543438	24.564
0.112368	27.8316
0.145653	28.226
0.238454	29.24
0.342886	30.0851
0.433071	30.7612
0.532966	30.8175
0.737131	31.4936
0.81774	31.8879
0.931007	32.1696
1.0738	33.0147
