Adsorption isotherm of N-propane on Zeolite 13X
DOI: 10.1021/Ie800473q
Adsorbate N-propane: InChIKey ATUOYWHBWRKTHZ-UHFFFAOYSA-N
Temperature: 373 K
Tabular data in the source: 0
pressure (bar)	uptake (molecules/unitcell)
0.031516	3.0992
0.0961696	9.97244
0.124656	11.7189
0.297289	17.1274
0.370641	19.7189
0.427489	21.071
0.526097	22.3105
0.72763	24.1133
0.967954	26.3105
1.19123	26.7048
1.56425	26.7048
