Adsorption isotherm of 1-butene on Zeolite 13X
DOI: 10.1021/Ie800473q
Adsorbate 1-butene: InChIKey VXNZUUAINFGPBY-UHFFFAOYSA-N
Temperature: 373 K
Tabular data in the source: 0
pressure (bar)	uptake (molecules/unitcell)
0.0210806	21.8879
0.0543438	26.078
0.147555	28.1484
0.226396	28.74
0.554116	31.3034
0.690837	32.0921
0.81774	32.3879
0.955478	32.4865
