Adsorption isotherm of N-propane on Zeolite 13X
DOI: 10.1021/Ie800473q
Adsorbate N-propane: InChIKey ATUOYWHBWRKTHZ-UHFFFAOYSA-N
Temperature: 373 K
Tabular data in the source: 0
pressure (bar)	uptake (molecules/unitcell)
0.0319275	3.60624
0.0610737	5.85976
0.0937066	9.40906
0.12305	11.1555
0.186364	13.9161
0.220598	15.4936
0.30117	18.1415
0.37548	20.226
0.421979	21.5217
0.512623	22.4231
0.708995	24.9584
0.861292	26.0851
1.03282	26.8738
