Adsorption isotherm of 1-butene on Zeolite 13X
DOI: 10.1021/Ie800473q
Adsorbate 1-butene: InChIKey VXNZUUAINFGPBY-UHFFFAOYSA-N
Temperature: 353 K
Tabular data in the source: 0
pressure (bar)	uptake (molecules/unitcell)
0.000987	15.7259
0.00486702	23.2681
0.0266251	26.078
0.186364	31.0569
0.347363	32.1907
0.462091	32.7329
0.606789	33.2752
0.699857	33.571
0.8072	33.8667
0.931007	34.1625
1.05996	34.3597
