Adsorption isotherm of Propene on Zeolite 13X
DOI: 10.1021/Ie800473q
Adsorbate Propene: InChIKey QQONPFPTGQHPMA-UHFFFAOYSA-N
Temperature: 373 K
Tabular data in the source: 0
pressure (bar)	uptake (molecules/unitcell)
0.00191262	4.67667
0.0222033	14.6485
0.0550534	20.1133
0.0889682	23.2682
0.157443	26.9302
0.209443	29.1837
0.275027	30.7048
0.356494	31.7753
0.416541	32.7893
0.493057	33.4654
0.664468	34.6485
1.0738	36.2823
