Adsorption isotherm of Isobutane on Zeolite 13X
DOI: 10.1021/Ie800473q
Adsorbate Isobutane: InChIKey NNPPMTNAJDCUHE-UHFFFAOYSA-N
Temperature: 373 K
Tabular data in the source: 0
pressure (bar)	uptake (molecules/unitcell)
0.00628953	2.85855
0.00997328	3.97406
0.0171152	7.87835
0.0326354	11.611
0.0447696	13.7562
0.102655	17.3173
0.146499	18.5615
0.272083	20.4922
0.327182	20.7925
0.403942	21.2645
0.640529	22.4658
0.750215	22.4658
1.05662	22.4658
1.3571	22.6374
