Adsorption isotherm of 1-butene on Zeolite 13X
DOI: 10.1021/Ie800473q
Adsorbate 1-butene: InChIKey VXNZUUAINFGPBY-UHFFFAOYSA-N
Temperature: 373 K
Tabular data in the source: 0
pressure (bar)	uptake (molecules/unitcell)
0.019502	20.9584
0.0557722	24.2823
0.10949	26.9302
0.149481	28.0006
0.229352	28.9584
0.347363	29.5217
0.450257	29.9161
0.606789	30.3668
0.708995	30.8175
0.839233	31.2119
0.967954	31.4372
1.11642	31.9443
