Adsorption isotherm of N-propane on Zeolite 13X
DOI: 10.1021/Ie800473q
Adsorbate N-propane: InChIKey ATUOYWHBWRKTHZ-UHFFFAOYSA-N
Temperature: 373 K
Tabular data in the source: 0
pressure (bar)	uptake (molecules/unitcell)
0.0311098	3.21188
0.0949301	10.1415
0.12305	11.7189
0.285941	17.2964
0.365864	19.9443
0.433071	21.0147
0.486702	22.0288
0.737131	24.0569
0.839233	25.24
1.03282	26.1978
