Adsorption isotherm of N-propane on Zeolite 13X
DOI: 10.1021/Ie800473q
Adsorbate N-propane: InChIKey ATUOYWHBWRKTHZ-UHFFFAOYSA-N
Temperature: 373 K
Tabular data in the source: 0
pressure (bar)	uptake (molecules/unitcell)
0.0307088	3.54991
0.062679	6.08512
0.0961696	9.40906
0.121464	11.0429
0.183962	13.8598
0.212178	15.6062
0.309086	18.0288
0.37548	20.226
0.456136	21.7471
0.519316	22.5358
0.861292	26.0288
0.993395	26.9302
