Adsorption isotherm of 1-butene on Zeolite 13X
DOI: 10.1021/Ie800473q
Adsorbate 1-butene: InChIKey VXNZUUAINFGPBY-UHFFFAOYSA-N
Temperature: 393 K
Tabular data in the source: 0
pressure (bar)	uptake (molecules/unitcell)
0.0030117	8.18363
0.0233858	17.0569
0.0949301	24.5991
0.209443	26.571
0.519316	30.1203
0.673144	30.2681
0.766383	30.5639
0.81774	31.0569
