Adsorption isotherm of 1-butene on Zeolite 13X
DOI: 10.1021/Ie800473q
Adsorbate 1-butene: InChIKey VXNZUUAINFGPBY-UHFFFAOYSA-N
Temperature: 333 K
Tabular data in the source: 0
pressure (bar)	uptake (molecules/unitcell)
0.00746755	27.6555
0.0557722	31.1555
0.212178	33.078
0.293457	33.6203
0.395478	33.9653
0.480429	34.1625
0.639106	34.2118
0.756506	34.4583
0.828417	34.6062
1.03282	34.7048
