Adsorption isotherm of 1-butene on Zeolite 13X
DOI: 10.1021/Ie800473q
Adsorbate 1-butene: InChIKey VXNZUUAINFGPBY-UHFFFAOYSA-N
Temperature: 373 K
Tabular data in the source: 0
pressure (bar)	uptake (molecules/unitcell)
0.0210806	21.5921
0.0565004	24.8456
0.10949	27.3104
0.149481	28.4935
0.226396	29.2822
0.338467	30.1695
0.405873	30.416
0.554116	30.8597
0.699857	31.5005
0.828417	31.9442
1.0738	32.585
