Adsorption isotherm of Propene on Zeolite 13X
DOI: 10.1021/Ie800473q
Adsorbate Propene: InChIKey QQONPFPTGQHPMA-UHFFFAOYSA-N
Temperature: 373 K
Tabular data in the source: 0
pressure (bar)	uptake (molecules/unitcell)
0.00193759	4.22596
0.0227869	13.2964
0.0565004	18.8175
0.0924988	22.3668
0.163691	26.1415
0.217755	28.1696
0.267983	29.3527
0.370641	30.4795
0.450257	31.3246
0.681933	34.0288
0.786527	34.4231
0.919008	35.8316
1.0738	35.3809
