Adsorption isotherm of Isobutane on Zeolite 13X
DOI: 10.1021/Ie800473q
Adsorbate Isobutane: InChIKey NNPPMTNAJDCUHE-UHFFFAOYSA-N
Temperature: 333 K
Tabular data in the source: 0
pressure (bar)	uptake (molecules/unitcell)
0.000982	8.94114
0.0154034	19.9532
0.0719323	24.9587
0.171586	26.8108
0.265009	27.5616
0.448831	28.5627
0.554131	28.7129
0.675182	29.0632
0.926221	29.5638
1.12856	29.8641
1.44949	30.3146
