Adsorption isotherm of Propene on Zeolite 13X
DOI: 10.1021/Ie800473q
Adsorbate Propene: InChIKey QQONPFPTGQHPMA-UHFFFAOYSA-N
Temperature: 373 K
Tabular data in the source: 0
pressure (bar)	uptake (molecules/unitcell)
0.00201449	4.95836
0.0219171	14.5358
0.0565004	20.1696
0.0901298	23.2119
0.163691	27.1555
0.217755	28.902
0.271482	30.2541
0.370641	31.6626
0.433071	32.5077
0.499494	33.24
0.664468	34.4231
0.756506	35.0429
1.05996	35.8879
