Adsorption isotherm of Isobutane on Zeolite 13X
DOI: 10.1021/Ie800473q
Adsorbate Isobutane: InChIKey NNPPMTNAJDCUHE-UHFFFAOYSA-N
Temperature: 333 K
Tabular data in the source: 0
pressure (bar)	uptake (molecules/unitcell)
0.000995	7.88998
0.0150029	18.6518
0.072886	23.9576
0.173861	27.3113
0.349456	27.4114
0.454783	27.912
0.54688	28.4626
0.657627	29.5638
0.914101	30.1144
1.02915	30.2145
