Adsorption isotherm of Propene on Zeolite 13X
DOI: 10.1021/Ie800473q
Adsorbate Propene: InChIKey QQONPFPTGQHPMA-UHFFFAOYSA-N
Temperature: 373 K
Tabular data in the source: 0
pressure (bar)	uptake (molecules/unitcell)
0.00191262	4.33864
0.0224932	13.2964
0.0550534	18.8175
0.0913066	22.4231
0.161581	26.3105
0.206744	28.0569
0.271482	29.5781
0.365864	30.7048
0.427489	31.4936
0.655904	34.1415
0.746756	34.9302
1.01951	35.7753
