Adsorption isotherm of Nitrogen on IRMOF-1
DOI: 10.1016/j.molliq.2015.02.009
Article source: Figure 2- N2
Adsorbate Nitrogen: InChIKey IJGRMHOSHXDMSA-UHFFFAOYSA-N
Kind: experiment
Temperature: 77 K
Tabular data in the source: 0
pressure (bar)	uptake (cm3(STP)/g)
0.047086	232.297
0.050733	232.71
0.059559	233.675
0.101588	237.811
0.103372	239.772
0.153092	241.641
0.153903	241.656
0.199418	242.998
0.202488	243.958
0.250678	245.132
0.25464	246.176
0.30129	247.1
0.308899	248.102
0.353442	248.484
0.390375	249.675
0.404378	249.743
0.502775	252.468
0.505936	252.634
0.596227	255.484
0.602955	255.569
0.705556	257.544
0.713338	258.546
0.79837	260.56
0.813589	260.437
0.906068	263.495
0.911094	263.435
1.00122	273.521
