Adsorption isotherm of Isoheptane on Silicalite MFI
DOI: 10.1016/S0009-2509(99)00564-3
Adsorbate Isoheptane: InChIKey GXDHCNNESPLIKD-UHFFFAOYSA-N
Temperature: 250 K
Tabular data in the source: 0
pressure (bar)	uptake (molecules/unitcell)
1.29e-05	0.556339
0.00013377	1.74622
0.00125561	2.07801
0.013895	2.14666
0.0373166	2.11233
0.0745131	2.07801
0.139303	2.05513
0.441072	1.91784
1.44332	0.979662
14.4698	0.213105
154.94	0.201664
