Adsorption isotherm of Methane on Silicalite MFI
DOI: 10.1016/S0009-2509(99)00564-3
Adsorbate Methane: InChIKey VNWKTOKETHGBQD-UHFFFAOYSA-N
Temperature: 250 K
Tabular data in the source: 0
pressure (bar)	uptake (molecules/unitcell)
0.0310599	0.0324606
0.103889	0.102377
0.330439	0.250948
0.950418	0.482545
2.87466	0.65515
10.1113	0.781872
30.5828	0.843049
97.2745	0.891116
294.219	0.923889
1034.88	0.961032
3640.06	0.989435
