Adsorption isotherm of N-Heptane on Silicalite MFI
DOI: 10.1016/S0009-2509(99)00564-3
Adsorbate N-Heptane: InChIKey IMNFDUFMRHMDMM-UHFFFAOYSA-N
Temperature: 250 K
Tabular data in the source: 0
pressure (bar)	uptake (molecules/unitcell)
1.25e-05	0.407605
0.000125243	1.44875
0.00138599	1.72334
0.012588	1.75766
0.0425704	1.84919
0.0697637	1.86063
0.139303	1.91784
0.426784	2.32972
1.39656	4.59506
14.4698	6.63159
145.065	6.75744
