Adsorption isotherm of N-Heptane on Silicalite MFI
DOI: 10.1016/S0009-2509(99)00564-3
Adsorbate N-Heptane: InChIKey IMNFDUFMRHMDMM-UHFFFAOYSA-N
Temperature: 250 K
Tabular data in the source: 0
pressure (bar)	uptake (Fractional Loading)
5.76e-06	0.0352265
1.57e-05	0.0845223
3.54e-05	0.142269
0.000106664	0.207058
0.000311032	0.243677
0.000850012	0.260579
0.0096775	0.27748
0.0273192	0.29579
0.0746598	0.33241
0.256034	0.423959
1.21438	0.604241
5.22586	0.791565
14.2816	0.878888
34.2814	0.93241
96.775	0.966212
273.192	0.981705
967.75	0.987339
