Adsorption isotherm of Ethane on Silicalite MFI
DOI: 10.1016/S0009-2509(99)00564-3
Adsorbate Ethane: InChIKey OTMSDBZUPAUEDD-UHFFFAOYSA-N
Temperature: 250 K
Tabular data in the source: 0
pressure (bar)	uptake (molecules/unitcell)
1.15e-05	-0.000312
0.0001	0.00842701
0.000454	0.0215363
0.000965	0.0390152
0.00339513	0.12641
0.00482833	0.200696
0.00928604	0.333973
0.029536	0.491284
0.0464505	0.530612
0.103889	0.559015
0.859443	0.611452
9.14341	0.687923
30.5828	0.714141
92.5018	0.716326
1034.88	0.714141
5176.65	0.709772
9002.96	0.707587
45034.5	0.696662
