Adsorption isotherm of Isoheptane on Silicalite MFI
DOI: 10.1016/S0009-2509(99)00564-3
Adsorbate Isoheptane: InChIKey GXDHCNNESPLIKD-UHFFFAOYSA-N
Temperature: 250 K
Tabular data in the source: 0
pressure (bar)	uptake (Fractional Loading)
4.9e-06	0.0591702
8.78e-06	0.0957899
1.43e-05	0.139452
2.91e-05	0.211283
6.77e-05	0.309874
0.000179213	0.380297
0.00043018	0.416917
0.00152386	0.439452
0.0390298	0.446494
0.125441	0.423959
0.321285	0.391565
1.17563	0.292973
6.55766	0.14086
22.4885	0.0662124
74.6598	0.0295927
377.844	0.0098744
878.03	0.0042406
