Adsorption isotherm of Ethane on Silicalite MFI
DOI: 10.1016/S0009-2509(99)00564-3
Adsorbate Ethane: InChIKey OTMSDBZUPAUEDD-UHFFFAOYSA-N
Temperature: 250 K
Tabular data in the source: 0
pressure (bar)	uptake (molecules/unitcell)
2.58e-05	0.00405726
0.000371	0.0106119
0.0280868	0.489099
0.0987919	0.56557
0.256949	0.602713
1.35162	0.626746
3.02298	0.696662
10.1113	0.760024
30.5828	0.779688
