Adsorption isotherm of Methane on Silicalite MFI
DOI: 10.1016/S0009-2509(99)00564-3
Adsorbate Methane: InChIKey VNWKTOKETHGBQD-UHFFFAOYSA-N
Temperature: 250 K
Tabular data in the source: 0
pressure (bar)	uptake (molecules/unitcell)
1.04e-05	0.00405726
0.000502	0.00624214
0.00101505	0.00624214
0.00291951	0.0106119
0.00976516	0.0127968
0.029536	0.0193514
0.0939448	0.0215363
1.05102	0.0346455
10.633	0.0717884
32.1608	0.0827127
107.571	0.095822
1088.27	0.124225
5176.65	0.143889
9467.47	0.154814
52371	0.189772
