Adsorption isotherm of Nitrogen on C11H18N16O10Zn4
DOI: 10.1021/Cg800289c
Adsorbate Nitrogen: InChIKey IJGRMHOSHXDMSA-UHFFFAOYSA-N
Temperature: 77 K
Tabular data in the source: 0
pressure (bar)	uptake (cm3(STP)/g)
0.00374382	1.41744
0.00561572	2.03126
0.00748763	2.45063
0.0112314	2.72224
0.0280786	2.91554
0.0580291	3.11157
0.0861077	3.37433
0.0973392	3.4762
0.12729	3.575
0.155368	3.80535
0.198422	3.92308
0.243348	4.07128
0.316352	4.19058
0.389357	4.24506
0.460489	4.33388
0.535366	4.37024
0.60837	4.37611
0.681374	4.463
0.739403	4.56531
0.797433	4.66762
0.838615	4.75486
0.876053	4.91077
0.913491	5.11529
0.937826	5.33329
0.952801	5.64195
0.965904	6.34143
