Adsorption isotherm of Nitrogen on C5H12N8O6Zn2
DOI: 10.1021/Cg800289c
Adsorbate Nitrogen: InChIKey IJGRMHOSHXDMSA-UHFFFAOYSA-N
Temperature: 77 K
Tabular data in the source: 0
pressure (bar)	uptake (cm3(STP)/g)
0.00204366	2.79972
0.00218301	6.3997
0.00233267	10.2663
0.00246685	13.733
0.00260103	17.1996
0.00274037	20.7996
0.00285391	23.7329
0.00872686	25.4655
0.0145895	26.9313
0.0321464	30.5289
0.0689324	30.9239
0.0805441	30.9223
0.0999022	31.053
0.128942	31.3156
0.157976	31.445
0.202493	31.5722
0.245075	31.6997
0.390237	32.0798
0.461842	32.0699
0.533464	32.4601
0.608945	32.5831
0.682501	32.973
0.740591	33.765
0.79867	34.2904
0.837402	34.9517
0.876154	36.1464
0.912997	38.008
0.938269	40.9379
0.953896	44.6691
0.96766	50.2672
