Adsorption isotherm of Carbon Dioxide on MOF-200
DOI: 10.1039/C1cc11618e
Adsorbate Carbon Dioxide: InChIKey CURLTUGMZLYLDI-UHFFFAOYSA-N
Temperature: 298 K
Tabular data in the source: 0
pressure (bar)	uptake (cm3(STP)/g)
3.75	16.2722
7.5	22.1893
10	29.5858
11.25	35.503
12.9545	41.4201
16.25	56.213
20	69.5266
23.75	91.716
26.3636	125.74
28.0682	140.533
30	168.639
33.0682	196.746
35.1136	223.373
37.9545	238.166
41.1364	251.479
46.1364	266.272
50.1136	267.751
