Adsorption isotherm of Carbon Dioxide on MAXSORB
DOI: 10.1039/C1cc11618e
Adsorbate Carbon Dioxide: InChIKey CURLTUGMZLYLDI-UHFFFAOYSA-N
Temperature: 298 K
Tabular data in the source: 0
pressure (bar)	uptake (cm3(STP)/g)
0.909091	13.3136
2.04545	20.7101
3.18182	28.1065
5.34091	39.9408
7.5	48.8166
9.43182	56.213
11.5909	63.6095
14.6591	69.5266
17.7273	73.9645
20.5682	79.8817
24.5455	87.2781
26.7045	91.716
29.7727	93.1953
34.6591	97.6331
39.3182	103.55
44.4318	113.905
49.2045	127.219
