Adsorption isotherm of Carbon Dioxide on VR-93
DOI: 10.1039/C1cc11618e
Adsorbate Carbon Dioxide: InChIKey CURLTUGMZLYLDI-UHFFFAOYSA-N
Temperature: 298 K
Tabular data in the source: 0
pressure (bar)	uptake (mmol/g)
1.4742	6.66808
2.9484	11.2387
5.15971	15.4252
7.12531	18.0872
9.45946	20.7477
11.3022	22.4568
14.3735	24.3519
17.4447	26.4376
20.2703	27.3802
24.4472	28.699
26.4128	29.4542
29.3612	30.5871
34.5209	31.7114
39.312	33.0279
44.1032	34.7257
49.3857	36.4217
