Adsorption isotherm of Carbon Dioxide on VR-5
DOI: 10.1039/C1cc11618e
Adsorbate Carbon Dioxide: InChIKey CURLTUGMZLYLDI-UHFFFAOYSA-N
Temperature: 298 K
Tabular data in the source: 0
pressure (bar)	uptake (mmol/g)
0.0681265	0.47181
0.167883	1.03798
0.270073	1.58528
0.379562	2.13258
0.491484	2.62326
0.596107	3.09507
0.693431	3.49139
0.798054	3.86884
0.890511	4.24629
0.970803	4.5105
