Adsorption isotherm of Carbon Dioxide on MOF-200
DOI: 10.1039/C1cc11618e
Adsorbate Carbon Dioxide: InChIKey CURLTUGMZLYLDI-UHFFFAOYSA-N
Temperature: 298 K
Tabular data in the source: 0
pressure (bar)	uptake (mmol/g)
3.6855	2.8461
7.37101	4.54814
9.95086	5.87305
11.1794	7.2031
12.8993	8.53128
16.0934	11.5699
19.7789	14.416
23.5872	18.5964
26.1671	25.6416
27.887	28.6859
29.9754	34.2076
32.9238	39.9167
34.7666	45.6299
37.9607	48.2872
41.1548	51.1352
46.1916	53.9762
49.8771	54.3435
