Adsorption isotherm of Carbon Dioxide on MOF-177
DOI: 10.1039/C1cc11618e
Adsorbate Carbon Dioxide: InChIKey CURLTUGMZLYLDI-UHFFFAOYSA-N
Temperature: 298 K
Tabular data in the source: 0
pressure (bar)	uptake (mmol/g)
0.0510949	0.0377448
0.0875912	0.0188724
0.0997567	0.0566172
0.150852	0.113234
0.199513	0.132107
0.498783	0.415193
0.70073	0.566172
0.800487	0.660534
0.89781	0.736024
1	0.830385
