Adsorption isotherm of Carbon Dioxide on VR-5
DOI: 10.1039/C1cc11618e
Adsorbate Carbon Dioxide: InChIKey CURLTUGMZLYLDI-UHFFFAOYSA-N
Temperature: 298 K
Tabular data in the source: 0
pressure (bar)	uptake (cm3(STP)/g)
1.47727	68.0473
3.06818	115.385
5	159.763
7.15909	187.87
9.43182	217.456
11.4773	233.728
14.3182	254.438
17.3864	273.669
20.4545	286.982
24.5455	300.296
26.4773	309.172
29.5455	319.527
34.5455	334.32
39.4318	346.154
44.3182	363.905
49.4318	381.657
