Adsorption isotherm of Carbon Dioxide on MOF-177
DOI: 10.1039/C1cc11618e
Adsorbate Carbon Dioxide: InChIKey CURLTUGMZLYLDI-UHFFFAOYSA-N
Temperature: 298 K
Tabular data in the source: 0
pressure (bar)	uptake (mmol/g)
1.84275	1.51839
3.56265	2.84657
4.05405	3.79808
5.52826	5.1272
7.49386	7.40783
8.47666	8.54815
9.33661	10.261
10.3194	11.592
12.1622	13.8731
13.0221	15.5859
14.0049	18.4423
14.9877	19.7733
15.9705	22.439
16.4619	23.9625
17.3219	25.1033
18.6732	27.005
19.656	27.7639
20.516	28.5233
21.4988	29.0916
23.3415	30.2287
25.1843	30.9843
27.1499	31.5489
29.8526	32.492
31.6953	32.8663
33.6609	33.2401
35.5037	33.4238
38.3292	33.2223
40.172	33.406
43.1204	33.3947
