Adsorption isotherm of Carbon Dioxide on VR-93
DOI: 10.1039/C1cc11618e
Adsorbate Carbon Dioxide: InChIKey CURLTUGMZLYLDI-UHFFFAOYSA-N
Temperature: 298 K
Tabular data in the source: 0
pressure (bar)	uptake (mmol/g)
0.0462287	0.358576
0.175182	1.15122
0.289538	1.77401
0.386861	2.26469
0.486618	2.75537
0.600973	3.26492
0.698297	3.69899
0.810219	4.13306
0.912409	4.54825
0.987835	4.81246
