Adsorption isotherm of Carbon Dioxide on VR-93
DOI: 10.1039/C1cc11618e
Adsorbate Carbon Dioxide: InChIKey CURLTUGMZLYLDI-UHFFFAOYSA-N
Temperature: 298 K
Tabular data in the source: 0
pressure (bar)	uptake (cm3(STP)/g)
0.320513	20.6612
0.854701	55.0964
3.73932	154.27
5.12821	166.667
5.98291	194.215
10.4701	246.556
16.5598	301.653
25.8547	355.372
35.8974	407.713
38.8889	424.242
40.2778	428.375
