Adsorption isotherm of Carbon Dioxide on MOF-200
DOI: 10.1039/C1cc11618e
Adsorbate Carbon Dioxide: InChIKey CURLTUGMZLYLDI-UHFFFAOYSA-N
Temperature: 298 K
Tabular data in the source: 0
pressure (bar)	uptake (mmol/g)
0.0462287	0.0754896
0.0851582	0.113234
0.0997567	0.150979
0.145985	0.207596
0.19708	0.264214
0.498783	0.603917
0.698297	0.811513
0.798054	0.905875
0.900243	1.01911
1	1.11347
