Adsorption isotherm of Carbon Dioxide on VR-93
DOI: 10.1039/C1cc11618e
Adsorbate Carbon Dioxide: InChIKey CURLTUGMZLYLDI-UHFFFAOYSA-N
Temperature: 298 K
Tabular data in the source: 0
pressure (bar)	uptake (cm3(STP)/g)
0.42735	45.4545
0.534188	59.2287
1.17521	79.8898
1.49573	103.306
2.35043	130.854
3.73932	172.176
4.80769	188.705
5.98291	217.631
10.4701	260.331
19.4444	323.691
20.7265	342.975
28.5256	380.165
30.7692	381.543
35.2564	400.826
38.9957	426.997
40.7051	431.129
45.6197	458.678
