Adsorption isotherm of Carbon Dioxide on VR-93
DOI: 10.1039/C1cc11618e
Adsorbate Carbon Dioxide: InChIKey CURLTUGMZLYLDI-UHFFFAOYSA-N
Temperature: 298 K
Tabular data in the source: 0
pressure (bar)	uptake (mmol/g)
0.614251	3.42985
0.982801	4.95386
1.7199	7.62053
3.31695	11.6187
5.15971	15.6159
7.24816	18.8494
9.33661	21.3202
11.4251	23.4097
14.2506	26.0684
17.3219	28.3448
20.2703	30.8124
24.3243	33.2757
26.6585	34.4109
29.484	35.3535
34.2752	37.6234
39.0663	40.0839
44.1032	42.7342
49.14	46.7192
