Adsorption isotherm of Carbon Dioxide on VR-93
DOI: 10.1039/C1cc11618e
Adsorbate Carbon Dioxide: InChIKey CURLTUGMZLYLDI-UHFFFAOYSA-N
Temperature: 298 K
Tabular data in the source: 0
pressure (bar)	uptake (cm3(STP)/g)
0.227273	23.6686
0.681818	36.9822
1.02273	48.8166
1.70455	78.4024
3.29545	121.302
5.22727	162.722
7.27273	193.787
9.31818	221.893
11.3636	245.562
14.4318	272.189
17.3864	297.337
20.3409	323.964
24.4318	349.112
26.9318	362.426
29.5455	371.302
34.4318	396.45
39.2045	421.598
44.4318	449.704
49.2045	491.124
