Adsorption isotherm of Carbon Dioxide on VR-93
DOI: 10.1039/C1cc11618e
Adsorbate Carbon Dioxide: InChIKey CURLTUGMZLYLDI-UHFFFAOYSA-N
Temperature: 298 K
Tabular data in the source: 0
pressure (bar)	uptake (cm3(STP)/g)
1.49573	92.2865
2.35043	123.967
3.63248	165.289
4.70085	173.554
5.98291	205.234
10.0427	250.689
10.4701	260.331
19.3376	334.711
20.9402	337.466
28.4188	378.788
30.8761	387.052
35.1496	407.713
38.8889	425.62
40.3846	429.752
45.6197	451.791
