Adsorption isotherm of Carbon Dioxide on MAXSORB
DOI: 10.1039/C1cc11618e
Adsorbate Carbon Dioxide: InChIKey CURLTUGMZLYLDI-UHFFFAOYSA-N
Temperature: 298 K
Tabular data in the source: 0
pressure (bar)	uptake (mmol/g)
1.10565	2.28391
1.84275	3.99719
3.4398	5.13517
5.28256	6.65356
7.24816	8.17148
9.45946	9.11643
11.4251	10.0623
14.3735	11.1951
17.4447	12.3275
20.3931	13.079
24.4472	14.0169
26.5356	14.3903
29.6069	15.1413
34.5209	15.8852
39.1892	16.6301
44.226	18.1364
49.2629	20.2146
