Adsorption isotherm of Carbon Dioxide on MAXSORB
DOI: 10.1039/C1cc11618e
Adsorbate Carbon Dioxide: InChIKey CURLTUGMZLYLDI-UHFFFAOYSA-N
Temperature: 298 K
Tabular data in the source: 0
pressure (bar)	uptake (mmol/g)
0.0413625	0.169852
0.172749	0.566172
0.223844	0.698279
0.374696	1.05685
0.43309	1.15122
0.588808	1.45317
0.644769	1.56641
0.720195	1.69852
0.883212	1.96273
0.980535	2.13258
