Adsorption isotherm of Carbon Dioxide on MOF-177
DOI: 10.1039/C1cc11618e
Adsorbate Carbon Dioxide: InChIKey CURLTUGMZLYLDI-UHFFFAOYSA-N
Temperature: 298 K
Tabular data in the source: 0
pressure (bar)	uptake (cm3(STP)/g)
1.93182	14.7929
3.75	29.5858
4.20455	36.9822
5.56818	47.3373
7.61364	71.0059
8.40909	79.8817
9.43182	94.6746
10.2273	110.947
12.2727	133.136
13.2955	149.408
13.9773	174.556
15.1136	189.349
16.0227	215.976
16.3636	229.29
17.2727	242.604
18.75	260.355
19.7727	267.751
20.7955	273.669
21.4773	281.065
23.5227	291.42
25.3409	297.337
27.2727	306.213
30	313.609
31.7045	318.047
33.6364	321.006
35.5682	322.485
38.4091	322.485
40.4545	323.964
43.0682	325.444
