Adsorption isotherm of Nitrogen on SUMOF-3
DOI: 10.1039/C2jm15933c
Adsorbate Nitrogen: InChIKey IJGRMHOSHXDMSA-UHFFFAOYSA-N
Temperature: 273 K
Tabular data in the source: 0
pressure (bar)	uptake (mmol/g)
0.0101843	0.0274295
0.014505	0.0373041
0.0194428	0.0482759
0.0237635	0.0570533
0.0280841	0.0669279
0.033022	0.0768025
0.0373426	0.0855799
0.0419719	0.0954545
0.0466011	0.104232
0.0512304	0.113009
0.055551	0.12069
0.0648095	0.138245
0.0691301	0.144828
0.0737594	0.153605
0.0783886	0.160188
0.0830179	0.166771
0.0873385	0.174451
0.0922764	0.181034
0.0962884	0.187618
0.100918	0.194201
0.105547	0.199687
0.109868	0.205172
0.114497	0.211755
0.118817	0.217241
0.123447	0.22163
0.127767	0.226019
0.132705	0.232602
