Adsorption isotherm of Carbon Dioxide on SUMOF-2
DOI: 10.1039/C2jm15933c
Adsorbate Carbon Dioxide: InChIKey CURLTUGMZLYLDI-UHFFFAOYSA-N
Temperature: 273 K
Tabular data in the source: 0
pressure (bar)	uptake (mmol/g)
0.00191831	0.173797
0.00863238	0.614973
0.0159859	0.962567
0.0227	1.28342
0.0297338	1.59091
0.0367676	1.84492
0.0438014	2.09893
0.0511549	2.33957
0.0575492	2.55348
0.064583	2.79412
0.0722562	2.98128
0.0789703	3.15508
0.0860041	3.32888
0.0927182	3.4893
0.099752	3.64973
0.106786	3.79679
0.1135	3.91711
0.120853	4.0508
0.127887	4.17112
0.134921	4.27807
