Adsorption isotherm of Nitrogen on SUMOF-4
DOI: 10.1039/C2jm15933c
Adsorbate Nitrogen: InChIKey IJGRMHOSHXDMSA-UHFFFAOYSA-N
Temperature: 273 K
Tabular data in the source: 0
pressure (bar)	uptake (mmol/g)
0.00123447	0.00329154
0.00648095	0.0164577
0.010493	0.0230408
0.014505	0.0340125
0.0191342	0.0416928
0.0234549	0.0515674
0.0283927	0.061442
0.033022	0.0702194
0.0373426	0.0768025
0.0419719	0.0866771
0.0466011	0.0943574
0.0512304	0.103135
0.0558596	0.110815
0.0604889	0.118495
0.0648095	0.125078
0.0694387	0.131661
0.074068	0.138245
0.07808	0.144828
0.0830179	0.152508
0.0876471	0.157994
0.0919677	0.16348
0.0962884	0.170063
0.101226	0.174451
0.105855	0.179937
0.110176	0.185423
0.114805	0.189812
0.119126	0.194201
0.124064	0.200784
0.128076	0.204075
0.132397	0.208464
