Adsorption isotherm of Nitrogen on SUMOF-2
DOI: 10.1039/C2jm15933c
Adsorbate Nitrogen: InChIKey IJGRMHOSHXDMSA-UHFFFAOYSA-N
Temperature: 273 K
Tabular data in the source: 0
pressure (bar)	uptake (mmol/g)
0.00092585	0.00548589
0.00678957	0.0208464
0.0101843	0.0329154
0.014505	0.0460815
0.0191342	0.0603448
0.0237635	0.073511
0.0280841	0.0866771
0.033022	0.0998433
0.0376512	0.113009
0.0419719	0.123981
0.0462925	0.137147
0.0509217	0.149216
0.055551	0.161285
0.0601802	0.173354
0.0648095	0.184326
0.0694387	0.197492
0.0737594	0.208464
0.0783886	0.219436
0.0830179	0.231505
0.0876471	0.242476
0.0916591	0.252351
0.096597	0.263323
0.100918	0.274295
0.105547	0.283072
0.114805	0.305016
0.119126	0.31489
0.123755	0.324765
0.128076	0.333542
0.133014	0.344514
