Adsorption isotherm of Carbon Dioxide on SUMOF-3
DOI: 10.1039/C2jm15933c
Adsorbate Carbon Dioxide: InChIKey CURLTUGMZLYLDI-UHFFFAOYSA-N
Temperature: 273 K
Tabular data in the source: 0
pressure (bar)	uptake (mmol/g)
0.000639436	0.147059
0.00159859	0.254011
0.0089521	0.895722
0.0156662	1.31016
0.0227	1.61765
0.0297338	1.88503
0.0367676	2.08556
0.0438014	2.27273
0.0508351	2.41979
0.0578689	2.55348
0.0649027	2.68717
0.0722562	2.79412
0.0789703	2.8877
0.0856844	2.98128
0.0930379	3.07487
0.099752	3.14171
0.106786	3.20856
0.11382	3.2754
0.120853	3.34225
0.127887	3.40909
0.134921	3.46257
