Adsorption isotherm of Nitrogen on SUMOF-3
DOI: 10.1039/C2jm15933c
Adsorbate Nitrogen: InChIKey IJGRMHOSHXDMSA-UHFFFAOYSA-N
Temperature: 77 K
Tabular data in the source: 0
pressure (bar)	uptake (mmol/g)
1.0726e-06	2.01592
1.17302e-06	2.28117
1.36222e-06	2.49337
1.67964e-06	2.70557
2.13367e-06	3.02387
2.79336e-06	3.23607
3.88317e-06	3.39523
5.73121e-06	3.60743
8.45876e-06	3.81963
1.21148e-05	4.08488
1.63443e-05	4.24403
2.13957e-05	4.50928
2.71842e-05	4.72149
3.55891e-05	4.93369
4.52133e-05	5.19894
5.74482e-05	5.35809
6.87443e-05	5.57029
8.99905e-05	5.83554
0.00011096	6.04775
0.000132766	6.313
0.000158868	6.5252
0.000184492	6.7374
0.000220763	6.9496
0.000264166	7.1618
0.000306773	7.37401
0.000335526	7.58621
0.00037817	7.74536
0.000413644	7.90451
0.000466172	8.11671
0.000509867	8.32891
0.000610164	8.48806
0.000730006	8.80637
0.000873528	9.01857
0.00110986	9.23077
0.00141019	9.38992
0.00196009	9.65517
0.00280748	9.86737
0.00378797	9.97347
0.00526534	10.1857
0.00689393	10.3448
0.00902748	10.3979
0.0118186	10.6101
0.0257488	10.9284
0.036889	10.9814
0.045489	11.1406
0.0578038	11.2467
0.0734525	11.3528
0.0879157	11.4058
0.111716	11.5119
0.160028	11.6711
0.197379	11.6711
0.21593	11.7241
0.258405	11.8833
0.338378	11.9363
0.430021	11.9894
0.563108	12.0424
0.694541	12.0424
0.856515	12.1485
0.964752	12.7321
0.965289	12.3607
