Adsorption isotherm of Nitrogen on SUMOF-4
DOI: 10.1039/C2jm15933c
Adsorbate Nitrogen: InChIKey IJGRMHOSHXDMSA-UHFFFAOYSA-N
Temperature: 77 K
Tabular data in the source: 0
pressure (bar)	uptake (mmol/g)
1.26379e-06	1.32626
1.58481e-06	1.48541
2.07447e-06	1.80371
2.71561e-06	2.06897
3.34839e-06	2.28117
4.00679e-06	2.49337
4.65293e-06	2.70557
5.73676e-06	2.97082
6.8651e-06	3.12997
7.9718e-06	3.39523
8.98414e-06	3.60743
1.04349e-05	3.71353
1.17592e-05	3.97878
1.28611e-05	4.19098
1.53874e-05	4.50928
1.73427e-05	4.66844
2.01385e-05	4.93369
2.26959e-05	5.14589
2.6354e-05	5.41114
2.97034e-05	5.57029
3.44887e-05	5.88859
3.88747e-05	5.99469
4.79178e-05	6.4191
6.08564e-05	6.89655
6.85641e-05	7.32095
7.27757e-05	7.53316
8.20119e-05	7.79841
8.96967e-05	8.01061
0.00010109	8.22281
0.000110562	8.43501
0.000117364	8.59416
0.000136294	8.80637
0.000144666	9.01857
0.000167972	9.33687
0.000173012	9.60212
0.000206979	9.97347
0.000213224	10.1326
0.000226327	10.3448
0.000255027	10.6631
0.000270674	10.9284
0.000304949	11.3528
0.000333531	11.565
0.00036476	11.8302
0.00041109	12.0424
0.000463294	12.2546
0.000537968	12.5199
0.000624779	12.679
0.000747509	12.9973
0.000921757	13.1565
0.00117111	13.3687
0.00153319	13.5809
0.00194812	13.7401
0.00262801	13.9523
0.00344109	14.0584
0.00450533	14.2175
0.00572462	14.3767
0.00727439	14.4828
0.0084498	14.5358
0.00981492	14.5889
0.0263637	15.1724
0.0366494	15.3316
0.0479851	15.4907
0.0557104	15.8621
0.0774331	16.1273
0.0954919	16.2334
0.114304	16.2334
0.154245	16.2334
0.196003	16.3395
0.264473	16.3926
0.307225	16.3926
0.346324	16.4456
0.440154	16.4456
0.526777	16.5517
0.710794	16.6048
0.82563	16.6578
0.959018	16.7109
