Adsorption isotherm of Carbon Dioxide on SUMOF-4
DOI: 10.1039/C2jm15933c
Adsorbate Carbon Dioxide: InChIKey CURLTUGMZLYLDI-UHFFFAOYSA-N
Temperature: 273 K
Tabular data in the source: 0
pressure (bar)	uptake (mmol/g)
0.00191831	0.106952
0.0089521	0.414439
0.0159859	0.668449
0.0223803	0.895722
0.0297338	1.09626
0.0364478	1.29679
0.0434816	1.48396
0.0508351	1.69786
0.0575492	1.87166
0.0649027	2.05882
0.0716168	2.23262
0.0789703	2.39305
0.0856844	2.56684
0.0927182	2.7139
0.100072	2.87433
0.106786	3.02139
0.114139	3.19519
0.120853	3.34225
0.127567	3.46257
0.134601	3.59626
