Adsorption isotherm of Nitrogen on SUMOF-2
DOI: 10.1039/C2jm15933c
Adsorbate Nitrogen: InChIKey IJGRMHOSHXDMSA-UHFFFAOYSA-N
Temperature: 77 K
Tabular data in the source: 0
pressure (bar)	uptake (mmol/g)
1.53765e-06	1.64456
1.84012e-06	1.80371
2.2019e-06	2.01592
2.55727e-06	2.17507
2.7967e-06	2.44032
3.44784e-06	2.75862
3.65988e-06	2.91777
4.37952e-06	3.12997
4.78957e-06	3.39523
5.7295e-06	3.81963
6.45709e-06	4.03183
7.27657e-06	4.29708
7.95915e-06	4.45623
8.70436e-06	4.72149
9.81062e-06	4.88064
1.04133e-05	5.09284
1.17337e-05	5.41114
1.24536e-05	5.67639
1.40364e-05	5.83554
1.53506e-05	6.1008
1.67879e-05	6.36605
1.83631e-05	6.5252
2.00838e-05	6.7374
2.33215e-05	7.00265
2.62831e-05	7.21485
3.05223e-05	7.42706
3.6523e-05	7.63926
4.37035e-05	7.85146
5.38873e-05	8.06366
6.64441e-05	8.27586
8.44183e-05	8.48806
0.000117327	8.80637
0.000158277	9.01857
0.000226703	9.23077
0.000305828	9.44297
0.00036592	9.70822
0.000479056	9.92042
0.000773565	10.1326
0.00136662	10.3448
0.00248815	10.4509
0.00413996	10.6631
0.00629661	10.8223
0.00929473	10.9284
0.0121713	10.9814
0.025734	11.2997
0.0336935	11.4589
0.0403243	11.565
0.0595191	11.7241
0.0734052	11.7772
0.0802983	11.8833
0.0932796	11.8833
0.111645	11.9363
0.155229	11.9894
0.250656	12.2016
0.328205	12.3077
0.442821	12.4138
0.546092	12.5199
0.653511	12.679
0.693769	12.7851
0.758972	12.8382
0.830237	12.9443
0.964139	13.1565
