Adsorption isotherm of Methane on COF-6
DOI: 10.1021/Jp209541e
Adsorbate Methane: InChIKey VNWKTOKETHGBQD-UHFFFAOYSA-N
Temperature: 298 K
Tabular data in the source: 0
pressure (bar)	uptake (volume/volume)
2.97767	15.6147
3.72208	28.1121
4.4665	40.6095
5.95533	48.9377
10.4218	84.3388
20.8437	122.844
30.5211	146.769
40.1985	160.277
50.6203	172.741
60.2978	181.041
70.7196	189.338
80.397	195.554
90.8189	199.685
100.496	204.859
149.628	219.272
200.993	230.552
250.868	236.629
300.744	243.747
