Adsorption isotherm of Methane on COF-102-Ant
DOI: 10.1021/Jp209541e
Adsorbate Methane: InChIKey VNWKTOKETHGBQD-UHFFFAOYSA-N
Temperature: 298 K
Tabular data in the source: 0
pressure (bar)	uptake (volume/volume)
1.99115	26.9947
3.9823	59.5745
4.64602	45.6117
5.30973	71.6755
9.95575	112.633
19.9115	152.66
29.8673	173.138
49.7788	196.41
60.3982	204.787
70.354	210.372
80.3097	217.819
90.9292	221.543
100.221	223.404
119.469	229.92
150.664	237.367
171.239	241.09
200.442	246.676
224.336	250.399
250.885	252.261
273.451	254.122
300	258.777
