Adsorption isotherm of Methane on COF-102-HnHex
DOI: 10.1021/Jp209541e
Adsorbate Methane: InChIKey VNWKTOKETHGBQD-UHFFFAOYSA-N
Temperature: 298 K
Tabular data in the source: 0
pressure (bar)	uptake (volume/volume)
5.18831	16.6847
9.63257	32.3251
20.7732	57.3638
29.6906	75.1031
40.0983	93.8892
50.5149	108.509
60.1875	122.084
70.6107	133.579
81.0317	146.115
90.7176	153.44
99.6506	163.888
150.312	203.647
200.254	230.904
250.202	255.035
300	269.795
