Adsorption isotherm of Methane on COF-10
DOI: 10.1021/Jp209541e
Adsorbate Methane: InChIKey VNWKTOKETHGBQD-UHFFFAOYSA-N
Temperature: 298 K
Tabular data in the source: 0
pressure (bar)	uptake (volume/volume)
3.72208	9.36208
6.69975	19.7684
11.1663	38.5029
20.8437	67.636
31.2655	90.5164
40.1985	106.11
50.6203	120.658
60.2978	134.166
70.7196	144.546
79.6526	155.973
90.0744	165.312
99.7519	174.654
150.372	210.936
200.248	239.93
250.868	260.587
300.744	280.206
