Adsorption isotherm of Methane on COF-108-Met-Met
DOI: 10.1021/Jp209541e
Adsorbate Methane: InChIKey VNWKTOKETHGBQD-UHFFFAOYSA-N
Temperature: 298 K
Tabular data in the source: 0
pressure (bar)	uptake (volume/volume)
6.67758	10.4245
11.113	25.0359
21.4838	49.0297
31.8657	67.7995
41.5054	85.5271
51.1496	101.165
60.7938	116.803
70.4424	130.352
81.5798	143.895
91.2351	154.309
100.884	167.858
149.918	213.657
200.463	249.003
251.021	278.081
300.847	301.937
