Adsorption isotherm of Methane on COF-8
DOI: 10.1021/Jp209541e
Adsorbate Methane: InChIKey VNWKTOKETHGBQD-UHFFFAOYSA-N
Temperature: 298 K
Tabular data in the source: 0
pressure (bar)	uptake (volume/volume)
2.97767	11.448
5.21092	22.8986
10.4218	47.8805
20.8437	86.386
30.5211	112.394
40.1985	134.235
50.6203	146.699
60.2978	160.207
70.7196	170.588
80.397	182.013
90.8189	189.268
101.241	197.565
149.628	224.48
200.993	244.094
250.868	257.462
300.744	268.747
