Adsorption isotherm of Methane on COF-102-HiPr
DOI: 10.1021/Jp209541e
Adsorbate Methane: InChIKey VNWKTOKETHGBQD-UHFFFAOYSA-N
Temperature: 298 K
Tabular data in the source: 0
pressure (bar)	uptake (volume/volume)
10.3629	15.625
19.9876	29.1667
30.3616	39.5833
40.7377	48.9583
50.3757	56.25
60.0137	63.5417
70.4009	67.7083
80.0433	72.9167
90.4327	76.0417
100.077	80.2083
150.535	97.9167
199.523	108.333
249.257	116.667
299.735	125
