Adsorption isotherm of Methane on COF-1
DOI: 10.1021/Jp209541e
Adsorbate Methane: InChIKey VNWKTOKETHGBQD-UHFFFAOYSA-N
Temperature: 298 K
Tabular data in the source: 0
pressure (bar)	uptake (volume/volume)
2.97767	40.6147
3.72208	69.7787
4.4665	90.6095
5.21092	101.024
10.4218	127.047
20.8437	139.511
40.1985	144.652
61.0422	147.705
80.397	148.679
90.8189	149.685
100.496	150.693
150.372	149.478
200.248	149.305
250.868	150.171
300.744	149.997
