Adsorption isotherm of Methane on COF-102-HPr
DOI: 10.1021/Jp209541e
Adsorbate Methane: InChIKey VNWKTOKETHGBQD-UHFFFAOYSA-N
Temperature: 298 K
Tabular data in the source: 0
pressure (bar)	uptake (volume/volume)
2.93936	14.5833
4.37809	36.4583
5.84556	44.7917
10.9883	70.8333
20.5799	100
30.2002	115.625
39.8382	122.917
50.2166	131.25
60.5994	137.5
70.2462	140.625
99.9249	152.083
150.4	161.458
200.135	169.792
249.876	175
298.877	179.167
