Adsorption isotherm of Methane on COF-105
DOI: 10.1021/Jp209541e
Adsorbate Methane: InChIKey VNWKTOKETHGBQD-UHFFFAOYSA-N
Temperature: 298 K
Tabular data in the source: 0
pressure (bar)	uptake (volume/volume)
10.4218	26.1194
19.3548	52.2388
29.7767	75.2239
40.1985	97.1642
49.8759	115.97
60.2978	132.687
69.9752	147.313
80.397	161.94
90.0744	173.433
99.7519	187.015
150.372	237.164
200.248	273.731
250.124	304.03
300	328.06
