Adsorption isotherm of Methane on COF-105-Met-Met
DOI: 10.1021/Jp209541e
Adsorbate Methane: InChIKey VNWKTOKETHGBQD-UHFFFAOYSA-N
Temperature: 298 K
Tabular data in the source: 0
pressure (bar)	uptake (volume/volume)
11.113	25.0359
22.2305	47.9823
31.8591	70.9338
41.4988	88.6614
61.5248	123.069
80.8265	148.077
91.9662	160.575
100.873	173.082
151.393	219.921
201.192	256.314
251.008	284.35
300.836	307.161
