Adsorption isotherm of Methane on COF-102-Eth-trans
DOI: 10.1021/Jp209541e
Adsorbate Methane: InChIKey VNWKTOKETHGBQD-UHFFFAOYSA-N
Temperature: 298 K
Tabular data in the source: 0
pressure (bar)	uptake (volume/volume)
2.65487	25.133
3.31858	34.4415
9.95575	75.3989
20.5752	128.457
29.8673	161.037
39.1593	185.239
59.7345	215.027
69.0265	226.197
79.646	234.574
89.6018	242.021
100.221	249.468
137.389	264.362
150.664	269.947
200.442	287.633
223.009	292.287
249.558	297.872
276.106	301.596
300	306.25
