Adsorption isotherm of Methane on COF-108
DOI: 10.1021/Jp209541e
Adsorbate Methane: InChIKey VNWKTOKETHGBQD-UHFFFAOYSA-N
Temperature: 298 K
Tabular data in the source: 0
pressure (bar)	uptake (volume/volume)
10.4218	26.1194
20.0993	48.0597
29.7767	68.9552
40.1985	88.806
49.1315	106.567
60.2978	121.194
70.7196	136.866
80.397	150.448
89.33	162.985
100.496	175.522
150.372	226.716
200.248	263.284
250.124	292.537
300.744	319.701
