Adsorption isotherm of Methane on COF-102
DOI: 10.1021/Jp209541e
Adsorbate Methane: InChIKey VNWKTOKETHGBQD-UHFFFAOYSA-N
Temperature: 298 K
Tabular data in the source: 0
pressure (bar)	uptake (volume/volume)
10.6195	43.75
20.5752	86.5691
30.531	122.872
39.823	151.729
50.4425	175.931
60.3982	196.41
70.354	213.165
80.3097	227.128
90.2655	240.16
100.221	249.468
123.451	266.223
150	284.84
170.575	296.011
199.779	309.973
223.009	317.42
250.221	326.729
272.124	333.245
300.664	340.691
