Adsorption isotherm of Methane on COF-102-Met-Met
DOI: 10.1021/Jp209541e
Adsorbate Methane: InChIKey VNWKTOKETHGBQD-UHFFFAOYSA-N
Temperature: 298 K
Tabular data in the source: 0
pressure (bar)	uptake (volume/volume)
5.13176	31.2322
10.9752	77.0452
11.0105	60.3784
20.5646	107.22
30.154	137.395
39.7612	159.237
50.1219	175.868
59.7445	190.418
70.1119	203.923
80.4881	213.262
90.1196	223.645
99.7598	229.862
149.46	254.689
199.177	271.183
250.386	284.547
300.113	296.875
