Adsorption isotherm of Methane on MOF-200
DOI: 10.1021/Jp209541e
Adsorbate Methane: InChIKey VNWKTOKETHGBQD-UHFFFAOYSA-N
Temperature: 298 K
Tabular data in the source: 0
pressure (bar)	uptake (volume/volume)
9.95575	23.2713
19.9115	50.266
29.8673	70.7447
40.4867	91.2234
50.4425	108.91
60.3982	124.734
69.6903	141.489
79.646	155.452
90.2655	167.553
100.221	180.585
126.106	207.58
150.664	231.782
176.549	251.33
199.779	269.947
223.009	283.91
250.221	296.941
274.779	309.973
300.664	320.213
