Adsorption isotherm of Methane on COF-103
DOI: 10.1021/Jp209541e
Adsorbate Methane: InChIKey VNWKTOKETHGBQD-UHFFFAOYSA-N
Temperature: 298 K
Tabular data in the source: 0
pressure (bar)	uptake (volume/volume)
4.4665	20.8955
9.67742	47.0149
19.3548	89.8507
29.7767	126.418
39.4541	156.716
49.8759	180.746
60.2978	201.642
69.9752	218.358
80.397	232.985
89.33	245.522
100.496	257.015
150.372	294.627
200.248	318.657
250.124	339.552
300	352.09
