Adsorption isotherm of Methane on COF-105-Eth-trans
DOI: 10.1021/Jp209541e
Adsorbate Methane: InChIKey VNWKTOKETHGBQD-UHFFFAOYSA-N
Temperature: 298 K
Tabular data in the source: 0
pressure (bar)	uptake (volume/volume)
2.65487	7.44681
3.9823	14.8936
9.95575	34.4415
19.9115	68.883
30.531	96.8085
39.823	121.941
50.4425	143.351
60.3982	162.899
69.6903	180.585
79.646	195.479
89.6018	208.511
100.221	220.612
150	271.809
174.558	287.633
200.442	306.25
225.664	318.351
250.221	329.521
278.097	342.553
301.327	350
