Adsorption isotherm of Methane on COF-202
DOI: 10.1021/Jp209541e
Adsorbate Methane: InChIKey VNWKTOKETHGBQD-UHFFFAOYSA-N
Temperature: 298 K
Tabular data in the source: 0
pressure (bar)	uptake (volume/volume)
4.41773	17.7766
5.147	24.0478
5.87405	31.3637
11.0055	62.7249
21.3128	104.552
30.9064	132.794
41.2558	154.771
50.8715	172.565
60.4939	187.226
70.8654	198.754
80.4989	208.191
90.8749	217.63
100.511	226.022
150.943	255.451
200.655	274.43
250.379	288.185
300.111	297.762
