Adsorption isotherm of Methane on COF-5
DOI: 10.1021/Jp209541e
Adsorbate Methane: InChIKey VNWKTOKETHGBQD-UHFFFAOYSA-N
Temperature: 298 K
Tabular data in the source: 0
pressure (bar)	uptake (volume/volume)
3.72208	9.36208
5.21092	19.7736
10.4218	38.5055
20.8437	67.636
30.5211	90.519
40.9429	109.233
50.6203	124.824
60.2978	135.207
70.7196	145.588
80.397	154.929
90.0744	165.312
100.496	173.609
150.372	208.853
200.993	234.719
250.868	254.337
300.744	269.789
