Adsorption isotherm of Methane on COF-103-Met-Met
DOI: 10.1021/Jp209541e
Adsorbate Methane: InChIKey VNWKTOKETHGBQD-UHFFFAOYSA-N
Temperature: 298 K
Tabular data in the source: 0
pressure (bar)	uptake (volume/volume)
4.40023	26.0264
10.2724	58.2977
20.5646	107.22
30.154	137.395
40.4927	164.443
50.1087	182.118
59.7313	196.668
70.1009	209.132
80.4749	219.512
90.1063	229.895
99.7466	236.112
150.182	264.062
199.9	280.556
248.888	290.802
299.364	300.002
