Adsorption isotherm of Methane on COF-103-Eth-trans
DOI: 10.1021/Jp209541e
Adsorbate Methane: InChIKey VNWKTOKETHGBQD-UHFFFAOYSA-N
Temperature: 298 K
Tabular data in the source: 0
pressure (bar)	uptake (volume/volume)
4.64602	4.64602
9.95575	88.4309
19.9115	147.074
30.531	180.585
40.4867	203.856
50.4425	221.543
60.3982	233.644
70.354	245.745
79.646	253.191
90.2655	262.5
100.221	269.016
120.796	279.255
150	294.149
175.221	299.734
200.442	308.112
225	313.697
250.221	320.213
276.106	323.936
300	328.59
