Adsorption isotherm of Methane on COF-102-HtBu
DOI: 10.1021/Jp209541e
Adsorbate Methane: InChIKey VNWKTOKETHGBQD-UHFFFAOYSA-N
Temperature: 298 K
Tabular data in the source: 0
pressure (bar)	uptake (volume/volume)
10.3761	9.375
21.4971	17.7083
29.6499	25
40.0305	32.2917
50.4133	38.5417
60.0579	42.7083
70.4473	45.8333
80.8323	51.0417
90.4791	54.1667
100.124	58.3333
150.592	70.8333
199.578	82.2917
250.062	87.5
299.797	95.8333
