Adsorption isotherm of Methane on COF-102-HEt
DOI: 10.1021/Jp209541e
Adsorbate Methane: InChIKey VNWKTOKETHGBQD-UHFFFAOYSA-N
Temperature: 298 K
Tabular data in the source: 0
pressure (bar)	uptake (volume/volume)
5.14277	26.0417
10.29	50
20.6153	83.3333
30.9605	107.292
39.8382	122.917
50.2055	136.458
60.5817	145.833
70.2197	153.125
79.8577	160.417
90.2405	166.667
99.8807	172.917
149.596	190.625
200.062	204.167
249.799	211.458
298.791	219.792
