Adsorption isotherm of Methane on COF-212
DOI: 10.1021/Jp209541e
Adsorbate Methane: InChIKey VNWKTOKETHGBQD-UHFFFAOYSA-N
Temperature: 298 K
Tabular data in the source: 0
pressure (bar)	uptake (volume/volume)
11.1152	23.9911
22.2282	49.0271
31.8613	69.889
41.4965	89.7062
51.8807	107.431
61.5271	122.025
71.9201	135.57
81.5709	148.074
91.9639	161.62
100.87	174.126
150.647	220.968
201.192	256.314
250.268	282.263
300.838	306.116
