Adsorption isotherm of Methane on MOF-177
DOI: 10.1021/Jp209541e
Adsorbate Methane: InChIKey VNWKTOKETHGBQD-UHFFFAOYSA-N
Temperature: 298 K
Tabular data in the source: 0
pressure (bar)	uptake (volume/volume)
9.95575	33.5106
20.5752	68.883
30.531	99.6011
40.4867	125.665
50.4425	147.074
60.3982	165.691
70.354	183.378
79.646	196.41
90.2655	209.441
100.885	222.473
127.434	247.606
150.664	268.085
175.221	282.979
200.442	298.803
221.681	306.25
250.221	319.282
275.442	326.729
300.664	336.037
