Adsorption isotherm of Hydrogen on CPF-1
DOI: 10.1039/c1cc14836b
Adsorbate Hydrogen: InChIKey UFHFLCQGNIYNRP-UHFFFAOYSA-N
Temperature: 77 K
Tabular data in the source: 0
pressure (bar)	uptake (wt%)
0.000846528	0.0151486
0.053547	0.326848
0.136251	0.57153
0.192925	0.679837
0.359608	0.890069
0.551571	1.03111
0.718427	1.10719
0.903814	1.18546
1.06155	1.23555
1.23911	1.28352
