Adsorption isotherm of Carbon Dioxide on CPF-1
DOI: 10.1039/c1cc14836b
Adsorbate Carbon Dioxide: InChIKey CURLTUGMZLYLDI-UHFFFAOYSA-N
Temperature: 273 K
Tabular data in the source: 0
pressure (bar)	uptake (cm3(STP)/g)
0.0188513	4.11973
0.124665	18.3587
0.226649	29.9774
0.32938	39.9123
0.406879	46.8489
0.545179	56.9771
0.65367	63.1708
0.794286	70.4928
0.907553	75.5646
1.01679	80.0744
1.16054	85.1516
