Adsorption isotherm of Nitrogen on CPF-1
DOI: 10.1039/c1cc14836b
Adsorbate Nitrogen: InChIKey IJGRMHOSHXDMSA-UHFFFAOYSA-N
Temperature: 273 K
Tabular data in the source: 0
pressure (bar)	uptake (cm3(STP)/g)
0.0107197	0.750321
0.0995028	1.14012
0.174358	0.779028
0.260206	1.35542
0.383736	1.37709
0.483203	1.39454
0.565021	1.40889
0.680531	1.42916
0.80273	1.6377
0.887758	1.65262
1.00514	1.86032
