Adsorption isotherm of Carbon Dioxide on CPF-1
DOI: 10.1039/c1cc14836b
Adsorbate Carbon Dioxide: InChIKey CURLTUGMZLYLDI-UHFFFAOYSA-N
Temperature: 298 K
Tabular data in the source: 0
pressure (bar)	uptake (cm3(STP)/g)
0.0120872	1.68611
0.120305	7.69262
0.218315	12.2005
0.318948	15.2119
0.417429	17.8487
0.503588	19.7349
0.599919	21.9971
0.726495	25.2002
0.824941	26.7144
0.945883	29.3551
1.08341	32.373
