Adsorption isotherm of Nitrogen on CPF-1
DOI: 10.1039/c1cc14836b
Adsorbate Nitrogen: InChIKey IJGRMHOSHXDMSA-UHFFFAOYSA-N
Temperature: 77 K
Tabular data in the source: 0
pressure (bar)	uptake (cm3(STP)/g)
12.3647	0.0865569
46.6768	0.326754
90.2676	0.631905
124.273	0.869954
168.797	1.18164
192.32	1.34631
195.485	1.36846
197.714	1.38407
199.943	1.39967
203.081	1.42164
