Adsorption isotherm of Carbon Dioxide on IRMOF-1
DOI: 10.1021/jp307865n
Adsorbate Carbon Dioxide: InChIKey CURLTUGMZLYLDI-UHFFFAOYSA-N
Temperature: 298 K
Tabular data in the source: 0
pressure (bar)	uptake (mmol/g)
1.19623	1.05433
1.94431	1.79254
2.99288	3.05855
3.59388	4.11414
5.09119	5.80194
9.8963	13.7182
19.8964	19.1927
30.1751	21.179
40.1487	21.792
50.1194	21.8766
