Adsorption isotherm of Carbon Dioxide on MOF-5-NO2
DOI: 10.1021/jp307865n
Adsorbate Carbon Dioxide: InChIKey CURLTUGMZLYLDI-UHFFFAOYSA-N
Temperature: 298 K
Tabular data in the source: 0
pressure (bar)	uptake (mmol/g)
1.03245	2.1099
1.9174	4.4687
2.94985	6.95139
3.9823	9.18556
5.01475	11.1712
10.0295	15.8807
20.059	18.9624
30.0885	19.8073
40.118	20.6522
50.1475	21.1243
