Adsorption isotherm of Carbon Dioxide on IRMOF-1
DOI: 10.1021/jp307865n
Adsorbate Carbon Dioxide: InChIKey CURLTUGMZLYLDI-UHFFFAOYSA-N
Temperature: 298 K
Tabular data in the source: 0
pressure (bar)	uptake (mmol/g)
1.19681	1.16001
2.09369	1.89791
3.28992	2.95224
4.18738	3.79582
5.38419	4.95583
6.43219	6.11616
7.182	7.17143
8.23057	8.43744
9.43026	10.1259
10.4794	11.4976
11.3803	12.9753
12.4272	13.9242
13.6246	15.1899
14.5226	16.1392
15.5683	16.8768
16.6134	17.5087
17.6579	18.0349
18.7025	18.5611
19.7459	18.876
20.641	19.2968
21.6844	19.6117
24.0694	20.3464
25.8562	20.554
28.0906	20.972
32.1108	21.3863
34.1958	21.6989
36.2791	21.6945
38.363	21.7958
40.4469	21.8971
42.3814	21.893
