Adsorption isotherm of Carbon Dioxide on IRMOF-1
DOI: 10.1021/jp307865n
Adsorbate Carbon Dioxide: InChIKey CURLTUGMZLYLDI-UHFFFAOYSA-N
Temperature: 298 K
Tabular data in the source: 0
pressure (bar)	uptake (mmol/g)
2.09427	2.0036
2.99346	3.16424
3.8938	4.53624
4.94469	6.22499
10.0509	14.7747
20.0487	19.8265
30.0292	21.7077
40.2987	22.0031
50.1234	22.6164
