Adsorption isotherm of Carbon Dioxide on MTV-MOF-5-EI
DOI: 10.1021/jp307865n
Adsorbate Carbon Dioxide: InChIKey CURLTUGMZLYLDI-UHFFFAOYSA-N
Temperature: 298 K
Tabular data in the source: 0
pressure (bar)	uptake (mmol/g)
3.08824	3.23084
4.11765	3.85215
5.14706	4.47347
10	5.84036
19.8529	6.83446
30	7.20725
40	7.33151
50	7.7043
