Adsorption isotherm of Carbon Dioxide on MOF-177
DOI: 10.1021/jp307865n
Adsorbate Carbon Dioxide: InChIKey CURLTUGMZLYLDI-UHFFFAOYSA-N
Temperature: 298 K
Tabular data in the source: 0
pressure (bar)	uptake (mmol/g)
0.892857	0.477435
2.23214	1.90974
2.97619	2.70546
3.86905	3.66033
5.20833	4.77435
6.10119	5.88836
7.29167	7.32067
8.18452	8.59383
9.22619	10.0261
10.2679	11.7767
11.3095	13.8456
12.3512	15.7554
13.3929	17.9834
14.2857	19.8931
15.4762	22.1212
16.369	24.0309
17.4107	25.6223
18.6012	26.8955
19.6429	28.0095
20.5357	28.6461
21.7262	29.601
23.6607	30.5558
25.744	31.5107
27.6786	32.1473
30.506	32.943
31.8452	33.1022
33.7798	33.2613
36.0119	33.5796
38.244	33.7387
40.1786	33.8979
42.4107	33.8979
