Adsorption isotherm of Carbon Dioxide on MOF-5-NO2-NH2
DOI: 10.1021/jp307865n
Adsorbate Carbon Dioxide: InChIKey CURLTUGMZLYLDI-UHFFFAOYSA-N
Temperature: 298 K
Tabular data in the source: 0
pressure (bar)	uptake (mmol/g)
0.00660066	0.00933565
0.0990099	0.242054
0.19802	0.437735
0.30033	0.633447
0.39934	0.847677
0.50165	1.06194
0.60066	1.25762
0.69967	1.50895
0.80198	1.68611
0.90099	1.91889
1	2.15167
