Adsorption isotherm of Carbon Dioxide on IRMOF-1
DOI: 10.1021/jp307865n
Adsorbate Carbon Dioxide: InChIKey CURLTUGMZLYLDI-UHFFFAOYSA-N
Temperature: 298 K
Tabular data in the source: 0
pressure (bar)	uptake (mmol/g)
1.03245	0.867275
1.9174	1.98344
2.94985	3.22351
3.83481	4.71246
5.01475	6.32495
10.0295	15.1352
20.059	20.7021
30.0885	22.7896
39.9705	23.6349
50.1475	24.6037
