Adsorption isotherm of Carbon Dioxide on MTV-MOF-5-EHI
DOI: 10.1021/jp307865n
Adsorbate Carbon Dioxide: InChIKey CURLTUGMZLYLDI-UHFFFAOYSA-N
Temperature: 298 K
Tabular data in the source: 0
pressure (bar)	uptake (mmol/g)
1.9174	2.48049
3.39233	3.84372
5.01475	5.08232
10.0295	6.9338
19.9115	8.15187
29.941	8.37547
40.118	8.5987
50.1475	9.07083
