Adsorption isotherm of Carbon Dioxide on MOF-177
DOI: 10.1021/jp307865n
Adsorbate Carbon Dioxide: InChIKey CURLTUGMZLYLDI-UHFFFAOYSA-N
Temperature: 298 K
Tabular data in the source: 0
pressure (bar)	uptake (mmol/g)
0.892857	1.11401
2.08333	1.75059
2.97619	2.86461
4.01786	3.66033
4.91071	4.77435
9.97024	14.0048
19.9405	29.9193
30.0595	33.7387
39.881	34.5345
50	34.8528
