Adsorption isotherm of Carbon Dioxide on MOF-5-NO2-Cl
DOI: 10.1021/jp307865n
Adsorbate Carbon Dioxide: InChIKey CURLTUGMZLYLDI-UHFFFAOYSA-N
Temperature: 298 K
Tabular data in the source: 0
pressure (bar)	uptake (mmol/g)
0.00660066	0.00933565
0.0990099	0.21423
0.20132	0.382119
0.30033	0.549977
0.39934	0.72711
0.50165	0.959919
0.60066	1.09995
0.69967	1.23071
0.79868	1.44494
0.89769	1.59425
1	1.76214
