Adsorption isotherm of Carbon Dioxide on Zn2(Atz)2(ox)
DOI: 10.1126/science.1194237
Adsorbate Carbon Dioxide: InChIKey CURLTUGMZLYLDI-UHFFFAOYSA-N
Temperature: 273 K
Tabular data in the source: 0
pressure (bar)	uptake (mmol/g)
0.00455491	1.41399
0.0201298	2.05539
0.04906	2.52187
0.0939518	2.90087
0.1945	3.36735
0.3005	3.55685
0.39852	3.79009
0.597304	4.08163
0.79878	4.30029
0.995074	4.28571
