Adsorption isotherm of Argon on Zn2(Atz)2(ox)
DOI: 10.1126/science.1194237
Adsorbate Argon: InChIKey XKRFYHLGVUSROY-UHFFFAOYSA-N
Temperature: 273 K
Tabular data in the source: 0
pressure (bar)	uptake (mmol/g)
0.262824	0.0977345
0.293948	0.107583
0.333718	0.108204
0.432277	0.128469
0.451297	0.128766
0.534294	0.176877
0.605187	0.19671
0.655331	0.206856
0.75562	0.208421
0.843804	0.237887
0.887032	0.238562
1.01844	0.259339
1.11873	0.260904
