Adsorption isotherm of Hydrogen on Zn2(Atz)2(ox)
DOI: 10.1126/science.1194237
Adsorbate Hydrogen: InChIKey UFHFLCQGNIYNRP-UHFFFAOYSA-N
Temperature: 273 K
Tabular data in the source: 0
pressure (bar)	uptake (mmol/g)
0.261095	0.0134378
0.333718	0.0332977
0.435735	0.044253
0.532565	0.0457641
0.632853	0.0566925
0.736599	0.0489482
0.869741	0.0697525
1.00461	0.0905838
