Adsorption isotherm of Nitrogen on Zn2(Atz)2(ox)
DOI: 10.1126/science.1194237
Adsorbate Nitrogen: InChIKey IJGRMHOSHXDMSA-UHFFFAOYSA-N
Temperature: 77 K
Tabular data in the source: 0
pressure (bar)	uptake (mmol/g)
0.0190202	0.0471133
0.0380403	0.0661367
0.0726225	0.0760397
0.105476	0.0671891
0.150432	0.0772539
0.19366	0.0685652
0.229971	0.0878585
0.352738	0.0710477
0.392507	0.0716683
0.434006	0.0629526
0.475504	0.0729636
0.515274	0.0642209
0.556772	0.0742318
0.594813	0.0748254
0.617291	0.0845395
0.63804	0.0848633
0.676081	0.0948202
0.714121	0.104777
0.759078	0.114842
0.809222	0.143714
0.821326	0.143903
0.859366	0.163224
