Adsorption isotherm of Carbon Dioxide on Zn2(Atz)2(ox)
DOI: 10.1126/science.1194237
Adsorbate Carbon Dioxide: InChIKey CURLTUGMZLYLDI-UHFFFAOYSA-N
Temperature: 273 K
Tabular data in the source: 0
pressure (bar)	uptake (mmol/g)
0.00345821	0.627395
0.00691643	0.814715
0.0172911	1.16132
0.0207493	1.32055
0.0276657	1.58283
0.0311239	1.69524
0.0397695	1.83583
0.0432277	1.99506
0.0553314	2.18251
0.0622478	2.32307
0.0691643	2.42617
0.0760807	2.50119
0.0933718	2.69809
0.108934	2.82005
0.167723	3.1955
0.233429	3.43061
0.295677	3.60948
0.357925	3.74154
0.416715	3.84545
0.477233	3.92131
0.534294	3.97838
0.594813	4.02614
0.655331	4.0739
0.717579	4.12169
0.776369	4.16942
0.836888	4.19845
0.899135	4.23688
0.957925	4.25652
1.02017	4.29495
1.08069	4.32398
