Adsorption isotherm of Argon on Zn2(Atz)2(ox)
DOI: 10.1126/science.1194237
Adsorbate Argon: InChIKey XKRFYHLGVUSROY-UHFFFAOYSA-N
Temperature: 87 K
Tabular data in the source: 0
pressure (bar)	uptake (mmol/g)
0.0224784	0.11271
0.0622478	0.141421
0.0726225	0.141583
0.110663	0.142176
0.122767	0.170455
0.141787	0.170752
0.200576	0.171669
0.245533	0.181734
0.300865	0.191961
0.408069	0.240451
0.458213	0.250596
0.508357	0.251379
0.563689	0.289696
0.615562	0.299868
0.669164	0.319431
0.721037	0.357694
0.771182	0.405293
