Adsorption isotherm of Nitrogen on Zn2(Atz)2(ox)
DOI: 10.1126/science.1194237
Adsorbate Nitrogen: InChIKey IJGRMHOSHXDMSA-UHFFFAOYSA-N
Temperature: 273 K
Tabular data in the source: 0
pressure (bar)	uptake (mmol/g)
0.0311239	0.009849
0.0536023	0.0101998
0.0847262	0.0200488
0.100288	0.0202916
0.150432	0.0304375
0.200576	0.0686732
0.266282	0.0790618
0.331988	0.108177
0.432277	0.128469
0.534294	0.148787
0.636311	0.187833
0.733141	0.189344
0.873199	0.238346
0.997695	0.259015
