Adsorption isotherm of Hydrogen on [Co2(BDC)2(BPNO)]*H2BDC*2MeOH
DOI: 10.1002/ejic.201200851
Adsorbate Hydrogen: InChIKey UFHFLCQGNIYNRP-UHFFFAOYSA-N
Temperature: 77 K
Tabular data in the source: 0
pressure (bar)	uptake (cm3(STP)/g)
0.00837971	4.70995
0.0258587	6.87298
0.0564469	8.57718
0.0935898	9.95365
0.135102	12.3133
0.237791	14.673
0.340481	16.115
0.412581	17.4259
0.478128	18.2125
0.517455	19.2612
0.583002	20.441
0.646363	21.9486
0.718464	23.1284
0.790565	24.1116
0.851741	24.8326
0.884514	25.8814
0.930396	26.2747
