Adsorption isotherm of Hydrogen on [Co2(BDC)2-(BPNO)]*2DMF
DOI: 10.1002/ejic.201200851
Adsorbate Hydrogen: InChIKey UFHFLCQGNIYNRP-UHFFFAOYSA-N
Temperature: 77 K
Tabular data in the source: 0
pressure (bar)	uptake (cm3(STP)/g)
0.619484	14.7327
6.51864	22.9915
13.0733	38.2857
26.838	47.1563
34.7035	48.9915
37.1069	54.8033
43.006	65.2033
51.527	68.2621
55.2413	75.2974
63.5439	83.8621
70.7539	95.1798
80.5859	99.4621
85.3926	104.662
90.6363	108.944
94.3506	112.921
