Adsorption isotherm of Methanol on [Co2(BDC)2(BPNO)]*H2BDC*2MeOH
DOI: 10.1002/ejic.201200851
Adsorbate Methanol: InChIKey OKKJLVBELUTLKV-UHFFFAOYSA-N
Temperature: 298 K
Tabular data in the source: 0
pressure (bar)	uptake (ml/g)
0.000234	3.87702
0.00377545	4.44509
0.00566995	4.44509
0.00781156	5.29719
0.00937659	5.58123
0.0112711	5.29719
0.0130832	5.58123
0.0149777	5.58123
0.0172017	5.58123
0.0190962	5.86526
0.0209084	6.43333
0.0245326	7.00139
0.0282393	7.00139
0.0302161	7.85349
0.0321106	8.42156
0.0340051	8.98963
