Adsorption isotherm of Nitrogen on [Co2(BDC)2(BPNO)]*H2BDC*2MeOH
DOI: 10.1002/ejic.201200851
Adsorbate Nitrogen: InChIKey IJGRMHOSHXDMSA-UHFFFAOYSA-N
Temperature: 77 K
Tabular data in the source: 0
pressure (bar)	uptake (cm3(STP)/g)
0.00619484	0.0561717
0.0739259	0.0561717
0.113254	0.0561717
0.139472	0.187264
0.196279	0.25281
0.25527	0.25281
0.303338	0.318357
0.351405	0.25281
0.403842	0.187264
0.454094	0.187264
0.502161	0.187264
0.550228	0.187264
0.596111	0.25281
0.663842	0.25281
0.707539	0.318357
0.753422	0.25281
0.805859	0.318357
0.87359	0.646088
0.921657	0.77718
0.95443	1.10491
0.974094	1.43264
0.982834	1.56373
