Adsorption isotherm of Water on [Co2(BDC)2(BPNO)]*H2BDC*2MeOH
DOI: 10.1002/ejic.201200851
Adsorbate Water: InChIKey XLYOFNOQVPJJNP-UHFFFAOYSA-N
Temperature: 298 K
Tabular data in the source: 0
pressure (bar)	uptake (ml/g)
0.000469	34.8367
0.00115499	42.2216
0.00122359	46.198
0.00170383	51.3106
0.00314454	55.5711
0.00472245	60.6837
0.00636897	64.9443
0.0080841	67.7846
0.00938759	71.477
0.0111713	74.6014
0.0126806	77.4417
0.0143272	79.998
0.0154934	83.9745
0.0174144	87.0989
0.0192667	91.0753
0.0218051	95.6199
0.0252354	100.164
0.0281854	106.413
