Adsorption isotherm of Nitrogen on [Co2(BDC)2-(BPNO)]*2DMF
DOI: 10.1002/ejic.201200851
Adsorbate Nitrogen: InChIKey IJGRMHOSHXDMSA-UHFFFAOYSA-N
Temperature: 77 K
Tabular data in the source: 0
pressure (bar)	uptake (cm3(STP)/g)
0.00182509	0.968017
0.196279	1.2739
0.347035	1.2739
0.445354	1.2739
0.550228	0.968017
0.6988	0.968017
0.808044	1.57978
0.880144	2.49743
0.930396	4.33272
0.971909	7.08566
0.980649	7.08566
