Adsorption isotherm of Toluene on [Co2(BDC)2(BPNO)]*H2BDC*2MeOH
DOI: 10.1002/ejic.201200851
Adsorbate Toluene: InChIKey YXFVVABEGXRONW-UHFFFAOYSA-N
Temperature: 298 K
Tabular data in the source: 0
pressure (bar)	uptake (ml/g)
0.00104377	15.2384
0.0109833	16.0905
0.0172415	17.5106
0.0249722	18.3627
0.0433787	19.7829
0.0592082	19.7829
0.0673071	20.351
0.0768784	21.4871
0.0857135	22.3392
0.0941805	23.1913
0.101543	23.4753
0.109642	24.0434
0.118477	24.8955
0.128048	26.5997
0.133938	28.3039
0.144982	30.0081
0.151609	33.7006
0.160812	36.8249
