Adsorption isotherm of Carbon Dioxide on [Co2(BDC)2(BPNO)]*H2BDC*2MeOH
DOI: 10.1002/ejic.201200851
Adsorbate Carbon Dioxide: InChIKey CURLTUGMZLYLDI-UHFFFAOYSA-N
Temperature: 195 K
Tabular data in the source: 0
pressure (bar)	uptake (cm3(STP)/g)
0.00848865	3.72676
0.0217683	4.7755
0.0483276	5.36542
0.0815268	5.82424
0.110299	7.20071
0.207684	8.24945
0.307281	9.29819
0.411305	9.95365
0.508689	10.7402
0.614927	11.5268
0.716737	12.2478
0.822975	12.9032
0.87388	12.9688
0.902653	13.6242
