Adsorption isotherm of Nitrogen on Cu(BF4)2(bpy)2
DOI: 10.1016/j.micromeso.2012.01.008
Adsorbate Nitrogen: InChIKey IJGRMHOSHXDMSA-UHFFFAOYSA-N
Temperature: 77 K
Tabular data in the source: 0
pressure (bar)	uptake (cm3(STP)/g)
0.0249377	2.05479
0.0548628	1.0274
0.102244	1.0274
0.127182	3.08219
0.15212	4.10959
0.182045	12.3288
0.204489	18.4932
0.226933	36.9863
0.249377	52.3973
0.27182	82.1918
0.301746	118.151
0.354115	141.781
0.401496	163.356
0.421446	170.548
0.453865	179.795
0.496259	193.151
0.548628	201.37
0.605985	209.589
0.658354	214.726
0.705736	218.836
0.755611	222.945
0.805486	227.055
0.845387	229.11
0.905237	233.219
0.950125	234.247
0.997506	236.301
