Adsorption isotherm of Nitrogen on [Cu(dhbc)2(bpy)]H2O]
DOI: 10.1016/j.micromeso.2012.01.008
Adsorbate Nitrogen: InChIKey IJGRMHOSHXDMSA-UHFFFAOYSA-N
Temperature: 195 K
Tabular data in the source: 0
pressure (bar)	uptake (cm3(STP)/g)
0.238806	1.51019
0.567164	2.00308
0.776119	1.99425
1.01493	1.98417
1.46269	2.47201
2.02985	3.46158
2.65672	3.4351
3.01493	4.43349
3.61194	5.42179
4	5.91216
4.50746	6.39749
5.01493	6.88282
5.49254	7.87616
6.02985	8.86698
6.50746	11.8874
7.01493	14.9065
7.49254	18.4336
8.02985	21.9582
8.59701	26.4951
8.98507	29.5192
9.52239	34.0573
10	38.0912
10.4478	42.6331
11.0149	48.1835
11.5224	51.7094
11.8806	54.228
