Adsorption isotherm of Carbon Dioxide on [Cu(dhbc)2(bpy)]H2O]
DOI: 10.1016/j.micromeso.2012.01.008
Adsorbate Carbon Dioxide: InChIKey CURLTUGMZLYLDI-UHFFFAOYSA-N
Temperature: 273 K
Tabular data in the source: 0
pressure (bar)	uptake (cm3(STP)/g)
0.20202	4.9559
0.242424	23.9636
0.323232	35.5327
0.40404	45.1735
0.484848	47.9272
0.646465	50.9553
0.727273	52.0561
1.0101	54.5315
2.0202	60.5782
3.0303	63.5946
4	66.0606
5.0101	67.9751
5.9798	70.441
7.0303	72.0795
8	73.4435
8.9697	74.5321
9.9798	75.8956
10.9899	76.9836
12	78.3471
12.8485	79.1619
14.0202	80.2477
15.0303	81.3357
15.9596	82.4248
