Adsorption isotherm of Nitrogen on Cu(BF4)2(bpy)2
DOI: 10.1016/j.micromeso.2012.01.008
Adsorbate Nitrogen: InChIKey IJGRMHOSHXDMSA-UHFFFAOYSA-N
Temperature: 298 K
Tabular data in the source: 0
pressure (bar)	uptake (cm3(STP)/g)
1.94004	1.59505
2.95024	1.84203
4.00095	2.36261
5.01116	2.60958
5.94066	3.1335
6.99126	3.37936
8.00147	3.62633
8.93097	4.15025
9.98169	4.67083
11.0727	4.91559
11.9214	5.44172
12.972	5.68758
13.942	6.48511
15.0329	6.45514
16.0027	6.70322
16.9323	7.50186
17.9828	7.473
