Adsorption isotherm of Methane on [Cu(dhbc)2(bpy)]H2O]
DOI: 10.1016/j.micromeso.2012.01.008
Adsorbate Methane: InChIKey VNWKTOKETHGBQD-UHFFFAOYSA-N
Temperature: 273 K
Tabular data in the source: 0
pressure (bar)	uptake (cm3(STP)/g)
0.525253	1.37018
1.0101	1.63898
2.06061	2.72644
2.9899	4.36653
4.0404	5.45399
4.52525	5.99827
5.05051	6.81749
6.0202	9.55895
6.46465	13.1341
6.9899	16.7081
7.15152	18.9098
7.31313	21.3869
7.51515	23.8634
8	31.0193
8.16162	32.9454
8.32323	35.4225
9.0101	45.055
9.49495	50.2824
9.73737	52.483
10.0202	56.0603
10.5455	59.0834
11.0707	62.1065
11.5556	63.7527
12.0404	65.6744
13.0101	67.3139
13.5758	68.1326
13.8586	68.6796
15.0303	70.5919
15.596	71.4105
16.0404	71.9554
