Adsorption isotherm of Methane on [Cu(dhbc)2(bpy)]H2O]
DOI: 10.1016/j.micromeso.2012.01.008
Adsorbate Methane: InChIKey VNWKTOKETHGBQD-UHFFFAOYSA-N
Temperature: 298 K
Tabular data in the source: 0
pressure (bar)	uptake (cm3(STP)/g)
0.445787	1.09278
0.972211	1.36027
2.02517	2.16998
2.91608	2.7072
3.96904	3.51691
4.94091	4.05301
5.99387	4.86272
6.96597	5.94827
8.01882	6.48326
8.91017	8.11937
10.006	14.6977
10.9848	32.5414
11.9635	49.8357
12.9788	57.514
14.0323	59.6974
15.0044	60.7829
16.0168	61.5932
17.0293	62.4034
17.6773	62.944
