Adsorption isotherm of Nitrogen on [Cu(dhbc)2(bpy)]H2O]
DOI: 10.1016/j.micromeso.2012.01.008
Adsorbate Nitrogen: InChIKey IJGRMHOSHXDMSA-UHFFFAOYSA-N
Temperature: 77 K
Tabular data in the source: 0
pressure (bar)	uptake (cm3(STP)/g)
0.00997506	9.24658
0.0299252	36.9863
0.0498753	61.6438
0.104738	73.9726
0.15212	81.1644
0.199501	87.3288
0.256858	91.4384
0.299252	94.5205
0.354115	96.5753
0.40399	96.5753
0.448878	97.6027
0.496259	98.6301
0.548628	100.685
0.583541	101.712
0.643392	101.712
0.695761	103.767
0.755611	102.74
0.850374	105.822
0.932668	107.877
0.997506	109.932
