Adsorption isotherm of Nitrogen on [Cu(dhbc)2(bpy)]H2O]
DOI: 10.1016/j.micromeso.2012.01.008
Adsorbate Nitrogen: InChIKey IJGRMHOSHXDMSA-UHFFFAOYSA-N
Temperature: 273 K
Tabular data in the source: 0
pressure (bar)	uptake (cm3(STP)/g)
1.0101	1.08802
1.41414	1.35793
1.9798	1.62562
2.50505	2.44483
2.9899	2.98912
4	3.80165
5.0101	4.61419
6.06061	5.15068
6.9899	6.23981
7.9596	7.32838
9.0101	8.14036
10.0606	8.67685
11.0303	9.48994
11.5556	10.0337
12.0404	10.3025
12.5253	11.1222
13.0101	11.391
13.5758	11.6587
14.0202	12.2036
14.5859	12.4713
14.9899	12.7412
16.0404	13.5532
16.5657	14.0969
16.9697	14.3668
17.4949	14.9105
17.9798	15.4548
