Adsorption isotherm of Methane on [Cu(dhbc)2(bpy)]H2O]
DOI: 10.1016/j.micromeso.2012.01.008
Adsorbate Methane: InChIKey VNWKTOKETHGBQD-UHFFFAOYSA-N
Temperature: 195 K
Tabular data in the source: 0
pressure (bar)	uptake (cm3(STP)/g)
0.208955	2.0182
0.38806	9.10523
0.537313	14.6733
0.626866	32.9127
0.746269	50.1374
0.80597	64.3241
1.01493	80.0247
1.64179	86.5861
2.02985	89.6102
2.74627	92.6205
3.07463	94.1269
3.52239	96.135
4	98.6486
4.77612	99.6294
5.49254	100.613
6.02985	101.097
7.01493	102.069
7.76119	102.544
8	102.534
9.04478	103.503
9.97015	103.971
10.806	104.442
11.6119	104.915
12	104.899
