Adsorption isotherm of Nitrogen on [Cu(dhbc)2(bpy)]H2O]
DOI: 10.1016/j.micromeso.2012.01.008
Adsorbate Nitrogen: InChIKey IJGRMHOSHXDMSA-UHFFFAOYSA-N
Temperature: 298 K
Tabular data in the source: 0
pressure (bar)	uptake (cm3(STP)/g)
0.48605	0.542774
0.931503	0.81138
1.94387	1.34692
3.03709	1.60663
3.92799	2.14385
5.02133	2.67828
5.95261	2.94021
6.96486	3.20103
7.93674	3.73713
8.98958	4.27212
10.0424	4.80711
10.9736	4.79432
11.9455	5.33042
12.9983	5.86541
14.0107	6.40095
14.9823	6.38761
16.0352	6.92259
17.0474	7.18341
17.9789	7.99479
