Adsorption isotherm of Methane on Cu(BF4)2(bpy)2
DOI: 10.1016/j.micromeso.2012.01.008
Adsorbate Methane: InChIKey VNWKTOKETHGBQD-UHFFFAOYSA-N
Temperature: 195 K
Tabular data in the source: 0
pressure (bar)	uptake (cm3(STP)/g)
0.238806	1.02041
0.597015	2.04082
1.07463	2.55102
1.46269	3.57143
2	4.08163
2.56716	4.59184
3.04478	4.59184
3.49254	5.10204
4.02985	5.61224
4.53731	5.61224
4.92537	6.63265
5.01493	7.14286
5.16418	8.67347
5.31343	12.2449
5.52239	16.3265
5.70149	20.4082
5.91045	23.9796
6	27.0408
6.20896	36.2245
6.35821	43.8776
6.50746	52.0408
6.68657	60.7143
6.77612	65.8163
7.01493	77.0408
7.34328	84.1837
7.52239	88.2653
7.73134	92.3469
7.85075	95.4082
8	98.9796
8.20896	101.531
8.47761	104.082
8.71642	107.143
8.95522	110.204
9.04478	110.714
9.16418	111.735
9.40299	114.796
9.8209	118.878
10.0299	121.939
10.4478	124.49
10.7761	126.531
11.0448	128.061
11.4328	130.102
11.9403	132.653
