Adsorption isotherm of Methane on Cu(BF4)2(bpy)2
DOI: 10.1016/j.micromeso.2012.01.008
Adsorbate Methane: InChIKey VNWKTOKETHGBQD-UHFFFAOYSA-N
Temperature: 298 K
Tabular data in the source: 0
pressure (bar)	uptake (cm3(STP)/g)
1.01053	1.07114
1.94004	1.59505
2.95013	1.5673
3.92004	2.09011
4.93013	2.06236
5.98073	2.30822
6.99093	2.55519
7.96073	2.80328
8.97093	3.05025
9.98124	3.57194
10.9509	3.5453
12.0016	4.06589
12.9713	4.03925
14.0219	4.28511
14.9512	4.25958
16.2039	4.77462
17.699	5.00827
18.4668	5.2619
19.7193	5.22749
