Adsorption isotherm of Methane on Cu(BF4)2(bpy)2
DOI: 10.1016/j.micromeso.2012.01.008
Adsorbate Methane: InChIKey VNWKTOKETHGBQD-UHFFFAOYSA-N
Temperature: 273 K
Tabular data in the source: 0
pressure (bar)	uptake (cm3(STP)/g)
0.767788	0.690608
1.13142	0.690608
1.6165	2.07182
1.93984	2.76243
3.4349	3.45304
4.97048	4.83425
6.46554	5.52486
7.92031	6.90608
9.49629	8.28729
10.9913	8.9779
12.4462	11.0497
13.9413	11.7403
15.4768	12.4309
16.1637	13.1215
16.9314	13.1215
