Adsorption isotherm of Carbon Dioxide on Cu(BF4)2(bpy)2
DOI: 10.1016/j.micromeso.2012.01.008
Adsorbate Carbon Dioxide: InChIKey CURLTUGMZLYLDI-UHFFFAOYSA-N
Temperature: 298 K
Tabular data in the source: 0
pressure (bar)	uptake (cm3(STP)/g)
0.444773	0.811957
0.606831	1.90641
0.812512	10.9667
0.994772	62.0606
1.4825	69.19
1.97012	76.0448
2.49625	78.2281
3.02217	79.862
3.99296	82.5826
5.04434	84.7515
6.01492	86.9227
7.02556	88.2685
7.99592	89.8902
9.00656	91.2361
9.97636	91.4842
11.0272	92.2795
12.0376	93.0759
13.0075	93.5987
14.0178	94.1204
14.9877	94.6432
