Adsorption isotherm of Carbon Dioxide on [Cu(dhbc)2(bpy)]H2O]
DOI: 10.1016/j.micromeso.2012.01.008
Adsorbate Carbon Dioxide: InChIKey CURLTUGMZLYLDI-UHFFFAOYSA-N
Temperature: 298 K
Tabular data in the source: 0
pressure (bar)	uptake (cm3(STP)/g)
0.243359	1.09556
0.486939	2.74056
0.782796	33.5057
0.989673	44.4919
2.00648	56.0164
3.0204	60.3981
3.99339	63.6814
5.00642	65.8653
6.01945	68.0492
6.99177	69.6842
8.00458	71.3186
8.9769	72.9536
10.0302	74.5875
11.0428	75.6725
12.0149	76.758
12.987	77.8436
14.0398	78.3786
15.0117	78.9147
16.0646	79.4497
