Adsorption isotherm of Carbon Dioxide on Cu(BF4)2(bpy)2
DOI: 10.1016/j.micromeso.2012.01.008
Adsorbate Carbon Dioxide: InChIKey CURLTUGMZLYLDI-UHFFFAOYSA-N
Temperature: 273 K
Tabular data in the source: 0
pressure (bar)	uptake (cm3(STP)/g)
0.243317	5.52486
0.372119	52.4862
0.454824	64.2265
0.61711	68.3702
0.860204	72.5138
1.02227	75.2762
1.46738	79.4199
2.31654	83.5635
2.92315	87.0166
4.4594	92.5414
5.99531	95.9945
7.49082	99.4475
8.94592	102.901
9.14839	105.663
9.39171	111.188
9.67543	116.713
10.1217	127.762
10.2843	133.978
10.4873	140.193
10.9751	158.149
11.3401	167.127
11.5835	172.652
11.7866	179.558
12.0299	185.083
12.1512	185.773
12.4751	189.917
12.7586	194.061
12.9612	197.514
13.5275	201.657
14.0129	205.11
