Adsorption isotherm of Nitrogen on Zn2(bdc)2(dabco)
DOI: 10.1016/j.cattod.2010.11.015
Adsorbate Nitrogen: InChIKey IJGRMHOSHXDMSA-UHFFFAOYSA-N
Temperature: 77 K
Tabular data in the source: 0
pressure (bar)	uptake (cm3(STP)/g)
2.78e-17	2.78e-17
0.00213991	426.275
0.00427982	483.96
0.00855965	487.151
0.0299588	493.491
0.0684772	498.172
0.0877364	498.108
0.132675	497.96
0.162633	496.258
0.196872	496.145
0.23967	496.004
0.310287	495.771
0.361645	495.602
0.406583	495.454
0.455801	493.689
0.48148	495.206
0.528558	495.051
0.577776	494.889
0.624854	494.733
0.674072	494.571
0.744689	494.338
0.796047	492.566
0.903043	490.611
0.941561	493.689
0.96296	496.823
