Adsorption isotherm of Nitrogen on Activated Carbon
DOI: 10.1016/j.cattod.2010.11.015
Adsorbate Nitrogen: InChIKey IJGRMHOSHXDMSA-UHFFFAOYSA-N
Temperature: 77 K
Tabular data in the source: 0
pressure (bar)	uptake (cm3(STP)/g)
0.00855965	185.869
0.0278189	214.652
0.0556377	235.393
0.0770368	246.541
0.0984359	257.688
0.117695	265.637
0.139094	275.182
0.158353	279.926
0.181893	284.656
0.201152	289.4
0.24609	297.265
0.295308	303.513
0.338106	309.782
0.387324	309.62
0.442962	314.244
0.49432	312.472
0.543538	315.515
0.594896	315.345
0.641974	316.792
0.691192	319.835
0.72971	321.311
0.761809	319.602
0.791767	321.106
0.815306	321.028
0.851685	324.113
0.877364	324.029
0.888063	325.596
0.926582	327.071
0.945841	331.815
0.96082	333.369
