Adsorption isotherm of Hydrogen on Pt/Activated Carbon@Zn2(bdc)2dabco
DOI: 10.1016/j.cattod.2010.11.015
Adsorbate Hydrogen: InChIKey UFHFLCQGNIYNRP-UHFFFAOYSA-N
Temperature: 77 K
Tabular data in the source: 0
pressure (bar)	uptake (wt%)
0.0163755	0.457006
0.0196507	0.546178
0.0524017	0.914013
0.101528	1.25955
0.157205	1.48248
0.176856	1.57166
0.212882	1.68312
0.248908	1.79459
0.284934	1.88376
0.320961	1.97293
0.360262	2.03981
0.44869	2.19586
0.533843	2.34076
0.628821	2.45223
0.717249	2.56369
0.802402	2.65287
0.894105	2.75318
0.979258	2.83121
1.06441	2.89809
1.15611	2.95382
1.24782	3.0207
1.33952	3.08758
1.38537	3.12102
1.42467	3.14331
1.4607	3.16561
1.50328	3.19904
