Adsorption isotherm of Nitrogen on Pd/Activated Carbon
DOI: 10.1016/j.cattod.2010.11.015
Adsorbate Nitrogen: InChIKey IJGRMHOSHXDMSA-UHFFFAOYSA-N
Temperature: 77 K
Tabular data in the source: 0
pressure (bar)	uptake (cm3(STP)/g)
0.00855965	140.997
0.0256789	161.774
0.0577776	174.489
0.0770368	185.643
0.0984359	190.38
0.119835	196.72
0.141234	203.06
0.164773	207.79
0.179753	210.945
0.201152	214.08
0.220411	214.016
0.24395	218.746
0.273909	220.25
0.299588	223.371
0.342386	226.435
0.359505	224.775
0.391604	226.272
0.421563	226.173
0.442962	227.705
0.468641	226.018
0.49646	229.131
0.515719	227.465
0.545678	230.572
0.567077	230.501
0.597035	230.402
0.614155	231.948
0.639834	233.466
0.693331	231.687
0.73185	234.765
0.759669	233.071
0.791767	232.965
0.811027	236.106
0.832426	234.433
0.855965	234.356
0.881644	237.476
0.903043	239.008
0.928722	242.128
0.950121	248.468
0.96724	256.424
