Adsorption isotherm of Hydrogen on Pd/Activated Carbon@Zn2(bdc)2dabco
DOI: 10.1016/j.cattod.2010.11.015
Adsorbate Hydrogen: InChIKey UFHFLCQGNIYNRP-UHFFFAOYSA-N
Temperature: 77 K
Tabular data in the source: 0
pressure (bar)	uptake (wt%)
0.00327511	0.200637
0.00982533	0.334395
0.0163755	0.479299
0.0491266	0.85828
0.104803	1.19268
0.137555	1.35987
0.176856	1.53822
0.216157	1.66083
0.248908	1.78344
0.284934	1.8949
0.324236	1.97293
0.356987	2.0621
0.445415	2.25159
0.494541	2.32962
0.537118	2.3965
0.576419	2.46338
0.618996	2.55255
0.674672	2.59713
0.713974	2.67516
0.753275	2.7086
0.802402	2.76433
0.844978	2.82006
0.894105	2.8758
0.936681	2.92038
0.979258	2.96497
1.02838	3.00955
1.07096	3.05414
1.11026	3.07643
1.15939	3.13217
1.19541	3.15446
1.24782	3.1879
1.29694	3.23248
1.33624	3.27707
1.38537	3.28822
1.46397	3.34395
1.49672	3.3551
