Adsorption isotherm of Nitrogen on Pt/Activated Carbon
DOI: 10.1016/j.cattod.2010.11.015
Adsorbate Nitrogen: InChIKey IJGRMHOSHXDMSA-UHFFFAOYSA-N
Temperature: 77 K
Tabular data in the source: 0
pressure (bar)	uptake (cm3(STP)/g)
0.0106996	165.029
0.0278189	184.203
0.0556377	201.74
0.0770368	211.284
0.100576	220.822
0.121975	227.162
0.143374	231.899
0.160493	238.253
0.179753	241.394
0.222551	249.266
0.269629	253.918
0.301728	257.017
0.318847	260.166
0.344526	260.081
0.365925	261.613
0.389464	263.138
0.419423	263.039
0.445102	264.557
0.49646	265.99
0.545678	267.431
0.594896	267.268
0.646253	267.099
0.695471	270.141
0.72971	270.029
0.759669	269.93
0.785348	269.845
0.811027	272.965
0.862384	274.399
0.900903	274.271
0.930862	278.98
0.950121	282.122
0.96724	288.476
