Adsorption isotherm of Hydrogen on Zn2(bdc)2(dabco)
DOI: 10.1016/j.cattod.2010.11.015
Adsorbate Hydrogen: InChIKey UFHFLCQGNIYNRP-UHFFFAOYSA-N
Temperature: 77 K
Tabular data in the source: 0
pressure (bar)	uptake (wt%)
0.0262009	0.066879
0.0524017	0.133758
0.104803	0.300955
0.14083	0.390127
0.176856	0.479299
0.216157	0.579618
0.252183	0.63535
0.28821	0.724522
0.320961	0.802548
0.360262	0.880573
0.396288	0.969745
0.432314	1.03662
0.458515	1.08121
0.487991	1.1258
0.533843	1.21497
0.556769	1.25955
0.586245	1.29299
0.625546	1.35987
0.645197	1.39331
0.674672	1.4379
0.7369	1.52707
0.766376	1.57166
0.825328	1.63854
0.854803	1.68312
0.894105	1.71656
0.913755	1.75
0.943231	1.78344
1.00218	1.85032
1.03493	1.87261
1.09061	1.93949
1.12336	1.96178
1.18231	2.02866
1.21507	2.05096
1.24454	2.07325
1.27074	2.10669
1.30349	2.12898
1.33297	2.16242
1.35917	2.17357
1.39192	2.19586
1.4214	2.21815
1.45742	2.25159
1.5	2.28503
