Adsorption isotherm of Carbon Dioxide, Methane on Shale sample 2
DOI: 10.1021/acs.energyfuels.7b03429
Article source: Figure 8h
Adsorbate Carbon Dioxide: InChIKey CURLTUGMZLYLDI-UHFFFAOYSA-N
Adsorbate Methane: InChIKey VNWKTOKETHGBQD-UHFFFAOYSA-N
Kind: experiment
Temperature: 303 K
Tabular data in the source: 0
pressure (bar)	Carbon Dioxide fraction	Carbon Dioxide uptake (mmol/g)	Methane fraction	Methane uptake (mmol/g)	total uptake (mmol/g)
8.03	0.5138	0.0324	0.4862	0.0285	
17.7	0.5138	0.049	0.4862	0.0418	
26.5	0.5138	0.0572	0.4862	0.049	
42.8	0.5138	0.0655	0.4862	0.0492	
55.4	0.5138	0.0742	0.4862	0.0511	
70.7	0.5138	0.0731	0.4862	0.0524	
84.5	0.5138	0.0722	0.4862	0.05	
99.4	0.5138	0.0702	0.4862	0.0445	
110	0.5138	0.0634	0.4862	0.0391	
125	0.5138	0.0602	0.4862	0.0397	
139	0.5138	0.0547	0.4862	0.0321	
152	0.5138	0.0547	0.4862	0.0316	
167	0.5138	0.0475	0.4862	0.0259	
177	0.5138	0.0468	0.4862	0.0253	
