Adsorption isotherm of Carbon Dioxide, Methane on Shale sample 2
DOI: 10.1021/acs.energyfuels.7b03429
Article source: Figure 8b
Adsorbate Carbon Dioxide: InChIKey CURLTUGMZLYLDI-UHFFFAOYSA-N
Adsorbate Methane: InChIKey VNWKTOKETHGBQD-UHFFFAOYSA-N
Kind: experiment
Temperature: 353 K
Tabular data in the source: 0
pressure (bar)	Carbon Dioxide fraction	Carbon Dioxide uptake (mmol/g)	Methane fraction	Methane uptake (mmol/g)	total uptake (mmol/g)
8.37	0.205	0.00819	0.795	0.023	
17.7	0.205	0.013	0.795	0.0335	
26.5	0.205	0.0164	0.795	0.0406	
41.8	0.205	0.0204	0.795	0.0498	
55.2	0.205	0.0225	0.795	0.056	
71.9	0.205	0.0262	0.795	0.059	
84.9	0.205	0.0282	0.795	0.0604	
97.8	0.205	0.0303	0.795	0.0621	
111	0.205	0.0309	0.795	0.062	
127	0.205	0.034	0.795	0.0613	
140	0.205	0.0343	0.795	0.06	
155	0.205	0.035	0.795	0.0575	
171	0.205	0.0353	0.795	0.0561	
185	0.205	0.0342	0.795	0.0548	
200	0.205	0.0339	0.795	0.0513	
