Adsorption isotherm of Carbon Dioxide, Methane on Shale sample 1
DOI: 10.1021/acs.energyfuels.7b03429
Article source: Figure 8d
Adsorbate Carbon Dioxide: InChIKey CURLTUGMZLYLDI-UHFFFAOYSA-N
Adsorbate Methane: InChIKey VNWKTOKETHGBQD-UHFFFAOYSA-N
Kind: experiment
Temperature: 303 K
Tabular data in the source: 0
pressure (bar)	Carbon Dioxide fraction	Carbon Dioxide uptake (mmol/g)	Methane fraction	Methane uptake (mmol/g)	total uptake (mmol/g)
17.7	0.205	0.0124	0.795	0.0526	
27.3	0.205	0.0156	0.795	0.0602	
35.7	0.205	0.0163	0.795	0.0699	
43.3	0.205	0.0195	0.795	0.0703	
50.3	0.205	0.0212	0.795	0.0729	
72.2	0.205	0.0199	0.795	0.0795	
90.4	0.205	0.0245	0.795	0.077	
110	0.205	0.0236	0.795	0.077	
130	0.205	0.0248	0.795	0.0687	
151	0.205	0.0192	0.795	0.0683	
170	0.205	0.0192	0.795	0.0603	
190	0.205	0.0209	0.795	0.0569	
210	0.205	0.0171	0.795	0.0538	
