Adsorption isotherm of Carbon Dioxide on Shale sample 3
DOI: 10.1021/acs.energyfuels.7b03429
Article source: Figure 4f
Adsorbate Carbon Dioxide: InChIKey CURLTUGMZLYLDI-UHFFFAOYSA-N
Kind: experiment
Temperature: 353 K
Tabular data in the source: 0
pressure (bar)	uptake (mmol/g)
6.36	0.0352
17.7	0.0688
28.2	0.0883
37	0.102
47.4	0.114
57.7	0.124
67.9	0.132
77.1	0.136
84.7	0.139
102	0.132
115	0.113
131	0.101
145	0.0881
157	0.0697
