Adsorption isotherm of Carbon Dioxide on Shale sample 1
DOI: 10.1021/acs.energyfuels.7b03429
Article source: Figure 4d
Adsorbate Carbon Dioxide: InChIKey CURLTUGMZLYLDI-UHFFFAOYSA-N
Kind: experiment
Temperature: 353 K
Tabular data in the source: 0
pressure (bar)	uptake (mmol/g)
6.55	0.0351
13.9	0.0653
27	0.0917
37.8	0.108
46.7	0.12
57.1	0.133
67.1	0.141
77.6	0.149
89.3	0.152
101	0.144
115	0.138
130	0.119
142	0.109
