Adsorption isotherm of Carbon Dioxide, Methane on Shale sample 3
DOI: 10.1021/acs.energyfuels.7b03429
Article source: Figure 8f
Adsorbate Carbon Dioxide: InChIKey CURLTUGMZLYLDI-UHFFFAOYSA-N
Adsorbate Methane: InChIKey VNWKTOKETHGBQD-UHFFFAOYSA-N
Kind: experiment
Temperature: 303 K
Tabular data in the source: 0
pressure (bar)	Carbon Dioxide fraction	Carbon Dioxide uptake (mmol/g)	Methane fraction	Methane uptake (mmol/g)	total uptake (mmol/g)
16.6	0.205	0.014	0.795	0.0571	
25.4	0.205	0.0179	0.795	0.0699	
33.4	0.205	0.0202	0.795	0.0736	
40.9	0.205	0.0224	0.795	0.077	
53.6	0.205	0.0241	0.795	0.0833	
73.6	0.205	0.0247	0.795	0.0874	
90.4	0.205	0.0258	0.795	0.0867	
110	0.205	0.0269	0.795	0.0862	
133	0.205	0.0226	0.795	0.0814	
151	0.205	0.021	0.795	0.0757	
171	0.205	0.0223	0.795	0.062	
190	0.205	0.0209	0.795	0.0541	
