Adsorption isotherm of Carbon Dioxide, Methane on Shale sample 3
DOI: 10.1021/acs.energyfuels.7b03429
Article source: Figure 8c
Adsorbate Carbon Dioxide: InChIKey CURLTUGMZLYLDI-UHFFFAOYSA-N
Adsorbate Methane: InChIKey VNWKTOKETHGBQD-UHFFFAOYSA-N
Kind: experiment
Temperature: 353 K
Tabular data in the source: 0
pressure (bar)	Carbon Dioxide fraction	Carbon Dioxide uptake (mmol/g)	Methane fraction	Methane uptake (mmol/g)	total uptake (mmol/g)
9.09	0.205	0.0104	0.795	0.0194	
18.4	0.205	0.0124	0.795	0.0329	
27.3	0.205	0.0154	0.795	0.041	
43.7	0.205	0.0208	0.795	0.0462	
57.4	0.205	0.0223	0.795	0.0541	
74.7	0.205	0.0242	0.795	0.0583	
87.6	0.205	0.0282	0.795	0.0578	
101	0.205	0.0281	0.795	0.0593	
113	0.205	0.0284	0.795	0.061	
129	0.205	0.0327	0.795	0.0585	
145	0.205	0.0315	0.795	0.0592	
160	0.205	0.0319	0.795	0.0576	
174	0.205	0.0314	0.795	0.0577	
190	0.205	0.0331	0.795	0.0542	
201	0.205	0.0326	0.795	0.0531	
