Adsorption isotherm of Methane on Shale sample 3
DOI: 10.1021/acs.energyfuels.7b03429
Article source: Figure 4c
Adsorbate Methane: InChIKey VNWKTOKETHGBQD-UHFFFAOYSA-N
Kind: experiment
Temperature: 353 K
Tabular data in the source: 0
pressure (bar)	uptake (mmol/g)
8.95	0.0135
17.1	0.0249
32.5	0.0373
46	0.0445
62.3	0.0503
75.6	0.0535
91.7	0.0561
107	0.0576
122	0.0585
137	0.059
152	0.0591
161	0.0588
176	0.0585
196	0.0577
