Adsorption isotherm of Methane on Shale sample 1
DOI: 10.1021/acs.energyfuels.7b03429
Article source: Figure 4a
Adsorbate Methane: InChIKey VNWKTOKETHGBQD-UHFFFAOYSA-N
Kind: experiment
Temperature: 353 K
Tabular data in the source: 0
pressure (bar)	uptake (mmol/g)
8.02	0.013
20.6	0.0307
31.2	0.0329
49.1	0.0433
67.8	0.0517
86.4	0.0564
107	0.0586
127	0.0583
147	0.0563
154	0.0551
174	0.0515
192	0.0474
205	0.0441
