Adsorption isotherm of Methane on Shale sample 2
DOI: 10.1021/acs.energyfuels.7b03429
Article source: Figure 4b
Adsorbate Methane: InChIKey VNWKTOKETHGBQD-UHFFFAOYSA-N
Kind: experiment
Temperature: 353 K
Tabular data in the source: 0
pressure (bar)	uptake (mmol/g)
9.24	0.0172
18.1	0.0317
34.2	0.0464
48.2	0.0556
60.2	0.0613
75	0.0661
90.5	0.0693
106	0.0713
120	0.0723
132	0.0728
145	0.0728
161	0.0723
176	0.0716
196	0.0701
