Adsorption isotherm of Carbon Dioxide, Methane on Shale sample 1
DOI: 10.1021/acs.energyfuels.7b03429
Article source: Figure 8a
Adsorbate Carbon Dioxide: InChIKey CURLTUGMZLYLDI-UHFFFAOYSA-N
Adsorbate Methane: InChIKey VNWKTOKETHGBQD-UHFFFAOYSA-N
Kind: experiment
Temperature: 353 K
Tabular data in the source: 0
pressure (bar)	Carbon Dioxide fraction	Carbon Dioxide uptake (mmol/g)	Methane fraction	Methane uptake (mmol/g)	total uptake (mmol/g)
9.81744	0.205	0.0079	0.795	0.0193	
20.0811	0.205	0.0124	0.795	0.0275	
39.2698	0.205	0.0179	0.795	0.0388	
55.3347	0.205	0.0179	0.795	0.0463	
68.2759	0.205	0.0187	0.795	0.0504	
85.2333	0.205	0.0207	0.795	0.0518	
97.2819	0.205	0.0253	0.795	0.0515	
112.901	0.205	0.0256	0.795	0.0534	
128.073	0.205	0.027	0.795	0.0534	
143.692	0.205	0.0273	0.795	0.0537	
159.31	0.205	0.0289	0.795	0.0515	
174.483	0.205	0.0306	0.795	0.0496	
185.193	0.205	0.0309	0.795	0.049	
200.811	0.205	0.03	0.795	0.0477	
