Adsorption isotherm of Carbon Dioxide on Shale sample 2
DOI: 10.1021/acs.energyfuels.7b03429
Article source: Figure 4e
Adsorbate Carbon Dioxide: InChIKey CURLTUGMZLYLDI-UHFFFAOYSA-N
Kind: experiment
Temperature: 353 K
Tabular data in the source: 0
pressure (bar)	uptake (mmol/g)
5.33	0.0372
15.9	0.0766
25.7	0.098
33.9	0.111
43.9	0.127
53.7	0.135
63.3	0.144
73.9	0.152
79.7	0.156
92.4	0.154
106	0.146
116	0.146
128	0.132
141	0.109
151	0.101
