Adsorption isotherm of Carbon Dioxide, Methane on Shale sample 3
DOI: 10.1021/acs.energyfuels.7b03429
Article source: Figure 8i
Adsorbate Carbon Dioxide: InChIKey CURLTUGMZLYLDI-UHFFFAOYSA-N
Adsorbate Methane: InChIKey VNWKTOKETHGBQD-UHFFFAOYSA-N
Kind: experiment
Temperature: 303 K
Tabular data in the source: 0
pressure (bar)	Carbon Dioxide fraction	Carbon Dioxide uptake (mmol/g)	Methane fraction	Methane uptake (mmol/g)	total uptake (mmol/g)
7.27	0.5138	0.0372	0.4862	0.0345	
16.6	0.5138	0.0551	0.4862	0.0473	
25.9	0.5138	0.0643	0.4862	0.0544	
42.4	0.5138	0.0708	0.4862	0.0599	
55.8	0.5138	0.0765	0.4862	0.0557	
71.1	0.5138	0.0748	0.4862	0.0553	
88.1	0.5138	0.0823	0.4862	0.0483	
103	0.5138	0.0805	0.4862	0.0444	
118	0.5138	0.0706	0.4862	0.0446	
133	0.5138	0.0666	0.4862	0.0368	
146	0.5138	0.0597	0.4862	0.0353	
159	0.5138	0.0483	0.4862	0.0376	
174	0.5138	0.0429	0.4862	0.0341	
