Adsorption isotherm of Carbon Dioxide, Methane on Shale sample 2
DOI: 10.1021/acs.energyfuels.7b03429
Article source: Figure 8e
Adsorbate Carbon Dioxide: InChIKey CURLTUGMZLYLDI-UHFFFAOYSA-N
Adsorbate Methane: InChIKey VNWKTOKETHGBQD-UHFFFAOYSA-N
Kind: experiment
Temperature: 303 K
Tabular data in the source: 0
pressure (bar)	Carbon Dioxide fraction	Carbon Dioxide uptake (mmol/g)	Methane fraction	Methane uptake (mmol/g)	total uptake (mmol/g)
16.4	0.205	0.0115	0.795	0.0547	
24.7	0.205	0.0152	0.795	0.0653	
32.5	0.205	0.0177	0.795	0.0749	
39.3	0.205	0.0207	0.795	0.0779	
51.9	0.205	0.0251	0.795	0.0819	
71.5	0.205	0.0287	0.795	0.0822	
90.9	0.205	0.0244	0.795	0.0857	
110	0.205	0.0264	0.795	0.0826	
129	0.205	0.0232	0.795	0.0822	
151	0.205	0.0238	0.795	0.0753	
170	0.205	0.0223	0.795	0.0712	
190	0.205	0.0205	0.795	0.0673	
210	0.205	0.0211	0.795	0.0601	
