Adsorption isotherm of Carbon Dioxide, Methane on Shale sample 1
DOI: 10.1021/acs.energyfuels.7b03429
Article source: Figure 8g
Adsorbate Carbon Dioxide: InChIKey CURLTUGMZLYLDI-UHFFFAOYSA-N
Adsorbate Methane: InChIKey VNWKTOKETHGBQD-UHFFFAOYSA-N
Kind: experiment
Temperature: 303 K
Tabular data in the source: 0
pressure (bar)	Carbon Dioxide fraction	Carbon Dioxide uptake (mmol/g)	Methane fraction	Methane uptake (mmol/g)	total uptake (mmol/g)
8.55	0.5138	0.0349	0.4862	0.0327	
18.7	0.5138	0.0501	0.4862	0.0483	
37.6	0.5138	0.0616	0.4862	0.0547	
53.3	0.5138	0.0748	0.4862	0.0521	
70.4	0.5138	0.0759	0.4862	0.0512	
86.3	0.5138	0.0755	0.4862	0.0497	
101	0.5138	0.0799	0.4862	0.043	
116	0.5138	0.0766	0.4862	0.0419	
132	0.5138	0.0669	0.4862	0.043	
147	0.5138	0.0662	0.4862	0.0342	
162	0.5138	0.0596	0.4862	0.0276	
177	0.5138	0.0461	0.4862	0.028	
187	0.5138	0.038	0.4862	0.0185	
