Adsorption isotherm of Carbon Dioxide on CPP-8
DOI: 10.1002/adma.200802485
Adsorbate Carbon Dioxide: InChIKey CURLTUGMZLYLDI-UHFFFAOYSA-N
Temperature: 195 K
Tabular data in the source: 0
pressure (bar)	uptake (cm3(STP)/g)
0.00953647	9.79784
0.0190729	16.5345
0.0309935	23.2715
0.0667553	30.2175
0.109669	35.1241
0.133511	36.9657
0.164504	39.0127
0.195498	40.6516
0.228875	42.4951
0.259869	43.9299
0.288478	44.9561
0.32424	46.1878
0.355234	47.0103
0.381459	47.8319
0.412452	49.2667
0.44583	50.2939
0.474439	51.116
0.507817	51.939
0.536426	52.9652
0.565036	53.3791
0.596029	54.6098
0.627023	55.2283
0.655632	56.0504
0.686626	56.873
0.720004	57.9001
0.748613	58.314
0.779606	59.1366
0.8106	59.9592
0.839209	60.169
0.867819	60.9911
0.903581	61.4065
0.929806	62.4322
0.963184	63.2552
0.984641	63.8718
1.00848	64.2848
