Adsorption isotherm of Nitrogen on CPP-7
DOI: 10.1002/adma.200802485
Adsorbate Nitrogen: InChIKey IJGRMHOSHXDMSA-UHFFFAOYSA-N
Temperature: 77 K
Tabular data in the source: 0
pressure (bar)	uptake (cm3(STP)/g)
0.0572036	0.319489
0.0834213	0.479233
0.109647	0.479233
0.13348	0.638978
0.159698	0.798722
0.183547	0.638978
0.209772	0.638978
0.233605	0.798722
0.257439	0.958466
0.283664	0.958466
0.309882	1.11821
0.362333	1.11821
0.460066	1.4377
0.512517	1.4377
0.560184	1.75719
0.607859	1.91693
0.66507	2.07668
0.710353	2.39617
0.762796	2.55591
0.815231	2.8754
0.860491	3.67412
0.912927	3.99361
0.962947	4.95208
0.984359	5.91054
0.998587	7.50799
1.00326	9.42492
