Adsorption isotherm of Hydrogen on CPP-8
DOI: 10.1002/adma.200802485
Adsorbate Hydrogen: InChIKey UFHFLCQGNIYNRP-UHFFFAOYSA-N
Temperature: 77 K
Tabular data in the source: 0
pressure (bar)	uptake (cm3(STP)/g)
0.0116654	5.92705
0.0257714	10.7903
0.0422381	16.2614
0.0587702	20.3647
0.0706317	22.1884
0.084883	24.0122
0.108693	25.8359
0.137276	27.8116
0.149166	29.0274
0.163468	29.7872
0.184882	31.7629
0.227824	33.2827
0.254053	34.4985
0.306548	36.1702
0.359049	37.69
0.411566	38.9058
0.459317	39.8176
0.511819	41.3374
0.554798	42.0973
0.612093	43.3131
0.659866	43.769
0.712397	44.6809
0.760163	45.2888
0.815098	45.8967
0.858098	46.2006
0.915416	46.9605
0.97991	47.5684
1.0014	48.0243
