Adsorption isotherm of Carbon Dioxide on CPP-7
DOI: 10.1002/adma.200802485
Adsorbate Carbon Dioxide: InChIKey CURLTUGMZLYLDI-UHFFFAOYSA-N
Temperature: 195 K
Tabular data in the source: 0
pressure (bar)	uptake (cm3(STP)/g)
0.00953647	7.9611
0.0190729	13.4732
0.0309935	19.1899
0.0429141	24.2944
0.0762918	29.199
0.114438	33.2884
0.135895	34.9253
0.164504	36.9719
0.195498	38.2026
0.228875	39.842
0.264637	41.0737
0.295631	42.1004
0.321856	43.5342
0.350465	44.5604
0.386227	45.9962
0.419605	46.6151
0.448214	47.6413
0.474439	48.4629
0.507817	49.0819
0.538811	49.7004
0.569804	50.5229
0.600798	51.3455
0.631791	51.964
0.662785	52.9906
0.698546	53.6101
0.722388	54.2271
0.750997	54.8451
0.786759	55.8727
0.815368	56.0826
0.841594	56.9042
0.877355	57.3196
0.905965	57.7335
0.934574	58.7597
0.965568	59.1741
1.00133	59.3854
