Adsorption isotherm of Hydrogen on CPP-6
DOI: 10.1002/adma.200802485
Adsorbate Hydrogen: InChIKey UFHFLCQGNIYNRP-UHFFFAOYSA-N
Temperature: 77 K
Tabular data in the source: 0
pressure (bar)	uptake (cm3(STP)/g)
0.0429935	0.455927
0.0692734	0.607903
0.12184	0.759878
0.164856	0.759878
0.188753	0.759878
0.222217	0.607903
0.260453	0.607903
0.310623	0.911854
0.363197	0.911854
0.410985	1.06383
0.461162	1.21581
0.513729	1.36778
0.559134	1.36778
0.611715	1.21581
0.661878	1.67173
0.709673	1.67173
0.762233	1.97568
0.8148	2.12766
0.864977	2.27964
0.917537	2.58359
0.972494	2.73556
0.998766	3.03951
