Adsorption isotherm of Carbon Dioxide on CPP-6
DOI: 10.1002/adma.200802485
Adsorbate Carbon Dioxide: InChIKey CURLTUGMZLYLDI-UHFFFAOYSA-N
Temperature: 195 K
Tabular data in the source: 0
pressure (bar)	uptake (cm3(STP)/g)
0.00953647	11.2264
0.0166888	16.534
0.0286094	21.0262
0.04053	25.1102
0.114438	32.6761
0.135895	34.7212
0.164504	35.7474
0.195498	37.3863
0.224107	38.8206
0.257485	39.8478
0.286094	41.2821
0.321856	42.1056
0.352849	43.3364
0.383843	44.363
0.410068	44.7765
0.441062	45.599
0.474439	46.4221
0.503049	47.2442
0.534042	47.8627
0.565036	48.4812
0.593645	49.0992
0.627023	49.31
0.653248	50.5397
0.686626	51.3628
0.717619	51.5731
0.746229	52.1911
0.772454	53.0127
0.805832	53.4276
0.836825	54.2502
0.865435	54.8682
0.898812	55.2831
0.917885	55.491
0.948879	56.5176
0.967952	56.7256
0.998945	56.9359
