Adsorption isotherm of Hydrogen on CPP-7
DOI: 10.1002/adma.200802485
Adsorbate Hydrogen: InChIKey UFHFLCQGNIYNRP-UHFFFAOYSA-N
Temperature: 77 K
Tabular data in the source: 0
pressure (bar)	uptake (cm3(STP)/g)
0.0286188	1.21581
0.0405312	1.97568
0.057194	3.34347
0.0738568	4.71125
0.0905559	5.31915
0.112005	6.53495
0.13583	8.05471
0.164478	8.66261
0.185971	8.96657
0.224127	10.6383
0.255172	11.0942
0.307688	12.31
0.360212	13.3739
0.41275	14.1337
0.458126	14.7416
0.508267	15.6535
0.560826	15.9574
0.613379	16.4134
0.658762	16.8693
0.711315	17.3252
0.76147	17.9331
0.814023	18.3891
0.86181	18.541
0.914363	18.997
0.986033	19.4529
1.02186	19.9088
