Adsorption isotherm of Nitrogen on CPP-8
DOI: 10.1002/adma.200802485
Adsorbate Nitrogen: InChIKey IJGRMHOSHXDMSA-UHFFFAOYSA-N
Temperature: 77 K
Tabular data in the source: 0
pressure (bar)	uptake (cm3(STP)/g)
0.00236127	0.479233
0.0499522	2.39617
0.0809305	2.71565
0.109532	2.8754
0.130982	3.03514
0.159576	3.35463
0.183417	3.35463
0.207243	3.67412
0.231077	3.83387
0.259678	3.99361
0.28352	3.99361
0.30973	4.3131
0.362165	4.63259
0.409832	4.95208
0.459876	5.43131
0.512303	5.91054
0.559971	6.23003
0.612406	6.54952
0.657658	7.50799
0.710086	7.98722
0.762483	9.10543
0.812504	10.0639
0.86011	11.6613
0.907679	14.0575
0.948018	18.0511
0.962247	19.6486
0.974	23.1629
0.983414	25.7188
0.994924	34.345
0.999395	40.5751
1.00379	48.4026
