Adsorption isotherm of Nitrogen on CPP-6
DOI: 10.1002/adma.200802485
Adsorbate Nitrogen: InChIKey IJGRMHOSHXDMSA-UHFFFAOYSA-N
Temperature: 77 K
Tabular data in the source: 0
pressure (bar)	uptake (cm3(STP)/g)
0.131104	0.479233
0.157321	0.638978
0.183547	0.638978
0.205011	0.479233
0.231229	0.638978
0.259838	0.638978
0.283672	0.798722
0.309882	1.11821
0.359948	1.11821
0.412399	1.11821
0.460066	1.4377
0.510125	1.59744
0.562568	1.75719
0.615011	1.91693
0.665062	2.23642
0.712737	2.39617
0.762788	2.71565
0.815216	3.19489
0.862891	3.35463
0.967731	4.63259
0.989157	5.27157
1.00339	6.70927
