Adsorption isotherm of Nitrogen on Carbon
DOI: 10.1039/C0cp01703e
Adsorbate Nitrogen: InChIKey IJGRMHOSHXDMSA-UHFFFAOYSA-N
Temperature: 77 K
Tabular data in the source: 0
pressure (bar)	uptake (cm3(STP)/g)
0.00311993	241.554
0.00734933	280.212
0.0185246	309.225
0.0296831	326.161
0.0394463	340.678
0.0547871	362.455
0.0659389	374.56
0.102168	403.636
0.114708	413.329
0.127252	425.437
0.141177	430.303
0.152322	437.577
0.164866	449.685
0.177399	454.547
0.188548	464.237
0.22476	481.235
0.237297	488.513
0.24983	493.375
0.287441	515.207
0.325045	532.209
0.387722	563.766
0.41557	571.082
0.471282	597.79
0.493558	602.676
0.506095	609.954
0.51724	617.228
0.529774	622.09
0.564594	639.085
0.578519	643.95
0.591056	651.228
0.603593	658.506
0.614735	663.364
0.639808	677.919
0.65095	682.778
0.662092	687.636
0.674629	694.914
0.687166	702.192
0.699706	711.885
0.712239	716.747
0.723391	728.852
0.737316	733.717
0.749857	743.41
0.762394	750.688
0.773545	762.793
0.786082	770.07
0.798626	782.179
0.834861	816.085
0.846013	828.19
0.859945	837.887
0.86832	854.816
0.883654	871.762
0.893417	886.279
0.908755	905.641
0.918518	920.158
0.93247	944.347
0.942234	958.864
0.954784	975.804
