Adsorption isotherm of Nitrogen on MIL-53(Cr)
DOI: 10.1039/C0cp01703e
Adsorbate Nitrogen: InChIKey IJGRMHOSHXDMSA-UHFFFAOYSA-N
Temperature: 77 K
Tabular data in the source: 0
pressure (bar)	uptake (cm3(STP)/g)
0.00103231	336.622
0.00222711	326.231
0.0121009	345.961
0.0231505	349.066
0.029287	350.099
0.0403397	354.243
0.0526095	355.268
0.0648825	357.333
0.0759256	358.36
0.0869656	358.349
0.0992354	359.374
0.111502	359.361
0.123772	360.387
0.136038	360.374
0.148308	361.4
0.160575	361.387
0.171615	361.375
0.183885	362.401
0.196155	363.427
0.207191	362.376
0.219461	363.402
0.221918	364.438
0.234181	363.386
0.246451	364.412
0.258717	364.399
0.273437	364.383
0.291837	364.363
0.304107	365.389
0.316374	365.376
0.32864	365.363
0.33968	365.351
0.351947	365.338
0.364214	365.325
0.376483	366.351
0.38875	366.338
0.401017	366.324
0.41206	367.352
0.424323	366.299
0.436593	367.325
0.44886	367.312
0.461123	366.26
0.472166	367.287
0.517556	368.278
0.528596	368.266
0.540863	368.253
0.565396	368.227
0.577663	368.213
0.589929	368.2
0.594836	368.195
0.607102	368.182
0.631639	369.195
0.643905	369.182
0.656172	369.168
0.668439	369.155
0.680705	369.142
0.691745	369.13
0.704012	369.117
0.716282	370.143
0.727322	370.131
0.739588	370.118
0.751855	370.105
0.764122	370.092
0.776388	370.079
0.787428	370.067
0.799695	370.054
0.811965	371.08
0.823005	371.068
0.835271	371.055
0.847538	371.042
0.859808	372.068
0.872074	372.054
0.884341	372.041
0.895384	373.068
0.908874	372.015
