Adsorption isotherm of Nitrogen on UiO-66
DOI: 10.1016/j.comptc.2015.03.007
Article source: Figure 3b
Adsorbate Nitrogen: InChIKey IJGRMHOSHXDMSA-UHFFFAOYSA-N
Kind: experiment
Temperature: 77 K
Tabular data in the source: 0
pressure (bar)	uptake (g/g)
0	0
0.067834	0.004385
0.100656	0.006043
0.135667	0.007433
0.199125	0.008824
0.301969	0.010588
0.350109	0.011337
0.402626	0.012032
0.498906	0.013048
0.700219	0.014813
0.897155	0.015722
0.945295	0.01615
1	0.016524
