Adsorption isotherm of Nitrogen on UiO-68
DOI: 10.1016/j.comptc.2015.03.007
Article source: Figure 3b
Adsorbate Nitrogen: InChIKey IJGRMHOSHXDMSA-UHFFFAOYSA-N
Kind: experiment
Temperature: 77 K
Tabular data in the source: 0
pressure (bar)	uptake (g/g)
0	0
0.105033	0.002513
0.201313	0.004118
0.301969	0.005561
0.402626	0.006684
0.501094	0.007647
0.700219	0.009679
0.901532	0.011123
1	0.011872
