Adsorption isotherm of Nitrogen on UiO-67
DOI: 10.1016/j.comptc.2015.03.007
Article source: Figure 3b
Adsorbate Nitrogen: InChIKey IJGRMHOSHXDMSA-UHFFFAOYSA-N
Kind: experiment
Temperature: 77 K
Tabular data in the source: 0
pressure (bar)	uptake (g/g)
0	0
0.102845	0.003102
0.201313	0.005027
0.299781	0.006791
0.400438	0.008128
0.503282	0.009572
0.700219	0.011711
0.899344	0.013797
1.00219	0.014492
