Adsorption isotherm of Methane on UiO-68
DOI: 10.1016/j.comptc.2015.03.007
Article source: Figure 8
Adsorbate Methane: InChIKey VNWKTOKETHGBQD-UHFFFAOYSA-N
Kind: experiment
Temperature: 298 K
Tabular data in the source: 0
pressure (bar)	uptake (volume/volume)
0	0.348259
5.30067	23.6684
10.2895	42.1137
20.5791	73.4314
30.245	96.3924
40.8463	113.431
50.8241	125.247
61.1136	133.579
70.7795	137.734
80.4454	141.193
90.4232	140.123
101.024	139.4
110.69	136.242
120.668	133.779
130.646	129.924
140.935	125.023
150.601	119.078
