Adsorption isotherm of Hydrogen on UiO-66
DOI: 10.1016/j.comptc.2015.03.007
Article source: Figure 7
Adsorbate Hydrogen: InChIKey UFHFLCQGNIYNRP-UHFFFAOYSA-N
Kind: experiment
Temperature: 298 K
Tabular data in the source: 0
pressure (bar)	uptake (wt%)
0	0
4.60526	0.015317
9.86842	0.031729
20.7237	0.063457
30.9211	0.085339
40.4605	0.105033
50.3289	0.124726
59.8684	0.143326
69.7368	0.154267
80.5921	0.158643
90.1316	0.157549
99.3421	0.164114
109.868	0.173961
120.395	0.189278
130.592	0.178337
140.789	0.193654
150.658	0.196937
