Adsorption isotherm of Nitrogen on UiO-67
DOI: 10.1016/j.comptc.2015.03.007
Article source: Figure 3a
Adsorbate Nitrogen: InChIKey IJGRMHOSHXDMSA-UHFFFAOYSA-N
Kind: experiment
Temperature: 77 K
Tabular data in the source: 0
pressure (bar)	uptake (g/g)
0	0
1.27063	0.016981
1.80735	0.021132
3.2241	0.026415
4.81439	0.030943
4.99645	0.033585
7.10786	0.036038
10.104	0.041509
11.3321	0.041509
15.0248	0.044906
18.0054	0.044151
20.2918	0.046415
24.8503	0.045283
24.8541	0.046793
30.1187	0.047358
30.9907	0.045283
38.1846	0.04566
40.1144	0.04566
45.2017	0.045472
49.9366	0.044717
49.939	0.04566
59.0594	0.044717
60.1073	0.04283
66.7754	0.043396
70.2781	0.040943
76.5972	0.042264
80.0974	0.038868
80.105	0.041887
