Adsorption isotherm of Nitrogen on UiO-66
DOI: 10.1016/j.comptc.2015.03.007
Article source: Figure 3a
Adsorbate Nitrogen: InChIKey IJGRMHOSHXDMSA-UHFFFAOYSA-N
Kind: experiment
Temperature: 77 K
Tabular data in the source: 0
pressure (bar)	uptake (g/g)
0	0
0.544758	0.007358
1.2607	0.013019
1.79931	0.017924
3.72772	0.017358
4.79501	0.023207
8.82631	0.021698
10.0624	0.024906
12.5129	0.022641
14.8007	0.025472
17.0767	0.023585
20.0638	0.025472
24.447	0.02434
24.9761	0.025472
29.8884	0.025472
34.0966	0.024528
39.7111	0.024717
43.9197	0.023962
49.7087	0.023774
52.3398	0.023585
60.0582	0.023207
65.3213	0.023207
70.2303	0.021887
78.126	0.022264
80.052	0.020755
80.4062	0.022076
