Adsorption isotherm of Hydrogen on UiO-68
DOI: 10.1016/j.comptc.2015.03.007
Article source: Figure 4
Adsorbate Hydrogen: InChIKey UFHFLCQGNIYNRP-UHFFFAOYSA-N
Kind: experiment
Temperature: 77 K
Tabular data in the source: 0
pressure (bar)	uptake (molecules/unitcell)
0	0
0.669141	41.2776
1.17267	66.3391
4.8864	175.43
9.96978	256.511
15.0599	314.005
20.1562	349.386
25.0832	381.818
30.1837	402.457
40.0452	440.786
50.0802	467.322
59.7765	487.961
69.985	502.703
79.683	517.445
