Adsorption isotherm of Hydrogen on UiO-67
DOI: 10.1016/j.comptc.2015.03.007
Article source: Figure 7
Adsorbate Hydrogen: InChIKey UFHFLCQGNIYNRP-UHFFFAOYSA-N
Kind: experiment
Temperature: 298 K
Tabular data in the source: 0
pressure (bar)	uptake (wt%)
0	0
9.86842	0.050109
20.0658	0.095861
29.9342	0.12963
39.8026	0.165577
50.3289	0.203704
59.8684	0.227669
69.7368	0.247277
80.2632	0.265795
90.1316	0.288671
100	0.3061
109.868	0.315904
120.066	0.311547
129.934	0.345316
140.132	0.344227
149.671	0.359477
