Adsorption isotherm of Hydrogen on UiO-66
DOI: 10.1016/j.comptc.2015.03.007
Article source: Figure 4
Adsorbate Hydrogen: InChIKey UFHFLCQGNIYNRP-UHFFFAOYSA-N
Kind: experiment
Temperature: 77 K
Tabular data in the source: 0
pressure (bar)	uptake (molecules/unitcell)
0	0
0.669141	41.2776
1.85519	60.4423
5.42422	79.6069
9.84808	85.5037
15.1238	88.4521
20.2286	94.3489
24.9945	94.3489
30.2699	98.7715
40.1418	100.246
50.0133	103.194
60.2256	104.668
70.2678	106.143
79.9691	109.091
