Adsorption isotherm of Hydrogen on UiO-68
DOI: 10.1016/j.comptc.2015.03.007
Article source: Figure 7
Adsorbate Hydrogen: InChIKey UFHFLCQGNIYNRP-UHFFFAOYSA-N
Kind: experiment
Temperature: 298 K
Tabular data in the source: 0
pressure (bar)	uptake (wt%)
0	0
5.26316	0.025055
10.5263	0.058824
12.8289	0.076253
20.0658	0.117647
29.9342	0.154684
33.8816	0.169935
39.8026	0.197168
46.7105	0.238562
50.3289	0.255991
53.9474	0.267974
60.5263	0.281046
65.4605	0.30719
68.0921	0.316993
70.0658	0.321351
73.3553	0.32244
76.3158	0.318083
80.5921	0.319172
89.8026	0.37146
95.3947	0.388889
100	0.396514
110.855	0.396514
117.105	0.418301
119.737	0.424837
122.697	0.431373
129.934	0.440087
139.803	0.443355
150.329	0.455338
