Adsorption isotherm of Methane on UiO-67
DOI: 10.1016/j.comptc.2015.03.007
Article source: Figure 8
Adsorbate Methane: InChIKey VNWKTOKETHGBQD-UHFFFAOYSA-N
Kind: experiment
Temperature: 298 K
Tabular data in the source: 0
pressure (bar)	uptake (volume/volume)
0	0.348259
5.61247	33.4189
9.97773	57.7861
20.2673	90.1486
29.9332	110.672
40.2227	122.835
51.1359	132.211
60.8018	134.277
69.8441	136.344
80.4454	135.273
90.1114	135.597
101.024	131.39
111.002	128.231
120.356	122.636
130.958	119.475
140.624	115.969
150.601	109.675
