Adsorption isotherm of Hydrogen on UiO-67
DOI: 10.1016/j.comptc.2015.03.007
Article source: Figure 4
Adsorbate Hydrogen: InChIKey UFHFLCQGNIYNRP-UHFFFAOYSA-N
Kind: experiment
Temperature: 77 K
Tabular data in the source: 0
pressure (bar)	uptake (molecules/unitcell)
0	0
0.669141	41.2776
1.17267	66.3391
5.06456	147.42
10.1597	187.224
15.0895	209.337
19.8522	221.13
25.1258	231.45
30.0599	238.821
40.0995	249.14
49.9694	257.985
60.1805	263.882
69.8813	268.305
80.0928	272.727
