Adsorption isotherm of Methane on CNG
DOI: 10.1016/j.comptc.2015.03.007
Article source: Figure 8
Adsorbate Methane: InChIKey VNWKTOKETHGBQD-UHFFFAOYSA-N
Kind: experiment
Temperature: 298 K
Tabular data in the source: 0
pressure (bar)	uptake (volume/volume)
0	0
0	0.348259
4.67706	4.86399
9.97773	9.72642
20.2673	19.1038
30.245	29.1785
40.5345	39.2524
50.5122	49.6753
60.49	60.7948
70.4677	71.9143
80.4454	83.382
90.4232	94.8497
100.713	107.361
111.002	119.525
120.98	131.341
130.646	143.158
