Adsorption isotherm of Nitrogen on UiO-68
DOI: 10.1016/j.comptc.2015.03.007
Article source: Figure 3a
Adsorbate Nitrogen: InChIKey IJGRMHOSHXDMSA-UHFFFAOYSA-N
Kind: experiment
Temperature: 77 K
Tabular data in the source: 0
pressure (bar)	uptake (g/g)
0	0
0.540975	0.005849
0.7306	0.011509
4.99172	0.031698
6.75982	0.03717
10.1116	0.044528
11.8754	0.048302
15.0447	0.05283
20.1414	0.056415
25.0636	0.060377
30.3301	0.061698
40.1584	0.063207
45.0707	0.063207
50.3329	0.06283
60.6791	0.060943
70.4975	0.058491
80.3178	0.056793
