Adsorption isotherm of Methane on UiO-66
DOI: 10.1016/j.comptc.2015.03.007
Article source: Figure 8
Adsorbate Methane: InChIKey VNWKTOKETHGBQD-UHFFFAOYSA-N
Kind: experiment
Temperature: 298 K
Tabular data in the source: 0
pressure (bar)	uptake (volume/volume)
0	0
0	0.348259
5.30067	56.0565
9.97773	74.8508
20.2673	92.5864
30.8686	105.794
41.4699	112.036
50.8241	117.933
60.8018	119.998
70.7795	117.535
80.7572	119.6
90.4232	118.183
100.401	115.72
110.69	111.864
120.356	113.233
130.646	106.59
141.247	106.216
150.29	100.621
