Adsorption isotherm of Nitrogen on MOF-130T
DOI: 10.1080/01496395.2011.557026
Adsorbate Nitrogen: InChIKey IJGRMHOSHXDMSA-UHFFFAOYSA-N
Temperature: 77 K
Tabular data in the source: 0
pressure (bar)	uptake (cm3(STP)/g)
0.000131427	26.5383
0.000468565	94.6149
0.0114513	512.295
0.0190112	538.825
0.0384224	558.418
0.0681991	571.076
0.0905131	576.82
0.111324	579.104
0.12917	582.545
0.14849	583.677
0.169289	583.653
0.188609	584.785
0.207917	583.609
0.258442	585.86
0.308962	586.956
0.357995	588.054
0.427823	587.974
0.478337	587.917
0.525868	585.555
0.576381	585.497
0.626895	585.44
0.674431	584.232
0.724951	585.328
0.765065	585.283
0.794778	585.249
0.82599	587.521
0.843818	587.501
0.866103	587.475
0.882446	587.457
0.915114	583.958
0.940377	585.083
0.965633	585.054
0.986433	585.031
1.00426	585.01
