Adsorption isotherm of Nitrogen on MOF-75T
DOI: 10.1080/01496395.2011.557026
Adsorbate Nitrogen: InChIKey IJGRMHOSHXDMSA-UHFFFAOYSA-N
Temperature: 77 K
Tabular data in the source: 0
pressure (bar)	uptake (cm3(STP)/g)
-0.00286854	20.7725
0.00318853	43.8425
0.0121541	54.2169
0.0299882	55.3505
0.0715819	54.1493
0.0819875	55.2913
0.12061	54.0934
0.184489	52.8668
0.202317	52.8465
0.273631	52.7653
0.32563	52.7061
0.377629	52.6469
0.428137	51.4355
0.475674	50.2276
0.527673	50.1683
0.579667	48.9553
0.628695	48.8995
0.677717	47.6898
0.731202	47.6289
0.76983	47.5849
0.781716	47.5714
0.81143	47.5375
0.833721	48.666
0.851549	48.6457
0.872349	48.622
0.887206	48.6051
0.902069	49.742
0.918423	52.0311
0.936262	54.3184
0.952616	56.6075
0.964519	60.0555
0.977919	65.8095
0.98985	75.0266
0.998787	79.6319
1.0018	88.8592
1.00777	93.4678
1.00928	98.0814
