Adsorption isotherm of Nitrogen on MOF-100T
DOI: 10.1080/01496395.2011.557026
Adsorbate Nitrogen: InChIKey IJGRMHOSHXDMSA-UHFFFAOYSA-N
Temperature: 77 K
Tabular data in the source: 0
pressure (bar)	uptake (cm3(STP)/g)
0.000125713	25.3845
0.00323996	54.2271
0.00781704	78.4526
0.00935988	89.9893
0.0124056	104.986
0.0317539	111.887
0.0629763	116.467
0.0867589	118.747
0.104587	118.727
0.125387	118.703
0.146192	119.834
0.166992	119.81
0.184826	120.943
0.207106	119.764
0.25614	120.862
0.30963	121.955
0.360144	121.898
0.409172	121.842
0.4582	121.786
0.508725	124.036
0.559239	123.979
0.611238	123.919
0.660266	123.864
0.710774	122.652
0.753859	122.603
0.783573	122.569
0.813287	122.535
0.835567	121.356
0.853401	122.49
0.874195	121.312
0.889063	123.603
0.902423	121.28
0.91728	121.263
0.941057	122.39
0.961862	123.52
0.981176	123.498
1.00792	123.468
