Adsorption isotherm of Carbon Dioxide on MOF-130T
DOI: 10.1080/01496395.2011.557026
Adsorbate Carbon Dioxide: InChIKey CURLTUGMZLYLDI-UHFFFAOYSA-N
Temperature: 300 K
Tabular data in the source: 0
pressure (bar)	uptake (mmol/g)
0.00123989	0.00567192
0.120273	0.544516
0.243079	1.00981
0.363483	1.33357
0.485073	1.75357
0.603014	2.03769
