Adsorption isotherm of Carbon Dioxide on MOF-50T
DOI: 10.1080/01496395.2011.557026
Adsorbate Carbon Dioxide: InChIKey CURLTUGMZLYLDI-UHFFFAOYSA-N
Temperature: 300 K
Tabular data in the source: 0
pressure (bar)	uptake (mmol/g)
0.00123989	0.00567192
0.124281	0.074742
0.243585	0.155098
0.365366	0.252458
0.487164	0.321517
0.606469	0.401873
