Adsorption isotherm of Carbon Dioxide on MOF-75T
DOI: 10.1080/01496395.2011.557026
Adsorbate Carbon Dioxide: InChIKey CURLTUGMZLYLDI-UHFFFAOYSA-N
Temperature: 300 K
Tabular data in the source: 0
pressure (bar)	uptake (mmol/g)
0.124312	0.0225806
0.243637	0.0677419
0.366702	0.0959677
0.487271	0.141129
0.6066	0.180645
