Adsorption isotherm of Nitrogen on MOF-50T
DOI: 10.1080/01496395.2011.557026
Adsorbate Nitrogen: InChIKey IJGRMHOSHXDMSA-UHFFFAOYSA-N
Temperature: 77 K
Tabular data in the source: 0
pressure (bar)	uptake (cm3(STP)/g)
0.000188569	38.0767
0.000319996	64.615
0.0152341	76.1365
0.0301082	79.5811
0.0687306	78.3833
0.0835989	80.674
0.101427	80.6537
0.125198	80.6267
0.163826	80.5827
0.25594	80.4778
0.306465	82.7279
0.356978	82.6704
0.407486	81.459
0.45652	82.5571
0.507034	82.4995
0.559033	82.4403
0.609541	81.229
0.66006	82.3253
0.710574	82.2678
0.752179	83.3742
0.780413	84.4959
0.813098	84.4587
0.833898	84.435
0.851726	84.4147
0.874023	86.697
0.888886	87.8339
0.903743	87.817
0.915634	88.9573
0.923074	91.2565
0.942399	93.5422
0.954308	98.144
0.967696	101.59
0.97813	108.502
0.990062	117.719
0.999022	126.939
1.00652	141.931
1.00808	155.775
1.0111	165.002
1.01112	169.618
