Adsorption isotherm of Carbon Dioxide on MOF-100T
DOI: 10.1080/01496395.2011.557026
Adsorbate Carbon Dioxide: InChIKey CURLTUGMZLYLDI-UHFFFAOYSA-N
Temperature: 300 K
Tabular data in the source: 0
pressure (bar)	uptake (mmol/g)
0.121802	0.0620968
0.2436	0.129839
0.366636	0.208871
0.487184	0.287903
0.606493	0.36129
