Adsorption isotherm of Carbon Dioxide on MOF-50T
DOI: 10.1080/01496395.2011.557026
Adsorbate Carbon Dioxide: InChIKey CURLTUGMZLYLDI-UHFFFAOYSA-N
Temperature: 300 K
Tabular data in the source: 0
pressure (bar)	uptake (mmol/g)
0.0236151	0.0112903
0.0733251	0.0451613
0.120552	0.0733871
0.186418	0.118548
0.236128	0.152419
0.298267	0.191935
0.355433	0.231452
0.418812	0.276613
0.475982	0.310484
0.533144	0.355645
0.600253	0.400806
0.663629	0.451613
