Adsorption isotherm of Carbon Dioxide on MOF-130T
DOI: 10.1080/01496395.2011.557026
Adsorbate Carbon Dioxide: InChIKey CURLTUGMZLYLDI-UHFFFAOYSA-N
Temperature: 300 K
Tabular data in the source: 0
pressure (bar)	uptake (mmol/g)
0.0359607	0.158065
0.078111	0.36129
0.121518	0.541935
0.173621	0.733871
0.223251	0.903226
0.284046	1.1121
0.333686	1.26452
0.389529	1.43952
0.445378	1.60323
0.491295	1.74435
0.537218	1.87419
0.586862	2.02097
0.632782	2.15645
0.655127	2.2129
