Adsorption isotherm of Carbon Dioxide on MOF-75T
DOI: 10.1080/01496395.2011.557026
Adsorbate Carbon Dioxide: InChIKey CURLTUGMZLYLDI-UHFFFAOYSA-N
Temperature: 300 K
Tabular data in the source: 0
pressure (bar)	uptake (mmol/g)
0.045997	0.00564516
0.0944771	0.0169355
0.152897	0.0395161
0.218779	0.0564516
0.290871	0.0846774
0.351783	0.0959677
0.415179	0.112903
0.468629	0.129839
0.539481	0.152419
0.595414	0.175
0.645134	0.191935
