Adsorption isotherm of Carbon Dioxide on MOF-100T
DOI: 10.1080/01496395.2011.557026
Adsorbate Carbon Dioxide: InChIKey CURLTUGMZLYLDI-UHFFFAOYSA-N
Temperature: 300 K
Tabular data in the source: 0
pressure (bar)	uptake (mmol/g)
0.0459869	0.0225806
0.0969402	0.0564516
0.155356	0.0846774
0.222465	0.129839
0.292064	0.169355
0.349233	0.203226
0.417589	0.242742
0.468545	0.270968
0.536901	0.310484
0.589094	0.35
0.640047	0.383871
