Adsorption isotherm of Nitrogen on TTF-Ph-COF
DOI: 10.1002/chem.201402844
Article source: Figure 4a
Adsorbate Nitrogen: InChIKey IJGRMHOSHXDMSA-UHFFFAOYSA-N
Kind: experiment
Temperature: 77 K
Tabular data in the source: 0
pressure (bar)	uptake (cm3(STP)/g)
0.001441	19.2827
0.001441	53.8942
0.001441	78.8145
0.001441	103.735
0.008275	130.039
0.015109	166.035
0.020235	189.571
0.030486	217.26
0.039029	244.949
0.047571	253.256
0.081742	257.41
0.112496	262.947
0.134707	264.332
0.162044	268.485
0.194506	272.639
0.220134	276.792
0.238928	276.792
0.262848	276.792
0.290184	282.33
0.312395	282.33
0.36536	283.714
0.34144	305.866
0.414908	283.714
0.404656	301.712
0.474707	289.252
0.445661	303.097
0.515712	290.637
0.510586	310.019
0.561842	289.252
0.5533	310.019
0.609682	297.559
0.597722	311.404
0.666063	298.943
0.645561	314.172
0.712194	305.866
0.696817	323.864
0.756616	321.095
0.761742	307.25
0.814707	314.172
0.865963	321.095
0.867671	350.168
0.917219	348.784
0.917219	373.704
0.965058	398.624
0.985561	521.841
0.965058	514.919
0.968475	535.686
0.995812	647.827
0.990686	681.054
0.990686	707.359
1.00094	732.279
1.00606	847.189
0.812998	330.786
0.09541	279.561
0.127873	282.33
0.151792	285.099
0.194506	287.868
0.22526	290.637
0.261139	294.79
0.29531	294.79
