Adsorption isotherm of Nitrogen on TTF-Py-COF
DOI: 10.1002/chem.201402844
Article source: cc/g STP
Adsorbate Nitrogen: InChIKey IJGRMHOSHXDMSA-UHFFFAOYSA-N
Kind: experiment
Temperature: 77 K
Tabular data in the source: 0
pressure (bar)	uptake (cm3(STP)/g)
0.000854	152.065
0.000854	163.555
0.007683	174.327
0.021341	184.381
0.033291	190.126
0.053778	195.871
0.07768	202.334
0.110117	206.643
0.125483	208.797
0.164749	213.824
0.204016	218.133
0.241575	223.878
0.289378	228.187
0.323523	230.341
0.376448	232.496
0.415714	236.086
0.46181	241.113
0.513027	243.986
0.562537	246.858
0.617169	251.885
0.663265	257.63
0.716189	261.939
0.770821	271.993
0.818624	276.302
0.871549	288.51
0.922766	304.309
0.962033	327.289
0.98252	354.578
0.992763	380.431
1.00301	404.129
1.00813	437.882
1.01666	493.178
1.00471	487.433
0.985934	422.083
0.950082	348.115
0.898865	315.081
0.851062	300.718
0.79643	291.382
0.752041	285.637
0.690581	283.483
0.6479	279.892
0.59156	274.147
0.535221	270.557
0.494247	269.12
0.437908	257.63
0.390106	252.603
0.332059	250.449
0.284256	246.858
0.24499	244.704
0.198894	240.395
0.161335	236.804
0.122068	231.777
0.094752	228.905
0.084509	222.442
0.064022	218.851
0.036706	208.797
0.017926	195.153
0.000854	74.5063
0.007683	91.7415
0.011097	106.104
0.012804	123.339
0.012804	142.729
