Adsorption isotherm of Nitrogen on Mg-MOF-74
DOI: 10.1016/j.jcis.2010.09.065
Adsorbate Nitrogen: InChIKey IJGRMHOSHXDMSA-UHFFFAOYSA-N
Temperature: 77 K
Tabular data in the source: 0
pressure (bar)	uptake (cm3(STP)/g)
0.0482234	3.42466
0.0507614	121.575
0.0558376	352.74
0.104061	373.288
0.220812	380.137
0.286802	381.849
0.380711	385.274
0.479695	390.411
0.675127	395.548
0.786802	402.397
0.883249	407.534
0.989848	417.808
