Adsorption isotherm of Carbon Dioxide on Mg-MOF-74
DOI: 10.1016/j.jcis.2010.09.065
Adsorbate Carbon Dioxide: InChIKey CURLTUGMZLYLDI-UHFFFAOYSA-N
Temperature: 298 K
Tabular data in the source: 0
pressure (bar)	uptake (mmol/g)
0.0261647	4.0678
0.0661375	5.61356
0.135975	6.58983
0.217648	7.11864
0.350515	7.52542
0.528487	7.68814
0.799925	7.85085
0.950699	7.89153
1.09542	7.89153
