Adsorption isotherm of Carbon Dioxide on Zeolite 13X
DOI: 10.1016/j.jcis.2010.09.065
Adsorbate Carbon Dioxide: InChIKey CURLTUGMZLYLDI-UHFFFAOYSA-N
Temperature: 298 K
Tabular data in the source: 0
pressure (bar)	uptake (mmol/g)
0.0165746	1.2289
0.058011	2.03492
0.0883978	2.34933
0.149171	2.6232
0.229282	2.80176
0.31768	2.89853
0.38674	2.92678
0.538674	2.99712
0.696133	3.05387
0.803867	3.05534
0.930939	3.07073
1.04144	3.08589
