Adsorption isotherm of Methane on Zeolite 13X
DOI: 10.1016/j.jcis.2010.09.065
Adsorbate Methane: InChIKey VNWKTOKETHGBQD-UHFFFAOYSA-N
Temperature: 298 K
Tabular data in the source: 0
pressure (bar)	uptake (mmol/g)
0.0493758	0.0217687
0.137148	0.062585
0.20025	0.0870748
0.266091	0.114286
0.331932	0.141497
0.397772	0.168707
0.46636	0.195918
0.537695	0.223129
0.669405	0.269388
0.732517	0.291156
0.798367	0.315646
0.930085	0.359184
1.01241	0.386395
