Adsorption isotherm of Methane on Mg-MOF-74
DOI: 10.1016/j.jcis.2010.09.065
Adsorbate Methane: InChIKey VNWKTOKETHGBQD-UHFFFAOYSA-N
Temperature: 298 K
Tabular data in the source: 0
pressure (bar)	uptake (mmol/g)
0.13602	0.16405
0.262972	0.327972
0.39597	0.457849
0.538035	0.621986
0.598489	0.682572
0.661965	0.743202
0.728463	0.803875
0.801008	0.873166
0.867506	0.933838
0.994458	1.04657
1.067	1.11586
