Adsorption isotherm of Carbon Dioxide on Zeolite 13X
DOI: 10.1016/j.jcis.2010.09.065
Adsorbate Carbon Dioxide: InChIKey CURLTUGMZLYLDI-UHFFFAOYSA-N
Temperature: 318 K
Tabular data in the source: 0
pressure (bar)	uptake (mmol/g)
0.0303867	1.06526
0.0911602	1.58486
0.129834	1.76286
0.19337	1.99581
0.262431	2.16058
0.328729	2.31166
0.395028	2.42178
0.530387	2.6011
0.662983	2.72577
0.798343	2.80953
0.930939	2.90691
1.01381	2.94899
