Adsorption isotherm of Carbon Dioxide on Mg-MOF-74
DOI: 10.1016/j.jcis.2010.09.065
Adsorbate Carbon Dioxide: InChIKey CURLTUGMZLYLDI-UHFFFAOYSA-N
Temperature: 278 K
Tabular data in the source: 0
pressure (bar)	uptake (mmol/g)
0.0204821	4.75932
0.0362524	6.14237
0.0639605	7.28136
0.151847	8.17627
0.29975	8.50169
0.45963	8.66441
0.688797	8.70508
0.893863	8.78644
1.09891	8.82712
