Adsorption isotherm of Methane on Zeolite 13X
DOI: 10.1016/j.jcis.2010.09.065
Adsorbate Methane: InChIKey VNWKTOKETHGBQD-UHFFFAOYSA-N
Temperature: 318 K
Tabular data in the source: 0
pressure (bar)	uptake (mmol/g)
0.0384242	0.0108844
0.139979	0.0380952
0.197615	0.0544218
0.266231	0.0734694
0.329362	0.0897959
0.392483	0.108844
0.466612	0.122449
0.532481	0.141497
0.664246	0.171429
0.727377	0.187755
0.867384	0.217687
0.930524	0.231293
1.01288	0.25034
