Adsorption isotherm of Carbon Dioxide on Zeolite 13X
DOI: 10.1016/j.jcis.2010.09.065
Adsorbate Carbon Dioxide: InChIKey CURLTUGMZLYLDI-UHFFFAOYSA-N
Temperature: 298 K
Tabular data in the source: 0
pressure (bar)	uptake (mmol/g)
0.0138122	1.1606
0.0331492	1.63868
0.0662983	1.93947
0.132597	2.33628
0.198895	2.55562
0.325967	2.80308
0.38674	2.91313
0.533149	3.05165
0.660221	3.17625
0.798343	3.24639
0.933702	3.3438
1.01934	3.35863
