Adsorption isotherm of Carbon Dioxide on Zeolite 13X
DOI: 10.1016/j.jcis.2010.09.065
Adsorbate Carbon Dioxide: InChIKey CURLTUGMZLYLDI-UHFFFAOYSA-N
Temperature: 318 K
Tabular data in the source: 0
pressure (bar)	uptake (mmol/g)
0.0303867	0.887787
0.0773481	1.53007
0.121547	1.84466
0.19337	2.14598
0.256906	2.31067
0.328729	2.42087
0.395028	2.51734
0.530387	2.6284
0.660221	2.68478
0.803867	2.74135
0.91989	2.78389
1.0442	2.78559
