Adsorption isotherm of Carbon Dioxide on Mg-MOF-74
DOI: 10.1016/j.jcis.2010.09.065
Adsorbate Carbon Dioxide: InChIKey CURLTUGMZLYLDI-UHFFFAOYSA-N
Temperature: 318 K
Tabular data in the source: 0
pressure (bar)	uptake (mmol/g)
0.00937229	0.650847
0.0560906	3.62034
0.144243	5.04407
0.265214	5.77627
0.367931	6.18305
0.588318	6.75254
0.811597	7.07797
0.953408	7.28136
1.09522	7.48475
