Adsorption isotherm of Methane on Zeolite 13X
DOI: 10.1016/j.jcis.2010.09.065
Adsorbate Methane: InChIKey VNWKTOKETHGBQD-UHFFFAOYSA-N
Temperature: 278 K
Tabular data in the source: 0
pressure (bar)	uptake (mmol/g)
0.0328456	0.0353741
0.0685038	0.0517007
0.120589	0.0843537
0.197326	0.138776
0.268595	0.185034
0.337137	0.22585
0.400174	0.269388
0.468724	0.307483
0.540013	0.348299
0.668881	0.421769
0.800497	0.495238
0.934888	0.560544
1.01991	0.601361
