Adsorption isotherm of Methane on Mg-MOF-74
DOI: 10.1016/j.jcis.2010.09.065
Adsorbate Methane: InChIKey VNWKTOKETHGBQD-UHFFFAOYSA-N
Temperature: 318 K
Tabular data in the source: 0
pressure (bar)	uptake (mmol/g)
0.0725441	0.0436937
0.202519	0.156464
0.329471	0.243593
0.471537	0.33947
0.598489	0.418067
0.661965	0.4531
0.731486	0.49675
0.794962	0.540315
0.861461	0.583923
0.994458	0.654074
1.067	0.689235
