Adsorption isotherm of Carbon Dioxide on Zeolite 13X
DOI: 10.1016/j.jcis.2010.09.065
Adsorbate Carbon Dioxide: InChIKey CURLTUGMZLYLDI-UHFFFAOYSA-N
Temperature: 278 K
Tabular data in the source: 0
pressure (bar)	uptake (mmol/g)
0.0110497	1.51551
0.0248619	2.14368
0.0662983	2.75858
0.121547	3.04603
0.19337	3.21083
0.270718	3.2938
0.39779	3.37744
0.538674	3.40667
0.660221	3.43563
0.812155	3.45136
0.939227	3.4531
1.04696	3.45457
