Adsorption isotherm of Methane on Mg-MOF-74
DOI: 10.1016/j.jcis.2010.09.065
Adsorbate Methane: InChIKey VNWKTOKETHGBQD-UHFFFAOYSA-N
Temperature: 278 K
Tabular data in the source: 0
pressure (bar)	uptake (mmol/g)
0.0695214	0.14604
0.217632	0.421184
0.329471	0.653149
0.468514	0.894035
0.601511	1.1263
0.737531	1.35008
0.797985	1.43626
0.861461	1.54809
0.934005	1.64298
1.00957	1.7635
1.067	1.85818
