Adsorption isotherm of Carbon Dioxide on Mg-MOF-74
DOI: 10.1016/j.jcis.2010.09.065
Adsorbate Carbon Dioxide: InChIKey CURLTUGMZLYLDI-UHFFFAOYSA-N
Temperature: 318 K
Tabular data in the source: 0
pressure (bar)	uptake (mmol/g)
0.0560906	3.62034
0.141269	5.12542
0.265357	6.06102
0.392215	6.50847
0.591394	6.87458
0.808561	7.03729
0.956361	7.15932
1.10111	7.2
