Adsorption isotherm of Carbon Dioxide on Mg-MOF-74
DOI: 10.1016/j.jcis.2010.09.065
Adsorbate Carbon Dioxide: InChIKey CURLTUGMZLYLDI-UHFFFAOYSA-N
Temperature: 298 K
Tabular data in the source: 0
pressure (bar)	uptake (mmol/g)
0.0168538	3.53898
0.0538319	5.12542
0.09637	5.77627
0.184114	6.38644
0.301967	6.91525
0.528405	7.52542
0.797053	8.13559
0.93589	8.42034
1.07167	8.62373
