Adsorption isotherm of Carbon Dioxide on Mg-MOF-74
DOI: 10.1016/j.jcis.2010.09.065
Adsorbate Carbon Dioxide: InChIKey CURLTUGMZLYLDI-UHFFFAOYSA-N
Temperature: 278 K
Tabular data in the source: 0
pressure (bar)	uptake (mmol/g)
0.0150376	0.0150376
0.0270677	5.65332
0.0631579	6.34362
0.0932331	6.7087
0.171429	7.15351
0.201504	7.3152
0.237594	7.55805
0.267669	7.55703
0.303759	7.79987
0.336842	8.00214
0.36391	8.12326
0.403008	8.24397
0.463158	8.48599
0.526316	8.64657
0.607519	8.96924
0.667669	9.17059
0.733835	9.41241
0.793985	9.57309
0.869173	9.77393
0.932331	10.0159
1.01053	10.1759
1.07368	10.3772
