Adsorption isotherm of Carbon Dioxide on Zeolite 13X
DOI: 10.1016/j.jcis.2010.09.065
Adsorbate Carbon Dioxide: InChIKey CURLTUGMZLYLDI-UHFFFAOYSA-N
Temperature: 278 K
Tabular data in the source: 0
pressure (bar)	uptake (mmol/g)
0.0110497	1.51551
0.0303867	2.08915
0.0635359	2.48551
0.11326	2.81383
0.196133	3.04705
0.270718	3.19824
0.39779	3.37744
0.538674	3.50223
0.657459	3.53116
0.798343	3.62865
0.933702	3.67145
1.01657	3.71354
