Adsorption isotherm of N-propane on MOF-74-Ni
DOI: 10.1016/j.ces.2014.12.001
Article source: Figure 5d
Adsorbate N-propane: InChIKey ATUOYWHBWRKTHZ-UHFFFAOYSA-N
Kind: experiment
Temperature: 298 K
Tabular data in the source: 0
pressure (bar)	uptake (mmol/g)
0.009404	1.08314
0.050157	2.62396
0.103448	3.16451
0.200627	3.51665
0.304075	3.66033
0.401254	3.74164
0.495298	3.78135
0.598746	3.82086
0.69906	3.81877
0.799373	3.85835
0.899687	3.85626
0.996865	3.87507
1.10031	3.89374
