Adsorption isotherm of N-propane on MOF-74-Ni
DOI: 10.1016/j.ces.2014.12.001
Article source: Figure 5d
Adsorbate N-propane: InChIKey ATUOYWHBWRKTHZ-UHFFFAOYSA-N
Kind: experiment
Temperature: 348 K
Tabular data in the source: 0
pressure (bar)	uptake (mmol/g)
0.276923	0.107143
0.523077	0.178571
0.676923	0.232143
0.923077	0.339286
1.50769	0.535714
2.18462	0.767857
3.07692	1.03571
4.8	1.53571
7.23077	2.08929
10.2462	2.625
