Adsorption isotherm of Propene on MOF-74-Ni
DOI: 10.1016/j.ces.2014.12.001
Article source: Figure 5c
Adsorbate Propene: InChIKey QQONPFPTGQHPMA-UHFFFAOYSA-N
Kind: experiment
Temperature: 298 K
Tabular data in the source: 0
pressure (bar)	uptake (mmol/g)
0.050955	3.90295
0.098726	4.13502
0.197452	4.36709
0.302548	4.51477
0.401274	4.59916
0.5	4.64135
0.598726	4.68354
0.700637	4.72574
0.802548	4.76793
0.901274	4.81013
1	4.83122
1.10191	4.87342
