Adsorption isotherm of Propene on MOF-74-Ni
DOI: 10.1016/j.ces.2014.12.001
Article source: Figure 5c
Adsorbate Propene: InChIKey QQONPFPTGQHPMA-UHFFFAOYSA-N
Kind: experiment
Temperature: 348 K
Tabular data in the source: 0
pressure (bar)	uptake (mmol/g)
0.127389	1.49789
0.509554	2.63713
1.05096	3.12236
2.07006	3.5654
3.02548	3.77637
4.01274	3.92405
5.06369	3.98734
6.01911	4.07173
7.00637	4.13502
8.02548	4.17722
9.01274	4.21941
10	4.2616
11.0191	4.3038
