Adsorption isotherm of Methane on MOF-74-Ni
DOI: 10.1016/j.ces.2014.12.001
Article source: Figure 5b
Adsorbate Methane: InChIKey VNWKTOKETHGBQD-UHFFFAOYSA-N
Kind: experiment
Temperature: 323 K
Tabular data in the source: 0
pressure (bar)	uptake (mmol/g)
0	0
0.337423	0.215247
0.490798	0.286996
0.705521	0.412556
0.920245	0.466368
1.38037	0.717489
2.11656	1.07623
3.09816	1.50673
4.90798	2.13453
7.30061	2.81614
10.3067	3.44395
