Adsorption isotherm of N-propane on MOF-74-Ni
DOI: 10.1016/j.ces.2014.12.001
Article source: Figure 5d
Adsorbate N-propane: InChIKey ATUOYWHBWRKTHZ-UHFFFAOYSA-N
Kind: experiment
Temperature: 323 K
Tabular data in the source: 0
pressure (bar)	uptake (mmol/g)
0.012539	0.374739
0.053291	1.33222
0.115987	2.10175
0.203762	2.68325
0.30094	2.99373
0.404389	3.17908
0.504702	3.32282
0.598746	3.40419
0.702194	3.46454
0.799373	3.52501
0.896552	3.56466
1.00313	3.62493
1.10345	3.64368
