Adsorption isotherm of N-propane on MOF-74-Ni
DOI: 10.1016/j.ces.2014.12.001
Article source: Figure 5d
Adsorbate N-propane: InChIKey ATUOYWHBWRKTHZ-UHFFFAOYSA-N
Kind: experiment
Temperature: 348 K
Tabular data in the source: 0
pressure (bar)	uptake (mmol/g)
0.009404	0.125523
0.050157	0.564854
0.128527	1.15063
0.200627	1.56904
0.297806	1.96653
0.401254	2.25941
0.501567	2.48954
0.598746	2.63598
0.695925	2.76151
0.799373	2.88703
0.902821	2.97071
1	3.05439
1.10031	3.11715
