Adsorption isotherm of Propene on MOF-74-Ni
DOI: 10.1016/j.ces.2014.12.001
Article source: Figure 5c
Adsorbate Propene: InChIKey QQONPFPTGQHPMA-UHFFFAOYSA-N
Kind: experiment
Temperature: 323 K
Tabular data in the source: 0
pressure (bar)	uptake (mmol/g)
0.012698	2.27848
0.050794	3.39662
0.098413	3.77637
0.2	4.07173
0.298413	4.24051
0.4	4.34599
0.498413	4.36709
0.6	4.43038
0.698413	4.45148
0.8	4.49367
0.901587	4.51477
1	4.53586
1.09841	4.53586
