Adsorption isotherm of Methane on MOF-74-Ni
DOI: 10.1016/j.ces.2014.12.001
Article source: Figure 5b
Adsorbate Methane: InChIKey VNWKTOKETHGBQD-UHFFFAOYSA-N
Kind: experiment
Temperature: 298 K
Tabular data in the source: 0
pressure (bar)	uptake (mmol/g)
0	0
0.244084	0.269058
0.550121	0.484305
0.764126	0.663677
1.0089	0.843049
1.43705	1.18386
2.08017	1.57848
3.03001	2.09865
4.90128	2.83408
7.29645	3.46188
10.308	3.96413
