Adsorption isotherm of Carbon Dioxide on LMOF-1a
DOI: 10.1039/c5ta03361f
Article source: Figure  6
Adsorbate Carbon Dioxide: InChIKey CURLTUGMZLYLDI-UHFFFAOYSA-N
Kind: experiment
Temperature: 298 K
Tabular data in the source: 0
pressure (bar)	uptake (cm3(STP)/g)
0.591196	1.069
1.25805	1.45
1.8018	1.734
2.66551	1.989
3.34519	2.363
4.88153	3.023
6.37747	3.715
9.53287	5.269
12.7146	6.726
15.9918	8.225
19.0991	9.602
22.3289	10.892
25.5041	12.037
28.8493	13.432
31.9637	14.641
35.1935	15.787
38.4027	16.957
41.612	18.039
44.8283	19.345
47.9901	20.498
51.1923	21.66
54.3951	22.646
57.6178	23.696
60.9496	24.819
63.676	25.665
