Adsorption isotherm of Nitrogen on LMOF-1a
DOI: 10.1039/c5ta03361f
Article source: Figure  4
Adsorbate Nitrogen: InChIKey IJGRMHOSHXDMSA-UHFFFAOYSA-N
Kind: experiment
Temperature: 77 K
Tabular data in the source: 0
pressure (bar)	uptake (cm3(STP)/g)
0.001793	83.86
0.00462	214.75
0.008471	425.4
0.011581	457.16
0.030955	617.48
0.032677	647.05
0.05203	756.39
0.052436	757.28
0.101305	923.17
0.10174	925.24
0.151937	946.7
0.153173	947.76
0.202123	959.78
0.206642	955.69
0.254336	969.54
0.257801	964.95
0.305049	974.33
0.354597	981.03
0.404591	985.96
0.458222	990.36
0.508125	994.14
0.556963	995.74
0.607757	998.62
0.659079	1000.87
0.70969	1003.36
0.76163	1007.01
0.814288	1007.85
0.861881	1007.67
0.911246	1010.68
0.965323	1012.92
1.00954	1014.41
