Adsorption isotherm of Carbon Dioxide on LMOF-1a
DOI: 10.1039/c5ta03361f
Article source: Figure  6
Adsorbate Carbon Dioxide: InChIKey CURLTUGMZLYLDI-UHFFFAOYSA-N
Kind: experiment
Temperature: 273 K
Tabular data in the source: 0
pressure (bar)	uptake (cm3(STP)/g)
0.298185	1.292
0.622057	2.065
0.971617	2.71
1.31389	3.211
1.68219	4.009
2.63541	5.743
3.50046	7.315
5.19723	10.188
6.91587	12.846
8.66089	15.384
10.3906	17.753
12.1464	20.019
13.8838	22.213
15.5844	24.214
17.3659	26.345
19.1105	28.179
20.7782	30.115
22.5523	31.87
24.3154	33.664
26.0306	35.545
27.7239	37.186
29.4908	38.941
31.1841	40.67
32.9399	42.168
34.4967	43.719
