Adsorption isotherm of Nitrogen on JUC-552
DOI: 10.1021/jacs.0c00560
Article source: Figure 4c
Adsorbate Nitrogen: InChIKey IJGRMHOSHXDMSA-UHFFFAOYSA-N
Kind: experiment
Temperature: 77 K
Tabular data in the source: 0
pressure (bar)	uptake (cm3(STP)/g)
-0.00087	266.002
-0.00087	303.778
0	33.0535
0	149.528
0	226.653
0	339.979
0	72.4029
0	190.451
0	374.607
0.00087	110.178
0.00087	417.104
0.001741	454.879
0.009575	520.986
0.019151	576.076
0.047006	632.739
0.084437	694.124
0.116646	725.603
0.153206	758.657
0.189767	791.71
0.225457	821.616
0.257665	867.261
0.305542	972.718
0.345584	1038.82
0.363865	1062.43
0.399555	1101.78
0.436115	1136.41
0.471805	1163.17
0.507495	1185.2
0.544056	1205.67
0.578005	1221.41
0.615436	1240.29
0.651126	1252.89
0.686816	1267.05
0.721636	1279.64
0.757326	1292.24
0.793887	1303.25
0.828706	1314.27
0.864396	1323.71
0.900086	1333.16
0.934035	1342.6
0.970596	1359.92
1.00716	1400.84
0.003482	505.247
0.008705	602.833
0.019151	713.012
0.040043	786.988
0.082697	917.629
0.116646	1086.04
0.155818	1172.61
0.189767	1218.26
0.224586	1251.31
0.259406	1274.92
0.293355	1293.81
0.329916	1309.55
0.365606	1323.71
0.400425	1333.16
0.435245	1341.03
0.470935	1348.9
0.505755	1358.34
0.542315	1364.64
0.577135	1367.79
0.611954	1372.51
0.647644	1374.08
0.684205	1375.66
0.699003	1377.23
0.754715	1377.23
0.789534	1378.8
0.804332	1380.38
0.840893	1381.95
0.876583	1383.53
0.911403	1383.53
0.948834	1385.1
0.988876	1392.97
