Adsorption isotherm of Nitrogen on JUC-551
DOI: 10.1021/jacs.0c00560
Article source: Figure 4b
Adsorbate Nitrogen: InChIKey IJGRMHOSHXDMSA-UHFFFAOYSA-N
Kind: experiment
Temperature: 77 K
Tabular data in the source: 0
pressure (bar)	uptake (cm3(STP)/g)
-0.014786	1935.33
-0.014786	1970.03
-0.014786	2033.12
-0.014786	1900.63
-0.014786	2004.73
-0.013916	2099.37
-0.013916	2130.91
-0.013916	2171.92
-0.013916	2072.56
-0.002609	2239.75
0.012176	2257.1
0.03479	2279.18
0.06784	2342.27
0.107848	2465.3
0.144377	2503.15
0.180906	2525.24
0.215696	2544.16
0.249616	2558.36
0.287015	2570.98
0.320935	2582.02
0.354855	2600.95
0.386166	2679.81
0.424434	2760.25
0.461833	2809.15
0.514888	2854.89
0.531413	2865.93
0.567942	2892.74
0.605341	2917.98
0.64187	2936.91
0.677529	2955.84
0.714059	2970.03
0.749718	2987.38
0.786247	3004.73
0.821907	3014.2
0.857566	3026.81
0.894095	3039.43
0.928885	3055.21
0.963675	3074.13
0.998464	3140.38
1.00368	3175.08
-0.011307	2227.13
-0.008697	2342.27
0	2454.26
0.03218	2533.12
0.045227	2552.05
0.104369	2604.1
0.140029	2776.03
0.180037	2900.63
0.213957	2936.91
0.247877	2960.57
0.282666	2976.34
0.318326	2990.54
0.353115	3001.58
0.37138	3004.73
0.422695	3015.77
0.461833	3023.66
0.497493	3039.43
0.532282	3048.9
0.568812	3052.05
0.604471	3058.36
0.641	3063.09
0.67666	3067.82
0.711449	3072.56
0.747979	3077.29
0.782768	3083.6
0.819297	3086.75
0.835823	3091.48
0.873221	3094.64
0.91062	3102.52
0.953238	3115.14
0.988027	3159.31
