Adsorption isotherm of Nitrogen on JUC-550
DOI: 10.1021/jacs.0c00560
Article source: Figure 4a
Adsorbate Nitrogen: InChIKey IJGRMHOSHXDMSA-UHFFFAOYSA-N
Kind: experiment
Temperature: 77 K
Tabular data in the source: 0
pressure (bar)	uptake (cm3(STP)/g)
0.000859	70.7547
0.000859	23.5849
0.000859	92.9245
0.000859	112.736
0.000859	47.6415
0.001719	133.962
0.005156	153.774
0.007735	168.868
0.028361	190.094
0.048987	202.83
0.070472	211.792
0.082504	216.981
0.10313	223.113
0.151257	237.264
0.202822	251.887
0.252668	262.736
0.303373	272.17
0.355798	281.132
0.405644	287.264
0.45549	294.34
0.507055	302.83
0.556901	308.019
0.607606	313.679
0.658312	318.868
0.709017	324.528
0.758004	329.717
0.808709	334.434
0.860274	340.566
0.91098	348.113
0.961685	356.604
0.007735	181.604
0.012032	210.849
0.025782	240.566
0.050705	264.623
0.100552	286.321
0.151257	299.057
0.201103	308.962
0.251809	316.509
0.304233	323.113
0.354938	327.358
0.405644	331.604
0.45463	334.906
0.506195	340.094
0.55776	343.396
0.607606	346.226
0.658312	349.057
0.709877	351.887
0.758004	354.717
0.811288	357.547
0.857696	360.377
0.908401	363.208
0.959107	367.453
1.00208	392.453
