Adsorption isotherm of Carbon Dioxide on CPM-5
DOI: 10.1016/j.micromeso.2013.03.024
Adsorbate Carbon Dioxide: InChIKey CURLTUGMZLYLDI-UHFFFAOYSA-N
Temperature: 298 K
Tabular data in the source: 0
pressure (bar)	uptake (mmol/g)
0.0100557	0.0218475
0.0546271	0.182436
0.167367	0.480671
0.340409	0.84773
0.550156	1.32185
0.715333	1.65067
0.914593	2.04832
1.03782	2.26244
