Adsorption isotherm of Carbon Dioxide on CPM-5
DOI: 10.1016/j.micromeso.2013.03.024
Adsorbate Carbon Dioxide: InChIKey CURLTUGMZLYLDI-UHFFFAOYSA-N
Temperature: 298 K
Tabular data in the source: 0
pressure (bar)	uptake (wt%)
0.0100557	0.153561
0.0624926	0.966334
0.146392	2.09373
0.259131	3.35222
0.377114	4.37474
0.523938	5.65944
0.641921	6.57709
0.741551	7.38986
0.919837	8.83188
1.04569	9.90684
