Adsorption isotherm of Carbon Dioxide on CPM-5
DOI: 10.1016/j.micromeso.2013.03.024
Adsorbate Carbon Dioxide: InChIKey CURLTUGMZLYLDI-UHFFFAOYSA-N
Temperature: 298 K
Tabular data in the source: 0
pressure (bar)	uptake (wt%)
0.038896	0.153561
0.0703582	0.835242
0.135904	1.6218
0.274862	2.88028
0.377114	3.87659
0.568509	5.34482
0.728442	6.62953
0.877888	7.70449
1.04044	8.96297
