Adsorption isotherm of Carbon Dioxide on CPM-5
DOI: 10.1016/j.micromeso.2013.03.024
Adsorbate Carbon Dioxide: InChIKey CURLTUGMZLYLDI-UHFFFAOYSA-N
Temperature: 273 K
Tabular data in the source: 0
pressure (bar)	uptake (mmol/g)
0.00743381	0.0294945
0.0310304	0.235965
0.0756019	0.488318
0.135904	0.763612
0.222425	1.03126
0.369249	1.4442
0.476745	1.71185
0.589484	1.97949
0.707467	2.21655
0.843804	2.46891
1.0352	2.84361
