Adsorption isotherm of Carbon Dioxide on CPM-5
DOI: 10.1016/j.micromeso.2013.03.024
Adsorbate Carbon Dioxide: InChIKey CURLTUGMZLYLDI-UHFFFAOYSA-N
Temperature: 273 K
Tabular data in the source: 0
pressure (bar)	uptake (wt%)
0.00743381	0.209743
0.0572489	1.46386
0.11493	2.4121
0.193585	3.42151
0.340409	4.98151
0.453148	6.11327
0.589484	7.36739
0.757283	8.86621
0.948677	10.518
1.05617	11.4662
