Adsorption isotherm of Carbon Dioxide on CPM-5
DOI: 10.1016/j.micromeso.2013.03.024
Adsorbate Carbon Dioxide: InChIKey CURLTUGMZLYLDI-UHFFFAOYSA-N
Temperature: 273 K
Tabular data in the source: 0
pressure (bar)	uptake (wt%)
0.000432	0.179155
0.0677363	1.83092
0.138526	3.20739
0.287972	4.92033
0.424308	6.48033
0.594728	8.25445
0.788745	9.9368
0.896241	10.7015
0.96703	11.2827
1.05355	12.1697
