Adsorption isotherm of Carbon Dioxide on CPM-5
DOI: 10.1016/j.micromeso.2013.03.024
Adsorbate Carbon Dioxide: InChIKey CURLTUGMZLYLDI-UHFFFAOYSA-N
Temperature: 273 K
Tabular data in the source: 0
pressure (bar)	uptake (wt%)
0.00481196	0.148566
0.0572489	1.6168
0.122795	2.90151
0.227669	4.33915
0.348274	5.96033
0.476745	7.42857
0.694358	9.63092
0.843804	11.0686
1.02471	12.6592
1.04569	12.9956
