Adsorption isotherm of Nitrogen on CPM-5
DOI: 10.1016/j.micromeso.2013.03.024
Adsorbate Nitrogen: InChIKey IJGRMHOSHXDMSA-UHFFFAOYSA-N
Temperature: 273 K
Tabular data in the source: 0
pressure (bar)	uptake (mmol/g)
0.00320797	0.00224687
0.0906029	0.0913897
0.181494	0.167423
0.265393	0.23297
0.363275	0.324734
0.429695	0.408633
0.534569	0.487289
0.616721	0.539726
0.681393	0.610516
