Adsorption isotherm of Carbon Dioxide on CPM-5
DOI: 10.1016/j.micromeso.2013.03.024
Adsorbate Carbon Dioxide: InChIKey CURLTUGMZLYLDI-UHFFFAOYSA-N
Temperature: 273 K
Tabular data in the source: 0
pressure (bar)	uptake (wt%)
0.000432	0.179155
0.0677363	1.83092
0.138526	3.20739
0.301081	5.19563
0.468879	7.12268
0.610459	8.52974
0.801854	10.3039
0.919837	11.3133
1.05093	12.3839
