Adsorption isotherm of Carbon Dioxide on CPM-5
DOI: 10.1016/j.micromeso.2013.03.024
Adsorbate Carbon Dioxide: InChIKey CURLTUGMZLYLDI-UHFFFAOYSA-N
Temperature: 298 K
Tabular data in the source: 0
pressure (bar)	uptake (wt%)
0.0100557	0.153561
0.0624926	0.966334
0.164745	2.14617
0.274862	3.24734
0.447904	4.7418
0.634056	6.28869
0.791367	7.65205
0.925081	8.59591
1.04306	9.59222
