Adsorption isotherm of Nitrogen on CPM-5
DOI: 10.1016/j.micromeso.2013.03.024
Adsorbate Nitrogen: InChIKey IJGRMHOSHXDMSA-UHFFFAOYSA-N
Temperature: 298 K
Tabular data in the source: 0
pressure (bar)	uptake (mmol/g)
0.00146007	0.00749056
0.0818634	0.0441964
0.177998	0.0887679
0.265393	0.133339
0.359779	0.177911
0.436687	0.209373
0.531074	0.267054
0.670905	0.340465
