Adsorption isotherm of Carbon Dioxide on Activated Carbon
DOI: 10.1007/s10450-022-00361-z
Article source: Figure 1
Adsorbate Carbon Dioxide: InChIKey CURLTUGMZLYLDI-UHFFFAOYSA-N
Kind: experiment
Temperature: 313 K
Tabular data in the source: 0
pressure (bar)	uptake (mmol/g)
0	0.007308
0.004263	0.03106
0.010353	0.056638
0.027406	0.131547
0.06821	0.270402
0.096224	0.350792
0.139464	0.465895
0.178441	0.562728
0.218636	0.655907
0.258831	0.736297
0.300853	0.827649
0.341657	0.897077
0.384287	0.975639
0.420219	1.03593
0.464677	1.10901
0.501827	1.16565
0.540195	1.23143
0.581608	1.28989
0.62363	1.34653
0.664434	1.40499
0.705238	1.46163
0.745432	1.52192
0.786845	1.57125
0.828258	1.62972
0.868453	1.66626
0.911084	1.72473
0.951888	1.76857
0.999391	1.82887
