Adsorption isotherm of Carbon Dioxide on Activated Carbon
DOI: 10.1007/s10450-022-00361-z
Article source: Figure 1
Adsorbate Carbon Dioxide: InChIKey CURLTUGMZLYLDI-UHFFFAOYSA-N
Kind: experiment
Temperature: 293 K
Tabular data in the source: 0
pressure (bar)	uptake (mmol/g)
0	0.058465
0.002436	0.085871
0.006699	0.107795
0.023752	0.222899
0.047503	0.352619
0.066382	0.451279
0.096224	0.58648
0.138246	0.750914
0.17905	0.89525
0.220463	1.0268
0.258222	1.1419
0.297199	1.25152
0.338611	1.35749
0.379415	1.46346
0.421437	1.55847
0.46285	1.65712
0.502436	1.73934
0.544458	1.83069
0.582217	1.90012
0.621803	1.98051
0.661998	2.0609
0.702192	2.13398
0.744823	2.20707
0.784409	2.27649
0.825213	2.34227
0.867235	2.41535
0.908648	2.47747
0.949452	2.54141
0.997564	2.61632
