Adsorption isotherm of Carbon Dioxide on Activated Carbon
DOI: 10.1007/s10450-022-00361-z
Article source: Figure 1
Adsorbate Carbon Dioxide: InChIKey CURLTUGMZLYLDI-UHFFFAOYSA-N
Kind: experiment
Temperature: 303 K
Tabular data in the source: 0
pressure (bar)	uptake (mmol/g)
0	0.03106
0.004263	0.054811
0.010353	0.08039
0.026797	0.164434
0.048721	0.268575
0.066991	0.352619
0.095006	0.451279
0.138855	0.593788
0.178441	0.707065
0.217418	0.818514
0.261876	0.922655
0.300853	1.01218
0.33922	1.1017
0.378806	1.1821
0.418392	1.26979
0.461023	1.3447
0.502436	1.42509
0.543849	1.49452
0.582826	1.56577
0.625457	1.6352
0.666261	1.70463
0.702192	1.76127
0.747259	1.82521
0.784409	1.88185
0.827649	1.94397
0.868453	2.00426
0.905603	2.0609
0.947016	2.11206
0.998782	2.19062
