Adsorption isotherm of Arsenate on Fe-FeS2 Mixture
DOI: 10.2166/wst.2017.204
Article source: Figure 10b
Adsorbate Arsenate: InChIKey HAYXDMNJJFVXCI-UHFFFAOYSA-N
Kind: experiment
Temperature: 298 K
Tabular data in the source: 0
pressure (bar)	uptake (mg/g)
1.01325	26.483
1.01325	48.994
1.01325	73.858
1.01325	92.899
1.01325	95.833
1.01325	98.84
1.01325	98.93
