Adsorption isotherm of As(III) on Fe-FeS2 Mixture
DOI: 10.2166/wst.2017.204
Article source: Figure 10a
Adsorbate As(III): InChIKey LULLIKNODDLMDQ-UHFFFAOYSA-N
Kind: experiment
Temperature: 298 K
Tabular data in the source: 0
pressure (bar)	uptake (mg/g)
1.01325	24.029
1.01325	39.987
1.01325	63.243
1.01325	78.442
1.01325	94.368
1.01325	94.353
1.01325	96.771
