Adsorption isotherm of Nitrogen on PW11Zn@MIL-101
DOI: 10.1016/j.fuproc.2014.10.030
Article source: Figure 6- PW11Zn@MIL101
Adsorbate Nitrogen: InChIKey IJGRMHOSHXDMSA-UHFFFAOYSA-N
Kind: experiment
Temperature: 77 K
Tabular data in the source: 0
pressure (bar)	uptake (cm3(STP)/g)
0.005593	238.3
0.010153	270.01
0.010244	270.25
0.018674	301.77
0.030458	327.85
0.031238	325.13
0.038463	341.21
0.050855	363.81
0.060917	380.55
0.075548	400.76
0.089399	425.1
0.098954	443.68
0.108762	449.12
0.144986	481.5
0.189903	506.82
0.205386	529.1
0.294785	573.76
0.303479	576.04
0.392442	584.95
0.406131	588.97
0.504041	599.73
0.510496	600.5
0.605832	610.16
0.705901	618.96
0.717432	621.79
0.805372	632.87
0.821543	635.81
0.850542	640.15
0.897689	652.65
0.910172	652.32
0.948027	672.97
0.992164	705.24
