Adsorption isotherm of Nitrogen on Cr-MIL(101)
DOI: 10.1016/j.fuproc.2014.10.030
Article source: Figure 6- MIL101 Cr
Adsorbate Nitrogen: InChIKey IJGRMHOSHXDMSA-UHFFFAOYSA-N
Kind: experiment
Temperature: 77 K
Tabular data in the source: 0
pressure (bar)	uptake (cm3(STP)/g)
0.003982	372.31
0.004935	369.25
0.008896	452.01
0.009839	464.87
0.018968	528.77
0.020599	501.06
0.030671	548.87
0.031188	554.65
0.038767	607.66
0.042374	573.1
0.050125	638.84
0.050987	616.35
0.059772	665.68
0.071556	691.76
0.080766	722.08
0.080847	721.74
0.091436	743.59
0.100048	771.63
0.107192	772.17
0.145057	887.46
0.190065	923.32
0.206419	953.52
0.296092	1052.18
0.304178	1066.63
0.394195	1078.36
0.405898	1090.2
0.504254	1113.99
0.511914	1105.19
0.6064	1123.33
0.608801	1130.71
0.707248	1142.11
0.718263	1150.05
0.806121	1162.32
0.821442	1168.71
0.851211	1174.15
0.898631	1190.78
0.909473	1194.58
0.947936	1215.76
0.991566	1262.7
