Adsorption isotherm of Carbon Dioxide on {[Zn2(bpdc)2(azpy)]*2H2O*2DMF}n Nanoscale
DOI: 10.1021/Ic500234r
Adsorbate Carbon Dioxide: InChIKey CURLTUGMZLYLDI-UHFFFAOYSA-N
Temperature: 273 K
Tabular data in the source: 0
pressure (bar)	uptake (cm3(STP)/g)
-0.00754372	1.03823
0.113156	1.92652
0.614274	2.95823
0.862139	3.84488
1.48827	5.1716
2.11548	6.35
2.61336	7.82667
3.24057	9.00508
3.99495	10.1818
4.62644	10.767
5.1276	11.7987
6.01128	12.6772
6.76886	13.409
7.27432	13.8474
7.65043	14.5841
8.40909	15.1676
9.04062	15.7528
9.79823	16.4846
10.4297	17.0697
11.0623	17.5065
11.5667	18.0933
12.071	18.68
12.7036	19.1168
13.4623	19.7003
13.9677	20.1388
14.6014	20.4273
15.234	20.8641
16.1188	21.5943
16.4981	21.886
17.1297	22.4711
17.7633	22.7596
18.1427	23.0514
18.6481	23.4898
19.4079	23.925
20.0415	24.2135
20.4209	24.5052
21.0524	25.0903
21.9393	25.5239
22.448	25.5174
23.4588	26.3942
24.3458	26.8278
24.9784	27.2646
25.6131	27.4048
26.1185	27.8432
26.8783	28.2784
27.3848	28.5685
28.2728	28.8537
28.7783	29.2922
29.413	29.4323
29.9195	29.7225
30.5532	30.0109
31.314	30.2978
31.8227	30.2913
32.4542	30.8764
33.0879	31.1649
33.7215	31.4534
34.3541	31.8902
