Adsorption isotherm of Hydrogen on {[Zn2(bpdc)2(azpy)]*2H2O*2DMF}n
DOI: 10.1021/Ic500234r
Adsorbate Hydrogen: InChIKey UFHFLCQGNIYNRP-UHFFFAOYSA-N
Temperature: 195 K
Tabular data in the source: 0
pressure (bar)	uptake (cm3(STP)/g)
0.0211595	0.721833
0.0422608	1.05733
0.0633621	1.39283
0.0783349	0.97019
0.0994362	1.30569
0.144529	1.19676
0.18968	1.47417
0.234889	2.1379
0.279981	2.02897
0.334209	2.67093
0.373289	2.57652
0.418324	2.08126
0.460526	2.75226
0.499664	3.04419
0.535681	2.57071
0.595747	2.03914
0.640839	1.93021
0.688938	1.81402
0.724954	1.34055
0.778949	0.437166
0.823984	-0.0580952
0.871967	-0.946952
