Adsorption isotherm of Oxygen on {[Zn2(bpdc)2(azpy)]*2H2O*2DMF}n
DOI: 10.1021/Ic500234r
Adsorbate Oxygen: InChIKey MYMOFIZGZYHOMD-UHFFFAOYSA-N
Temperature: 195 K
Tabular data in the source: 0
pressure (bar)	uptake (cm3(STP)/g)
0	0
5.80904e-05	0.386333
0.0181533	0.729095
0.0362485	1.07186
0.0575241	2.56636
0.0786254	2.90186
0.0907081	3.25914
0.138865	3.52928
0.193092	4.17124
0.235354	5.22857
0.286575	5.87778
0.337738	6.14066
0.376876	6.43259
0.416072	7.11085
0.449199	7.41731
0.497355	7.68745
0.548519	7.95033
0.587716	8.62859
0.641885	8.88421
0.674953	8.80433
0.732128	9.05269
0.780226	8.93649
0.819366	9.22842
0.858445	9.13402
