Adsorption isotherm of Carbon Dioxide on {[Zn2(bpdc)2(azpy)]*2H2O*2DMF}n
DOI: 10.1021/Ic500234r
Adsorbate Carbon Dioxide: InChIKey CURLTUGMZLYLDI-UHFFFAOYSA-N
Temperature: 195 K
Tabular data in the source: 0
pressure (bar)	uptake (cm3(STP)/g)
0	0
0.00381945	5.4014
0.0114583	16.2042
0.0149873	19.6739
0.0215806	23.5227
0.0308315	25.0463
0.0463853	28.487
0.0649451	31.9204
0.0862788	33.8012
0.101484	34.9239
0.135249	39.48
0.174852	42.8626
0.235789	48.1261
0.266141	49.9851
0.320718	52.9451
0.354076	54.7968
0.390499	57.0277
0.44808	59.9804
0.487452	61.8177
0.520809	63.6694
0.575386	66.6294
0.614756	68.4666
0.654185	70.6902
0.684537	72.5493
0.742062	75.1156
0.775304	76.1948
0.832886	79.1475
