Adsorption isotherm of Carbon Dioxide on {[Zn3(bpdc)3(azpy)]*4H2O*2DEF}n
DOI: 10.1021/Ic500234r
Adsorbate Carbon Dioxide: InChIKey CURLTUGMZLYLDI-UHFFFAOYSA-N
Temperature: 195 K
Tabular data in the source: 0
pressure (bar)	uptake (cm3(STP)/g)
0.00294093	1.19048
0.00588186	9.52381
0.0117637	16.9643
0.0176456	19.6429
0.0235275	21.131
0.0294093	23.5119
0.044114	26.4881
0.0647005	28.2738
0.0794052	30.3571
0.091169	31.8452
0.12646	34.2262
0.188219	37.7976
0.217629	41.369
0.267625	45.5357
0.302916	47.619
0.361736	50.5952
0.397026	52.6786
0.429377	54.7619
0.488195	56.5476
0.53231	58.3333
0.570541	59.2262
0.602892	60.7143
0.661711	62.5
0.699942	63.6905
0.729352	64.881
0.776407	66.9643
0.838166	68.1548
