Adsorption isotherm of Water on {[Zn2(bpdc)2(azpy)]*2H2O*2DMF}n Nanoscale
DOI: 10.1021/Ic500234r
Adsorbate Water: InChIKey XLYOFNOQVPJJNP-UHFFFAOYSA-N
Temperature: 298 K
Tabular data in the source: 0
pressure (bar)	uptake (cm3(STP)/g)
0.000591573	8.51711
0.0012925	13.308
0.00245983	20.7605
0.00397281	27.6806
0.00583404	35.6654
0.00746251	42.5856
0.00897109	46.8441
0.0108297	53.2319
0.0125693	57.4905
0.0154753	68.6692
0.0180278	75.5894
0.0211666	87.8327
0.0246484	97.9468
0.0279053	111.787
0.0294376	130.418
