Adsorption isotherm of Argon on {[Zn3(bpdc)3(azpy)]*4H2O*2DEF}n
DOI: 10.1021/Ic500234r
Adsorbate Argon: InChIKey XKRFYHLGVUSROY-UHFFFAOYSA-N
Temperature: 195 K
Tabular data in the source: 0
pressure (bar)	uptake (cm3(STP)/g)
0.00291871	0.293121
0.0263606	0.275815
0.0527214	0.55163
0.0673726	0.540813
0.0908031	0.818791
0.143536	1.07514
0.193351	1.03836
0.219687	1.90474
0.278258	2.74733
0.336828	3.58992
0.363154	4.75159
0.412957	5.0101
0.468573	6.44541
0.500807	6.42162
0.559377	7.26421
0.603308	7.82232
0.635506	8.68438
0.682367	9.24034
0.74096	9.49236
0.770239	10.0613
0.825903	10.3155
0.878613	11.1624
