Adsorption isotherm of Carbon Dioxide on {[Zn2(bpdc)2(azpy)]*2H2O*2DMF}n Nanoscale
DOI: 10.1021/Ic500234r
Adsorbate Carbon Dioxide: InChIKey CURLTUGMZLYLDI-UHFFFAOYSA-N
Temperature: 195 K
Tabular data in the source: 0
pressure (bar)	uptake (cm3(STP)/g)
0	0
0.00767149	68.8235
0.0115072	72.3529
0.015343	77.0588
0.0230145	81.7647
0.0421932	85.8824
0.061372	90
0.0805507	95.2941
0.103565	99.4118
0.157266	106.471
0.210966	112.353
0.268502	114.706
0.322203	117.647
0.364396	119.412
0.421932	121.176
0.475632	121.765
0.525497	123.529
0.56769	124.706
0.621391	125.882
0.682763	127.647
0.732627	128.235
0.782493	129.412
0.828521	129.412
0.889893	131.176
0.939757	132.941
0.993458	132.941
