Adsorption isotherm of Carbon Dioxide on {[Zn2(bpdc)2(azpy)]*2H2O*2DMF}n
DOI: 10.1021/Ic500234r
Adsorbate Carbon Dioxide: InChIKey CURLTUGMZLYLDI-UHFFFAOYSA-N
Temperature: 195 K
Tabular data in the source: 0
pressure (bar)	uptake (cm3(STP)/g)
0	1.17647
0.00383574	6.47059
0.00767149	17.0588
0.0191787	20
0.0268502	23.5294
0.0421932	27.6471
0.0575362	31.1765
0.0843864	32.9412
0.111236	35.2941
0.15343	40
0.203294	43.5294
0.272338	49.4118
0.314531	51.1765
0.375903	54.7059
0.418097	56.4706
0.460289	58.2353
0.533169	61.1765
0.579197	63.5294
0.621391	65.2941
0.686599	67.6471
0.732627	70.5882
0.778657	72.3529
0.824685	73.5294
0.882222	76.4706
0.920579	78.8235
1.00113	81.1765
