Adsorption isotherm of Carbon Dioxide on {[Zn2(bpdc)2(azpy)]*2H2O*2DMF}n Nanoscale
DOI: 10.1021/Ic500234r
Adsorbate Carbon Dioxide: InChIKey CURLTUGMZLYLDI-UHFFFAOYSA-N
Temperature: 293 K
Tabular data in the source: 0
pressure (bar)	uptake (cm3(STP)/g)
1.86273	1.61684
2.89956	2.35028
3.93461	3.23205
4.76229	3.96712
5.38261	4.55551
6.83772	5.28569
8.08369	6.01751
9.12225	6.60264
9.9517	7.18939
10.9885	7.92284
12.0289	8.35964
12.651	8.79971
13.9005	9.23489
14.9426	9.52338
16.1886	10.2552
17.0181	10.8419
18.4767	11.2755
19.3097	11.5656
20.5592	12.0008
21.1813	12.4409
22.4308	12.876
23.4729	13.1645
24.5151	13.453
25.5572	13.7415
26.3902	14.0316
27.4306	14.4684
28.6783	15.0519
29.5113	15.342
30.7661	15.3323
31.592	16.2157
32.636	16.3558
33.6781	16.6443
34.5146	16.6378
35.3476	16.9279
36.388	17.3647
38.0576	17.6483
40.1436	18.077
41.3949	18.3638
42.8517	18.9457
43.683	19.3841
45.7708	19.6645
47.2294	20.098
49.1064	20.5283
50.7724	21.1085
52.4419	21.3921
53.8988	21.974
55.5666	22.4059
56.8196	22.5445
