Adsorption isotherm of Argon on {[Zn2(bpdc)2(azpy)]*2H2O*2DMF}n
DOI: 10.1021/Ic500234r
Adsorbate Argon: InChIKey XKRFYHLGVUSROY-UHFFFAOYSA-N
Temperature: 195 K
Tabular data in the source: 0
pressure (bar)	uptake (cm3(STP)/g)
0.0241401	-0.0583144
0.0453211	0.276993
0.0634262	0.233257
0.0907005	0.940319
0.160161	1.159
0.196431	1.45786
0.238675	1.35581
0.274944	1.65467
0.341329	1.49431
0.386592	1.38497
0.422803	1.29749
0.458954	0.82369
0.525398	1.04966
0.561493	0.189522
0.612848	0.451936
0.652076	0.357175
0.685326	0.663326
0.745677	0.51754
0.781829	0.0437358
0.842237	0.284282
0.875313	-0.568565
