Adsorption isotherm of Benzene on {[Zn2(bpdc)2(azpy)]*2H2O*2DMF}n
DOI: 10.1021/Ic500234r
Adsorbate Benzene: InChIKey UHOVQNZJYSORNB-UHFFFAOYSA-N
Temperature: 298 K
Tabular data in the source: 0
pressure (bar)	uptake (cm3(STP)/g)
0.00556461	2.14592
0.0111292	4.29185
0.0174762	5.15021
0.0226275	5.15021
0.0281853	6.43777
0.0353214	6.86695
0.0412721	7.72532
0.0476121	7.72532
0.0599064	9.01288
0.0718077	10.7296
0.0844913	11.1588
0.0967855	12.4464
0.107109	15.0215
0.112663	15.8798
