Adsorption isotherm of Nitrogen on {[Zn2(bpdc)2(azpy)]*2H2O*2DMF}n
DOI: 10.1021/Ic500234r
Adsorbate Nitrogen: InChIKey IJGRMHOSHXDMSA-UHFFFAOYSA-N
Temperature: 195 K
Tabular data in the source: 0
pressure (bar)	uptake (cm3(STP)/g)
0.0604088	0.240547
0.0996365	0.145786
0.151109	1.18087
0.190336	1.0861
0.226547	0.998633
0.280921	1.25376
0.362743	3.37494
0.417234	4.40273
0.465631	5.05877
0.5019	5.35763
0.55639	6.38542
0.60171	6.66241
0.634962	6.96856
0.689453	7.99636
0.737733	7.87973
0.767908	7.80683
0.816421	9.23554
0.867835	9.88428
