Adsorption isotherm of Hydrogen on {[Zn3(bpdc)3(azpy)]*4H2O*2DEF}n
DOI: 10.1021/Ic500234r
Adsorbate Hydrogen: InChIKey UFHFLCQGNIYNRP-UHFFFAOYSA-N
Temperature: 195 K
Tabular data in the source: 0
pressure (bar)	uptake (cm3(STP)/g)
0.0146512	-0.0108163
0.0380933	-0.0281223
0.0644654	-0.0475916
0.0849771	-0.0627344
0.128896	0.790669
0.207979	1.61811
0.240188	2.18489
0.281177	3.04045
0.410026	5.01226
0.471539	5.5574
0.509609	6.11984
0.544761	6.38917
0.606285	6.63903
0.641435	6.90835
0.676587	7.17768
0.741018	8.01594
0.77618	7.98998
0.825984	8.24849
0.884589	8.20522
