Adsorption isotherm of Water on {[Zn2(bpdc)2(azpy)]*2H2O*2DMF}n
DOI: 10.1021/Ic500234r
Adsorbate Water: InChIKey XLYOFNOQVPJJNP-UHFFFAOYSA-N
Temperature: 298 K
Tabular data in the source: 0
pressure (bar)	uptake (cm3(STP)/g)
0.000496521	1.28755
0.000996437	4.29185
0.00208997	7.72532
0.00308302	10.3004
0.00377629	11.1588
0.00457174	13.7339
0.00625805	17.1674
0.00784555	20.6009
0.0095327	24.4635
0.0112199	28.3262
0.0145951	36.4807
0.0177802	48.4979
0.0193839	60.0858
0.0216816	72.9614
0.0243703	83.691
0.0271535	92.2747
