Adsorption isotherm of Carbon Dioxide on {[Zn2(bpdc)2(azpy)]*2H2O*2DMF}n
DOI: 10.1021/Ic500234r
Adsorbate Carbon Dioxide: InChIKey CURLTUGMZLYLDI-UHFFFAOYSA-N
Temperature: 273 K
Tabular data in the source: 0
pressure (bar)	uptake (cm3(STP)/g)
0.127166	-0.00162988
0.757604	0.731815
1.77062	1.31205
2.90757	2.33562
3.66625	2.91911
5.18578	3.78947
6.45204	4.51476
7.5933	4.94505
8.86171	5.37371
10.1302	5.80237
12.0333	6.37119
13.3017	6.79985
14.5702	7.22851
16.2179	7.94891
17.232	8.38083
18.882	8.8046
20.0232	9.23489
21.6721	9.80698
23.323	10.0824
25.1001	10.5046
27.1315	10.9234
28.7783	11.7922
30.3021	12.0692
32.3313	12.7848
34.3627	13.2036
