Adsorption isotherm of Oxygen on {[Zn3(bpdc)3(azpy)]*4H2O*2DEF}n
DOI: 10.1021/Ic500234r
Adsorbate Oxygen: InChIKey MYMOFIZGZYHOMD-UHFFFAOYSA-N
Temperature: 195 K
Tabular data in the source: 0
pressure (bar)	uptake (cm3(STP)/g)
0.161083	1.94801
0.190386	1.92638
0.27242	2.16109
0.339816	2.11134
0.389619	2.36984
0.436491	2.63052
0.474573	2.89768
0.515608	2.57211
0.547852	2.25303
0.591794	2.51586
0.641621	2.1838
0.691434	2.14703
0.735377	2.40986
0.791051	2.36876
0.837935	2.33415
0.867238	2.31252
