Adsorption isotherm of Methanol on {[Zn3(bpdc)3(azpy)]*4H2O*2DEF}n
DOI: 10.1021/Ic500234r
Adsorbate Methanol: InChIKey OKKJLVBELUTLKV-UHFFFAOYSA-N
Temperature: 293 K
Tabular data in the source: 0
pressure (bar)	uptake (cm3(STP)/g)
0.000460298	3.29872
0.00305342	7.22588
0.00604361	8.50231
0.0107415	10.4137
0.0137317	11.6901
0.017147	12.96
0.0209945	14.8845
0.0239917	16.822
0.0278181	16.7633
0.0316516	17.3656
0.0346348	17.981
0.0376249	19.2574
0.0406081	19.8728
0.0444486	21.1362
0.0470066	21.7581
0.0542554	23.6303
0.0606469	24.8546
0.0674916	28.7165
0.0738902	30.6018
0.0807139	32.4806
0.0866801	33.7113
0.0943822	38.2213
0.100356	40.1131
0.106343	43.327
0.113216	49.8331
