Adsorption isotherm of Water on {[Zn3(bpdc)3(azpy)]*4H2O*2DEF}n
DOI: 10.1021/Ic500234r
Adsorbate Water: InChIKey XLYOFNOQVPJJNP-UHFFFAOYSA-N
Temperature: 298 K
Tabular data in the source: 0
pressure (bar)	uptake (cm3(STP)/g)
0.000426976	5.2623
0.00106574	12.4947
0.00231934	17.7048
0.0040947	24.8655
0.00566002	30.717
0.00753873	37.8712
0.00899726	42.4072
0.010876	49.5613
0.0121261	53.4493
0.0153481	60.5186
0.0184634	66.2724
0.0214752	72.0326
0.0245956	79.7695
0.0255666	95.576
0.0270558	112.011
0.0279269	129.146
0.0282847	147.636
