Adsorption isotherm of Water on {[Zn2(bpdc)2(azpy)]*2H2O*2DMF}n
DOI: 10.1021/Ic500234r
Adsorbate Water: InChIKey XLYOFNOQVPJJNP-UHFFFAOYSA-N
Temperature: 298 K
Tabular data in the source: 0
pressure (bar)	uptake (cm3(STP)/g)
0.000466407	2.6616
0.00116294	4.79087
0.00209136	7.45247
0.00301978	10.1141
0.00359995	11.711
0.00441198	13.8403
0.00626618	17.5665
0.00788937	21.2928
0.00962721	24.4867
0.0110185	27.6806
0.0146141	36.73
0.0178675	48.4411
0.0192729	60.1521
0.0216023	71.8631
0.0246238	83.0418
0.0270643	92.0913
0.0293955	104.867
