Adsorption isotherm of Methanol on {[Zn2(bpdc)2(azpy)]*2H2O*2DMF}n
DOI: 10.1021/Ic500234r
Adsorbate Methanol: InChIKey OKKJLVBELUTLKV-UHFFFAOYSA-N
Temperature: 293 K
Tabular data in the source: 0
pressure (bar)	uptake (cm3(STP)/g)
0.00208489	6.43777
0.00536487	9.87124
0.00905138	13.3047
0.0110944	14.5923
0.01681	17.5966
0.0237381	19.7425
0.0306732	22.7468
0.0359822	25.7511
0.0424969	27.0386
0.0486084	28.7554
0.0600151	31.7597
0.0742847	36.9099
0.0861084	41.2017
0.100378	46.3519
0.10937	52.3605
0.113168	69.5279
0.114493	82.4034
