Adsorption isotherm of Nitrogen on {[Zn3(bpdc)3(azpy)]*4H2O*2DEF}n
DOI: 10.1021/Ic500234r
Adsorbate Nitrogen: InChIKey IJGRMHOSHXDMSA-UHFFFAOYSA-N
Temperature: 195 K
Tabular data in the source: 0
pressure (bar)	uptake (cm3(STP)/g)
-0.00294093	0.892857
0.117637	0.595238
0.15587	0.595238
0.182338	0.595238
0.211748	2.08333
0.249979	2.97619
0.299975	4.7619
0.358794	6.54762
0.417612	8.33333
0.479373	8.92857
0.541131	9.82143
0.585247	10.7143
0.638182	11.0119
0.679356	11.3095
0.720529	11.6071
0.758762	12.2024
0.78523	12.5
0.811699	12.5
0.841107	12.5
