Adsorption isotherm of Carbon Dioxide on {[Zn2(bpdc)2(azpy)]*2H2O*2DMF}n
DOI: 10.1021/Ic500234r
Adsorbate Carbon Dioxide: InChIKey CURLTUGMZLYLDI-UHFFFAOYSA-N
Temperature: 293 K
Tabular data in the source: 0
pressure (bar)	uptake (cm3(STP)/g)
0.209136	-0.00162988
1.66778	0.431918
3.75205	1.00889
6.25284	1.73093
8.34065	2.01127
10.8432	2.58499
12.7219	2.86696
15.0206	2.99735
16.8958	3.57595
18.9818	4.00461
20.8623	4.13826
22.9483	4.56692
25.0362	4.84726
27.5405	5.27266
29.4209	5.40631
32.1326	5.97839
34.6387	6.25547
37.1448	6.53255
39.0235	6.81452
40.693	7.09812
42.9918	7.22851
44.4522	7.51374
46.1217	7.79734
48.6278	8.07442
50.9248	8.35312
53.0144	8.48514
55.5187	8.91054
56.77	9.1974
