Adsorption isotherm of Nitrogen on ZrIV Muconate
DOI: 10.1002/ejic.201500133
Article source: Figure 5
Adsorbate Nitrogen: InChIKey IJGRMHOSHXDMSA-UHFFFAOYSA-N
Kind: experiment
Temperature: 77 K
Tabular data in the source: 0
pressure (bar)	uptake (cm3(STP)/g)
0.026316	71.7617
0.035088	95.4663
0.061403	76.8135
0.087719	98.9637
0.089474	78.7565
0.115789	81.0881
0.135088	100.907
0.138596	82.6425
0.164912	84.1969
0.187719	85.7513
0.215789	86.9171
0.236842	103.627
0.242105	88.8601
0.264912	89.2487
0.285965	104.404
0.291228	90.4145
0.321053	91.5803
0.333333	105.181
0.342105	91.9689
0.364912	93.5233
0.387719	106.736
0.389474	94.3005
0.414035	95.0777
0.435088	107.124
0.438596	95.8549
0.464912	97.0207
0.484211	108.679
0.489474	98.1865
0.514035	98.5751
0.538596	109.456
0.540351	99.7409
0.566667	100.13
0.585965	109.845
0.591228	100.907
0.617544	100.907
0.633333	110.622
0.642105	102.073
0.661404	102.85
0.687719	104.016
0.714035	105.181
0.733333	112.565
0.74386	105.959
0.761404	106.347
0.785965	113.731
0.794737	107.513
0.815789	107.902
0.835088	115.285
0.840351	108.679
0.873684	110.233
0.884211	110.622
0.887719	117.228
0.917544	113.342
0.950877	122.668
0.961404	118.394
0.984211	124.611
0.996491	140.933
