Adsorption isotherm of Nitrogen on ZrIV Muconate
DOI: 10.1002/ejic.201500133
Article source: Figure 5
Adsorbate Nitrogen: InChIKey IJGRMHOSHXDMSA-UHFFFAOYSA-N
Kind: experiment
Temperature: 77 K
Tabular data in the source: 0
pressure (bar)	uptake (cm3(STP)/g)
0.02807	51.1658
0.047368	53.886
0.059649	55.4404
0.070175	56.2176
0.108772	57.3834
0.161404	59.3264
0.212281	60.1036
0.240351	69.0415
0.261404	61.2694
0.289474	69.8187
0.314035	62.4352
0.338596	70.5959
0.363158	63.2124
0.387719	63.2124
0.391228	70.5959
0.414035	64.3782
0.436842	64.3782
0.440351	71.3731
0.464912	65.544
0.487719	65.544
0.491228	71.7617
0.510526	66.3212
0.536842	72.5389
0.538596	66.3212
0.563158	67.487
0.587719	72.5389
0.589474	67.8756
0.612281	67.8756
0.638596	68.6528
0.663158	69.0415
0.687719	73.3161
0.691228	69.4301
0.712281	69.8187
0.738596	74.4819
0.759649	70.5959
0.789474	75.2591
0.810526	71.7617
0.840351	76.4249
0.857895	72.9275
0.898246	78.3679
0.908772	75.6477
0.945614	82.6425
0.952632	78.7565
0.984211	92.7461
0.989474	95.4663
