Adsorption isotherm of Nitrogen on ZrIV Muconate
DOI: 10.1002/ejic.201500133
Article source: Figure 5
Adsorbate Nitrogen: InChIKey IJGRMHOSHXDMSA-UHFFFAOYSA-N
Kind: experiment
Temperature: 77 K
Tabular data in the source: 0
pressure (bar)	uptake (cm3(STP)/g)
0.024561	143.653
0.045614	153.368
0.052632	151.813
0.085965	154.922
0.089474	158.031
0.114035	156.865
0.136842	158.031
0.138596	160.363
0.161404	159.585
0.187719	162.306
0.189474	160.363
0.214035	160.751
0.238596	161.14
0.240351	164.249
0.263158	162.694
0.284211	165.803
0.287719	163.083
0.315789	163.472
0.340351	166.969
0.368421	164.637
0.387719	167.746
0.391228	164.637
0.414035	165.415
0.440351	165.803
0.464912	166.58
0.487719	166.58
0.491228	169.689
0.515789	167.358
0.538596	167.746
0.540351	170.466
0.564912	168.523
0.587719	168.912
0.589474	171.632
0.614035	169.689
0.636842	170.078
0.640351	172.409
0.664912	170.855
0.687719	170.466
0.712281	171.632
0.735088	172.798
0.740351	175.13
0.763158	173.575
0.787719	176.295
0.789474	174.352
0.814035	173.964
0.836842	174.352
0.840351	177.461
0.859649	176.295
0.887719	177.073
0.894737	179.404
0.910526	177.85
0.935088	180.959
0.954386	185.622
0.959649	182.902
0.977193	188.342
0.984211	197.28
0.989474	200.777
