Adsorption isotherm of Nitrogen on ZrIV Muconate
DOI: 10.1002/ejic.201500133
Article source: Figure 5
Adsorbate Nitrogen: InChIKey IJGRMHOSHXDMSA-UHFFFAOYSA-N
Kind: experiment
Temperature: 77 K
Tabular data in the source: 0
pressure (bar)	uptake (cm3(STP)/g)
0.040351	169.301
0.063158	173.575
0.073684	174.741
0.112281	177.461
0.164912	180.181
0.191228	182.902
0.214035	181.736
0.238596	184.456
0.263158	182.902
0.285965	183.679
0.287719	185.622
0.314035	184.067
0.336842	186.399
0.363158	185.233
0.389474	187.176
0.391228	185.622
0.419298	186.01
0.436842	188.342
0.438596	186.399
0.463158	186.788
0.487719	187.176
0.489474	188.731
0.512281	187.953
0.536842	188.731
0.538596	189.896
0.561404	188.731
0.587719	190.285
0.614035	189.896
0.636842	189.508
0.640351	191.451
0.666667	190.285
0.687719	191.451
0.712281	190.674
0.738596	192.617
0.759649	192.228
0.787719	193.005
0.810526	191.451
0.835088	193.782
0.864912	193.782
0.889474	195.337
0.915789	195.337
0.949123	200
0.963158	199.223
0.984211	214.378
0.994737	219.819
