Adsorption isotherm of Nitrogen on CuBTC
DOI: 10.1016/j.micromeso.2008.10.035
Adsorbate Nitrogen: InChIKey IJGRMHOSHXDMSA-UHFFFAOYSA-N
Temperature: 77 K
Tabular data in the source: 0
pressure (bar)	uptake (cm3(STP)/g)
0.0103458	431.127
0.0266462	437.078
0.0465783	447.478
0.077361	456.414
0.0972708	459.408
0.113571	465.358
0.144341	469.85
0.180537	474.349
0.216725	475.886
0.245672	475.93
0.280055	478.946
0.307193	478.987
0.341571	480.521
0.370518	480.565
0.404901	483.58
0.437466	483.63
0.470036	485.161
0.502601	485.211
0.535175	488.224
0.56774	488.273
0.600305	488.323
0.667249	489.906
0.732383	491.487
0.797514	491.587
0.831888	491.639
0.895204	490.254
0.929583	491.788
0.963966	494.803
