Adsorption isotherm of Nitrogen on CuBTC
DOI: 10.1016/j.micromeso.2008.10.035
Adsorbate Nitrogen: InChIKey IJGRMHOSHXDMSA-UHFFFAOYSA-N
Temperature: 77 K
Tabular data in the source: 0
pressure (bar)	uptake (cm3(STP)/g)
0.00109444	362.965
0.00657109	379.269
0.0174529	388.175
0.035558	392.647
0.0536676	398.6
0.0735863	404.557
0.100737	409.043
0.120643	410.554
0.162262	413.581
0.205696	418.091
0.247311	419.636
0.287118	421.179
0.326924	422.721
0.363107	422.776
0.406532	424.324
0.444533	427.345
0.486144	427.408
0.525946	427.469
0.565748	427.529
0.607363	429.074
0.648974	429.138
0.686971	430.677
0.726777	432.219
0.77202	436.733
0.808203	436.788
0.851623	436.854
0.886002	438.388
0.929431	441.417
0.971046	442.962
