Adsorption isotherm of Nitrogen on CuBTC
DOI: 10.1016/j.micromeso.2008.10.035
Adsorbate Nitrogen: InChIKey IJGRMHOSHXDMSA-UHFFFAOYSA-N
Temperature: 77 K
Tabular data in the source: 0
pressure (bar)	uptake (cm3(STP)/g)
0.00863041	462.235
0.021308	466.699
0.0394131	471.171
0.0539133	480.082
0.0792685	489.01
0.0991738	490.522
0.113661	494.988
0.139007	500.953
0.180627	503.979
0.216815	505.516
0.243961	508.52
0.276531	510.051
0.305473	508.614
0.341665	511.632
0.370616	513.158
0.399568	514.683
0.439369	514.744
0.471948	519.238
0.500881	514.838
0.566025	519.382
0.600399	519.434
0.667338	519.536
0.734282	521.12
0.768661	522.654
0.797603	521.216
0.831982	522.75
0.866356	522.803
0.898921	522.852
0.922454	527.333
0.945973	527.368
0.962251	525.912
