Adsorption isotherm of Carbon Dioxide, Nitrogen on Coal
DOI: 10.1007/s11242-014-0373-9
Article source: Table 4
Adsorbate Carbon Dioxide: InChIKey CURLTUGMZLYLDI-UHFFFAOYSA-N
Adsorbate Nitrogen: InChIKey IJGRMHOSHXDMSA-UHFFFAOYSA-N
Kind: experiment
Temperature: 295 K
Tabular data in the source: 0
pressure (bar)	Carbon Dioxide fraction	Carbon Dioxide uptake (mmol/g)	Nitrogen fraction	Nitrogen uptake (mmol/g)	total uptake (mmol/g)
4.8305	0.75	0.395415	0.25	0.059085	0.4545
9.4128	0.75	0.510615	0.25	0.089685	0.6003
13.1016	0.75	0.600904	0.25	0.120296	0.7212
16.5431	0.75	0.670515	0.25	0.148785	0.8193
19.991	0.75	0.733588	0.25	0.168512	0.9021
26.7029	0.75	0.843753	0.25	0.203347	1.0471
36.6473	0.75	0.943904	0.25	0.216396	1.1603
36.2226	0.75	0.896617	0.25	0.207183	1.1038
27.7622	0.75	0.822537	0.25	0.191563	1.0141
21.5565	0.75	0.733202	0.25	0.172098	0.9053
15.136	0.75	0.598195	0.25	0.141505	0.7397
8.9375	0.75	0.398421	0.25	0.09498	0.4934
5.084	0.75	0.227457	0.25	0.054643	0.2821
