Adsorption isotherm of Nitrogen on Coal
DOI: 10.1007/s11242-014-0373-9
Article source: Table 2
Adsorbate Nitrogen: InChIKey IJGRMHOSHXDMSA-UHFFFAOYSA-N
Kind: experiment
Temperature: 295 K
Tabular data in the source: 0
pressure (bar)	uptake (mmol/g)
6.0215	0.0934
11.8851	0.1386
19.9737	0.183
30.1986	0.2331
40.5566	0.2656
54.1095	0.3072
61.9953	0.3114
52.7086	0.2901
42.3379	0.2456
31.9292	0.1934
21.6536	0.1275
8.2338	0.0227
