Adsorption isotherm of Carbon Dioxide on Coal
DOI: 10.1007/s11242-014-0373-9
Article source: Table 1
Adsorbate Carbon Dioxide: InChIKey CURLTUGMZLYLDI-UHFFFAOYSA-N
Kind: experiment
Temperature: 295 K
Tabular data in the source: 0
pressure (bar)	uptake (mmol/g)
1.6855	0.5782
4.2275	0.7667
6.8582	0.9568
10.9532	1.1567
15.6441	1.3706
20.7598	1.5763
26.205	1.7998
35.9798	2.1811
46.0399	2.592
53.1777	2.8518
49.4567	2.6576
37.4569	2.1974
24.1512	1.7078
10.9913	1.1482
