Adsorption isotherm of Carbon Dioxide, Nitrogen on Coal
DOI: 10.1007/s11242-014-0373-9
Article source: Table 3
Adsorbate Carbon Dioxide: InChIKey CURLTUGMZLYLDI-UHFFFAOYSA-N
Adsorbate Nitrogen: InChIKey IJGRMHOSHXDMSA-UHFFFAOYSA-N
Kind: experiment
Temperature: 295 K
Tabular data in the source: 0
pressure (bar)	Carbon Dioxide fraction	Carbon Dioxide uptake (mmol/g)	Nitrogen fraction	Nitrogen uptake (mmol/g)	total uptake (mmol/g)
5.1296	0.5	0.188199	0.5	0.071601	0.2598
8.0309	0.5	0.248443	0.5	0.096857	0.3453
11.8343	0.5	0.2967	0.5	0.1299	0.4266
11.6013	0.5	0.334802	0.5	0.178698	0.5135
23.5426	0.5	0.326841	0.5	0.219259	0.5461
30.7374	0.5	0.327172	0.5	0.248228	0.5754
37.3871	0.5	0.359891	0.5	0.273609	0.6335
47.7514	0.5	0.384934	0.5	0.296366	0.6813
59.2758	0.5	0.460207	0.5	0.393293	0.8535
