Adsorption isotherm of Carbon Dioxide on AC Norit
DOI: 10.1016/j.powtec.2014.08.062
Adsorbate Carbon Dioxide: InChIKey CURLTUGMZLYLDI-UHFFFAOYSA-N
Temperature: 294 K
Tabular data in the source: 0
pressure (bar)	uptake (mmol/g)
0.050849	0.267085
0.101747	0.369582
0.152299	0.445142
