Adsorption isotherm of Carbon Dioxide on H-ZSM-5
DOI: 10.1016/j.powtec.2014.08.062
Adsorbate Carbon Dioxide: InChIKey CURLTUGMZLYLDI-UHFFFAOYSA-N
Temperature: 294 K
Tabular data in the source: 0
pressure (bar)	uptake (mmol/g)
0.0505253	0.165335
0.100719	0.255851
0.151625	0.331416
