Adsorption isotherm of Carbon Dioxide on 13X
DOI: 10.1016/j.powtec.2014.08.062
Adsorbate Carbon Dioxide: InChIKey CURLTUGMZLYLDI-UHFFFAOYSA-N
Temperature: 294 K
Tabular data in the source: 0
pressure (bar)	uptake (mmol/g)
0.0505104	0.216207
0.151956	0.406234
