Adsorption isotherm of Carbon Dioxide on CuBTC
DOI: 10.1016/j.powtec.2014.08.062
Adsorbate Carbon Dioxide: InChIKey CURLTUGMZLYLDI-UHFFFAOYSA-N
Temperature: 294 K
Tabular data in the source: 0
pressure (bar)	uptake (mmol/g)
0.0507785	0.506486
0.100876	0.923185
0.151738	1.14538
