Adsorption isotherm of Carbon Dioxide on NaY/NH4-Y
DOI: 10.1016/j.powtec.2014.08.062
Adsorbate Carbon Dioxide: InChIKey CURLTUGMZLYLDI-UHFFFAOYSA-N
Temperature: 294 K
Tabular data in the source: 0
pressure (bar)	uptake (mmol/g)
0.101447	0.187034
