Adsorption isotherm of Carbon Dioxide on AC Sigma
DOI: 10.1016/j.powtec.2014.08.062
Adsorbate Carbon Dioxide: InChIKey CURLTUGMZLYLDI-UHFFFAOYSA-N
Temperature: 294 K
Tabular data in the source: 0
pressure (bar)	uptake (mmol/g)
0.0501267	0.317947
0.101001	0.49825
0.151872	0.693514
