Adsorption isotherm of Nitrogen on [EtNH2]75-H2P-COF
DOI: 10.1021/jacs.5b04300
Article source: Figure S3(i)
Adsorbate Nitrogen: InChIKey IJGRMHOSHXDMSA-UHFFFAOYSA-N
Kind: experiment
Temperature: 77 K
Tabular data in the source: 0
pressure (bar)	uptake (cm3(STP)/g)
0.013057	58.2578
0.012319	88.1075
0.021872	101.554
0.031536	110.524
0.036147	123.963
0.052966	143.391
0.07233	159.838
0.114194	165.869
0.151115	171.894
0.173209	177.897
0.18302	180.896
0.210093	185.414
0.242109	189.938
0.254465	189.957
0.286591	190.004
0.301382	191.518
0.326095	191.555
0.367995	196.094
0.417457	194.674
0.4643	199.221
0.523573	200.801
0.565585	200.863
0.619842	205.42
0.681438	212.974
0.73079	216.031
0.765387	216.082
0.799763	225.088
0.854057	228.153
0.903003	247.628
0.956264	292.483
0.985144	323.869
0.994291	353.733
0.103497	198.69
0.118141	206.174
0.137911	206.203
0.157681	206.232
0.184901	204.78
0.197258	204.798
0.226876	206.334
0.244174	206.359
0.27619	210.884
0.310751	212.428
0.357704	212.497
0.407129	212.57
0.468874	214.153
0.513209	220.189
0.560015	226.228
0.604424	229.278
0.663845	224.888
0.703237	230.916
0.772395	232.511
0.806661	245.994
0.845979	255.007
0.900089	265.535
0.946416	290.976
0.97773	323.858
0.973931	377.584
