Adsorption isotherm of Nitrogen on [EtOH]75-H2P-COF
DOI: 10.1021/jacs.5b04300
Article source: Figure S3(h)
Adsorbate Nitrogen: InChIKey IJGRMHOSHXDMSA-UHFFFAOYSA-N
Kind: experiment
Temperature: 77 K
Tabular data in the source: 0
pressure (bar)	uptake (cm3(STP)/g)
-0.002411	14.6317
0.00475	45.4933
0.039691	88.0389
0.067795	104.134
0.095143	109.937
0.12483	114.262
0.142282	118.623
0.176864	122.935
0.208782	124.313
0.230804	124.249
0.260168	124.164
0.284529	122.622
0.306444	121.088
0.328466	121.024
0.367725	122.381
0.429222	126.614
0.47082	126.493
0.522206	126.344
0.573916	130.606
0.623179	134.875
0.654773	131.842
0.713715	134.612
0.777228	132.957
0.822029	143.121
0.878416	144.428
0.913105	150.21
0.962476	155.949
0.986226	179.409
0.997417	198.494
0.106118	126.081
0.138144	128.93
0.153258	134.768
0.177943	137.638
0.207198	136.082
0.241564	137.453
0.270927	137.368
0.302845	138.746
0.322637	141.629
0.366574	140.031
0.413929	151.658
0.46276	150.046
0.511915	152.845
0.558946	160.061
0.612455	155.494
0.668951	158.271
0.705763	159.635
0.757365	162.426
0.838114	162.192
0.857905	165.076
0.914509	169.323
0.941641	172.186
0.991767	188.216
