Adsorption isotherm of Nitrogen on [EtNH2]100-H2P-COF
DOI: 10.1021/jacs.5b04300
Article source: Figure S3(i)
Adsorbate Nitrogen: InChIKey IJGRMHOSHXDMSA-UHFFFAOYSA-N
Kind: experiment
Temperature: 77 K
Tabular data in the source: 0
pressure (bar)	uptake (cm3(STP)/g)
0.019254	7.52066
0.019032	16.4756
0.026077	31.4113
0.033343	37.3922
0.045515	44.8728
0.055179	53.8422
0.07233	59.8376
0.084576	64.3333
0.113936	76.3168
0.141083	77.8494
0.153439	77.8676
0.175643	79.3928
0.217581	82.4397
0.237314	83.9613
0.269366	86.9936
0.318644	93.0363
0.318644	93.0363
0.363016	97.5793
0.422547	88.7117
0.46928	97.7358
0.503766	102.264
0.56813	97.8814
0.6298	102.45
0.68166	104.019
0.733482	107.08
0.768043	108.624
0.800243	105.686
0.849483	113.221
0.911007	123.76
0.957665	135.769
0.972235	146.238
0.991414	170.147
0.991009	186.564
0.106006	97.2007
0.128173	100.218
0.162844	97.2844
0.182541	100.299
0.204782	100.331
0.219646	98.8606
0.254133	103.389
0.286333	100.451
0.303632	100.477
0.360471	100.561
0.409785	105.111
0.456702	106.672
0.506053	109.73
0.548065	109.792
0.617186	112.879
0.656652	115.922
0.706151	113.01
0.7579	119.056
0.794932	120.604
0.846791	122.172
0.903372	132.704
0.945235	138.735
0.969542	155.189
0.988759	177.605
0.995398	208.959
