Adsorption isotherm of Carbon Dioxide on [AcOH]75-H2P-COF
DOI: 10.1021/jacs.5b04300
Article source: Figure S6(d)
Adsorbate Carbon Dioxide: InChIKey CURLTUGMZLYLDI-UHFFFAOYSA-N
Kind: experiment
Temperature: 298 K
Tabular data in the source: 0
pressure (bar)	uptake (mg/g)
1.0402	1.11822
3.76602	3.34832
6.49497	5.94879
8.53934	7.62136
10.0808	9.84804
11.4469	11.3335
13.156	13.3754
14.5252	15.2312
15.7267	17.2717
17.0912	18.572
19.651	21.172
20.334	21.9147
23.2368	25.0712
26.8164	28.2297
29.0331	30.2731
33.6388	34.7309
35.6816	36.2183
39.6137	41.0444
41.8304	43.0879
46.7682	46.8058
49.1509	48.4794
53.072	52.0092
55.9686	54.425
58.5143	55.3583
61.2354	57.0328
62.7659	57.9632
-0.103393	5.92974
5.35138	10.7603
6.88505	12.061
8.75865	13.5479
10.6323	15.0348
12.6766	16.7074
14.5487	18.0091
15.9116	19.1241
18.1314	21.538
19.4943	22.653
22.2389	27.1054
26.3245	30.0801
29.5595	32.4969
31.9516	35.2816
34.1683	37.325
37.9218	41.0396
41.8319	43.2731
44.9008	46.0597
47.9729	49.2167
50.8663	51.2621
54.9535	54.4221
58.1916	57.2092
60.9033	57.7726
61.7555	58.5158
