Adsorption isotherm of Carbon Dioxide on [AcOH]100-H2P-COF
DOI: 10.1021/jacs.5b04300
Article source: Figure S5(d)
Adsorbate Carbon Dioxide: InChIKey CURLTUGMZLYLDI-UHFFFAOYSA-N
Kind: experiment
Temperature: 273 K
Tabular data in the source: 0
pressure (bar)	uptake (mg/g)
1.26251	1.32059
2.16242	4.08236
3.43042	10.2327
4.24243	13.3046
5.23684	17.6079
6.04775	20.3713
6.94765	23.1331
8.38597	27.1198
9.46498	30.1871
10.811	33.2496
11.5296	35.0886
13.5008	38.7573
14.8491	42.437
16.1116	47.0442
18.4476	53.1755
19.7024	55.6223
21.5033	61.4545
23.7504	67.5874
25.7216	71.256
27.339	75.5482
29.2223	79.5271
30.6618	83.8225
31.832	87.5054
33.8955	92.0983
34.5295	95.1735
0.731795	2.25595
3.1799	14.8667
3.90071	17.3231
4.80501	21.3193
5.52472	23.467
6.60703	27.4601
7.32454	28.9906
8.40135	31.4406
10.4616	35.1076
9.92098	33.2654
11.6417	41.5681
13.9733	46.4649
15.4182	52.3034
17.1192	55.051
19.0937	59.6455
21.0726	65.4745
22.6889	69.4581
24.7503	73.4338
27.1742	79.2549
28.3422	82.3205
29.597	84.7673
32.0199	90.2798
33.4571	93.958
34.4416	95.4837
