Adsorption isotherm of Carbon Dioxide on [EtNH2]75-H2P-COF
DOI: 10.1021/jacs.5b04300
Article source: Figure S5(f)
Adsorbate Carbon Dioxide: InChIKey CURLTUGMZLYLDI-UHFFFAOYSA-N
Kind: experiment
Temperature: 273 K
Tabular data in the source: 0
pressure (bar)	uptake (mg/g)
0.580711	6.15051
2.05453	15.0686
2.83798	18.8888
3.52534	24.8378
4.39283	29.9336
5.26031	35.0293
6.6501	42.6718
7.08535	44.7942
7.95434	49.4644
8.82635	53.2835
9.95951	58.376
10.4803	61.3483
11.9571	69.4153
14.4952	77.8948
15.7888	87.6662
17.3588	94.4555
19.4615	100.813
20.9354	109.731
22.1556	115.248
24.0722	124.16
26.0879	130.093
27.3951	136.035
29.3973	145.797
31.2269	154.285
32.6287	158.524
33.5923	161.491
0.463513	14.237
2.52558	32.0841
3.13493	35.0554
3.57018	37.1777
4.44068	41.4223
4.95997	44.8202
5.65637	48.2159
6.61392	52.8851
7.22327	55.8563
7.92118	58.8265
8.52751	62.6488
8.96126	65.1967
9.65766	68.5924
11.4752	80.485
12.958	86.8498
14.531	92.788
16.278	99.5751
18.2862	107.636
19.8561	114.425
21.3405	120.364
23.5257	128.422
25.0056	135.638
27.0183	142.422
28.3286	147.512
30.1611	155.15
31.6455	161.089
32.4335	163.632
