Adsorption isotherm of Carbon Dioxide on [HCâ‰¡C]100-H2P-COF
DOI: 10.1021/jacs.5b04300
Article source: Figure S5(a)
Adsorbate Carbon Dioxide: InChIKey CURLTUGMZLYLDI-UHFFFAOYSA-N
Kind: experiment
Temperature: 273 K
Tabular data in the source: 0
pressure (bar)	uptake (mg/g)
1.22512	0.486512
2.8093	1.06346
3.59928	2.06872
4.12374	3.48979
5.08934	4.69567
5.61319	6.32153
6.49189	7.11991
8.25228	7.69271
8.86665	8.49732
10.624	10.0941
11.3253	11.3062
12.1147	12.5162
14.4846	15.532
15.8033	16.5248
18	18.5207
19.3133	21.3566
21.3338	23.3567
23.3555	24.9472
25.198	27.5659
26.5148	29.173
28.1841	30.7719
29.7659	32.168
31.3447	34.5881
33.1866	37.4115
34.0653	38.2099
1.04048	3.35776
3.31691	8.21872
4.63556	9.2115
5.33623	10.6284
6.12621	11.6337
7.09302	12.43
7.88361	13.2304
8.32175	14.0392
9.28795	15.0403
10.1666	15.8387
11.1341	16.4302
13.6814	19.0322
15.5239	21.6508
17.0182	22.8442
18.6857	25.0574
19.8269	26.464
21.9367	28.0524
24.2258	28.6127
25.2795	29.8165
26.6845	31.4216
28.6163	33.6286
30.7255	35.4218
32.3912	38.2494
