Adsorption isotherm of Nitrogen on [EtNH2]50-H2P-COF
DOI: 10.1021/jacs.5b04300
Article source: Figure S3(i)
Adsorbate Nitrogen: InChIKey IJGRMHOSHXDMSA-UHFFFAOYSA-N
Kind: experiment
Temperature: 77 K
Tabular data in the source: 0
pressure (bar)	uptake (cm3(STP)/g)
0.01645	120.949
0.012946	162.735
0.009848	188.104
0.01409	216.468
0.021135	231.404
0.023237	246.332
0.042491	267.256
0.061781	286.688
0.081293	297.164
0.135181	316.647
0.144919	322.631
0.201389	337.64
0.179405	327.16
0.110542	313.625
0.243363	339.194
0.258154	340.708
0.285337	340.748
0.317427	342.288
0.356967	342.346
0.406281	346.897
0.448182	351.436
0.50491	355.997
0.556696	360.551
0.608481	365.105
0.672697	366.692
0.709655	371.224
0.756535	374.278
0.798509	375.833
0.862541	384.882
0.936383	396.931
0.963235	410.404
0.982488	431.328
0.999308	450.755
0.996209	476.124
0.105157	331.528
0.134591	340.526
0.161627	346.536
0.16657	346.544
0.193606	352.554
0.20102	352.565
0.257785	355.633
0.322037	355.728
0.223372	348.12
0.285005	354.181
0.349147	358.753
0.403515	358.833
0.450432	360.395
0.49709	372.404
0.533975	379.921
0.600699	380.019
0.632825	380.066
0.687045	386.116
0.728909	392.148
0.793087	395.228
0.837385	402.756
0.899093	405.832
0.947928	429.784
0.971497	476.088
