Adsorption isotherm of Nitrogen on [EtOH]25-H2P-COF
DOI: 10.1021/jacs.5b04300
Article source: Figure S3(h)
Adsorbate Nitrogen: InChIKey IJGRMHOSHXDMSA-UHFFFAOYSA-N
Kind: experiment
Temperature: 77 K
Tabular data in the source: 0
pressure (bar)	uptake (cm3(STP)/g)
0.012774	88.1171
0.007485	116.074
0.008996	136.657
0.0104	155.771
0.012019	177.825
0.022994	193.97
0.040986	205.682
0.052177	224.767
0.052105	257.121
0.058511	277.69
0.053041	236.53
0.085031	305.554
0.08845	318.78
0.109321	336.366
0.127097	345.138
0.178807	349.4
0.199354	362.575
0.233935	366.887
0.251063	366.837
0.283306	372.626
0.341708	368.045
0.310546	376.959
0.393958	379.658
0.44045	379.523
0.482587	386.753
0.533865	385.134
0.590685	392.322
0.650059	400.973
0.703892	400.817
0.7506	403.622
0.792629	409.383
0.852112	419.504
0.891695	425.272
0.946283	435.407
0.999288	457.312
1.02048	479.31
1.04189	504.247
1.03693	536.615
0.126269	367.199
0.143938	374.501
0.183521	380.268
0.19831	381.696
0.23066	388.955
0.257685	390.347
0.284709	391.739
0.299606	394.637
0.319182	394.581
0.370568	394.431
0.431633	392.784
0.493347	399.957
0.543797	420.399
0.570821	421.791
0.630411	433.383
0.689354	436.153
0.740848	437.474
0.777768	440.308
0.829154	440.159
0.902994	445.827
0.930558	454.571
0.988025	470.58
1.01635	489.616
1.03916	533.667
