Adsorption isotherm of Carbon Dioxide on [HCâ‰¡C]25-H2P-COF
DOI: 10.1021/jacs.5b04300
Article source: Figure S5(a)
Adsorbate Carbon Dioxide: InChIKey CURLTUGMZLYLDI-UHFFFAOYSA-N
Kind: experiment
Temperature: 273 K
Tabular data in the source: 0
pressure (bar)	uptake (mg/g)
2.96688	7.40787
4.72186	9.8238
6.47505	12.8541
7.0013	13.6608
8.22943	15.4748
9.10452	17.5019
9.71828	18.5114
10.6833	19.922
11.5608	21.13
12.8782	22.5324
14.8088	25.1489
15.944	28.6034
17.2585	31.0297
19.3659	33.4373
21.3852	35.847
22.8753	38.4739
25.1577	41.287
26.212	42.286
27.9682	44.2923
29.6375	45.8912
31.6508	50.3488
33.1402	53.1805
33.8439	53.5735
2.69834	8.84765
3.84136	9.63979
4.71585	11.8717
5.76836	13.4851
6.03089	14.0932
6.99468	15.9135
7.87278	16.9167
8.66276	17.9219
9.976	20.7578
11.3797	22.7725
12.6954	24.7892
13.5693	27.2259
15.1486	29.4412
17.0756	33.2866
18.9193	35.4956
19.7956	37.1132
21.375	39.3284
23.658	41.9367
25.5005	44.5553
27.3418	47.5836
28.9242	48.7749
30.0648	50.3862
31.9966	52.5932
32.786	53.8032
