Adsorption isotherm of Carbon Dioxide on [EtOH]50-H2P-COF
DOI: 10.1021/jacs.5b04300
Article source: Figure S6(e)
Adsorbate Carbon Dioxide: InChIKey CURLTUGMZLYLDI-UHFFFAOYSA-N
Kind: experiment
Temperature: 298 K
Tabular data in the source: 0
pressure (bar)	uptake (mg/g)
2.46305	4.7816
6.34154	8.67777
9.24826	11.3321
11.3449	12.9217
14.0899	15.3987
16.1966	18.2383
17.6536	20.0118
19.5928	21.9599
23.311	25.8574
27.1895	29.7536
30.1091	34.0149
32.5335	36.4947
35.6105	40.3975
39.1684	44.2964
42.7178	47.1239
45.7891	50.3125
48.6915	52.4311
52.2465	55.9728
55.4924	60.9457
58.2517	65.2084
61.3216	68.2184
1.18644	5.50655
6.04243	11.3588
8.94628	13.656
9.76349	15.6135
11.2261	18.1012
11.7213	19.8828
13.3386	21.655
14.6309	22.8942
15.2807	23.9602
17.7037	26.2614
19.3223	28.2122
22.0759	31.7606
26.5841	34.2229
28.5362	37.778
31.4444	40.6109
35.7966	43.6102
37.9076	46.9855
40.332	49.4652
44.0502	53.3627
47.9258	56.9018
50.3459	58.8458
54.3847	62.7407
57.9369	65.9253
60.6862	68.938
61.8211	70.5357
