Adsorption isotherm of Carbon Dioxide on [AcOH]50-H2P-COF
DOI: 10.1021/jacs.5b04300
Article source: Figure S6(d)
Adsorbate Carbon Dioxide: InChIKey CURLTUGMZLYLDI-UHFFFAOYSA-N
Kind: experiment
Temperature: 298 K
Tabular data in the source: 0
pressure (bar)	uptake (mg/g)
2.41407	3.5296
5.65686	6.8723
7.71219	9.8412
9.25526	12.2531
10.9644	14.295
12.6766	16.7074
14.215	18.5637
15.4087	19.6782
16.7795	21.7192
18.1455	23.2047
19.5147	25.0605
21.2238	27.1024
24.1313	30.8145
27.042	34.897
29.6002	37.3118
32.8414	40.4693
37.0931	43.0742
40.6789	46.9734
43.2324	48.8327
45.7985	52.1734
47.6799	54.5863
52.4407	57.3778
55.8448	59.795
57.5508	61.4666
61.79	62.59
62.8161	63.8892
7.04953	11.5059
8.60357	15.2141
10.9957	17.9988
12.3633	19.6694
14.0724	21.7114
15.7784	23.383
16.9753	24.8679
18.686	27.0951
22.7747	30.4403
24.6702	34.5198
28.4253	38.4195
31.325	41.2057
34.7323	43.9933
38.3166	47.7074
42.2392	51.4224
45.6387	53.2841
49.0397	55.3309
52.4579	59.4149
55.6851	60.9057
58.4109	63.1358
61.132	64.8103
63.3299	64.6315
