Adsorption isotherm of Carbon Dioxide on [AcOH]25-H2P-COF
DOI: 10.1021/jacs.5b04300
Article source: Figure S5(d)
Adsorbate Carbon Dioxide: InChIKey CURLTUGMZLYLDI-UHFFFAOYSA-N
Kind: experiment
Temperature: 273 K
Tabular data in the source: 0
pressure (bar)	uptake (mg/g)
2.25801	5.93252
3.25242	10.2358
4.06663	13.925
4.69733	16.0743
5.42473	20.3824
6.23454	22.8371
7.13335	25.2903
7.94096	27.1278
8.57167	29.277
9.73968	32.3427
10.2792	33.8763
10.9978	35.7154
12.4438	41.8625
14.5974	46.7625
16.7588	53.8228
16.3028	50.7445
18.1905	55.9578
19.5365	59.0203
21.0682	64.24
23.0438	69.1431
25.1019	72.193
26.6281	75.8695
27.8884	79.8595
29.8574	82.9109
32.0979	87.192
33.2648	89.949
34.1636	92.4022
34.4328	93.0147
1.19109	6.26013
2.62391	8.70379
3.88313	12.3851
4.87094	14.8367
5.86205	18.2141
6.67406	21.2861
7.48606	24.3581
8.21017	27.7403
9.11117	30.8106
10.1001	33.5708
11.0011	36.6412
11.4527	38.4851
12.4493	43.4056
15.2303	49.529
18.1059	57.1939
19.2816	62.4199
21.0759	66.4004
22.4296	71.6232
24.3162	76.5279
26.5523	79.5746
28.4334	82.9362
30.1332	85.3751
31.8353	88.4313
34.5196	92.3959
33.8032	91.174
