Adsorption isotherm of Carbon Dioxide on [EtNH2]25-H2P-COF
DOI: 10.1021/jacs.5b04300
Article source: Figure S5(f)
Adsorbate Carbon Dioxide: InChIKey CURLTUGMZLYLDI-UHFFFAOYSA-N
Kind: experiment
Temperature: 273 K
Tabular data in the source: 0
pressure (bar)	uptake (mg/g)
0.780436	-0.234921
2.69554	9.1033
3.92178	12.9181
4.7968	15.8861
5.67333	18.4285
6.45527	22.6742
7.15318	25.6444
7.85259	28.189
8.72309	32.4337
9.15985	34.1304
10.1204	37.9485
10.3816	39.2219
12.5744	45.1524
14.1443	51.9417
15.6332	56.6043
17.4733	62.1136
19.3074	69.3252
20.6267	71.8622
22.9006	79.9194
24.2994	85.0087
25.6157	88.3968
27.8025	96.0296
29.8167	102.388
31.3851	109.603
33.0451	115.965
33.4804	118.088
0.775914	1.04173
1.37924	5.71519
1.80544	10.3908
2.40876	15.0643
3.27625	20.16
3.88409	23.5568
4.40488	26.5292
5.09827	30.776
5.87418	36.7239
6.57209	39.6941
7.62272	43.0855
8.76191	46.4757
9.63844	49.0182
11.2114	54.9564
12.9674	59.1902
15.1542	66.8229
16.6356	73.6133
18.5628	79.5471
19.9661	83.3597
22.5117	89.7114
24.1792	93.9463
25.494	97.76
27.5082	104.118
28.739	106.656
29.7851	111.324
31.8939	115.979
32.5918	118.95
