Adsorption isotherm of Carbon Dioxide on [MeOAc]100-H2P-COF
DOI: 10.1021/jacs.5b04300
Article source: Figure S6(c)
Adsorbate Carbon Dioxide: InChIKey CURLTUGMZLYLDI-UHFFFAOYSA-N
Kind: experiment
Temperature: 298 K
Tabular data in the source: 0
pressure (bar)	uptake (mg/g)
1.72039	0.851575
2.90619	1.77383
6.42398	2.95135
9.12447	4.66205
10.3136	5.71674
11.8382	6.90249
12.8579	7.82543
14.0404	8.61525
15.5617	9.66856
16.7375	10.1935
19.4182	11.1096
21.4345	12.0284
24.6432	14.1344
27.0016	15.4491
31.1871	16.7563
33.7149	18.2028
36.0898	20.1798
39.6241	22.0195
42.142	23.0687
46.0085	24.907
48.8816	26.8819
52.8977	28.0574
55.4222	29.3714
58.6243	31.2125
60.6538	32.6611
62.1685	33.4495
2.40459	1.64345
6.48008	5.20277
8.34677	6.78446
11.5324	7.96336
12.5488	8.75386
13.728	9.41124
15.4154	10.4639
16.9333	11.3848
18.4447	12.0408
19.966	13.0941
22.0219	15.6021
26.5825	18.6297
29.2731	19.943
32.1364	21.5206
34.4915	22.7029
38.0159	24.1453
41.3841	25.9857
44.9151	27.693
47.6057	29.0064
51.4688	30.7123
54.4883	31.8919
58.0127	33.3342
59.8563	33.9889
61.69	34.2462
62.856	34.3738
