Adsorption isotherm of Carbon Dioxide on [EtOH]50-H2P-COF
DOI: 10.1021/jacs.5b04300
Article source: Figure S5(e)
Adsorbate Carbon Dioxide: InChIKey CURLTUGMZLYLDI-UHFFFAOYSA-N
Kind: experiment
Temperature: 273 K
Tabular data in the source: 0
pressure (bar)	uptake (mg/g)
0.947501	2.88905
1.895	7.90854
1.98114	8.6246
2.8425	13.2852
3.70387	16.16
4.56523	21.1778
5.51273	24.4116
6.3741	27.2864
6.97706	30.156
7.92456	33.3898
8.78592	37.6932
9.47501	41.6359
9.99183	45.218
10.7671	49.5197
11.4562	53.4624
13.6957	58.1514
14.5571	66.7405
16.2798	72.8474
17.5718	78.9454
20.1559	85.4272
22.0509	91.5376
23.1707	97.632
24.5489	100.875
26.7023	105.919
28.9419	113.822
30.7507	118.145
32.215	120.318
34.0239	125.355
35.2298	129.666
3.18705	20.4351
4.30682	25.101
5.4266	28.3384
6.46024	33.0025
7.3216	35.8773
8.2691	40.5397
9.30274	45.2038
9.99183	48.4323
11.0255	55.2393
11.8007	58.4695
12.4898	61.3408
13.6957	65.6514
15.8491	71.7671
17.3996	76.799
19.3807	84.6969
20.5866	89.7217
22.3955	97.9732
24.2905	103.369
25.4103	109.107
26.8746	113.423
28.0805	116.662
31.0091	123.508
32.4735	126.752
33.0764	128.907
