Adsorption isotherm of Carbon Dioxide on [MeOAc]50-H2P-COF
DOI: 10.1021/jacs.5b04300
Article source: Figure S6(c)
Adsorbate Carbon Dioxide: InChIKey CURLTUGMZLYLDI-UHFFFAOYSA-N
Kind: experiment
Temperature: 298 K
Tabular data in the source: 0
pressure (bar)	uptake (mg/g)
0.889897	0.855006
3.26479	2.83195
4.78938	4.0177
6.64618	5.20209
7.32378	5.72909
9.34997	7.04522
11.3729	8.22892
13.3925	9.28018
15.0832	10.4652
17.106	11.6489
18.2918	12.5712
20.3378	14.6819
21.3641	15.8698
22.0483	16.6616
23.6092	19.3042
28.4789	21.4033
30.8637	23.7775
32.9229	26.418
36.4605	28.3902
40.5327	31.8171
42.9076	33.794
46.6311	36.5601
49.8265	38.1363
52.3642	39.9801
56.5695	42.0819
58.951	44.3237
61.9804	45.9006
64.1809	47.5472
1.2617	2.44287
6.86508	7.32039
8.42597	9.96294
11.6512	12.7311
11.9933	13.127
13.6939	14.7094
15.9026	16.687
18.0949	18.0025
18.9386	18.5288
21.8052	20.2388
25.6882	22.7393
29.0762	25.3743
32.6105	27.214
35.839	30.1146
38.7122	32.0895
41.911	33.7981
44.9899	37.3616
48.7034	39.7303
52.2476	41.9673
55.7885	44.0719
58.1601	45.9164
61.3721	48.1548
62.8769	48.5459
