Adsorption isotherm of Carbon Dioxide on [MeOAc]75-H2P-COF
DOI: 10.1021/jacs.5b04300
Article source: Figure S6(c)
Adsorbate Carbon Dioxide: InChIKey CURLTUGMZLYLDI-UHFFFAOYSA-N
Kind: experiment
Temperature: 298 K
Tabular data in the source: 0
pressure (bar)	uptake (mg/g)
1.88649	0.850889
3.40779	1.90421
6.09508	3.08516
8.45017	4.26748
10.4665	5.1863
11.9812	5.97475
13.3298	6.76388
15.0172	7.81651
17.3821	9.39614
19.5843	11.1089
20.2652	11.7683
20.7767	12.296
23.9821	14.2695
28.4965	15.4429
30.0376	17.2909
33.9239	19.9238
35.96	21.6373
39.6736	24.006
43.3938	26.6397
46.267	28.6146
49.6516	31.1171
52.8702	33.6204
55.7335	35.198
59.105	37.1708
62.6657	40.07
64.539	41.9166
6.19078	6.92582
8.04097	7.84533
9.90767	9.42702
11.5984	10.6121
13.1263	11.9303
14.1493	12.9857
16.0093	14.3025
17.8661	15.4869
19.0486	16.2767
20.9054	17.4611
23.2605	18.6434
27.1303	20.6141
28.997	22.1958
32.5643	25.3599
36.0953	27.0672
39.1181	28.3792
42.1541	30.221
45.1802	31.6654
47.8708	32.9788
50.9001	34.5557
54.9525	37.188
57.8026	38.2358
61.0047	40.0769
62.3665	41.3957
