Adsorption isotherm of Carbon Dioxide on [HCâ‰¡C]25-H2P-COF
DOI: 10.1021/jacs.5b04300
Article source: Figure S6(a)
Adsorbate Carbon Dioxide: InChIKey CURLTUGMZLYLDI-UHFFFAOYSA-N
Kind: experiment
Temperature: 298 K
Tabular data in the source: 0
pressure (bar)	uptake (mg/g)
4.45989	2.0067
6.59298	2.80945
7.5848	3.51742
8.5722	4.02134
10.0544	4.82823
11.2112	5.63719
12.6911	6.34206
13.8479	7.15102
15.6511	7.75179
17.1289	8.35462
18.6089	9.05949
20.4165	9.86431
22.0526	10.2621
24.0517	12.3922
28.3179	13.9977
29.8023	14.9066
33.4198	16.6183
36.7008	17.8219
41.6134	19.2192
44.0985	21.2442
47.2102	22.1427
49.8469	23.6566
52.4704	24.5582
55.7492	25.6598
58.8652	26.7624
61.9813	27.865
64.1099	28.4637
5.51149	5.46939
7.1542	6.17322
8.63418	6.87809
9.94924	7.48196
12.0801	8.18268
13.3929	8.68453
15.3567	9.18223
16.8322	9.68304
18.8092	10.7929
20.628	12.1079
24.7491	14.5306
28.0301	15.7342
31.3222	17.448
34.9286	18.6495
37.5587	19.8572
41.5083	21.8729
43.6414	22.6757
47.2434	23.6731
51.0302	25.6898
52.6774	26.5977
57.2579	27.691
59.2327	28.6989
61.1964	29.1966
