Adsorption isotherm of Nitrogen on [MeOAc]50-H2P-COF
DOI: 10.1021/jacs.5b04300
Article source: Figure S3(c)
Adsorbate Nitrogen: InChIKey IJGRMHOSHXDMSA-UHFFFAOYSA-N
Kind: experiment
Temperature: 77 K
Tabular data in the source: 0
pressure (bar)	uptake (cm3(STP)/g)
-0.000729	44.4879
0.012287	81.0163
0.003624	122.273
0.01945	150.869
0.032681	171.524
0.048635	190.597
0.059271	203.312
0.094096	225.589
0.131838	231.997
0.161516	235.218
0.183089	238.427
0.223704	232.141
0.239787	241.69
0.28038	236.992
0.310059	240.213
0.366757	243.476
0.412561	253.072
0.466578	254.744
0.509788	256.399
0.561039	262.828
0.617801	261.33
0.66901	270.934
0.698667	275.742
0.74728	277.406
0.806573	288.61
0.852313	302.967
0.89816	309.388
0.976302	325.384
0.983807	369.84
0.01128	155.618
0.093989	233.525
0.115519	239.908
0.145219	241.542
0.169472	246.342
0.21266	249.584
0.234276	249.618
0.261274	251.248
0.293675	252.886
0.361095	262.515
0.385413	262.553
0.436793	259.459
0.509466	280.208
0.539016	292.953
0.571375	297.765
0.622669	301.02
0.682112	301.113
0.749596	305.981
0.787338	312.389
0.833271	312.461
0.908775	323.69
0.970362	365.057
0.949025	344.388
