Adsorption isotherm of Carbon Dioxide on H2P-COF
DOI: 10.1021/jacs.5b04300
Article source: Figure S5(a)
Adsorbate Carbon Dioxide: InChIKey CURLTUGMZLYLDI-UHFFFAOYSA-N
Kind: experiment
Temperature: 273 K
Tabular data in the source: 0
pressure (bar)	uptake (mg/g)
0.255309	0.714174
1.1322	2.12693
1.91978	3.95135
2.97169	5.76953
3.58425	7.18852
4.28312	9.21981
4.63135	10.645
5.85767	13.0734
6.47204	13.8781
7.34953	15.086
7.87699	15.4831
8.75388	16.8959
9.27893	18.1122
10.4153	21.157
10.7618	23.1966
12.5137	26.6365
14.0925	29.0566
16.2838	32.8957
17.684	36.1391
19.4366	39.3742
21.0974	43.8401
22.2356	46.2706
24.8675	50.0993
26.3558	53.3406
28.5465	57.3845
29.949	59.8087
32.1337	65.9005
33.272	68.331
34.0523	72.6129
0.065857	5.22376
2.60301	11.3072
3.56981	12.1035
4.27109	13.3157
4.88365	14.7347
5.67123	16.5591
6.19628	17.7754
6.89515	19.8066
7.68453	21.0167
8.47391	22.2267
9.43651	24.4566
10.0515	25.0564
11.9785	28.9017
13.1143	32.1514
14.6013	35.8023
16.9701	39.2276
18.2779	43.9066
20.118	47.3445
22.2236	50.3664
23.7155	52.379
25.3781	56.2306
26.867	59.2671
28.2665	62.7153
30.5496	65.3236
31.686	68.3684
32.651	69.7791
