Adsorption isotherm of Carbon Dioxide on [Et]100-H2P-COF
DOI: 10.1021/jacs.5b04300
Article source: Figure S6(b)
Adsorbate Carbon Dioxide: InChIKey CURLTUGMZLYLDI-UHFFFAOYSA-N
Kind: experiment
Temperature: 298 K
Tabular data in the source: 0
pressure (bar)	uptake (mg/g)
1.50635	0.663649
2.17402	1.29861
2.84374	1.85388
4.70232	2.72345
7.58897	3.5095
8.76762	4.22224
10.2903	4.85401
11.64	5.56611
13.1647	6.1182
14.5205	6.59123
16.0412	7.30269
17.7369	7.85414
19.4306	8.48527
20.6133	9.03863
22.9747	10.3047
25.5194	11.0921
28.5668	12.2759
31.7893	13.2998
35.0078	14.483
38.9164	15.4246
42.1348	16.6078
43.9873	17.7164
46.5381	18.2647
51.1368	18.9647
53.5186	19.4339
56.2445	19.8221
59.6585	20.0485
61.1955	20.1224
63.9357	19.9528
0.256168	2.74002
1.61195	3.21306
5.84213	4.95027
8.05089	5.49981
9.06466	5.97412
10.9314	6.52493
12.4562	7.07701
13.3051	7.31289
15.1718	7.8637
16.5276	8.33673
18.0523	8.88882
19.913	9.67869
21.9446	10.4679
26.6817	12.4423
29.9124	13.1474
33.1288	14.4103
34.6372	15.5999
37.8597	16.6237
40.0644	17.3327
44.317	18.1933
47.8877	18.9768
51.2997	19.2828
55.5544	20.0638
57.2542	20.4558
60.1572	20.6044
62.8872	20.8332
