Adsorption isotherm of Carbon Dioxide on [Et]25-H2P-COF
DOI: 10.1021/jacs.5b04300
Article source: Figure S6(b)
Adsorbate Carbon Dioxide: InChIKey CURLTUGMZLYLDI-UHFFFAOYSA-N
Kind: experiment
Temperature: 298 K
Tabular data in the source: 0
pressure (bar)	uptake (mg/g)
1.82792	1.45926
2.32663	2.01517
4.34804	3.20286
6.87838	4.54801
8.24029	4.78197
9.58381	5.73314
10.9335	6.44524
12.2872	6.99796
13.2969	7.63165
14.6465	8.34375
16.1651	9.1349
17.3438	9.84764
18.8563	10.8779
19.7011	11.2731
23.0619	13.5713
26.2906	14.3561
28.4687	16.101
31.51	17.5239
35.2353	18.9443
38.2705	20.6063
42.171	21.8666
45.3812	23.3686
47.5839	24.1572
50.1306	24.8648
53.6931	25.9671
58.1024	27.3849
60.4761	28.1729
61.498	28.3284
0.728307	4.33189
6.14122	6.62247
7.82675	7.57236
9.6935	8.12317
11.208	9.0737
12.3867	9.78643
14.0763	10.5769
15.0901	11.0513
16.4397	11.7634
18.1314	12.4742
18.8093	12.7107
21.6755	14.2936
26.4269	15.7102
27.9312	17.0592
31.3165	18.4011
34.364	19.585
37.7493	20.9269
40.6217	22.2708
44.0132	23.3737
48.4205	24.8712
51.128	25.9767
53.3265	26.9246
56.7139	28.1869
58.9145	29.0552
60.1095	29.1304
