Adsorption isotherm of Carbon Dioxide on [MeOAc]75-H2P-COF
DOI: 10.1021/jacs.5b04300
Article source: Figure S5(c)
Adsorbate Carbon Dioxide: InChIKey CURLTUGMZLYLDI-UHFFFAOYSA-N
Kind: experiment
Temperature: 273 K
Tabular data in the source: 0
pressure (bar)	uptake (mg/g)
1.24559	2.47714
2.1248	4.2423
2.91702	6.00683
3.88848	8.77768
4.76769	10.5428
5.47421	12.558
6.00279	13.8181
6.62099	15.5814
7.58852	17.5984
8.46774	19.3636
9.08332	20.6243
9.96384	22.6407
10.4924	23.9009
10.934	25.1603
12.5224	29.4432
14.6288	32.976
16.4755	36.7582
17.9743	40.5379
19.6431	43.5651
21.5029	49.8599
23.3457	52.8884
24.4925	55.9117
25.9965	60.6965
28.2861	65.9894
30.0446	69.5198
32.1589	74.5602
33.7577	80.8532
34.9045	83.8765
1.08076	4.23474
2.49249	8.0138
3.63271	9.78085
4.69249	12.8036
5.57564	15.3226
6.55104	18.8472
7.17056	20.8617
7.70307	22.8756
8.3239	25.1414
9.02779	26.6541
9.646	28.4173
11.2278	31.4439
12.8083	34.2191
13.9577	37.745
15.8941	42.0304
17.1318	45.8082
19.1604	51.0993
20.8318	54.629
22.3266	57.6549
24.3447	60.9358
25.6695	64.7142
28.0527	71.2641
29.8045	73.5381
31.737	77.0697
33.1513	81.3513
34.2137	84.8766
