Adsorption isotherm of Nitrogen on [EtNH2]25-H2P-COF
DOI: 10.1021/jacs.5b04300
Article source: Figure S3(i)
Adsorbate Nitrogen: InChIKey IJGRMHOSHXDMSA-UHFFFAOYSA-N
Kind: experiment
Temperature: 77 K
Tabular data in the source: 0
pressure (bar)	uptake (cm3(STP)/g)
0.012873	65.7202
0.021393	20.9566
0.008447	144.818
0.002619	180.63
0.009	222.431
0.017963	259.758
0.022499	276.182
0.031979	292.614
0.046437	307.561
0.050937	325.478
0.065064	353.857
0.074285	380.736
0.088633	400.16
0.107997	416.607
0.137394	427.098
0.189069	436.129
0.19154	436.133
0.262949	446.686
0.216032	445.124
0.285153	448.211
0.309755	452.725
0.371573	451.323
0.411113	451.381
0.455596	451.447
0.502476	454.501
0.556806	456.074
0.606047	463.609
0.65289	468.156
0.712163	469.735
0.756646	469.801
0.800981	475.836
0.845352	480.379
0.914326	489.436
0.961096	496.968
0.987874	513.425
1.00724	529.872
0.998939	565.68
0.092653	437.48
0.122309	437.523
0.166643	443.559
0.176492	445.066
0.215847	452.586
0.25535	454.137
0.287514	452.692
0.299833	454.203
0.344315	454.268
0.398554	459.572
0.457661	467.868
0.499451	476.885
0.548655	485.912
0.603133	481.515
0.627809	483.044
0.687045	486.116
0.741339	489.181
0.793235	489.258
0.842512	495.301
0.901785	496.88
0.973009	514.896
0.977472	534.305
0.993996	565.673
