Adsorption isotherm of Carbon Dioxide on [HCâ‰¡C]75-H2P-COF
DOI: 10.1021/jacs.5b04300
Article source: Figure S5(a)
Adsorbate Carbon Dioxide: InChIKey CURLTUGMZLYLDI-UHFFFAOYSA-N
Kind: experiment
Temperature: 273 K
Tabular data in the source: 0
pressure (bar)	uptake (mg/g)
2.71097	4.54701
4.02781	6.15417
4.55527	6.55128
5.25774	7.35381
6.22334	8.5597
7.19135	8.94641
8.24627	9.74063
9.21308	10.5369
10.1817	10.7189
10.9735	11.1097
12.9029	14.1359
14.306	16.3553
16.5921	17.9396
17.5571	19.3503
19.4014	21.3545
21.0677	23.9773
22.2952	25.9962
23.7001	27.6012
25.979	31.643
27.2946	33.6598
29.4913	35.6557
30.5433	37.4739
32.9995	41.1019
33.1751	41.3026
3.32232	6.37559
5.07671	8.99631
6.30243	11.6295
7.53357	12.4196
8.76471	13.2096
10.1721	13.9955
11.1389	14.7918
13.3368	16.3782
15.7925	20.211
18.0785	21.7953
19.6549	25.0346
20.355	26.6563
21.848	28.2593
24.5722	30.6523
26.0647	32.4601
26.6742	34.9031
28.4334	35.8854
30.8028	39.106
32.4697	41.524
33.8734	43.5386
