Adsorption isotherm of Nitrogen on [EtOH]100-H2P-COF
DOI: 10.1021/jacs.5b04300
Article source: Figure S3(h)
Adsorbate Nitrogen: InChIKey IJGRMHOSHXDMSA-UHFFFAOYSA-N
Kind: experiment
Temperature: 77 K
Tabular data in the source: 0
pressure (bar)	uptake (cm3(STP)/g)
0.001835	5.79587
0.049191	17.4231
0.086435	24.6679
0.113675	29.0006
0.133466	31.8844
0.165061	28.8515
0.199318	28.752
0.223787	28.681
0.260491	28.5745
0.282514	28.5105
0.319218	28.404
0.326559	28.3827
0.366142	34.1502
0.422529	35.4571
0.481796	42.638
0.515837	39.598
0.569994	43.8525
0.628504	40.7415
0.656068	49.4851
0.687987	50.863
0.744158	49.2293
0.783525	52.0563
0.815875	59.3153
0.890255	72.3347
0.867693	65.0472
0.955279	91.2636
0.974351	117.679
0.982987	135.301
0.989068	151.46
0.990688	173.514
1.00166	189.658
1.01796	211.67
0.050594	36.5367
0.087514	39.3707
0.131559	39.2428
0.1855	40.5569
0.202628	40.5071
0.2588	38.8735
0.280823	38.8096
0.320298	43.1068
0.234115	36.004
0.345091	47.4466
0.377441	54.7056
0.433613	53.072
0.504034	45.5146
0.561177	57.1134
0.619904	56.943
0.661826	61.233
0.708534	64.0386
0.750348	66.8584
0.81897	68.1298
0.858877	78.3081
0.903569	87.0019
0.933472	94.2681
0.964239	113.296
0.988781	180.872
1.00828	213.169
