Adsorption isotherm of Carbon Dioxide on [EtNH2]50-H2P-COF
DOI: 10.1021/jacs.5b04300
Article source: Figure S5(f)
Adsorbate Carbon Dioxide: InChIKey CURLTUGMZLYLDI-UHFFFAOYSA-N
Kind: experiment
Temperature: 273 K
Tabular data in the source: 0
pressure (bar)	uptake (mg/g)
1.21418	2.31295
1.82202	5.70976
2.6115	7.82774
3.57357	11.2202
4.26998	14.6159
4.78926	18.0138
5.30402	22.6883
6.07843	29.0618
6.68477	32.8842
7.46822	36.7044
9.21072	44.7681
9.56194	45.6149
10.608	50.2829
10.8707	51.1307
12.7949	57.9157
14.6304	64.7017
15.9407	69.792
17.5016	79.1346
19.0805	83.3705
20.7345	91.4354
22.3059	97.7991
24.4087	104.156
27.1268	111.783
28.1684	117.727
29.1305	121.12
30.9661	127.906
32.4535	132.994
33.0658	135.114
0.307501	8.28152
2.72229	26.5498
3.24007	30.3732
3.93195	35.0456
4.45274	38.0179
5.32324	42.2626
6.36332	48.6328
7.06123	51.603
8.10884	55.8455
9.07242	58.8124
10.0345	62.2048
10.899	68.1517
13.0063	73.2322
14.9334	79.1661
16.5904	86.3798
17.9862	92.3201
19.8248	98.255
21.9306	103.761
23.6806	109.697
25.1695	114.36
26.3882	120.302
28.4039	126.235
30.0715	130.47
31.3832	135.135
34.3791	139.353
32.9712	136.817
