Adsorption isotherm of Nitrogen on [AcOH]25-H2P-COF
DOI: 10.1021/jacs.5b04300
Article source: Figure S3(g)
Adsorbate Nitrogen: InChIKey IJGRMHOSHXDMSA-UHFFFAOYSA-N
Kind: experiment
Temperature: 77 K
Tabular data in the source: 0
pressure (bar)	uptake (cm3(STP)/g)
0.0176	124.363
0.010057	154.909
0.002514	182.401
0	199.199
0.007543	214.455
0.0176	234.287
0.025143	255.649
0.032685	281.592
0.030171	309.077
0.025143	325.878
0.077942	350.226
0.098056	365.463
0.130742	374.574
0.150856	376.071
0.163427	380.632
0.198627	382.106
0.218741	382.075
0.253941	388.129
0.274055	391.152
0.311769	395.676
0.331883	400.225
0.382169	401.676
0.427426	406.188
0.477711	410.693
0.522968	410.625
0.578282	418.175
0.615996	422.698
0.681367	424.126
0.719081	424.069
0.776909	437.723
0.832223	449.853
0.87748	451.312
0.900108	465.018
0.94285	489.381
0.988107	535.115
0.988107	554.962
0.988107	574.809
0.093028	380.738
0.108114	386.822
0.13577	389.834
0.150856	391.338
0.191084	391.277
0.22377	391.228
0.243884	391.198
0.296684	398.752
0.321826	398.714
0.344455	403.26
0.374626	415.428
0.414854	418.421
0.450054	424.475
0.505368	427.445
0.555653	431.949
0.61851	431.855
0.651195	445.546
0.709024	451.566
0.77188	451.471
0.809594	463.628
0.854851	474.247
0.910165	484.85
0.932793	503.137
0.985593	588.553
