Adsorption isotherm of Carbon Dioxide on [HCâ‰¡C]50-H2P-COF
DOI: 10.1021/jacs.5b04300
Article source: Figure S6(a)
Adsorbate Carbon Dioxide: InChIKey CURLTUGMZLYLDI-UHFFFAOYSA-N
Kind: experiment
Temperature: 298 K
Tabular data in the source: 0
pressure (bar)	uptake (mg/g)
1.51762	1.41318
4.78976	2.20868
6.2631	2.60747
7.57816	3.21134
10.8636	4.619
12.3347	4.91575
14.1446	5.8226
15.4618	6.5285
17.2695	7.33332
18.2591	7.93927
21.2124	9.04292
22.5208	9.34071
24.3285	10.1455
25.1532	10.6505
26.7959	11.3543
28.1087	11.8562
30.4001	12.4538
31.7107	12.8536
34.0087	13.7574
35.4843	14.2582
37.2875	14.859
40.0825	16.1677
43.6801	16.9611
45.8376	18.8862
48.9558	20.0908
52.5556	20.9863
56.3358	22.6969
58.3151	23.9088
62.0754	24.7012
64.2195	26.0141
5.13734	3.22688
6.45903	4.13683
7.78294	5.14881
9.92488	6.35967
11.7281	6.96043
13.538	7.86728
15.1785	8.46908
16.3264	8.86994
18.2989	9.77575
19.1214	10.1787
20.2737	10.7836
24.054	12.4942
29.2832	13.4813
32.5819	15.5012
35.3725	16.6058
37.6727	17.6116
41.7717	19.0141
44.7184	19.8117
47.0142	20.6134
49.9632	21.513
52.4261	22.5177
56.6945	24.2252
59.8106	25.3278
61.937	25.8245
