Adsorption isotherm of Nitrogen on [Et]25-H2P-COF
DOI: 10.1021/jacs.5b04300
Article source: Figure S3(b)
Adsorbate Nitrogen: InChIKey IJGRMHOSHXDMSA-UHFFFAOYSA-N
Kind: experiment
Temperature: 77 K
Tabular data in the source: 0
pressure (bar)	uptake (cm3(STP)/g)
0.021681	192.798
0.02807	212.914
0.05987	260.781
0.085858	299.382
0.113598	320.917
0.151313	329.989
0.151395	331.539
0.199414	334.346
0.212872	337.364
0.250257	340.236
0.276843	340.073
0.306252	342.994
0.322286	344.446
0.175487	334.492
0.375705	348.77
0.439923	356.129
0.490849	363.57
0.530727	363.326
0.589711	372.267
0.648612	379.658
0.686244	387.18
0.742816	400.787
0.785931	411.376
0.852808	418.719
0.890522	427.79
0.944683	446.063
0.989034	479.9
1.02166	543.267
1.02267	512.253
1.03693	580.382
0.004204	64.2225
0.007955	34.7422
0.090907	344.312
0.11807	354.998
0.139174	351.769
0.171242	354.673
0.195334	357.626
0.224578	357.447
0.251082	355.735
0.29636	357.008
0.376612	365.819
0.424961	374.826
0.47024	376.099
0.539692	381.875
0.569431	390.996
0.620109	393.786
0.657742	401.308
0.727112	405.534
0.791001	406.694
0.831704	421.949
0.885205	427.823
0.950578	456.88
0.994928	490.717
1.01319	534.016
1.01292	578.979
