Adsorption isotherm of Nitrogen on [MeOAc]25-H2P-COF
DOI: 10.1021/jacs.5b04300
Article source: Figure S3(c)
Adsorbate Nitrogen: InChIKey IJGRMHOSHXDMSA-UHFFFAOYSA-N
Kind: experiment
Temperature: 77 K
Tabular data in the source: 0
pressure (bar)	uptake (cm3(STP)/g)
-0.005447	193.687
0.023395	258.811
0.052645	293.778
0.071408	304.918
0.095533	319.242
0.117041	327.212
0.157442	336.799
0.181738	338.425
0.211438	340.058
0.276284	340.16
0.292496	340.185
0.254647	341.713
0.311281	349.739
0.359852	354.577
0.397657	356.223
0.451675	357.895
0.502904	365.912
0.567773	364.426
0.616343	369.264
0.654106	374.085
0.705443	374.166
0.770182	382.204
0.818732	388.629
0.867259	396.641
0.915744	407.828
0.961334	433.297
0.985223	465.08
1.00081	511.136
1.00319	534.95
0.015461	246.101
0.095319	335.115
0.122166	347.855
0.176248	344.765
0.192438	346.378
0.222074	352.773
0.289665	349.705
0.303154	351.313
0.340959	352.96
0.262603	352.837
0.146527	344.719
0.540045	416.764
0.583191	423.18
0.650675	428.048
0.7155	429.737
0.745114	437.72
0.791026	439.379
0.823321	448.953
0.89074	458.583
0.928418	469.753
0.976388	519.035
