Adsorption isotherm of Carbon Dioxide on [EtOH]100-H2P-COF
DOI: 10.1021/jacs.5b04300
Article source: Figure S5(e)
Adsorbate Carbon Dioxide: InChIKey CURLTUGMZLYLDI-UHFFFAOYSA-N
Kind: experiment
Temperature: 273 K
Tabular data in the source: 0
pressure (bar)	uptake (mg/g)
0.861365	0.744417
1.55046	2.18717
2.49796	5.06381
3.44546	8.29759
4.65137	10.8224
4.99592	11.9009
5.68501	14.4151
6.54637	16.5757
7.23546	17.6613
8.01069	19.1058
8.95819	21.6253
9.73342	23.427
11.0255	25.9536
11.8007	28.1124
13.4373	32.4318
14.8155	34.9601
16.1937	39.6313
17.8303	45.0222
19.4668	48.6273
20.6728	51.8664
23.0846	57.2731
24.8934	61.2389
26.7023	65.2047
28.2528	69.8795
29.5448	73.4775
31.6982	76.3789
33.2487	81.4109
33.8516	83.209
0.861365	0.744417
1.55046	2.18717
2.49796	5.06381
3.44546	8.29759
4.65137	10.8224
4.99592	11.9009
5.68501	14.4151
6.54637	16.5757
7.23546	17.6613
8.01069	19.1058
8.95819	21.6253
9.73342	23.427
11.0255	25.9536
11.8007	28.1124
13.4373	32.4318
14.8155	34.9601
16.1937	39.6313
17.8303	45.0222
19.4668	48.6273
20.6728	51.8664
23.0846	57.2731
24.8934	61.2389
26.7023	65.2047
28.2528	69.8795
29.5448	73.4775
31.6982	76.3789
33.2487	81.4109
33.8516	83.209
