Adsorption isotherm of Carbon Dioxide on [HCâ‰¡C]75-H2P-COF
DOI: 10.1021/jacs.5b04300
Article source: Figure S6(a)
Adsorbate Carbon Dioxide: InChIKey CURLTUGMZLYLDI-UHFFFAOYSA-N
Kind: experiment
Temperature: 298 K
Tabular data in the source: 0
pressure (bar)	uptake (mg/g)
1.65378	0.187826
4.76762	1.18841
6.41033	1.89224
8.04861	2.39202
9.85404	3.09481
11.8266	4.00062
13.7948	4.70238
16.0817	5.09598
17.7156	5.39171
19.842	5.88837
22.3006	6.68905
24.2731	7.59486
27.2265	8.69851
29.2013	9.70635
32.3151	10.7069
35.9193	11.8064
39.3652	13.111
42.1559	14.2157
46.5914	16.1263
50.1912	17.0217
53.4744	18.3273
55.7945	20.2514
58.5852	21.356
60.5688	22.772
61.8794	23.1718
4.12116	1.39661
6.42361	2.5044
9.21644	3.71111
11.5145	4.61485
13.8236	6.02873
16.2887	7.13548
18.7473	7.93616
20.5527	8.63895
22.1932	9.24076
24.8166	10.1424
26.1317	10.7463
28.0998	11.4481
29.7426	12.1519
34.9806	13.5471
38.2594	14.6487
40.0825	16.1677
43.5063	16.452
47.2777	17.7545
49.2547	18.8644
53.5142	20.1638
57.4439	21.2613
60.395	22.2629
61.3846	22.8688
