Adsorption isotherm of Carbon Dioxide on [Et]50-H2P-COF
DOI: 10.1021/jacs.5b04300
Article source: Figure S5(b)
Adsorbate Carbon Dioxide: InChIKey CURLTUGMZLYLDI-UHFFFAOYSA-N
Kind: experiment
Temperature: 273 K
Tabular data in the source: 0
pressure (bar)	uptake (mg/g)
2.00364	3.41945
3.05074	5.5444
4.01157	7.21279
4.79824	8.42539
5.49595	9.94365
6.19527	11.0046
6.71882	12.0671
7.68018	13.583
8.46685	14.7956
9.42928	16.0067
10.0407	17.0684
11.0889	18.8884
12.4832	22.2298
13.7935	24.5049
15.5426	26.9286
17.2011	30.1152
18.9523	31.9291
21.4034	34.6515
23.0679	36.1613
24.3776	38.5888
26.3924	40.4004
28.0574	41.7577
30.1634	42.6538
31.1253	44.0173
32.6145	45.3762
33.3154	45.9798
0.945822	4.34337
4.53405	8.58015
5.49059	11.4681
6.36192	13.5946
6.79759	14.6578
7.8463	16.3255
9.24547	18.2949
9.94479	19.3558
10.9956	20.4136
11.9549	22.5394
13.4419	24.508
14.7505	27.2404
16.5859	30.1206
18.5987	32.542
20.5241	34.8117
22.0979	37.0844
23.7608	39.0515
25.9509	41.014
27.5258	42.9819
29.5429	44.1837
30.3322	44.6341
32.084	46.2955
32.9607	46.8976
