Adsorption isotherm of Carbon Dioxide on [AcOH]50-H2P-COF
DOI: 10.1021/jacs.5b04300
Article source: Figure S5(d)
Adsorbate Carbon Dioxide: InChIKey CURLTUGMZLYLDI-UHFFFAOYSA-N
Kind: experiment
Temperature: 273 K
Tabular data in the source: 0
pressure (bar)	uptake (mg/g)
0.483468	7.50728
3.5447	17.3294
4.3611	21.6359
5.35221	25.0133
5.98292	27.1626
6.97183	29.9228
7.33333	31.4595
7.96514	33.9174
8.68704	36.6824
9.04744	37.9105
9.67595	39.4426
10.5748	41.8957
11.2945	44.0434
12.1955	47.1138
12.4669	48.3436
13.5569	54.497
14.37	57.8776
16.6994	62.1572
18.2388	69.5372
19.7716	75.0655
21.8385	80.5843
23.6438	87.651
25.1711	91.6362
26.9687	96.5425
29.2125	101.749
30.8277	105.424
32.2671	109.72
33.6219	115.251
34.969	118.622
3.01069	17.3389
3.73699	21.3383
4.36659	23.179
4.8182	25.0228
5.539	27.4791
6.34991	30.2425
6.97952	32.0831
7.87833	34.5363
8.50904	36.6856
9.23094	39.4505
9.95065	41.5982
10.9451	45.9015
12.39	51.74
14.0118	57.2667
15.5501	64.3381
16.7258	69.5641
19.4233	77.2322
20.7726	81.2206
22.2208	87.9849
24.914	94.4185
25.8139	97.1803
28.2312	101.15
29.8519	106.368
30.9321	109.744
32.3737	114.656
33.8933	116.481
