Adsorption isotherm of Nitrogen on [AcOH]75-H2P-COF
DOI: 10.1021/jacs.5b04300
Article source: Figure S3(g)
Adsorbate Nitrogen: InChIKey IJGRMHOSHXDMSA-UHFFFAOYSA-N
Kind: experiment
Temperature: 77 K
Tabular data in the source: 0
pressure (bar)	uptake (cm3(STP)/g)
0.010057	25.1378
0.030171	90.7563
0.045257	112.108
0.082971	133.425
0.123199	148.631
0.143313	154.708
0.198627	159.205
0.201141	159.201
0.231313	162.209
0.25897	162.167
0.296684	160.584
0.316798	160.553
0.326855	162.065
0.175999	157.712
0.35954	166.596
0.450054	166.46
0.467654	166.433
0.399769	168.062
0.515425	166.361
0.575767	169.324
0.605939	169.278
0.668795	170.71
0.706509	175.233
0.761823	175.15
0.809594	176.605
0.872451	182.617
0.930279	197.797
0.955422	226.767
0.980565	272.53
1.00068	338.149
0.998164	367.16
0.103085	160.875
0.123199	166.952
0.158399	169.952
0.186056	171.438
0.20617	174.461
0.228798	174.427
0.253941	174.389
0.271541	174.362
0.299198	172.794
0.319312	171.237
0.357026	171.18
0.402283	177.219
0.460111	177.131
0.500339	183.178
0.54811	183.106
0.598396	179.977
0.648681	181.427
0.706509	185.92
0.809594	190.345
0.854851	194.857
0.922736	200.862
0.965479	249.652
0.980565	304.592
