Adsorption isotherm of Carbon Dioxide on [Et]75-H2P-COF
DOI: 10.1021/jacs.5b04300
Article source: Figure S5(b)
Adsorbate Carbon Dioxide: InChIKey CURLTUGMZLYLDI-UHFFFAOYSA-N
Kind: experiment
Temperature: 273 K
Tabular data in the source: 0
pressure (bar)	uptake (mg/g)
0.957611	0.989611
1.83323	1.89655
2.53202	3.10993
3.23241	3.86597
4.54584	5.22639
5.071	5.83153
5.77032	6.89246
6.90798	8.25442
8.04511	9.76883
8.48292	10.2223
9.35801	11.2817
10.3215	12.1879
10.7583	12.9462
12.5942	15.674
14.2554	18.0984
15.9182	20.0655
17.5794	22.49
18.9765	25.0692
20.9029	27.0339
22.9184	28.6931
24.3165	30.9674
26.065	33.5435
28.6051	35.9602
29.7427	37.3222
31.4945	38.9836
32.9832	40.4949
33.3342	40.6443
0.954396	1.90427
2.87926	4.32639
3.92797	5.99401
4.80252	7.20584
5.58919	8.41844
6.46481	9.32539
7.42564	10.9938
8.30072	12.0532
9.17742	12.6552
10.3162	13.7123
11.3654	15.2275
12.24	16.4393
14.0753	19.3195
14.8599	21.1419
17.0489	23.4093
18.888	25.2224
20.2004	26.8877
22.7383	29.9142
24.1332	33.1031
24.9199	34.3157
27.6368	36.426
28.4218	38.096
30.6135	39.6011
32.0127	41.5705
