Adsorption isotherm of Carbon Dioxide on [EtNH2]25-H2P-COF
DOI: 10.1021/jacs.5b04300
Article source: Figure S6(f)
Adsorbate Carbon Dioxide: InChIKey CURLTUGMZLYLDI-UHFFFAOYSA-N
Kind: experiment
Temperature: 298 K
Tabular data in the source: 0
pressure (bar)	uptake (mg/g)
2.12677	1.16402
5.82829	3.28042
7.97723	5.39682
10.4416	7.08995
11.6664	8.57143
14.2787	10.8995
14.7395	11.3228
16.7357	13.2275
18.2735	14.4974
21.8099	17.4603
21.9627	17.672
23.3353	19.7884
27.34	22.5397
29.4741	25.9259
32.5497	28.4656
35.7731	31.6402
39.45	35.873
41.7493	38.4127
44.9702	41.7989
48.0359	45.1852
50.796	48.1481
55.259	51.5344
58.0167	54.709
61.5506	57.8836
62.6128	60
1.12623	7.08995
6.65139	12.5926
10.0375	15.1323
12.1864	17.2487
14.185	18.9418
16.3365	20.8466
18.7959	22.963
20.176	24.4444
21.5363	27.619
25.2403	29.5238
27.68	33.3333
30.5979	36.0847
33.5157	38.836
37.683	40.9524
40.9089	43.9153
43.1983	47.3016
45.3399	50.0529
48.5805	51.746
53.5069	55.3439
56.1068	58.7302
59.9537	61.6931
61.8094	62.328
