Adsorption isotherm of Carbon Dioxide on [MeOAc]100-H2P-COF
DOI: 10.1021/jacs.5b04300
Article source: Figure S5(c)
Adsorbate Carbon Dioxide: InChIKey CURLTUGMZLYLDI-UHFFFAOYSA-N
Kind: experiment
Temperature: 273 K
Tabular data in the source: 0
pressure (bar)	uptake (mg/g)
1.06896	1.97335
2.03124	2.98534
3.2624	5.50681
4.14293	7.52324
4.49357	8.02829
5.5481	10.046
6.42338	11.0573
7.30128	12.5712
8.1805	14.3364
8.53113	14.8414
9.58698	17.1104
10.4649	18.6243
11.522	21.1445
10.9948	20.1356
12.7545	23.9172
14.7766	27.952
16.5298	30.4772
17.8505	33.5019
20.1284	36.5334
21.1842	38.8024
23.031	42.5846
25.1321	45.1123
27.4231	50.6566
28.6556	53.4293
29.9711	55.4489
32.5917	57.4779
33.575	62.5101
34.288	65.7816
0.561368	4.7335
3.64452	12.0422
3.83558	15.31
4.63041	17.577
5.77457	20.0979
7.00311	22.1168
7.70307	22.8756
8.40434	23.8857
9.8952	26.1578
10.5978	27.4192
11.3017	28.9318
12.4458	31.4527
14.547	33.9805
15.5237	37.7564
16.4016	39.2703
18.5068	42.5518
20.3522	46.0828
22.1028	48.1055
24.0339	51.3858
25.7871	53.9111
27.4585	57.4407
28.8597	59.2097
30.7817	60.7311
32.3582	62.7526
