Adsorption isotherm of Carbon Dioxide on [EtOH]75-H2P-COF
DOI: 10.1021/jacs.5b04300
Article source: Figure S6(e)
Adsorbate Carbon Dioxide: InChIKey CURLTUGMZLYLDI-UHFFFAOYSA-N
Kind: experiment
Temperature: 298 K
Tabular data in the source: 0
pressure (bar)	uptake (mg/g)
1.96501	2.6429
3.42624	4.95212
4.88317	6.72567
7.15302	9.92099
8.77025	11.6932
10.5435	12.9284
12.6459	15.2322
14.4248	17.1817
16.2023	18.9525
17.9813	20.9019
19.7574	22.4943
21.6938	24.0852
22.9861	25.3244
26.3766	28.3318
29.2862	31.3432
32.0269	33.2846
34.4584	36.6571
38.012	40.0203
42.0365	42.1295
45.1121	45.8538
48.6657	49.217
52.5313	51.5061
54.316	54.1698
57.8725	57.8901
61.2629	60.8975
61.917	62.4992
5.71039	9.93304
7.80993	11.8798
9.58316	13.115
11.0387	14.71
12.3324	16.1277
13.4674	17.7254
15.086	19.6761
16.3812	21.2725
17.675	22.6902
18.9702	24.2865
22.8459	27.8256
25.5937	30.6598
29.3033	33.4859
32.2186	37.2116
35.4517	40.5774
37.8761	43.0572
39.8225	45.898
43.3761	49.2612
46.9297	52.6244
50.6365	55.0934
54.6709	58.4526
58.3777	60.9216
60.4787	63.0469
61.127	63.9343
