Adsorption isotherm of Nitrogen on H2P-COF
DOI: 10.1021/jacs.5b04300
Article source: Figure S3(a)
Adsorbate Nitrogen: InChIKey IJGRMHOSHXDMSA-UHFFFAOYSA-N
Kind: experiment
Temperature: 77 K
Tabular data in the source: 0
pressure (bar)	uptake (cm3(STP)/g)
0.002235	34.3994
0.00438	73.0513
-0.004313	126.847
-0.004783	162.142
-0.013365	207.535
-0.000603	247.849
0.017477	288.156
0.017142	313.366
0.030081	340.236
0.032428	363.761
0.048162	380.542
0.079718	407.38
0.100882	415.748
0.119432	420.76
0.17517	429.071
0.153961	424.064
0.185786	430.734
0.204335	435.745
0.236249	435.692
0.265437	440.686
0.284009	444.016
0.313241	445.648
0.361023	452.292
0.398256	452.23
0.475292	458.825
0.52037	468.834
0.568218	470.435
0.624023	473.704
0.655848	480.374
0.730225	486.973
0.759412	491.967
0.809854	498.606
0.852361	501.897
0.91867	515.232
0.963435	548.771
0.96853	565.57
0.992175	587.379
1.00498	624.333
0.095273	437.606
0.116482	442.613
0.135009	449.305
0.166811	457.656
0.190702	460.978
0.214593	464.299
0.243825	465.931
0.278332	470.916
0.291585	474.256
0.355458	470.788
0.395216	480.806
0.443065	482.408
0.496166	489.042
0.557178	500.706
0.594322	507.367
0.642103	514.01
0.703272	513.909
0.743142	515.523
0.801562	522.149
0.836069	527.134
0.902445	535.427
0.968351	579.015
0.978431	621.016
