Adsorption isotherm of Carbon Dioxide on [EtNH2]50-H2P-COF
DOI: 10.1021/jacs.5b04300
Article source: Figure S6(f)
Adsorbate Carbon Dioxide: InChIKey CURLTUGMZLYLDI-UHFFFAOYSA-N
Kind: experiment
Temperature: 298 K
Tabular data in the source: 0
pressure (bar)	uptake (mg/g)
3.81241	3.06878
6.88058	6.24339
8.10292	7.93651
10.2371	11.3228
11.6097	13.4392
13.2929	15.5556
15.1264	18.0952
16.6593	19.7884
18.653	21.9048
20.0306	23.5979
21.8616	26.3492
24.7647	30.3704
25.6839	31.4286
27.8328	33.545
29.5283	34.6032
31.5319	35.873
33.3654	38.4127
36.4286	42.0106
39.4943	45.3968
42.4171	47.7249
45.7958	50.8995
48.721	53.0159
51.4811	55.9788
56.2497	59.7884
57.6199	62.1164
61.6221	65.0794
63.0022	66.5608
1.1558	4.55026
5.55227	13.6508
7.69629	16.1905
8.61551	17.2487
10.4392	20.6349
11.5062	22.328
12.8814	24.2328
13.9509	25.7143
14.5596	26.7725
16.0851	29.1005
18.3868	31.4286
20.9818	35.2381
24.2102	37.9894
27.7367	41.7989
30.349	44.127
33.2668	46.8783
36.648	49.8413
40.6575	52.1693
41.5422	56.1905
45.6997	59.1534
49.2435	61.4815
52.7873	63.8095
55.7174	65.5026
58.6427	67.619
60.1829	68.6772
