Adsorption isotherm of Nitrogen on [AcOH]100-H2P-COF
DOI: 10.1021/jacs.5b04300
Article source: Figure S3(g)
Adsorbate Nitrogen: InChIKey IJGRMHOSHXDMSA-UHFFFAOYSA-N
Kind: experiment
Temperature: 77 K
Tabular data in the source: 0
pressure (bar)	uptake (cm3(STP)/g)
0.0176	11.386
0.045257	14.3977
0.082971	20.4478
0.095542	20.4288
0.123199	24.9673
0.140799	23.4141
0.163427	21.8533
0.183542	26.4031
0.218741	30.9302
0.228798	32.4418
0.274055	36.9538
0.321826	27.7215
0.269027	30.8545
0.369597	27.6495
0.404797	26.0697
0.462625	32.0895
0.517939	32.0061
0.550625	36.537
0.613481	36.4423
0.648681	39.4427
0.709024	43.932
0.75428	49.9706
0.827194	52.9142
0.85988	58.9718
0.912679	72.6327
0.950393	95.4767
0.965479	109.194
0.965479	133.622
0.980565	164.133
1.00068	219.065
0.99565	260.294
0.0352	32.7335
0.098056	37.2189
0.108114	37.2038
0.130742	41.7499
0.155885	41.712
0.175999	40.1549
0.231313	38.5449
0.236341	38.5373
0.208684	40.1057
0.248913	41.5718
0.296684	39.9731
0.346969	46.0042
0.402283	47.4476
0.455083	48.8947
0.495311	42.7273
0.555653	44.1631
0.615996	57.8126
0.666281	56.2101
0.709024	63.7793
0.751766	63.7149
0.822166	60.5554
0.862394	57.4413
0.925251	77.1939
0.952908	103.106
0.985593	138.172
0.985593	173.286
0.99565	208.386
1.00571	245.012
1.00571	263.332
