Adsorption isotherm of Carbon Dioxide on [MeOAc]25-H2P-COF
DOI: 10.1021/jacs.5b04300
Article source: Figure S5(c)
Adsorbate Carbon Dioxide: InChIKey CURLTUGMZLYLDI-UHFFFAOYSA-N
Kind: experiment
Temperature: 273 K
Tabular data in the source: 0
pressure (bar)	uptake (mg/g)
1.16646	3.98411
3.00533	6.25872
3.80672	9.78211
4.60156	12.0492
5.65609	14.0669
6.27298	15.5789
6.97819	17.3428
8.03534	19.863
9.00287	21.88
9.70939	23.8952
10.5042	26.1622
11.0315	27.1711
12.9639	30.7027
15.1587	34.4874
16.8393	39.7759
17.7224	42.2949
18.8666	44.8157
21.5042	50.1112
23.4419	54.6479
25.0303	58.9307
26.7861	61.9585
34.3825	83.8728
28.6341	65.992
30.3991	70.7786
31.5538	75.3096
0.140779	7.49427
3.06698	18.0682
4.132	22.096
4.9229	23.6093
5.80342	25.6257
6.68264	27.3909
7.56579	29.9098
8.62294	32.43
9.41778	34.6971
10.2983	36.7135
11.6178	39.4869
12.6723	41.5046
14.262	46.0387
15.7581	49.3159
17.1646	52.0899
19.1801	54.8683
21.3827	60.1606
22.9763	65.4485
24.214	69.2263
25.8697	69.7408
28.4982	73.2774
29.819	76.302
31.9372	82.0963
34.3864	84.6266
