Adsorption isotherm of Carbon Dioxide on [MeOAc]50-H2P-COF
DOI: 10.1021/jacs.5b04300
Article source: Figure S5(c)
Adsorbate Carbon Dioxide: InChIKey CURLTUGMZLYLDI-UHFFFAOYSA-N
Kind: experiment
Temperature: 273 K
Tabular data in the source: 0
pressure (bar)	uptake (mg/g)
0.635255	2.22147
1.35751	7.25182
1.80433	9.51636
2.7758	12.2872
3.65895	14.8062
4.54341	17.5764
5.6915	20.851
6.57072	22.6162
7.54087	25.1358
8.59671	27.4047
9.38892	29.1692
10.0058	30.6813
11.9448	35.4692
12.8293	38.2394
14.5929	42.7748
16.1826	47.3089
18.032	51.5936
19.9618	54.6227
21.3709	57.8992
23.3112	62.9384
25.0749	67.4737
26.9308	73.0148
29.4723	76.5508
30.1853	79.8223
31.5035	82.3444
34.1359	86.6348
34.7554	88.6493
0.560056	4.48223
3.41105	17.3169
3.95012	20.5872
4.74627	23.1055
6.16718	28.6434
6.51913	29.3997
7.4049	32.4212
8.20104	34.9395
8.5543	35.9471
10.0583	40.7319
8.99194	36.4528
11.1325	46.5186
13.6753	50.3058
15.5325	56.0981
17.2026	59.3766
18.9571	62.1531
20.6285	65.6828
22.992	68.4637
24.2271	71.739
25.8142	75.7705
28.1777	78.5515
29.8413	80.5736
31.1607	83.3469
32.21	84.3596
34.1438	88.1424
