Adsorption isotherm of Carbon Dioxide on [EtNH2]100-H2P-COF
DOI: 10.1021/jacs.5b04300
Article source: Figure S6(f)
Adsorbate Carbon Dioxide: InChIKey CURLTUGMZLYLDI-UHFFFAOYSA-N
Kind: experiment
Temperature: 298 K
Tabular data in the source: 0
pressure (bar)	uptake (mg/g)
0.89211	0.529101
1.95919	2.22222
2.25738	3.28042
5.79625	6.03175
9.19218	7.72487
11.0232	10.4762
12.8641	12.381
13.7809	13.6508
15.0007	15.5556
16.2231	17.2487
17.1398	18.5185
18.515	20.4233
19.4367	21.2698
22.3446	24.8677
26.9678	27.8307
28.481	31.2169
31.4037	33.545
35.5612	36.5079
38.3287	38.836
41.4092	40.9524
44.6498	42.6455
48.1986	44.5503
51.4368	46.455
53.5931	47.9365
55.5868	50.0529
60.072	51.5344
60.8458	51.746
2.10705	2.85714
7.00627	8.78307
11.7724	12.8042
13.6133	14.709
16.2231	17.2487
17.9038	19.5767
19.8975	21.6931
21.8961	23.3862
26.7855	30.1587
29.5678	31.2169
33.0992	34.6032
34.4818	35.873
37.6953	39.8942
40.4628	42.2222
43.3856	44.5503
46.0003	46.6667
50.4683	49.6296
53.1002	50.2645
55.8776	51.746
59.4313	53.2275
60.974	54.0741
