Adsorption isotherm of Carbon Dioxide on [AcOH]100-H2P-COF
DOI: 10.1021/jacs.5b04300
Article source: Figure S6(d)
Adsorbate Carbon Dioxide: InChIKey CURLTUGMZLYLDI-UHFFFAOYSA-N
Kind: experiment
Temperature: 298 K
Tabular data in the source: 0
pressure (bar)	uptake (mg/g)
2.90441	1.49398
4.61666	3.90633
7.34405	6.32161
8.53464	7.06579
10.4114	8.92307
11.6051	10.0376
12.6312	11.3369
13.6526	12.0806
15.0155	13.1956
16.3816	14.681
17.403	15.4247
19.9611	17.8395
20.9857	18.9536
24.053	21.5551
26.7835	24.3407
30.6905	26.2039
33.2503	28.8038
35.9761	31.0339
39.2064	32.8951
42.7719	34.3869
47.0282	37.5473
49.5833	39.5918
52.3075	41.6367
55.0287	43.3112
58.2621	45.5427
61.3294	48.1442
62.8599	49.0745
1.40051	3.71186
4.81248	7.05504
6.86155	9.28318
8.39521	10.5839
10.4427	12.6269
11.6364	13.7414
12.4871	14.2994
15.733	18.0125
17.2682	19.4984
18.6327	20.7987
21.6922	22.4742
25.6023	24.7077
29.348	27.4963
31.2279	29.7239
34.4597	31.7703
38.8852	34.9312
40.9265	36.2334
43.9891	38.2793
47.7347	41.0679
50.6313	43.4837
54.5415	45.7172
57.9378	47.2085
59.8067	48.1398
62.0093	48.5165
62.686	48.5185
