Adsorption isotherm of Carbon Dioxide on [HCâ‰¡C]50-H2P-COF
DOI: 10.1021/jacs.5b04300
Article source: Figure S5(a)
Adsorbate Carbon Dioxide: InChIKey CURLTUGMZLYLDI-UHFFFAOYSA-N
Kind: experiment
Temperature: 273 K
Tabular data in the source: 0
pressure (bar)	uptake (mg/g)
2.53415	4.75596
3.32413	5.76121
3.93849	6.56583
5.08032	7.76756
6.04592	8.97344
6.57278	9.57534
7.44967	10.9881
8.32716	12.1961
9.20586	12.9944
9.55649	13.6005
10.7888	13.981
11.8438	14.7752
12.7224	15.5736
14.5673	17.373
15.5263	20.8316
16.224	23.2725
16.8384	24.0771
18.4213	25.0637
19.1208	26.8902
21.2294	28.8882
23.5137	31.0869
24.4781	32.7023
25.7068	34.3116
28.0744	38.1465
29.7412	40.5645
31.5807	44.2071
32.9869	45.4026
33.5976	47.4359
0.418899	5.01065
3.48772	10.0577
4.89207	11.8676
6.1214	13.272
7.87518	16.0975
9.63258	17.6943
10.6863	18.8981
11.9162	20.0977
13.6724	22.1041
14.5487	23.7216
16.4787	26.543
18.0599	28.1439
20.2584	29.5254
21.8348	32.7647
23.5886	35.5902
25.1685	37.6007
26.9283	38.3783
28.6809	41.6134
30.0835	44.0376
31.9296	45.4275
32.8083	46.2259
