Adsorption isotherm of Nitrogen on [HCâ‰¡C]50-H2P-COF
DOI: 10.1021/jacs.5b04300
Article source: Figure S3(a)
Adsorbate Nitrogen: InChIKey IJGRMHOSHXDMSA-UHFFFAOYSA-N
Kind: experiment
Temperature: 77 K
Tabular data in the source: 0
pressure (bar)	uptake (cm3(STP)/g)
0.021433	190.67
0.036898	227.619
0.047268	247.77
0.070823	276.302
0.115811	293.035
0.16366	294.636
0.139736	293.835
0.187551	297.958
0.211397	304.641
0.221968	309.665
0.24054	312.996
0.259134	314.646
0.283003	319.648
0.360173	316.159
0.405385	316.084
0.461145	322.714
0.498356	324.333
0.546249	322.573
0.617944	330.857
0.668386	337.496
0.718961	334.051
0.758764	340.708
0.806613	342.309
0.864966	353.977
0.896656	370.731
0.947008	384.093
0.967904	412.63
0.991549	434.439
0.991393	446.204
0.08649	298.125
0.105017	304.817
0.147457	313.15
0.166029	316.481
0.195261	318.113
0.227109	323.102
0.251111	318.02
0.269683	321.351
0.293552	326.353
0.351971	332.979
0.391864	332.913
0.439735	332.833
0.511296	351.202
0.537667	367.965
0.598814	369.544
0.646685	369.465
0.705194	369.368
0.745064	370.982
0.790142	380.992
0.843243	387.626
0.893706	392.585
0.952059	404.253
0.989113	417.636
0.999483	437.787
0.999349	447.872
