Adsorption isotherm of Carbon Dioxide on [Et]75-H2P-COF
DOI: 10.1021/jacs.5b04300
Article source: Figure S6(b)
Adsorbate Carbon Dioxide: InChIKey CURLTUGMZLYLDI-UHFFFAOYSA-N
Kind: experiment
Temperature: 298 K
Tabular data in the source: 0
pressure (bar)	uptake (mg/g)
1.50635	0.663649
2.84987	1.61482
3.86568	2.00943
5.89527	2.87836
7.58489	3.66888
9.27655	4.3797
10.4531	5.17213
12.3097	6.12138
14.1683	6.99095
15.862	7.62208
17.8977	8.25194
20.2672	9.19929
21.2851	9.51422
23.8236	10.5406
24.8333	11.1743
28.5668	12.2759
31.9665	13.0601
35.8587	14.6392
38.2303	15.5068
41.1027	16.8507
44.5003	17.7145
46.5401	18.185
47.8959	18.658
51.7963	19.9184
54.8479	20.9429
57.5656	21.6499
60.4583	22.1969
61.6452	22.5908
2.1822	0.979855
5.56552	2.4015
8.76762	4.22224
10.2924	4.77432
12.4889	5.80199
14.6874	6.74997
16.548	7.53984
22.1463	9.27196
25.7026	10.6133
28.3958	12.2766
31.1074	13.2226
35.0119	14.3236
38.7188	16.4612
41.6096	17.0878
43.8081	18.0358
46.3425	19.2216
50.072	20.4826
53.9806	21.4242
57.3721	22.5271
59.4057	23.2366
61.1035	23.7084
