Adsorption isotherm of Carbon Dioxide on [Et]50-H2P-COF
DOI: 10.1021/jacs.5b04300
Article source: Figure S6(b)
Adsorbate Carbon Dioxide: InChIKey CURLTUGMZLYLDI-UHFFFAOYSA-N
Kind: experiment
Temperature: 298 K
Tabular data in the source: 0
pressure (bar)	uptake (mg/g)
3.03518	1.05636
4.89172	2.00561
7.2674	2.71389
9.12598	3.58345
10.9846	4.45301
12.5011	5.32386
14.3495	6.59187
15.1902	7.1465
16.8778	8.0167
18.3984	8.72816
20.4301	9.5174
21.4459	9.91202
25.4969	11.9686
26.3356	12.603
28.6928	14.0284
31.9174	14.9726
33.776	15.8422
38.5376	16.8603
41.2471	17.886
44.1256	18.9908
47.34	20.3334
50.5748	20.8791
52.9443	21.8265
57.199	22.6074
60.7533	24.0284
64.495	24.8113
62.7932	24.4989
-0.055185	1.54596
6.89269	3.99018
10.4388	5.72995
12.6394	6.59824
14.5001	7.38812
16.6945	8.49547
18.8849	9.76221
21.0814	10.7899
22.7567	12.1382
24.6112	13.1672
28.8455	14.745
31.5488	16.0098
35.7852	17.508
37.9837	18.4559
40.8683	19.3217
44.2578	20.5043
46.4645	21.1335
50.6967	22.791
54.7763	23.732
57.1561	24.2809
59.54	24.6704
61.59	24.7424
61.59	24.7424
