Adsorption isotherm of Carbon Dioxide on [HCâ‰¡C]100-H2P-COF
DOI: 10.1021/jacs.5b04300
Article source: Figure S6(a)
Adsorbate Carbon Dioxide: InChIKey CURLTUGMZLYLDI-UHFFFAOYSA-N
Kind: experiment
Temperature: 298 K
Tabular data in the source: 0
pressure (bar)	uptake (mg/g)
2.79726	0.384629
5.08863	0.982288
6.07382	1.38418
9.83412	2.17657
10.9798	2.4754
13.2734	3.17509
17.0359	4.0695
18.0233	4.57342
21.1394	5.67603
22.1223	5.9759
14.2586	3.57698
15.8969	4.07675
19.49	4.66613
24.0971	6.98374
27.6969	7.87919
29.8278	8.57991
32.9217	8.66226
36.3698	10.0689
40.1368	11.1674
42.7647	12.2731
45.2188	12.8697
48.9791	13.6621
51.1188	14.7709
54.8902	16.0734
59.3036	16.9637
61.4411	17.9705
63.9063	19.0773
6.13359	4.1389
7.28814	4.84584
9.25408	5.44557
10.5603	5.64134
12.3613	6.14008
14.1578	6.43476
16.1171	6.72841
17.7532	7.12616
19.5609	7.93098
22.9979	8.82747
26.1007	9.31792
28.5703	10.6287
31.8402	11.3222
35.1057	11.8116
37.7247	12.5092
41.0079	13.8149
43.7875	14.4094
47.5434	14.9978
50.6483	15.5902
52.6231	16.5981
56.8738	17.4894
60.7946	18.1787
61.9425	18.5796
