Adsorption isotherm of Carbon Dioxide on [EtNH2]75-H2P-COF
DOI: 10.1021/jacs.5b04300
Article source: Figure S6(f)
Adsorbate Carbon Dioxide: InChIKey CURLTUGMZLYLDI-UHFFFAOYSA-N
Kind: experiment
Temperature: 298 K
Tabular data in the source: 0
pressure (bar)	uptake (mg/g)
3.16428	5.39682
4.66509	9.84127
7.13195	11.3228
8.95067	15.1323
10.4786	17.2487
12.2998	20.8466
13.8228	23.3862
15.2004	25.0794
17.0388	27.1958
22.8646	33.545
26.544	37.5661
29.5998	41.7989
32.6828	43.7037
35.2679	48.3598
37.2517	51.3228
42.1534	57.037
44.4428	60.4233
47.3533	63.8095
50.2613	67.4074
53.0165	70.7936
56.2276	75.0265
58.968	79.6825
60.9543	82.4339
1.42688	7.93651
6.09198	20.6349
8.22367	24.2328
9.7516	26.3492
10.8211	27.8307
12.4994	30.3704
13.8795	31.8519
15.4098	33.7566
16.0185	34.8148
17.0906	36.0847
17.995	38.4127
21.6497	44.5503
24.4197	46.6667
27.3252	50.4762
29.7551	55.1323
32.3624	57.8836
36.8106	62.5397
41.8897	66.3492
44.9678	68.6772
46.6312	72.4868
48.933	74.8148
52.1638	77.3545
55.2517	78.836
58.793	81.3757
60.7941	82.8571
