Adsorption isotherm of Carbon Dioxide on H2P-COF
DOI: 10.1021/jacs.5b04300
Article source: Figure S6(a)
Adsorbate Carbon Dioxide: InChIKey CURLTUGMZLYLDI-UHFFFAOYSA-N
Kind: experiment
Temperature: 298 K
Tabular data in the source: 0
pressure (bar)	uptake (mg/g)
2.48952	1.20291
4.96576	2.8198
6.45239	3.83075
7.45086	4.8448
8.44711	5.75683
10.4308	7.17277
11.0927	7.67876
12.4122	8.48669
14.0571	9.29255
15.5393	10.0994
17.0193	10.8043
18.6687	11.8142
20.494	13.4352
24.7779	15.857
26.9331	17.68
30.7178	19.5947
34.001	20.9003
36.1695	23.3355
40.2752	25.044
43.7321	26.8588
47.198	29.0816
48.5175	29.8895
52.9486	31.596
57.0631	33.7127
59.5261	34.7174
62.4949	36.5352
63.9837	37.6482
1.0516	2.43656
6.1823	6.38349
7.51285	7.70155
8.99948	8.71249
10.1518	9.3174
11.1414	9.92335
13.1229	11.2373
14.1103	11.7412
15.9268	12.9541
17.2462	13.762
18.4074	14.7751
18.9044	15.1801
22.0448	17.405
25.9856	19.0125
29.1193	20.9314
31.4395	22.8554
35.3913	24.9731
38.5251	26.8919
40.8319	28.2037
44.4428	29.6093
47.4161	31.6312
50.6971	32.8348
55.2975	34.8464
57.7738	36.4632
59.5903	37.6762
61.3868	37.9709
