Adsorption isotherm of Nitrogen on [MeOAc]100-H2P-COF
DOI: 10.1021/jacs.5b04300
Article source: Figure S3(c)
Adsorbate Nitrogen: InChIKey IJGRMHOSHXDMSA-UHFFFAOYSA-N
Kind: experiment
Temperature: 77 K
Tabular data in the source: 0
pressure (bar)	uptake (cm3(STP)/g)
0.007784	14.3426
0.048035	35.0405
0.096519	46.2276
0.112688	49.4275
0.161259	54.2655
0.185555	55.8909
0.204468	55.9205
0.266763	44.907
0.2884	43.3536
0.228936	44.8477
0.312632	49.7407
0.353161	49.8042
0.40171	56.2295
0.501553	65.9097
0.461174	54.7354
0.544892	58.0411
0.607036	58.1385
0.647416	69.3128
0.709474	75.7592
0.766215	75.8481
0.798488	87.0098
0.855079	98.2096
0.900819	112.567
0.927603	130.069
0.954365	149.159
0.965001	161.874
0.975551	180.938
0.986123	198.415
1.00716	241.305
0.042566	39.7939
0.107392	41.4827
0.147921	41.5462
0.185705	44.78
0.228872	49.6095
0.269379	51.2603
0.315312	51.3322
0.37201	54.5957
0.442218	57.8803
0.49898	56.3819
0.547508	64.3944
0.609588	69.2536
0.652884	64.5595
0.7149	74.1804
0.900969	101.456
0.946345	142.797
0.988547	219.054
0.988139	249.212
