Adsorption isotherm of Nitrogen on [HCâ‰¡C]25-H2P-COF
DOI: 10.1021/jacs.5b04300
Article source: Figure S3(a)
Adsorbate Nitrogen: InChIKey IJGRMHOSHXDMSA-UHFFFAOYSA-N
Kind: experiment
Temperature: 77 K
Tabular data in the source: 0
pressure (bar)	uptake (cm3(STP)/g)
-0.000536	42.8074
-0.003755	84.8295
-0.004291	125.167
-0.00476	160.461
-0.005163	190.714
0.004939	231.034
0.007308	252.878
0.012247	281.442
0.028025	294.861
0.040876	328.453
0.064409	358.666
0.080143	375.447
0.093329	383.828
0.114493	392.196
0.133042	397.208
0.146318	398.866
0.164934	398.835
0.186166	402.162
0.207419	403.807
0.231332	405.448
0.257883	408.765
0.284411	413.763
0.313621	417.076
0.369448	418.664
0.406547	428.687
0.446373	433.663
0.510178	435.238
0.557916	445.242
0.616402	446.826
0.664229	450.108
0.714648	458.428
0.767793	461.701
0.823442	476.735
0.868676	474.979
0.919117	481.618
0.942896	493.343
0.96929	508.426
0.990097	543.685
0.992443	567.211
0.093195	393.912
0.116996	403.957
0.140865	408.959
0.16737	415.638
0.193921	418.955
0.209855	420.61
0.236406	423.927
0.260341	423.887
0.302782	432.22
0.347949	435.507
0.398412	440.465
0.451446	452.142
0.49668	450.386
0.536349	467.127
0.589494	470.4
0.655893	477.013
0.682465	478.649
0.735544	486.965
0.775325	495.302
0.836449	498.562
0.892209	505.192
0.958562	515.166
0.979682	526.896
0.987325	552.093
