Adsorption isotherm of Carbon Dioxide on [MeOAc]25-H2P-COF
DOI: 10.1021/jacs.5b04300
Article source: Figure S6(c)
Adsorbate Carbon Dioxide: InChIKey CURLTUGMZLYLDI-UHFFFAOYSA-N
Kind: experiment
Temperature: 298 K
Tabular data in the source: 0
pressure (bar)	uptake (mg/g)
2.74669	2.03939
4.78278	3.75283
6.80568	4.93653
8.65917	5.98847
10.6689	6.64242
12.5191	7.56193
14.1999	8.34969
16.0534	9.40163
17.9101	10.586
18.7604	11.3772
20.4511	12.5623
21.6336	13.3521
23.6664	14.9331
26.6991	16.6424
29.4062	18.618
32.7843	20.8557
36.3285	23.0927
39.8826	25.727
42.7591	27.8344
46.3033	30.0714
50.6911	32.8347
52.7503	35.4752
55.4475	37.0535
58.1777	39.9561
61.5558	42.1938
63.5754	43.245
1.4872	4.82605
7.23028	8.64338
9.08377	9.69533
10.7745	10.8804
12.6346	12.1972
14.3253	13.3823
16.0126	14.4349
17.8628	15.3544
19.5535	16.5395
22.9514	19.5718
27.512	22.5993
29.5382	23.9155
33.5906	26.5477
36.9555	28.2557
38.666	30.2354
41.7086	32.342
45.0834	34.4473
47.9301	35.3627
51.7999	37.3334
55.5135	39.7022
58.0413	41.1487
61.569	42.7235
62.9143	43.3802
