Adsorption isotherm of Carbon Dioxide on [Et]25-H2P-COF
DOI: 10.1021/jacs.5b04300
Article source: Figure S5(b)
Adsorbate Carbon Dioxide: InChIKey CURLTUGMZLYLDI-UHFFFAOYSA-N
Kind: experiment
Temperature: 273 K
Tabular data in the source: 0
pressure (bar)	uptake (mg/g)
1.82466	4.33565
4.87969	10.2539
5.92679	12.3789
6.62611	13.4398
7.5864	15.2607
8.28411	16.7789
8.89555	17.8406
9.85423	20.1188
10.553	21.3322
12.0352	24.6728
13.608	27.2505
15.885	29.517
17.5419	33.161
19.4657	35.888
20.5986	38.622
22.5245	40.7392
24.4504	42.8564
25.9343	45.7398
27.334	47.5567
29.5204	50.5863
30.9217	51.946
32.6751	53.1501
33.8149	53.9023
0.498901	6.48144
3.21097	9.96372
3.90868	11.482
4.95632	13.4545
5.56829	14.3638
6.44231	15.728
7.14109	16.9414
7.92775	18.154
8.71389	19.5191
9.67525	21.035
10.3746	22.0959
11.4179	25.288
13.608	27.2505
14.9167	29.9829
17.0146	33.1657
18.6748	35.895
19.8955	38.6282
21.8204	41.0503
23.7436	43.9297
24.7034	45.903
27.1539	48.7778
29.0793	51.0475
30.9174	53.1655
32.2314	54.3735
33.1059	55.5853
