Adsorption isotherm of Carbon Dioxide on [EtOH]25-H2P-COF
DOI: 10.1021/jacs.5b04300
Article source: Figure S6(e)
Adsorbate Carbon Dioxide: InChIKey CURLTUGMZLYLDI-UHFFFAOYSA-N
Kind: experiment
Temperature: 298 K
Tabular data in the source: 0
pressure (bar)	uptake (mg/g)
0.824358	0.331005
3.39904	1.55949
5.68177	6.36185
7.62388	8.66705
9.07795	10.0835
11.0172	12.0316
12.6316	13.4466
14.4134	15.7532
16.0263	16.9897
18.7656	18.7525
20.2168	19.8118
21.3431	20.3381
23.1207	22.109
25.8699	25.1218
29.415	27.4136
32.9586	29.5268
36.5093	32.5329
39.4089	34.2944
42.3156	36.9486
47.3004	38.8713
49.7277	41.7081
52.7875	43.4683
54.8842	45.0579
56.9809	46.6475
59.8819	48.5876
64.2183	49.6228
6.67071	9.74645
10.0626	12.9324
12.3167	14.1636
14.2517	15.576
17.6378	18.0477
20.0565	19.8132
22.1532	21.4028
25.0785	26.3784
28.1427	28.6742
32.1743	31.6762
36.0385	33.7868
37.9791	35.9134
41.371	39.0994
43.7868	40.5078
47.6567	43.3326
50.396	45.0954
54.2602	47.206
57.3143	48.2519
61.1785	50.3625
62.1417	50.533
