Adsorption isotherm of Nitrogen on [AcOH]50-H2P-COF
DOI: 10.1021/jacs.5b04300
Article source: Figure S3(g)
Adsorbate Nitrogen: InChIKey IJGRMHOSHXDMSA-UHFFFAOYSA-N
Kind: experiment
Temperature: 77 K
Tabular data in the source: 0
pressure (bar)	uptake (cm3(STP)/g)
0.027657	52.5922
0.010057	75.5195
0.015086	107.573
0.010057	144.222
0.0176	159.478
0.022628	186.951
0.032685	200.676
0.057828	217.432
0.065371	222.001
0.110628	235.673
0.125713	238.704
0.155885	243.239
0.196113	246.232
0.216227	249.255
0.236341	252.278
0.276569	255.271
0.304226	256.756
0.321826	256.729
0.379654	268.856
0.42994	273.36
0.457597	273.318
0.515425	273.231
0.573253	273.144
0.61851	280.71
0.67131	276.05
0.716566	282.089
0.77188	288.112
0.799537	288.07
0.852337	294.098
0.912679	306.221
0.970507	324.454
0.980565	356.5
0.990622	391.599
1.00319	423.641
0.998164	452.657
0.103085	261.639
0.140799	267.689
0.145828	267.681
0.186056	269.147
0.231313	272.133
0.25897	276.671
0.301712	272.027
0.311769	270.485
0.362055	282.623
0.407311	290.188
0.455083	288.589
0.502854	297.678
0.545596	306.774
0.610967	300.568
0.656224	311.187
0.706509	309.585
0.756795	312.562
0.819651	320.101
0.87748	326.121
0.910165	336.759
0.947879	356.549
0.97805	390.091
1.00068	434.332
