Adsorption isotherm of Nitrogen on [Et]50-H2P-COF
DOI: 10.1021/jacs.5b04300
Article source: Figure S3(b)
Adsorbate Nitrogen: InChIKey IJGRMHOSHXDMSA-UHFFFAOYSA-N
Kind: experiment
Temperature: 77 K
Tabular data in the source: 0
pressure (bar)	uptake (cm3(STP)/g)
-0.00709	51.8885
0.011974	160.299
0.024669	198.981
0.044104	214.366
0.095688	234.205
0.073925	225.036
0.12485	232.476
0.157001	236.931
0.183916	242.968
0.19995	244.42
0.229524	250.44
0.258851	251.811
0.288178	253.182
0.312188	254.586
0.376076	255.745
0.424096	258.552
0.480585	270.609
0.531016	268.75
0.581611	269.991
0.629713	274.348
0.664522	278.786
0.720682	284.644
0.779253	285.835
0.814227	293.373
0.883763	300.7
0.931947	306.606
0.991425	324.847
1.02057	372.731
1.03285	403.663
1.04289	442.361
0.013705	192.847
0.098677	240.388
0.130745	243.293
0.173694	250.782
0.224455	255.123
0.267239	259.512
0.304707	263.934
0.32614	266.903
0.379394	268.128
0.422509	278.717
0.470281	276.874
0.5237	281.198
0.571719	284.005
0.609104	286.877
0.670416	289.602
0.723918	295.476
0.774761	301.367
0.828097	304.141
0.87927	316.231
0.927784	328.337
0.98178	343.511
1.00328	397.643
