Adsorption isotherm of Carbon Dioxide on [AcOH]75-H2P-COF
DOI: 10.1021/jacs.5b04300
Article source: Figure S5(d)
Adsorbate Carbon Dioxide: InChIKey CURLTUGMZLYLDI-UHFFFAOYSA-N
Kind: experiment
Temperature: 273 K
Tabular data in the source: 0
pressure (bar)	uptake (mg/g)
-0.162621	1.03729
1.09549	4.40998
1.82399	9.02665
2.6327	11.1728
3.80731	16.0901
4.62371	20.3966
5.52472	23.467
6.06642	25.6179
6.96633	28.3797
7.68494	30.2187
8.40685	32.9837
9.40125	37.287
11.0253	43.4309
11.2967	44.6607
10.3067	41.5919
13.1009	51.4187
14.103	57.8824
15.9061	64.3318
17.6169	69.8569
19.954	76.2968
21.3979	81.8267
23.3702	85.804
25.3447	90.3985
27.1445	95.9221
28.7576	98.9798
30.4607	102.345
32.6956	105.083
33.6845	107.843
34.758	109.367
2.83268	17.342
3.55239	19.4897
3.83258	23.1885
4.82039	25.64
5.62801	27.4775
6.34991	30.2425
7.69923	34.2308
8.32664	35.4542
9.13974	38.8348
9.68474	41.9116
10.4946	44.3663
11.1242	46.207
12.2955	50.1985
13.9151	55.1079
15.3611	61.2551
17.2433	64.9253
19.3123	71.0613
21.1957	75.0402
23.6185	80.5527
25.3282	85.7692
26.5896	90.0677
28.0269	93.7459
29.908	97.1075
31.8825	101.702
33.2373	107.233
34.2306	111.228
