Adsorption isotherm of Carbon Dioxide on [Et]100-H2P-COF
DOI: 10.1021/jacs.5b04300
Article source: Figure S5(b)
Adsorbate Carbon Dioxide: InChIKey CURLTUGMZLYLDI-UHFFFAOYSA-N
Kind: experiment
Temperature: 273 K
Tabular data in the source: 0
pressure (bar)	uptake (mg/g)
0.691816	1.6017
1.91737	2.96289
2.44092	4.02536
3.22705	5.39041
4.36418	6.90481
5.06403	7.8133
5.85123	8.87346
7.86506	10.9899
7.9524	11.1416
10.3129	14.627
10.7502	15.2329
9.08953	12.656
9.96462	13.7154
6.90102	10.2362
7.33883	10.6897
12.6724	18.4172
14.7752	20.228
15.9091	22.6571
17.8345	24.9268
19.231	27.6584
20.8086	28.864
23.0882	30.3684
23.7876	31.4293
25.9782	33.2394
28.1716	34.2872
29.3103	35.3443
31.1526	36.2427
32.4666	37.4507
33.5212	37.4414
34.2237	37.5877
0.595895	3.88913
3.66004	7.21588
4.09678	7.97424
4.61979	9.18915
5.40753	10.0969
5.93215	10.8545
6.71882	12.0671
7.15663	12.5205
7.94383	13.5807
8.64315	14.6416
9.34301	15.5501
10.3949	16.3031
12.7603	18.4164
13.5389	21.9157
15.026	23.8843
17.0398	26.0008
18.7015	28.2728
19.9271	29.634
21.8536	31.5988
23.3438	32.6528
25.4477	34.1587
27.551	35.817
29.2181	36.5646
31.0621	37.0057
32.9896	38.6656
