Adsorption isotherm of Nitrogen on [HCâ‰¡C]75-H2P-COF
DOI: 10.1021/jacs.5b04300
Article source: Figure S3(a)
Adsorbate Nitrogen: InChIKey IJGRMHOSHXDMSA-UHFFFAOYSA-N
Kind: experiment
Temperature: 77 K
Tabular data in the source: 0
pressure (bar)	uptake (cm3(STP)/g)
0.002123	42.8029
-0.000961	74.7408
0.00143	94.9049
0.011867	110.014
0.014191	135.22
0.029813	160.404
0.042865	178.87
0.050754	185.579
0.077126	202.342
0.143412	217.359
0.164577	225.727
0.18583	227.372
0.228382	227.302
0.268275	227.235
0.268275	227.235
0.300144	230.544
0.111565	212.369
0.366677	227.072
0.409117	235.405
0.457033	231.964
0.499451	241.978
0.547277	245.26
0.61124	235.07
0.675001	240.006
0.712189	243.306
0.759949	251.63
0.807641	264.996
0.844964	258.212
0.908591	273.232
0.958585	313.485
0.969044	326.913
0.98708	370.581
1.00257	405.849
0.082199	220.821
0.100726	227.513
0.119253	234.205
0.143233	230.804
0.159101	237.501
0.199061	232.392
0.220314	234.038
0.246843	239.036
0.265392	244.047
0.30258	247.347
0.350519	242.225
0.395708	243.831
0.448786	252.146
0.504614	253.734
0.560441	255.322
0.584354	256.963
0.669414	260.184
0.714581	263.47
0.770341	270.1
0.807529	273.4
0.844517	291.826
0.886935	301.84
0.955769	325.255
0.984644	353.778
0.991728	420.993
