Adsorption isotherm of Nitrogen on [Et]75-H2P-COF
DOI: 10.1021/jacs.5b04300
Article source: Figure S3(b)
Adsorbate Nitrogen: InChIKey IJGRMHOSHXDMSA-UHFFFAOYSA-N
Kind: experiment
Temperature: 77 K
Tabular data in the source: 0
pressure (bar)	uptake (cm3(STP)/g)
0.007625	28.5427
0.035345	99.6908
0.052698	125.941
0.08019	142.827
0.117988	153.449
0.171654	162.422
0.19317	166.942
0.149726	150.154
0.219591	163.679
0.243518	163.533
0.267445	163.387
0.3099	161.576
0.36573	161.235
0.432195	160.828
0.464263	163.732
0.522669	161.824
0.565289	163.114
0.61572	161.255
0.677444	171.73
0.712006	171.518
0.762519	171.209
0.813362	177.1
0.86404	179.89
0.909895	192.013
0.951422	222.766
0.99635	267.452
1.01801	324.684
1.02854	372.682
0.013911	96.7212
0.091979	164.46
0.118647	165.848
0.161184	165.587
0.193417	171.592
0.217262	169.895
0.251823	169.684
0.273092	169.554
0.307654	169.342
0.355508	169.049
0.414162	171.791
0.451547	174.663
0.496825	175.936
0.550162	178.71
0.605992	178.369
0.656423	176.51
0.69896	176.249
0.768166	177.376
0.869686	186.057
0.923683	201.231
0.98448	244.269
1.00057	296.884
1.01783	371.197
