Adsorption isotherm of Carbon Dioxide on [EtOH]75-H2P-COF
DOI: 10.1021/jacs.5b04300
Article source: Figure S5(e)
Adsorbate Carbon Dioxide: InChIKey CURLTUGMZLYLDI-UHFFFAOYSA-N
Kind: experiment
Temperature: 273 K
Tabular data in the source: 0
pressure (bar)	uptake (mg/g)
0.602955	3.95339
1.03364	5.03368
1.72273	7.54785
2.32569	10.4174
3.10091	13.6476
4.22069	17.5993
5.25432	22.2634
6.11569	25.8525
7.58001	32.3112
7.23546	27.3041
8.69978	33.0486
9.47501	35.9217
10.4225	38.7983
10.9393	41.6661
11.7146	44.8963
12.6621	46.3444
14.5571	52.4548
16.2798	58.9188
17.7441	64.6632
19.6391	71.4879
21.1034	75.4466
22.9123	81.1982
24.2905	85.8694
26.9607	94.1386
28.425	99.5259
29.8894	103.485
31.4398	110.302
33.1625	116.766
33.7655	118.564
3.87614	25.4493
4.4791	28.3189
5.34046	32.6223
5.94342	35.4918
6.71865	39.4364
7.40774	43.3791
7.92456	46.604
8.69978	49.4771
9.56115	52.352
10.6809	55.9465
12.3175	59.5516
14.0402	67.087
15.3323	71.3993
17.3134	75.7258
18.8639	81.472
21.3618	87.952
22.8262	92.2678
24.635	95.8765
26.0132	99.4762
27.8221	103.442
29.2864	105.972
31.0953	110.652
32.818	113.902
34.11	116.786
