Adsorption isotherm of Nitrogen on [HCâ‰¡C]100-H2P-COF
DOI: 10.1021/jacs.5b04300
Article source: Figure S3(a)
Adsorbate Nitrogen: InChIKey IJGRMHOSHXDMSA-UHFFFAOYSA-N
Kind: experiment
Temperature: 77 K
Tabular data in the source: 0
pressure (bar)	uptake (cm3(STP)/g)
0.005129	16.7475
0.020337	73.0248
0.041278	98.2002
0.057124	106.577
0.06508	108.245
0.088904	116.609
0.123455	118.232
0.15005	118.188
0.184601	119.811
0.213833	121.443
0.243066	123.076
0.264319	124.721
0.293529	128.034
0.325421	129.662
0.354675	129.613
0.410324	144.647
0.463492	146.239
0.514	147.836
0.575102	152.777
0.614905	159.434
0.649411	164.418
0.702423	177.776
0.750272	179.377
0.81401	185.994
0.853814	192.651
0.912189	202.638
0.954495	221.055
0.988845	237.805
0.999215	257.956
0.093999	133.407
0.128461	141.753
0.157715	141.705
0.18963	141.652
0.213543	143.293
0.240138	143.248
0.274711	143.191
0.311945	143.129
0.359704	151.454
0.407553	153.055
0.455402	154.656
0.49259	157.956
0.558876	172.972
0.59611	172.91
0.649233	177.864
0.694444	177.789
0.755501	186.091
0.811194	197.763
0.864183	212.802
0.914647	217.76
0.948997	234.51
0.972799	244.554
