Adsorption isotherm of Nitrogen on [EtOH]50-H2P-COF
DOI: 10.1021/jacs.5b04300
Article source: Figure S3(h)
Adsorbate Nitrogen: InChIKey IJGRMHOSHXDMSA-UHFFFAOYSA-N
Kind: experiment
Temperature: 77 K
Tabular data in the source: 0
pressure (bar)	uptake (cm3(STP)/g)
-0.002771	76.3975
-0.003275	102.87
0.000684	123.446
0.009428	142.539
0.017848	157.22
0.026808	179.253
0.035337	195.405
0.051314	213.005
0.066859	224.725
0.0923	237.886
0.117525	248.107
0.152322	255.359
0.167112	256.787
0.19903	258.165
0.23084	258.072
0.262866	260.921
0.294677	260.828
0.314252	260.771
0.328934	260.729
0.378304	266.468
0.432569	272.193
0.481616	273.521
0.530771	276.319
0.577694	282.065
0.62451	286.341
0.67622	290.603
0.730052	290.447
0.786656	294.694
0.845922	301.875
0.889751	298.807
0.931889	306.037
0.969565	319.163
0.99587	344.087
1.01717	367.555
1.0239	392.535
0.116482	267.228
0.129148	273.073
0.156172	274.466
0.170854	274.423
0.225227	281.618
0.197986	277.285
0.249696	281.547
0.283845	279.977
0.315871	282.825
0.367473	285.617
0.426416	288.387
0.465675	289.744
0.527604	299.858
0.558263	317.416
0.621883	317.231
0.658695	318.595
0.710513	324.327
0.77201	328.56
0.808822	329.924
0.860856	338.596
0.937251	345.728
0.992379	363.215
1.0108	380.808
