Adsorption isotherm of Nitrogen on [Et]100-H2P-COF
DOI: 10.1021/jacs.5b04300
Article source: Figure S3(b)
Adsorbate Nitrogen: InChIKey IJGRMHOSHXDMSA-UHFFFAOYSA-N
Kind: experiment
Temperature: 77 K
Tabular data in the source: 0
pressure (bar)	uptake (cm3(STP)/g)
0.009295	9.92779
0.057314	12.7347
0.07883	17.2541
0.105416	17.0914
0.113392	17.0426
0.134825	20.0122
0.164235	22.933
0.177527	22.8516
0.193479	22.754
0.222806	24.1249
0.230782	24.0761
0.262602	22.3309
0.281212	22.217
0.294505	22.1357
0.355405	17.1118
0.427352	19.7722
0.472713	22.5953
0.510015	23.9174
0.544742	26.8057
0.606054	29.5312
0.666954	24.5073
0.712562	31.9801
0.755264	34.8195
0.813918	37.5613
0.853879	38.8671
0.923167	41.5438
0.9608	49.0654
0.980811	75.2995
0.994764	87.6172
0.996577	121.715
0.014942	16.0948
0.10317	24.8571
0.172458	27.5338
0.193809	28.9535
0.260273	28.5467
0.2842	28.4003
0.342854	31.1421
0.398684	30.8004
0.443963	32.0736
0.497299	34.848
0.531778	33.0865
0.608795	31.0648
0.65939	32.3055
0.702175	36.6948
0.771628	42.4713
0.80619	42.2597
0.859361	41.9343
0.904969	49.4071
0.955812	55.2975
0.999339	73.6357
1.0142	103.002
