Adsorption isotherm of Nitrogen on [MeOAc]75-H2P-COF
DOI: 10.1021/jacs.5b04300
Article source: Figure S3(c)
Adsorbate Nitrogen: InChIKey IJGRMHOSHXDMSA-UHFFFAOYSA-N
Kind: experiment
Temperature: 77 K
Tabular data in the source: 0
pressure (bar)	uptake (cm3(STP)/g)
0.004439	61.9564
0.004182	81.0036
0.038535	138.2
0.095147	147.813
0.108592	152.596
0.130122	158.979
0.170587	163.804
0.192202	163.838
0.21652	163.876
0.248943	163.927
0.284133	159.22
0.30577	157.667
0.365127	164.109
0.413805	161.01
0.462397	164.261
0.511053	162.75
0.565006	169.184
0.616386	166.09
0.681168	170.953
0.724378	172.608
0.770247	177.442
0.824286	177.526
0.851241	182.331
0.897088	188.752
0.940147	201.517
0.966974	215.845
0.014325	130.226
0.097527	171.626
0.135226	181.209
0.148736	181.23
0.189179	187.643
0.199987	187.66
0.229687	189.293
0.254004	189.331
0.297278	186.225
0.305384	186.237
0.351253	191.071
0.394462	192.726
0.448458	195.985
0.486285	196.045
0.54041	189.78
0.60249	194.639
0.659231	194.728
0.699739	196.379
0.745672	196.451
0.786158	199.689
0.829389	199.757
0.90232	201.458
0.94553	203.113
0.980376	223.803
