Adsorption isotherm of Carbon Dioxide on [EtNH2]100-H2P-COF
DOI: 10.1021/jacs.5b04300
Article source: Figure S5(f)
Adsorbate Carbon Dioxide: InChIKey CURLTUGMZLYLDI-UHFFFAOYSA-N
Kind: experiment
Temperature: 273 K
Tabular data in the source: 0
pressure (bar)	uptake (mg/g)
0.603321	-0.23275
1.46478	6.5652
1.99009	8.26089
2.5904	13.7854
3.37385	17.6056
4.16182	20.1492
5.03534	23.5427
5.90885	26.9363
6.78086	30.7554
8.18572	34.1424
9.05923	37.5359
10.6397	41.3463
10.1204	37.9485
12.3913	46.8568
13.8771	52.3705
15.8944	57.8777
17.3712	65.9447
19.2984	71.8785
20.6177	74.4155
22.2822	79.5015
23.6885	82.463
25.7088	87.1191
27.3763	91.3539
29.0468	94.7377
30.7234	96.4193
31.7785	98.534
33.3666	100.217
0.582218	5.72496
3.63651	18.4535
4.86124	22.6938
5.6477	25.6629
6.3441	29.0586
6.8664	31.6054
7.30467	32.8766
8.09415	34.9946
8.79809	36.2625
10.1159	39.2251
10.9024	42.1942
11.9409	48.99
13.5108	55.7792
15.441	60.862
16.8368	66.8023
18.3318	69.7627
19.8207	74.4253
22.0135	80.3559
23.9467	84.5875
25.7043	88.3957
26.6724	90.086
28.2604	91.7686
30.2776	97.2758
31.9542	98.9574
