Adsorption isotherm of Carbon Dioxide on [EtOH]25-H2P-COF
DOI: 10.1021/jacs.5b04300
Article source: Figure S5(e)
Adsorbate Carbon Dioxide: InChIKey CURLTUGMZLYLDI-UHFFFAOYSA-N
Kind: experiment
Temperature: 273 K
Tabular data in the source: 0
pressure (bar)	uptake (mg/g)
2.06728	5.76923
2.92864	9.71553
3.5316	12.5851
4.39296	15.4599
4.99592	17.9723
5.77114	20.1312
6.71865	23.0078
7.23546	24.0899
8.09683	26.6076
9.13047	29.486
9.64729	31.2823
10.6809	35.9465
11.1116	37.0268
13.0066	44.2086
15.16	50.6815
16.0214	53.1992
18.0025	58.24
19.8975	62.2076
21.3618	65.8091
23.343	67.9927
24.5489	73.0175
26.9607	79.8529
28.9419	82.3937
30.32	85.6363
31.5259	89.2325
33.5071	92.4876
34.7991	95.3713
5.34046	18.3366
6.71865	27.2935
7.58001	30.8827
8.2691	33.754
8.87206	36.6235
9.99183	38.7894
10.8532	40.5929
12.1452	43.8337
14.1264	50.3031
15.5046	55.6886
17.658	58.59
18.6055	62.5381
20.5866	69.3646
22.9984	72.9856
23.9459	75.148
25.9271	80.5459
27.9082	84.1581
29.3725	88.8311
30.6646	91.3577
32.5596	93.8967
34.1962	95.3589
