Adsorption isotherm of Carbon Dioxide on [EtOH]100-H2P-COF
DOI: 10.1021/jacs.5b04300
Article source: Figure S6(e)
Adsorbate Carbon Dioxide: InChIKey CURLTUGMZLYLDI-UHFFFAOYSA-N
Kind: experiment
Temperature: 298 K
Tabular data in the source: 0
pressure (bar)	uptake (mg/g)
0.665497	0.510903
1.6344	1.39567
2.44159	2.10321
5.02486	4.40305
8.5613	5.62351
9.6905	6.50693
11.6226	7.56222
12.7518	8.44564
14.0384	8.9706
15.3293	10.0312
16.7805	11.0906
18.07	11.9726
19.0361	12.5003
20.4873	13.5596
22.7486	15.6835
25.9658	17.0852
29.5137	19.7342
32.5793	22.2086
36.1215	24.1432
38.7047	26.4431
41.9277	28.559
45.9479	30.1326
48.5226	31.3611
52.0705	34.01
54.8169	36.6656
58.0499	40.0315
59.9849	41.4439
63.0677	46.061
0.217539	4.62179
5.04776	7.26
7.31761	10.4553
9.09369	12.0476
10.7052	13.1056
12.8062	15.2309
14.2574	16.2902
15.7086	17.3495
17.8053	18.9391
18.7727	19.6453
22.9647	22.646
24.579	24.0611
28.4446	26.3502
31.6605	27.5734
35.2026	29.5081
37.3022	31.4548
40.8443	33.3895
44.7057	35.143
48.2464	36.8991
51.3105	39.1949
55.3422	42.197
58.7083	42.1688
60.0021	43.5866
61.293	44.6472
