Adsorption isotherm of Ni(II) on polymerized apple pomace
DOI: 10.1007/s11356-017-8658-5
Article source: Figure 9
Adsorbate Ni(II): InChIKey VEQPNABPJHWNSG-UHFFFAOYSA-N
Kind: experiment
Temperature: 298 K
Tabular data in the source: 0
pressure (bar)	uptake (mg/g)
1.01325	1.825
1.01325	3.199
1.01325	5.049
1.01325	7.873
1.01325	9.598
1.01325	10.697
1.01325	14.046
1.01325	14.171
1.01325	15.371
1.01325	19.545
