Adsorption isotherm of Cadmium(II) Ion on polymerized apple pomace
DOI: 10.1007/s11356-017-8658-5
Article source: Figure 9
Adsorbate Cadmium(II) Ion: InChIKey WLZRMCYVCSSEQC-UHFFFAOYSA-N
Kind: experiment
Temperature: 298 K
Tabular data in the source: 0
pressure (bar)	uptake (mg/g)
1.01325	1.562
1.01325	2.645
1.01325	7.583
1.01325	9.397
1.01325	11.336
1.01325	14.107
1.01325	15.391
1.01325	16.85
1.01325	20.626
1.01325	23.347
1.01325	23.894
1.01325	28.3
1.01325	36.662
