Adsorption isotherm of Lead(II) Ion on polymerized apple pomace
DOI: 10.1007/s11356-017-8658-5
Article source: Figure 9
Adsorbate Lead(II) Ion: InChIKey RVPVRDXYQKGNMQ-UHFFFAOYSA-N
Kind: experiment
Temperature: 298 K
Tabular data in the source: 0
pressure (bar)	uptake (mg/g)
1.01325	0.857
1.01325	2.242
1.01325	7.079
1.01325	13.327
1.01325	21.491
1.01325	28.443
1.01325	32.875
1.01325	48.092
1.01325	50.006
1.01325	72.68
1.01325	70.412
1.01325	78.36
