Adsorption isotherm of Methane on Activated Carbon
DOI: 10.1007/s10450-017-9885-2
Article source: Figure 17
Adsorbate Methane: InChIKey VNWKTOKETHGBQD-UHFFFAOYSA-N
Kind: experiment
Temperature: 273 K
Tabular data in the source: 0
pressure (bar)	uptake (mmol/g)
0.3166	0.06908
0.8142	0.22259
1.0856	0.31469
1.357	0.41447
1.5832	0.51425
2.0355	0.65241
2.5388	0.8136
3.0816	0.9364
4.0315	1.16667
5.0719	1.35855
6.067	1.59649
