Adsorption isotherm of Carbon Dioxide on Activated Carbon
DOI: 10.1007/s10450-017-9885-2
Article source: Figure 17
Adsorbate Carbon Dioxide: InChIKey CURLTUGMZLYLDI-UHFFFAOYSA-N
Kind: experiment
Temperature: 273 K
Tabular data in the source: 0
pressure (bar)	uptake (mmol/g)
0.3619	0.79825
0.588	1.18969
0.8595	1.58882
1.0856	1.92654
1.3118	2.27961
1.538	2.57127
2.0355	3.1239
2.5331	3.63048
3.0363	4.06798
4.0315	4.82785
4.9871	5.48794
5.9822	6.13268
