Adsorption isotherm of Methane on Activated Carbon
DOI: 10.1007/s10450-017-9885-2
Article source: Figure 17
Adsorbate Methane: InChIKey VNWKTOKETHGBQD-UHFFFAOYSA-N
Kind: experiment
Temperature: 293 K
Tabular data in the source: 0
pressure (bar)	uptake (mmol/g)
0.8219	0.2123
1.0926	0.3041
1.3647	0.4074
1.5891	0.4973
2.0393	0.6427
2.5442	0.809
3.087	0.9258
4.0351	1.1611
5.0785	1.3582
6.0715	1.5878
