Adsorption isotherm of Carbon Dioxide on Activated Carbon
DOI: 10.1007/s10450-017-9885-2
Article source: Figure 17
Adsorbate Carbon Dioxide: InChIKey CURLTUGMZLYLDI-UHFFFAOYSA-N
Kind: experiment
Temperature: 293 K
Tabular data in the source: 0
pressure (bar)	uptake (mmol/g)
0.3675	0.7836
0.5891	1.1888
0.8654	1.5883
1.094	1.9189
1.317	2.2745
1.5456	2.5631
2.0463	3.125
2.5442	3.624
3.0365	4.0732
4.0351	4.8302
4.9874	5.4955
5.9804	6.1379
