Adsorption isotherm of Carbon Dioxide on CuII {[Mg3(ndc)2.5(HCO2)2(H2O)][NH2Me2]2H2ODMF}
DOI: 10.1039/C4cc05991c
Adsorbate Carbon Dioxide: InChIKey CURLTUGMZLYLDI-UHFFFAOYSA-N
Temperature: 195 K
Tabular data in the source: 0
pressure (bar)	uptake (ml/g)
0.0285307	2.32598
0.0328103	6.43129
0.0584879	10.2939
0.0955777	14.6767
0.171184	20.879
0.221113	23.0905
0.276748	24.6646
0.318117	25.5885
0.380884	26.5262
0.425107	27.0674
0.457917	27.0884
0.53067	28.0325
0.569187	28.4418
0.611983	28.4692
0.661912	29.1423
0.723252	30.2072
0.75321	30.0982
0.801712	30.3857
0.875892	30.6897
0.911555	30.8407
0.96291	31.7711
