Adsorption isotherm of Carbon Dioxide on {[Mg3(ndc)2.5(HCO2)2(H2O)][NH2Me2]2H2ODMF}
DOI: 10.1039/C4cc05991c
Adsorbate Carbon Dioxide: InChIKey CURLTUGMZLYLDI-UHFFFAOYSA-N
Temperature: 195 K
Tabular data in the source: 0
pressure (bar)	uptake (ml/g)
0.000343495	0.882353
0.00635466	8.82353
0.0127216	21.4286
0.027038	24.4538
0.0270502	28.2353
0.0448261	32.6471
0.0644912	34.4118
0.098718	39.8319
0.119696	41.2185
0.172508	45.6303
0.208035	46.8908
0.267215	48.9076
0.324738	50.4202
0.371944	51.6807
0.42932	52.8151
0.479298	53.6975
0.527768	54.4538
0.5703	54.958
0.628989	55.7143
0.680231	56.0924
0.730111	56.7227
0.765442	57.479
0.884181	58.7395
