Adsorption isotherm of Nitrogen on Zn4O(dmcapz)3
DOI: 10.1021/Ja2042113
Adsorbate Nitrogen: InChIKey IJGRMHOSHXDMSA-UHFFFAOYSA-N
Temperature: 77 K
Tabular data in the source: 0
pressure (bar)	uptake (mmol/g)
0.00388608	4.22086
0.00582912	6.42945
0.00777216	2.01227
0.0097152	9.22699
0.0174874	10.1595
0.0369178	10.4049
0.0680064	10.6012
0.0893798	10.6994
0.104924	10.7485
0.128241	10.7975
0.145728	10.7975
0.165158	10.9448
0.182646	10.9448
0.204019	10.9939
0.246766	11.092
0.299228	11.1902
0.347804	11.3374
0.39638	11.4356
0.44107	11.4847
0.491589	11.5337
0.542108	11.6319
0.588741	11.6319
0.63926	11.681
0.689779	11.8282
0.736412	11.8773
0.784988	12.0245
0.831621	12.1718
0.887969	12.4172
0.911286	12.6135
0.930716	12.8589
0.940431	13.2025
0.95209	13.6442
