Adsorption isotherm of Water on Zn4O(dmcapz)3
DOI: 10.1021/Ja2042113
Adsorbate Water: InChIKey XLYOFNOQVPJJNP-UHFFFAOYSA-N
Temperature: 298 K
Tabular data in the source: 0
pressure (bar)	uptake (mmol/g)
0.00163368	0
0.00320412	0.2
0.00502651	0.1
0.00678565	0.2
0.00980189	0.1
0.0112473	0
0.0141994	0.5
0.014514	0.3
0.0152676	0.5
0.0158957	0.6
0.0163984	0.6
0.0169639	0.6
0.0180321	0.6
0.0185974	0.7
0.0191625	0.9
0.0197908	0.9
0.0202929	1.2
0.0207955	1.2
0.0213602	1.6
0.0218618	2.1
0.0223641	2.3
0.0228025	3
0.0232408	3.7
0.0237427	4.1
0.0240554	4.8
0.0244309	5.5
0.0249931	7.1
0.0253051	8.1
0.0254915	9.1
0.0256782	10
0.0258646	11
0.0260512	11.9
0.0262376	12.9
0.0264242	13.8
0.0269855	15.8
0.0274239	16.5
0.0278625	17.1
0.028113	17.5
0.0286148	17.9
0.0291169	18.2
0.029807	18.7
0.0300554	20.1
0.030179	21.1
0.0303612	24.1
