Adsorption isotherm of Nitrogen on Zn3(OH)2(dmcapz)2
DOI: 10.1021/Ja2042113
Adsorbate Nitrogen: InChIKey IJGRMHOSHXDMSA-UHFFFAOYSA-N
Temperature: 77 K
Tabular data in the source: 0
pressure (bar)	uptake (mmol/g)
0.0304961	0.136564
0.0631706	0.138825
0.0762404	0.139729
0.095845	0.0738591
0.113271	0.209519
0.132876	0.210875
0.152481	0.212232
0.169907	0.213438
0.189512	0.214794
0.241791	0.218412
0.287535	0.221577
0.337636	0.225044
0.38338	0.160983
0.431303	0.298753
0.483582	0.369597
0.529326	0.305536
0.579427	0.309003
0.629528	0.379696
0.673093	0.382711
0.725373	0.453555
0.773295	0.389645
0.819039	0.39281
0.86914	0.530731
0.897458	0.599917
0.917063	0.601274
0.930132	0.736632
0.941024	0.871839
