Adsorption isotherm of Carbon Dioxide on Zn4O(dmcapz)3
DOI: 10.1021/Ja2042113
Adsorbate Carbon Dioxide: InChIKey CURLTUGMZLYLDI-UHFFFAOYSA-N
Temperature: 195 K
Tabular data in the source: 0
pressure (bar)	uptake (mmol/g)
0.0101456	1.86503
0.0142038	3.92638
0.0263785	6.18405
0.0344949	6.72393
0.0649316	7.70552
0.0852228	7.95092
0.105514	8.14724
0.129863	8.39264
0.150154	8.4908
0.174504	8.53988
0.198853	8.78528
0.217115	8.78528
0.255668	8.93252
0.308425	9.17791
0.363211	9.27607
0.407852	9.32515
0.476842	9.52147
0.513366	9.61963
0.564093	9.66871
0.614821	9.76687
0.665549	9.86503
0.716277	9.91411
0.767005	10.0123
0.819762	10.1595
0.872519	10.1104
0.929334	10.2086
0.990207	10.2577
