Adsorption isotherm of Nitrogen on CuBTC
DOI: 10.1021/Ja2042113
Adsorbate Nitrogen: InChIKey IJGRMHOSHXDMSA-UHFFFAOYSA-N
Temperature: 77 K
Tabular data in the source: 0
pressure (bar)	uptake (mmol/g)
0.000794572	12.8682
0.00265145	16.2016
0.031567	16.6667
0.0515954	16.8992
0.0916435	17.4419
0.118357	17.6744
0.154	17.7519
0.203005	17.907
0.22305	17.9845
0.243105	17.9845
0.265378	18.062
0.28767	17.9845
0.31662	18.1395
0.347815	18.1395
0.370098	18.1395
0.396828	18.2171
0.419111	18.2171
0.44585	18.2171
0.468124	18.2946
0.48817	18.3721
0.510461	18.2946
0.541656	18.2946
0.56393	18.3721
0.590669	18.3721
0.612952	18.3721
0.688704	18.4496
0.710987	18.4496
0.737726	18.4496
0.760008	18.4496
0.786739	18.5271
0.809021	18.5271
0.831295	18.6047
0.858043	18.5271
0.902608	18.5271
0.933812	18.4496
