Adsorption isotherm of Nitrogen on CuBTC
DOI: 10.1021/Ja2042113
Adsorbate Nitrogen: InChIKey IJGRMHOSHXDMSA-UHFFFAOYSA-N
Temperature: 77 K
Tabular data in the source: 0
pressure (bar)	uptake (mmol/g)
0.00865393	2.32558
0.0309365	2.32558
0.0643517	2.4031
0.0821691	2.48062
0.0999952	2.48062
0.117821	2.48062
0.135647	2.48062
0.193573	2.55814
0.240367	2.55814
0.289397	2.48062
0.338419	2.48062
0.485484	2.48062
0.534505	2.48062
0.579062	2.55814
0.650366	2.55814
0.699388	2.55814
0.748418	2.48062
0.777385	2.48062
0.826407	2.48062
0.8732	2.48062
0.935574	2.63566
