Adsorption isotherm of Water on Zn4O(dmcapz)3
DOI: 10.1021/Ja2042113
Adsorbate Water: InChIKey XLYOFNOQVPJJNP-UHFFFAOYSA-N
Temperature: 298 K
Tabular data in the source: 0
pressure (bar)	uptake (mmol/g)
0.00144518	0
0.00301582	0.1
0.00464951	0.1
0.00659736	0.1
0.00791667	0.2
0.00973906	0.1
0.0113097	0.2
0.0128177	0.2
0.0159592	0.3
0.0174042	0.4
0.0189122	0.4
0.0203572	0.5
0.0221779	1.2
0.0234323	2.3
0.024371	4.1
0.025121	6
0.0261163	10.8
0.0267394	13.3
0.0273638	15.2
0.0281787	16.1
0.0298734	17
0.0301831	19.1
0.0304284	22
