Adsorption isotherm of Nitrogen on Zn4O(dmcapz)3
DOI: 10.1021/Ja2042113
Adsorbate Nitrogen: InChIKey IJGRMHOSHXDMSA-UHFFFAOYSA-N
Temperature: 77 K
Tabular data in the source: 0
pressure (bar)	uptake (mmol/g)
0.000945447	9.10222
0.00739788	10.0267
0.0292796	10.3822
0.0621461	10.5956
0.079671	10.7378
0.0950126	10.8089
0.119126	10.88
0.136661	10.9511
0.156398	10.9511
0.176126	11.0222
0.191477	11.0222
0.239705	11.1644
0.290135	11.2356
0.338382	11.2356
0.38662	11.3067
0.432674	11.3067
0.483094	11.4489
0.531341	11.4489
0.581772	11.52
0.630028	11.4489
0.678256	11.5911
0.7243	11.6622
0.772547	11.6622
0.818582	11.8044
0.873388	11.9467
0.89528	12.2311
0.914988	12.4444
0.923721	12.7289
0.930252	13.0844
