Adsorption isotherm of Nitrogen on Zn4O(dmcapz)3
DOI: 10.1021/Ja2042113
Adsorbate Nitrogen: InChIKey IJGRMHOSHXDMSA-UHFFFAOYSA-N
Temperature: 77 K
Tabular data in the source: 0
pressure (bar)	uptake (mmol/g)
0.00321647	8.53333
0.00758307	8.67556
0.0272913	8.88889
0.0513758	9.17333
0.0820785	9.17333
0.0952172	9.31556
0.114945	9.38667
0.134682	9.38667
0.1544	9.52889
0.171945	9.52889
0.191682	9.52889
0.292553	9.6
0.336404	9.67111
0.386844	9.67111
0.437274	9.74222
0.478932	9.81333
0.529372	9.81333
0.575426	9.81333
0.62804	9.95556
0.676287	9.95556
0.722341	9.95556
0.772771	10.0267
0.818806	10.1689
0.8714	10.4533
0.891118	10.5956
0.915212	10.8089
0.928332	11.0933
0.937055	11.4489
