Adsorption isotherm of Nitrogen on Cr-MIL(101)
DOI: 10.1021/Ja2042113
Adsorbate Nitrogen: InChIKey IJGRMHOSHXDMSA-UHFFFAOYSA-N
Temperature: 77 K
Tabular data in the source: 0
pressure (bar)	uptake (mmol/g)
0.00628138	16.1654
0.010469	17.6692
0.0188441	19.9248
0.0293131	21.8045
0.0460634	24.0602
0.0544386	25.188
0.0816579	27.6316
0.0942207	29.1353
0.108877	30.4511
0.129815	34.3985
0.144472	35.5263
0.161222	36.4662
0.180066	37.218
0.19891	37.9699
0.221942	41.1654
0.238692	42.2932
0.25963	42.6692
0.278474	42.8571
0.299412	43.0451
0.32035	43.0451
0.353851	43.0451
0.374789	43.2331
0.399914	43.2331
0.420852	43.4211
0.450166	43.609
0.471103	43.609
0.498323	43.797
0.519261	43.797
0.54648	43.985
0.567418	43.985
0.594637	43.985
0.615575	43.985
0.634419	43.797
0.642794	44.1729
0.663732	44.1729
0.690952	44.1729
0.71189	44.1729
0.739109	44.3609
0.760047	44.3609
0.778891	44.7368
0.795641	44.3609
0.816579	44.5489
0.887768	44.5489
0.906612	44.9248
0.933832	44.7368
