Adsorption isotherm of Nitrogen on Cr-MIL(101)
DOI: 10.1021/Ja2042113
Adsorbate Nitrogen: InChIKey IJGRMHOSHXDMSA-UHFFFAOYSA-N
Temperature: 77 K
Tabular data in the source: 0
pressure (bar)	uptake (mmol/g)
0.00418759	1.8797
0.00837517	2.25564
0.0628138	2.63158
0.0816579	3.00752
0.100502	3.00752
0.13819	3.19549
0.161222	3.19549
0.184254	3.38346
0.201004	3.38346
0.219848	3.57143
0.240786	3.57143
0.25963	3.57143
0.280568	3.57143
0.301506	3.38346
0.328726	3.57143
0.349663	3.38346
0.368508	3.7594
0.387352	3.57143
0.40829	3.7594
0.429228	3.7594
0.448072	3.57143
0.46901	3.7594
0.483666	3.57143
0.50251	3.7594
0.523448	3.7594
0.544386	3.7594
0.56323	3.7594
0.584168	3.7594
0.592543	3.7594
0.613481	3.7594
0.640701	3.7594
0.661639	3.7594
0.688858	3.7594
0.709796	3.7594
0.730734	3.7594
0.749578	3.7594
0.770516	3.7594
0.787266	3.7594
0.808204	3.7594
0.854268	3.7594
0.875206	3.7594
0.919175	3.94737
0.938019	4.13534
