Adsorption isotherm of Argon on C12H12O4Zn
DOI: 10.1021/Ja057667b
Adsorbate Argon: InChIKey XKRFYHLGVUSROY-UHFFFAOYSA-N
Temperature: 87 K
Tabular data in the source: 0
pressure (bar)	uptake (cm3(STP)/g)
0.00184927	0.0420244
0.0040631	0.0699471
0.0040631	0.0778127
0.0040631	0.0844984
0.0040631	0.0927572
0.00849074	0.0475303
0.017346	0.0962967
0.030629	0.0982631
0.0571949	0.100229
0.101471	0.103376
0.151517	0.104477
0.202308	0.105496
0.25064	0.107824
0.303888	0.108989
0.350583	0.110589
0.408746	0.112336
0.45544	0.114082
0.512784	0.114519
0.55784	0.117138
0.610269	0.117429
0.661059	0.118885
0.768375	0.123541
0.811792	0.12718
0.868317	0.129799
0.918288	0.134893
0.968259	0.141732
1.0043	0.165453
