Adsorption isotherm of Water on C12H12O4Zn
DOI: 10.1021/Ja057667b
Adsorbate Water: InChIKey XLYOFNOQVPJJNP-UHFFFAOYSA-N
Temperature: 303 K
Tabular data in the source: 0
pressure (bar)	uptake (mmol/g)
0.000272	0.011781
0.00134392	0.00692982
0.0025557	0.0311856
0.00362766	0.0360367
0.00451319	0.0360367
0.00567836	0.0263344
0.00693674	0.0311856
0.00791628	0.0213264
0.00912895	0.00943581
0.00970893	0.0240704
0.0127494	0.0149238
0.0128021	0.0249851
0.0149814	0.0176678
0.0162644	0.0194971
0.0171959	0.0332171
0.0174771	0.0222411
0.0181449	0.0213264
0.0198497	0.0268144
0.0200606	0.0121798
