Adsorption isotherm of Methanol on C12H12O4Zn
DOI: 10.1021/Ja057667b
Adsorbate Methanol: InChIKey OKKJLVBELUTLKV-UHFFFAOYSA-N
Temperature: 298 K
Tabular data in the source: 0
pressure (bar)	uptake (mmol/g)
0.0113124	0.03156
0.0252945	0.03156
0.040733	0.0642902
0.045685	0.0806553
0.0494718	0.0970205
0.052676	0.121568
0.0564628	0.154298
0.0587931	0.178846
0.0625799	0.219759
0.0660754	0.268854
0.0669493	0.358862
0.0701535	0.522514
0.0719013	0.792538
0.0733578	1.24258
0.0739403	1.52079
0.0759794	1.94628
0.0771446	2.19994
0.0783097	2.67453
0.0794749	2.92819
0.0812227	3.13275
0.083553	3.20639
0.0876311	3.23094
0.0922918	3.28004
0.0969525	3.30459
0.101904	3.3455
0.105691	3.36186
0.110352	3.37823
0.113265	3.37823
0.116469	3.41096
0.120547	3.41096
