Adsorption isotherm of Hydrogen on C12H12O4Zn
DOI: 10.1021/Ja057667b
Adsorbate Hydrogen: InChIKey UFHFLCQGNIYNRP-UHFFFAOYSA-N
Temperature: 77 K
Tabular data in the source: 0
pressure (bar)	uptake (wt%)
0.00627692	0.00324581
0.0107046	0.0294643
0.0284152	0.069666
0.0527672	0.14133
0.0771193	0.204254
0.101471	0.261935
0.128037	0.305632
0.152389	0.344086
0.181169	0.377296
0.203307	0.408758
0.229873	0.440221
0.256439	0.462943
0.276363	0.487414
0.307357	0.508389
0.327281	0.522372
0.353847	0.534607
0.382627	0.546842
0.402551	0.564321
0.433545	0.5818
0.457897	0.592288
0.484463	0.599279
0.508815	0.611515
0.535381	0.622002
0.586299	0.635985
0.637217	0.651716
0.66248	0.660992
0.692328	0.669721
0.716096	0.67583
0.744286	0.681504
0.792375	0.694596
0.841017	0.70507
0.895739	0.714671
0.947144	0.724272
0.996892	0.732564
1.01624	0.736492
