Adsorption isotherm of Hydrogen on C12H12O4Zn
DOI: 10.1021/Ja057667b
Adsorbate Hydrogen: InChIKey UFHFLCQGNIYNRP-UHFFFAOYSA-N
Temperature: 87 K
Tabular data in the source: 0
pressure (bar)	uptake (wt%)
0.013091	0.00755341
0.052267	0.0487947
0.0795992	0.069465
0.103469	0.0941444
0.13018	0.114337
0.156892	0.135875
0.208041	0.176259
0.260327	0.214849
0.305225	0.244913
0.358079	0.278566
0.409797	0.306835
0.458673	0.334656
0.513232	0.357989
0.558698	0.380425
0.613257	0.399719
0.660997	0.419912
0.712714	0.43786
0.766705	0.454014
0.816718	0.467924
0.867867	0.482283
0.920153	0.495745
0.969029	0.505168
1.02018	0.518629
