Adsorption isotherm of Methanol on C12H12O4Zn
DOI: 10.1021/Ja057667b
Adsorbate Methanol: InChIKey OKKJLVBELUTLKV-UHFFFAOYSA-N
Temperature: 303 K
Tabular data in the source: 0
pressure (bar)	uptake (mmol/g)
0.0156818	0.03156
0.0369462	0.03156
0.0544237	0.0724728
0.0617061	0.0888379
0.0640364	0.0970205
0.0669627	0.0994047
0.0692189	0.109263
0.072227	0.123347
0.0759371	0.126164
0.0790957	0.162781
0.0818532	0.176864
0.0834576	0.212073
0.0877192	0.245874
0.0898751	0.290942
0.0943372	0.364176
0.0958413	0.510645
0.0968942	0.635989
0.0986991	0.914844
0.100253	1.17117
0.101908	1.42749
0.10276	1.58663
0.104014	1.77817
0.105066	2.08378
0.105718	2.30067
0.10647	2.54572
0.107623	2.82035
0.108225	2.93302
0.109529	3.04287
0.110281	3.07808
0.112938	3.0978
0.115695	3.12174
0.11755	3.13583
0.119656	3.15836
0.12116	3.17244
