Adsorption isotherm of Nitrogen on C12H12O4Zn
DOI: 10.1021/Ja057667b
Adsorbate Nitrogen: InChIKey IJGRMHOSHXDMSA-UHFFFAOYSA-N
Temperature: 77 K
Tabular data in the source: 0
pressure (bar)	uptake (cm3(STP)/g)
5.65e-05	0.0869978
5.65e-05	0.0919093
0.0018997	0.0984581
0.0092725	0.103042
0.0313909	0.105989
0.0516661	0.106644
0.101432	0.108936
0.151199	0.109918
0.206495	0.110901
0.304184	0.112865
0.407404	0.115157
0.512466	0.117777
0.611999	0.119741
0.707845	0.121379
0.812907	0.123016
0.91797	0.126945
0.971423	0.131529
1.01197	0.146591
