Adsorption isotherm of Ethanol on C12H12O4Zn
DOI: 10.1021/Ja057667b
Adsorbate Ethanol: InChIKey LFQSCWFLJHTTHZ-UHFFFAOYSA-N
Temperature: 373 K
Tabular data in the source: 0
pressure (bar)	uptake (mmol/g)
0.0329195	0.0243906
0.197209	0.159083
0.363245	0.250142
0.524039	0.265318
0.683085	0.308951
