Adsorption isotherm of Methanol on C12H12O4Zn
DOI: 10.1021/Ja057667b
Adsorbate Methanol: InChIKey OKKJLVBELUTLKV-UHFFFAOYSA-N
Temperature: 306 K
Tabular data in the source: 0
pressure (bar)	uptake (mmol/g)
0.0338929	0.0185821
0.0458206	0.0430713
0.0555664	0.0430713
0.0679305	0.0389898
0.0798582	0.063479
0.0871312	0.104294
0.0957133	0.141028
0.101095	0.17368
0.106041	0.345105
0.106914	0.675709
0.108659	1.14917
0.109823	1.46344
0.111132	1.66344
0.11215	1.90017
0.113023	2.1369
0.11535	2.38995
0.116514	2.52464
0.118696	2.63076
0.12146	2.64301
0.122914	2.63076
