Adsorption isotherm of Ethanol on C12H12O4Zn
DOI: 10.1021/Ja057667b
Adsorbate Ethanol: InChIKey LFQSCWFLJHTTHZ-UHFFFAOYSA-N
Temperature: 313 K
Tabular data in the source: 0
pressure (bar)	uptake (mmol/g)
0.00145995	0.00352282
0.0311718	0.204612
0.0556404	0.288083
0.0818567	0.362069
0.123803	0.432261
0.164001	0.483481
0.218182	0.52332
0.265371	0.55557
0.316056	0.576438
0.410435	0.631453
0.501318	0.625762
0.593949	0.635247
0.683085	0.663703
