Adsorption isotherm of Methanol on C12H12O4Zn
DOI: 10.1021/Ja057667b
Adsorbate Methanol: InChIKey OKKJLVBELUTLKV-UHFFFAOYSA-N
Temperature: 303 K
Tabular data in the source: 0
pressure (bar)	uptake (mmol/g)
0.0314449	0.00700308
0.06364	0.0450974
0.0766344	0.0777497
0.0819679	0.0940758
0.0872045	0.246453
0.0883681	0.428762
0.0904046	0.812426
0.0911804	1.14983
0.092441	1.38928
0.0937986	1.65594
0.0946714	1.87635
0.0958351	2.12396
0.0965139	2.29266
0.0972897	2.47497
0.0993261	2.6736
0.101653	2.80693
0.104369	2.88857
0.109605	2.98108
0.115521	3.07087
0.119497	3.13074
0.123182	3.16067
0.127448	3.16067
