Adsorption isotherm of Methanol on C12H12O4Zn
DOI: 10.1021/Ja057667b
Adsorbate Methanol: InChIKey OKKJLVBELUTLKV-UHFFFAOYSA-N
Temperature: 301 K
Tabular data in the source: 0
pressure (bar)	uptake (mmol/g)
0.0471414	0.0151781
0.0605409	0.0560457
0.0678232	0.0805663
0.0748142	0.186822
0.0791836	1.16765
0.0820965	1.96048
0.085592	2.61436
0.088505	2.84322
0.0940395	2.974
0.0992828	3.08025
0.105109	3.13747
0.111808	3.20286
0.119673	3.26824
0.125499	3.28459
