Adsorption isotherm of Methanol on C12H12O4Zn
DOI: 10.1021/Ja057667b
Adsorbate Methanol: InChIKey OKKJLVBELUTLKV-UHFFFAOYSA-N
Temperature: 298 K
Tabular data in the source: 0
pressure (bar)	uptake (mmol/g)
0.00373884	0.0143021
0.0145167	0.0143021
0.0296639	0.0374076
0.0418982	0.0374076
0.0494718	0.0682149
0.0541325	0.0836186
0.0570454	0.276164
0.0582105	0.453306
0.0605409	0.869205
0.0608322	1.30051
0.0628712	1.66249
0.0643277	2.01678
0.0660754	2.32485
0.0669493	2.5482
0.0704448	2.74075
0.0745229	2.84857
0.0806408	2.95253
0.0864564	3.02043
0.0928762	3.06636
0.103526	3.13425
0.11274	3.18418
0.120217	3.21413
0.127619	3.22012
