Adsorption isotherm of Water on ZSM-5
DOI: 10.1021/Ja057667b
Adsorbate Water: InChIKey XLYOFNOQVPJJNP-UHFFFAOYSA-N
Temperature: 298 K
Tabular data in the source: 0
pressure (bar)	uptake (mmol/g)
0.00191134	0.0995295
0.00311318	0.111077
0.00433812	0.126473
0.0054244	0.172662
0.00660312	0.19704
0.00771251	0.225266
0.00889123	0.270172
0.0099775	0.316361
0.0110869	0.361267
0.0122425	0.401041
0.0133519	0.443381
0.0145306	0.483154
0.0155244	0.535759
0.0167263	0.575532
0.0178357	0.619155
