Adsorption isotherm of Ethanol on C12H12O4Zn
DOI: 10.1021/Ja057667b
Adsorbate Ethanol: InChIKey LFQSCWFLJHTTHZ-UHFFFAOYSA-N
Temperature: 303 K
Tabular data in the source: 0
pressure (bar)	uptake (mmol/g)
0.015442	0.151494
0.0329195	0.261524
0.0591359	0.373451
0.0923432	0.464511
0.122055	0.529011
0.160506	0.58782
0.218182	0.646629
0.268867	0.67888
0.31256	0.705439
0.370236	0.722512
0.408687	0.733895
0.464615	0.747174
0.494327	0.762351
0.552003	0.766145
0.588706	0.758556
