Adsorption isotherm of Water on C12H12O4Zn
DOI: 10.1021/Ja057667b
Adsorbate Water: InChIKey XLYOFNOQVPJJNP-UHFFFAOYSA-N
Temperature: 298 K
Tabular data in the source: 0
pressure (bar)	uptake (mmol/g)
0.000272	0.0166321
0.00134392	0.0336112
0.00260231	0.0142065
0.00348784	0.00935539
0.00441997	0.02876
0.0060046	0.0311856
0.0073562	0.0239088
0.00945351	0.0214833
0.0108517	0.0214833
0.0126694	0.011781
0.014021	0.0263344
0.0151395	0.0142065
0.0159319	0.0239088
0.0177495	0.0263344
0.0192875	0.0142065
0.0203129	0.011781
