Adsorption isotherm of Ethanol on C12H12O4Zn
DOI: 10.1021/Ja057667b
Adsorbate Ethanol: InChIKey LFQSCWFLJHTTHZ-UHFFFAOYSA-N
Temperature: 353 K
Tabular data in the source: 0
pressure (bar)	uptake (mmol/g)
0.0346673	0.062332
0.197209	0.272907
0.361498	0.360172
0.5153	0.369657
0.683085	0.386731
