Adsorption isotherm of Nitrogen on ivCOF-2-I
DOI: 10.1002/anie.202104375
Article source: Figure 4
Adsorbate Nitrogen: InChIKey IJGRMHOSHXDMSA-UHFFFAOYSA-N
Kind: experiment
Temperature: 77 K
Tabular data in the source: 0
pressure (bar)	uptake (cm3(STP)/g)
0.000354	14.2499
0.0004	30.4101
-0.00032	44.4439
0.000482	59.3283
0.000525	74.2126
0.002079	86.5454
0.001352	98.0276
0.002146	109.935
0.000661	122.268
-6.7e-05	133.75
0.003002	143.956
0.00303	153.738
0.004573	161.818
0.004592	168.622
0.010741	192.862
0.029878	241.343
0.058087	272.812
0.100695	289.823
0.160004	300.455
0.231091	310.236
0.301409	317.04
0.370205	322.781
0.439758	327.672
0.51273	332.35
0.581897	335.327
0.653352	340.855
0.688318	342.982
0.724047	346.384
0.795499	351.062
0.831229	354.889
0.901175	364.245
0.936156	371.9
0.971537	386.359
1.00395	426.547
1.0032	428.035
0.962043	388.485
0.922486	375.302
0.883712	370.199
0.813013	362.969
0.743084	359.567
0.689875	356.165
0.618429	353.613
0.5485	350.211
0.477811	346.809
0.40636	342.556
0.33643	338.729
0.264973	332.35
0.194269	323.419
0.124312	310.236
0.087801	299.179
0.052785	279.191
