Adsorption isotherm of Nitrogen on ivCOF-2-Br
DOI: 10.1002/anie.202104375
Article source: Figure 3d
Adsorbate Nitrogen: InChIKey IJGRMHOSHXDMSA-UHFFFAOYSA-N
Kind: experiment
Temperature: 77 K
Tabular data in the source: 0
pressure (bar)	uptake (cm3(STP)/g)
-0.000401	11.6619
0.000354	17.7351
-2.3e-05	26.5929
-0.000401	41.0182
-0.000401	52.1534
-0.000401	64.3008
-0.000401	86.065
-0.000401	106.311
-0.000401	119.47
-0.000401	129.087
-0.000401	136.173
0.003374	176.156
0.005639	195.893
0.005639	209.053
0.007903	222.717
0.025267	267.751
0.053198	307.21
0.102268	330.455
0.152093	343.578
0.200407	351.134
0.254761	359.192
0.306096	365.227
0.355165	372.277
0.404235	378.314
0.457079	384.854
0.506904	387.854
0.558238	392.877
0.608818	397.901
0.657887	402.42
0.711486	405.923
0.761311	411.453
0.810381	417.996
0.860205	425.045
0.913049	437.153
0.963629	455.337
1.00251	543.376
1.00137	542.365
0.961364	464.449
0.91154	446.265
0.861715	439.216
0.811136	432.674
0.758291	429.676
0.708467	424.652
0.660907	422.157
0.607434	418.738
0.558364	415.822
0.506149	412.487
0.45645	407.463
0.403606	404.549
0.355165	399.946
0.30295	393.658
0.251993	388.213
0.202295	381.08
0.151967	372.26
0.10101	357.957
0.049424	327.627
