Adsorption isotherm of Nitrogen on Li/PEO@ivCOF-2-Br (50 wt% COF)
DOI: 10.1002/anie.202104375
Article source: Figure S32
Adsorbate Nitrogen: InChIKey IJGRMHOSHXDMSA-UHFFFAOYSA-N
Kind: experiment
Temperature: 77 K
Tabular data in the source: 0
pressure (bar)	uptake (cm3(STP)/g)
-0.001994	0.704408
0.007366	2.8722
0.023883	3.72752
0.047559	5.01152
0.077841	7.15999
0.100965	8.87978
0.125741	8.63926
0.150518	10.5752
0.176946	11.8566
0.202823	13.5739
0.227599	14.4216
0.251274	15.2703
0.277702	16.7694
0.30358	19.1396
0.328081	19.5522
0.353683	22.5756
0.377908	22.7709
0.404887	24.0518
0.430764	25.9867
0.455541	27.2697
0.477564	27.6846
0.505093	29.4003
0.529319	30.2485
0.557398	31.5285
0.579972	32.8135
0.60585	35.8366
0.630626	36.6843
0.657054	37.5305
0.680179	40.1208
0.706606	40.967
0.731933	42.6848
0.755058	43.534
0.783138	44.8139
0.808464	46.0964
0.832139	47.8157
0.858017	50.4035
0.885821	52.119
0.90867	54.7096
0.937301	57.2949
0.960425	62.0617
0.986853	68.5666
1.00282	87.7045
1.00172	86.8349
0.987404	67.6955
0.960425	62.0617
0.937851	58.1649
0.909221	55.1444
0.883894	52.556
0.858017	50.8388
0.834342	48.6842
0.807914	45.6616
0.784789	44.3771
0.756159	43.533
0.731383	43.9911
0.708809	41.8355
0.68128	40.1198
0.658706	38.8348
0.631727	38.4244
0.608052	35.8346
0.580523	34.9894
0.555747	32.4006
0.531521	31.9877
0.505093	29.4003
0.481418	28.1164
0.455541	28.1403
0.429663	26.423
0.405438	24.7042
0.37901	23.8581
0.354233	23.0104
0.329457	20.8568
0.30413	20.0096
0.278253	17.8571
0.254027	16.5736
0.2287	15.2911
0.202823	14.4445
0.177496	12.2914
0.15272	11.0084
0.125191	11.0338
0.101516	7.57341
0.075638	6.72674
0.049761	5.44477
0.023883	3.29223
