Adsorption isotherm of Nitrogen on Li/PEO@ivCOF-2-Br (90 wt% COF)
DOI: 10.1002/anie.202104375
Article source: Figure S32
Adsorbate Nitrogen: InChIKey IJGRMHOSHXDMSA-UHFFFAOYSA-N
Kind: experiment
Temperature: 77 K
Tabular data in the source: 0
pressure (bar)	uptake (cm3(STP)/g)
-0.001994	1.57498
0.000208	9.40813
0.00186	18.5476
0.006815	28.1194
0.024985	36.3731
0.046457	45.4943
0.073987	51.1276
0.100414	56.7619
0.125191	61.0919
0.15327	65.8542
0.174193	70.623
0.20007	75.8226
0.225947	79.281
0.254027	84.0432
0.277702	87.5036
0.301928	92.2694
0.328356	95.7273
0.354233	99.621
0.378459	104.387
0.403786	108.281
0.429663	111.739
0.454439	115.634
0.478665	119.529
0.506194	123.421
0.53042	129.493
0.555196	133.388
0.583276	139.456
0.606676	143.352
0.631727	147.246
0.657054	151.141
0.683482	155.904
0.707708	159.364
0.733034	163.694
0.758361	168.894
0.784239	172.352
0.807914	177.554
0.833791	181.447
0.86077	187.081
0.883344	192.284
0.911423	198.787
0.93675	206.599
0.960425	216.589
0.986853	238.764
1.00007	277.057
1.00172	275.75
0.986303	244.859
0.960976	221.812
0.93675	211.387
0.911974	204.01
0.884445	197.071
0.859669	192.306
0.83269	190.154
0.809566	184.952
0.783138	181.059
0.758361	176.729
0.733034	171.529
0.706606	168.506
0.682931	163.74
0.656503	158.976
0.631727	155.082
0.605299	151.188
0.580523	146.423
0.555196	142.964
0.53042	139.069
0.503441	134.742
0.479216	130.846
0.453338	126.953
0.429113	122.622
0.404336	118.727
0.377908	114.399
0.352031	110.505
0.326704	107.046
0.300276	103.588
0.2755	99.2584
0.251825	95.798
0.225397	91.4695
0.198969	88.0116
0.174193	82.8111
0.149967	78.0453
0.125191	73.28
0.098212	69.8226
0.072885	64.1873
0.047559	57.2461
0.021131	47.2588
0.006265	27.2493
