Adsorption isotherm of Nitrogen on Li/PEO@ivCOF-2-Br (10 wt% COF)
DOI: 10.1002/anie.202104375
Article source: Figure S32
Adsorbate Nitrogen: InChIKey IJGRMHOSHXDMSA-UHFFFAOYSA-N
Kind: experiment
Temperature: 77 K
Tabular data in the source: 0
pressure (bar)	uptake (cm3(STP)/g)
0.005164	-1.04335
0.024985	-1.49695
0.050862	-1.95614
0.100965	-0.26126
0.150518	0.998837
0.201722	1.82212
0.253477	1.77432
0.30413	1.29225
0.354233	2.11655
0.404336	2.50556
0.45499	3.32936
0.506194	2.84678
0.557949	2.79898
0.6064	2.75423
0.658706	3.14121
0.708258	3.53073
0.757811	3.92025
0.811217	3.43564
0.86077	4.69573
0.911423	3.77837
0.959875	5.47477
1.00337	5.4346
0.959875	5.47477
1.00337	5.4346
0.86077	4.69573
0.757811	3.92025
0.911423	3.77837
0.708258	3.53073
0.811217	3.43564
0.45499	3.32936
0.658706	3.14121
0.506194	2.84678
0.557949	2.79898
0.6064	2.75423
0.404336	2.50556
0.354233	2.11655
0.201722	1.82212
0.253477	1.77432
0.30413	1.29225
0.150518	0.998837
0.100965	-0.26126
0.005164	-1.04335
0.024985	-1.49695
0.050862	-1.95614
