Adsorption isotherm of Nitrogen on ivCOF-1-Br
DOI: 10.1002/anie.202104375
Article source: Figure 3c
Adsorbate Nitrogen: InChIKey IJGRMHOSHXDMSA-UHFFFAOYSA-N
Kind: experiment
Temperature: 77 K
Tabular data in the source: 0
pressure (bar)	uptake (cm3(STP)/g)
-3.9e-05	24.865
-0.001266	35.4256
0.000574	42.9672
0.000574	51.2642
-3.9e-05	71.2529
-0.001266	80.305
-3.9e-05	92.3726
0.001188	111.983
0.000267	127.446
-0.000653	135.367
-3.9e-05	142.155
0.001188	160.256
0.005481	167.419
0.007935	173.452
0.009775	179.485
0.025724	193.805
0.0521	206.61
0.099946	219.778
0.150245	229.55
0.201157	237.436
0.25207	244.191
0.305436	250.189
0.355122	257.322
0.405421	261.437
0.455107	267.815
0.507246	273.437
0.557545	278.307
0.608458	285.061
0.656917	289.554
0.707216	297.441
0.758129	304.95
0.811495	313.211
0.860567	321.475
0.913933	339.165
0.961779	373.076
1.00288	514.475
1.00226	514.852
0.961779	383.258
0.912093	350.481
0.862408	335.805
0.809655	324.526
0.761196	317.016
0.709056	309.885
0.65753	306.148
0.608458	300.524
0.557545	296.409
0.505406	291.164
0.454494	286.295
0.406035	281.425
0.354509	276.556
0.304823	271.31
0.252683	266.064
0.252683	266.064
0.202384	258.555
0.152085	250.669
0.100559	239.389
0.0521	224.336
