Adsorption isotherm of Nitrogen on Ni/Mg0.5Al0.5(O)
DOI: 10.1016/j.ijhydene.2017.05.058
Article source: Figure 8
Adsorbate Nitrogen: InChIKey IJGRMHOSHXDMSA-UHFFFAOYSA-N
Kind: experiment
Temperature: 1073 K
Tabular data in the source: 0
pressure (bar)	uptake (cm3(STP)/g)
0.008288	0.901
0.031207	1.757
0.048483	1.843
0.059335	2.185
0.081443	2.699
0.100735	3.127
0.104758	3.127
0.130484	3.213
0.14938	4.326
0.154599	3.555
0.178714	4.069
0.202433	4.583
0.230165	4.497
0.248657	4.411
0.255486	4.411
0.276794	5.182
0.299298	5.182
0.32623	5.182
0.355573	5.781
0.401401	5.867
0.42431	5.953
0.451637	6.124
0.499472	6.723
0.553335	9.206
0.570621	8.864
0.608404	15.371
0.64257	10.919
0.65864	18.539
0.706079	25.389
0.712909	14.772
0.757126	32.153
0.78727	24.961
0.810179	38.917
0.858013	43.369
0.861631	36.006
0.907054	47.222
0.936397	44.996
0.966936	49.277
1.00351	50.476
