Adsorption isotherm of Nitrogen on Ni/Mg0.43Al0.43-La0.07Zr0.07(O)
DOI: 10.1016/j.ijhydene.2017.05.058
Article source: Figure 8
Adsorbate Nitrogen: InChIKey IJGRMHOSHXDMSA-UHFFFAOYSA-N
Kind: experiment
Temperature: 1073 K
Tabular data in the source: 0
pressure (bar)	uptake (cm3(STP)/g)
0.008612	39.178
0.029353	43.153
0.064918	46.415
0.081514	47.401
0.10113	48.692
0.122185	50.051
0.140849	50.9
0.161114	52.056
0.182807	53.007
0.202261	53.653
0.252993	55.963
0.286643	57.356
0.305306	58.24
0.337527	59.973
0.356353	60.72
0.40357	63.982
0.406123	62.793
0.450786	68.671
0.456531	66.837
0.505906	87.293
0.507111	70.597
0.554946	96.54
0.558158	75.306
0.610005	81.043
0.612416	109.298
0.659856	87.036
0.662267	120.429
0.711298	94.057
0.712108	127.621
0.762749	101.763
0.763155	134.556
0.811384	108.955
0.812185	140.378
0.832287	111.952
0.840322	143.589
0.864042	118.845
0.866251	147.485
0.887752	124.538
0.889971	150.653
0.914288	133.058
0.915686	153.992
0.94122	158.573
0.94202	143.546
0.953672	161.955
0.967341	153.008
0.9788	170.774
0.987241	162.597
0.990453	177.667
0.997089	166.964
1.00694	177.281
1.00894	183.789
