Adsorption isotherm of Nitrogen on Ni/Mg0.25Al0.25- La0.25Zr0.25(O)
DOI: 10.1016/j.ijhydene.2017.05.058
Article source: Figure 8
Adsorbate Nitrogen: InChIKey IJGRMHOSHXDMSA-UHFFFAOYSA-N
Kind: experiment
Temperature: 1073 K
Tabular data in the source: 0
pressure (bar)	uptake (cm3(STP)/g)
0.010507	8.864
0.033619	10.405
0.066975	11.518
0.081849	11.646
0.101343	12.075
0.120635	12.674
0.141741	12.759
0.163241	13.487
0.182736	13.616
0.203639	14.129
0.254088	14.772
0.28564	15.028
0.304324	15.799
0.336281	15.799
0.354914	16.548
0.405799	17.159
0.456207	17.567
0.460037	20.15
0.506615	24.771
0.507567	18.79
0.557976	26.402
0.5583	19.47
0.60807	21.237
0.610613	28.848
0.658154	31.227
0.659744	23.344
0.708238	34.489
0.709514	26.266
0.762739	29.757
0.763246	38.926
0.812367	43.781
0.831609	35.258
0.837688	45.614
0.861995	47.556
0.885796	41.731
0.887316	49.067
0.897448	50.361
0.91517	43.565
0.920742	52.842
0.93897	47.88
0.951636	55
0.963278	51.008
0.973917	58.668
0.991131	63.198
0.996704	58.775
1.00633	62.875
1.00734	65.032
