Adsorption isotherm of Nitrogen on Ni/Mg0.4Al0.4La0.1Zr0.1(O)
DOI: 10.1016/j.ijhydene.2017.05.058
Article source: Figure 8
Adsorbate Nitrogen: InChIKey IJGRMHOSHXDMSA-UHFFFAOYSA-N
Kind: experiment
Temperature: 1073 K
Tabular data in the source: 0
pressure (bar)	uptake (cm3(STP)/g)
0.009686	20.102
0.030448	23.554
0.06666	26.844
0.081849	27.815
0.101597	28.84
0.123128	29.865
0.143382	30.997
0.159837	32.238
0.182118	33.371
0.202383	34.234
0.253277	36.445
0.304172	38.818
0.355573	40.167
0.403934	41.947
0.45493	43.187
0.457483	46.041
0.506301	45.498
0.507091	50.697
0.556385	55.352
0.558614	48.08
0.607107	51.818
0.609346	62.827
0.65943	56.779
0.663574	72.477
0.702979	80.088
0.710153	63.439
0.761199	70.812
0.765505	93.918
0.811445	79.409
0.811921	108.835
0.8317	83.248
0.837607	115.562
0.860891	90.214
0.862168	120.455
0.886951	97.14
0.888967	122.63
0.913214	125.586
0.914886	104.46
0.938808	111.738
0.939376	129.29
0.953571	131.77
0.96573	119.872
0.975426	138.09
0.988244	129.89
0.991061	144.017
0.995884	134.085
1.00412	142.476
1.00874	149.711
