Adsorption isotherm of Nitrogen on Ni/Mg0.33Al0.33-La0.17Zr0.17(O)
DOI: 10.1016/j.ijhydene.2017.05.058
Article source: Figure 8
Adsorbate Nitrogen: InChIKey IJGRMHOSHXDMSA-UHFFFAOYSA-N
Kind: experiment
Temperature: 1073 K
Tabular data in the source: 0
pressure (bar)	uptake (cm3(STP)/g)
0.01069	9.922
0.030144	12.708
0.06588	15.732
0.080714	17.057
0.10113	18.043
0.121385	18.858
0.141325	19.538
0.162542	20.897
0.182645	22.018
0.203061	22.46
0.252193	24.465
0.286805	25.756
0.306107	26.707
0.336737	27.591
0.355238	28.712
0.404522	30.819
0.450786	35.304
0.457169	33.163
0.50471	58.937
0.507892	36.459
0.555351	40.76
0.559658	69.024
0.609539	76.359
0.609792	45.345
0.66019	50.523
0.6617	82.508
0.710832	87.039
0.760713	65.14
0.763499	90.653
0.811101	74.471
0.812114	93.134
0.832368	79.865
0.836675	94.752
0.862755	86.769
0.863009	96.047
0.868581	96.424
0.887569	91.732
0.896942	97.827
0.91368	94.999
0.921117	100.265
0.941615	97.825
0.951058	103.219
0.961109	101.121
0.974373	107.2
0.984829	105.83
0.989449	111.952
0.993867	108.827
1.00432	113.236
1.00713	116.148
