Adsorption isotherm of Methane on [Cu2(L)2(SO4)-(Br)2]*4H2O
DOI: 10.1021/Ic3026304
Adsorbate Methane: InChIKey VNWKTOKETHGBQD-UHFFFAOYSA-N
Temperature: 298 K
Tabular data in the source: 0
pressure (bar)	uptake (mmol/g)
0.0762214	0.0126405
0.178473	0.0355817
0.360255	0.0552456
0.547717	0.0781867
0.755062	0.11096
0.934003	0.130624
1.13851	0.150288
1.23224	0.156842
