Adsorption isotherm of Carbon Dioxide on [Cu2(L)2(SO4)-(Br)2]*4H2O
DOI: 10.1021/Ic3026304
Adsorbate Carbon Dioxide: InChIKey CURLTUGMZLYLDI-UHFFFAOYSA-N
Temperature: 298 K
Tabular data in the source: 0
pressure (bar)	uptake (mmol/g)
0.0677003	0.396086
0.172793	0.641884
0.272205	0.772977
0.360255	0.854909
0.453986	0.936842
0.550557	0.999111
0.649969	1.06793
0.73802	1.12037
0.843112	1.18264
0.934003	1.2318
1.03341	1.28424
1.13567	1.33667
1.23792	1.37928
