Adsorption isotherm of Methane on [Cu2(L)2(SO4)(Br)2]
DOI: 10.1021/Ic3026304
Adsorbate Methane: InChIKey VNWKTOKETHGBQD-UHFFFAOYSA-N
Temperature: 298 K
Tabular data in the source: 0
pressure (bar)	uptake (mmol/g)
0.073381	0.00608589
0.181314	0.00608589
0.354574	0.0126405
0.556238	0.0126405
0.746541	0.0224724
0.936843	0.0290271
1.21804	0.0323044
