Adsorption isotherm of Carbon Dioxide on [Cu2(L)2(SO4)(Br)2]
DOI: 10.1021/Ic3026304
Adsorbate Carbon Dioxide: InChIKey CURLTUGMZLYLDI-UHFFFAOYSA-N
Temperature: 298 K
Tabular data in the source: 0
pressure (bar)	uptake (mmol/g)
0.0705407	0.0421363
0.175633	0.104405
0.258003	0.14701
0.365936	0.186338
0.550557	0.251884
0.746541	0.333817
0.939684	0.389531
1.22088	0.487851
