Adsorption isotherm of Nitrogen on CuBTC
DOI: 10.1007/s10934-013-9692-4
Adsorbate Nitrogen: InChIKey IJGRMHOSHXDMSA-UHFFFAOYSA-N
Temperature: 77 K
Tabular data in the source: 0
pressure (bar)	uptake (cm3(STP)/g)
0.00400996	300.449
0.00619484	393.263
0.00619484	444.127
0.0149343	458.285
0.0367831	466.675
0.0717411	478.211
0.139472	493.417
0.202833	500.759
0.312077	510.197
0.401657	515.441
0.567707	520.685
0.700985	526.453
0.888884	531.696
0.985018	535.891
