Adsorption isotherm of Carbon Dioxide on CuBTC
DOI: 10.1021/Jp206002d
Adsorbate Carbon Dioxide: InChIKey CURLTUGMZLYLDI-UHFFFAOYSA-N
Temperature: 303 K
Tabular data in the source: 0
pressure (bar)	uptake (mmol/g)
0.100901	0.593449
0.277477	1.24085
0.403604	1.86127
0.52973	2.40077
0.731532	3.18304
0.908108	3.77649
1.08468	4.34297
1.23604	4.85549
1.41261	5.36802
1.61441	5.88054
2.87568	8.30829
3.90991	9.57611
5.44865	10.736
6.65946	11.4104
8.8036	12.1387
10.0649	12.5164
11.427	12.7861
12.6126	13.0289
