Adsorption isotherm of Carbon Dioxide on MIL-53(Al)
DOI: 10.1021/Ja904123f
Adsorbate Carbon Dioxide: InChIKey CURLTUGMZLYLDI-UHFFFAOYSA-N
Temperature: 304 K
Tabular data in the source: 0
pressure (bar)	uptake (molecules/unitcell)
0.0619484	0.0636713
0.367831	0.286528
0.367831	1.08619
0.673713	1.46636
1.15439	1.82031
1.98464	2.05628
3.36111	2.2267
5.21825	2.35779
7.22833	2.39712
7.31573	3.82602
8.51741	4.15376
9.98128	4.4946
