Adsorption isotherm of Methane on MIL-53(Al)
DOI: 10.1021/Ja904123f
Adsorbate Methane: InChIKey VNWKTOKETHGBQD-UHFFFAOYSA-N
Temperature: 304 K
Tabular data in the source: 0
pressure (bar)	uptake (molecules/unitcell)
0.0400996	-0.00187491
0.564469	0.247201
1.13254	0.509386
1.91909	0.837117
2.83674	1.20418
3.99472	1.58434
5.21825	1.96451
6.39808	2.27913
7.59976	2.56754
8.75775	2.81661
9.89388	3.05258
