Adsorption isotherm of Methane on MIL-53(Al)
DOI: 10.1021/Ja904123f
Adsorbate Methane: InChIKey VNWKTOKETHGBQD-UHFFFAOYSA-N
Temperature: 304 K
Tabular data in the source: 0
pressure (bar)	uptake (molecules/unitcell)
0.345982	0.0374528
1.32918	0.0243436
2.24682	0.0374528
3.4922	0.0505621
4.91237	0.0243436
6.22329	0.0374528
7.20649	0.0374528
7.27203	0.78468
8.7359	0.876444
9.91573	0.915772
