Adsorption isotherm of Carbon Dioxide on MIL-53(Al)
DOI: 10.1021/Ja904123f
Adsorbate Carbon Dioxide: InChIKey CURLTUGMZLYLDI-UHFFFAOYSA-N
Temperature: 304 K
Tabular data in the source: 0
pressure (bar)	uptake (molecules/unitcell)
0.0619484	0.0636713
0.193041	0.26031
0.193041	0.732243
0.236738	1.28283
0.520772	1.8072
1.13254	2.18737
2.13758	2.41023
5.30565	2.54132
5.32749	5.25493
6.81321	5.85796
8.34262	6.32989
9.93758	6.7625
