Adsorption isotherm of Nitrogen on CuBTC
DOI: 10.1039/C3ra40726h
Adsorbate Nitrogen: InChIKey IJGRMHOSHXDMSA-UHFFFAOYSA-N
Temperature: 77 K
Tabular data in the source: 0
pressure (bar)	uptake (cm3(STP)/g)
-0.0023086	104.404
0.00029165	124.964
0.000477886	156.535
0.00108227	193.247
0.00134581	217.476
0.00178504	240.235
0.00224887	266.669
0.00252647	295.302
0.00319059	356.977
0.00320113	392.22
0.00430097	324.673
0.00456451	428.199
0.00628279	463.44
0.0314771	494.297
0.0459333	499.447
0.0603752	503.864
0.0868381	511.226
0.118059	517.123
0.142044	520.078
0.166044	523.767
0.192437	527.458
0.216394	528.945
0.242759	531.167
0.261902	531.182
0.295446	533.41
0.364925	537.868
0.405619	538.633
0.453506	540.137
0.503787	541.644
0.556473	543.886
0.60436	545.391
0.652246	546.895
0.697727	547.664
0.750427	550.641
0.798315	552.145
0.846202	553.65
0.894089	555.154
0.939639	559.594
