Adsorption isotherm of Nitrogen on CuBTC
DOI: 10.1039/C3ra40726h
Adsorbate Nitrogen: InChIKey IJGRMHOSHXDMSA-UHFFFAOYSA-N
Temperature: 77 K
Tabular data in the source: 0
pressure (bar)	uptake (cm3(STP)/g)
0.000210831	111.013
0.000337331	117.621
0.000688717	135.977
0.00553082	138.918
0.0175377	141.129
0.0247587	143.337
0.0511654	147.763
0.067944	149.244
0.0727299	149.247
0.0919016	150.73
0.0990805	150.736
0.123038	152.222
0.151767	152.978
0.175711	153.73
0.194868	154.479
0.245134	155.251
0.295414	156.758
0.340894	157.526
0.393567	159.035
0.439033	159.069
0.486905	159.839
0.537171	160.612
0.582652	161.38
0.63531	162.154
0.683169	162.19
0.731042	162.961
0.781307	163.733
0.829181	164.503
0.853124	165.256
0.879474	166.744
0.901039	168.229
0.944252	175.603
0.953936	181.485
0.968673	201.319
