Adsorption isotherm of Nitrogen on CuBTC
DOI: 10.1039/C3ra40726h
Adsorbate Nitrogen: InChIKey IJGRMHOSHXDMSA-UHFFFAOYSA-N
Temperature: 77 K
Tabular data in the source: 0
pressure (bar)	uptake (cm3(STP)/g)
-0.00229456	105.138
0.010018	248.319
0.0196742	252.731
0.036509	257.149
0.043744	260.092
0.0581439	262.305
0.0845084	264.528
0.110887	267.485
0.137223	268.239
0.161195	270.46
0.185167	272.68
0.20911	273.433
0.235447	274.187
0.259375	274.205
0.285712	274.959
0.304856	274.973
0.352742	276.478
0.40063	277.983
0.448517	279.487
0.498782	280.259
0.544262	281.028
0.594528	281.8
0.642401	282.571
0.692653	282.609
0.742918	283.381
0.788413	284.884
0.838706	287.124
0.886579	287.895
0.929681	289.396
