Adsorption isotherm of Nitrogen on CuBTC
DOI: 10.1039/C3ra40726h
Adsorbate Nitrogen: InChIKey IJGRMHOSHXDMSA-UHFFFAOYSA-N
Temperature: 77 K
Tabular data in the source: 0
pressure (bar)	uptake (cm3(STP)/g)
-0.00187289	127.165
-0.00131067	156.534
-0.000565732	195.447
-0.000158124	216.74
0.00195019	326.874
0.00274081	243.174
0.00375281	296.038
0.00460668	465.642
0.004691	470.048
0.00496157	359.181
0.00559407	392.222
0.00561164	268.139
0.00629684	428.933
0.0119261	472.99
0.0120385	478.864
0.0217368	485.479
0.0433857	491.369
0.0482137	493.575
0.0530839	497.984
0.0891467	506.822
0.115554	511.247
0.141974	516.407
0.165917	517.159
0.192324	521.584
0.216296	523.805
0.245012	523.827
0.261804	526.042
0.295347	528.27
0.364799	531.26
0.405507	532.759
0.453407	534.998
0.506108	537.974
0.553996	539.479
0.601896	541.718
0.649797	543.957
0.697684	545.461
0.750399	549.172
0.798315	552.145
0.84143	554.38
0.886966	558.086
0.93025	569.132
0.957177	600.723
