Adsorption isotherm of Hydrogen on CuBTC
DOI: 10.1039/C3ra40726h
Adsorbate Hydrogen: InChIKey UFHFLCQGNIYNRP-UHFFFAOYSA-N
Temperature: 77 K
Tabular data in the source: 0
pressure (bar)	uptake (wt%)
0.0108363	0.207792
0.0258431	0.344156
0.0536162	0.506494
0.0813343	0.616883
0.104744	0.668831
0.147338	0.792208
0.157974	0.811688
0.202629	0.876623
0.255777	0.941558
0.304678	1.00649
0.413061	1.1039
0.504432	1.17532
0.608528	1.23377
0.710508	1.2987
0.810337	1.33766
0.912289	1.37662
1.01424	1.41558
