Adsorption isotherm of Nitrogen on CuBTC
DOI: 10.1039/C3ra40726h
Adsorbate Nitrogen: InChIKey IJGRMHOSHXDMSA-UHFFFAOYSA-N
Temperature: 77 K
Tabular data in the source: 0
pressure (bar)	uptake (cm3(STP)/g)
0.00061844	132.306
0.0150604	136.722
0.0318672	139.672
0.0534458	141.891
0.0821892	143.381
0.103768	145.6
0.130119	147.088
0.154062	147.84
0.180399	148.594
0.206721	148.614
0.230664	149.367
0.249822	150.115
0.278551	150.871
0.304887	151.625
0.350353	151.66
0.393454	153.161
0.446113	153.935
0.496379	154.707
0.546645	155.479
0.59211	155.514
0.64239	157.02
0.690263	157.79
0.740515	157.828
0.786009	159.331
0.838682	160.839
0.881811	163.809
0.927418	171.185
0.946912	189.556
0.969672	253.449
