Adsorption isotherm of Hydrogen on CuBTC
DOI: 10.1039/C3ra40726h
Adsorbate Hydrogen: InChIKey UFHFLCQGNIYNRP-UHFFFAOYSA-N
Temperature: 77 K
Tabular data in the source: 0
pressure (bar)	uptake (wt%)
0.0108777	0.246753
0.0259809	0.474026
0.038837	0.584416
0.0495561	0.681818
0.0580831	0.714286
0.0795075	0.896104
0.0965961	0.993506
0.10513	1.03247
0.132869	1.16234
0.15632	1.25325
0.188284	1.36364
0.207441	1.40909
0.239391	1.50649
0.256431	1.55844
0.303237	1.64935
0.309627	1.66883
0.381959	1.80519
0.407471	1.83766
0.488281	1.96104
0.509533	1.98052
0.590316	2.07792
0.607322	2.0974
0.70722	2.2013
0.809234	2.2987
0.909112	2.38312
1.01534	2.44805
