Adsorption isotherm of Nitrogen on CuBTC
DOI: 10.1039/C3ra40726h
Adsorbate Nitrogen: InChIKey IJGRMHOSHXDMSA-UHFFFAOYSA-N
Temperature: 77 K
Tabular data in the source: 0
pressure (bar)	uptake (cm3(STP)/g)
-0.00374578	154.329
-0.00204155	118.354
0.0135811	184.445
0.0304441	190.331
0.0472228	191.812
0.0568508	194.757
0.0784435	197.71
0.107201	199.934
0.128752	200.685
0.155088	201.439
0.176652	202.924
0.205424	205.882
0.226961	205.898
0.248511	206.649
0.286826	208.146
0.301184	208.157
0.353857	209.665
0.396957	211.166
0.444844	212.671
0.497489	212.711
0.542983	214.214
0.59087	215.718
0.641136	216.49
0.691402	217.263
0.736896	218.765
0.789582	221.008
0.83509	223.245
0.880627	226.95
0.926304	237.998
0.94829	261.51
0.971148	330.543
