Adsorption isotherm of Nitrogen on CuBTC
DOI: 10.1039/C3ra40726h
Adsorbate Nitrogen: InChIKey IJGRMHOSHXDMSA-UHFFFAOYSA-N
Temperature: 77 K
Tabular data in the source: 0
pressure (bar)	uptake (cm3(STP)/g)
0.0510107	139.686
0.0701824	141.169
0.0797682	141.911
0.106119	143.399
0.130062	144.151
0.156385	144.171
0.180314	144.189
0.204285	146.41
0.252158	147.18
0.295245	147.947
0.34789	147.987
0.398156	148.759
0.441257	150.26
0.486736	151.029
0.53461	151.799
0.582483	152.569
0.632734	152.607
0.685407	154.116
0.733308	156.354
0.783574	157.127
0.829082	159.364
0.853054	161.584
0.877025	163.805
0.898632	167.493
0.92501	170.449
0.925208	180.729
0.937481	196.891
0.945082	218.923
0.945265	228.468
0.950457	249.764
0.955666	271.794
0.955905	284.276
0.958677	304.102
