Adsorption isotherm of Hydrogen on CuBTC
DOI: 10.1039/C3ra40726h
Adsorbate Hydrogen: InChIKey UFHFLCQGNIYNRP-UHFFFAOYSA-N
Temperature: 77 K
Tabular data in the source: 0
pressure (bar)	uptake (wt%)
0.010857	0.227273
0.0301169	0.37013
0.0471917	0.454545
0.0578763	0.519481
0.0898475	0.636364
0.104778	0.701299
0.147358	0.811688
0.155865	0.824675
0.202664	0.909091
0.255839	1
0.306856	1.05844
0.404631	1.16234
0.515124	1.24675
0.610734	1.31169
0.712707	1.37013
0.808304	1.42208
0.912379	1.46104
1.01221	1.50649
