Adsorption isotherm of Carbon Dioxide on [Zn2(tzba)(DMF)]*0.5DM
DOI: 10.1039/C2dt31968c
Adsorbate Carbon Dioxide: InChIKey CURLTUGMZLYLDI-UHFFFAOYSA-N
Temperature: 273 K
Tabular data in the source: 0
pressure (bar)	uptake (cm3(STP)/g)
0.00595567	0.282452
0.0119275	3.31062
0.0223782	7.25428
0.0358148	10.9867
0.0597022	15.6346
0.0820965	19.367
0.111956	23.1698
0.141815	25.5641
0.20004	29.1557
0.271702	32.043
0.373223	34.9303
0.47773	37.3247
0.582237	39.5782
0.686744	41.4796
0.789759	43.5219
0.855449	44.7191
0.927111	46.0571
0.991308	47.1134
1.02415	47.6064
