Adsorption isotherm of Hydrogen on [Zn2(tzba)(DMF)]*0.5DM
DOI: 10.1039/C2dt31968c
Adsorbate Hydrogen: InChIKey UFHFLCQGNIYNRP-UHFFFAOYSA-N
Temperature: 295 K
Tabular data in the source: 0
pressure (bar)	uptake (cm3(STP)/g)
0.0104345	0.000762
0.0761247	0.0711848
0.125392	0.0711848
0.185111	0.0711848
0.285139	0.0711848
0.382181	0.21203
0.43742	0.282452
0.483702	0.352875
0.537449	0.49372
0.586716	0.634565
0.688237	0.916255
0.782294	0.986678
0.831561	1.19795
0.885308	1.26837
0.936068	1.33879
0.985336	1.47964
