Adsorption isotherm of Hydrogen on [Zn2(tzba)(DMF)]*0.5DM
DOI: 10.1039/C2dt31968c
Adsorbate Hydrogen: InChIKey UFHFLCQGNIYNRP-UHFFFAOYSA-N
Temperature: 77 K
Tabular data in the source: 0
pressure (bar)	uptake (cm3(STP)/g)
0.00878428	1.3267
0.00878428	18.5456
0.0114443	24.9527
0.0207546	35.9648
0.039375	44.5742
0.0885863	56.187
0.161738	62.9945
0.282771	69.8019
0.423755	74.407
0.492916	76.6094
0.567398	79.0121
0.6339	81.0143
0.705722	83.0165
0.841385	86.22
0.929167	88.022
0.975718	89.0231
1.0103	90.2244
