Adsorption isotherm of Nitrogen on [Zn2(tzba)(DMF)]*0.5DM
DOI: 10.1039/C2dt31968c
Adsorbate Nitrogen: InChIKey IJGRMHOSHXDMSA-UHFFFAOYSA-N
Temperature: 77 K
Tabular data in the source: 0
pressure (bar)	uptake (cm3(STP)/g)
0.00745425	31.5599
0.00745425	55.7865
0.00878428	3.92956
0.00878428	63.3949
0.0154344	72.4048
0.0313948	80.2134
0.0859262	90.2244
0.136467	96.4312
0.194989	101.837
0.289421	107.443
0.391834	111.648
0.534147	116.053
0.679121	120.057
0.790844	122.86
0.867986	125.263
0.917197	128.667
0.946458	132.671
0.961088	137.476
0.963748	140.48
