Adsorption isotherm of Nitrogen on [Zn2(tzba)(DMF)]*0.5DM
DOI: 10.1039/C2dt31968c
Adsorbate Nitrogen: InChIKey IJGRMHOSHXDMSA-UHFFFAOYSA-N
Temperature: 295 K
Tabular data in the source: 0
pressure (bar)	uptake (cm3(STP)/g)
0.02835	0.000762
0.107477	0.000762
0.144801	0.0711848
0.219449	0.141607
0.358294	0.21203
0.432942	0.282452
0.498632	0.282452
0.567308	0.282452
0.63897	0.423297
0.707646	0.49372
0.774829	0.564143
0.843505	0.704988
0.903223	0.916255
0.928604	0.916255
0.983843	1.0571
1.02415	1.12752
