Adsorption isotherm of Carbon Dioxide on [Zn2(tzba)(DMF)]*0.5DM
DOI: 10.1039/C2dt31968c
Adsorbate Carbon Dioxide: InChIKey CURLTUGMZLYLDI-UHFFFAOYSA-N
Temperature: 195 K
Tabular data in the source: 0
pressure (bar)	uptake (cm3(STP)/g)
0.00612422	3.12868
0.00878428	37.5665
0.0114443	53.1837
0.0500153	63.9956
0.119177	72.0044
0.22425	77.6105
0.317352	82.0154
0.417104	86.0198
0.516857	90.0242
0.613949	93.4279
0.711042	97.4323
0.806804	101.637
0.853355	103.239
0.903897	105.441
0.951778	107.443
0.991679	108.845
