Adsorption isotherm of Carbon Dioxide on [Zn2(tzba)(DMF)]*0.5DM
DOI: 10.1039/C2dt31968c
Adsorbate Carbon Dioxide: InChIKey CURLTUGMZLYLDI-UHFFFAOYSA-N
Temperature: 295 K
Tabular data in the source: 0
pressure (bar)	uptake (cm3(STP)/g)
0.00894159	0.49372
0.0358148	3.45147
0.0701529	6.76133
0.0970261	9.29654
0.13435	12.3247
0.216463	17.6064
0.304547	21.5501
0.406068	25.0712
0.47773	27.1134
0.582237	29.1557
0.682266	31.0571
0.752435	32.1839
0.822604	33.3106
0.892773	34.4374
0.962942	35.4233
1.03311	36.2684
