Adsorption isotherm of Methane on (NH2(CH3)2)3[Zn6(BTC)4(BTB)]
DOI: 10.1039/C3ce40929e
Adsorbate Methane: InChIKey VNWKTOKETHGBQD-UHFFFAOYSA-N
Temperature: 273 K
Tabular data in the source: 0
pressure (bar)	uptake (cm3(STP)/g)
0.0295622	0.847357
0.156323	2.74877
0.247872	4.01637
0.366182	5.91778
0.473224	8.24172
0.583083	9.93186
0.683083	11.8333
0.784492	13.9459
0.829562	14.791
0.949281	16.2699
0.983083	17.115
