Adsorption isotherm of Nitrogen on (NH2(CH3)2)3[Zn6(BTC)4(BTB)]
DOI: 10.1039/C3ce40929e
Adsorbate Nitrogen: InChIKey IJGRMHOSHXDMSA-UHFFFAOYSA-N
Temperature: 77 K
Tabular data in the source: 0
pressure (bar)	uptake (cm3(STP)/g)
0.000865	24.0451
0.000865	74.1002
0.000865	272.89
0.000865	347.257
0.00229475	123.44
0.00229475	172.78
0.00515504	372.285
0.00944547	412.329
0.0280373	445.937
0.065221	464.529
0.149599	476.685
0.521437	486.696
0.584363	486.696
0.677322	485.266
0.75884	484.551
0.85466	484.551
0.984803	481.691
