Adsorption isotherm of Carbon Dioxide on (NH2(CH3)2)3[Zn6(BTC)4(BTB)]
DOI: 10.1039/C3ce40929e
Adsorbate Carbon Dioxide: InChIKey CURLTUGMZLYLDI-UHFFFAOYSA-N
Temperature: 195 K
Tabular data in the source: 0
pressure (bar)	uptake (cm3(STP)/g)
0.00280166	18.0343
0.00984391	43.3864
0.0239284	109.302
0.035196	165.64
0.0549143	240.569
0.078858	301.978
0.0957594	316.062
0.115478	326.203
0.160548	338.034
0.188717	350.429
0.219703	363.386
0.338013	376.908
0.554914	390.992
0.956323	406.203
0.984492	407.33
1.01266	408.457
