Adsorption isotherm of Carbon Dioxide on (NH2(CH3)2)3[Zn6(BTC)4(BTB)]
DOI: 10.1039/C3ce40929e
Adsorbate Carbon Dioxide: InChIKey CURLTUGMZLYLDI-UHFFFAOYSA-N
Temperature: 273 K
Tabular data in the source: 0
pressure (bar)	uptake (cm3(STP)/g)
0.00984391	1.13286
0.198576	12.9638
0.315478	21.4145
0.397168	29.3019
0.484492	36.0624
0.561957	42.2596
0.633788	47.33
0.711252	54.0906
0.784492	59.7244
0.854914	65.3582
0.953506	73.8089
0.983083	76.0624
1.00984	77.1892
