Adsorption isotherm of Hydrogen on (NH2(CH3)2)3[Zn6(BTC)4(BTB)]
DOI: 10.1039/C3ce40929e
Adsorbate Hydrogen: InChIKey UFHFLCQGNIYNRP-UHFFFAOYSA-N
Temperature: 77 K
Tabular data in the source: 0
pressure (bar)	uptake (wt%)
0.00280166	0.0063609
0.0197031	0.0760792
0.0535059	0.188051
0.105619	0.373967
0.149281	0.496502
0.211252	0.646502
0.309844	0.826079
0.390126	0.950727
0.494351	1.09439
0.557731	1.18312
0.628154	1.26129
0.705619	1.33735
0.795759	1.42185
0.897168	1.50425
