Adsorption isotherm of Carbon Dioxide on (NH2(CH3)2)3[Zn6(BTC)4(BTB)]
DOI: 10.1039/C3ce40929e
Adsorbate Carbon Dioxide: InChIKey CURLTUGMZLYLDI-UHFFFAOYSA-N
Temperature: 298 K
Tabular data in the source: 0
pressure (bar)	uptake (cm3(STP)/g)
0.0140693	1.13286
0.0816749	2.25962
0.146464	3.38638
0.198576	4.51314
0.268999	6.76666
0.392942	10.7103
0.494351	15.2174
0.581675	19.161
0.684492	22.5413
0.760548	24.2315
0.86759	29.8653
0.914069	31.5554
0.992943	34.3723
