Adsorption isotherm of Methane on (NH2(CH3)2)3[Zn6(BTC)4(BTB)]
DOI: 10.1039/C3ce40929e
Adsorbate Methane: InChIKey VNWKTOKETHGBQD-UHFFFAOYSA-N
Temperature: 298 K
Tabular data in the source: 0
pressure (bar)	uptake (cm3(STP)/g)
0.00561856	0.00228678
0.138013	0.63609
0.280266	1.69243
0.378858	2.74877
0.491534	3.38257
0.598576	4.43891
0.711252	5.28398
0.821112	5.91778
0.899985	6.76285
0.956323	7.60792
0.983083	8.03046
