Adsorption isotherm of Hydrogen on (NH2(CH3)2)3[Zn6(BTC)4(BTB)]
DOI: 10.1039/C3ce40929e
Adsorbate Hydrogen: InChIKey UFHFLCQGNIYNRP-UHFFFAOYSA-N
Temperature: 87 K
Tabular data in the source: 0
pressure (bar)	uptake (wt%)
0.0112524	0.00213554
0.0309707	0.0359384
0.0577312	0.0824172
0.107027	0.150023
0.153506	0.215516
0.221112	0.29791
0.274633	0.359178
0.353506	0.439459
0.439421	0.521854
0.557731	0.619037
0.628154	0.676079
0.705619	0.731009
0.798576	0.788051
0.895759	0.855657
