Adsorption isotherm of Methane on (NH2(CH3)2)3[Zn6(BTC)4(BTB)]
DOI: 10.1039/C3ce40929e
Adsorbate Methane: InChIKey VNWKTOKETHGBQD-UHFFFAOYSA-N
Temperature: 195 K
Tabular data in the source: 0
pressure (bar)	uptake (cm3(STP)/g)
0.00561856	1.9037
0.0464636	10.5657
0.0929425	20.284
0.15914	34.0164
0.219703	45.4248
0.261957	53.2417
0.325337	63.3826
0.387309	72.4671
0.433788	79.4389
0.538013	93.8051
0.621112	103.312
0.745055	117.256
0.829562	125.284
0.947872	136.481
0.974633	138.594
