Adsorption isotherm of Nitrogen on Sod-ZMOF
DOI: 10.1016/j.ijhydene.2010.02.114
Adsorbate Nitrogen: InChIKey IJGRMHOSHXDMSA-UHFFFAOYSA-N
Temperature: 77 K
Tabular data in the source: 0
pressure (bar)	uptake (cm3(STP)/g)
0.00351155	80.3421
0.0209905	88.499
0.0620662	92.5774
0.111007	94.6166
0.165192	97.8211
0.263075	101.608
0.361831	104.521
0.461461	107.143
0.661596	113.843
0.86173	119.961
