Adsorption isotherm of Hydrogen on 4K+Me-SodZMOF
DOI: 10.1016/j.ijhydene.2010.02.114
Adsorbate Hydrogen: InChIKey UFHFLCQGNIYNRP-UHFFFAOYSA-N
Temperature: 77 K
Tabular data in the source: 0
pressure (bar)	uptake (wt%)
0.0219712	0.158546
0.0802345	0.303039
0.182195	0.419566
0.662868	0.536092
1.49312	0.613
3.53234	0.710882
5.01805	0.778468
6.50376	0.82974
8.48472	0.867028
9.00909	0.864698
9.9413	0.897325
