Adsorption isotherm of Hydrogen on Na+Me-SodZMOF
DOI: 10.1016/j.ijhydene.2010.02.114
Adsorbate Hydrogen: InChIKey UFHFLCQGNIYNRP-UHFFFAOYSA-N
Temperature: 77 K
Tabular data in the source: 0
pressure (bar)	uptake (wt%)
0.0487278	0.475102
0.155544	0.616487
0.388597	0.770303
0.874125	0.894598
1.50531	0.961406
3.00074	1.04686
4.9914	1.10435
6.47711	1.14319
8.46778	1.17582
9.49709	1.1898
