Adsorption isotherm of Nitrogen on Na+Me-SodZMOF
DOI: 10.1016/j.ijhydene.2010.02.114
Adsorbate Nitrogen: InChIKey IJGRMHOSHXDMSA-UHFFFAOYSA-N
Temperature: 77 K
Tabular data in the source: 0
pressure (bar)	uptake (cm3(STP)/g)
0	87.625
0.0244863	94.9079
0.0629401	99.569
0.113629	103.939
0.213259	109.765
0.360957	117.048
0.461461	120.835
0.610906	126.661
0.762974	132.488
0.860856	136.566
