Adsorption isotherm of Hydrogen on 4Li+Me-SodZMOF
DOI: 10.1016/j.ijhydene.2010.02.114
Adsorbate Hydrogen: InChIKey UFHFLCQGNIYNRP-UHFFFAOYSA-N
Temperature: 77 K
Tabular data in the source: 0
pressure (bar)	uptake (wt%)
0	0.221851
0.0584383	0.46578
0.136123	0.543464
0.233228	0.708155
0.514834	0.810698
0.97123	0.894598
2.00055	0.973836
3.48626	1.03288
5.51577	1.09658
6.99177	1.1292
8.00167	1.14474
