Adsorption isotherm of Nitrogen on 4Na+Me-SodZMOF
DOI: 10.1016/j.ijhydene.2010.02.114
Adsorbate Nitrogen: InChIKey IJGRMHOSHXDMSA-UHFFFAOYSA-N
Temperature: 77 K
Tabular data in the source: 0
pressure (bar)	uptake (cm3(STP)/g)
0.00176365	121.709
0.0026376	95.4905
0.0026376	151.423
0.0096292	173.563
0.0209905	184.051
0.0690578	201.821
0.250839	224.252
0.44573	242.605
0.69568	265.619
0.89494	283.39
