Adsorption isotherm of Nitrogen on 4K+Me-SodZMOF
DOI: 10.1016/j.ijhydene.2010.02.114
Adsorbate Nitrogen: InChIKey IJGRMHOSHXDMSA-UHFFFAOYSA-N
Temperature: 77 K
Tabular data in the source: 0
pressure (bar)	uptake (cm3(STP)/g)
0.0105031	33.1488
0.0550746	40.1404
0.111881	46.2581
0.187915	51.7931
0.31289	61.9891
0.41252	68.6894
0.513024	75.3897
0.614402	84.4205
0.761226	95.1992
0.862604	103.356
