Adsorption isotherm of Hydrogen on 4Na+Me-SodZMOF
DOI: 10.1016/j.ijhydene.2010.02.114
Adsorbate Hydrogen: InChIKey UFHFLCQGNIYNRP-UHFFFAOYSA-N
Temperature: 77 K
Tabular data in the source: 0
pressure (bar)	uptake (wt%)
0.0195961	0.417615
0.0390172	0.630471
0.106991	0.792054
0.369176	1.00802
0.980941	1.14163
2.00055	1.23796
3.49597	1.32342
4.9914	1.38712
6.49653	1.45082
8.00167	1.47878
