Adsorption isotherm of Hydrogen on Sod-ZMOF
DOI: 10.1016/j.ijhydene.2010.02.114
Adsorbate Hydrogen: InChIKey UFHFLCQGNIYNRP-UHFFFAOYSA-N
Temperature: 77 K
Tabular data in the source: 0
pressure (bar)	uptake (wt%)
0.0584383	0.559001
0.0584383	0.70194
0.184675	0.886829
0.320623	0.990926
0.718756	1.13076
2.01026	1.27059
3.9815	1.37158
4.9914	1.40421
7.51614	1.4648
9.95349	1.51141
