Adsorption isotherm of Nitrogen on 4Li+Me-SodZMOF
DOI: 10.1016/j.ijhydene.2010.02.114
Adsorbate Nitrogen: InChIKey IJGRMHOSHXDMSA-UHFFFAOYSA-N
Temperature: 77 K
Tabular data in the source: 0
pressure (bar)	uptake (cm3(STP)/g)
0.0026376	70.7286
0.00875525	75.3897
0.0209905	78.0116
0.0839149	84.7118
0.189663	91.4121
0.360957	99.2777
0.514772	105.104
0.661596	110.93
0.762974	114.717
0.811041	118.796
0.862604	124.04
