Adsorption isotherm of Nitrogen on HKUST-1@PS_33
DOI: 10.1002/adma.201403827
Article source: Figure 2d
Adsorbate Nitrogen: InChIKey IJGRMHOSHXDMSA-UHFFFAOYSA-N
Kind: experiment
Temperature: 77 K
Tabular data in the source: 0
pressure (bar)	uptake (cm3(STP)/g)
0.004385	13.3528
0.030992	13.4711
0.050915	22.4485
0.055388	12.098
0.079772	13.6879
0.101917	21.1937
0.126329	15.3763
0.146257	22.8723
0.159588	15.5241
0.177331	14.1215
0.188396	20.0966
0.20171	17.1928
0.23498	14.3777
0.243822	21.8244
0.25049	17.4096
0.254941	12.9849
0.283754	16.0759
0.290384	22.0313
0.305932	14.693
0.330317	16.2829
0.341381	22.258
0.356935	13.4382
0.379096	16.4997
0.390155	23.9562
0.403486	16.6081
0.430093	16.7263
0.438946	21.2101
0.456695	18.3261
0.483313	15.4814
0.494372	22.9379
0.505486	15.5799
0.527647	18.6414
0.5365	23.1252
0.556477	17.288
0.58309	15.9248
0.589714	23.3617
0.603034	18.9764
0.631864	17.6231
0.638494	23.5785
0.654026	20.6846
0.676209	17.8202
0.682844	22.2941
0.707245	19.4396
0.727217	15.0839
0.731624	22.5109
0.756019	21.1379
0.77598	19.7451
0.780404	22.7277
0.802582	21.3448
0.826966	22.9347
0.826983	18.4903
0.858008	23.0726
0.875768	17.2256
0.882398	23.181
0.902348	24.7512
0.924531	21.8868
0.951138	22.0051
0.977729	26.5677
