Adsorption isotherm of Methane on CuBTC
DOI: 10.1002/adma.201403827
Article source: Figure 3b
Adsorbate Methane: InChIKey VNWKTOKETHGBQD-UHFFFAOYSA-N
Kind: experiment
Temperature: 295 K
Tabular data in the source: 0
pressure (bar)	uptake (cm3(STP)/g)
0.006085	1.12281
0.032454	0.842105
0.054767	2.38596
0.060852	1.35673
0.083164	1.91813
0.107505	3.55556
0.11359	2.47953
0.137931	3.08772
0.156187	4.63158
0.160243	3.55556
0.182556	4.07018
0.206897	4.5848
0.233266	5.05263
0.255578	5.56725
0.257606	6.64327
0.281947	5.9883
0.308316	6.45614
0.310345	7.53216
0.330629	6.87719
0.356998	7.29825
0.359026	8.42105
0.37931	7.76608
0.40568	8.18713
0.409736	9.21637
0.432049	8.65497
0.454361	9.02924
0.462475	10.0117
0.48073	9.45029
0.505071	9.87135
0.511156	10.7602
0.529412	10.2924
0.553753	10.6667
0.563895	11.5088
0.580122	10.9942
0.606491	11.4152
0.612576	12.2573
0.628803	11.7427
0.653144	12.1637
0.665314	12.9123
0.679513	12.4912
0.703854	12.8655
0.716024	13.5673
0.730223	13.2398
0.754564	13.5673
0.766734	14.1754
0.778905	13.8947
0.805274	14.2222
0.819473	14.7836
0.829615	14.5497
0.855984	14.8772
0.868154	15.345
0.880325	15.2047
0.904665	15.5322
0.920892	15.9064
0.929006	15.8129
0.951318	16.1404
0.969574	16.4678
0.981744	16.4678
