Adsorption isotherm of Carbon Dioxide on PS
DOI: 10.1002/adma.201403827
Article source: Figure 3a
Adsorbate Carbon Dioxide: InChIKey CURLTUGMZLYLDI-UHFFFAOYSA-N
Kind: experiment
Temperature: 295 K
Tabular data in the source: 0
pressure (bar)	uptake (cm3(STP)/g)
0.002268	-1.34328
0.006582	0.537313
0.028608	0.537313
0.055027	0.80597
0.081445	1.07463
0.110053	1.61194
0.12989	1.34328
0.160714	1.61194
0.180551	1.34328
0.202577	1.34328
0.209172	1.61194
0.228996	1.61194
0.253225	1.61194
0.257591	2.41791
0.27963	2.14925
0.308265	2.14925
0.312644	2.68657
0.325886	2.14925
0.350115	2.14925
0.361115	2.41791
0.376534	2.41791
0.39856	2.41791
0.411736	3.22388
0.431587	2.68657
0.453613	2.68657
0.462397	3.22388
0.480045	2.68657
0.499855	2.95522
0.513045	3.49254
0.526274	3.22388
0.550516	2.95522
0.565908	3.49254
0.576948	2.95522
0.603353	3.49254
0.616556	3.76119
0.627596	3.22388
0.649609	3.49254
0.665001	4.02985
0.676041	3.49254
0.702459	3.76119
0.715649	4.29851
0.728878	4.02985
0.750904	4.02985
0.766309	4.29851
0.777349	3.76119
0.797146	4.29851
0.819173	4.29851
0.823591	4.02985
0.845605	4.29851
0.869834	4.29851
0.878644	4.29851
0.900671	4.29851
0.922684	4.56716
0.927102	4.29851
0.9469	4.83582
0.968926	4.83582
0.979953	4.56716
