Adsorption isotherm of Nitrogen on CuBTC
DOI: 10.1002/adma.201403827
Article source: Figure 2d
Adsorbate Nitrogen: InChIKey IJGRMHOSHXDMSA-UHFFFAOYSA-N
Kind: experiment
Temperature: 77 K
Tabular data in the source: 0
pressure (bar)	uptake (cm3(STP)/g)
0.004435	408.902
0.015521	416.342
0.035477	425.29
0.055432	428.312
0.05765	435.726
0.079823	440.237
0.101996	449.191
0.10643	444.76
0.128603	452.233
0.157428	456.763
0.177384	459.785
0.203991	459.864
0.206208	464.315
0.228381	464.38
0.252772	462.971
0.254989	465.941
0.277162	467.488
0.305987	470.536
0.312639	472.037
0.325942	470.595
0.35255	472.156
0.361419	473.663
0.379157	472.235
0.403548	476.751
0.412417	476.778
0.427938	476.824
0.452328	478.377
0.463415	478.41
0.48337	479.951
0.498891	481.478
0.509978	484.474
0.529933	484.533
0.552106	484.599
0.56541	486.12
0.574279	486.146
0.59867	486.218
0.614191	490.709
0.625277	487.779
0.651885	489.339
0.667406	490.866
0.676275	489.411
0.700665	492.446
0.711752	493.961
0.722838	495.475
0.747228	495.547
0.764967	500.044
0.773836	497.108
0.796009	500.136
0.815965	503.158
0.822616	501.697
0.844789	504.725
0.86918	512.205
0.871397	507.767
0.895787	516.728
0.91796	521.238
0.924612	530.147
0.946785	539.102
0.966741	579.161
