Adsorption isotherm of Nitrogen on HKUST-1@PS_50
DOI: 10.1002/adma.201403827
Article source: Figure 2d
Adsorbate Nitrogen: InChIKey IJGRMHOSHXDMSA-UHFFFAOYSA-N
Kind: experiment
Temperature: 77 K
Tabular data in the source: 0
pressure (bar)	uptake (cm3(STP)/g)
0.006637	117.337
0.030974	120.343
0.050885	153.046
0.057522	123.353
0.077434	126.353
0.099557	156.088
0.123894	127.907
0.132743	129.405
0.14823	157.646
0.15708	130.926
0.183628	130.966
0.192478	159.197
0.20354	130.995
0.230088	134.005
0.243363	159.272
0.254425	132.556
0.280973	135.566
0.294248	159.348
0.30531	137.087
0.327434	137.12
0.34292	160.905
0.353982	137.159
0.380531	138.684
0.391593	140.186
0.431416	143.215
0.442478	162.538
0.455752	146.221
0.477876	149.225
0.486726	162.604
0.502212	152.231
0.528761	150.785
0.539823	165.653
0.553097	152.307
0.577434	155.313
0.586283	164.237
0.60177	153.864
0.628319	156.874
0.634956	167.28
0.654867	156.913
0.681416	156.953
0.688053	167.358
0.70354	158.471
0.730088	159.995
0.734513	167.427
0.754425	158.546
0.776549	161.549
0.783186	168.985
0.803097	161.589
0.829646	163.113
0.831858	170.542
0.85177	164.631
0.878319	166.156
0.880531	170.615
0.904867	169.166
0.929204	170.687
0.95354	173.693
0.977876	176.7
