Adsorption isotherm of Methane on HKUST-1@PS_63
DOI: 10.1002/adma.201403827
Article source: Figure 3b
Adsorbate Methane: InChIKey VNWKTOKETHGBQD-UHFFFAOYSA-N
Kind: experiment
Temperature: 295 K
Tabular data in the source: 0
pressure (bar)	uptake (cm3(STP)/g)
0.006073	0.006073
0.032389	0.606931
0.054656	0.980208
0.05668	1.73075
0.082996	1.39984
0.107287	1.81984
0.111336	2.52328
0.133603	2.0989
0.151822	2.47256
0.161943	3.26926
0.178138	2.9393
0.206478	3.312
0.212551	3.96832
0.234818	3.59087
0.257085	4.66796
0.259109	4.01088
0.281377	4.29031
0.301619	4.61686
0.313765	5.46029
0.32996	4.98956
0.352227	5.40976
0.3583	6.15992
0.378543	5.73574
0.406883	6.10845
0.41498	6.90534
0.427126	6.48191
0.453441	6.71405
0.463563	7.51075
0.477733	7.04021
0.5	7.31965
0.516194	8.25654
0.52834	7.64543
0.552632	8.06544
0.564777	8.90888
0.576923	8.20393
0.59919	8.62412
0.615385	9.46718
0.625506	8.90318
0.647773	9.32338
0.663968	10.1195
0.678138	9.46129
0.698381	9.83476
0.716599	10.6776
0.724696	10.0669
0.751012	10.3929
0.769231	11.2357
0.777328	10.7188
0.795547	10.9987
0.815789	11.8413
0.821862	11.2308
0.848178	11.5568
0.866397	12.4466
0.878543	11.8824
0.898785	12.2089
0.917004	12.911
0.923077	12.3943
0.945344	12.6738
0.973684	12.9995
