Adsorption isotherm of Methane on PS
DOI: 10.1002/adma.201403827
Article source: Figure 3b
Adsorbate Methane: InChIKey VNWKTOKETHGBQD-UHFFFAOYSA-N
Kind: experiment
Temperature: 295 K
Tabular data in the source: 0
pressure (bar)	uptake (cm3(STP)/g)
0.004049	0.004049
0.034413	0.138741
0.05668	0.558752
0.060729	0.184293
0.08502	0.276724
0.105263	0.837181
0.109312	0.322371
0.133603	0.461586
0.15587	0.507328
0.180162	0.552975
0.204453	0.645406
0.208502	1.06627
0.230769	0.644175
0.253036	0.7367
0.259109	1.15747
0.277328	0.829131
0.303644	0.921467
0.309717	1.24867
0.32996	0.873452
0.354251	0.965883
0.362348	1.38656
0.382591	1.10491
0.404858	1.15065
0.410931	1.52463
0.42915	1.24308
0.455466	1.33542
0.459514	1.7095
0.479757	1.38106
0.502024	1.42681
0.512146	1.70703
0.52834	1.51914
0.548583	1.56498
0.562753	1.84502
0.578947	1.61034
0.603239	1.65599
0.611336	1.93631
0.62753	1.74842
0.651822	1.79407
0.663968	2.02742
0.676113	1.83971
0.700405	1.93214
0.716599	2.16531
0.726721	1.9777
0.751012	2.07013
0.765182	2.2566
0.779352	2.0688
0.799595	2.11464
0.815789	2.30102
0.825911	2.16019
0.850202	2.20584
0.870445	2.34524
0.87247	2.29836
0.896761	2.39079
0.921053	2.53001
0.925101	2.43625
0.949393	2.4819
0.969636	2.6213
0.975709	2.52745
