Adsorption isotherm of Nitrogen on HKUST-1@PS_63
DOI: 10.1002/adma.201403827
Article source: Figure 2d
Adsorbate Nitrogen: InChIKey IJGRMHOSHXDMSA-UHFFFAOYSA-N
Kind: experiment
Temperature: 77 K
Tabular data in the source: 0
pressure (bar)	uptake (cm3(STP)/g)
0.026667	357.037
0.053333	362.963
0.055556	382.222
0.08	370.37
0.104444	374.815
0.106667	392.593
0.131111	379.259
0.157778	382.222
0.16	398.519
0.18	383.704
0.204444	385.185
0.211111	402.963
0.231111	388.148
0.257778	389.63
0.262222	405.926
0.282222	391.111
0.308889	394.074
0.313333	407.407
0.333333	397.037
0.36	397.037
0.366667	410.37
0.384444	397.037
0.411111	400
0.417778	411.852
0.435556	401.481
0.46	402.963
0.471111	414.815
0.486667	404.444
0.511111	405.926
0.524444	416.296
0.537778	407.407
0.562222	407.407
0.575556	419.259
0.588889	408.889
0.613333	408.889
0.628889	419.259
0.64	410.37
0.664444	411.852
0.68	420.741
0.691111	413.333
0.713333	414.815
0.731111	422.222
0.74	416.296
0.766667	417.778
0.784444	423.704
0.788889	416.296
0.815556	420.741
0.837778	425.185
0.84	420.741
0.866667	423.704
0.888889	428.148
0.893333	422.222
0.917778	425.185
0.942222	429.63
0.944444	428.148
0.966667	432.593
0.988889	441.481
