Adsorption isotherm of Carbon Dioxide on HKUST-1@PS_63
DOI: 10.1002/adma.201403827
Article source: Figure 3a
Adsorbate Carbon Dioxide: InChIKey CURLTUGMZLYLDI-UHFFFAOYSA-N
Kind: experiment
Temperature: 295 K
Tabular data in the source: 0
pressure (bar)	uptake (cm3(STP)/g)
0.002262	2.41791
0.006628	0.80597
0.033112	2.95522
0.055237	6.98507
0.057394	5.10448
0.07946	6.71642
0.105937	8.59701
0.106003	11.2836
0.130219	10.7463
0.152291	12.6269
0.156762	15.3134
0.178756	13.9701
0.203025	15.5821
0.205306	18.806
0.229502	17.4627
0.253784	19.6119
0.258255	22.2985
0.282458	21.2239
0.302314	22.5672
0.31121	26.0597
0.328786	24.1791
0.353054	25.791
0.36195	29.2836
0.377329	27.6716
0.401598	29.2836
0.410487	32.5075
0.428062	30.6269
0.452331	32.2388
0.461227	35.7313
0.476606	34.1194
0.503071	35.4627
0.514169	38.9552
0.527346	37.3433
0.551614	38.9552
0.567105	41.9104
0.575876	40.2985
0.608942	41.3731
0.617838	44.8657
0.6244	42.9851
0.653067	44.3284
0.668565	47.5522
0.675133	45.9403
0.697186	47.0149
0.717089	50.2388
0.728049	48.0896
0.756723	49.7015
0.77222	52.9254
0.778789	51.3134
0.798632	52.1194
0.820731	55.0746
0.825097	53.4627
0.851568	55.0746
0.869248	57.4925
0.880235	56.4179
0.897889	57.7612
0.919962	59.6418
0.928753	58.8358
0.953021	60.4478
0.972878	61.791
0.979479	61.5224
