Adsorption isotherm of Carbon Dioxide on CuBTC
DOI: 10.1002/adma.201403827
Article source: Figure 3a
Adsorbate Carbon Dioxide: InChIKey CURLTUGMZLYLDI-UHFFFAOYSA-N
Kind: experiment
Temperature: 295 K
Tabular data in the source: 0
pressure (bar)	uptake (cm3(STP)/g)
0.006753	2.96407
0.035533	5.92814
0.053299	8.89222
0.05566	12.1257
0.084347	13.2036
0.108708	15.8982
0.108866	19.1317
0.137527	19.6707
0.157482	22.3653
0.159843	25.5988
0.188478	25.5988
0.210623	28.024
0.219618	31.7964
0.228376	30.7186
0.263776	33.9521
0.270556	37.4551
0.290327	36.3772
0.314701	39.3413
0.323683	42.8443
0.341251	41.7665
0.367828	44.7305
0.374581	47.6946
0.38996	46.8862
0.418713	49.3114
0.427682	52.5449
0.443048	51.4671
0.471814	54.1617
0.48077	57.1257
0.496149	56.3174
0.522686	58.4731
0.533844	61.4371
0.549236	60.8982
0.573545	62.515
0.584716	65.7485
0.602298	64.9401
0.626632	67.0958
0.63998	69.7904
0.650954	68.982
0.677504	71.4072
0.690825	73.5629
0.704015	73.024
0.728349	75.1796
0.743873	77.3353
0.752671	77.0659
0.779195	78.9521
0.796908	80.8383
0.805706	80.5689
0.834432	82.4551
0.849956	84.6108
0.860957	84.3413
0.885265	85.9581
0.902978	87.8443
0.911762	87.3054
0.936071	88.9222
0.960405	91.0778
0.962595	90.8084
0.986903	92.4251
1.00679	93.7725
1.01562	94.0419
