Adsorption isotherm of Nitrogen on FJI-3
DOI: 10.1039/C3cc48556k
Adsorbate Nitrogen: InChIKey IJGRMHOSHXDMSA-UHFFFAOYSA-N
Temperature: 273 K
Tabular data in the source: 0
pressure (bar)	uptake (cm3(STP)/g)
0.0505618	0.198439
0.0692884	0.130505
0.093633	0.424052
0.116105	0.342531
0.146067	0.615698
0.170412	0.718315
0.20412	0.786964
0.222846	1.10089
0.250936	0.99899
0.277154	1.09481
0.307116	1.55891
0.333333	1.27287
0.361423	1.17097
0.385768	1.46452
0.413858	1.36262
0.438202	1.2743
0.468165	1.35654
0.488764	1.47274
0.520599	1.16632
0.546816	1.45308
0.573034	1.35797
0.602996	1.4402
0.627341	1.73375
0.653558	1.63864
0.681648	1.53674
0.705993	1.63936
0.73221	1.35332
0.756554	1.45594
0.78839	1.72231
0.814607	2.00906
0.840824	1.72303
0.867041	1.62792
0.895131	1.90788
0.921348	1.81277
0.951311	1.51314
0.975655	1.61576
0.998127	1.9161
1.02622	2.00513
1.05243	1.71909
1.07865	1.62398
