Adsorption isotherm of Nitrogen on FJI-3
DOI: 10.1039/C3cc48556k
Adsorbate Nitrogen: InChIKey IJGRMHOSHXDMSA-UHFFFAOYSA-N
Temperature: 77 K
Tabular data in the source: 0
pressure (bar)	uptake (cm3(STP)/g)
0.00236827	10.3359
0.00302887	21.1886
0.0035951	30.491
0.00422424	40.8269
0.00488484	51.6796
0.00551399	62.0155
0.00617459	72.8682
0.00839906	137.984
0.00847995	82.1705
0.0125873	92.5065
0.0130907	100.775
0.0221638	106.977
0.0234446	156.589
0.0431412	165.891
0.0677407	170.026
0.0817167	171.059
0.10091	172.093
0.120166	174.16
0.142838	175.194
0.16377	176.227
0.179423	176.227
0.20377	176.227
0.221193	176.744
0.240355	177.261
0.262901	176.227
0.280355	177.261
0.301256	177.778
0.318679	178.295
0.344797	178.811
0.363928	178.811
0.384797	178.811
0.403928	178.811
0.423058	178.811
0.438742	179.328
0.464829	179.328
0.484022	180.362
0.499674	180.362
0.520575	180.879
0.541413	180.362
0.563991	179.845
0.583184	180.879
0.600575	180.879
0.617998	181.395
0.637128	181.395
0.664986	181.912
0.680638	181.912
0.699769	181.912
0.722409	182.429
0.738061	182.429
0.75893	182.429
0.783215	181.395
0.798899	181.912
0.821539	182.429
0.844179	182.946
0.861665	184.496
0.887783	185.013
0.905143	184.496
0.922566	185.013
0.938218	185.013
0.959056	184.496
