Adsorption isotherm of Nitrogen on FJI-3
DOI: 10.1039/C3cc48556k
Adsorbate Nitrogen: InChIKey IJGRMHOSHXDMSA-UHFFFAOYSA-N
Temperature: 77 K
Tabular data in the source: 0
pressure (bar)	uptake (cm3(STP)/g)
0.112131	185.013
0.132969	184.496
0.152194	186.047
0.167878	186.563
0.188779	187.08
0.206107	186.047
0.221822	187.08
0.239182	186.563
0.258407	188.114
0.274059	188.114
0.298344	187.08
0.310581	188.114
0.327972	188.114
0.348842	188.114
0.368004	188.63
0.388842	188.114
0.407972	188.114
0.423656	188.63
0.439308	188.63
0.45496	188.63
0.470581	188.114
0.49496	188.63
0.51583	188.63
0.533221	188.63
0.55232	188.114
0.57319	188.114
0.583593	187.597
0.599245	187.597
0.625363	188.114
0.635767	187.597
0.661885	188.114
0.680953	187.08
0.698313	186.563
0.717443	186.563
0.731356	186.563
0.748779	187.08
0.769648	187.08
0.78704	187.08
0.80266	186.563
0.823498	186.047
0.835672	186.047
0.860052	186.563
0.884368	186.047
0.89825	185.53
0.919119	185.53
0.931293	185.53
0.945238	186.047
0.966076	185.53
0.983404	184.496
1.00604	185.013
