Adsorption isotherm of Carbon Dioxide on FJI-3
DOI: 10.1039/C3cc48556k
Adsorbate Carbon Dioxide: InChIKey CURLTUGMZLYLDI-UHFFFAOYSA-N
Temperature: 273 K
Tabular data in the source: 0
pressure (bar)	uptake (cm3(STP)/g)
0.0168539	2.23003
0.0411985	4.81475
0.071161	8.7156
0.0955056	11.6822
0.121723	14.451
0.146067	17.7995
0.172285	20.1865
0.200375	22.9485
0.226592	25.1446
0.256554	28.2817
0.280899	30.6755
0.307116	32.8716
0.335206	35.0608
0.363296	36.8682
0.38764	38.8802
0.413858	40.5034
0.438202	42.1335
0.466292	44.1318
0.494382	45.7483
0.520599	47.1806
0.548689	48.7971
0.574906	50.2295
0.601124	51.4709
0.627341	53.476
0.657303	54.7038
0.677903	56.3475
0.709738	57.1866
0.73221	58.2507
0.758427	59.683
0.786517	60.7267
0.812734	61.9681
0.840824	62.8209
0.867041	63.8714
0.891386	65.1196
0.917603	65.7882
0.947566	66.8251
0.97191	67.5005
1	68.7351
1.02434	69.2196
1.05243	70.2632
1.08052	71.116
