Adsorption isotherm of Methane on FJI-3
DOI: 10.1039/C3cc48556k
Adsorbate Methane: InChIKey VNWKTOKETHGBQD-UHFFFAOYSA-N
Temperature: 273 K
Tabular data in the source: 0
pressure (bar)	uptake (cm3(STP)/g)
0.0187266	0.695789
0.0468165	1.35761
0.0692884	1.65795
0.0955056	1.94471
0.117978	2.43598
0.146067	2.90687
0.172285	3.38455
0.200375	3.66451
0.230337	4.12861
0.250936	4.62667
0.282772	4.89305
0.305243	5.00246
0.329588	5.67787
0.361423	5.94424
0.38764	6.04006
0.41573	6.51095
0.440075	6.99543
0.466292	7.47312
0.492509	7.75987
0.522472	8.03304
0.546816	8.32658
0.571161	8.81106
0.601124	9.27516
0.625468	9.18685
0.655431	9.84187
0.679775	10.5173
0.707865	10.6063
0.728464	10.7225
0.7603	10.9889
0.786517	11.2756
0.810861	11.7601
0.840824	12.4151
0.865169	12.3268
0.893258	12.034
0.921348	12.5049
0.947566	12.7916
0.977528	13.0648
0.998127	13.3719
1.02809	13.836
1.05243	13.9387
1.07678	14.0413
