Adsorption isotherm of Nitrogen on FJI-3
DOI: 10.1039/C3cc48556k
Adsorbate Nitrogen: InChIKey IJGRMHOSHXDMSA-UHFFFAOYSA-N
Temperature: 87 K
Tabular data in the source: 0
pressure (bar)	uptake (cm3(STP)/g)
0.0540641	14.6725
0.0727697	20.3802
0.09565	26.0847
0.312304	56.1639
0.766889	87.2869
0.996351	96.9203
1.02764	98.5312
1.05475	100.145
