Adsorption isotherm of Nitrogen on FJI-3
DOI: 10.1039/C3cc48556k
Adsorbate Nitrogen: InChIKey IJGRMHOSHXDMSA-UHFFFAOYSA-N
Temperature: 77 K
Tabular data in the source: 0
pressure (bar)	uptake (cm3(STP)/g)
0.0765689	47.3528
0.0952803	52.6518
0.409701	106.77
0.47018	110.403
0.993684	138.612
1.0229	138.998
1.05837	139.788
