Adsorption isotherm of Carbon Dioxide on  [Cu3L2(mu3-OH)2(mu2-H2O)]Â·2DMA
DOI: 10.1039/C4cc06588c
Adsorbate Carbon Dioxide: InChIKey CURLTUGMZLYLDI-UHFFFAOYSA-N
Temperature: 298 K
Tabular data in the source: 0
pressure (bar)	uptake (cm3(STP)/g)
0.51356	0.25796
1.54468	1.1655
2.7102	2.72496
3.6136	3.63328
4.1325	4.4134
5.41772	5.18884
5.67984	5.83998
6.45551	6.74908
8.77323	8.5626
11.8573	10.3714
15.1994	12.4398
18.2834	14.2486
21.2357	15.6666
24.1907	17.3457
27.0166	18.895
29.9662	20.052
32.9172	21.3394
35.8669	22.4963
38.9415	23.3914
41.6358	24.5499
44.7118	25.5755
47.9169	26.7308
50.7361	27.6274
54.1966	28.7812
56.7591	29.5489
59.5796	30.576
62.6544	31.4711
65.9844	32.3646
