Adsorption isotherm of Carbon Dioxide on  [Cu3L2(mu3-OH)2(mu2-H2O)]Â·2DMA
DOI: 10.1039/C4cc06588c
Adsorbate Carbon Dioxide: InChIKey CURLTUGMZLYLDI-UHFFFAOYSA-N
Temperature: 273 K
Tabular data in the source: 0
pressure (bar)	uptake (cm3(STP)/g)
0.854294	4.429
1.20796	5.86104
1.4219	7.03357
1.91241	8.20297
2.61975	11.067
2.97125	12.1075
3.80604	13.0119
4.2303	14.7042
6.39837	19.1184
8.2819	22.0998
9.8168	24.5629
11.418	26.503
13.0904	28.834
14.5526	30.6452
16.2906	32.3227
17.7513	33.8728
19.4886	35.4198
21.0185	36.9691
22.7551	38.3856
24.3512	39.4119
25.8112	40.8315
27.6154	41.9861
29.1424	43.0132
30.8076	44.0388
32.2662	45.1973
33.9999	46.0916
35.7336	46.9859
