Adsorption isotherm of Water on Zeolite Na-A
DOI: 10.1080/08927020600934179
Adsorbate Water: InChIKey XLYOFNOQVPJJNP-UHFFFAOYSA-N
Temperature: 378 K
Tabular data in the source: 0
pressure (bar)	uptake (molecules/unitcell)
1.00617e-05	1.59574
1.6876e-05	3.7234
2.48725e-05	5.31915
3.82728e-05	6.91489
0.000103126	10.6383
0.000127923	13.2979
0.00017297	16.4894
0.000244174	20.7447
0.000330157	23.9362
0.000446406	27.6596
0.000603601	31.383
0.00101239	37.234
0.00125583	46.2766
0.0014921	53.7234
0.00169804	59.0426
0.00185089	63.8298
0.00250263	76.5957
0.00284803	82.9787
0.00338386	90.4255
0.00438239	100.532
0.00498725	105.851
0.00543618	110.638
0.00618649	115.957
0.00767409	125.532
0.00873326	132.447
0.0103763	136.17
0.0128714	140.957
0.0166696	145.213
0.0215886	149.468
0.0267798	154.255
0.0346822	158.511
0.0449165	162.766
0.0581709	167.021
0.0721587	171.277
0.0975675	177.66
0.163644	181.915
0.221269	185.106
0.312356	189.362
0.523902	192.553
0.739571	195.745
1.04405	198.404
