Adsorption isotherm of Methanol on Zeolite Na-A
DOI: 10.1080/08927020600934179
Adsorbate Methanol: InChIKey OKKJLVBELUTLKV-UHFFFAOYSA-N
Temperature: 378 K
Tabular data in the source: 0
pressure (bar)	uptake (molecules/unitcell)
0.109626	72.8723
0.278075	71.2766
0.596257	69.1489
0.989305	66.4894
1.15775	61.7021
1.3262	55.8511
1.51337	49.4681
1.64439	44.1489
1.7754	40.4255
1.8877	36.1702
2	31.9149
