Adsorption isotherm of Methanol on Zeolite Na-A
DOI: 10.1080/08927020600934179
Adsorbate Methanol: InChIKey OKKJLVBELUTLKV-UHFFFAOYSA-N
Temperature: 298 K
Tabular data in the source: 0
pressure (bar)	uptake (molecules/unitcell)
6.7e-05	30.6748
0.000135487	57.6687
0.000143014	38.6503
0.000150299	20.2454
0.000447011	70.5521
0.00147434	74.8466
0.00234432	76.6871
0.00669715	78.5276
0.0115252	79.7546
0.0143745	80.3681
0.0169867	80.3681
0.0251395	80.9816
0.0296511	81.5951
0.0313097	90.7975
