Adsorption isotherm of Water on Zeolite Na-A
DOI: 10.1080/08927020600934179
Adsorbate Water: InChIKey XLYOFNOQVPJJNP-UHFFFAOYSA-N
Temperature: 378 K
Tabular data in the source: 0
pressure (bar)	uptake (molecules/unitcell)
0.109626	16.4894
0.240642	19.6809
0.390374	23.4043
0.52139	27.1277
0.652406	30.3191
0.802139	34.0426
0.989305	38.8298
1.13904	51.5957
1.19519	56.383
1.25134	61.7021
1.30749	66.4894
1.41979	77.6596
1.49465	84.5745
1.62567	95.7447
1.68182	101.064
1.70053	103.191
1.75668	108.511
1.81283	113.298
1.85027	117.553
1.90642	122.872
2	131.383
