Adsorption isotherm of Methanol on Zeolite Na-A
DOI: 10.1080/08927020600934179
Adsorbate Methanol: InChIKey OKKJLVBELUTLKV-UHFFFAOYSA-N
Temperature: 378 K
Tabular data in the source: 0
pressure (bar)	uptake (molecules/unitcell)
1.18815e-07	2.12766
2.8132e-07	4.25532
5.60609e-07	6.38298
8.26247e-07	7.97872
1.02494e-06	7.97872
1.27139e-06	7.97872
1.71906e-06	11.1702
2.53361e-06	13.8298
3.73413e-06	15.9574
5.50351e-06	18.617
8.84138e-06	22.3404
1.00617e-05	21.8085
1.30308e-05	23.4043
1.54825e-05	27.6596
2.09344e-05	31.9149
2.71119e-05	35.6383
3.66581e-05	39.8936
4.74755e-05	43.617
6.41933e-05	47.8723
0.000107669	54.2553
0.000133558	56.383
0.000180584	59.5745
0.000254929	62.766
0.000359874	65.9574
0.000508019	69.6809
0.00071715	72.3404
0.000889611	76.0638
0.000928774	76.0638
0.0014921	77.6596
0.00229595	79.2553
0.00520688	82.9787
0.0095194	85.6383
0.0134382	86.1702
0.020678	86.7021
0.0318181	87.766
0.0489598	88.2979
0.0753364	88.8298
0.101864	89.3617
0.106351	89.3617
0.18623	90.4255
0.312356	92.0213
0.571058	93.0851
0.957811	94.6809
