Adsorption isotherm of Water on Zeolite Na-A
DOI: 10.1080/08927020600934179
Adsorbate Water: InChIKey XLYOFNOQVPJJNP-UHFFFAOYSA-N
Temperature: 298 K
Tabular data in the source: 0
pressure (bar)	uptake (molecules/unitcell)
0.00055069	8.58896
0.000694433	45.3988
0.000703174	23.3129
0.000777231	36.1963
0.000837933	82.8221
0.00084546	63.8037
0.000908833	103.681
0.00113853	123.313
0.00120579	153.374
0.00183151	172.393
0.00341098	181.595
0.00617851	188.957
0.0113999	196.319
0.01868	201.84
0.0253279	204.908
0.03158	207.975
