Adsorption isotherm of Methane on COF-108
DOI: 10.1021/Jp1044139
Adsorbate Methane: InChIKey VNWKTOKETHGBQD-UHFFFAOYSA-N
Temperature: 298 K
Tabular data in the source: 0
pressure (bar)	uptake (wt%)
2.02312	2.26842
4.04624	4.11098
4.62428	5.38776
9.82659	9.49709
19.9422	16.4386
30.0578	21.9605
40.1734	26.0628
50.289	29.7393
60.4046	32.4221
70.2312	35.1054
80.0578	37.2207
89.8844	39.3361
100.578	41.1664
