Adsorption isotherm of Methane on COF-5
DOI: 10.1021/Jp1044139
Adsorbate Methane: InChIKey VNWKTOKETHGBQD-UHFFFAOYSA-N
Temperature: 298 K
Tabular data in the source: 0
pressure (bar)	uptake (wt%)
6.07595	2.56119
8.10127	3.28358
10.6329	3.74328
13.1646	4.53134
14.4304	4.92537
16.7089	5.3194
20	6.04179
23.5443	6.56716
26.3291	7.09254
29.8734	7.61791
32.9114	8.14328
36.7089	8.40597
40	8.8
42.0253	8.93134
44.3038	9.19403
48.1013	9.58806
52.6582	9.85075
58.7342	10.2448
60.2532	10.2448
65.3165	10.6388
69.8734	10.7701
71.6456	10.9015
78.2278	11.0985
84.8101	11.2299
