Adsorption isotherm of Methane on COF-5
DOI: 10.1021/Jp1044139
Adsorbate Methane: InChIKey VNWKTOKETHGBQD-UHFFFAOYSA-N
Temperature: 298 K
Tabular data in the source: 0
pressure (bar)	uptake (wt%)
3.04569	1.63491
5.07614	2.35382
10.1523	4.24931
19.797	6.60013
29.9492	8.16491
39.8477	9.14058
50	10.0506
59.8985	10.5679
70.0508	10.8232
79.6954	11.4062
89.8477	11.5305
100	11.6548
