Adsorption isotherm of Methane on COF-102
DOI: 10.1021/Jp1044139
Adsorbate Methane: InChIKey VNWKTOKETHGBQD-UHFFFAOYSA-N
Temperature: 298 K
Tabular data in the source: 0
pressure (bar)	uptake (wt%)
4.91329	3.82583
9.82659	7.2258
20.2312	12.7473
30.0578	16.5662
39.8844	19.6752
50.289	21.7898
60.1156	23.6213
69.9422	25.3108
79.7688	26.5745
90.1734	27.5534
100	28.2492
