Adsorption isotherm of Methane on COF-8
DOI: 10.1021/Jp1044139
Adsorbate Methane: InChIKey VNWKTOKETHGBQD-UHFFFAOYSA-N
Temperature: 298 K
Tabular data in the source: 0
pressure (bar)	uptake (wt%)
4.06091	2.0271
4.82234	2.61589
9.89848	4.31495
19.797	6.92751
29.9492	8.42682
39.8477	9.27153
50	10.0506
59.8985	10.1751
69.797	10.4305
79.6954	10.6859
89.5939	10.6794
100	10.8036
