Adsorption isotherm of Methane on MOF-177
DOI: 10.1021/Jp1044139
Adsorbate Methane: InChIKey VNWKTOKETHGBQD-UHFFFAOYSA-N
Temperature: 298 K
Tabular data in the source: 0
pressure (bar)	uptake (wt%)
1.7341	1.13319
2.31214	1.9841
4.04624	2.69142
4.62428	3.25842
10.4046	5.94738
20.2312	10.3341
30.0578	13.727
39.8844	16.5522
50	18.8091
60.4046	20.4978
70.2312	22.1874
80.3468	23.5926
90.1734	24.7143
100	25.836
