Adsorption isotherm of Methane on COF-1
DOI: 10.1021/Jp1044139
Adsorbate Methane: InChIKey VNWKTOKETHGBQD-UHFFFAOYSA-N
Temperature: 298 K
Tabular data in the source: 0
pressure (bar)	uptake (wt%)
0.581395	1.10503
2.03488	2.01235
3.19767	2.7619
4.06977	3.39313
4.94186	3.98489
9.88372	5.95662
20.3488	8.0446
30.2326	9.02754
40.1163	9.69469
50.2907	10.1249
60.1744	10.4762
70.0581	10.7092
80.2326	10.9025
90.407	11.0169
100.291	11.092
