Adsorption isotherm of Methane on COF-1
DOI: 10.1021/Jp1044139
Adsorbate Methane: InChIKey VNWKTOKETHGBQD-UHFFFAOYSA-N
Temperature: 298 K
Tabular data in the source: 0
pressure (bar)	uptake (wt%)
0.581395	1.22345
0.872093	2.99966
2.03488	5.28867
3.19767	6.74874
4.06977	7.89313
4.94186	8.48489
10.1744	9.66704
20.0581	10.3342
30.2326	10.5275
39.8256	10.6422
50.2907	10.717
60.1744	10.7526
80.2326	10.7841
90.407	10.8196
100	10.8158
