Adsorption isotherm of Methane on COF-105
DOI: 10.1021/Jp1044139
Adsorbate Methane: InChIKey VNWKTOKETHGBQD-UHFFFAOYSA-N
Temperature: 298 K
Tabular data in the source: 0
pressure (bar)	uptake (wt%)
4.04624	4.11098
4.91329	5.5293
9.82659	9.781
19.6532	16.5809
29.7688	21.9609
39.8844	26.0633
50.289	29.5974
60.1156	32.4225
70.2312	34.6795
80.3468	36.9364
90.1734	38.6259
100.289	40.315
