Adsorption isotherm of Methane on COF-1
DOI: 10.1021/Jp1044139
Adsorbate Methane: InChIKey VNWKTOKETHGBQD-UHFFFAOYSA-N
Temperature: 298 K
Tabular data in the source: 0
pressure (bar)	uptake (wt%)
1.15607	2.96457
2.02312	5.23532
3.17919	6.81187
4.04624	7.88388
5.20231	8.45098
9.82659	9.70989
20.2312	10.3342
30.0578	10.5173
40.1734	10.574
49.711	10.6311
60.1156	10.7507
70.2312	10.7443
80.3468	10.738
90.4624	10.7947
100	10.7886
