Adsorption isotherm of Methane on COF-10
DOI: 10.1021/Jp1044139
Adsorbate Methane: InChIKey VNWKTOKETHGBQD-UHFFFAOYSA-N
Temperature: 298 K
Tabular data in the source: 0
pressure (bar)	uptake (wt%)
1.15607	0.693277
1.7341	1.38692
2.89017	2.0171
5.49133	3.27729
10.1156	5.54567
20.2312	8.94623
30.0578	11.2744
40.1734	13.1608
50.289	14.5424
60.1156	15.798
70.5202	16.864
80.0578	17.8044
90.1734	18.6813
100	19.4322
