Adsorption isotherm of Methane on COF-8
DOI: 10.1021/Jp1044139
Adsorbate Methane: InChIKey VNWKTOKETHGBQD-UHFFFAOYSA-N
Temperature: 298 K
Tabular data in the source: 0
pressure (bar)	uptake (wt%)
0.761421	0.785216
1.52284	1.30853
2.53807	1.83167
3.5533	2.48577
4.31472	2.74717
9.89848	4.96971
19.797	8.10609
29.6954	10.0639
39.5939	11.4979
50	12.6042
60.1523	13.5142
69.797	14.2281
79.4416	14.8111
90.1015	15.4589
100	15.9107
