Adsorption isotherm of Methane on COF-105
DOI: 10.1021/Jp1044139
Adsorbate Methane: InChIKey VNWKTOKETHGBQD-UHFFFAOYSA-N
Temperature: 298 K
Tabular data in the source: 0
pressure (bar)	uptake (wt%)
4.06977	3.24841
4.94186	4.10828
9.88372	7.64331
20.0581	12.9936
29.9419	17.1019
40.1163	20.2548
50.2907	22.6433
59.8837	24.2675
70.0581	25.6051
79.9419	26.6561
90.1163	27.3248
100.291	27.6115
