Adsorption isotherm of Methane on MOF-177
DOI: 10.1021/Jp1044139
Adsorbate Methane: InChIKey VNWKTOKETHGBQD-UHFFFAOYSA-N
Temperature: 298 K
Tabular data in the source: 0
pressure (bar)	uptake (wt%)
1.16279	0.764331
2.90698	1.52866
4.06977	2.10191
4.94186	2.57962
10.1744	5.06369
20.0581	9.07643
30.2326	12.3248
40.1163	14.9045
50.2907	16.7197
60.1744	18.4395
64.2442	19.0127
70.0581	19.8726
79.9419	21.1146
90.1163	21.9745
100	22.8344
