Adsorption isotherm of Methane on COF-8
DOI: 10.1021/Jp1044139
Adsorbate Methane: InChIKey VNWKTOKETHGBQD-UHFFFAOYSA-N
Temperature: 298 K
Tabular data in the source: 0
pressure (bar)	uptake (wt%)
1.01523	0.588621
2.03046	1.11177
4.56853	1.89582
7.86802	3.00675
9.64467	3.5294
13.198	4.50922
17.2589	5.35775
19.5431	5.94554
22.8426	6.53266
24.3655	6.79357
26.1421	7.05431
30.4569	7.5753
32.9949	7.83554
35.533	8.22673
39.8477	8.48581
42.3858	8.87701
46.4467	9.0053
51.269	9.26405
52.7919	9.52496
58.6294	9.71756
60.9137	9.84702
65.2284	9.90967
69.5431	10.1033
72.0812	10.1671
78.1726	10.1631
85.0254	10.2896
