Adsorption isotherm of Methane on COF-102
DOI: 10.1021/Jp1044139
Adsorbate Methane: InChIKey VNWKTOKETHGBQD-UHFFFAOYSA-N
Temperature: 298 K
Tabular data in the source: 0
pressure (bar)	uptake (wt%)
2.90698	1.91083
5.23256	3.34395
10.1744	6.30573
15.1163	8.98089
20.3488	11.3694
25.5814	13.2803
30.2326	14.9045
40.1163	17.5796
50	19.3949
60.1744	20.9236
70.0581	21.9745
80.2326	22.8344
90.1163	23.5032
99.7093	23.7898
