Adsorption isotherm of Methane on COF-103
DOI: 10.1021/Jp1044139
Adsorbate Methane: InChIKey VNWKTOKETHGBQD-UHFFFAOYSA-N
Temperature: 298 K
Tabular data in the source: 0
pressure (bar)	uptake (wt%)
5.23256	4.10828
9.88372	7.54777
20.3488	12.9936
30.2326	17.0064
40.1163	19.8726
50.2907	21.879
60.1744	23.4076
70.0581	24.7452
80.2326	25.5096
90.1163	26.1783
100.291	26.7516
