Adsorption isotherm of Methane on COF-6
DOI: 10.1021/Jp1044139
Adsorbate Methane: InChIKey VNWKTOKETHGBQD-UHFFFAOYSA-N
Temperature: 298 K
Tabular data in the source: 0
pressure (bar)	uptake (wt%)
0.867052	1.1351
2.02312	2.01765
2.89017	2.83729
4.04624	3.46748
5.20231	4.09766
10.4046	6.05022
19.9422	8.31549
30.0578	9.44476
39.8844	10.1326
50	10.694
60.1156	11.2554
69.6532	11.628
80.3468	11.8736
90.1734	12.1198
100.289	12.2396
