Adsorption isotherm of Methane on COF-5
DOI: 10.1021/Jp1044139
Adsorbate Methane: InChIKey VNWKTOKETHGBQD-UHFFFAOYSA-N
Temperature: 298 K
Tabular data in the source: 0
pressure (bar)	uptake (wt%)
1.01523	0.719573
2.03046	1.30819
3.04569	1.76586
4.06091	2.28901
5.07614	2.74668
9.64467	4.77345
19.797	7.7787
29.9492	9.8673
39.8477	11.3668
50	12.7351
60.1523	13.7106
70.3046	14.6206
79.9492	15.5965
90.1015	16.2446
100	16.8929
