Adsorption isotherm of Methane on COF-10
DOI: 10.1021/Jp1044139
Adsorbate Methane: InChIKey VNWKTOKETHGBQD-UHFFFAOYSA-N
Temperature: 298 K
Tabular data in the source: 0
pressure (bar)	uptake (wt%)
1.16279	0.670594
2.03488	1.18341
3.19767	1.77505
3.77907	2.28798
4.94186	2.76121
9.88372	4.69347
20.0581	7.37366
29.9419	8.98818
40.1163	10.0894
50	10.8355
60.1744	11.3052
70.3488	11.7749
79.9419	12.0079
90.407	12.1617
100.291	12.1578
