Adsorption isotherm of Methane on COF-108
DOI: 10.1021/Jp1044139
Adsorbate Methane: InChIKey VNWKTOKETHGBQD-UHFFFAOYSA-N
Temperature: 298 K
Tabular data in the source: 0
pressure (bar)	uptake (wt%)
2.90698	2.38854
4.94186	3.9172
9.88372	7.26115
19.7674	12.1338
30.2326	15.9554
40.1163	18.6306
50.2907	20.828
59.8837	21.9745
70.3488	23.0255
79.9419	23.5987
89.8256	23.9809
100	24.172
