Adsorption isotherm of Methane on COF-103
DOI: 10.1021/Jp1044139
Adsorbate Methane: InChIKey VNWKTOKETHGBQD-UHFFFAOYSA-N
Temperature: 298 K
Tabular data in the source: 0
pressure (bar)	uptake (wt%)
4.62428	4.53602
10.1156	8.36103
19.9422	14.0253
30.0578	18.5535
40.4624	21.8038
50	24.0615
60.1156	26.0345
70.2312	27.8656
80.0578	28.9873
90.1734	29.9666
100.289	30.804
