Adsorption isotherm of Nitrogen on CuBTC
DOI: 10.1016/j.micromeso.2012.11.040
Adsorbate Nitrogen: InChIKey IJGRMHOSHXDMSA-UHFFFAOYSA-N
Temperature: 77 K
Tabular data in the source: 0
pressure (bar)	uptake (cm3(STP)/g)
0.00823907	0.0486282
0.0222322	0.0486441
0.0402234	0.0486645
0.0522176	0.0486782
0.0662163	0.0497991
0.0762114	0.0498104
0.0982007	0.0498354
0.192155	0.0499423
0.292106	0.050056
0.388059	0.0501651
0.488016	0.0513838
0.583969	0.0514929
0.681916	0.0504993
0.779868	0.0506108
0.879819	0.0507244
0.973779	0.0519363
