Adsorption isotherm of Nitrogen on Silica Aerogel
DOI: 10.1016/j.micromeso.2012.11.040
Adsorbate Nitrogen: InChIKey IJGRMHOSHXDMSA-UHFFFAOYSA-N
Temperature: 77 K
Tabular data in the source: 0
pressure (bar)	uptake (cm3(STP)/g)
0.0140539	0.0121707
0.0440448	0.0133098
0.0860298	0.0144625
0.124017	0.0156107
0.169994	0.015663
0.233974	0.0179457
0.275954	0.0179934
0.327939	0.0202625
0.375921	0.021422
0.427907	0.0236911
0.469892	0.0248438
0.509884	0.0270993
0.561875	0.0304733
0.619869	0.0349592
0.665868	0.0394314
0.711884	0.0472185
0.743896	0.0527798
0.765919	0.0594347
0.78994	0.0660918
0.815977	0.0760662
0.836023	0.0871387
0.854086	0.101524
0.870139	0.113697
0.886219	0.131395
0.894293	0.146873
0.904354	0.160145
0.91246	0.182253
0.922555	0.202154
0.93065	0.222053
0.934726	0.237527
0.940828	0.258529
0.942893	0.271791
0.948995	0.292792
0.957179	0.33037
0.969322	0.360218
