Adsorption isotherm of Nitrogen on CuBTC
DOI: 10.1016/j.micromeso.2012.11.040
Adsorbate Nitrogen: InChIKey IJGRMHOSHXDMSA-UHFFFAOYSA-N
Temperature: 77 K
Tabular data in the source: 0
pressure (bar)	uptake (cm3(STP)/g)
0.00426784	416.901
0.0184768	439.437
0.0306405	428.169
0.0610696	439.437
0.0833801	439.437
0.0996059	439.437
0.121916	439.437
0.136114	439.437
0.150323	461.972
0.194938	450.704
0.243627	473.239
0.292299	461.972
0.320694	461.972
0.385586	439.437
0.440359	461.972
0.489031	450.704
0.533652	450.704
0.582335	461.972
0.633046	473.239
0.679695	473.239
0.712147	473.239
0.732424	461.972
0.779079	473.239
0.801383	461.972
0.809496	461.972
0.837891	461.972
0.858168	450.704
0.876428	461.972
0.906857	473.239
0.929167	473.239
0.965675	473.239
