Adsorption isotherm of Nitrogen on Silica Aerogel/CuBTC
DOI: 10.1016/j.micromeso.2012.11.040
Adsorbate Nitrogen: InChIKey IJGRMHOSHXDMSA-UHFFFAOYSA-N
Temperature: 77 K
Tabular data in the source: 0
pressure (bar)	uptake (cm3(STP)/g)
0.0119205	187.057
0.0516555	197.175
0.0794699	207.564
0.0953639	207.203
0.115231	206.752
0.135099	206.302
0.154966	205.851
0.174834	216.42
0.192715	216.014
0.212582	215.563
0.23245	215.113
0.252317	225.681
0.272185	225.231
0.292052	235.799
0.31192	235.348
0.3298	245.962
0.349668	245.511
0.369535	256.08
0.389403	255.629
0.40927	255.179
0.429138	265.747
0.449005	265.297
0.468873	275.865
0.486753	286.479
0.506621	297.047
0.526488	307.616
0.546356	318.185
0.566223	317.734
0.586091	328.303
0.603972	349.935
0.623839	360.504
0.64172	382.137
0.661587	392.706
0.681455	414.294
0.699335	446.946
0.719203	457.514
0.737084	501.186
0.756951	533.793
0.774832	577.465
0.790726	621.181
0.810593	697.865
0.836421	807.472
0.858275	928.189
0.874169	1093.12
0.890063	1258.05
0.896024	1357.08
0.903971	1467.1
0.913904	1654.2
0.917878	1764.3
0.921851	1874.4
0.927812	1973.44
0.931785	2083.55
0.933772	2193.69
0.937745	2303.8
0.949666	2667.16
0.951653	2777.31
0.955626	2887.41
0.9596	3052.61
