Adsorption isotherm of Nitrogen on Silica Aerogel/CuBTC
DOI: 10.1016/j.micromeso.2012.11.040
Adsorbate Nitrogen: InChIKey IJGRMHOSHXDMSA-UHFFFAOYSA-N
Temperature: 77 K
Tabular data in the source: 0
pressure (bar)	uptake (cm3(STP)/g)
0.00417072	225.352
0.0305548	259.155
0.0569274	270.423
0.0812833	304.225
0.0975148	315.493
0.113741	315.493
0.134029	326.761
0.154311	326.761
0.174593	326.761
0.196915	349.296
0.243564	349.296
0.294281	371.831
0.344998	394.366
0.389625	405.634
0.436286	428.169
0.48498	461.972
0.533669	484.507
0.580335	518.31
0.631052	540.845
0.679753	585.915
0.728447	619.718
0.775131	687.324
0.799498	743.662
0.825893	800
0.852306	890.141
0.8706	969.014
0.897053	1138.03
0.921609	1566.2
0.944325	2366.2
0.944365	2445.07
0.954643	2715.49
0.960796	2850.7
