Adsorption isotherm of Nitrogen on CuBTC
DOI: 10.1016/j.micromeso.2012.11.040
Adsorbate Nitrogen: InChIKey IJGRMHOSHXDMSA-UHFFFAOYSA-N
Temperature: 77 K
Tabular data in the source: 0
pressure (bar)	uptake (cm3(STP)/g)
0.1102	0.0509541
0.14018	0.0498832
0.180161	0.0499287
0.216149	0.0510746
0.262132	0.0522318
0.302107	0.0511723
0.342087	0.0512178
0.37607	0.0512565
0.424042	0.050206
0.460029	0.051352
0.516002	0.0514156
0.547981	0.050347
0.56997	0.050372
0.609956	0.0515225
0.655934	0.0515748
0.681921	0.0516043
0.707908	0.0516339
0.741892	0.0516725
0.769878	0.0517044
0.833847	0.0517771
0.867836	0.0529207
0.913808	0.0518681
0.9418	0.0530049
