Adsorption isotherm of Nitrogen on Silica Aerogel
DOI: 10.1016/j.micromeso.2012.11.040
Adsorbate Nitrogen: InChIKey IJGRMHOSHXDMSA-UHFFFAOYSA-N
Temperature: 77 K
Tabular data in the source: 0
pressure (bar)	uptake (cm3(STP)/g)
0.00818717	146.479
0.0305148	180.282
0.0568989	214.085
0.0771868	225.352
0.0934126	225.352
0.113706	247.887
0.136011	236.62
0.156299	247.887
0.174565	270.423
0.192813	259.155
0.215129	270.423
0.241502	281.69
0.267874	292.958
0.294247	304.225
0.342942	338.028
0.389596	349.296
0.411913	360.563
0.440313	371.831
0.466686	383.099
0.48698	405.634
0.517397	394.366
0.535663	416.901
0.584357	450.704
0.63103	495.775
0.677696	529.577
0.728424	574.648
0.771057	653.521
0.799469	687.324
0.823837	743.662
0.854317	856.338
0.872623	957.746
0.897058	1149.3
0.909319	1329.58
0.921603	1554.93
0.92995	2016.9
0.942508	2783.1
0.948752	3098.59
0.952906	3290.14
0.957042	3447.89
