Adsorption isotherm of Methane on [Cu2(BME-bdc)2(dabco)]n
DOI: 10.1016/j.micromeso.2011.09.006
Adsorbate Methane: InChIKey VNWKTOKETHGBQD-UHFFFAOYSA-N
Temperature: 195 K
Tabular data in the source: 0
pressure (bar)	uptake (cm3(STP)/g)
0.0217787	4.55773
0.085036	10.0533
0.163179	11.939
0.210033	13.8886
0.263266	14.291
0.311965	15.2142
0.367605	15.6117
0.459629	16.4462
0.561281	17.261
0.657559	17.0641
0.754116	17.3779
0.853081	17.6869
1.005	17.8875
