Adsorption isotherm of Carbon Dioxide on [Cu2(BME-bdc)2(dabco)]n
DOI: 10.1016/j.micromeso.2011.09.006
Adsorbate Carbon Dioxide: InChIKey CURLTUGMZLYLDI-UHFFFAOYSA-N
Temperature: 195 K
Tabular data in the source: 0
pressure (bar)	uptake (cm3(STP)/g)
0.019276	21.9492
0.0405623	38.7807
0.0685088	54.5758
0.0883455	77.5466
0.105659	95.9202
0.122576	109.181
0.149962	123.955
0.178517	132.078
0.229015	140.668
0.276989	144.661
0.378477	149.567
0.571989	155.307
0.732529	158.047
0.885568	160.291
1.0774	162.967
