Adsorption isotherm of Nitrogen on [Cu2(BME-bdc)2(dabco)]n
DOI: 10.1016/j.micromeso.2011.09.006
Adsorbate Nitrogen: InChIKey IJGRMHOSHXDMSA-UHFFFAOYSA-N
Temperature: 195 K
Tabular data in the source: 0
pressure (bar)	uptake (cm3(STP)/g)
0.014722	0.481251
0.0856445	2.38164
0.153599	3.26536
0.192671	4.20817
0.250438	4.09001
0.310611	3.96693
0.353936	3.87831
0.457995	4.68819
0.554272	4.49126
0.655644	4.79527
0.759142	4.58357
0.902437	2.24502
0.990653	0.530483
