Adsorption isotherm of Methane on [Cu2(BME-bdc)2(dabco)]n
DOI: 10.1016/j.micromeso.2011.09.006
Adsorbate Methane: InChIKey VNWKTOKETHGBQD-UHFFFAOYSA-N
Temperature: 298 K
Tabular data in the source: 0
pressure (bar)	uptake (cm3(STP)/g)
1.88861	0.319137
9.89593	0.406905
14.8969	0.31319
25.4866	0.674063
30.2756	0.62616
40.4413	1.07866
45.6157	1.25915
54.8564	1.39207
61.0137	1.98354
66.6024	2.43812
71.4203	2.43592
75.7853	2.47964
81.8173	3.25403
86.269	3.43485
97.0033	4.02423
