Adsorption isotherm of Carbon Dioxide on [Cu2(BME-bdc)2(dabco)]n
DOI: 10.1016/j.micromeso.2011.09.006
Adsorbate Carbon Dioxide: InChIKey CURLTUGMZLYLDI-UHFFFAOYSA-N
Temperature: 298 K
Tabular data in the source: 0
pressure (bar)	uptake (cm3(STP)/g)
3.07381	1.05002
9.27924	2.09862
17.1324	3.46645
28.0883	4.78716
38.8321	6.15368
49.4893	7.38309
60.3874	8.61239
65.4943	9.0672
70.8325	9.88762
76.5658	10.5707
81.7595	11.1626
86.9917	11.4345
92.3588	12.3006
97.3983	13.0298
107.969	14.1221
