Adsorption isotherm of Hydrogen on Py-COF-1
DOI: 10.1002/anie.201307443
Adsorbate Hydrogen: InChIKey UFHFLCQGNIYNRP-UHFFFAOYSA-N
Temperature: 30 K
Tabular data in the source: 0
pressure (bar)	uptake (mmol/g)
3.58e-08	0.0880475
6.29e-07	0.231062
2.51e-06	0.291843
4.54e-06	0.31687
6.35e-06	0.341898
8.21e-06	0.388378
1.32e-05	0.413405
1.88e-05	0.424131
2.85e-05	0.445583
4.4e-05	0.474186
8.12e-05	0.488488
0.000198	0.531392
0.000317	0.552844
0.000418	0.588598
0.000597	0.66368
0.000803	0.749489
0.00105923	0.892503
