Adsorption isotherm of Hydrogen on Py-COF-1
DOI: 10.1002/anie.201307443
Adsorbate Hydrogen: InChIKey UFHFLCQGNIYNRP-UHFFFAOYSA-N
Temperature: 70 K
Tabular data in the source: 0
pressure (bar)	uptake (mmol/g)
1.44e-06	0.0522939
2.88e-06	0.120226
5.31e-06	0.184582
8.37e-06	0.26324
1.24e-05	0.295418
1.84e-05	0.36335
2.69e-05	0.449159
4.23e-05	0.549269
6.8e-05	0.66368
0.000101	0.770941
0.00021	0.974736
0.000418	1.14278
0.0005	1.29294
0.000713	1.44668
0.000788	1.55037
0.0010385	1.67193
