Adsorption isotherm of Hydrogen on Py-COF-1
DOI: 10.1002/anie.201307443
Adsorbate Hydrogen: InChIKey UFHFLCQGNIYNRP-UHFFFAOYSA-N
Temperature: 50 K
Tabular data in the source: 0
pressure (bar)	uptake (mmol/g)
2.48e-07	0.0773214
5.7e-07	0.202459
2.02e-06	0.281117
2.94e-06	0.341898
3.12e-06	0.431282
4.19e-06	0.470611
6.35e-06	0.50994
8.04e-06	0.66368
1.22e-05	0.688708
2.25e-05	0.792393
3.4e-05	0.842448
6.4e-05	0.974736
0.000101	1.08915
0.000214	1.26076
0.000324	1.34657
0.0005	1.50389
0.000686	1.68623
0.000819	1.78277
0.00096	1.90433
0.00105923	2.01159
