Adsorption isotherm of Hydrogen on Py-COF-1
DOI: 10.1002/anie.201307443
Adsorbate Hydrogen: InChIKey UFHFLCQGNIYNRP-UHFFFAOYSA-N
Temperature: 40 K
Tabular data in the source: 0
pressure (bar)	uptake (mmol/g)
1.15e-07	0.0916229
1.28e-06	0.202459
3.06e-06	0.245363
4.81e-06	0.281117
6.47e-06	0.345473
8.21e-06	0.445583
1.57e-05	0.488488
2.38e-05	0.527816
4.4e-05	0.61005
0.000105	0.724461
0.000305	0.906804
0.00053	1.11775
0.000757	1.23574
0.000836	1.37518
0.000979	1.53607
