Adsorption isotherm of Nitrogen on COF-NUST-1
DOI: 10.1021/jacs.0c11073
Article source: Figure 2e
Adsorbate Nitrogen: InChIKey IJGRMHOSHXDMSA-UHFFFAOYSA-N
Kind: experiment
Temperature: 77 K
Tabular data in the source: 0
pressure (bar)	uptake (cm3(STP)/g)
0.026399	52.9086
0.037187	64.2542
0.052977	72.8944
0.064329	78.2937
0.086367	96.1198
0.145758	120.412
0.16201	124.188
0.180738	126.88
0.199518	129.032
0.223043	131.182
0.249044	132.249
0.267926	133.32
0.312809	135.458
0.343454	137.604
0.371879	138.13
0.383694	138.664
0.411965	140.811
0.435542	142.42
0.473357	144.021
0.513648	144.541
0.561109	144.515
0.598925	146.117
0.624926	147.184
0.667385	149.864
0.707624	150.924
0.757305	152.519
0.783203	154.667
0.814053	154.651
0.870802	156.782
0.915633	159.461
0.948497	163.227
0.962633	164.301
0.985953	168.613
0.065625	89.6444
0.09922	110.708
0.117384	119.347
0.125901	129.612
0.153916	134.462
0.184458	137.689
0.227071	138.747
0.255548	138.732
0.300482	140.33
0.324059	141.939
0.359501	143.542
0.397316	145.143
0.432707	147.286
0.468098	149.43
0.479912	149.964
0.510608	151.569
0.531966	151.558
0.557967	152.625
0.605069	156.384
0.621629	156.915
0.664344	156.893
0.692821	156.877
0.71872	159.026
0.728058	160.642
0.75633	162.789
0.803843	162.224
0.856101	161.655
0.886746	163.801
0.917391	165.947
0.959849	168.627
0.983375	170.776
