Adsorption isotherm of Nitrogen on Cage-NUST-1
DOI: 10.1021/jacs.0c11073
Article source: Figure 2e
Adsorbate Nitrogen: InChIKey IJGRMHOSHXDMSA-UHFFFAOYSA-N
Kind: experiment
Temperature: 77 K
Tabular data in the source: 0
pressure (bar)	uptake (cm3(STP)/g)
0.019357	2.10151
0.071564	2.07365
0.100092	1.51789
0.123823	1.50523
0.147554	1.49258
0.178404	1.47612
0.197388	1.46599
0.228289	0.908964
0.313823	0.217746
0.356538	0.240534
0.403999	0.265853
0.434798	0.258257
0.448985	0.791229
0.489327	0.769708
0.524975	0.210151
0.572487	0.355737
0.622373	0.92289
0.665037	0.405109
0.710125	0.429163
0.764706	0.45828
0.819389	1.56853
0.871494	0.515249
0.923548	1.0786
0.978077	1.59005
1.01569	5.35377
0.213948	1.9977
0.249493	2.51927
0.289835	2.49775
0.320788	1.40016
0.375369	1.37104
0.418084	1.34826
0.472664	1.31914
0.505887	1.30141
0.546178	1.82046
0.593588	2.33571
0.652967	1.76349
0.712345	1.19128
0.757484	0.626654
0.809743	0.058234
0.859629	0.508919
0.919007	1.08114
0.954757	2.72183
0.997216	0.041777
1.02276	5.89054
