Adsorption isotherm of Nitrogen on Cage-1
DOI: 10.1021/jacs.0c11073
Article source: Figure 3c
Adsorbate Nitrogen: InChIKey IJGRMHOSHXDMSA-UHFFFAOYSA-N
Kind: experiment
Temperature: 77 K
Tabular data in the source: 0
pressure (bar)	uptake (cm3(STP)/g)
0.011647	4.54332
0.076867	1.45594
0.10016	1.50538
0.1351	0.504264
0.174698	0.588308
0.323774	3.05525
0.382007	4.25411
0.421605	2.18762
0.479838	6.61229
0.545059	4.60017
0.600962	5.79409
0.663853	9.15338
0.726745	7.13632
0.784978	6.18465
0.82807	7.88901
0.880479	8.53788
0.936383	11.8823
0.994616	7.70486
0.197991	6.01409
0.228272	9.30416
0.256224	7.21295
0.279517	7.26239
0.319116	7.34643
0.368031	8.52552
0.426264	8.64912
0.454216	9.78371
0.498472	10.9529
0.535741	11.032
0.579998	10.0507
0.621926	6.91386
0.684817	10.2731
0.719757	7.12149
0.766343	2.91929
0.824576	8.41923
0.880479	6.38734
0.929395	11.8675
0.987628	9.84056
