Adsorption isotherm of Nitrogen on COF-LZU-1
DOI: 10.1021/jacs.0c11073
Article source: Figure 3c
Adsorbate Nitrogen: InChIKey IJGRMHOSHXDMSA-UHFFFAOYSA-N
Kind: experiment
Temperature: 77 K
Tabular data in the source: 0
pressure (bar)	uptake (cm3(STP)/g)
0.009317	3.46311
0.018634	52.9452
0.016305	113.155
0.013976	158.312
0.025622	181.992
0.044257	191.709
0.074538	201.451
0.095502	209.022
0.125783	217.689
0.153734	222.049
0.188674	226.424
0.214297	227.554
0.244578	229.769
0.274859	230.908
0.30281	232.043
0.347067	233.212
0.388995	233.301
0.449557	232.354
0.519436	234.653
0.57534	240.148
0.600962	241.278
0.656866	241.397
0.715098	243.671
0.77799	248.105
0.815259	251.41
0.875821	250.463
0.929395	265.631
0.962005	281.829
0.987628	314.142
0.987628	328.12
1.00393	367.94
0.20265	226.454
0.246907	229.774
0.293493	237.4
0.335421	237.489
0.393653	241.913
0.423934	247.354
0.449557	251.709
0.500802	263.646
0.561364	275.603
0.60795	275.701
0.661524	275.815
0.719757	279.164
0.750038	279.229
0.796624	285.779
0.833893	286.934
0.882809	292.414
0.927066	305.411
0.952688	316.218
0.985298	336.717
0.985298	359.298
