Adsorption isotherm of Nitrogen on COF-NUST-2
DOI: 10.1021/jacs.0c11073
Article source: Figure S3c
Adsorbate Nitrogen: InChIKey IJGRMHOSHXDMSA-UHFFFAOYSA-N
Kind: experiment
Temperature: 77 K
Tabular data in the source: 0
pressure (bar)	uptake (cm3(STP)/g)
0.020147	0.702287
0.048116	1.02278
0.08862	1.25516
0.11388	1.3278
0.149282	1.47928
0.174479	1.46896
0.197219	1.54264
0.232496	1.52819
0.257693	1.51787
0.28793	1.50549
0.325789	1.57297
0.353506	1.56162
0.393822	1.54511
0.419082	1.61776
0.454484	1.76923
0.472122	1.76201
0.512501	1.82846
0.552817	1.81195
0.567935	1.80576
0.613353	1.87015
0.648692	1.93867
0.678992	2.00925
0.716914	2.15969
0.749921	2.47812
0.782678	2.46471
0.807875	2.45439
0.851213	3.10054
0.884409	3.66786
0.917416	3.9863
0.940596	4.64071
0.962573	7.03834
0.995946	11.1741
0.998079	13.9948
1.03043	23.4421
1.03275	26.5117
0.079293	2.25483
0.096932	2.24761
0.11986	2.57017
0.15268	2.63971
0.182917	2.62733
0.200555	2.62011
0.223295	2.69378
0.248555	2.76643
0.276272	2.75508
0.293911	2.74785
0.336495	2.39846
0.376748	2.29899
0.411899	2.11862
0.455237	2.76478
0.488056	2.83432
0.515899	2.9889
0.566356	3.05122
0.591554	3.0409
0.619271	3.02955
0.652028	3.01614
0.702423	2.9955
0.725163	3.06918
0.770581	3.13356
0.800818	3.12118
0.831557	3.7725
0.854548	4.17802
0.900468	4.9061
0.943805	5.55225
0.954637	6.54367
0.980702	11.0143
0.995685	14.1617
1.00504	23.2035
