Adsorption isotherm of Nitrogen on COF-TFPA from Cage 1
DOI: 10.1021/jacs.0c11073
Article source: Figure S24
Adsorbate Nitrogen: InChIKey IJGRMHOSHXDMSA-UHFFFAOYSA-N
Kind: experiment
Temperature: 77 K
Tabular data in the source: 0
pressure (bar)	uptake (cm3(STP)/g)
0.009382	2.31179
0.007036	45.4551
0.002345	59.8463
0.007036	79.442
0.0258	99.0014
0.037528	109.429
0.051601	121.157
0.075056	131.554
0.096165	136.728
0.14542	144.444
0.16653	145.697
0.201712	150.835
0.215785	152.106
0.258003	150.69
0.297877	150.587
0.323677	150.52
0.351823	154.369
0.391696	155.574
0.464406	161.922
0.534771	166.969
0.574644	172.095
0.612172	174.613
0.647354	174.522
0.698955	178.31
0.731792	179.533
0.783392	192.472
0.839684	206.705
0.891285	217.03
0.921776	233.945
0.96634	284.81
0.992141	339.645
0.992141	427.227
0.197021	153.462
0.234549	153.365
0.267385	154.587
0.293186	154.521
0.33775	159.634
0.370587	159.55
0.424533	165.947
0.45737	172.398
0.516007	177.475
0.544153	185.246
0.607481	186.389
0.656736	186.262
0.717719	196.563
0.771665	204.267
0.823266	210.669
0.863139	227.56
0.886594	241.878
0.952267	325.369
1.00387	403.667
