Adsorption isotherm of Carbon Dioxide on FTCF-1
DOI: 10.1039/c3ee42548g
Article source: Figure 3
Adsorbate Carbon Dioxide: InChIKey CURLTUGMZLYLDI-UHFFFAOYSA-N
Kind: experiment
Temperature: 273 K
Tabular data in the source: 0
pressure (bar)	uptake (mmol/g)
0.015166	0.54533
0.05775	1.28533
0.100334	1.72533
0.140461	2.06533
0.179769	2.352
0.261661	2.792
0.351743	3.17867
0.433635	3.452
0.515527	3.69867
0.597419	3.932
0.682586	4.12533
0.762841	4.272
0.848827	4.44533
