Adsorption isotherm of Carbon Dioxide on CTF-1
DOI: 10.1039/c3ee42548g
Article source: Figure 3
Adsorbate Carbon Dioxide: InChIKey CURLTUGMZLYLDI-UHFFFAOYSA-N
Kind: experiment
Temperature: 298 K
Tabular data in the source: 0
pressure (bar)	uptake (mmol/g)
0.058282	0.15
0.088957	0.25
0.131902	0.3
0.180982	0.366667
0.273006	0.516667
0.346626	0.616667
0.434049	0.741667
0.518405	0.9
0.601227	1
0.674847	1.08333
0.763804	1.2
0.849693	1.26667
