Adsorption isotherm of Nitrogen on CTF-1
DOI: 10.1039/c3ee42548g
Article source: Figure S4
Adsorbate Nitrogen: InChIKey IJGRMHOSHXDMSA-UHFFFAOYSA-N
Kind: experiment
Temperature: 298 K
Tabular data in the source: 0
pressure (bar)	uptake (mmol/g)
0.040799	0.002654
0.070774	0.005688
0.087427	0.007205
0.10741	0.007205
0.124063	0.010238
0.140716	0.013272
0.165695	0.017064
0.208993	0.020098
0.270608	0.026165
0.402165	0.042849
0.540383	0.058397
0.666944	0.07091
1.00833	0.108072
