Adsorption isotherm of Nitrogen on CTF-1-600
DOI: 10.1039/c3ee42548g
Article source: Figure S4
Adsorbate Nitrogen: InChIKey IJGRMHOSHXDMSA-UHFFFAOYSA-N
Kind: experiment
Temperature: 298 K
Tabular data in the source: 0
pressure (bar)	uptake (mmol/g)
0.054122	0.010238
0.064113	0.015547
0.079101	0.019339
0.095754	0.023131
0.112406	0.025406
0.13239	0.029957
0.172356	0.042091
0.200666	0.050433
0.270608	0.069393
0.4005	0.107313
0.528726	0.139924
0.668609	0.175569
1.01332	0.263543
