Adsorption isotherm of Argon on FTCF-1
DOI: 10.1039/c3ee42548g
Article source: Figure 1
Adsorbate Argon: InChIKey XKRFYHLGVUSROY-UHFFFAOYSA-N
Kind: experiment
Temperature: 87 K
Tabular data in the source: 0
pressure (bar)	uptake (cm3(STP)/g)
0.009962	344.645
0.038424	375.355
0.089656	385.592
0.106733	389.005
0.138041	395.829
0.167926	402.654
0.186427	402.654
0.22912	402.654
0.243351	406.066
0.284621	406.066
0.293159	406.066
0.33016	406.066
0.357199	406.066
0.391354	406.066
0.416969	409.479
0.426931	409.479
0.481009	412.891
0.492394	409.479
0.535087	409.479
0.586319	412.891
0.601973	412.891
0.630435	412.891
0.667436	412.891
0.688782	412.891
0.728629	412.891
0.789823	416.303
0.791246	416.303
0.832516	419.716
0.858132	419.716
0.890863	416.303
0.916479	416.303
0.939249	416.303
0.959172	416.303
0.983365	416.303
