Adsorption isotherm of Carbon Dioxide on FTCF-1
DOI: 10.1039/c3ee42548g
Article source: Figure 3
Adsorbate Carbon Dioxide: InChIKey CURLTUGMZLYLDI-UHFFFAOYSA-N
Kind: experiment
Temperature: 298 K
Tabular data in the source: 0
pressure (bar)	uptake (mmol/g)
0.01227	0.2
0.058282	0.583333
0.095092	0.883333
0.144172	1.1
0.187117	1.41667
0.269939	1.66667
0.343558	1.86667
0.432515	2.13333
0.518405	2.4
0.595092	2.51667
0.668712	2.65
0.766871	2.83333
0.852761	2.96667
