Adsorption isotherm of Carbon Dioxide on FTCF-1-600
DOI: 10.1039/c3ee42548g
Article source: Figure 3
Adsorbate Carbon Dioxide: InChIKey CURLTUGMZLYLDI-UHFFFAOYSA-N
Kind: experiment
Temperature: 298 K
Tabular data in the source: 0
pressure (bar)	uptake (mmol/g)
0.021472	0.083333
0.055215	0.433333
0.09816	0.716667
0.147239	0.883333
0.180982	1.11667
0.260736	1.41667
0.349693	1.68333
0.432515	2
0.506135	2.23333
0.588957	2.41667
0.680982	2.66667
0.763804	2.83333
0.849693	3
