Adsorption isotherm of Nitrogen on FTCF-1
DOI: 10.1039/c3ee42548g
Article source: Figure S4
Adsorbate Nitrogen: InChIKey IJGRMHOSHXDMSA-UHFFFAOYSA-N
Kind: experiment
Temperature: 298 K
Tabular data in the source: 0
pressure (bar)	uptake (mmol/g)
0.04746	0.013272
0.07244	0.021614
0.10408	0.027681
0.115737	0.032232
0.129059	0.037541
0.162365	0.050433
0.207327	0.061051
0.268943	0.079252
0.398834	0.115655
0.532057	0.150542
0.668609	0.185428
1.00333	0.268852
