Adsorption isotherm of Carbon Dioxide on CTF-1
DOI: 10.1039/c3ee42548g
Article source: Figure 3
Adsorbate Carbon Dioxide: InChIKey CURLTUGMZLYLDI-UHFFFAOYSA-N
Kind: experiment
Temperature: 273 K
Tabular data in the source: 0
pressure (bar)	uptake (mmol/g)
0.015385	0.15
0.058462	0.35
0.098462	0.5
0.141538	0.675
0.184615	0.8
0.264615	1.075
0.344615	1.25
0.430769	1.475
0.516923	1.625
0.6	1.8
0.68	1.975
0.76	2.125
0.855385	2.25
