Adsorption isotherm of Nitrogen on FTCF-1-600
DOI: 10.1039/c3ee42548g
Article source: Figure S4
Adsorbate Nitrogen: InChIKey IJGRMHOSHXDMSA-UHFFFAOYSA-N
Kind: experiment
Temperature: 298 K
Tabular data in the source: 0
pressure (bar)	uptake (mmol/g)
0.052456	0.002654
0.069109	0.005688
0.082431	0.006446
0.10408	0.007205
0.119067	0.008722
0.130724	0.010238
0.16403	0.015547
0.197336	0.019339
0.272273	0.02844
0.397169	0.042849
0.535387	0.055742
0.669442	0.072048
1.00833	0.108072
