Adsorption isotherm of Carbon Dioxide on CTF-1-600
DOI: 10.1039/c3ee42548g
Article source: Figure 3
Adsorbate Carbon Dioxide: InChIKey CURLTUGMZLYLDI-UHFFFAOYSA-N
Kind: experiment
Temperature: 273 K
Tabular data in the source: 0
pressure (bar)	uptake (mmol/g)
0.055385	0.525
0.095385	0.825
0.135385	1.025
0.178462	1.225
0.261538	1.6
0.350769	1.9
0.427692	2.175
0.510769	2.475
0.596923	2.75
0.676923	2.975
0.764615	3.2125
0.846154	3.425
