Adsorption isotherm of Argon on CTF-1-600
DOI: 10.1039/c3ee42548g
Article source: Figure 1
Adsorbate Argon: InChIKey XKRFYHLGVUSROY-UHFFFAOYSA-N
Kind: experiment
Temperature: 87 K
Tabular data in the source: 0
pressure (bar)	uptake (cm3(STP)/g)
0.021347	682.464
0.044828	749.005
0.081117	808.72
0.111002	842.844
0.150849	876.967
0.189273	911.09
0.199235	914.502
0.227697	948.626
0.244774	969.1
0.261851	989.573
0.286044	1010.05
0.305967	1023.7
0.337276	1064.64
0.4127	1132.89
0.451124	1177.25
0.490971	1218.2
0.513741	1255.73
0.556434	1303.51
0.597704	1354.69
0.634704	1399.05
0.673128	1446.82
0.704436	1504.83
0.740014	1559.43
0.782707	1614.03
0.818285	1668.63
0.858132	1685.69
0.897979	1692.51
0.939249	1702.75
0.999019	1726.64
0.973403	1723.22
0.957749	1723.22
0.922171	1716.4
0.879478	1709.57
0.838208	1695.92
0.785553	1682.27
0.731475	1672.04
0.70159	1661.8
0.647512	1641.33
0.601973	1596.97
0.555011	1484.36
0.51801	1375.17
0.469624	1286.45
0.419816	1163.6
