Adsorption isotherm of Carbon Dioxide on CTF-1-600
DOI: 10.1039/c3ee42548g
Article source: Figure 3
Adsorbate Carbon Dioxide: InChIKey CURLTUGMZLYLDI-UHFFFAOYSA-N
Kind: experiment
Temperature: 298 K
Tabular data in the source: 0
pressure (bar)	uptake (mmol/g)
0.015337	0.066667
0.067485	0.3
0.08589	0.366667
0.147239	0.5
0.177914	0.616667
0.273006	0.866667
0.337423	1.03333
0.420245	1.21667
0.521472	1.4
0.595092	1.55
0.693252	1.73333
0.760736	1.83333
0.849693	2
