Adsorption isotherm of Argon on FTCF-1-600
DOI: 10.1039/c3ee42548g
Article source: Figure 1
Adsorbate Argon: InChIKey XKRFYHLGVUSROY-UHFFFAOYSA-N
Kind: experiment
Temperature: 87 K
Tabular data in the source: 0
pressure (bar)	uptake (cm3(STP)/g)
0.005692	856.493
0.027039	938.389
0.062617	996.398
0.095348	1016.87
0.126656	1044.17
0.139464	1051
0.172196	1057.82
0.217735	1078.29
0.250466	1085.12
0.257582	1085.12
0.281775	1091.94
0.304544	1091.94
0.323045	1091.94
0.357199	1095.36
0.398469	1095.36
0.434047	1105.59
0.448278	1102.18
0.469624	1105.59
0.485278	1105.59
0.503779	1105.59
0.533664	1115.83
0.542203	1115.83
0.57778	1115.83
0.62332	1112.42
0.657474	1115.83
0.671705	1112.42
0.693052	1112.42
0.711552	1119.24
0.735745	1119.24
0.757091	1119.24
0.764207	1119.24
0.811169	1126.07
0.838208	1122.65
0.846747	1122.65
0.880901	1129.48
0.896555	1129.48
0.913633	1132.89
0.915056	1132.89
0.963441	1126.07
0.95348	1129.48
0.980519	1129.48
