Adsorption isotherm of Carbon Dioxide on FTCF-1-600
DOI: 10.1039/c3ee42548g
Article source: Figure 3
Adsorbate Carbon Dioxide: InChIKey CURLTUGMZLYLDI-UHFFFAOYSA-N
Kind: experiment
Temperature: 273 K
Tabular data in the source: 0
pressure (bar)	uptake (mmol/g)
0.018462	0.4
0.055385	1.025
0.086154	1.35
0.132308	1.75
0.178462	2.1
0.267692	2.675
0.353846	3.175
0.433846	3.55
0.513846	3.9
0.606154	4.225
0.683077	4.525
0.775385	4.85
0.858462	5.125
