Adsorption isotherm of Argon on CTF-1
DOI: 10.1039/c3ee42548g
Article source: Figure 1
Adsorbate Argon: InChIKey XKRFYHLGVUSROY-UHFFFAOYSA-N
Kind: experiment
Temperature: 87 K
Tabular data in the source: 0
pressure (bar)	uptake (cm3(STP)/g)
0.005692	143.318
0.017077	170.616
0.055501	191.09
0.085386	208.152
0.126656	211.564
0.163657	218.389
0.175042	235.45
0.199235	221.801
0.223427	225.213
0.220581	238.863
0.254736	238.863
0.27039	249.1
0.293159	238.863
0.318775	255.924
0.331583	242.275
0.35293	249.1
0.387084	252.512
0.402738	262.749
0.426931	252.512
0.45397	255.924
0.466778	242.275
0.500933	255.924
0.529395	255.924
0.545049	272.986
0.572088	259.336
0.574934	276.398
0.596281	262.749
0.637551	262.749
0.640397	262.749
0.670282	262.749
0.684513	272.986
0.694475	269.573
0.712975	269.573
0.730052	262.749
0.769899	262.749
0.782707	266.161
0.804054	266.161
0.823977	272.986
0.828246	272.986
0.846747	269.573
0.869517	269.573
0.900825	279.81
0.925018	279.81
0.944941	279.81
0.963441	279.81
1.00329	279.81
