Adsorption isotherm of Argon on [Cu(pmc)2].2/3DMF
DOI: 10.1021/Ic1012523
Adsorbate Argon: InChIKey XKRFYHLGVUSROY-UHFFFAOYSA-N
Temperature: 195 K
Tabular data in the source: 0
pressure (bar)	uptake (cm3(STP)/g)
0.00935152	0.44497
0.0502856	0.582004
0.136832	0.854677
0.237412	1.27241
0.295883	2.00123
0.353191	2.13338
0.415171	2.86114
0.481831	3.43826
0.549661	4.01503
0.624509	4.44044
0.700526	5.01477
0.787067	5.7352
0.865425	6.15957
0.950798	6.7311
1.04085	7.15198
