Adsorption isotherm of Carbon Dioxide on [Cu(pmc)2].2/3DMF
DOI: 10.1021/Ic1012523
Adsorbate Carbon Dioxide: InChIKey CURLTUGMZLYLDI-UHFFFAOYSA-N
Temperature: 195 K
Tabular data in the source: 0
pressure (bar)	uptake (cm3(STP)/g)
0.00163132	5.6872
0.00326264	9.00474
0.00489396	13.5071
0.00978793	24.8815
0.0130506	31.2796
0.0163132	41.7062
0.0195759	50
0.0228385	45.9716
0.0261011	56.3981
0.0293638	61.3744
0.0326264	66.1137
0.0358891	70.6161
0.0424144	76.5403
0.0522023	81.9905
0.0652529	86.2559
0.0799347	89.3365
0.101142	92.4171
0.140294	95.0237
0.171289	96.2085
0.208809	97.1564
0.238173	97.6303
0.270799	98.3412
0.319739	98.8152
0.371941	99.5261
0.433931	100
0.504078	100.474
0.613377	100.711
0.693312	100.948
0.786297	101.422
0.856444	101.422
0.960848	101.896
1.031	102.133
