Adsorption isotherm of Carbon Dioxide on [Cu(pmc)2].2/3DMF
DOI: 10.1021/Ic1012523
Adsorbate Carbon Dioxide: InChIKey CURLTUGMZLYLDI-UHFFFAOYSA-N
Temperature: 273 K
Tabular data in the source: 0
pressure (bar)	uptake (cm3(STP)/g)
0.0146819	1.4218
0.045677	4.73934
0.0831974	7.81991
0.130506	11.6114
0.179445	15.6398
0.231648	18.9573
0.287113	22.0379
0.350734	24.8815
0.409462	27.7251
0.463295	29.8578
0.504078	31.2796
0.553018	32.7014
0.603589	34.1232
0.660685	35.545
0.745514	37.9147
0.814029	39.3365
0.88907	40.7583
0.980424	42.1801
