Adsorption isotherm of Methane on [Cu(pmc)2].2/3DMF
DOI: 10.1021/Ic1012523
Adsorbate Methane: InChIKey VNWKTOKETHGBQD-UHFFFAOYSA-N
Temperature: 273 K
Tabular data in the source: 0
pressure (bar)	uptake (cm3(STP)/g)
0.0129582	0.151414
0.073029	0.160393
0.114256	0.316032
0.163728	0.472904
0.214376	0.480475
0.265027	0.787
0.309786	0.79369
0.366328	1.25057
0.431114	1.55921
0.432293	1.70886
0.481767	2.01521
0.531241	2.32156
0.578357	2.47808
0.627832	2.93391
0.689086	3.39149
0.758585	3.85031
0.835153	4.45966
0.915258	5.3685
1.00478	6.12927
