Adsorption isotherm of Water on Zn-BTTB-BPY
DOI: 10.1021/La503269f
Adsorbate Water: InChIKey XLYOFNOQVPJJNP-UHFFFAOYSA-N
Temperature: 298 K
Tabular data in the source: 0
pressure (bar)	uptake (mmol/g)
0.357708	0.0497814
0.667721	0.0988843
0.971759	0.103209
1.26985	0.152143
1.58583	0.20133
1.88392	0.250264
2.18802	0.433361
2.50147	9.68922
2.80717	14.1628
