Adsorption isotherm of Water on Cu-DMOF-TM
DOI: 10.1021/La503269f
Adsorbate Water: InChIKey XLYOFNOQVPJJNP-UHFFFAOYSA-N
Temperature: 298 K
Tabular data in the source: 0
pressure (bar)	uptake (mmol/g)
0.00593894	-3.55271e-15
0.338518	0.472973
0.647344	0.810811
0.95617	1.08108
1.27093	2.02703
1.57976	5.60811
1.88264	20.0676
2.19741	20.6081
2.50623	21.6216
