Adsorption isotherm of Water on Zn-BTTB-DMBPY
DOI: 10.1021/La503269f
Adsorbate Water: InChIKey XLYOFNOQVPJJNP-UHFFFAOYSA-N
Temperature: 298 K
Tabular data in the source: 0
pressure (bar)	uptake (mmol/g)
1.66523e-05	0.044693
0.333878	0.0941351
0.649889	0.232709
0.959887	0.237119
1.27591	0.420385
1.59189	0.469573
1.89596	0.563284
2.20005	0.701688
2.51612	1.01903
2.81823	11.839
