Adsorption isotherm of Water on Co-DMOF-TM
DOI: 10.1021/La503269f
Adsorbate Water: InChIKey XLYOFNOQVPJJNP-UHFFFAOYSA-N
Temperature: 298 K
Tabular data in the source: 0
pressure (bar)	uptake (mmol/g)
0.950229	2.2973
1.265	17.973
1.57976	20.2703
1.89452	20.473
2.20335	20.5405
2.51217	20.8108
