Adsorption isotherm of Water on Zn-DMOF-TM
DOI: 10.1021/La503269f
Adsorbate Water: InChIKey XLYOFNOQVPJJNP-UHFFFAOYSA-N
Temperature: 298 K
Tabular data in the source: 0
pressure (bar)	uptake (mmol/g)
0.33258	0.202703
0.647344	0.608108
0.962108	19.3919
1.265	21.6216
1.57382	21.9595
1.88264	22.3649
2.18553	22.7027
2.50029	22.973
