Adsorption isotherm of Water on Ni-DMOF-TM
DOI: 10.1021/La503269f
Adsorbate Water: InChIKey XLYOFNOQVPJJNP-UHFFFAOYSA-N
Temperature: 298 K
Tabular data in the source: 0
pressure (bar)	uptake (mmol/g)
0.350397	0.337838
0.659223	1.14865
0.950229	1.75676
1.265	4.39189
1.56788	16.5541
1.88264	19.2568
2.19741	19.7973
2.50029	20.5405
