Adsorption isotherm of Water on Co-BTTB-DMBPY
DOI: 10.1021/La503269f
Adsorbate Water: InChIKey XLYOFNOQVPJJNP-UHFFFAOYSA-N
Temperature: 298 K
Tabular data in the source: 0
pressure (bar)	uptake (mmol/g)
0.357739	0.139167
0.644011	0.456089
0.960003	0.54997
1.26407	0.643681
1.58601	0.692953
1.89608	0.876135
2.18226	0.969592
2.51035	1.51057
2.82388	10.9899
