Adsorption isotherm of Water on Co-BTTB-BPY
DOI: 10.1021/La503269f
Adsorbate Water: InChIKey XLYOFNOQVPJJNP-UHFFFAOYSA-N
Temperature: 298 K
Tabular data in the source: 0
pressure (bar)	uptake (mmol/g)
0.345801	0.0943047
0.655798	0.0987147
0.965815	0.147818
1.26987	0.196836
1.57987	0.201246
1.88988	0.250349
2.18802	0.433361
2.49807	0.57185
2.79054	1.51456
