Adsorption isotherm of Carbon Dioxide on [Mg2(HCO2)2(NH2-BDC)(DMF)2]
DOI: 10.1021/Cg4000318
Adsorbate Carbon Dioxide: InChIKey CURLTUGMZLYLDI-UHFFFAOYSA-N
Temperature: 273 K
Tabular data in the source: 0
pressure (bar)	uptake (mmol/g)
0.0366182	0.370862
0.0780923	0.718386
0.118136	0.988684
0.15961	1.25898
0.221107	1.56789
0.281173	1.8575
0.339808	2.12779
0.401305	2.38522
0.481393	2.67482
0.561481	2.92581
0.641569	3.17037
0.720227	3.39561
0.801745	3.58225
0.880403	3.74957
0.941899	3.89759
0.997674	3.98126
