Adsorption isotherm of Copper(II) Ion, Water on Fe2O3@C structure
DOI: 10.1021/acssuschemeng.6b02034
Article source: Figure 8
Adsorbate Copper(II) Ion: InChIKey JPVYNHNXODAKFH-UHFFFAOYSA-N
Adsorbate Water: InChIKey XLYOFNOQVPJJNP-UHFFFAOYSA-N
Kind: experiment
Temperature: 298 K
Tabular data in the source: 0
pressure (bar)	Copper(II) Ion fraction	Copper(II) Ion uptake (mmol/g)	Water fraction	Water uptake (mmol/g)	total uptake (mmol/g)
1.01325	0.02119	0.0718			
1.01325	0.11744	0.4589			
1.01325	0.34339	0.6545			
1.01325	1.09903	1.0456			
1.01325	1.91568	1.2822			
