Adsorption isotherm of Nitrogen on Fe2O3@C structure
DOI: 10.1021/acssuschemeng.6b02034
Article source: Figure 2
Adsorbate Nitrogen: InChIKey IJGRMHOSHXDMSA-UHFFFAOYSA-N
Kind: experiment
Temperature: 77 K
Tabular data in the source: 0
pressure (bar)	uptake (cm3(STP)/g)
0.001246	4.27
0.006961	6.551
0.011723	8.137
0.01914	9.303
0.027519	10.071
0.038756	10.939
0.049608	11.385
0.058929	11.98
0.072638	12.402
0.082913	12.774
0.093004	13.345
0.104809	13.816
0.117373	13.915
0.126512	13.94
0.157162	15.106
0.171246	15.825
0.202656	16.296
0.231786	17.239
0.24815	17.611
0.291364	18.752
0.298406	19.273
0.34695	19.745
0.357994	20.018
0.398159	21.481
0.403873	21.134
0.446703	23.291
0.466501	22.325
0.498864	24.433
0.516565	23.962
0.543101	25.666
0.566365	25.26
0.59275	26.885
0.615537	26.917
0.635437	34.631
0.641912	28.26
0.681965	42.815
0.687963	30.728
0.727296	43.378
0.740256	34.696
0.768069	45.002
0.783419	38.069
0.80954	48.459
0.827242	43.675
0.837333	51.682
0.865319	54.706
0.871601	49.129
0.888734	60.507
0.908725	55.872
0.915382	67.746
0.935748	75.555
0.938991	63.83
0.960116	83.116
0.968111	72.358
0.98182	90.057
0.987149	83.389
0.988153	90.955
1.009	96.031
1.01428	95.972
