Adsorption isotherm of Cr(VI), Water on Fe2O3@C structure
DOI: 10.1021/acssuschemeng.6b02034
Article source: Figure 8
Adsorbate Cr(VI): InChIKey JOPOVCBBYLSVDA-UHFFFAOYSA-N
Adsorbate Water: InChIKey XLYOFNOQVPJJNP-UHFFFAOYSA-N
Kind: experiment
Temperature: 298 K
Tabular data in the source: 0
pressure (bar)	Cr(VI) fraction	Cr(VI) uptake (mmol/g)	Water fraction	Water uptake (mmol/g)	total uptake (mmol/g)
1.01325	0.02806	0.0769			
1.01325	0.15331	0.4579			
1.01325	0.37164	0.6906			
1.01325	0.70302	1.3979			
1.01325	1.31296	1.9101			
