Adsorption isotherm of Carbon Dioxide on ZIF-8-NH2
DOI: 10.1007/s10450-012-9407-1
Adsorbate Carbon Dioxide: InChIKey CURLTUGMZLYLDI-UHFFFAOYSA-N
Temperature: 298 K
Tabular data in the source: 0
pressure (bar)	uptake (molecules/8 unit cells)
0.0519031	1.62092
0.986159	25.5272
2.02422	42.9456
5.0346	78.1752
10.0173	108.108
15	131.959
19.9827	146.892
25.1211	157.363
30.0519	165.405
