Adsorption isotherm of Nitrogen on ZIF-8
DOI: 10.1007/s10450-012-9407-1
Adsorbate Nitrogen: InChIKey IJGRMHOSHXDMSA-UHFFFAOYSA-N
Temperature: 77 K
Tabular data in the source: 0
pressure (bar)	uptake (cm3(STP)/g)
0.00406607	43.75
0.00543498	172.812
0.00737314	210
0.0116019	227.5
0.0219297	310.625
0.0414197	315
0.0630851	318.281
0.0782651	318.281
0.0977822	318.281
0.115124	319.375
0.134634	320.469
0.151976	321.562
0.173662	321.562
0.19101	321.562
0.240881	322.656
0.288583	323.75
0.338453	324.844
0.386162	324.844
0.431702	324.844
0.488078	325.937
0.531449	325.937
0.579151	327.031
0.626859	327.031
0.67673	328.125
0.722263	329.219
0.776471	330.312
0.793819	330.312
0.822011	330.312
0.843689	331.406
0.871874	332.5
0.895715	334.687
0.919542	339.062
0.941207	342.344
0.9477	344.531
0.958488	353.281
0.960596	363.125
