Adsorption isotherm of Carbon Dioxide on ZIF-8-(NH2)2
DOI: 10.1007/s10450-012-9407-1
Adsorbate Carbon Dioxide: InChIKey CURLTUGMZLYLDI-UHFFFAOYSA-N
Temperature: 298 K
Tabular data in the source: 0
pressure (bar)	uptake (mmol/g)
0.0002128	0.0230553
1.12167	1.52457
2.08927	2.35709
5.12932	3.72533
9.93774	4.68324
14.963	5.13453
19.9887	5.63192
25.0129	5.96792
30.1843	6.2582
