Adsorption isotherm of Carbon Dioxide on ZIF-8
DOI: 10.1007/s10450-012-9407-1
Adsorbate Carbon Dioxide: InChIKey CURLTUGMZLYLDI-UHFFFAOYSA-N
Temperature: 298 K
Tabular data in the source: 0
pressure (bar)	uptake (mmol/g)
0.0002128	0.0230553
1.04016	0.694383
2.07926	1.27349
5.04569	2.66459
10.0784	3.92281
15.1064	4.67381
19.9844	5.17081
25.0099	5.64515
30.1077	5.95829
