Adsorption isotherm of Carbon Dioxide on ZIF-8
DOI: 10.1007/s10450-012-9407-1
Adsorbate Carbon Dioxide: InChIKey CURLTUGMZLYLDI-UHFFFAOYSA-N
Temperature: 298 K
Tabular data in the source: 0
pressure (bar)	uptake (molecules/8 unit cells)
0.0519031	1.62092
1.03806	17.8238
4.87889	61.9611
9.91349	88.6498
15	102.365
19.8789	112.839
24.9654	122.5
30.0519	128.513
