Adsorption isotherm of Carbon Dioxide on ZIF-8
DOI: 10.1007/s10450-012-9407-1
Adsorbate Carbon Dioxide: InChIKey CURLTUGMZLYLDI-UHFFFAOYSA-N
Temperature: 298 K
Tabular data in the source: 0
pressure (bar)	uptake (mmol/g)
0.923077	0.535984
3	1.41073
5.07692	2.34481
10.1538	3.74046
15.0769	4.48322
20.0769	5.00865
25.0769	5.39565
30.3077	5.66454
33.5385	5.79048
