Adsorption isotherm of Carbon Dioxide on ZIF-8
DOI: 10.1007/s10450-012-9407-1
Adsorbate Carbon Dioxide: InChIKey CURLTUGMZLYLDI-UHFFFAOYSA-N
Temperature: 298 K
Tabular data in the source: 0
pressure (bar)	uptake (mmol/g)
0.520833	0.266239
0.983796	0.470988
5.03472	2.17023
10.0694	3.58148
15.0463	4.39791
20.081	4.98865
25.1157	5.29221
