Adsorption isotherm of Carbon Dioxide on ZIF-8
DOI: 10.1007/s10450-012-9407-1
Adsorbate Carbon Dioxide: InChIKey CURLTUGMZLYLDI-UHFFFAOYSA-N
Temperature: 298 K
Tabular data in the source: 0
pressure (bar)	uptake (mmol/g)
1.04396	0.69936
2.03297	1.29638
5.10989	2.66098
10.0549	3.92324
15.0549	4.63966
20	5.13433
25.0549	5.57783
29.9451	5.88486
