Adsorption isotherm of Carbon Dioxide on ZIF-8
DOI: 10.1007/s10450-012-9407-1
Adsorbate Carbon Dioxide: InChIKey CURLTUGMZLYLDI-UHFFFAOYSA-N
Temperature: 328 K
Tabular data in the source: 0
pressure (bar)	uptake (mmol/g)
0.520833	0.143162
0.983796	0.327398
5.09259	1.26762
10.0694	2.3302
15.1042	3.06453
20.1389	3.63476
25.1736	3.89729
