Adsorption isotherm of Carbon Dioxide on ZIF-8-NH2
DOI: 10.1007/s10450-012-9407-1
Adsorbate Carbon Dioxide: InChIKey CURLTUGMZLYLDI-UHFFFAOYSA-N
Temperature: 298 K
Tabular data in the source: 0
pressure (bar)	uptake (mmol/g)
0.0002128	0.0230553
1.04272	0.971047
2.15758	1.75785
5.124	3.14895
10.1565	4.38411
15.113	5.38852
20.1398	6.00119
25.0178	6.49819
30.0418	6.81114
