Adsorption isotherm of Carbon Dioxide on ZIF-8
DOI: 10.1007/s10450-012-9407-1
Adsorbate Carbon Dioxide: InChIKey CURLTUGMZLYLDI-UHFFFAOYSA-N
Temperature: 298 K
Tabular data in the source: 0
pressure (bar)	uptake (mmol/g)
0.604396	0.238806
1.0989	0.49467
3.13187	1.38166
5.16484	2.28571
10.1648	3.75267
15.2198	4.5032
20.1648	5.03198
25.1648	5.44136
30.1648	5.93603
