Adsorption isotherm of Carbon Dioxide on ZIF-8-(NH2)2
DOI: 10.1007/s10450-012-9407-1
Adsorbate Carbon Dioxide: InChIKey CURLTUGMZLYLDI-UHFFFAOYSA-N
Temperature: 298 K
Tabular data in the source: 0
pressure (bar)	uptake (molecules/8 unit cells)
0.0519031	2.02633
0.882353	42.5556
1.92042	66.8659
4.9308	103.312
10.0173	128.378
15	142.095
19.9827	153.784
25.173	162.633
30	169.459
