Adsorption isotherm of Carbon Dioxide on COF-102
DOI: 10.1021/Nn100962r
Adsorbate Carbon Dioxide: InChIKey CURLTUGMZLYLDI-UHFFFAOYSA-N
Temperature: 298 K
Tabular data in the source: 0
pressure (bar)	uptake (mmol/g)
4.76703	6.17362
9.78495	12.3472
14.8029	18.2636
20.0717	21.8649
25.0896	25.209
29.8566	24.18
34.8746	25.4662
39.8925	26.4951
44.9104	26.7524
49.9283	27.2668
