Adsorption isotherm of Carbon Dioxide on COF-105
DOI: 10.1021/Nn100962r
Adsorbate Carbon Dioxide: InChIKey CURLTUGMZLYLDI-UHFFFAOYSA-N
Temperature: 298 K
Tabular data in the source: 0
pressure (bar)	uptake (mmol/g)
0.752688	1.54341
3.51254	4.63022
4.76703	6.68809
6.77419	9.7749
7.27599	10.2894
10.0358	12.6045
11.7921	14.6624
14.8029	17.4919
17.0609	19.0353
19.8208	21.3505
21.828	23.1511
23.3333	23.9228
24.8387	25.7234
26.595	27.2668
28.3513	29.0675
29.8566	30.6109
31.362	32.1543
32.8674	33.6977
34.8746	36.0128
36.8817	37.5562
38.3871	39.0996
39.8925	40.3858
42.1505	42.9581
43.405	44.2443
44.9104	46.0449
46.6667	47.5884
48.4229	49.1318
50.1792	50.6752
51.9355	52.2186
53.9427	53.5047
55.6989	54.7909
57.7061	56.3343
59.9642	57.8777
62.724	58.135
65.9857	58.9067
67.9928	59.1639
70	59.4211
