Adsorption isotherm of Carbon Dioxide on COF-102
DOI: 10.1021/Nn100962r
Adsorbate Carbon Dioxide: InChIKey CURLTUGMZLYLDI-UHFFFAOYSA-N
Temperature: 298 K
Tabular data in the source: 0
pressure (bar)	uptake (mmol/g)
1.50538	2.05787
3.26165	3.34405
5.26882	6.68809
7.52688	10.0321
9.03226	13.3762
11.0394	17.4919
13.2975	20.0643
16.0573	22.3794
18.5663	23.6656
21.828	24.4373
24.5878	25.209
27.0968	25.9807
30.8602	26.4951
33.6201	26.7524
36.129	27.0096
39.8925	27.0096
42.9032	27.2668
46.4158	27.2668
49.4265	27.5241
52.4373	27.0096
