Adsorption isotherm of Hydrogen on MOF-74-Ni
DOI: 10.1016/j.ijhydene.2015.01.113
Article source: Figure 5b
Adsorbate Hydrogen: InChIKey UFHFLCQGNIYNRP-UHFFFAOYSA-N
Kind: experiment
Isotherm type: excess
Temperature: 298 K
Tabular data in the source: 0
pressure (bar)	uptake (wt%)
0	0
7.91209	0.055639
15.4945	0.106767
34.2857	0.207519
68.9011	0.336842
75.4945	0.347368
99.2308	0.413534
100.879	0.409023
124.286	0.458647
125.934	0.469173
149.011	0.494737
150.659	0.508271
173.077	0.517293
