Adsorption isotherm of Hydrogen on (Ni/Co 25:75)-MOF-74
DOI: 10.1016/j.ijhydene.2015.01.113
Article source: Figure 4a
Adsorbate Hydrogen: InChIKey UFHFLCQGNIYNRP-UHFFFAOYSA-N
Kind: experiment
Isotherm type: excess
Temperature: 77 K
Tabular data in the source: 0
pressure (bar)	uptake (wt%)
0	0
0.033835	1.03652
0.05335	1.09709
0.072864	1.15766
0.111741	1.30572
0.111932	1.27206
0.170704	1.41338
0.17101	1.35953
0.210268	1.44028
0.229859	1.48739
0.269384	1.52102
0.308872	1.56139
0.368141	1.61521
0.447153	1.68921
0.585817	1.74972
0.783712	1.87078
0.981874	1.94472
1.49708	2.13966
1.9731	2.2404
2.48877	2.35457
2.96495	2.42838
3.46106	2.48872
3.97703	2.54905
4.96925	2.66973
6.00153	2.72981
6.9742	2.79665
7.98667	2.85001
9.95206	2.95002
10.9646	2.98319
11.9772	3.01636
12.9501	3.04281
13.9826	3.06251
