Adsorption isotherm of Hydrogen on Zn-MOF-74
DOI: 10.1016/j.ijhydene.2015.01.113
Article source: Figure 5b
Adsorbate Hydrogen: InChIKey UFHFLCQGNIYNRP-UHFFFAOYSA-N
Kind: experiment
Isotherm type: excess
Temperature: 298 K
Tabular data in the source: 0
pressure (bar)	uptake (wt%)
0	0
1.97802	0.010526
2.96703	0.013534
7.58242	0.042105
10.2198	0.054135
16.4835	0.085714
24.7253	0.126316
34.9451	0.168421
50.1099	0.231579
69.2308	0.279699
75.1648	0.306767
99.5604	0.350376
100.22	0.360902
124.615	0.398496
125.275	0.409023
149.011	0.433083
150	0.439098
178.022	0.470677
