Adsorption isotherm of Hydrogen on MOF-74-Co
DOI: 10.1016/j.ijhydene.2015.01.113
Article source: Figure 5b
Adsorbate Hydrogen: InChIKey UFHFLCQGNIYNRP-UHFFFAOYSA-N
Kind: experiment
Isotherm type: excess
Temperature: 298 K
Tabular data in the source: 0
pressure (bar)	uptake (wt%)
0	0
8.57143	0.06015
15.8242	0.093233
34.6154	0.21203
68.9011	0.35188
99.5604	0.437594
100.549	0.43609
124.286	0.488722
125.275	0.499248
149.011	0.530827
150.33	0.536842
172.747	0.559398
