Adsorption isotherm of Hydrogen on (Ni/Co 75:25)-MOF-74
DOI: 10.1016/j.ijhydene.2015.01.113
Article source: Figure 4a
Adsorbate Hydrogen: InChIKey UFHFLCQGNIYNRP-UHFFFAOYSA-N
Kind: experiment
Isotherm type: excess
Temperature: 77 K
Tabular data in the source: 0
pressure (bar)	uptake (wt%)
0	0
0.013939	1.04326
0.05293	1.17113
0.053274	1.11055
0.072368	1.24516
0.111779	1.29898
0.150922	1.39993
0.15119	1.35281
0.210268	1.44028
0.229821	1.49412
0.249373	1.54796
0.269079	1.57487
0.328424	1.61523
0.367835	1.66905
0.486526	1.74977
0.605179	1.83721
0.803112	1.95154
0.981339	2.03895
1.47669	2.23391
1.97253	2.34136
2.46841	2.44208
3.02379	2.55624
3.48011	2.63006
3.97622	2.6904
5.00836	2.7774
5.98091	2.86443
6.9734	2.93799
7.98586	2.99135
9.95129	3.08464
10.9837	3.1178
11.9566	3.15771
12.9692	3.18415
14.0016	3.21058
