Adsorption isotherm of Hydrogen on Zn-MOF-74
DOI: 10.1016/j.ijhydene.2015.01.113
Article source: Figure 4a
Adsorbate Hydrogen: InChIKey UFHFLCQGNIYNRP-UHFFFAOYSA-N
Kind: experiment
Isotherm type: excess
Temperature: 77 K
Tabular data in the source: 0
pressure (bar)	uptake (wt%)
0	0
0.035439	0.753829
0.036279	0.605752
0.054648	0.868243
0.093945	0.942263
0.133279	1.00955
0.172652	1.07011
0.192281	1.11048
0.231539	1.19123
0.231768	1.15085
0.290923	1.22486
0.330486	1.25176
0.370012	1.2854
0.409461	1.3325
0.508332	1.40649
0.587383	1.47376
0.785354	1.58135
0.983478	1.66203
1.49884	1.83005
1.99464	1.94423
3.97882	2.2327
7.98873	2.48654
11.9795	2.61251
