Adsorption isotherm of Hydrogen on MOF-74-Ni
DOI: 10.1016/j.ijhydene.2015.01.113
Article source: Figure 4a
Adsorbate Hydrogen: InChIKey UFHFLCQGNIYNRP-UHFFFAOYSA-N
Kind: experiment
Isotherm type: excess
Temperature: 77 K
Tabular data in the source: 0
pressure (bar)	uptake (wt%)
0	0
0.033835	1.03652
0.072788	1.17112
0.073094	1.11727
0.112161	1.23168
0.131713	1.28551
0.151266	1.33935
0.190448	1.43356
0.190715	1.38645
0.210077	1.47394
0.249526	1.52103
0.30891	1.55466
0.348321	1.60849
0.387808	1.64885
0.506499	1.72956
0.645086	1.80354
0.803265	1.92461
1.02121	2.01201
1.51663	2.1935
2.01232	2.32788
2.48846	2.40842
2.98446	2.48895
3.48046	2.56948
3.97661	2.62309
4.98884	2.71683
5.98122	2.81059
6.99368	2.86395
8.00618	2.91057
9.99143	3.01058
10.9842	3.03703
11.957	3.07021
12.9895	3.09664
13.9823	3.12309
