Adsorption isotherm of Hydrogen on MOF-74-Co
DOI: 10.1016/j.ijhydene.2015.01.113
Article source: Figure 4a
Adsorbate Hydrogen: InChIKey UFHFLCQGNIYNRP-UHFFFAOYSA-N
Kind: experiment
Isotherm type: excess
Temperature: 77 K
Tabular data in the source: 0
pressure (bar)	uptake (wt%)
0	0
0.013786	1.07019
0.091539	1.3663
0.347977	1.66906
0.38735	1.72962
0.446466	1.81036
0.604873	1.89106
0.782872	2.01885
1.00085	2.09952
1.51595	2.31466
1.99189	2.42885
2.46792	2.52958
2.96391	2.61011
3.97573	2.7779
4.96814	2.86492
5.96059	2.94521
7.98529	3.09231
9.97065	3.17213
11.976	3.23847
14.0012	3.28461
