Adsorption isotherm of Hydrogen on (Ni/Co 50:50)-MOF-74
DOI: 10.1016/j.ijhydene.2015.01.113
Article source: Figure 4a
Adsorbate Hydrogen: InChIKey UFHFLCQGNIYNRP-UHFFFAOYSA-N
Kind: experiment
Isotherm type: excess
Temperature: 77 K
Tabular data in the source: 0
pressure (bar)	uptake (wt%)
0	0
0	1.04327
0.013519	1.1173
0.03311	1.16441
0.072444	1.2317
0.111435	1.35956
0.111779	1.29898
0.130988	1.4134
0.170475	1.45376
0.209619	1.55471
0.209886	1.50759
0.268926	1.60179
0.288555	1.64217
0.347862	1.68926
0.367491	1.72963
0.486106	1.8238
0.604873	1.89106
0.782872	2.01885
1.0007	2.12644
1.47611	2.33487
1.99178	2.44904
2.48758	2.56323
2.98358	2.64376
3.47958	2.72429
3.97565	2.79136
4.98785	2.89183
5.99997	3.00577
6.9726	3.07934
7.98506	3.1327
10.0101	3.22596
11.0027	3.27259
11.9557	3.30579
13.008	3.33221
13.9611	3.35194
