Adsorption isotherm of Hydrogen on (Ni/Co 25:75)-MOF-74
DOI: 10.1016/j.ijhydene.2015.01.113
Article source: Figure 5b
Adsorbate Hydrogen: InChIKey UFHFLCQGNIYNRP-UHFFFAOYSA-N
Kind: experiment
Isotherm type: excess
Temperature: 298 K
Tabular data in the source: 0
pressure (bar)	uptake (wt%)
0	0
8.57143	0.06015
15.8242	0.093233
34.6154	0.184962
69.2308	0.299248
75.8242	0.308271
99.5604	0.366917
124.615	0.406015
125.604	0.416541
149.011	0.439098
150.659	0.451128
172.747	0.458647
