Adsorption isotherm of Hydrogen on (Ni/Co 50:50)-MOF-74
DOI: 10.1016/j.ijhydene.2015.01.113
Article source: Figure 5b
Adsorbate Hydrogen: InChIKey UFHFLCQGNIYNRP-UHFFFAOYSA-N
Kind: experiment
Isotherm type: excess
Temperature: 298 K
Tabular data in the source: 0
pressure (bar)	uptake (wt%)
0	0
3.95604	0.030075
10.2198	0.076692
25.7143	0.166917
51.0989	0.288722
69.2308	0.348872
75.4945	0.377444
99.2308	0.434586
100.549	0.451128
124.615	0.491729
125.604	0.499248
148.681	0.538346
150	0.541353
172.747	0.565414
