Adsorption isotherm of Hydrogen on (Ni/Co 75:25)-MOF-74
DOI: 10.1016/j.ijhydene.2015.01.113
Article source: Figure 5b
Adsorbate Hydrogen: InChIKey UFHFLCQGNIYNRP-UHFFFAOYSA-N
Kind: experiment
Isotherm type: excess
Temperature: 298 K
Tabular data in the source: 0
pressure (bar)	uptake (wt%)
0	0
8.24176	0.058647
16.4835	0.108271
34.9451	0.204511
69.5604	0.33985
75.4945	0.371429
99.2308	0.422556
100.549	0.43609
123.626	0.469173
125.604	0.487218
149.011	0.503759
150.659	0.512782
172.747	0.529323
