Adsorption isotherm of M-Xylene on [Zn2(TBAPy)(H2O)2]
DOI: 10.1021/Ja308995t
Adsorbate M-Xylene: InChIKey IVSZLXZYQVIEFR-UHFFFAOYSA-N
Temperature: 303 K
Tabular data in the source: 0
pressure (bar)	uptake (mmol/g)
9.91e-05	0.0294945
9.91e-05	0.564789
0.000134	1.45949
0.000169	1.68891
0.000903	1.75008
0.00205676	1.78067
0.00404937	1.84185
0.00600702	2.01008
0.00799962	2.31597
0.00995727	2.56067
0.0119848	2.80538
0.0139774	3.20302
0.0148164	3.34832
