Adsorption isotherm of Carbon Dioxide on [Zn2(TBAPy)(H2O)2]
DOI: 10.1021/Ja308995t
Adsorbate Carbon Dioxide: InChIKey CURLTUGMZLYLDI-UHFFFAOYSA-N
Temperature: 195 K
Tabular data in the source: 0
pressure (bar)	uptake (mmol/g)
0.00619484	0.043695
0.00619484	0.99193
0.00837971	2.03193
0.0149343	2.90369
0.0171192	3.50017
0.0302285	4.06605
0.0477074	4.69311
0.0695562	5.2284
0.0914049	5.54958
0.156951	5.96252
0.222497	6.20722
0.296783	6.39075
0.397287	6.54369
0.497791	6.63546
0.598296	6.72722
0.799304	6.86487
1.00031	6.94134
1.10082	6.98722
