Adsorption isotherm of P-Xylene on [Zn2(TBAPy)(H2O)2]
DOI: 10.1021/Ja308995t
Adsorbate P-Xylene: InChIKey URLKBWYHVLBVBO-UHFFFAOYSA-N
Temperature: 303 K
Tabular data in the source: 0
pressure (bar)	uptake (mmol/g)
8.67e-05	0.729123
0.000117	0.0124843
0.000117	1.11366
0.000178	1.4545
0.00024	1.77349
0.000882	1.86089
0.00201379	1.88711
0.00403261	1.91332
0.00602084	1.93954
0.00807026	1.96139
0.0100279	1.97887
0.0120161	2.02694
0.0139432	2.0619
0.0150444	2.10559
