Adsorption isotherm of P-Xylene on [Zn2(TBAPy)(H2O)2]
DOI: 10.1021/Ja308995t
Adsorbate P-Xylene: InChIKey URLKBWYHVLBVBO-UHFFFAOYSA-N
Temperature: 303 K
Tabular data in the source: 0
pressure (bar)	uptake (mmol/g)
9.91e-05	0.71773
0.000134	1.09244
0.000169	1.4442
0.000414	1.79597
0.00100803	1.87244
0.00202181	1.88008
0.00404937	1.91832
0.00607693	1.94126
0.00803458	1.95655
0.0100272	1.97949
0.0119848	2.01773
0.0140124	2.07126
0.0150611	2.10949
