Adsorption isotherm of M-Xylene on [Zn2(TBAPy)(H2O)2]
DOI: 10.1021/Ja308995t
Adsorbate M-Xylene: InChIKey IVSZLXZYQVIEFR-UHFFFAOYSA-N
Temperature: 303 K
Tabular data in the source: 0
pressure (bar)	uptake (mmol/g)
0.000117	0.0294945
0.000117	0.564789
0.000148	1.47479
0.000148	1.61244
0.000423	1.72714
0.00112673	1.75773
0.00204438	1.79597
0.00403261	1.8342
0.00599026	2.01008
0.00800908	2.31597
0.00999732	2.56832
0.011955	2.81302
0.0139738	3.22597
0.0147997	3.36361
