Adsorption isotherm of Nitrogen on SNCuBTC
DOI: 10.1039/C1ce05124e
Adsorbate Nitrogen: InChIKey IJGRMHOSHXDMSA-UHFFFAOYSA-N
Temperature: 77 K
Tabular data in the source: 0
pressure (bar)	uptake (cm3(STP)/g)
0.00619484	324.173
0.00837971	11.5171
0.0280436	335.971
0.0761108	353.668
0.141657	369.399
0.202833	377.265
0.305523	383.164
0.403842	392.996
0.502161	400.862
0.600481	402.828
0.700985	414.626
0.801489	424.458
0.851741	432.324
0.906363	442.156
0.95443	469.685
0.971909	518.845
0.987203	703.685
