Adsorption isotherm of Hydrogen on SNCuBTC
DOI: 10.1039/C1ce05124e
Adsorbate Hydrogen: InChIKey UFHFLCQGNIYNRP-UHFFFAOYSA-N
Temperature: 77 K
Tabular data in the source: 0
pressure (bar)	uptake (mmol/g)
0.0100122	0.152692
0.0266877	1.29395
0.0388153	2.11485
0.0736822	3.23608
0.104001	3.91683
0.150996	4.7978
0.251049	6.05918
0.354133	6.98019
0.458734	7.70099
0.551207	8.20154
0.649744	8.68207
0.745249	9.06248
0.848333	9.4429
0.943838	9.78327
1.03783	10.0436
