Adsorption isotherm of Hydrogen on SNCuBTC
DOI: 10.1039/C1ce05124e
Adsorbate Hydrogen: InChIKey UFHFLCQGNIYNRP-UHFFFAOYSA-N
Temperature: 77 K
Tabular data in the source: 0
pressure (bar)	uptake (mmol/g)
0.0130441	1.33399
0.0312355	2.31507
0.0509429	3.41628
0.0736822	4.27722
0.104001	5.23828
0.129772	5.91903
0.202538	7.42068
0.304107	8.76215
0.402644	9.8033
0.505728	10.6442
0.607297	11.3049
0.713414	11.9056
0.808919	12.3861
0.910487	12.8667
1.00448	13.187
