Adsorption isotherm of Hydrogen on SNCuBTC
DOI: 10.1039/C1ce05124e
Adsorbate Hydrogen: InChIKey UFHFLCQGNIYNRP-UHFFFAOYSA-N
Temperature: 77 K
Tabular data in the source: 0
pressure (bar)	uptake (mmol/g)
0.0100122	1.27392
0.0221398	2.0748
0.0570067	3.17601
0.0812619	3.95687
0.104001	4.51749
0.135836	5.0781
0.185863	5.7989
0.241953	6.51969
0.304107	7.0803
0.375357	7.60088
0.46025	8.14147
0.537563	8.52189
0.616393	8.90231
0.695222	9.20264
0.775568	9.42288
0.8832	9.8033
0.971125	10.1036
1.05299	10.2438
