Adsorption isotherm of Hydrogen on SNCuBTC
DOI: 10.1039/C1ce05124e
Adsorbate Hydrogen: InChIKey UFHFLCQGNIYNRP-UHFFFAOYSA-N
Temperature: 77 K
Tabular data in the source: 0
pressure (bar)	uptake (mmol/g)
0.0100122	0.573154
0.01456	1.15379
0.0282036	2.09483
0.0539748	3.35621
0.0812619	4.41738
0.119161	5.45852
0.144932	6.09923
0.185863	6.82002
0.231341	7.48074
0.278336	8.20154
0.442058	9.52299
0.598201	10.5842
0.777084	11.6053
0.94687	12.3861
