Adsorption isotherm of Hydrogen on SNCuBTC
DOI: 10.1039/C1ce05124e
Adsorbate Hydrogen: InChIKey UFHFLCQGNIYNRP-UHFFFAOYSA-N
Temperature: 77 K
Tabular data in the source: 0
pressure (bar)	uptake (mmol/g)
0.000295	0.0845452
0.0012249	0.204263
0.00223898	0.34863
0.00363335	0.53877
0.00574602	0.771165
0.00747842	0.940179
0.00946433	1.10215
0.0118728	1.3099
0.0235348	2.08102
