Adsorption isotherm of Hydrogen on SNCuBTC
DOI: 10.1039/C1ce05124e
Adsorbate Hydrogen: InChIKey UFHFLCQGNIYNRP-UHFFFAOYSA-N
Temperature: 77 K
Tabular data in the source: 0
pressure (bar)	uptake (mmol/g)
0.00621081	0.545813
0.0115348	1.10919
0.0181263	1.61624
0.0248869	2.10567
0.0295348	2.41201
