Adsorption isotherm of Hydrogen on SNCuBTC
DOI: 10.1039/C1ce05124e
Adsorbate Hydrogen: InChIKey UFHFLCQGNIYNRP-UHFFFAOYSA-N
Temperature: 77 K
Tabular data in the source: 0
pressure (bar)	uptake (mmol/g)
0.000422	0.0458128
0.00135165	0.126799
0.00223898	0.197221
0.00414039	0.359193
0.00540799	0.447221
0.00773194	0.612714
0.00895729	0.704263
0.0101404	0.767644
0.0121686	0.922573
0.014746	1.07046
0.0158869	1.14793
0.0173235	1.21835
0.0186756	1.29933
