Adsorption isotherm of Hydrogen on SNCuBTC
DOI: 10.1039/C1ce05124e
Adsorbate Hydrogen: InChIKey UFHFLCQGNIYNRP-UHFFFAOYSA-N
Temperature: 77 K
Tabular data in the source: 0
pressure (bar)	uptake (mmol/g)
0.000126	0.0387705
0.000633	0.0986297
0.00164743	0.214827
0.0036756	0.429616
0.0054925	0.616235
0.0072249	0.806376
0.00908405	0.971869
0.0132249	1.34511
0.0183376	1.72891
0.0270418	2.34863
