Adsorption isotherm of Isobutane on Zn-DABCO
DOI: 10.1021/Je3007265
Adsorbate Isobutane: InChIKey NNPPMTNAJDCUHE-UHFFFAOYSA-N
Temperature: 294 K
Tabular data in the source: 0
pressure (bar)	uptake (mmol/g)
0.00348301	0.563502
0.00700414	1.27336
0.0175675	2.30998
0.0175675	3.36914
0.0246098	4.76632
0.133765	4.85646
0.313342	4.89026
0.528131	4.9804
0.584469	5.02547
0.602075	5.18322
0.623201	6.08463
0.65137	6.29871
0.718272	6.38885
0.996441	6.44519
1.24292	6.45646
1.54222	6.479
1.91545	6.50153
