Adsorption isotherm of N-Pentane on ZnDABCO
DOI: 10.1021/Je3007265
Adsorbate N-Pentane: InChIKey OFBQJSOFQDEBGM-UHFFFAOYSA-N
Temperature: 350 K
Tabular data in the source: 0
pressure (bar)	uptake (mmol/g)
0.00140083	0.0254436
0.00985153	1.2508
0.0183022	1.98601
0.0218234	2.44234
0.0337952	2.94094
0.0506966	3.48178
0.089429	3.90432
0.135204	4.14939
0.197175	4.30995
0.255626	4.42826
0.323232	4.49587
0.41619	4.57192
