Adsorption isotherm of N-propane on Zn-DABCO
DOI: 10.1021/Je3007265
Adsorbate N-propane: InChIKey ATUOYWHBWRKTHZ-UHFFFAOYSA-N
Temperature: 350 K
Tabular data in the source: 0
pressure (bar)	uptake (mmol/g)
0.0294707	0.0339248
0.0984848	0.57477
0.26609	1.64519
0.433696	2.53533
0.985809	4.13533
1.28158	4.50716
1.99144	5.10435
2.86891	5.48745
3.91398	5.7466
5.11679	5.94942
