Adsorption isotherm of Ethane on Zn-DABCO
DOI: 10.1021/Je3007265
Adsorbate Ethane: InChIKey OTMSDBZUPAUEDD-UHFFFAOYSA-N
Temperature: 314 K
Tabular data in the source: 0
pressure (bar)	uptake (mmol/g)
0.0573688	0.480903
0.414905	1.18167
0.700933	1.98255
1.27299	3.67012
3.883	6.4732
7.67288	7.51721
11.2125	7.96055
14.5733	8.23228
17.7196	8.37529
22.1888	8.4897
