Adsorption isotherm of N-propane on Zn-DABCO
DOI: 10.1021/Je3007265
Adsorbate N-propane: InChIKey ATUOYWHBWRKTHZ-UHFFFAOYSA-N
Temperature: 294 K
Tabular data in the source: 0
pressure (bar)	uptake (mmol/g)
0.000107	0.315615
0.0294707	0.721249
0.0491891	1.55505
0.0590482	1.91561
0.0590482	2.9635
0.0689074	2.50153
0.0886257	3.66209
0.118203	4.27054
0.197076	4.99167
0.27595	5.87054
0.492851	6.29871
0.699893	6.59167
0.995668	6.76069
1.59708	6.95223
2.58299	7.14378
3.20412	7.17759
3.79567	7.23392
4.86046	7.29026
