Adsorption isotherm of Isobutane on Zn-DABCO
DOI: 10.1021/Je3007265
Adsorbate Isobutane: InChIKey NNPPMTNAJDCUHE-UHFFFAOYSA-N
Temperature: 314 K
Tabular data in the source: 0
pressure (bar)	uptake (mmol/g)
0.00348301	0.428291
0.0140464	1.03674
0.0210886	1.76914
0.031652	3.70716
0.0386943	4.27054
0.0527788	4.70998
0.130244	4.84519
0.257004	4.90153
0.454187	4.92407
0.735877	4.93533
0.957708	4.9466
1.27109	4.9466
1.54926	4.9466
1.79574	4.95787
2.02461	4.95787
2.1056	4.95787
