Adsorption isotherm of Ethane on Zn-DABCO
DOI: 10.1021/Je3007265
Adsorbate Ethane: InChIKey OTMSDBZUPAUEDD-UHFFFAOYSA-N
Temperature: 294 K
Tabular data in the source: 0
pressure (bar)	uptake (mmol/g)
0.0931224	0.35219
0.343397	1.71083
0.593672	3.62722
1.16573	5.52931
3.95451	7.80324
7.60137	8.58981
11.0337	8.90445
14.3588	9.07606
17.1833	9.17617
21.5095	9.24768
