Adsorption isotherm of Isobutane on Zn-DABCO
DOI: 10.1021/Je3007265
Adsorbate Isobutane: InChIKey NNPPMTNAJDCUHE-UHFFFAOYSA-N
Temperature: 350 K
Tabular data in the source: 0
pressure (bar)	uptake (mmol/g)
0.00348301	0.0339248
0.0175675	0.394488
0.0351732	0.946601
0.0492577	1.27336
0.0739055	1.87054
0.116159	2.49026
0.158413	3.40294
0.302779	4.59731
0.654891	4.77759
0.978835	4.83392
1.58799	4.85646
1.8732	4.89026
2.06686	4.89026
