Adsorption isotherm of Ethane on Zn-DABCO
DOI: 10.1021/Je3007265
Adsorbate Ethane: InChIKey OTMSDBZUPAUEDD-UHFFFAOYSA-N
Temperature: 350 K
Tabular data in the source: 0
pressure (bar)	uptake (mmol/g)
0.0931224	0.0947643
0.343397	0.437999
0.736687	0.938549
1.30874	1.69652
3.95451	4.18497
7.81589	5.72953
11.4985	6.33019
14.8951	6.73063
18.3274	6.94515
23.1899	7.17397
