Adsorption isotherm of N-propane on Zn-DABCO
DOI: 10.1021/Je3007265
Adsorbate N-propane: InChIKey ATUOYWHBWRKTHZ-UHFFFAOYSA-N
Temperature: 314 K
Tabular data in the source: 0
pressure (bar)	uptake (mmol/g)
0.0393299	0.169136
0.0787665	1.43111
0.0984848	1.81421
0.137921	2.40012
0.167499	3.13252
0.216795	3.74097
0.413978	4.70998
0.640738	5.43111
0.96609	5.82547
1.95201	6.45646
2.84919	6.63674
3.75623	6.78322
4.97877	6.90716
