Adsorption isotherm of N-Pentane on Zn-DABCO
DOI: 10.1021/Je3007265
Adsorbate N-Pentane: InChIKey OFBQJSOFQDEBGM-UHFFFAOYSA-N
Temperature: 314 K
Tabular data in the source: 0
pressure (bar)	uptake (mmol/g)
0.0035135	0.997275
0.00421773	1.41981
0.00562618	2.31558
0.00773886	3.39727
0.0161896	4.03953
0.0514008	4.64798
0.0781614	4.76629
0.128161	4.84234
0.204218	4.92685
0.246471	4.9522
0.294359	4.99446
0.360556	5.01981
0.414077	5.04516
