Adsorption isotherm of N-Pentane on Zn-DABCO
DOI: 10.1021/Je3007265
Adsorbate N-Pentane: InChIKey OFBQJSOFQDEBGM-UHFFFAOYSA-N
Temperature: 294 K
Tabular data in the source: 0
pressure (bar)	uptake (mmol/g)
0.00140083	1.32685
0.00140083	1.69023
0.00280928	2.01981
0.00280928	2.77192
0.00492196	3.65925
0.00844308	4.46206
0.0288656	4.83389
0.0640769	4.99446
0.118302	5.09587
0.248584	5.23108
0.31126	5.28178
0.330978	5.29023
0.380274	5.32404
0.410556	5.34094
