Adsorption isotherm of Nitrogen on COF-76
DOI: 10.1021/jacs.9b13971
Article source: Figure 3c
Adsorbate Nitrogen: InChIKey IJGRMHOSHXDMSA-UHFFFAOYSA-N
Kind: experiment
Temperature: 77 K
Tabular data in the source: 0
pressure (bar)	uptake (cm3(STP)/g)
0.009961	43.75
0.010008	57.8125
0.010079	79.6875
0.010125	93.75
0.014119	114.062
0.01418	132.812
0.016185	145.312
0.0182	160.938
0.0261	175
0.030063	185.938
0.041881	196.875
0.053679	201.562
0.063502	203.125
0.08118	204.688
0.098868	209.375
0.116546	210.938
0.132261	212.5
0.14797	212.5
0.169581	215.625
0.191181	215.625
0.202973	218.75
0.218682	218.75
0.248137	218.75
0.277587	217.188
0.301182	226.562
0.419032	235.938
0.532945	242.188
0.644905	251.562
0.747005	248.438
0.857037	268.75
0.961264	315.625
0.998978	439.062
0.057657	217.188
0.106769	223.438
0.157845	229.688
0.185336	229.688
0.210879	234.375
0.232479	234.375
0.25409	237.5
0.287472	237.5
0.316932	239.062
0.350319	240.625
0.377826	245.312
0.407271	242.188
0.438695	243.75
0.456368	243.75
0.476014	246.875
0.507438	248.438
0.59974	251.562
0.701887	262.5
0.804033	273.438
0.906179	284.375
1.00289	434.375
