Adsorption isotherm of Nitrogen on COF-76-P2
DOI: 10.1021/jacs.9b13971
Article source: Figure S18
Adsorbate Nitrogen: InChIKey IJGRMHOSHXDMSA-UHFFFAOYSA-N
Kind: experiment
Temperature: 77 K
Tabular data in the source: 0
pressure (bar)	uptake (cm3(STP)/g)
0.007372	38.1062
0.009191	54.2725
0.009126	71.5935
0.010936	90.0693
0.010906	98.1524
0.012721	115.473
0.02772	125.866
0.046493	132.794
0.055884	135.104
0.067159	136.259
0.080313	137.413
0.114142	139.723
0.142327	143.187
0.164886	143.187
0.181805	143.187
0.20623	146.651
0.226909	146.651
0.251351	145.497
0.28706	147.806
0.313374	148.961
0.422367	159.353
0.527631	161.663
0.642282	167.436
0.747533	173.21
0.858397	185.912
0.957865	229.792
1.00245	371.824
0.053921	157.044
0.102768	165.127
0.155421	160.508
0.192997	166.282
0.215556	166.282
0.239985	168.591
0.26629	172.055
0.290737	169.746
0.318931	170.901
0.347138	168.591
0.375336	168.591
0.397881	172.055
0.422307	175.52
0.44674	176.674
0.482441	181.293
0.514394	182.448
0.604637	180.139
0.694853	184.758
0.803846	195.15
0.912801	215.935
1.00432	374.134
