Adsorption isotherm of Nitrogen on COF-78 Stepwise synthesis
DOI: 10.1021/jacs.9b13971
Article source: Figure S20
Adsorbate Nitrogen: InChIKey IJGRMHOSHXDMSA-UHFFFAOYSA-N
Kind: experiment
Temperature: 77 K
Tabular data in the source: 0
pressure (bar)	uptake (cm3(STP)/g)
0.001564	30.287
0.000599	49.9905
0.001081	68.1673
0.0028	83.3136
0.003283	110.605
0.001584	127.266
0.001893	154.528
0.00168	171.196
0.002404	189.375
0.003109	209.07
0.008613	227.236
0.014156	242.371
0.021552	262.045
0.027094	277.18
0.032714	286.254
0.051678	298.319
0.064984	304.34
0.087869	308.817
0.103106	313.317
0.120274	316.296
0.15658	317.702
0.188966	326.696
0.221467	326.599
0.242421	332.597
0.269187	332.517
0.290179	335.484
0.41051	344.216
0.525126	351.449
0.620603	360.254
0.733345	364.462
0.84406	377.767
0.954619	403.194
0.996526	565.19
0.047642	314.998
0.104844	326.948
0.154417	337.406
0.173478	341.894
0.200186	346.36
0.217393	346.308
0.245993	352.283
0.272663	359.779
0.303291	356.657
0.345372	355.016
0.372061	360.997
0.396896	362.438
0.448535	360.768
0.479086	363.707
0.507649	372.713
0.585977	377.024
0.679581	382.805
0.784715	384.005
0.899214	400.33
0.992702	565.202
