Adsorption isotherm of Nitrogen on COF-77
DOI: 10.1021/jacs.9b13971
Article source: Figure 3c
Adsorbate Nitrogen: InChIKey IJGRMHOSHXDMSA-UHFFFAOYSA-N
Kind: experiment
Temperature: 77 K
Tabular data in the source: 0
pressure (bar)	uptake (cm3(STP)/g)
0.01012	92.1875
0.016093	117.188
0.020066	131.25
0.020138	153.125
0.024121	170.312
0.026126	182.812
0.028151	201.562
0.03214	220.312
0.038087	237.5
0.044019	250
0.059784	267.188
0.079487	287.5
0.09131	300
0.109034	315.625
0.138541	331.25
0.146405	334.375
0.168026	340.625
0.199455	343.75
0.230879	345.312
0.283918	351.562
0.313373	351.562
0.334968	350
0.358527	348.438
0.531365	359.375
0.647267	373.438
0.741528	375
0.857441	392.188
0.963611	432.812
1.00342	596.875
0.164083	335.938
0.197502	346.875
0.217148	350
0.248577	353.125
0.283933	356.25
0.33302	354.688
0.360511	354.688
0.39194	357.812
0.415509	359.375
0.444974	362.5
0.476408	367.188
0.498008	367.188
0.521577	368.75
0.590341	379.688
0.696389	382.812
0.790676	392.188
0.892843	409.375
0.993603	596.875
