Adsorption isotherm of Nitrogen on COF-78
DOI: 10.1021/jacs.9b13971
Article source: Figure 3c
Adsorbate Nitrogen: InChIKey IJGRMHOSHXDMSA-UHFFFAOYSA-N
Kind: experiment
Temperature: 77 K
Tabular data in the source: 0
pressure (bar)	uptake (cm3(STP)/g)
0.009869	15.625
0.00991	28.125
0.011961	54.6875
0.012002	67.1875
0.0101	85.9375
0.010166	106.25
0.0063	125
0.00834	148.438
0.010381	171.875
0.012411	192.188
0.022306	215.625
0.022408	246.875
0.030314	262.5
0.038215	276.562
0.050043	290.625
0.071679	301.562
0.097206	301.562
0.124749	317.188
0.146354	318.75
0.179737	318.75
0.207243	323.438
0.23474	325
0.260277	328.125
0.27994	335.938
0.303498	334.375
0.413489	342.188
0.531334	350
0.637393	356.25
0.747394	367.188
0.863285	378.125
0.96155	403.125
1.01313	562.5
0.059933	312.5
0.111024	323.438
0.162099	329.688
0.179788	334.375
0.199429	335.938
0.236754	340.625
0.264261	345.312
0.28782	343.75
0.321212	346.875
0.358542	353.125
0.382106	353.125
0.415504	357.812
0.458694	354.688
0.488154	356.25
0.507816	364.062
0.5923	378.125
0.698343	379.688
0.802443	387.5
0.904589	398.438
1.0151	565.625
