Adsorption isotherm of Nitrogen on COF-77 Stepwise synthesis
DOI: 10.1021/jacs.9b13971
Article source: Figure S19
Adsorbate Nitrogen: InChIKey IJGRMHOSHXDMSA-UHFFFAOYSA-N
Kind: experiment
Temperature: 77 K
Tabular data in the source: 0
pressure (bar)	uptake (cm3(STP)/g)
0.013226	23.4899
0.010806	46.9799
0.010411	67.1141
0.010082	83.8926
0.009589	109.06
0.013147	127.517
0.00661	161.074
0.01389	189.597
0.021335	209.732
0.038645	226.51
0.05971	251.678
0.075027	270.134
0.088516	281.879
0.105826	298.658
0.123268	308.725
0.140841	312.081
0.172166	313.758
0.199505	318.792
0.222991	320.47
0.264082	323.826
0.301188	330.537
0.330586	330.537
0.402969	337.248
0.526408	338.926
0.637857	352.349
0.749438	359.06
0.847135	374.161
0.954171	412.752
0.995118	523.49
0.047852	256.711
0.096158	291.946
0.148614	315.436
0.199439	322.148
0.236545	328.859
0.28149	335.57
0.324509	340.604
0.392775	357.383
0.441673	362.416
0.478878	364.094
0.514122	365.772
0.582718	365.772
0.69616	377.517
0.7805	374.161
0.885938	394.295
0.995052	526.846
