Adsorption isotherm of Carbon Dioxide on Rht-MOF-1
DOI: 10.1039/c5cc02573g
Article source: Figure 3a
Adsorbate Carbon Dioxide: InChIKey CURLTUGMZLYLDI-UHFFFAOYSA-N
Kind: experiment
Temperature: 298 K
Tabular data in the source: 0
pressure (bar)	uptake (wt%)
0.042514	0.932401
0.069577	1.3986
0.092779	1.74825
0.119847	2.15618
0.14692	2.50583
0.173988	2.91375
0.201066	3.20513
0.226204	3.55478
0.253281	3.84615
0.280354	4.1958
0.307427	4.54545
0.334504	4.83683
0.35965	5.06993
0.388664	5.36131
0.413806	5.65268
0.440882	5.94406
0.46797	6.11888
0.495047	6.41026
0.520193	6.64336
0.547275	6.87646
0.574357	7.10956
0.601439	7.34266
0.62852	7.57576
0.655602	7.80886
0.680753	7.98368
0.707835	8.21678
0.734917	8.44988
0.760068	8.62471
0.785219	8.79953
0.812301	9.03263
0.841319	9.26573
0.866474	9.38228
0.89162	9.61538
0.920642	9.79021
0.945793	9.96503
0.970948	10.0816
0.999966	10.3147
1.02705	10.4895
1.05413	10.7226
1.07929	10.8974
