Adsorption isotherm of Carbon Dioxide on Rht-MOF-1
DOI: 10.1039/c5cc02573g
Article source: Figure 3a
Adsorbate Carbon Dioxide: InChIKey CURLTUGMZLYLDI-UHFFFAOYSA-N
Kind: experiment
Temperature: 273 K
Tabular data in the source: 0
pressure (bar)	uptake (wt%)
0.026969	1.68998
0.040474	2.27273
0.063639	3.08858
0.092607	3.9627
0.119644	4.77855
0.146685	5.53613
0.171805	6.11888
0.19692	6.75991
0.225911	7.34266
0.252965	7.92541
0.280025	8.44988
0.305148	8.97436
0.332211	9.44056
0.361208	9.96503
0.386344	10.3147
0.411473	10.7809
0.440472	11.2471
0.46561	11.5967
0.492682	11.9464
0.517815	12.3543
0.544893	12.6457
0.573897	13.0536
0.599039	13.345
0.626115	13.6364
0.651257	13.9277
0.680267	14.2774
0.705407	14.5688
0.73249	14.8019
0.759563	15.1515
0.784709	15.3846
0.811787	15.676
0.838864	15.9674
0.865946	16.2005
0.893024	16.4918
0.91817	16.7249
0.945252	16.958
0.972329	17.2494
0.997475	17.4825
1.02456	17.7156
1.05358	17.9487
1.07872	18.1818
