Adsorption isotherm of Carbon Dioxide on rht-MOF-pyr
DOI: 10.1039/c5cc02573g
Article source: Figure 3a
Adsorbate Carbon Dioxide: InChIKey CURLTUGMZLYLDI-UHFFFAOYSA-N
Kind: experiment
Temperature: 273 K
Tabular data in the source: 0
pressure (bar)	uptake (wt%)
0.013482	0.874126
0.042405	2.331
0.069411	3.55478
0.094489	4.662
0.119572	5.71096
0.144668	6.58508
0.173632	7.51748
0.200665	8.39161
0.225775	9.09091
0.254752	9.84848
0.277926	10.5478
0.306908	11.2471
0.333958	11.8881
0.361017	12.4126
0.386142	12.9371
0.413201	13.4615
0.44026	13.986
0.467324	14.4522
0.494393	14.8601
0.521456	15.3263
0.546584	15.7925
0.573657	16.1422
0.600725	16.5501
0.627794	16.958
0.654867	17.3077
0.681936	17.7156
0.707073	18.0653
0.734146	18.4149
0.759279	18.8228
0.788291	19.1142
0.813429	19.4639
0.840507	19.7552
0.867579	20.1049
0.892716	20.4545
0.91979	20.8042
0.944926	21.1538
0.970074	21.3869
0.999082	21.7366
1.02616	22.028
1.05517	22.3776
1.08031	22.669
