Adsorption isotherm of Carbon Dioxide on rht-MOF-pyr
DOI: 10.1039/c5cc02573g
Article source: Figure 3a
Adsorbate Carbon Dioxide: InChIKey CURLTUGMZLYLDI-UHFFFAOYSA-N
Kind: experiment
Temperature: 298 K
Tabular data in the source: 0
pressure (bar)	uptake (wt%)
0.019321	0.4662
0.042514	0.932401
0.065706	1.3986
0.09277	1.8648
0.119834	2.331
0.144961	2.7972
0.17203	3.20513
0.199094	3.67133
0.226159	4.13753
0.253231	4.48718
0.2803	4.8951
0.307368	5.30303
0.33444	5.65268
0.359578	6.00233
0.386651	6.35198
0.413725	6.70163
0.440797	7.05128
0.465934	7.40093
0.493007	7.75058
0.520085	8.04196
0.547162	8.33333
0.574235	8.68298
0.599377	8.97436
0.626459	9.20746
0.651596	9.55711
0.678678	9.79021
0.705755	10.0816
0.732837	10.3147
0.759915	10.6061
0.786993	10.8974
0.812139	11.1305
0.839216	11.4219
0.866298	11.655
0.893376	11.9464
0.920462	12.1212
0.945604	12.4126
0.972691	12.5874
0.999772	12.8205
1.02685	13.0536
1.052	13.2867
1.08102	13.5198
