Adsorption isotherm of Carbon Dioxide on MIL-101(Cr)-150nm
DOI: 10.1039/C4ta01174k
Adsorbate Carbon Dioxide: InChIKey CURLTUGMZLYLDI-UHFFFAOYSA-N
Temperature: 323 K
Tabular data in the source: 0
pressure (bar)	uptake (mmol/g)
0.227705	0.265985
0.475484	0.511509
0.713033	0.716113
0.97581	0.930946
1.20332	1.14578
1.46102	1.35038
1.71868	1.54476
1.97642	1.75959
2.22897	1.9335
