Adsorption isotherm of Nitrogen on MIL-101(Cr)-250nm-PEI-300
DOI: 10.1039/C4ta01174k
Adsorbate Nitrogen: InChIKey IJGRMHOSHXDMSA-UHFFFAOYSA-N
Temperature: 298 K
Tabular data in the source: 0
pressure (bar)	uptake (mmol/g)
0.282065	0.00405849
0.564229	0.0368954
0.85157	0.0841953
1.12323	0.0449386
1.40027	0.0777017
1.66695	0.0815388
1.94906	0.0999865
2.22092	0.118287
