Adsorption isotherm of Nitrogen on MIL-101(Cr)-150nm-PEI-300
DOI: 10.1039/C4ta01174k
Adsorbate Nitrogen: InChIKey IJGRMHOSHXDMSA-UHFFFAOYSA-N
Temperature: 298 K
Tabular data in the source: 0
pressure (bar)	uptake (mmol/g)
0.278357	0.00155681
0.572317	0.0367579
0.845334	-0.00645786
1.13916	-0.00481457
1.402	-0.0145302
1.68036	-0.0129734
1.96907	-0.000172978
2.25268	0.0237845
