Adsorption isotherm of Nitrogen on MIL-101(Cr)-150nm-PEI-1800
DOI: 10.1039/C4ta01174k
Adsorbate Nitrogen: InChIKey IJGRMHOSHXDMSA-UHFFFAOYSA-N
Temperature: 298 K
Tabular data in the source: 0
pressure (bar)	uptake (mmol/g)
0.277451	-0.0447427
0.555178	-0.0223714
0.832905	8.88178e-16
1.10035	0.0223714
1.36784	0.0559284
1.66099	0.0782998
1.93348	0.0782998
2.21626	0.0782998
