Adsorption isotherm of Carbon Dioxide on MIL-101(Cr)-150nm
DOI: 10.1039/C4ta01174k
Adsorbate Carbon Dioxide: InChIKey CURLTUGMZLYLDI-UHFFFAOYSA-N
Temperature: 323 K
Tabular data in the source: 0
pressure (bar)	uptake (mmol/g)
0.230448	0.245954
0.486887	0.482357
0.717195	0.701408
0.96838	0.92896
1.20892	1.11191
1.4495	1.30382
1.70054	1.50447
1.96196	1.69592
2.21296	1.8876
