Adsorption isotherm of Carbon Dioxide on MIL-101(Cr)-150nm-PEI-10000
DOI: 10.1039/C4ta01174k
Adsorbate Carbon Dioxide: InChIKey CURLTUGMZLYLDI-UHFFFAOYSA-N
Temperature: 323 K
Tabular data in the source: 0
pressure (bar)	uptake (mmol/g)
0.0184022	1.53322
0.183391	2.21113
0.398449	2.50228
0.649541	2.71189
0.890217	2.92174
1.14103	3.07756
1.40221	3.22417
1.66325	3.34387
1.9294	3.44553
2.21085	3.48406
