Adsorption isotherm of Nitrogen on MIL-101(Cr)-150nm
DOI: 10.1039/C4ta01174k
Adsorbate Nitrogen: InChIKey IJGRMHOSHXDMSA-UHFFFAOYSA-N
Temperature: 298 K
Tabular data in the source: 0
pressure (bar)	uptake (mmol/g)
0.277951	0.0767452
0.545389	0.0976209
0.81806	0.140839
1.07522	0.161772
1.35307	0.216146
1.62065	0.270578
1.90356	0.302553
2.17628	0.356956
