Adsorption isotherm of Nitrogen on MIL-101(Cr)-250nm-PEI-300
DOI: 10.1039/C4ta01174k
Adsorbate Nitrogen: InChIKey IJGRMHOSHXDMSA-UHFFFAOYSA-N
Temperature: 323 K
Tabular data in the source: 0
pressure (bar)	uptake (mmol/g)
0.287209	0.0146375
0.569418	0.0394284
0.846551	0.0539113
1.13368	0.0480872
1.41585	0.0626474
1.70306	0.0772849
1.99027	0.0919223
2.27244	0.106482
