Adsorption isotherm of Nitrogen on MIL-101(Cr)-150nm-PEI-1800
DOI: 10.1039/C4ta01174k
Adsorbate Nitrogen: InChIKey IJGRMHOSHXDMSA-UHFFFAOYSA-N
Temperature: 323 K
Tabular data in the source: 0
pressure (bar)	uptake (mmol/g)
0.276056	0.00277901
0.567642	-0.0127274
0.848859	-0.0190327
1.11445	-0.0249877
1.37521	0.0409145
1.65648	0.0435767
1.92747	0.0733752
2.20887	0.10294
