Adsorption isotherm of Carbon Dioxide on MIL-101(Cr)-150nm
DOI: 10.1039/C4ta01174k
Adsorbate Carbon Dioxide: InChIKey CURLTUGMZLYLDI-UHFFFAOYSA-N
Temperature: 298 K
Tabular data in the source: 0
pressure (bar)	uptake (mmol/g)
0.193401	0.649851
0.411608	1.06494
0.660605	1.44665
0.883597	1.77228
1.1012	2.04195
1.33451	2.36764
1.56758	2.6374
1.80074	2.92953
2.05935	3.14351
