Adsorption isotherm of Carbon Dioxide on MIL-101(Cr)-150nm-PEI-300
DOI: 10.1039/C4ta01174k
Adsorbate Carbon Dioxide: InChIKey CURLTUGMZLYLDI-UHFFFAOYSA-N
Temperature: 298 K
Tabular data in the source: 0
pressure (bar)	uptake (mmol/g)
0.0148319	1.33834
0.0192594	2.63337
0.150275	3.4554
0.377157	3.81838
0.649851	4.08129
0.922348	4.28665
1.23055	4.43497
1.50285	4.58277
1.81598	4.67361
2.12911	4.76445
