Adsorption isotherm of Nitrogen on MIL-101(Cr)-150nm-PEI-300
DOI: 10.1039/C4ta01174k
Adsorbate Nitrogen: InChIKey IJGRMHOSHXDMSA-UHFFFAOYSA-N
Temperature: 298 K
Tabular data in the source: 0
pressure (bar)	uptake (mmol/g)
0.287243	0.0185215
0.569406	0.0513584
0.85157	0.0841953
1.13344	0.030697
1.41037	0.0346817
1.68228	0.067371
1.96962	0.114671
2.25667	0.0756355
