Adsorption isotherm of Carbon Dioxide on MIL-101(Cr)-250nm
DOI: 10.1039/C4ta01174k
Adsorbate Carbon Dioxide: InChIKey CURLTUGMZLYLDI-UHFFFAOYSA-N
Temperature: 323 K
Tabular data in the source: 0
pressure (bar)	uptake (mmol/g)
0.248011	0.306905
0.485676	0.542199
0.72834	0.767263
0.970965	0.982097
1.21367	1.21739
1.47137	1.42199
1.70896	1.63683
1.96669	1.85166
2.21924	2.02558
