Adsorption isotherm of Nitrogen on MIL-101(Cr)-150nm-PEI-300
DOI: 10.1039/C4ta01174k
Adsorbate Nitrogen: InChIKey IJGRMHOSHXDMSA-UHFFFAOYSA-N
Temperature: 323 K
Tabular data in the source: 0
pressure (bar)	uptake (mmol/g)
0.287115	-0.0102302
0.569347	0.0204604
0.851385	-8.88178e-16
1.13858	0.0102302
1.42058	-0.0204604
1.69258	-0.0306905
1.97981	-0.0102302
2.24181	-8.88178e-16
