Adsorption isotherm of Nitrogen on MIL-101(Cr)-150nm-PEI-10000
DOI: 10.1039/C4ta01174k
Adsorbate Nitrogen: InChIKey IJGRMHOSHXDMSA-UHFFFAOYSA-N
Temperature: 298 K
Tabular data in the source: 0
pressure (bar)	uptake (mmol/g)
0.28296	0.0447427
0.575881	0.0111857
0.822852	0.0559284
1.10049	0.0559284
1.36802	0.100671
1.63547	0.123043
1.90291	0.145414
2.17545	0.1566
