Adsorption isotherm of Nitrogen on MIL-101(Cr)-150nm-PEI-300
DOI: 10.1039/C4ta01174k
Adsorbate Nitrogen: InChIKey IJGRMHOSHXDMSA-UHFFFAOYSA-N
Temperature: 323 K
Tabular data in the source: 0
pressure (bar)	uptake (mmol/g)
0.276056	0.00277901
0.557273	-0.00352631
0.838397	-0.0277667
1.13519	-0.0433899
1.41636	-0.0586628
1.69237	-0.0648514
1.92681	-0.0521707
2.23407	-0.0590598
