Adsorption isotherm of Nitrogen on MIL-101(Cr)-150nm
DOI: 10.1039/C4ta01174k
Adsorbate Nitrogen: InChIKey IJGRMHOSHXDMSA-UHFFFAOYSA-N
Temperature: 323 K
Tabular data in the source: 0
pressure (bar)	uptake (mmol/g)
0.271044	0.0538117
0.552399	0.0807175
0.818129	0.107623
1.08907	0.134529
1.34959	0.161435
1.62056	0.197309
1.89157	0.242152
2.16768	0.26009
