Adsorption isotherm of Nitrogen on MIL-101(Cr)-250nm
DOI: 10.1039/C4ta01174k
Adsorbate Nitrogen: InChIKey IJGRMHOSHXDMSA-UHFFFAOYSA-N
Temperature: 298 K
Tabular data in the source: 0
pressure (bar)	uptake (mmol/g)
0.272251	0.133414
0.544158	0.166103
0.816163	0.227571
1.07268	0.260039
1.34977	0.307191
1.63203	0.368806
1.90404	0.430274
2.17594	0.462963
