Adsorption isotherm of Nitrogen on MIL-101(Cr)-250nm
DOI: 10.1039/C4ta01174k
Adsorbate Nitrogen: InChIKey IJGRMHOSHXDMSA-UHFFFAOYSA-N
Temperature: 323 K
Tabular data in the source: 0
pressure (bar)	uptake (mmol/g)
0.272311	0.0716113
0.549466	0.0920716
0.821661	0.132992
1.09382	0.163683
1.36601	0.204604
1.64325	0.245524
1.91544	0.286445
2.1876	0.317136
