Adsorption isotherm of Nitrogen on MIL-101(Cr)-150nm
DOI: 10.1039/C4ta01174k
Adsorbate Nitrogen: InChIKey IJGRMHOSHXDMSA-UHFFFAOYSA-N
Temperature: 298 K
Tabular data in the source: 0
pressure (bar)	uptake (mmol/g)
0.267073	0.118951
0.528625	0.122714
0.815917	0.155625
1.08787	0.202703
1.35988	0.264171
1.63188	0.325639
1.90892	0.358402
2.19118	0.420017
