Adsorption isotherm of Carbon Dioxide on MIL-101(Cr)-250nm
DOI: 10.1039/C4ta01174k
Adsorbate Carbon Dioxide: InChIKey CURLTUGMZLYLDI-UHFFFAOYSA-N
Temperature: 298 K
Tabular data in the source: 0
pressure (bar)	uptake (mmol/g)
0.222098	0.463627
0.438821	0.855235
0.665703	1.21821
0.887358	1.55234
1.11419	1.90092
1.35128	2.24966
1.56263	2.56925
1.79952	2.86042
2.0415	3.13729
