Adsorption isotherm of Carbon Dioxide on MIL-101(Cr)-150nm-PEI-10000
DOI: 10.1039/C4ta01174k
Adsorbate Carbon Dioxide: InChIKey CURLTUGMZLYLDI-UHFFFAOYSA-N
Temperature: 298 K
Tabular data in the source: 0
pressure (bar)	uptake (mmol/g)
0.066885	1.21961
0.274736	1.62346
0.502745	1.91556
0.730615	2.17411
0.968564	2.37678
1.1963	2.60177
1.43429	2.81563
1.67763	3.07426
1.92087	3.31052
2.19425	3.35679
