Adsorption isotherm of Carbon Dioxide on MIL-101(Cr)-250nm-PEI-300
DOI: 10.1039/C4ta01174k
Adsorbate Carbon Dioxide: InChIKey CURLTUGMZLYLDI-UHFFFAOYSA-N
Temperature: 323 K
Tabular data in the source: 0
pressure (bar)	uptake (mmol/g)
0.0168399	1.79028
0.101851	2.95652
0.335019	3.33504
0.5728	3.60102
0.830307	3.75448
1.09781	3.88747
1.36524	4
1.63263	4.1023
1.90506	4.2046
2.18736	4.25575
