Adsorption isotherm of Carbon Dioxide on MIL-101(Cr)-150nm-PEI-300
DOI: 10.1039/C4ta01174k
Adsorbate Carbon Dioxide: InChIKey CURLTUGMZLYLDI-UHFFFAOYSA-N
Temperature: 323 K
Tabular data in the source: 0
pressure (bar)	uptake (mmol/g)
0.0249441	1.26854
0.0840704	2.25064
0.29205	2.62916
0.549711	2.82353
0.807025	2.92583
1.0693	3.00767
1.34161	3.07928
1.60384	3.1509
1.88115	3.21228
2.17335	3.21228
