Adsorption isotherm of Carbon Dioxide on MIL-101(Cr)-150nm
DOI: 10.1039/C4ta01174k
Adsorbate Carbon Dioxide: InChIKey CURLTUGMZLYLDI-UHFFFAOYSA-N
Temperature: 298 K
Tabular data in the source: 0
pressure (bar)	uptake (mmol/g)
0.0106013	0.100872
0.192065	0.679023
0.408838	1.08502
0.646026	1.46253
0.872809	1.79673
1.10457	2.08784
1.33121	2.37887
1.5578	2.65551
1.805	2.96122
2.0519	3.1806
