Adsorption isotherm of Nitrogen on MIL-101(Cr)-150nm-PEI-10000
DOI: 10.1039/C4ta01174k
Adsorbate Nitrogen: InChIKey IJGRMHOSHXDMSA-UHFFFAOYSA-N
Temperature: 323 K
Tabular data in the source: 0
pressure (bar)	uptake (mmol/g)
0.225333	0.264006
0.46601	0.473856
0.712081	0.71946
0.973448	0.901941
1.20901	1.12984
1.44424	1.29497
1.70575	1.50436
1.96196	1.69592
2.213	1.89657
