Adsorption isotherm of Carbon Dioxide on MIL-101(Cr)-150nm-PEI-300
DOI: 10.1039/C4ta01174k
Adsorbate Carbon Dioxide: InChIKey CURLTUGMZLYLDI-UHFFFAOYSA-N
Temperature: 298 K
Tabular data in the source: 0
pressure (bar)	uptake (mmol/g)
0.0157526	1.32
0.026212	2.60641
0.148231	3.44602
0.386918	3.82767
0.645671	4.0752
0.924858	4.2781
1.20897	4.42511
1.50344	4.58335
1.82349	4.697
2.13807	4.73232
