Adsorption isotherm of Carbon Dioxide on MIL-101(Cr)-250nm-PEI-300
DOI: 10.1039/C4ta01174k
Adsorbate Carbon Dioxide: InChIKey CURLTUGMZLYLDI-UHFFFAOYSA-N
Temperature: 298 K
Tabular data in the source: 0
pressure (bar)	uptake (mmol/g)
0.0130979	2.33112
0.0141924	1.15128
0.0321236	3.39615
0.167776	4.07436
0.373996	4.39387
0.58002	4.65583
0.811489	4.8606
1.05825	5.03681
1.31023	5.24187
1.55171	5.37484
1.79837	5.52228
2.06011	5.5836
