Adsorption isotherm of Carbon Dioxide on MIL-101(Cr)-150nm-PEI-300
DOI: 10.1039/C4ta01174k
Adsorbate Carbon Dioxide: InChIKey CURLTUGMZLYLDI-UHFFFAOYSA-N
Temperature: 323 K
Tabular data in the source: 0
pressure (bar)	uptake (mmol/g)
0.0326242	1.26384
0.100255	2.24887
0.294949	2.63016
0.550968	2.78585
0.811961	2.89659
1.06235	2.9717
1.33883	3.05518
1.59438	3.1212
1.87062	3.15985
2.15189	3.16251
