Adsorption isotherm of Carbon Dioxide on MIL-101(Cr)-150nm-PEI-1800
DOI: 10.1039/C4ta01174k
Adsorbate Carbon Dioxide: InChIKey CURLTUGMZLYLDI-UHFFFAOYSA-N
Temperature: 323 K
Tabular data in the source: 0
pressure (bar)	uptake (mmol/g)
0.011046	1.12083
0.0577053	2.07942
0.247846	2.58637
0.489036	2.89486
0.760678	3.05021
1.04283	3.22325
1.32995	3.35135
1.61703	3.47047
1.8937	3.58983
2.12832	3.63838
