Adsorption isotherm of Nitrogen on MIL-101(Cr)-150nm
DOI: 10.1039/C4ta01174k
Adsorbate Nitrogen: InChIKey IJGRMHOSHXDMSA-UHFFFAOYSA-N
Temperature: 323 K
Tabular data in the source: 0
pressure (bar)	uptake (mmol/g)
0.267273	0.0716113
0.549505	0.102302
0.821584	0.112532
1.09878	0.143223
1.3609	0.184143
1.62798	0.204604
1.90525	0.255754
2.17733	0.265985
