Adsorption isotherm of Carbon Dioxide on MIL-101(Cr)-150nm-PEI-1800
DOI: 10.1039/C4ta01174k
Adsorbate Carbon Dioxide: InChIKey CURLTUGMZLYLDI-UHFFFAOYSA-N
Temperature: 298 K
Tabular data in the source: 0
pressure (bar)	uptake (mmol/g)
0.0200309	1.10749
0.0398773	2.17025
0.186794	2.79747
0.420095	3.12315
0.67894	3.39306
0.932492	3.62938
1.20639	3.79869
1.48037	3.99038
1.77466	4.10389
2.07405	4.20623
