Adsorption isotherm of Water on WVA 1100 oxidized
DOI: 10.1021/la980492h
Article source: Figure 6
Adsorbate Water: InChIKey XLYOFNOQVPJJNP-UHFFFAOYSA-N
Kind: experiment
Temperature: 293 K
Tabular data in the source: 0
pressure (bar)	uptake (mmol/g)
4.4e-05	0.028585
9.6e-05	0.095165
0.00014	0.142737
0.000192	0.199824
0.000236	0.247396
0.000289	0.304482
0.000341	0.333088
0.000385	0.371166
0.000446	0.41878
0.000507	0.466393
0.00056	0.513986
0.000629	0.571114
0.000708	0.609276
0.000778	0.647416
0.000857	0.695072
0.000944	0.742747
0.001023	0.790403
0.001102	0.828564
0.001294	0.923957
0.001477	1.00984
0.001661	1.09571
0.001845	1.18159
0.002002	1.2769
0.002492	1.49642
0.002946	1.71585
0.00341	1.9448
0.003838	2.17367
0.00424	2.40247
0.004607	2.6217
0.004948	2.85035
0.005272	3.06947
0.005578	3.29805
0.005866	3.52658
0.006128	3.74556
0.006391	3.98352
0.006679	4.20256
0.007011	4.42171
