Adsorption isotherm of Water on WVA 1100 oxidized
DOI: 10.1021/la980492h
Article source: Figure 6
Adsorbate Water: InChIKey XLYOFNOQVPJJNP-UHFFFAOYSA-N
Kind: experiment
Temperature: 283 K
Tabular data in the source: 0
pressure (bar)	uptake (mmol/g)
0	0
9e-06	0.066476
2.6e-05	0.113986
4.3e-05	0.133015
6.1e-05	0.180524
9.6e-05	0.228075
0.000113	0.275585
0.000139	0.313622
0.000165	0.361152
0.0002	0.408703
0.000235	0.465748
0.000261	0.503785
0.000305	0.551357
0.000348	0.598928
0.000383	0.636986
0.000418	0.675043
0.000471	0.722636
0.000514	0.770208
0.000566	0.8178
0.000662	0.903471
0.000758	0.989142
0.000854	1.07481
0.00095	1.16998
0.001046	1.25565
0.001142	1.34132
0.001395	1.56977
0.00163	1.78868
0.001857	2.01707
0.00204	2.24535
0.002232	2.46416
0.002424	2.68297
0.002589	2.9207
0.002755	3.13945
0.002894	3.36763
0.003043	3.58634
0.003182	3.81451
0.003304	4.04265
0.003495	4.41336
