Adsorption isotherm of Nitrogen on Xtrusorb
DOI: 10.1021/la980492h
Article source: Figure 1
Adsorbate Nitrogen: InChIKey IJGRMHOSHXDMSA-UHFFFAOYSA-N
Kind: experiment
Temperature: 77 K
Tabular data in the source: 0
pressure (bar)	uptake (mmol/g)
0.06722	12.8341
0.09113	13.3676
0.105252	13.6045
0.118281	13.7226
0.133493	14.0189
0.174745	14.3731
0.210564	14.6087
0.219243	14.6082
0.246379	14.785
0.276759	14.8426
0.304975	14.9598
0.326682	15.0774
0.334275	15.077
0.382024	15.2525
0.389617	15.252
0.409149	15.3103
0.414573	15.31
0.437365	15.4275
0.447129	15.427
0.50141	15.8993
0.507895	15.6017
0.554577	16.015
0.569745	15.7764
0.613172	16.1899
0.634846	15.8914
0.670684	16.3648
0.69781	16.4227
0.72711	16.5398
0.756382	16.3004
0.779202	16.7745
0.791107	16.4172
0.808508	16.9511
0.820412	16.5938
0.837813	17.1277
0.863864	17.3045
0.876848	16.8876
0.892094	17.6
0.921409	17.8954
0.938733	17.4784
0.94313	18.1913
0.973491	18.0112
0.974629	18.665
1.00394	18.901
