Adsorption isotherm of Water on Xtrusorb oxidized
DOI: 10.1021/la980492h
Article source: Figure 8
Adsorbate Water: InChIKey XLYOFNOQVPJJNP-UHFFFAOYSA-N
Kind: experiment
Temperature: 298 K
Tabular data in the source: 0
pressure (bar)	uptake (mmol/g)
0.000395	0.06962
0.000501	0.082279
0.000562	0.107595
0.000638	0.107595
0.000714	0.113924
0.000775	0.126582
0.00085	0.139241
0.000911	0.14557
0.000957	0.151899
0.001063	0.158228
0.001109	0.170886
0.001184	0.177215
0.001245	0.183544
0.001291	0.202532
0.001367	0.208861
0.001458	0.21519
0.001518	0.221519
0.001853	0.272152
0.002202	0.316456
0.002551	0.360759
0.002885	0.405063
0.003204	0.449367
0.003523	0.493671
0.003811	0.537975
0.004084	0.582278
0.004358	0.626582
0.004616	0.677215
0.004859	0.721519
0.005072	0.765823
0.0053	0.810127
0.005497	0.85443
0.005679	0.898734
0.006059	0.993671
0.006394	1.07595
0.006683	1.16456
0.007032	1.25949
0.007519	1.43671
0.008006	1.62025
0.008416	1.79747
0.008752	1.98734
0.009102	2.16456
0.009376	2.34177
0.00965	2.51899
0.009925	2.70253
0.010199	2.87975
0.010443	3.05696
0.010672	3.23418
0.010886	3.41772
0.011084	3.60127
0.011298	3.77848
