Adsorption isotherm of Nitrogen on WVA 1100
DOI: 10.1021/la980492h
Article source: Figure 1
Adsorbate Nitrogen: InChIKey IJGRMHOSHXDMSA-UHFFFAOYSA-N
Kind: experiment
Temperature: 77 K
Tabular data in the source: 0
pressure (bar)	uptake (mmol/g)
0	9.21263
0	10.223
0.004202	11.6491
0.006411	12.1244
0.010799	12.7185
0.015206	13.5504
0.015215	13.6692
0.01631	13.788
0.026141	14.6196
0.032703	15.273
0.035977	15.5105
0.040341	15.8074
0.050143	16.2823
0.052327	16.4605
0.054507	16.5793
0.062134	16.9949
0.090442	18.2414
0.09915	18.5975
0.101324	18.6568
0.111117	19.0128
0.128518	19.5467
0.14049	20.0215
0.156801	20.496
0.174207	21.0893
0.193778	21.6231
0.213349	22.1569
0.231825	22.5718
0.263348	23.3427
0.275305	23.6391
0.299211	24.1132
0.329645	24.8246
0.380704	25.7132
0.387224	25.8317
0.416567	26.4837
0.429605	26.7207
0.445883	26.7792
0.456789	27.4918
0.499223	29.0346
0.506716	27.786
0.555718	30.0417
0.571884	28.7332
0.610042	31.0489
0.631638	29.7995
0.666546	32.1749
0.693561	30.8657
0.694796	32.7081
0.727404	33.4789
0.754413	32.1103
0.777404	34.6647
0.789187	32.8215
0.804582	35.3763
0.82071	33.5923
0.832847	36.0878
0.863285	36.8587
0.871819	35.0752
0.884866	35.431
0.892634	37.5702
0.916539	38.0443
0.917498	36.4989
0.94152	38.3995
0.944697	37.4483
0.96758	38.6951
0.978409	38.4567
1.00557	38.9306
