Adsorption isotherm of Water on WVA 1100
DOI: 10.1021/la980492h
Article source: Figure 5
Adsorbate Water: InChIKey XLYOFNOQVPJJNP-UHFFFAOYSA-N
Kind: experiment
Temperature: 288 K
Tabular data in the source: 0
pressure (bar)	uptake (mmol/g)
3.6e-05	0.025385
4.5e-05	0.076106
4.5e-05	0.126819
7.2e-05	0.158536
9.1e-05	0.196585
0.000127	0.247327
0.000325	0.475694
0.00047	0.564556
0.000614	0.653418
0.000812	0.742324
0.000993	0.837554
0.0012	0.926466
0.001417	1.01539
0.001642	1.10431
0.001867	1.19958
0.002084	1.28216
0.002291	1.37107
0.002508	1.47267
0.003049	1.69497
0.003355	1.82833
0.003635	1.96168
0.003896	2.09501
0.00414	2.23466
0.004365	2.36796
0.004573	2.50125
0.00478	2.63453
0.00497	2.76781
0.005141	2.9074
0.005304	3.04065
0.005448	3.18023
0.005575	3.31345
0.005728	3.45303
0.005854	3.5926
