Adsorption isotherm of Water on Xtrusorb oxidized
DOI: 10.1021/la980492h
Article source: Figure 8
Adsorbate Water: InChIKey XLYOFNOQVPJJNP-UHFFFAOYSA-N
Kind: experiment
Temperature: 283 K
Tabular data in the source: 0
pressure (bar)	uptake (mmol/g)
1.5e-05	0.018987
6.1e-05	0.031646
0.000107	0.050633
0.000152	0.06962
0.000183	0.075949
0.000228	0.094937
0.000274	0.113924
0.000365	0.14557
0.000441	0.183544
0.000502	0.208861
0.000548	0.221519
0.000639	0.253165
0.0007	0.278481
0.000761	0.291139
0.000821	0.322785
0.000882	0.341772
0.000943	0.360759
0.001034	0.386076
0.00108	0.405063
0.001156	0.43038
0.001232	0.462025
0.001293	0.481013
0.001339	0.5
0.00146	0.550633
0.001567	0.594937
0.001673	0.632911
0.001841	0.721519
0.002024	0.822785
0.002161	0.911392
0.002298	1
0.00242	1.08228
0.002542	1.18354
0.002649	1.26582
0.002771	1.35443
0.002862	1.44937
0.002939	1.53797
0.003016	1.63291
0.003107	1.72152
0.003169	1.81013
0.003245	1.89241
0.003306	1.98734
0.003368	2.08228
0.003444	2.15823
0.003506	2.25949
0.003629	2.48734
0.003752	2.70886
