Adsorption isotherm of Nitrogen on WVA 1100 oxidized
DOI: 10.1021/la980492h
Article source: Figure 1
Adsorbate Nitrogen: InChIKey IJGRMHOSHXDMSA-UHFFFAOYSA-N
Kind: experiment
Temperature: 77 K
Tabular data in the source: 0
pressure (bar)	uptake (mmol/g)
0.002871	8.61796
0.004038	9.62829
0.004096	10.3415
0.008474	10.8167
0.011767	11.292
0.01614	11.7078
0.025962	12.4205
0.039029	13.0141
0.047741	13.4296
0.064067	14.0824
0.097789	15.2097
0.112997	15.4466
0.127128	15.8023
0.160826	16.6325
0.197759	17.2247
0.212986	17.6992
0.231433	17.7576
0.268375	18.4687
0.274895	18.5871
0.30204	18.8827
0.320521	19.3571
0.333544	19.4158
0.383486	19.8884
0.385674	20.126
0.4074	20.4813
0.413895	20.3026
0.430207	20.7771
0.445375	20.5385
0.460625	21.3103
0.499767	22.3778
0.505099	21.2482
0.556232	23.0283
0.568074	21.8983
0.608362	23.7385
0.629968	22.6079
0.668087	24.4482
0.695121	23.3768
0.695243	24.8626
0.725651	25.2769
0.757025	24.2052
0.777787	26.0465
0.791779	24.6787
0.806036	26.5798
0.820028	25.2119
0.835366	27.0535
0.864695	27.5273
0.879792	26.3971
0.891856	28.0012
0.915746	28.297
0.94065	27.7011
0.940716	28.5332
0.95156	28.4732
0.965683	28.7101
0.983031	28.5902
1.00584	28.9455
