Adsorption isotherm of Water on WVA 1100
DOI: 10.1021/la980492h
Article source: Figure 5
Adsorbate Water: InChIKey XLYOFNOQVPJJNP-UHFFFAOYSA-N
Kind: experiment
Temperature: 283 K
Tabular data in the source: 0
pressure (bar)	uptake (mmol/g)
1.8e-05	0.03171
1.8e-05	0.044388
1.8e-05	0.063406
4.5e-05	0.12048
5.4e-05	0.158522
7.3e-05	0.215588
0.0001	0.253645
0.000127	0.29804
0.000154	0.342436
0.000199	0.393185
0.000235	0.41857
0.00028	0.475658
0.000334	0.520075
0.000398	0.570838
0.000443	0.615248
0.000506	0.659672
0.000569	0.697757
0.000641	0.742188
0.000795	0.837397
0.000948	0.926266
0.00111	1.01514
0.001264	1.11035
0.001435	1.18656
0.001606	1.28178
0.001769	1.37066
0.001931	1.45953
0.002093	1.55475
0.00222	1.64994
0.002355	1.73879
0.002481	1.8213
0.002626	1.9165
0.002752	2.01169
0.002869	2.10053
0.002987	2.18303
0.003104	2.28455
0.003203	2.36704
0.003312	2.46221
0.003402	2.54469
0.003492	2.63985
0.003582	2.72867
