Adsorption isotherm of Water on WVA 1100 oxidized
DOI: 10.1021/la980492h
Article source: Figure 6
Adsorbate Water: InChIKey XLYOFNOQVPJJNP-UHFFFAOYSA-N
Kind: experiment
Temperature: 288 K
Tabular data in the source: 0
pressure (bar)	uptake (mmol/g)
2.6e-05	0.019672
4.4e-05	0.038191
7e-05	0.057302
8.7e-05	0.104908
0.000114	0.143036
0.00014	0.181164
0.000175	0.238341
0.00021	0.276501
0.000245	0.333678
0.00028	0.381346
0.000323	0.419537
0.000367	0.476745
0.000411	0.505427
0.000455	0.543618
0.000507	0.591349
0.00056	0.639079
0.000621	0.69635
0.000726	0.782302
0.000857	0.85884
0.000988	0.954395
0.001128	1.04047
0.001259	1.13603
0.001408	1.22214
0.001547	1.2987
0.001679	1.40377
0.001827	1.48988
0.001958	1.57592
0.002072	1.66191
0.002186	1.76691
0.002317	1.85295
0.002439	1.93897
0.002562	2.044
0.002684	2.13001
0.002806	2.21603
0.002929	2.30204
0.003034	2.39751
0.003147	2.48349
0.003252	2.57895
0.003357	2.6649
0.003453	2.76033
0.003549	2.84625
0.003646	2.94169
0.003724	3.02754
0.003943	3.24702
0.004144	3.47595
0.004336	3.70485
0.004502	3.93365
0.004677	4.16248
0.004843	4.39128
0.004983	4.61048
0.005132	4.83922
0.005254	5.06787
0.005394	5.28706
0.005525	5.51574
0.005656	5.73491
