Adsorption isotherm of Water on Xtrusorb
DOI: 10.1021/la980492h
Article source: Figure 7
Adsorbate Water: InChIKey XLYOFNOQVPJJNP-UHFFFAOYSA-N
Kind: experiment
Temperature: 283 K
Tabular data in the source: 0
pressure (bar)	uptake (mmol/g)
0.000107	0.022801
0.000214	0.031655
0.000306	0.039245
0.000397	0.048102
0.000489	0.056959
0.00058	0.064549
0.000656	0.072141
0.000778	0.082261
0.000854	0.089853
0.000946	0.097443
0.001053	0.106297
0.001144	0.115155
0.001236	0.124012
0.001312	0.132873
0.001419	0.140459
0.001495	0.149319
0.001571	0.15818
0.001663	0.165769
0.001724	0.1759
0.001785	0.183496
0.001999	0.207544
0.002167	0.229065
0.00232	0.253125
0.002488	0.274646
0.00261	0.296175
0.002748	0.321506
0.002871	0.343036
0.002978	0.365836
0.003086	0.389904
0.003193	0.412705
0.003286	0.435508
0.003363	0.457047
0.003455	0.47985
0.003548	0.505189
0.003625	0.526727
0.003687	0.549537
0.003764	0.572343
0.003826	0.593884
0.003888	0.617961
0.00395	0.639502
0.003996	0.662314
0.004043	0.686394
