Adsorption isotherm of Water on WVA 1100
DOI: 10.1021/la980492h
Article source: Figure 5
Adsorbate Water: InChIKey XLYOFNOQVPJJNP-UHFFFAOYSA-N
Kind: experiment
Temperature: 293 K
Tabular data in the source: 0
pressure (bar)	uptake (mmol/g)
0.000271	0.32424
0.000298	0.356029
0.000361	0.394224
0.00046	0.438826
0.000551	0.483414
0.000641	0.528001
0.000857	0.617234
0.001119	0.706538
0.00138	0.795842
0.001669	0.891538
0.001975	0.974564
0.002282	1.07029
0.002588	1.15966
0.002912	1.24907
0.003228	1.33846
0.003543	1.42785
0.00385	1.52357
0.004138	1.61292
0.004418	1.70225
0.004706	1.7916
0.004968	1.8809
0.00522	1.97654
0.005464	2.06582
0.005689	2.15506
0.005887	2.24427
0.006194	2.37809
0.006474	2.51821
0.006753	2.65199
0.006988	2.7857
0.007231	2.91942
0.007394	3.05936
0.007583	3.18664
0.007782	3.33299
