Adsorption isotherm of Water on Xtrusorb
DOI: 10.1021/la980492h
Article source: Figure 7
Adsorbate Water: InChIKey XLYOFNOQVPJJNP-UHFFFAOYSA-N
Kind: experiment
Temperature: 298 K
Tabular data in the source: 0
pressure (bar)	uptake (mmol/g)
3.1e-05	0.010137
0.000183	0.017715
0.00035	0.024022
0.000502	0.0316
0.00067	0.041711
0.000852	0.050551
0.00105	0.059388
0.001248	0.068225
0.00146	0.07706
0.001658	0.085897
0.001871	0.094731
0.002053	0.103571
0.002282	0.112403
0.002494	0.121237
0.002692	0.130074
0.002905	0.138909
0.003422	0.161631
0.003939	0.183086
0.004395	0.203285
0.004836	0.223486
0.005277	0.244955
0.005657	0.266436
0.006038	0.289184
0.006388	0.310671
0.006753	0.33469
0.007103	0.356177
0.007363	0.377681
0.007652	0.399179
0.007911	0.419415
0.008185	0.440916
0.008399	0.463696
0.008673	0.483929
0.008887	0.505441
0.009085	0.526957
0.009298	0.544666
0.009512	0.56491
0.009634	0.583905
