Adsorption isotherm of Water on Xtrusorb
DOI: 10.1021/la980492h
Article source: Figure 7
Adsorbate Water: InChIKey XLYOFNOQVPJJNP-UHFFFAOYSA-N
Kind: experiment
Temperature: 303 K
Tabular data in the source: 0
pressure (bar)	uptake (mmol/g)
0.000137	0.008849
0.000335	0.017686
0.000578	0.025247
0.000836	0.034072
0.00111	0.042895
0.001414	0.051712
0.001702	0.060532
0.001991	0.068084
0.002295	0.076901
0.002583	0.085721
0.002872	0.094541
0.003161	0.102093
0.003449	0.112181
0.003708	0.121006
0.003996	0.128558
0.004406	0.137355
0.004543	0.146204
0.004787	0.153765
0.005045	0.163858
0.005258	0.17396
0.005881	0.194127
0.006489	0.216832
0.007097	0.237002
0.007598	0.255924
0.00813	0.276108
0.008632	0.297566
0.009043	0.316505
0.009453	0.336712
0.009834	0.358193
0.010184	0.382215
0.010549	0.404967
0.010899	0.427721
0.011174	0.45049
0.011478	0.470717
0.011798	0.489674
0.012072	0.511175
0.012346	0.533943
