Adsorption isotherm of Water on Xtrusorb
DOI: 10.1021/la980492h
Article source: Figure 7
Adsorbate Water: InChIKey XLYOFNOQVPJJNP-UHFFFAOYSA-N
Kind: experiment
Temperature: 288 K
Tabular data in the source: 0
pressure (bar)	uptake (mmol/g)
0.001234	0.091049
0.001325	0.099906
0.001462	0.107487
0.001569	0.116342
0.001706	0.126458
0.001813	0.134045
0.001949	0.141626
0.002041	0.150483
0.00233	0.173249
0.00259	0.196021
0.002834	0.218795
0.003078	0.240302
0.003291	0.263082
0.00349	0.285866
0.003673	0.308652
0.003856	0.331438
0.00404	0.354224
0.004192	0.375748
0.004345	0.397272
0.004483	0.420067
0.004606	0.444132
0.004728	0.465662
0.004836	0.488462
0.004943	0.511263
0.005051	0.534063
0.005143	0.556867
0.005235	0.57967
0.005328	0.601205
0.005405	0.624012
0.005482	0.646818
