Adsorption isotherm of Nitrogen on Xtrusorb oxidized
DOI: 10.1021/la980492h
Article source: Figure 1
Adsorbate Nitrogen: InChIKey IJGRMHOSHXDMSA-UHFFFAOYSA-N
Kind: experiment
Temperature: 77 K
Tabular data in the source: 0
pressure (bar)	uptake (mmol/g)
0	0
0	0.713285
0	1.12933
0	2.79351
0	4.10108
0	4.69543
0.000116	1.42644
0.00015	1.84249
0.000189	2.31797
0.000266	3.26893
0.000421	5.17085
0.000474	5.82464
0.000546	6.71616
0.001394	3.80378
0.001535	5.5274
0.001588	6.18118
0.001675	7.25102
0.001704	7.60763
0.001743	8.08311
0.002885	8.79626
0.002914	9.15288
0.002953	9.62836
0.00412	10.6387
0.009472	9.74684
0.013966	11.6485
0.014944	10.3409
0.026921	10.8751
0.03252	13.0144
0.039978	11.3498
0.05211	13.7859
0.05303	11.7651
0.066077	12.1209
0.072765	14.3197
0.089978	12.5356
0.098666	12.6539
0.117128	12.8906
0.134495	13.0085
0.172494	13.3628
0.209393	13.539
0.218077	13.5979
0.241953	13.7154
0.273428	13.8918
0.295129	13.95
0.328779	14.1858
0.370013	14.3022
0.384111	14.242
0.410157	14.3593
0.434029	14.4173
0.447046	14.4166
0.502407	14.8294
0.506722	14.5319
0.556659	14.9451
0.570748	14.7659
0.666252	15.2358
0.695524	14.9963
0.695549	15.2935
0.722679	15.4108
0.757375	15.171
0.781285	15.7045
0.78885	15.3475
0.809501	15.8218
0.82032	15.4645
0.837717	15.939
0.862677	16.0564
0.878921	15.6988
0.889818	16.2925
0.919128	16.5286
0.941886	16.23
0.946273	16.8241
0.977728	16.7629
0.988607	17.1188
1.00055	17.237
