Adsorption isotherm of Water on Xtrusorb
DOI: 10.1021/la980492h
Article source: Figure 7
Adsorbate Water: InChIKey XLYOFNOQVPJJNP-UHFFFAOYSA-N
Kind: experiment
Temperature: 293 K
Tabular data in the source: 0
pressure (bar)	uptake (mmol/g)
0.000366	0.030358
0.000503	0.039207
0.000625	0.048059
0.000792	0.055634
0.000929	0.064483
0.001081	0.073329
0.001233	0.079639
0.001385	0.087217
0.001537	0.09733
0.001674	0.104911
0.001842	0.113754
0.001994	0.121332
0.002161	0.131443
0.002283	0.137759
0.002679	0.161773
0.003059	0.181986
0.003424	0.204737
0.003759	0.226226
0.004079	0.248986
0.004368	0.267949
0.004643	0.291985
0.004887	0.313492
0.005131	0.336267
0.005359	0.359044
0.005573	0.380557
0.005771	0.40334
0.005955	0.424858
0.006123	0.447647
0.006306	0.469165
0.006459	0.493225
0.006642	0.517279
0.00678	0.537538
0.006933	0.559062
0.007056	0.583127
0.007224	0.60338
