Adsorption isotherm of Water on Xtrusorb oxidized
DOI: 10.1021/la980492h
Article source: Figure 8
Adsorbate Water: InChIKey XLYOFNOQVPJJNP-UHFFFAOYSA-N
Kind: experiment
Temperature: 293 K
Tabular data in the source: 0
pressure (bar)	uptake (mmol/g)
0.000456	0.120661
0.000562	0.146068
0.000669	0.158796
0.00079	0.177872
0.000927	0.203293
0.001048	0.241386
0.001185	0.260468
0.001307	0.279544
0.001443	0.298626
0.00158	0.324048
0.001701	0.349462
0.001823	0.374876
0.00196	0.400298
0.002081	0.419373
0.002218	0.438455
0.002324	0.463863
0.002446	0.489277
0.002567	0.508352
0.002658	0.527413
0.002886	0.571895
0.003084	0.622702
0.003281	0.679849
0.003464	0.71797
0.003646	0.762431
0.003813	0.800545
0.003965	0.844991
0.004117	0.895777
0.004269	0.940223
0.004406	0.984662
0.004528	1.02909
0.004649	1.07353
0.004756	1.12429
0.004862	1.16871
0.004969	1.2068
0.005075	1.25122
0.005167	1.29564
0.005258	1.34006
0.00535	1.39082
0.005532	1.47331
0.005685	1.57481
0.005822	1.65095
0.005989	1.73977
0.006126	1.83493
0.006248	1.92373
0.00637	2.01888
0.006493	2.10768
0.006599	2.20282
0.006752	2.29164
0.006889	2.38679
0.007011	2.46926
0.007088	2.56438
0.007225	2.64686
0.007362	2.74201
0.007499	2.83082
0.00756	2.9196
0.007652	3.02107
0.007714	3.10985
