Adsorption isotherm of Nitrogen on C9H25N37O11Cd5
DOI: 10.1021/Ic900968d
Adsorbate Nitrogen: InChIKey IJGRMHOSHXDMSA-UHFFFAOYSA-N
Temperature: 77 K
Tabular data in the source: 0
pressure (bar)	uptake (ml/g)
0.000515738	50.3145
0.000606065	45.1153
0.000935322	26.1635
0.00108392	17.6101
0.0012908	5.70231
0.00157053	69.6017
0.00172496	60.7128
0.00186773	52.4948
0.00210083	39.0776
0.00225235	30.3564
0.00262823	8.72117
0.00301576	66.4151
0.00987479	71.6143
0.0598606	74.4654
0.077926	74.6331
0.115444	75.1363
0.166863	75.4717
0.21828	75.9748
0.262756	75.9748
0.309997	76.8134
0.354475	76.6457
0.408683	76.478
0.443427	76.6457
0.503192	76.6457
0.551834	76.8134
0.599087	76.9811
0.649122	76.9811
0.692205	77.1488
0.742235	77.4843
0.795047	77.652
0.843687	77.9874
0.892306	79.4969
0.93675	81.3417
0.947843	82.8512
0.968592	88.5535
