Adsorption isotherm of Hydrogen on C9H25N37O11Cd5
DOI: 10.1021/Ic900968d
Adsorbate Hydrogen: InChIKey UFHFLCQGNIYNRP-UHFFFAOYSA-N
Temperature: 87 K
Tabular data in the source: 0
pressure (bar)	uptake (ml/g)
0.00207103	0.00207103
0.00414205	0.127354
0.0103551	0.206278
0.0207103	0.270852
0.0248523	0.303139
0.0331364	0.324664
0.0455626	0.360538
0.0538467	0.378475
0.0683439	0.408969
0.0911252	0.434081
0.109764	0.450224
0.147043	0.480717
0.205032	0.509417
0.256807	0.530942
0.306512	0.547085
0.356217	0.561435
0.405921	0.572197
0.455626	0.58296
0.50326	0.591928
0.557106	0.600897
0.608882	0.609865
0.658587	0.618834
0.708291	0.629596
0.762138	0.633184
0.811843	0.642152
0.863618	0.64574
0.911252	0.651121
1.00652	0.66009
