Adsorption isotherm of Hydrogen on C9H25N37O11Cd5
DOI: 10.1021/Ic900968d
Adsorbate Hydrogen: InChIKey UFHFLCQGNIYNRP-UHFFFAOYSA-N
Temperature: 77 K
Tabular data in the source: 0
pressure (bar)	uptake (ml/g)
0	0
0.00207103	0.191928
0.00414205	0.256502
0.00828411	0.3713
0.0207103	0.443049
0.0289944	0.473543
0.0517757	0.511211
0.0724859	0.53991
0.0931962	0.557848
0.103551	0.56861
0.153256	0.597309
0.207103	0.626009
0.252665	0.643946
0.308583	0.658296
0.356217	0.672646
0.401779	0.679821
0.455626	0.688789
0.509473	0.697758
0.555035	0.704933
0.608882	0.713901
0.660658	0.719283
0.710362	0.726457
0.762138	0.731839
0.813914	0.733632
0.861547	0.740807
0.911252	0.742601
1.00652	0.749776
