Adsorption isotherm of Methane on [CuL(Me2NH)]
DOI: 10.1039/c5dt00460h
Article source: Figure 4
Adsorbate Methane: InChIKey VNWKTOKETHGBQD-UHFFFAOYSA-N
Kind: experiment
Temperature: 195 K
Tabular data in the source: 0
pressure (bar)	uptake (cm3(STP)/g)
0.001781	0.37
0.007874	0.634
0.014305	0.897
0.032585	1.027
0.032697	1.029
0.066211	2.182
0.066323	1.556
0.132332	2.016
0.132558	2.023
0.167257	1.969
0.199173	2.55
0.232582	2.986
0.264712	3.673
0.265162	3.647
0.300466	3.794
0.332879	4.001
0.368136	4.54
0.396711	6.035
0.399859	5.606
0.433354	5.501
0.466848	6.181
0.497656	6.128
0.532943	7.383
0.567025	7.111
0.601856	7.775
0.631568	8.065
0.647633	8.48
0.665831	8.563
0.700518	8.687
0.733638	9.322
0.766134	9.255
0.780127	9.914
0.797954	10.112
0.832934	10.506
0.865882	10.638
0.897702	10.967
0.913273	11.362
0.933585	11.889
0.964727	12.284
1.01144	12.942
