Adsorption isotherm of Carbon Dioxide on [CuL(Me2NH)]
DOI: 10.1039/c5dt00460h
Article source: Figure 4
Adsorbate Carbon Dioxide: InChIKey CURLTUGMZLYLDI-UHFFFAOYSA-N
Kind: experiment
Temperature: 195 K
Tabular data in the source: 0
pressure (bar)	uptake (cm3(STP)/g)
0.000469	2.645
0.00205	6.205
0.002277	13.847
0.002278	13.985
0.003598	130.876
0.004424	16.82
0.007021	29.165
0.013792	22.952
0.051036	28.886
0.067556	155.245
0.102498	32.908
0.152151	37.984
0.176437	166.513
0.208719	57.684
0.25029	88.219
0.274903	173.782
0.303819	117.938
0.360557	137.771
0.374719	180.178
0.415659	150.709
0.467631	159.826
0.478446	186.408
0.519885	167.219
0.570364	173.013
0.574126	195.47
0.62077	179.97
0.650844	184.581
0.673821	200.756
0.701322	190.416
0.772843	196.813
0.77505	197.696
0.823036	200.198
0.849741	207.009
0.872234	203.292
0.923368	206.224
0.973439	208.998
1.01142	211.614
