Adsorption isotherm of Nitrogen on [CuL(Me2NH)]
DOI: 10.1039/c5dt00460h
Article source: Figure 4
Adsorbate Nitrogen: InChIKey IJGRMHOSHXDMSA-UHFFFAOYSA-N
Kind: experiment
Temperature: 77 K
Tabular data in the source: 0
pressure (bar)	uptake (cm3(STP)/g)
0.00602	0.78
0.026535	1.172
0.058338	2.167
0.083063	3.554
0.100801	3.763
0.119971	4.444
0.139932	5.172
0.15138	5.359
0.165032	5.484
0.178612	5.463
0.20187	5.955
0.243857	6.35
0.253338	6.68
0.303564	7.274
0.305596	7.274
0.353787	8.16
0.359609	8.134
0.403905	9.186
0.454389	9.678
0.457525	9.678
0.505262	10.802
0.555245	11.757
0.60516	12.297
0.606723	12.837
0.657185	13.67
0.704846	14.56
0.708686	14.623
0.758992	14.561
0.762943	15.583
0.811025	15.121
0.811025	16.848
0.828225	15.592
0.834138	17.424
0.860563	18.861
0.88431	16.95
0.884881	16.983
0.909765	18.445
0.911473	20.855
0.934226	18.944
0.935506	22.516
0.957407	24.303
0.961245	21.021
0.981298	27.335
0.986416	25.217
0.992674	26.795
0.99495	30.285
1.00107	30.908
1.00633	34.315
