Adsorption isotherm of Hydrogen on [CuL(Me2NH)]
DOI: 10.1039/c5dt00460h
Article source: Figure 4
Adsorbate Hydrogen: InChIKey UFHFLCQGNIYNRP-UHFFFAOYSA-N
Kind: experiment
Temperature: 77 K
Tabular data in the source: 0
pressure (bar)	uptake (cm3(STP)/g)
0.010122	1.114
0.015855	1.061
0.030787	1.307
0.035116	1.374
0.066721	1.818
0.106423	1.895
0.130073	2.731
0.141423	2.673
0.211236	3.434
0.270562	4.512
0.284218	4.578
0.355325	5.629
0.400134	6.155
0.425078	6.121
0.496298	7.14
0.534333	8.358
0.567631	8.686
0.610294	9.475
0.637116	10.219
0.649657	10.218
0.711828	10.634
0.781514	12.369
0.851379	12.756
0.893056	13.714
0.913929	14.001
0.932473	14.34
0.974576	14.652
1.01525	15.043
