Adsorption isotherm of Carbonyl sulfide on Fe2O3 modified activated carbon
DOI: 10.1007/s10450-017-9910-5
Article source: Figure 1
Adsorbate Carbonyl sulfide: InChIKey JJWKPURADFRFRB-UHFFFAOYSA-N
Kind: experiment
Temperature: 313 K
Tabular data in the source: 0
pressure (bar)	uptake (mg/g)
9.1e-05	1.85454
0.000122	2.07273
0.000158	2.54545
0.000215	3.03636
0.000247	3.54545
