Adsorption isotherm of Carbonyl sulfide on Fe2O3 modified activated carbon
DOI: 10.1007/s10450-017-9910-5
Article source: Figure 1
Adsorbate Carbonyl sulfide: InChIKey JJWKPURADFRFRB-UHFFFAOYSA-N
Kind: experiment
Temperature: 323 K
Tabular data in the source: 0
pressure (bar)	uptake (mg/g)
6.7e-05	1.81818
0.000103	3.43636
0.00015	4.01818
0.000204	4.16364
0.000253	4.54545
0.000298	5.12727
0.000336	5.69091
