Adsorption isotherm of Carbonyl sulfide on Fe2O3 modified activated carbon
DOI: 10.1007/s10450-017-9910-5
Article source: Figure 1
Adsorbate Carbonyl sulfide: InChIKey JJWKPURADFRFRB-UHFFFAOYSA-N
Kind: experiment
Temperature: 343 K
Tabular data in the source: 0
pressure (bar)	uptake (mg/g)
5.1e-05	8.30909
0.000102	10.7455
0.000135	11.6
0.000174	12.9636
0.000209	14.0545
0.000248	14.3091
0.000283	15.6182
