Adsorption isotherm of Carbonyl sulfide on Fe2O3 modified activated carbon
DOI: 10.1007/s10450-017-9910-5
Article source: Figure 1
Adsorbate Carbonyl sulfide: InChIKey JJWKPURADFRFRB-UHFFFAOYSA-N
Kind: experiment
Temperature: 333 K
Tabular data in the source: 0
pressure (bar)	uptake (mg/g)
4.9e-05	3.78182
7.4e-05	4.07273
0.00012	5.8
0.000144	6.85455
0.00021	9.85454
0.00025	11.6
0.0003	14.2
