Adsorption isotherm of Ammonia on Purolite MN200
DOI: 10.1021/je000273+
Adsorbate Ammonia: InChIKey QGZKDVFQNNGYKY-UHFFFAOYSA-N
Temperature: 298 K
Tabular data in the source: 0
pressure (bar)	uptake (mmol/g)
0.0281538	0.422718
0.0689988	0.777648
0.163365	1.403
0.264773	1.92694
0.449281	2.89032
0.694351	3.97201
0.921112	5.12131
