Adsorption isotherm of Ammonia on Purolite MN200
DOI: 10.1021/je000273+
Adsorbate Ammonia: InChIKey QGZKDVFQNNGYKY-UHFFFAOYSA-N
Temperature: 298 K
Tabular data in the source: 0
pressure (bar)	uptake (mmol/g)
0.0281538	0.456521
0.0689988	0.862155
0.164773	1.47061
0.266182	2.01145
0.447872	2.92413
0.691534	4.05652
0.933788	5.17201
