Adsorption isotherm of Ammonia on Zeolite 13X
DOI: 10.1021/je000273+
Adsorbate Ammonia: InChIKey QGZKDVFQNNGYKY-UHFFFAOYSA-N
Temperature: 298 K
Tabular data in the source: 0
pressure (bar)	uptake (mmol/g)
0.00421011	3.71849
0.00702701	1.20018
0.0182946	6.69314
0.181675	8.07906
0.433788	8.78892
0.72252	9.16075
0.976041	9.39737
