Adsorption isotherm of Ammonia on Purolite MN200
DOI: 10.1021/je000273+
Adsorbate Ammonia: InChIKey QGZKDVFQNNGYKY-UHFFFAOYSA-N
Temperature: 298 K
Tabular data in the source: 0
pressure (bar)	uptake (mmol/g)
0.0253369	0.355113
0.0760411	0.862155
0.15914	1.403
0.260548	2.01145
0.44083	2.94103
0.681675	4.12413
0.935196	5.22272
