Adsorption isotherm of Ammonia on Faujasite DAY
DOI: 10.1021/je000273+
Adsorbate Ammonia: InChIKey QGZKDVFQNNGYKY-UHFFFAOYSA-N
Temperature: 298 K
Tabular data in the source: 0
pressure (bar)	uptake (mmol/g)
0.0286179	0.178827
0.111827	0.535546
0.137811	0.570582
0.158608	0.641777
0.18461	0.748755
0.207986	0.747914
0.228794	0.855079
0.254777	0.890116
0.278153	0.889275
0.301529	0.888434
0.322346	1.03157
0.348329	1.06661
0.374312	1.10164
0.397707	1.17274
0.42369	1.20778
0.449664	1.20685
0.470424	1.13416
0.49381	1.16929
0.514627	1.31242
0.538012	1.34755
0.563986	1.34662
0.589969	1.38166
0.610758	1.41688
0.634134	1.41604
0.65751	1.4152
0.680896	1.45033
0.704273	1.44949
0.730246	1.44855
0.753641	1.51965
0.779615	1.51872
0.803001	1.55385
0.826377	1.55301
0.849754	1.55217
0.87314	1.5873
0.896516	1.58646
0.919902	1.62159
0.945875	1.62065
1.01343	1.69016
