Adsorption isotherm of Ammonia on Amberlyst 15
DOI: 10.1021/je000273+
Adsorbate Ammonia: InChIKey QGZKDVFQNNGYKY-UHFFFAOYSA-N
Temperature: 298 K
Tabular data in the source: 0
pressure (bar)	uptake (mmol/g)
-0.00283215	4.73258
-1.52e-05	-0.0674227
-1.52e-05	2.24807
0.00280166	0.355113
0.0549143	7.53821
0.330971	9.49877
0.650689	10.6988
0.939421	11.4086
