Adsorption isotherm of Ammonia on Silica Gel 100
DOI: 10.1021/je000273+
Adsorbate Ammonia: InChIKey QGZKDVFQNNGYKY-UHFFFAOYSA-N
Temperature: 298 K
Tabular data in the source: 0
pressure (bar)	uptake (mmol/g)
0.0102041	1.34494
0.0178571	1.76824
0.0433673	2.01671
0.0637755	2.16567
0.0867347	2.28965
0.109694	2.38873
0.132653	2.4878
0.173469	2.56151
0.196429	2.66059
0.221939	2.70977
0.244898	2.75902
0.329082	2.9313
0.34949	2.9308
0.375	2.97998
0.397959	3.00432
0.423469	3.05351
0.446429	3.07785
0.487245	3.10174
0.510204	3.12608
0.533163	3.15042
0.556122	3.17476
0.581633	3.22395
0.604592	3.22337
0.630102	3.24765
0.653061	3.27199
0.67602	3.27142
0.701531	3.29569
0.737245	3.34462
0.760204	3.34405
0.783163	3.34348
0.806122	3.39273
0.831633	3.39209
0.857143	3.41637
0.880102	3.44071
0.905612	3.44007
0.931122	3.46435
0.954082	3.48869
1.0051	3.53724
