Adsorption isotherm of Ammonia on Zeolite 5A
DOI: 10.1021/je000273+
Adsorbate Ammonia: InChIKey QGZKDVFQNNGYKY-UHFFFAOYSA-N
Temperature: 298 K
Tabular data in the source: 0
pressure (bar)	uptake (mmol/g)
0.00658518	4.81603
0.00801532	2.4992
0.0108756	0.0279085
0.0895335	6.27477
0.25686	6.66949
0.379853	6.84111
0.488543	7.06421
0.730238	7.20151
0.980513	7.37312
