Adsorption isotherm of Ammonia on Amberlyst 15
DOI: 10.1021/je000273+
Adsorbate Ammonia: InChIKey QGZKDVFQNNGYKY-UHFFFAOYSA-N
Temperature: 298 K
Tabular data in the source: 0
pressure (bar)	uptake (mmol/g)
0.00658518	0.062232
0.00658518	0.268173
0.00801532	4.76454
0.00944547	2.34474
0.0695115	7.57906
0.338378	9.56982
0.65301	10.6682
0.933318	11.3032
