Adsorption isotherm of Ammonia on Zeolite 5A KE154
DOI: 10.1021/je000273+
Adsorbate Ammonia: InChIKey QGZKDVFQNNGYKY-UHFFFAOYSA-N
Temperature: 298 K
Tabular data in the source: 0
pressure (bar)	uptake (mmol/g)
0.110837	6.72263
0.456429	7.24977
0.729209	7.45578
0.976016	7.66273
