Adsorption isotherm of Ammonia on Alumina 1597
DOI: 10.1021/je000273+
Adsorbate Ammonia: InChIKey QGZKDVFQNNGYKY-UHFFFAOYSA-N
Temperature: 298 K
Tabular data in the source: 0
pressure (bar)	uptake (mmol/g)
0.030303	1.46303
0.15404	2.02781
0.275253	2.27002
0.474747	2.53317
0.722222	2.79393
0.982323	3.00442
