Adsorption isotherm of Ammonia on Faujasite DAY
DOI: 10.1021/je000273+
Adsorbate Ammonia: InChIKey QGZKDVFQNNGYKY-UHFFFAOYSA-N
Temperature: 298 K
Tabular data in the source: 0
pressure (bar)	uptake (mmol/g)
0.00944547	0.0661614
0.0509196	0.395094
0.0909636	0.466601
0.188213	0.666821
0.281173	0.838439
0.472812	1.09586
0.718796	1.4677
0.973362	1.75373
