Adsorption isotherm of Ammonia on Alumina VPO2
DOI: 10.1021/je000273+
Adsorbate Ammonia: InChIKey QGZKDVFQNNGYKY-UHFFFAOYSA-N
Temperature: 298 K
Tabular data in the source: 0
pressure (bar)	uptake (mmol/g)
0.0177652	1.12273
0.0436641	1.32512
0.0747675	1.50157
0.0981069	1.60197
0.124063	1.65108
0.147402	1.75148
0.186345	1.79959
0.209694	1.87444
0.233062	1.8982
0.259018	1.9473
0.300558	1.99521
0.323917	2.04452
0.349882	2.06807
0.37324	2.11738
0.399206	2.14094
0.425171	2.16449
0.448539	2.18825
0.474504	2.21181
0.492677	2.23596
0.516045	2.25972
0.54201	2.28328
0.565378	2.30703
0.588746	2.33079
0.61472	2.3288
0.640686	2.35236
0.666651	2.37591
0.690019	2.39967
0.715984	2.42323
0.734166	2.42183
0.757534	2.44559
0.783509	2.4436
0.804279	2.46756
0.830244	2.49111
0.853612	2.51487
0.879587	2.51288
0.905552	2.53644
0.92892	2.56019
0.954895	2.5582
0.975656	2.60771
1.00163	2.60571
