Adsorption isotherm of Ammonia on Purolite MN200
DOI: 10.1021/je000273+
Adsorbate Ammonia: InChIKey QGZKDVFQNNGYKY-UHFFFAOYSA-N
Temperature: 298 K
Tabular data in the source: 0
pressure (bar)	uptake (mmol/g)
0.00944547	0.0279085
0.0366182	0.491275
0.0809526	0.885994
0.171052	1.43517
0.261151	1.96718
0.45136	2.92824
0.693054	4.06091
0.930458	5.1421
