Adsorption isotherm of Ammonia on Silica Gel 60
DOI: 10.1021/je000273+
Adsorbate Ammonia: InChIKey QGZKDVFQNNGYKY-UHFFFAOYSA-N
Temperature: 298 K
Tabular data in the source: 0
pressure (bar)	uptake (mmol/g)
0.00456928	1.68578
0.01221	2.09395
0.0250837	2.39954
0.0457782	2.62788
0.0638846	2.83087
0.0820101	2.98277
0.102743	3.10891
0.126072	3.23486
0.170144	3.46141
0.193493	3.53627
0.216832	3.63667
0.240191	3.68597
0.26354	3.76082
0.286888	3.83568
0.310237	3.91053
0.336193	3.95963
0.359551	4.00894
0.3829	4.08379
0.408856	4.1329
0.432214	4.1822
0.465963	4.23071
0.489321	4.28002
0.515277	4.32912
0.538635	4.37843
0.5646	4.40198
0.587968	4.42574
0.611327	4.47504
0.637282	4.52415
0.663248	4.54771
0.686615	4.57146
0.709983	4.59522
0.733342	4.64452
0.756709	4.66828
0.780077	4.69204
0.803435	4.74134
0.829401	4.7649
0.850171	4.78886
0.876136	4.81241
0.899504	4.83617
0.922872	4.85993
0.95662	4.90843
0.982586	4.93199
1.00335	4.9815
