Adsorption isotherm of Ammonia on Clinoptilolite
DOI: 10.1021/je000273+
Adsorbate Ammonia: InChIKey QGZKDVFQNNGYKY-UHFFFAOYSA-N
Temperature: 298 K
Tabular data in the source: 0
pressure (bar)	uptake (mmol/g)
0.0192935	4.27988
0.227317	5.17168
0.474152	5.48654
0.728761	5.72918
0.983341	5.86391
