Adsorption isotherm of Ammonia on Pentasil DAZ
DOI: 10.1021/je000273+
Adsorbate Ammonia: InChIKey QGZKDVFQNNGYKY-UHFFFAOYSA-N
Temperature: 298 K
Tabular data in the source: 0
pressure (bar)	uptake (mmol/g)
0.0337662	0.683483
0.0675325	0.897651
0.0961039	1.00389
0.119481	1.11051
0.145455	1.21693
0.168831	1.25135
0.194805	1.32167
0.218182	1.39219
0.244156	1.42641
0.275325	1.49637
0.296104	1.56707
0.322078	1.60129
0.345455	1.67181
0.371429	1.70603
0.394805	1.74045
0.418182	1.81096
0.444156	1.84519
0.47013	1.87941
0.493506	1.94993
0.514286	1.94843
0.537662	1.98284
0.563636	2.01707
0.587013	2.05148
0.612987	2.0857
0.633766	2.12031
0.65974	2.15453
0.685714	2.15266
0.711688	2.22298
0.737662	2.22111
0.761039	2.25552
0.784416	2.28993
0.81039	2.36026
0.828571	2.32285
0.854545	2.35707
0.877922	2.39149
0.901299	2.4259
0.927273	2.42402
0.950649	2.45844
0.976623	2.49266
0.997403	2.52726
