Adsorption isotherm of Ammonia on Faujasite DAY
DOI: 10.1021/je000273+
Adsorbate Ammonia: InChIKey QGZKDVFQNNGYKY-UHFFFAOYSA-N
Temperature: 298 K
Tabular data in the source: 0
pressure (bar)	uptake (mmol/g)
0.049481	0.501817
0.0962525	0.572077
0.187198	0.712691
0.28075	0.889182
0.475629	1.16994
0.719857	1.44893
0.977091	1.79939
