Adsorption isotherm of Ammonia on Zeolite 5A KE154
DOI: 10.1021/je000273+
Adsorbate Ammonia: InChIKey QGZKDVFQNNGYKY-UHFFFAOYSA-N
Temperature: 298 K
Tabular data in the source: 0
pressure (bar)	uptake (mmol/g)
0.00258398	5.09016
0.0103359	5.6675
0.0232558	6.31685
0.0335917	6.53308
0.0516796	6.74904
0.0749354	6.8926
0.116279	7.03551
0.136951	7.07087
0.162791	7.10604
0.186047	7.1413
0.209302	7.17656
0.235142	7.21173
0.258398	7.24699
0.284238	7.24606
0.310078	7.28122
0.335917	7.28029
0.356589	7.31565
0.379845	7.31481
0.405685	7.31387
0.428941	7.31303
0.475452	7.34746
0.501292	7.34652
0.527132	7.38169
0.552972	7.38076
0.578811	7.37983
0.604651	7.37889
0.630491	7.41406
0.651163	7.41332
0.677003	7.41238
0.702842	7.41145
0.739018	7.44624
0.764858	7.44531
0.790698	7.44438
0.816537	7.44345
0.842377	7.44251
0.868217	7.44158
0.894057	7.44065
0.917313	7.47591
0.937984	7.47516
0.958656	7.47442
1.00775	7.47264
