Adsorption isotherm of Ammonia on Silica Gel 100
DOI: 10.1021/je000273+
Adsorbate Ammonia: InChIKey QGZKDVFQNNGYKY-UHFFFAOYSA-N
Temperature: 298 K
Tabular data in the source: 0
pressure (bar)	uptake (mmol/g)
0.0227273	1.5627
0.0454545	2.23179
0.0631313	2.42949
0.0808081	2.57755
0.103535	2.67571
0.126263	2.77387
0.14899	2.84721
0.171717	2.89573
0.19697	2.9193
0.222222	2.96769
0.244949	2.99139
0.270202	2.99013
0.290404	3.01395
0.315657	3.03752
0.338384	3.06121
0.363636	3.05996
0.388889	3.08353
0.414141	3.08228
0.436869	3.08115
0.489899	3.07852
0.512626	3.10221
0.537879	3.10096
0.560606	3.12465
0.585859	3.1234
0.611111	3.12214
0.636364	3.12089
0.661616	3.11964
0.686869	3.14321
0.712121	3.14195
0.762626	3.13944
0.858586	3.1595
0.90404	3.15725
0.94697	3.17994
1.0101	3.1768
