Adsorption isotherm of Ammonia on Alumina 1593
DOI: 10.1021/je000273+
Adsorbate Ammonia: InChIKey QGZKDVFQNNGYKY-UHFFFAOYSA-N
Temperature: 298 K
Tabular data in the source: 0
pressure (bar)	uptake (mmol/g)
0.0223607	1.01607
0.0400021	1.11404
0.0601599	1.23665
0.0778282	1.26016
0.097995	1.35795
0.123221	1.43054
0.145922	1.50332
0.191369	1.52476
0.211545	1.59772
0.234264	1.62085
0.259499	1.66862
0.302421	1.69025
0.325131	1.7382
0.350375	1.76114
0.375619	1.78409
0.400863	1.80703
0.423582	1.83016
0.448826	1.8531
0.496799	1.87435
0.522043	1.89729
0.542236	1.92061
0.567481	1.94356
0.590209	1.94186
0.612927	1.96499
0.638181	1.96311
0.658374	1.98643
0.683628	1.98455
0.744217	2.02969
0.76947	2.02781
0.794715	2.05075
0.819968	2.04887
0.842687	2.072
0.865415	2.07031
0.890659	2.09325
0.915912	2.09137
0.933589	2.09005
0.956317	2.08836
1.00681	2.10942
