Adsorption isotherm of Ammonia on Amberlyst 15
DOI: 10.1021/je000273+
Adsorbate Ammonia: InChIKey QGZKDVFQNNGYKY-UHFFFAOYSA-N
Temperature: 298 K
Tabular data in the source: 0
pressure (bar)	uptake (mmol/g)
-0.0014237	0.000183
0.00139321	0.355113
0.00139321	2.24807
0.00421011	4.74948
0.0563228	7.57201
0.329562	9.53258
0.647872	10.7326
0.936604	11.3917
