Adsorption isotherm of Ammonia on Zeolite 5A
DOI: 10.1021/je000273+
Adsorbate Ammonia: InChIKey QGZKDVFQNNGYKY-UHFFFAOYSA-N
Temperature: 298 K
Tabular data in the source: 0
pressure (bar)	uptake (mmol/g)
0.00421011	2.48469
0.00702701	0.0170844
0.00843546	4.93539
0.0844918	6.1523
0.249281	6.69314
0.368999	6.87906
0.488717	6.96356
0.728154	7.23399
0.994351	7.31849
