Adsorption isotherm of Ammonia on Pentasil DAZ
DOI: 10.1021/je000273+
Adsorbate Ammonia: InChIKey QGZKDVFQNNGYKY-UHFFFAOYSA-N
Temperature: 298 K
Tabular data in the source: 0
pressure (bar)	uptake (mmol/g)
0.0131364	0.575067
0.0703628	0.89675
0.275696	1.42893
0.808411	2.38099
