Adsorption isotherm of Ammonia on Clinoptilolite
DOI: 10.1021/je000273+
Adsorbate Ammonia: InChIKey QGZKDVFQNNGYKY-UHFFFAOYSA-N
Temperature: 298 K
Tabular data in the source: 0
pressure (bar)	uptake (mmol/g)
0.0180879	4.36758
0.0387597	4.47514
0.0490956	4.79967
0.0671835	4.94342
0.0904393	5.05089
0.116279	5.15826
0.139535	5.19352
0.162791	5.26488
0.18863	5.33615
0.248062	5.44231
0.27907	5.44119
0.302326	5.47645
0.325581	5.51171
0.351421	5.51078
0.377261	5.54595
0.400517	5.54511
0.426357	5.58028
0.452196	5.61544
0.459948	5.54296
0.483204	5.54212
0.503876	5.61358
0.527132	5.61274
0.550388	5.648
0.576227	5.64707
0.599483	5.68233
0.625323	5.6814
0.651163	5.68046
0.677003	5.71563
0.702842	5.7147
0.723514	5.78615
0.744186	5.67711
0.767442	5.74847
0.793282	5.74753
0.816537	5.7467
0.842377	5.74576
0.868217	5.78093
0.894057	5.78
0.919897	5.77907
0.943152	5.77823
1.01292	5.81181
