Adsorption isotherm of Ammonia on Silica Gel 40
DOI: 10.1021/je000273+
Adsorbate Ammonia: InChIKey QGZKDVFQNNGYKY-UHFFFAOYSA-N
Temperature: 298 K
Tabular data in the source: 0
pressure (bar)	uptake (mmol/g)
0.00456928	1.68578
0.014798	2.1193
0.0250457	2.50173
0.0353314	2.78196
0.0482334	3.0109
0.0637425	3.21409
0.079261	3.39174
0.0947795	3.56938
0.112895	3.74682
0.136216	3.89832
0.156939	4.05002
0.175074	4.17636
0.198413	4.27676
0.208765	4.37816
0.232104	4.47856
0.255453	4.55341
0.276195	4.65401
0.299535	4.75442
0.325471	4.85462
0.346223	4.92967
0.369572	5.00452
0.395518	5.07918
0.418867	5.15403
0.442206	5.25443
0.465564	5.30373
0.491511	5.37839
0.514869	5.42769
0.540815	5.50235
0.564174	5.55165
0.59013	5.60076
0.613478	5.67561
0.636837	5.72491
0.662793	5.77402
0.686141	5.84887
0.735456	5.94728
0.761421	5.97084
0.769194	6.02134
0.792562	6.0451
0.818518	6.0942
0.841876	6.14351
0.865244	6.16726
0.888602	6.21657
0.911961	6.26587
0.935319	6.31518
0.969067	6.36368
0.995033	6.38724
