Adsorption isotherm of Ammonia on Silica Gel 40
DOI: 10.1021/je000273+
Adsorbate Ammonia: InChIKey QGZKDVFQNNGYKY-UHFFFAOYSA-N
Temperature: 298 K
Tabular data in the source: 0
pressure (bar)	uptake (mmol/g)
0.0255102	1.59367
0.0382653	1.99193
0.0484694	2.44007
0.0561224	2.68899
0.0663265	2.93785
0.0739796	3.23659
0.0892857	3.38568
0.102041	3.58465
0.117347	3.78355
0.135204	3.9824
0.15051	4.15639
0.170918	4.33026
0.206633	4.60339
0.227041	4.72744
0.25	4.85142
0.272959	4.9505
0.295918	5.04957
0.321429	5.14858
0.344388	5.24765
0.369898	5.29684
0.392857	5.39591
0.413265	5.42031
0.436224	5.49447
0.461735	5.54366
0.484694	5.59291
0.507653	5.64216
0.530612	5.69141
0.553571	5.71575
0.579082	5.76493
0.602041	5.78927
0.625	5.83852
0.647959	5.86286
0.670918	5.8872
0.693878	5.93645
0.739796	5.98513
0.762755	6.00947
0.788265	6.03374
0.811224	6.05808
0.836735	6.08236
0.859694	6.1067
0.885204	6.10606
0.905612	6.13047
0.94898	6.17921
0.987245	6.17825
1.01276	6.22744
