Adsorption isotherm of Ammonia on Zeolite 4A TG242
DOI: 10.1021/je000273+
Adsorbate Ammonia: InChIKey QGZKDVFQNNGYKY-UHFFFAOYSA-N
Temperature: 298 K
Tabular data in the source: 0
pressure (bar)	uptake (mmol/g)
0.0200783	7.30144
0.0305519	7.6248
0.051387	7.83988
0.0747914	7.94695
0.0981865	8.01805
0.118975	8.05327
0.144958	8.08831
0.170932	8.08738
0.19172	8.1226
0.217694	8.12167
0.243677	8.1567
0.267053	8.15586
0.293027	8.15493
0.319001	8.15399
0.342377	8.15315
0.368351	8.15222
0.389121	8.1155
0.420317	8.22229
0.443675	8.14951
0.467061	8.18464
0.493035	8.1837
0.519009	8.18277
0.544982	8.18184
0.570956	8.1809
0.59693	8.17997
0.622904	8.17903
0.648877	8.1781
0.674851	8.17716
0.700825	8.17623
0.726799	8.1753
0.752773	8.17436
0.776158	8.20949
0.799535	8.20865
0.825508	8.20772
0.851482	8.20678
0.877456	8.20585
0.90343	8.20491
0.929404	8.20398
0.955377	8.20304
0.981351	8.20211
1.00732	8.20118
