Adsorption isotherm of Ammonia on Silica Gel 100
DOI: 10.1021/je000273+
Adsorbate Ammonia: InChIKey QGZKDVFQNNGYKY-UHFFFAOYSA-N
Temperature: 298 K
Tabular data in the source: 0
pressure (bar)	uptake (mmol/g)
0.00505051	0.868544
0.030303	1.90984
0.161616	2.44942
0.277778	2.69188
0.474747	3.02962
0.719697	3.34016
0.977273	3.60042
