Adsorption isotherm of Ammonia on Alumina 1597
DOI: 10.1021/je000273+
Adsorbate Ammonia: InChIKey QGZKDVFQNNGYKY-UHFFFAOYSA-N
Temperature: 298 K
Tabular data in the source: 0
pressure (bar)	uptake (mmol/g)
0.0277778	1.16529
0.0580808	1.66024
0.0757576	1.83312
0.0959596	1.98105
0.116162	2.10416
0.166667	2.27541
0.189394	2.34875
0.212121	2.37245
0.234848	2.39614
0.257576	2.44466
0.282828	2.46823
0.308081	2.4918
0.330808	2.51549
0.353535	2.53919
0.378788	2.56276
0.401515	2.58645
0.424242	2.58532
0.449495	2.58407
0.515152	2.63045
0.540404	2.6292
0.565657	2.65277
0.590909	2.65152
0.616162	2.65026
0.641414	2.67383
0.659091	2.67295
0.681818	2.67182
0.70202	2.69564
0.722222	2.69464
0.739899	2.66894
0.755051	2.69301
0.777778	2.69188
0.80303	2.69063
0.828283	2.68938
0.853535	2.68812
0.878788	2.71169
0.90404	2.71044
0.929293	2.70918
0.954545	2.70793
0.977273	2.7068
