Adsorption isotherm of Ammonia on Pentasil DAZ
DOI: 10.1021/je000273+
Adsorbate Ammonia: InChIKey QGZKDVFQNNGYKY-UHFFFAOYSA-N
Temperature: 298 K
Tabular data in the source: 0
pressure (bar)	uptake (mmol/g)
0.0165962	0.4523
0.0709416	0.838439
0.274022	1.4534
0.814616	2.32579
