Adsorption isotherm of Ammonia on Zeolite 13X WE894
DOI: 10.1021/je000273+
Adsorbate Ammonia: InChIKey QGZKDVFQNNGYKY-UHFFFAOYSA-N
Temperature: 298 K
Tabular data in the source: 0
pressure (bar)	uptake (mmol/g)
0.00515504	0.480903
0.00515504	1.63932
0.00658518	-0.04825
0.00658518	4.14207
0.0881033	7.73173
0.122427	7.83184
0.407025	8.87584
0.638708	9.09036
0.933318	9.37639
