Adsorption isotherm of Ammonia on Zeolite 5A
DOI: 10.1021/je000273+
Adsorbate Ammonia: InChIKey QGZKDVFQNNGYKY-UHFFFAOYSA-N
Temperature: 298 K
Tabular data in the source: 0
pressure (bar)	uptake (mmol/g)
0.00801532	3.15134
0.00944547	5.57114
0.0108756	1.19491
0.189643	6.89259
0.45708	7.37312
0.730238	7.64771
0.966211	7.68203
