Adsorption isotherm of Ammonia on Zeolite 13X
DOI: 10.1021/je000273+
Adsorbate Ammonia: InChIKey QGZKDVFQNNGYKY-UHFFFAOYSA-N
Temperature: 298 K
Tabular data in the source: 0
pressure (bar)	uptake (mmol/g)
-1.52e-05	1.20018
0.00702701	3.65089
0.0182946	6.52413
0.174633	8.18046
0.44083	8.77201
0.730971	9.19455
0.984492	9.39737
