Adsorption isotherm of Ammonia on Clinoptilolite
DOI: 10.1021/je000273+
Adsorbate Ammonia: InChIKey QGZKDVFQNNGYKY-UHFFFAOYSA-N
Temperature: 298 K
Tabular data in the source: 0
pressure (bar)	uptake (mmol/g)
0.00655885	5.25156
0.0325513	5.32257
0.0585251	5.32164
0.0819015	5.32079
0.102681	5.32005
0.126057	5.31921
0.149443	5.35434
0.175416	5.3534
0.198784	5.31659
0.255935	5.35051
0.279312	5.34967
0.305285	5.34873
0.331259	5.3478
0.357233	5.34686
0.383207	5.34593
0.409181	5.34499
0.435154	5.34406
0.455961	5.45122
0.476759	5.52242
0.489699	5.3421
0.515673	5.34116
0.541647	5.34023
0.567621	5.33929
0.593594	5.33836
0.619568	5.33743
0.645542	5.33649
0.671516	5.33556
0.69749	5.33462
0.720866	5.33378
0.744242	5.33294
0.767628	5.36807
0.793602	5.36714
0.819576	5.3662
0.845549	5.36527
0.871523	5.36433
0.897497	5.3634
0.923471	5.36247
0.949445	5.36153
0.975418	5.3606
1.00139	5.35966
