Adsorption isotherm of Ammonia on Alumina 1593
DOI: 10.1021/je000273+
Adsorbate Ammonia: InChIKey QGZKDVFQNNGYKY-UHFFFAOYSA-N
Temperature: 298 K
Tabular data in the source: 0
pressure (bar)	uptake (mmol/g)
0.0230171	0.969039
0.0566989	1.19638
0.0774598	1.24589
0.100809	1.32074
0.126755	1.39539
0.150113	1.4447
0.191644	1.51816
0.215003	1.56746
0.238371	1.59122
0.264326	1.64033
0.300682	1.66309
0.326637	1.71219
0.347408	1.73615
0.373373	1.7597
0.399338	1.78326
0.422706	1.80702
0.446074	1.83078
0.495416	1.85254
0.521382	1.8761
0.54474	1.9254
0.568117	1.92361
0.594083	1.94717
0.61746	1.94538
0.643425	1.96893
0.666784	2.01824
0.690161	2.01645
0.744698	2.03782
0.770664	2.06137
0.794041	2.05958
0.820006	2.08314
0.843374	2.10689
0.869339	2.13045
0.892717	2.12866
0.918682	2.15222
0.942059	2.15043
0.970622	2.17378
1.00179	2.1714
