Adsorption isotherm of Ammonia on Silica Gel 60
DOI: 10.1021/je000273+
Adsorbate Ammonia: InChIKey QGZKDVFQNNGYKY-UHFFFAOYSA-N
Temperature: 298 K
Tabular data in the source: 0
pressure (bar)	uptake (mmol/g)
0.0227273	2.60525
0.15404	3.41788
0.454545	4.12282
0.941919	4.86813
