Adsorption isotherm of Ammonia on Silica Gel 60
DOI: 10.1021/je000273+
Adsorbate Ammonia: InChIKey QGZKDVFQNNGYKY-UHFFFAOYSA-N
Temperature: 298 K
Tabular data in the source: 0
pressure (bar)	uptake (mmol/g)
0.00944756	1.81135
0.0193518	2.35671
0.031862	2.67848
0.0444349	2.82648
0.0595152	3.02394
0.0771387	3.17156
0.0972875	3.319
0.117454	3.41679
0.162829	3.63681
0.18553	3.70959
0.210757	3.78218
0.233458	3.85496
0.258693	3.90272
0.281394	3.9755
0.304113	3.99863
0.329348	4.0464
0.352058	4.09435
0.374768	4.1423
0.397487	4.16544
0.422723	4.2132
0.463101	4.28466
0.485829	4.28297
0.506013	4.33111
0.528732	4.35424
0.551451	4.37737
0.576695	4.40032
0.60194	4.42326
0.627184	4.4462
0.649903	4.46933
0.675147	4.49228
0.700382	4.54004
0.71806	4.53873
0.743304	4.56167
0.766032	4.55998
0.791276	4.58292
0.81652	4.60586
0.839239	4.62899
0.859442	4.62749
0.882161	4.65062
0.907405	4.67356
0.95535	4.76928
0.975571	4.71813
0.998299	4.71644
