Adsorption isotherm of Ammonia on Zeolite 5A
DOI: 10.1021/je000273+
Adsorbate Ammonia: InChIKey QGZKDVFQNNGYKY-UHFFFAOYSA-N
Temperature: 298 K
Tabular data in the source: 0
pressure (bar)	uptake (mmol/g)
-1.52e-05	2.43399
0.00139321	0.0677886
0.00984391	4.78328
0.0718157	6.13539
0.254914	6.79455
0.370407	6.91286
0.488717	7.04807
0.725337	7.30159
0.994351	7.403
