Adsorption isotherm of Ammonia on Alumina VPO2
DOI: 10.1021/je000273+
Adsorbate Ammonia: InChIKey QGZKDVFQNNGYKY-UHFFFAOYSA-N
Temperature: 298 K
Tabular data in the source: 0
pressure (bar)	uptake (mmol/g)
0.0172832	1.09091
0.0348888	1.28818
0.072688	1.50877
0.0953801	1.60637
0.120606	1.67896
0.143307	1.75174
0.186202	1.84784
0.208912	1.89579
0.229097	1.94393
0.254341	1.96688
0.274526	2.01502
0.302304	2.01295
0.322489	2.06109
0.347733	2.08403
0.372977	2.10698
0.393162	2.15512
0.418415	2.15324
0.441134	2.17637
0.463844	2.22432
0.511807	2.2704
0.53706	2.26852
0.557254	2.29184
0.582498	2.31478
0.605217	2.33791
0.63047	2.33603
0.655706	2.38379
0.678434	2.3821
0.698627	2.40542
0.733973	2.42761
0.756692	2.45074
0.77942	2.44905
0.804664	2.47199
0.829908	2.49494
0.852636	2.49324
0.877889	2.49136
0.900608	2.51449
0.9107	2.53856
0.933428	2.53687
0.958681	2.53499
0.976332	2.60815
