Adsorption isotherm of Ammonia on Clinoptilolite
DOI: 10.1021/je000273+
Adsorbate Ammonia: InChIKey QGZKDVFQNNGYKY-UHFFFAOYSA-N
Temperature: 298 K
Tabular data in the source: 0
pressure (bar)	uptake (mmol/g)
0.00519481	2.99601
0.0155844	3.46458
0.0285714	3.78855
0.0441558	4.04013
0.0649351	4.29134
0.0857143	4.43424
0.109091	4.61306
0.135065	4.71949
0.158442	4.82611
0.184416	4.93253
0.207792	5.00305
0.246753	5.10854
0.272727	5.17886
0.296104	5.24938
0.322078	5.31971
0.345455	5.35412
0.368831	5.38853
0.394805	5.45886
0.420779	5.49308
0.457143	5.59876
0.475325	5.59745
0.501299	5.59557
0.509091	5.63111
0.532468	5.66553
0.558442	5.69975
0.581818	5.77027
0.607792	5.76839
0.631169	5.8028
0.657143	5.83703
0.683117	5.87126
0.706494	5.90567
0.745455	5.93896
0.771429	5.93708
0.797403	5.97131
0.823377	6.00553
0.846753	6.00384
0.87013	6.03826
0.896104	6.07248
0.916883	6.10708
0.942857	6.10521
0.963636	6.06761
1.00519	6.17291
