Adsorption isotherm of Ammonia on Zeolite 13X
DOI: 10.1021/je000273+
Adsorbate Ammonia: InChIKey QGZKDVFQNNGYKY-UHFFFAOYSA-N
Temperature: 298 K
Tabular data in the source: 0
pressure (bar)	uptake (mmol/g)
0.00280166	0.456521
0.00702701	2.31568
0.00984391	4.78328
0.129562	6.91286
0.326745	7.75793
0.468999	8.23117
0.718295	8.70441
0.971816	9.00863
