Adsorption isotherm of Ammonia on Zeolite 4A TG242
DOI: 10.1021/je000273+
Adsorbate Ammonia: InChIKey QGZKDVFQNNGYKY-UHFFFAOYSA-N
Temperature: 298 K
Tabular data in the source: 0
pressure (bar)	uptake (mmol/g)
0.012987	4.7283
0.0155844	5.05303
0.0285714	5.3048
0.038961	5.62896
0.0545455	5.91664
0.0727273	6.20414
0.0909091	6.41943
0.127273	6.77781
0.150649	6.92053
0.174026	7.09935
0.197403	7.24206
0.220779	7.38478
0.244156	7.4914
0.264935	7.5621
0.288312	7.66871
0.311688	7.73923
0.337662	7.84566
0.361039	7.91617
0.387013	7.9865
0.418182	8.12865
0.436364	8.16344
0.45974	8.23395
0.483117	8.30447
0.506494	8.33888
0.532468	8.40921
0.555844	8.47972
0.579221	8.51414
0.605195	8.54836
0.628571	8.61888
0.649351	8.65348
0.672727	8.68789
0.698701	8.75822
0.735065	8.79169
0.761039	8.86202
0.784416	8.89643
0.807792	8.93085
0.831169	9.00136
0.857143	9.03559
0.883117	9.06981
0.909091	9.10404
0.950649	9.17324
0.976623	9.24357
1	9.24188
