Adsorption isotherm of Ammonia on Zeolite 4A TG242
DOI: 10.1021/je000273+
Adsorbate Ammonia: InChIKey QGZKDVFQNNGYKY-UHFFFAOYSA-N
Temperature: 298 K
Tabular data in the source: 0
pressure (bar)	uptake (mmol/g)
0.00801532	1.75373
0.00944547	4.02766
0.0766622	7.14537
0.404165	8.38959
0.724517	8.61842
0.980513	8.83294
