Adsorption isotherm of Ammonia on Zeolite 5A
DOI: 10.1021/je000273+
Adsorbate Ammonia: InChIKey QGZKDVFQNNGYKY-UHFFFAOYSA-N
Temperature: 298 K
Tabular data in the source: 0
pressure (bar)	uptake (mmol/g)
0.00280166	2.46779
0.00280166	4.93539
0.00421011	0.0170844
0.0830833	6.2537
0.254914	6.65934
0.36759	6.84525
0.481675	7.06497
0.729562	7.26779
0.998576	7.48751
