Adsorption isotherm of Ammonia on Silica Gel 100
DOI: 10.1021/je000273+
Adsorbate Ammonia: InChIKey QGZKDVFQNNGYKY-UHFFFAOYSA-N
Temperature: 298 K
Tabular data in the source: 0
pressure (bar)	uptake (mmol/g)
0.0121162	1.41399
0.0220921	1.76077
0.0447125	2.05695
0.0648703	2.17957
0.0875534	2.30199
0.110237	2.42442
0.132938	2.49719
0.173307	2.59348
0.195999	2.69108
0.218709	2.73903
0.243944	2.7868
0.294424	2.85751
0.317125	2.93029
0.339835	2.97824
0.362554	3.00137
0.387798	3.02431
0.410508	3.07227
0.435752	3.09521
0.488784	3.09126
0.50896	3.16423
0.531678	3.18736
0.556923	3.2103
0.579642	3.23343
0.604886	3.25637
0.627605	3.2795
0.650333	3.27781
0.670526	3.30113
0.695771	3.32407
0.738692	3.3457
0.763936	3.36864
0.78413	3.39196
0.806858	3.39027
0.829586	3.38858
0.852305	3.41171
0.877549	3.43465
0.902793	3.45759
0.928046	3.45571
0.950765	3.47884
1.0063	3.52435
