Adsorption isotherm of Ammonia on Faujasite DAY
DOI: 10.1021/je000273+
Adsorbate Ammonia: InChIKey QGZKDVFQNNGYKY-UHFFFAOYSA-N
Temperature: 298 K
Tabular data in the source: 0
pressure (bar)	uptake (mmol/g)
0.0285714	0.358948
0.0961039	0.60678
0.119481	0.605092
0.142857	0.675606
0.166234	0.710019
0.192208	0.744245
0.212987	0.814947
0.236364	0.84936
0.25974	0.919874
0.283117	0.882085
0.303896	0.916686
0.327273	1.0233
0.353247	1.05753
0.376623	1.05584
0.4	1.09025
0.420779	1.12485
0.446753	1.15908
0.467532	1.19368
0.490909	1.26419
0.516883	1.26232
0.542857	1.29654
0.566234	1.29486
0.592208	1.32908
0.615584	1.3635
0.638961	1.39791
0.664935	1.43213
0.690909	1.43026
0.714286	1.46467
0.74026	1.4989
0.763636	1.53331
0.78961	1.53144
0.815584	1.56566
0.836364	1.60026
0.862338	1.59839
0.885714	1.6328
0.911688	1.63093
0.935065	1.66534
0.958442	1.77195
0.981818	1.80637
1.00519	1.73248
