Adsorption isotherm of Ammonia on Alumina 1597
DOI: 10.1021/je000273+
Adsorbate Ammonia: InChIKey QGZKDVFQNNGYKY-UHFFFAOYSA-N
Temperature: 298 K
Tabular data in the source: 0
pressure (bar)	uptake (mmol/g)
0.00996331	1.14887
0.0202774	1.35246
0.0565283	1.65625
0.0772607	1.7824
0.1006	1.8828
0.126546	1.95745
0.170647	2.10736
0.196602	2.15646
0.21997	2.18022
0.243329	2.22953
0.295231	2.35329
0.318599	2.37704
0.344564	2.4006
0.37052	2.4497
0.393887	2.47346
0.417255	2.49722
0.440623	2.52097
0.492544	2.59364
0.515912	2.61739
0.541877	2.64095
0.565245	2.66471
0.59121	2.68826
0.611981	2.71222
0.637946	2.73578
0.661323	2.73399
0.684682	2.78329
0.708049	2.80705
0.734024	2.80506
0.757392	2.82881
0.783357	2.85237
0.806734	2.85058
0.8327	2.87414
0.856068	2.89789
0.879445	2.8961
0.902813	2.91986
0.928778	2.94341
0.952146	2.96717
0.978111	2.99073
1.00409	2.98874
