Adsorption isotherm of Ammonia on Zeolite 5A KE154
DOI: 10.1021/je000273+
Adsorbate Ammonia: InChIKey QGZKDVFQNNGYKY-UHFFFAOYSA-N
Temperature: 298 K
Tabular data in the source: 0
pressure (bar)	uptake (mmol/g)
0.00515504	0.523807
0.00515504	1.72513
0.00944547	4.22788
0.115276	6.61622
0.461371	7.23118
0.720227	7.54581
0.980513	7.74603
