Adsorption isotherm of Ammonia on Zeolite 13X WE894
DOI: 10.1021/je000273+
Adsorbate Ammonia: InChIKey QGZKDVFQNNGYKY-UHFFFAOYSA-N
Temperature: 298 K
Tabular data in the source: 0
pressure (bar)	uptake (mmol/g)
0.0876849	7.58677
0.118881	7.69357
0.407461	8.72635
0.646458	8.86164
0.945268	9.28254
