Adsorption isotherm of Ammonia on Zeolite 13X
DOI: 10.1021/je000273+
Adsorbate Ammonia: InChIKey QGZKDVFQNNGYKY-UHFFFAOYSA-N
Temperature: 298 K
Tabular data in the source: 0
pressure (bar)	uptake (mmol/g)
0.00801532	3.752
0.0108756	1.28071
0.0237469	6.61801
0.179632	8.04243
0.428477	8.74606
0.724517	9.08929
0.970502	9.24375
