Adsorption isotherm of Ammonia on Silica Gel 60
DOI: 10.1021/je000273+
Adsorbate Ammonia: InChIKey QGZKDVFQNNGYKY-UHFFFAOYSA-N
Temperature: 298 K
Tabular data in the source: 0
pressure (bar)	uptake (mmol/g)
0.00757576	1.26558
0.0126263	1.73696
0.0176768	2.45657
0.030303	2.90275
0.0378788	3.12578
0.0505051	3.34856
0.0656566	3.54639
0.0833333	3.69444
0.106061	3.81743
0.14899	3.96423
0.171717	3.98793
0.19697	4.03632
0.222222	4.05989
0.244949	4.08358
0.267677	4.10728
0.292929	4.10602
0.315657	4.12972
0.335859	4.12872
0.361111	4.15229
0.386364	4.15103
0.409091	4.17473
0.434343	4.1983
0.464646	4.19679
0.489899	4.19554
0.515152	4.19428
0.540404	4.21785
0.565657	4.2166
0.588384	4.24029
0.611111	4.21434
0.633838	4.23804
0.656566	4.23691
0.681818	4.23565
0.707071	4.2344
0.732323	4.23315
0.757576	4.23189
0.782828	4.25546
0.808081	4.25421
0.833333	4.25296
0.858586	4.2517
0.881313	4.25057
0.90404	4.24944
0.929293	4.24819
0.954545	4.24694
0.979798	4.24568
1.00505	4.26925
