Adsorption isotherm of Ammonia on Alumina 1593
DOI: 10.1021/je000273+
Adsorbate Ammonia: InChIKey QGZKDVFQNNGYKY-UHFFFAOYSA-N
Temperature: 298 K
Tabular data in the source: 0
pressure (bar)	uptake (mmol/g)
0.0606061	1.23813
0.174242	1.50553
0.280303	1.6492
0.479798	1.83788
0.727273	1.99936
0.977273	2.1607
