Adsorption isotherm of Ammonia on Faujasite DAY
DOI: 10.1021/je000273+
Adsorbate Ammonia: InChIKey QGZKDVFQNNGYKY-UHFFFAOYSA-N
Temperature: 298 K
Tabular data in the source: 0
pressure (bar)	uptake (mmol/g)
0.0956072	0.574166
0.121447	0.609334
0.144703	0.680697
0.167959	0.715958
0.191214	0.75122
0.21447	0.822582
0.237726	0.857844
0.263566	0.893012
0.286822	0.892173
0.310078	0.963535
0.333333	0.998797
0.356589	1.03406
0.379845	1.06932
0.403101	1.10458
0.428941	1.13975
0.45478	1.17492
0.48062	1.13788
0.498708	1.20943
0.524548	1.2446
0.547804	1.27986
0.573643	1.31503
0.596899	1.35029
0.622739	1.38546
0.648579	1.38453
0.669251	1.38378
0.69509	1.41895
0.72093	1.45412
0.744186	1.48938
0.770026	1.52455
0.793282	1.55981
0.819121	1.55888
0.844961	1.59404
0.868217	1.62931
0.894057	1.62837
0.912145	1.66382
0.937984	1.66289
