Adsorption isotherm of Ammonia on Silica Gel 40
DOI: 10.1021/je000273+
Adsorbate Ammonia: InChIKey QGZKDVFQNNGYKY-UHFFFAOYSA-N
Temperature: 298 K
Tabular data in the source: 0
pressure (bar)	uptake (mmol/g)
0.00463871	1.1415
0.0172116	1.2895
0.0574734	1.68366
0.0776312	1.80628
0.102849	1.90369
0.12555	1.97647
0.170952	2.12202
0.196187	2.16979
0.218897	2.21774
0.241607	2.2657
0.294603	2.36104
0.317322	2.38417
0.342566	2.40711
0.365276	2.45507
0.39052	2.47801
0.413239	2.50114
0.438483	2.52408
0.494014	2.59442
0.519258	2.61736
0.541977	2.64049
0.567221	2.66343
0.58994	2.68656
0.612668	2.68487
0.632861	2.70819
0.658106	2.73113
0.68335	2.75408
0.70606	2.80203
0.726262	2.80053
0.74899	2.79883
0.771709	2.82196
0.791912	2.82046
0.817156	2.8434
0.839875	2.86653
0.865119	2.88948
0.890363	2.91242
0.915617	2.91054
0.938345	2.90885
0.961055	2.9568
0.978714	3.00513
1.01408	2.97768
