Adsorption isotherm of Ammonia on Zeolite 13X WE894
DOI: 10.1021/je000273+
Adsorbate Ammonia: InChIKey QGZKDVFQNNGYKY-UHFFFAOYSA-N
Temperature: 298 K
Tabular data in the source: 0
pressure (bar)	uptake (mmol/g)
0.00448468	7.26603
0.0150611	7.98507
0.0333081	8.23621
0.0541152	8.34338
0.0800983	8.37841
0.103484	8.41354
0.129467	8.44858
0.155441	8.44765
0.178827	8.48278
0.2048	8.48184
0.22558	8.48109
0.251553	8.48016
0.277527	8.47923
0.300903	8.47838
0.326877	8.47745
0.352851	8.47652
0.378825	8.47558
0.420392	8.51006
0.443759	8.47325
0.467145	8.50838
0.493119	8.50744
0.519093	8.50651
0.545066	8.50557
0.57104	8.50464
0.597014	8.5037
0.622997	8.53874
0.646373	8.5379
0.667153	8.53715
0.69052	8.50034
0.750259	8.49819
0.773645	8.53332
0.797021	8.53248
0.822995	8.53155
0.848969	8.53061
0.874943	8.52968
0.900917	8.52874
0.92689	8.52781
0.94766	8.49109
0.968458	8.56229
0.991843	8.59742
1.0126	8.52473
