Adsorption isotherm of Ammonia on Alumina 1597
DOI: 10.1021/je000273+
Adsorbate Ammonia: InChIKey QGZKDVFQNNGYKY-UHFFFAOYSA-N
Temperature: 298 K
Tabular data in the source: 0
pressure (bar)	uptake (mmol/g)
0.0127551	1.27014
0.0484694	1.64292
0.0688776	1.76697
0.0918367	1.89095
0.114796	1.96511
0.170918	2.11318
0.193878	2.18734
0.219388	2.23653
0.242347	2.28578
0.293367	2.35924
0.318878	2.40843
0.341837	2.45768
0.362245	2.45717
0.387755	2.50635
0.413265	2.53063
0.436224	2.55497
0.494898	2.60333
0.520408	2.62761
0.545918	2.65188
0.568878	2.67622
0.594388	2.7005
0.617347	2.72483
0.640306	2.74917
0.665816	2.77345
0.691327	2.79772
0.711735	2.82213
0.732143	2.84653
0.757653	2.82098
0.783163	2.84526
0.808673	2.86953
0.831633	2.86896
0.857143	2.89324
0.880102	2.91758
0.905612	2.91694
0.92602	2.94134
0.94898	2.94077
1.00765	2.98913
1.01786	3.06361
