Adsorption isotherm of Ammonia on Zeolite 5A
DOI: 10.1021/je000273+
Adsorbate Ammonia: InChIKey QGZKDVFQNNGYKY-UHFFFAOYSA-N
Temperature: 298 K
Tabular data in the source: 0
pressure (bar)	uptake (mmol/g)
-1.52e-05	3.12694
0.00702701	5.64525
0.190126	6.94666
0.45914	7.33539
0.742238	7.63962
0.983083	7.79173
