Adsorption isotherm of Ammonia on Silica Gel 40
DOI: 10.1021/je000273+
Adsorbate Ammonia: InChIKey QGZKDVFQNNGYKY-UHFFFAOYSA-N
Temperature: 298 K
Tabular data in the source: 0
pressure (bar)	uptake (mmol/g)
0.186869	4.53328
0.727273	5.89652
0.962121	6.28202
