Adsorption isotherm of Ammonia on Zeolite 13X WE894
DOI: 10.1021/je000273+
Adsorbate Ammonia: InChIKey QGZKDVFQNNGYKY-UHFFFAOYSA-N
Temperature: 298 K
Tabular data in the source: 0
pressure (bar)	uptake (mmol/g)
0	3.53791
0.0103896	4.9451
0.0233766	5.55788
0.0337662	5.88204
0.0467532	6.20601
0.0597403	6.49388
0.0779221	6.74528
0.0987013	7.14089
0.119481	7.24769
0.14026	7.4267
0.163636	7.56941
0.187013	7.71213
0.21039	7.89095
0.233766	7.99756
0.25974	8.14009
0.283117	8.24671
0.309091	8.35313
0.332468	8.42365
0.358442	8.53008
0.381818	8.63669
0.423377	8.7781
0.446753	8.81251
0.472727	8.88284
0.496104	8.98945
0.519481	9.05997
0.545455	9.09419
0.568831	9.16471
0.592208	9.23522
0.618182	9.26945
0.641558	9.33996
0.664935	9.37437
0.688312	9.40879
0.711688	9.4793
0.737662	9.54963
0.761039	9.58404
0.784416	9.61845
0.81039	9.65268
0.833766	9.72319
0.857143	9.75761
0.883117	9.79183
0.906494	9.86235
0.932468	9.89657
