Adsorption isotherm of Ammonia on Alumina 1593
DOI: 10.1021/je000273+
Adsorbate Ammonia: InChIKey QGZKDVFQNNGYKY-UHFFFAOYSA-N
Temperature: 298 K
Tabular data in the source: 0
pressure (bar)	uptake (mmol/g)
0.0102041	0.871632
0.0408163	1.14489
0.0612245	1.21912
0.0943878	1.36776
0.117347	1.44192
0.142857	1.4911
0.191327	1.51481
0.206633	1.58916
0.229592	1.63841
0.255102	1.6876
0.303571	1.68639
0.326531	1.76055
0.346939	1.76004
0.369898	1.80929
0.392857	1.80872
0.418367	1.83299
0.438776	1.8574
0.47449	1.85651
0.497449	1.88085
0.522959	1.90512
0.545918	1.92946
0.571429	1.95374
0.594388	1.95316
0.614796	1.97757
0.640306	2.00184
0.665816	2.00121
0.688776	2.02555
0.762755	2.07353
0.788265	2.07289
0.813776	2.07225
0.836735	2.09659
0.862245	2.09596
0.885204	2.1203
0.910714	2.11966
0.936224	2.14394
0.961735	2.1433
1.00765	2.16707
