Adsorption isotherm of Ammonia on Silica Gel 100
DOI: 10.1021/je000273+
Adsorbate Ammonia: InChIKey QGZKDVFQNNGYKY-UHFFFAOYSA-N
Temperature: 298 K
Tabular data in the source: 0
pressure (bar)	uptake (mmol/g)
0.0124376	1.4808
0.0279276	1.73509
0.0486221	1.96343
0.069345	2.11512
0.0926844	2.21552
0.116014	2.34147
0.139354	2.44187
0.180866	2.56643
0.204224	2.61573
0.230171	2.69039
0.256126	2.73949
0.292463	2.81335
0.315821	2.86266
0.339179	2.91196
0.362547	2.93572
0.383317	2.95967
0.409273	3.00878
0.435229	3.05788
0.458587	3.10719
0.489757	3.1048
0.513115	3.1541
0.536483	3.17786
0.562439	3.22697
0.585807	3.25072
0.609175	3.27448
0.63514	3.29804
0.658508	3.32179
0.684473	3.34535
0.731209	3.39286
0.757174	3.41642
0.783139	3.43998
0.811692	3.48888
0.837667	3.48689
0.861035	3.51065
0.884403	3.53441
0.907771	3.55816
0.931138	3.58192
0.957104	3.60548
0.996056	3.62804
