Adsorption isotherm of Ammonia on Zeolite 13X
DOI: 10.1021/je000273+
Adsorbate Ammonia: InChIKey QGZKDVFQNNGYKY-UHFFFAOYSA-N
Temperature: 298 K
Tabular data in the source: 0
pressure (bar)	uptake (mmol/g)
0.00280166	2.40018
0.00421011	0.574831
0.0112524	4.90159
0.129562	6.96356
0.319703	7.89314
0.461957	8.38328
0.712661	8.85652
0.963365	9.14384
