Adsorption isotherm of Ammonia on Clinoptilolite
DOI: 10.1021/je000273+
Adsorbate Ammonia: InChIKey QGZKDVFQNNGYKY-UHFFFAOYSA-N
Temperature: 298 K
Tabular data in the source: 0
pressure (bar)	uptake (mmol/g)
0.00801532	-0.0196472
0.00801532	2.01116
0.0223168	4.28508
0.226827	5.25758
0.471382	5.55791
0.723087	5.77243
0.976222	5.87254
