Adsorption isotherm of Ammonia on Silica Gel 100
DOI: 10.1021/je000273+
Adsorbate Ammonia: InChIKey QGZKDVFQNNGYKY-UHFFFAOYSA-N
Temperature: 298 K
Tabular data in the source: 0
pressure (bar)	uptake (mmol/g)
0.00510204	1.81838
0.0153061	2.34126
0.0280612	2.59005
0.0382653	2.76417
0.0535714	2.96308
0.0892857	3.26112
0.112245	3.3851
0.135204	3.48418
0.160714	3.58319
0.183673	3.65735
0.206633	3.73151
0.227041	3.83064
0.252551	3.85492
0.272959	3.92914
0.295918	3.95348
0.318878	4.02764
0.344388	4.07683
0.367347	4.12608
0.392857	4.15036
0.415816	4.19961
0.438776	4.24886
0.466837	4.27307
0.492347	4.29734
0.515306	4.34659
0.540816	4.37087
0.563776	4.39521
0.589286	4.41948
0.614796	4.44376
0.637755	4.49301
0.663265	4.49237
0.688776	4.54156
0.711735	4.5659
0.734694	4.56533
0.760204	4.5896
0.783163	4.61394
0.808673	4.63822
0.831633	4.66256
0.854592	4.66199
0.880102	4.68626
0.905612	4.71054
0.928571	4.7847
0.961735	4.83369
0.982143	4.78336
1.00765	4.78273
