Adsorption isotherm of Ammonia on Zeolite 4A TG242
DOI: 10.1021/je000273+
Adsorbate Ammonia: InChIKey QGZKDVFQNNGYKY-UHFFFAOYSA-N
Temperature: 298 K
Tabular data in the source: 0
pressure (bar)	uptake (mmol/g)
0.00258398	5.12626
0.0232558	6.17245
0.0361757	6.64129
0.0568475	7.00156
0.129199	7.61266
0.152455	7.72013
0.178295	7.7914
0.20155	7.89886
0.22739	7.97013
0.250646	8.00539
0.273902	8.07675
0.299742	8.11192
0.325581	8.18319
0.348837	8.18235
0.372093	8.21761
0.426357	8.28786
0.452196	8.32303
0.475452	8.35829
0.501292	8.39346
0.527132	8.39252
0.547804	8.42788
0.573643	8.46305
0.596899	8.46221
0.622739	8.46127
0.648579	8.49644
0.669251	8.49569
0.69509	8.53086
0.74677	8.5651
0.77261	8.60027
0.793282	8.59952
0.819121	8.59859
0.842377	8.59775
0.865633	8.63301
0.891473	8.63208
0.917313	8.63114
0.943152	8.66631
1.00517	8.70017
