Adsorption isotherm of Ammonia on Alumina VPO2
DOI: 10.1021/je000273+
Adsorbate Ammonia: InChIKey QGZKDVFQNNGYKY-UHFFFAOYSA-N
Temperature: 298 K
Tabular data in the source: 0
pressure (bar)	uptake (mmol/g)
0.0530303	1.41226
0.169192	1.77883
0.295455	1.99597
0.492424	2.2096
0.729798	2.37157
0.994949	2.58181
