Adsorption isotherm of Ammonia on Zeolite 5A
DOI: 10.1021/je000273+
Adsorbate Ammonia: InChIKey QGZKDVFQNNGYKY-UHFFFAOYSA-N
Temperature: 298 K
Tabular data in the source: 0
pressure (bar)	uptake (mmol/g)
0.00702701	3.11004
0.00843546	5.57765
0.180266	6.94666
0.45914	7.403
0.736604	7.74103
0.980266	7.92694
