Adsorption isotherm of Ammonia on Alumina VPO2
DOI: 10.1021/je000273+
Adsorbate Ammonia: InChIKey QGZKDVFQNNGYKY-UHFFFAOYSA-N
Temperature: 298 K
Tabular data in the source: 0
pressure (bar)	uptake (mmol/g)
0.0151515	0.619815
0.0328283	1.06575
0.0732323	1.51055
0.0934343	1.65848
0.116162	1.75664
0.179293	1.97691
0.204545	2.02531
0.227273	2.07382
0.25	2.09752
0.313131	2.16885
0.338384	2.1676
0.361111	2.19129
0.383838	2.21499
0.409091	2.23856
0.434343	2.26212
0.454545	2.26112
0.507576	2.25849
0.527778	2.28231
0.55303	2.28106
0.578283	2.30462
0.603535	2.30337
0.628788	2.30212
0.65404	2.30086
0.676768	2.32456
0.70202	2.3233
0.747475	2.34587
0.772727	2.34462
0.79798	2.34336
0.823232	2.34211
0.843434	2.36593
0.866162	2.33998
0.888889	2.33885
0.914141	2.36242
0.939394	2.36116
0.964646	2.35991
