Adsorption isotherm of Ammonia on Zeolite 4A TG242
DOI: 10.1021/je000273+
Adsorbate Ammonia: InChIKey QGZKDVFQNNGYKY-UHFFFAOYSA-N
Temperature: 298 K
Tabular data in the source: 0
pressure (bar)	uptake (mmol/g)
0.00379329	4.60418
0.0849941	7.22716
0.407349	8.2947
0.729499	8.57088
0.981501	8.77764
