Adsorption isotherm of Ammonia on Zeolite 13X
DOI: 10.1021/je000273+
Adsorbate Ammonia: InChIKey QGZKDVFQNNGYKY-UHFFFAOYSA-N
Temperature: 298 K
Tabular data in the source: 0
pressure (bar)	uptake (mmol/g)
0.00280166	0.557929
0.00280166	2.31568
0.00702701	4.80018
0.128154	6.94666
0.321112	7.82553
0.468999	8.31568
0.712661	8.68751
0.96759	8.97483
