Adsorption isotherm of Ammonia on Zeolite 13X
DOI: 10.1021/je000273+
Adsorbate Ammonia: InChIKey QGZKDVFQNNGYKY-UHFFFAOYSA-N
Temperature: 298 K
Tabular data in the source: 0
pressure (bar)	uptake (mmol/g)
0.00658518	0.525598
0.00944547	2.53352
0.0108756	4.85035
0.128147	6.84111
0.326937	7.80217
0.465661	8.28269
0.714506	8.66025
0.964781	9.02065
