Adsorption isotherm of Ammonia on Silica Gel 40
DOI: 10.1021/je000273+
Adsorbate Ammonia: InChIKey QGZKDVFQNNGYKY-UHFFFAOYSA-N
Temperature: 298 K
Tabular data in the source: 0
pressure (bar)	uptake (mmol/g)
0.0328283	1.53738
0.0378788	1.81018
0.0479798	2.18202
0.0707071	2.80145
0.0808081	3.02436
0.0934343	3.27196
0.106061	3.49473
0.118687	3.69269
0.14899	4.06353
0.166667	4.23641
0.207071	4.5571
0.224747	4.70515
0.247475	4.82814
0.270202	4.95112
0.292929	5.04929
0.313131	5.12275
0.335859	5.22091
0.358586	5.29425
0.383838	5.36747
0.406566	5.44081
0.431818	5.4892
0.457071	5.56241
0.477273	5.61106
0.502525	5.63463
0.525253	5.68314
0.537879	5.73216
0.560606	5.75586
0.583333	5.77955
0.608586	5.80312
0.631313	5.85164
0.65404	5.85051
0.679293	5.8989
0.70202	5.92259
0.737374	5.97048
0.762626	5.99405
0.782828	6.01787
0.808081	6.01662
0.833333	6.04019
0.858586	6.06376
0.883838	6.08733
0.906566	6.0862
0.931818	6.10977
0.95202	6.18323
1.00253	6.1559
