Adsorption isotherm of Ammonia on Alumina 1593
DOI: 10.1021/je000273+
Adsorbate Ammonia: InChIKey QGZKDVFQNNGYKY-UHFFFAOYSA-N
Temperature: 298 K
Tabular data in the source: 0
pressure (bar)	uptake (mmol/g)
0.0227273	0.743553
0.0378788	1.09032
0.0757576	1.43596
0.0984848	1.53412
0.123737	1.60733
0.146465	1.65585
0.186869	1.75313
0.207071	1.72731
0.229798	1.751
0.255051	1.77457
0.308081	1.79676
0.330808	1.79563
0.356061	1.8192
0.381313	1.81795
0.40404	1.84164
0.429293	1.84039
0.454545	1.86396
0.497475	1.837
0.522727	1.86057
0.54798	1.85932
0.573232	1.85807
0.598485	1.88164
0.623737	1.88038
0.64899	1.87913
0.669192	1.87813
0.691919	1.877
0.747475	1.89906
0.770202	1.89793
0.792929	1.87198
0.818182	1.89555
0.843434	1.8943
0.868687	1.89304
0.893939	1.89179
0.919192	1.89054
0.944444	1.91411
0.969697	1.91285
0.994949	1.9116
