Adsorption isotherm of Ammonia on Zeolite 13X
DOI: 10.1021/je000273+
Adsorbate Ammonia: InChIKey QGZKDVFQNNGYKY-UHFFFAOYSA-N
Temperature: 298 K
Tabular data in the source: 0
pressure (bar)	uptake (mmol/g)
0.00139321	3.61708
0.00280166	1.20018
0.0211115	6.71004
0.174633	8.23117
0.438013	8.75511
0.721112	9.22835
0.974633	9.34666
