Adsorption isotherm of Ammonia on Pentasil DAZ
DOI: 10.1021/je000273+
Adsorbate Ammonia: InChIKey QGZKDVFQNNGYKY-UHFFFAOYSA-N
Temperature: 298 K
Tabular data in the source: 0
pressure (bar)	uptake (mmol/g)
0.0258398	0.612786
0.0465116	0.756444
0.0956072	1.00738
0.118863	1.11484
0.142119	1.18621
0.165375	1.22147
0.18863	1.32893
0.211886	1.36419
0.235142	1.43555
0.294574	1.57781
0.320413	1.61298
0.343669	1.64824
0.366925	1.71961
0.392765	1.75477
0.418605	1.82604
0.44186	1.8252
0.465116	1.86047
0.490956	1.89563
0.514212	1.93089
0.540052	2.00216
0.565891	2.00123
0.589147	2.03649
0.614987	2.10776
0.638243	2.10692
0.664083	2.14209
0.687339	2.17735
0.710594	2.21261
0.73385	2.24788
0.75969	2.24694
0.782946	2.2822
0.826873	2.35282
0.852713	2.35189
0.878553	2.42316
0.899225	2.42241
0.925065	2.45758
0.950904	2.45665
0.976744	2.49181
1	2.49097
