Adsorption isotherm of Ammonia on Zeolite 13X WE894
DOI: 10.1021/je000273+
Adsorbate Ammonia: InChIKey QGZKDVFQNNGYKY-UHFFFAOYSA-N
Temperature: 298 K
Tabular data in the source: 0
pressure (bar)	uptake (mmol/g)
0.0206718	6.64185
0.0310078	6.96639
0.0439276	7.29083
0.0594315	7.57908
0.116279	8.04634
0.139535	8.18991
0.165375	8.29728
0.186047	8.36873
0.211886	8.4039
0.235142	8.47527
0.260982	8.54653
0.284238	8.5818
0.310078	8.65307
0.333333	8.68833
0.359173	8.7235
0.385013	8.75866
0.423773	8.79337
0.447028	8.82863
0.472868	8.82769
0.498708	8.86286
0.51938	8.89822
0.54522	8.89728
0.571059	8.93245
0.594315	8.93161
0.620155	8.96678
0.674419	9.03702
0.69509	9.03628
0.72093	9.03535
0.744186	9.07061
0.767442	9.06977
0.793282	9.06883
0.819121	9.104
0.844961	9.10307
0.865633	9.13842
0.888889	9.13759
0.912145	9.13675
0.950904	9.17145
0.976744	9.17051
1.00258	9.16958
