Adsorption isotherm of Ammonia on Amberlyst 15
DOI: 10.1021/je000273+
Adsorbate Ammonia: InChIKey QGZKDVFQNNGYKY-UHFFFAOYSA-N
Temperature: 298 K
Tabular data in the source: 0
pressure (bar)	uptake (mmol/g)
-1.52e-05	0.253704
-1.52e-05	4.58046
0.00139321	-0.0843241
0.00139321	2.33258
0.0605481	7.65652
0.336604	9.58328
0.657731	10.6481
0.943647	11.3748
