Adsorption isotherm of Ammonia on Silica Gel 40
DOI: 10.1021/je000273+
Adsorbate Ammonia: InChIKey QGZKDVFQNNGYKY-UHFFFAOYSA-N
Temperature: 298 K
Tabular data in the source: 0
pressure (bar)	uptake (mmol/g)
0.0019522	1.58851
0.0143907	2.10886
0.0218413	2.45582
0.0443722	3.00024
0.0543929	3.2229
0.0694732	3.42036
0.0820192	3.64283
0.0996337	3.81528
0.117248	3.98772
0.134872	4.13535
0.155021	4.28278
0.175169	4.43022
0.192793	4.57784
0.20542	4.5769
0.228112	4.6745
0.250795	4.79693
0.273487	4.89453
0.296188	4.96731
0.321414	5.03989
0.344115	5.11267
0.369342	5.18526
0.392034	5.28286
0.417269	5.33063
0.439979	5.37858
0.465214	5.42635
0.487915	5.49913
0.51315	5.54689
0.53586	5.59485
0.561096	5.64261
0.583806	5.69057
0.609041	5.73833
0.63176	5.76146
0.65447	5.80942
0.679714	5.83236
0.702433	5.85549
0.737761	5.92733
0.763005	5.95027
0.788249	5.97322
0.810959	6.02117
0.833687	6.01948
0.858922	6.06724
0.884167	6.09019
0.906886	6.11332
0.93213	6.13626
0.952305	6.20923
0.972508	6.20772
0.980093	6.18233
1.00534	6.20528
