Adsorption isotherm of Ammonia on Pentasil DAZ
DOI: 10.1021/je000273+
Adsorbate Ammonia: InChIKey QGZKDVFQNNGYKY-UHFFFAOYSA-N
Temperature: 298 K
Tabular data in the source: 0
pressure (bar)	uptake (mmol/g)
0.0234885	0.43081
0.0703534	0.860779
0.0937579	0.96785
0.117172	1.11089
0.140585	1.25394
0.166587	1.36091
0.189982	1.43202
0.215984	1.53899
0.241967	1.57403
0.288757	1.71623
0.31475	1.78724
0.338136	1.82237
0.361521	1.8575
0.384907	1.89263
0.408293	1.92776
0.434276	1.9628
0.460259	1.99783
0.483636	1.99699
0.507021	2.03212
0.533004	2.06716
0.556381	2.06632
0.582364	2.10135
0.608338	2.10042
0.631724	2.13555
0.657697	2.13462
0.68368	2.16965
0.704459	2.1689
0.725238	2.16816
0.748624	2.20329
0.774598	2.20235
0.81098	2.27299
0.829171	2.3083
0.852529	2.23552
0.878512	2.27056
0.904486	2.26962
0.927862	2.26878
0.951248	2.30391
0.977222	2.30298
1.0032	2.30204
