Adsorption isotherm of Ammonia on Zeolite 5A KE154
DOI: 10.1021/je000273+
Adsorbate Ammonia: InChIKey QGZKDVFQNNGYKY-UHFFFAOYSA-N
Temperature: 298 K
Tabular data in the source: 0
pressure (bar)	uptake (mmol/g)
0.00519481	4.00685
0.0207792	4.72774
0.0311688	5.0519
0.0467532	5.33958
0.0649351	5.59098
0.0857143	5.80609
0.109091	5.9849
0.132468	6.16372
0.155844	6.27034
0.179221	6.41305
0.205195	6.51948
0.228571	6.6261
0.254545	6.69642
0.277922	6.80304
0.303896	6.87336
0.327273	6.94388
0.353247	7.01421
0.376623	7.08472
0.4	7.11913
0.425974	7.18946
0.446753	7.22406
0.477922	7.29401
0.503896	7.36434
0.527273	7.39875
0.553247	7.43298
0.576623	7.46739
0.602597	7.53772
0.628571	7.57194
0.651948	7.60636
0.675325	7.64077
0.698701	7.67518
0.735065	7.74476
0.758442	7.77917
0.784416	7.8134
0.807792	7.84781
0.833766	7.88204
0.85974	7.91626
0.883117	7.95068
0.909091	7.9488
0.932468	8.01932
0.955844	8.01763
0.981818	8.05185
1.0026	8.08646
