Adsorption isotherm of Ammonia on Zeolite 5A KE154
DOI: 10.1021/je000273+
Adsorbate Ammonia: InChIKey QGZKDVFQNNGYKY-UHFFFAOYSA-N
Temperature: 298 K
Tabular data in the source: 0
pressure (bar)	uptake (mmol/g)
0.00430716	6.58258
0.0199942	6.9777
0.043408	7.12074
0.0693724	7.08384
0.105764	7.19044
0.126543	7.18969
0.152517	7.18876
0.17849	7.18782
0.204464	7.18689
0.230438	7.18596
0.256412	7.18502
0.282385	7.18409
0.308359	7.18315
0.334333	7.18222
0.360307	7.18128
0.386281	7.18035
0.409666	7.21548
0.43564	7.21455
0.479796	7.21296
0.505769	7.21202
0.531743	7.21109
0.557717	7.21015
0.583691	7.20922
0.609664	7.20829
0.635638	7.20735
0.659015	7.20651
0.682391	7.20567
0.705767	7.20483
0.726547	7.20408
0.749923	7.20324
0.773309	7.23837
0.796685	7.23753
0.817455	7.20081
0.840841	7.23594
0.866814	7.23501
0.892788	7.23407
0.918762	7.23314
0.944736	7.2322
0.968103	7.19539
0.994086	7.23043
