Adsorption isotherm of Ammonia on Alumina VPO2
DOI: 10.1021/je000273+
Adsorbate Ammonia: InChIKey QGZKDVFQNNGYKY-UHFFFAOYSA-N
Temperature: 298 K
Tabular data in the source: 0
pressure (bar)	uptake (mmol/g)
0.0178571	1.12055
0.0280612	1.24485
0.0688776	1.51786
0.0918367	1.61693
0.114796	1.69109
0.137755	1.76525
0.183673	1.78902
0.204082	1.88815
0.22449	1.91256
0.25	1.96174
0.272959	2.01099
0.30102	2.01029
0.321429	2.05961
0.344388	2.10886
0.369898	2.13313
0.392857	2.15747
0.415816	2.18181
0.438776	2.20615
0.461735	2.23049
0.494898	2.27949
0.512755	2.25413
0.535714	2.27847
0.558673	2.30281
0.584184	2.30217
0.607143	2.32651
0.630102	2.35085
0.655612	2.37513
0.678571	2.39947
0.704082	2.39883
0.737245	2.44783
0.760204	2.42234
0.785714	2.44662
0.808673	2.47096
0.834184	2.47032
0.857143	2.49466
0.882653	2.51894
0.908163	2.5183
0.933673	2.51767
0.956633	2.54201
0.97449	2.54156
