Adsorption isotherm of Nitrogen on PPy/NA composite
DOI: 10.1016/j.jece.2016.03.015
Article source: Figure  2b
Adsorbate Nitrogen: InChIKey IJGRMHOSHXDMSA-UHFFFAOYSA-N
Kind: experiment
Temperature: 77 K
Tabular data in the source: 0
pressure (bar)	uptake (cm3(STP)/g)
0.009585	0.4038
0.047795	0.5284
0.052253	0.5112
0.098022	0.6637
0.10247	0.6067
0.147428	0.7367
0.151481	0.7163
0.199276	0.828
0.204139	0.8033
0.249361	0.8462
0.254093	0.8183
0.30053	0.886
0.304715	0.857
0.35103	0.9525
0.355215	0.9074
0.402463	0.9837
0.406384	0.9278
0.453764	1.0717
0.457148	0.9654
0.504528	1.1523
0.507638	0.988
0.554491	1.2779
0.557723	1.0728
0.605255	1.3262
0.609034	1.177
0.656282	1.4787
0.659656	1.2629
0.70813	1.5936
0.710157	1.3381
0.75781	1.7064
0.760647	1.4326
0.808442	1.7784
0.812758	1.5281
0.858527	1.9835
0.86258	1.744
0.910375	2.428
0.912259	2.1284
0.960328	3.7919
0.964786	3.0095
0.970582	3.6857
0.974098	3.3817
1.00258	4.9259
1.00488	5.067
