Adsorption isotherm of Water on Silicalite MFI
DOI: 10.1016/S0167-2991(08)80290-X
Adsorbate Water: InChIKey XLYOFNOQVPJJNP-UHFFFAOYSA-N
Temperature: 300 K
Tabular data in the source: 0
pressure (bar)	uptake (molecules/unitcell)
21.1292	0.858325
147.852	1.2953
287.684	1.84152
410.037	2.71547
488.692	3.80791
558.608	9.16085
624.154	20.5222
698.44	27.1861
820.793	30.0264
1034.91	32.7575
1244.66	34.2869
1537.43	35.7071
1812.73	36.6903
1987.52	37.2365
