Adsorption isotherm of Water on Silicalite MFI
DOI: 10.1016/S0167-2991(08)80290-X
Adsorbate Water: InChIKey XLYOFNOQVPJJNP-UHFFFAOYSA-N
Temperature: 300 K
Tabular data in the source: 0
pressure (bar)	uptake (molecules/unitcell)
545.499	0.967569
672.222	1.18606
803.314	1.40454
930.037	1.95076
978.104	2.16925
1008.69	2.27849
1026.17	35.8163
1069.87	37.018
1196.59	37.2365
1353.9	38.6566
1996.26	40.9508
