Adsorption isotherm of Water on Zeolite LTA
DOI: 10.1016/S0167-2991(08)80290-X
Adsorbate Water: InChIKey XLYOFNOQVPJJNP-UHFFFAOYSA-N
Temperature: 300 K
Tabular data in the source: 0
pressure (bar)	uptake (molecules/unitcell)
252.726	0.499371
501.801	0.674161
698.44	0.499371
798.944	0.848951
842.642	0.674161
908.188	20.4254
986.843	20.4254
1205.33	20.775
