Adsorption isotherm of Nitrogen on Silicalite MFI
DOI: 10.1016/S0167-2991(08)80290-X
Adsorbate Nitrogen: InChIKey IJGRMHOSHXDMSA-UHFFFAOYSA-N
Temperature: 77 K
Tabular data in the source: 0
pressure (bar)	uptake (cm3(STP)/g)
0.00400996	79.9039
0.00619484	62.4249
0.00619484	92.5762
0.113254	99.1308
0.226867	105.685
0.447539	117.047
0.554598	116.173
0.668212	117.921
0.891069	119.232
1.00468	120.98
