Adsorption isotherm of Water on Zeolite FAU
DOI: 10.1016/S0167-2991(08)80290-X
Adsorbate Water: InChIKey XLYOFNOQVPJJNP-UHFFFAOYSA-N
Temperature: 300 K
Tabular data in the source: 0
pressure (bar)	uptake (molecules/unitcell)
51.7174	0.499371
401.297	0.674161
602.306	0.499371
663.482	0.674161
702.81	76.3582
803.314	77.5817
995.583	78.1061
