Adsorption isotherm of Water on Silicalite MFI
DOI: 10.1016/S0167-2991(08)80290-X
Adsorbate Water: InChIKey XLYOFNOQVPJJNP-UHFFFAOYSA-N
Temperature: 300 K
Tabular data in the source: 0
pressure (bar)	uptake (molecules/unitcell)
8.01993	0.324581
899.448	0.674161
986.843	0.674161
1087.35	0.674161
1187.85	1.37332
1257.77	2.24727
1266.51	35.8069
1301.47	36.5061
1388.86	37.0305
1493.73	38.254
1996.26	40.701
