Adsorption isotherm of Nitrogen on Silicalite MFI
DOI: 10.1016/S0167-2991(08)80290-X
Adsorbate Nitrogen: InChIKey IJGRMHOSHXDMSA-UHFFFAOYSA-N
Temperature: 77 K
Tabular data in the source: 0
pressure (bar)	uptake (cm3(STP)/g)
0.00619484	10.8619
0.00619484	30.0888
0.00619484	71.6014
0.00619484	89.9543
0.0630016	96.072
0.0979595	98.2568
0.152581	103.938
0.163506	110.929
0.200649	117.484
0.312077	119.669
0.502161	120.106
0.624514	120.98
0.766531	120.106
0.840817	120.98
0.956615	122.29
1.00468	124.038
