Adsorption isotherm of Water on Zeolite Beta
DOI: 10.1016/S0167-2991(08)80290-X
Adsorbate Water: InChIKey XLYOFNOQVPJJNP-UHFFFAOYSA-N
Temperature: 300 K
Tabular data in the source: 0
pressure (bar)	uptake (molecules/unitcell)
991.213	0.499371
1100.46	1.02374
1196.59	52.0624
1301.47	53.6355
1388.86	53.4607
1594.24	54.859
1786.51	55.2086
2000.62	55.9078
