Adsorption isotherm of Nitrogen on UiO-66-P1000
DOI: 10.1016/j.micromeso.2013.02.025
Article source: Figure 7
Adsorbate Nitrogen: InChIKey IJGRMHOSHXDMSA-UHFFFAOYSA-N
Kind: experiment
Temperature: 77 K
Tabular data in the source: 0
pressure (bar)	uptake (cm3(STP)/g)
0.010351	223.271
0.067	258.466
0.146136	266.831
0.22715	274.031
0.338285	277.793
0.48335	288.648
0.598269	297.095
0.728252	304.407
0.854488	316.387
0.948682	322.448
0.975117	338.873
0.997909	384.51
1.01313	421.948
