Adsorption isotherm of Nitrogen on CuBTC-P10000
DOI: 10.1016/j.micromeso.2013.02.025
Article source: Figure 3
Adsorbate Nitrogen: InChIKey IJGRMHOSHXDMSA-UHFFFAOYSA-N
Kind: experiment
Temperature: 77 K
Tabular data in the source: 0
pressure (bar)	uptake (cm3(STP)/g)
0.003333	202.062
0.053329	214.344
0.123324	223.456
0.209983	226.299
0.299976	232.24
0.386635	235.083
0.466628	237.947
0.543288	240.82
0.626615	246.782
0.713274	249.625
0.796601	252.478
0.889926	255.301
0.963254	276.837
1.00658	323.337
