Adsorption isotherm of Nitrogen on CuBTC-P1000
DOI: 10.1016/j.micromeso.2013.02.025
Article source: Figure 3
Adsorbate Nitrogen: InChIKey IJGRMHOSHXDMSA-UHFFFAOYSA-N
Kind: experiment
Temperature: 77 K
Tabular data in the source: 0
pressure (bar)	uptake (cm3(STP)/g)
0.476628	287.657
0.493293	293.823
0.529956	293.711
0.566621	296.707
0.606617	299.693
0.659946	302.638
0.699942	305.624
0.743273	305.492
0.783269	308.478
0.813267	308.386
0.84993	314.491
0.883261	314.388
0.923257	320.483
0.949922	332.837
0.96992	348.319
0.986585	366.921
0.996585	379.326
1.00658	388.621
