Adsorption isotherm of Nitrogen on UiO-66-P10000
DOI: 10.1016/j.micromeso.2013.02.025
Article source: Figure 7
Adsorbate Nitrogen: InChIKey IJGRMHOSHXDMSA-UHFFFAOYSA-N
Kind: experiment
Temperature: 77 K
Tabular data in the source: 0
pressure (bar)	uptake (cm3(STP)/g)
0.006585	223.262
0.023608	240.834
0.044389	256.076
0.072679	265.492
0.123565	273.792
0.176329	280.926
0.23285	285.732
0.279949	289.347
0.332708	295.313
0.398661	303.647
0.455167	304.946
0.504165	312.072
0.556899	312.194
0.613435	320.506
0.669942	321.805
0.726458	325.442
0.782969	327.91
0.841377	333.889
0.890356	336.34
0.945013	345.817
0.977113	365.761
1.00166	381.012
