Adsorption isotherm of Nitrogen on UiO-66
DOI: 10.1016/j.micromeso.2013.02.025
Article source: Figure 7
Adsorbate Nitrogen: InChIKey IJGRMHOSHXDMSA-UHFFFAOYSA-N
Kind: experiment
Temperature: 77 K
Tabular data in the source: 0
pressure (bar)	uptake (cm3(STP)/g)
0.47583	292.137
0.556836	296.999
0.660436	300.744
0.779118	308.031
0.867647	310.573
0.937372	320.085
1.00925	395.056
