Adsorption isotherm of Nitrogen on CuBTC
DOI: 10.1016/j.micromeso.2013.02.025
Article source: Figure 3
Adsorbate Nitrogen: InChIKey IJGRMHOSHXDMSA-UHFFFAOYSA-N
Kind: experiment
Temperature: 77 K
Tabular data in the source: 0
pressure (bar)	uptake (cm3(STP)/g)
0.006666	388.581
0.026665	397.846
0.053329	403.981
0.07666	413.236
0.099992	419.382
0.126656	422.409
0.159987	431.633
0.186652	434.66
0.216649	437.677
0.246646	440.694
0.273311	440.612
0.303308	443.629
0.339972	446.625
0.373303	449.632
0.406633	452.638
0.436631	452.546
0.476628	455.532
0.513291	455.42
0.549955	458.416
0.589952	461.402
0.626615	461.29
0.656612	464.307
0.689943	467.313
0.71994	467.221
0.753271	467.119
0.799935	473.193
0.846597	473.05
0.886594	472.927
0.906592	472.866
0.949922	475.842
0.993252	478.818
