Adsorption isotherm of Nitrogen on UiO-66
DOI: 10.1016/j.micromeso.2013.02.025
Article source: Figure 7
Adsorbate Nitrogen: InChIKey IJGRMHOSHXDMSA-UHFFFAOYSA-N
Kind: experiment
Temperature: 77 K
Tabular data in the source: 0
pressure (bar)	uptake (cm3(STP)/g)
0.008473	224.435
0.046258	252.574
0.197011	272.792
0.360905	282.521
0.47204	286.284
0.522925	294.583
0.573757	290.025
0.679255	297.281
0.792273	301.049
0.884583	307.106
0.937377	321.254
0.976932	322.514
1.00354	379.848
1.01301	393.896
