Adsorption isotherm of Nitrogen on CuBTC-P1000
DOI: 10.1016/j.micromeso.2013.02.025
Article source: Figure 3
Adsorbate Nitrogen: InChIKey IJGRMHOSHXDMSA-UHFFFAOYSA-N
Kind: experiment
Temperature: 77 K
Tabular data in the source: 0
pressure (bar)	uptake (cm3(STP)/g)
0.006666	236.249
0.039997	248.582
0.083326	257.775
0.129989	260.741
0.186652	266.785
0.236648	269.74
0.28331	272.706
0.326639	275.682
0.36997	281.766
0.416632	281.623
0.456629	284.609
0.493293	284.497
0.529956	287.493
0.569953	290.479
0.613283	290.346
0.646614	290.244
0.693277	290.101
0.739939	293.067
0.796601	296.001
0.836598	298.988
0.903259	308.109
0.949922	311.075
0.979919	329.636
0.996585	351.346
1.00658	385.513
