Adsorption isotherm of Nitrogen on UiO-66-P10000
DOI: 10.1016/j.micromeso.2013.02.025
Article source: Figure 7
Adsorbate Nitrogen: InChIKey IJGRMHOSHXDMSA-UHFFFAOYSA-N
Kind: experiment
Temperature: 77 K
Tabular data in the source: 0
pressure (bar)	uptake (cm3(STP)/g)
0.000905	216.236
0.02739	244.349
0.080203	263.172
0.151805	271.519
0.242242	279.91
0.328893	283.616
0.398602	289.621
0.472083	296.803
0.556841	298.168
0.635987	308.87
0.732049	311.429
0.807418	319.785
0.875235	323.448
0.944964	334.128
0.973273	348.219
0.992191	368.133
1.00165	378.675
