Adsorption isotherm of Nitrogen on CuBTC-P10000
DOI: 10.1016/j.micromeso.2013.02.025
Article source: Figure 3
Adsorbate Nitrogen: InChIKey IJGRMHOSHXDMSA-UHFFFAOYSA-N
Kind: experiment
Temperature: 77 K
Tabular data in the source: 0
pressure (bar)	uptake (cm3(STP)/g)
0.466628	244.164
0.513291	262.674
0.566621	268.728
0.649946	271.581
0.723274	274.465
0.823266	277.267
0.889926	283.28
0.953254	298.63
0.989919	320.279
1.00992	329.544
