Adsorption isotherm of Nitrogen on UiO-66-P1000
DOI: 10.1016/j.micromeso.2013.02.025
Article source: Figure 7
Adsorbate Nitrogen: InChIKey IJGRMHOSHXDMSA-UHFFFAOYSA-N
Kind: experiment
Temperature: 77 K
Tabular data in the source: 0
pressure (bar)	uptake (cm3(STP)/g)
0.22152	278.693
0.253557	283.442
0.330796	288.296
0.400495	291.963
0.481515	300.332
0.560627	302.852
0.669883	307.779
0.752776	313.815
0.822485	319.82
0.892185	323.487
0.924203	323.561
0.95439	336.488
0.979021	371.609
0.997992	404.38
1.01315	425.454
