Adsorption isotherm of Acetylene on ZJU-26
DOI: 10.1016/j.micromeso.2013.07.019
Adsorbate Acetylene: InChIKey HSFWRNGVRCDJHI-UHFFFAOYSA-N
Temperature: 298 K
Tabular data in the source: 0
pressure (bar)	uptake (cm3(STP)/g)
0.00446271	4.05756
0.0178993	8.90263
0.0597022	17.3533
0.123899	25.6914
0.219449	34.9308
0.310519	42.2547
0.404575	48.5646
0.500125	54.6491
0.591195	60.0576
0.688237	65.466
0.780801	70.1984
0.87635	75.0435
0.94204	78.1984
0.995787	80.9026
1.02863	82.7054
