Adsorption isotherm of Nitrogen on ZJU-26
DOI: 10.1016/j.micromeso.2013.07.019
Adsorbate Nitrogen: InChIKey IJGRMHOSHXDMSA-UHFFFAOYSA-N
Temperature: 77 K
Tabular data in the source: 0
pressure (bar)	uptake (cm3(STP)/g)
0.00229475	42.637
0.00372489	86.2564
0.00372489	127.015
0.00372489	249.293
0.00372489	330.096
0.0165962	407.323
0.0766622	435.926
0.183923	449.513
0.286893	454.518
0.35983	456.663
0.45422	460.954
0.570062	463.099
0.641569	466.674
0.814616	467.389
0.919016	469.535
0.986233	470.965
