Adsorption isotherm of Methane on ZJU-26
DOI: 10.1016/j.micromeso.2013.07.019
Adsorbate Methane: InChIKey VNWKTOKETHGBQD-UHFFFAOYSA-N
Temperature: 298 K
Tabular data in the source: 0
pressure (bar)	uptake (cm3(STP)/g)
0.0014768	1.69136
0.0626881	2.59277
0.125392	3.3815
0.222435	4.73361
0.313505	5.63502
0.435928	6.98713
0.53297	7.77587
0.62404	9.0153
0.719589	10.0294
0.846491	11.4942
0.909195	11.9449
0.970406	12.6209
1.03012	13.1843
