Adsorption isotherm of Acetylene on ZJU-26
DOI: 10.1016/j.micromeso.2013.07.019
Adsorbate Acetylene: InChIKey HSFWRNGVRCDJHI-UHFFFAOYSA-N
Temperature: 273 K
Tabular data in the source: 0
pressure (bar)	uptake (cm3(STP)/g)
0.00150912	5.52326
0.00296976	9.26974
0.0134205	17.3542
0.02835	24.2557
0.0880683	38.0585
0.14928	48.7064
0.252294	61.1289
0.344857	71.7768
0.432942	81.0444
0.529984	89.3261
0.622547	97.2134
0.716604	104.706
0.809167	112.199
0.877843	116.537
0.939054	120.678
0.995787	123.636
1.03162	125.805
