Adsorption isotherm of Carbon Dioxide on ZJU-26
DOI: 10.1016/j.micromeso.2013.07.019
Adsorbate Carbon Dioxide: InChIKey CURLTUGMZLYLDI-UHFFFAOYSA-N
Temperature: 298 K
Tabular data in the source: 0
pressure (bar)	uptake (cm3(STP)/g)
0.00595567	1.80404
0.0597022	4.39559
0.123899	7.09981
0.220942	10.8181
0.314998	14.0857
0.407561	17.5787
0.500125	20.959
0.595674	24.2266
0.691223	27.4942
0.779308	30.0857
0.877843	33.0153
0.939054	34.9308
0.99728	36.8463
1.03311	38.0857
