Adsorption isotherm of Carbon Dioxide on ZJU-26
DOI: 10.1016/j.micromeso.2013.07.019
Adsorbate Carbon Dioxide: InChIKey CURLTUGMZLYLDI-UHFFFAOYSA-N
Temperature: 273 K
Tabular data in the source: 0
pressure (bar)	uptake (cm3(STP)/g)
0.00150912	3.15706
0.0552233	11.0444
0.125392	17.7486
0.180632	23.0726
0.249308	28.1993
0.343364	35.2979
0.432942	41.2134
0.528491	46.9317
0.62404	52.4528
0.715111	57.7768
0.813646	62.7064
0.906209	67.8331
0.99728	72.3683
1.03162	73.7486
