Adsorption isotherm of Methane on ZJU-26
DOI: 10.1016/j.micromeso.2013.07.019
Adsorbate Methane: InChIKey VNWKTOKETHGBQD-UHFFFAOYSA-N
Temperature: 273 K
Tabular data in the source: 0
pressure (bar)	uptake (cm3(STP)/g)
0.0014768	2.7627
0.0582092	4.53735
0.150773	6.50918
0.249308	8.48101
0.341871	10.2557
0.432942	11.8331
0.528491	13.805
0.625533	15.5796
0.716604	16.9599
0.843505	18.9317
0.934575	20.5092
0.994294	21.6923
1.02714	22.2838
