Adsorption isotherm of Nitrogen on TpTt poly
DOI: 10.1021/jacs.9b01891
Article source: Figure S20
Adsorbate Nitrogen: InChIKey IJGRMHOSHXDMSA-UHFFFAOYSA-N
Kind: experiment
Temperature: 77 K
Tabular data in the source: 0
pressure (bar)	uptake (cm3(STP)/g)
0	-0.25189
0	1.00756
0.003465	2.267
0.010386	3.52645
0.025959	4.91184
0.057107	7.30479
0.083938	9.3199
0.110758	10.8312
0.136718	12.3426
0.162677	13.728
0.186033	15.1133
0.212864	16.6247
0.23709	18.136
0.26305	19.6474
0.289871	21.1587
0.314969	22.67
0.339196	24.1814
0.365155	25.6927
0.391104	27.4559
0.415341	28.9673
0.446489	30.7305
0.46725	32.2418
0.491487	33.5013
0.517436	35.0126
0.543396	37.0277
0.567623	38.539
0.595315	40.3023
0.617819	42.0655
0.642046	43.8287
0.671461	46.0957
0.695687	47.8589
0.719914	49.8741
0.744151	51.8892
0.768378	54.4081
0.795199	56.801
0.822019	59.6977
0.846246	62.4685
0.872206	65.7431
0.904224	71.0328
0.922392	74.3073
0.950084	80.6045
0.969984	85.8942
0.989884	95.7179
1.002	106.045
0.024227	7.68262
0.038939	9.19395
0.064027	11.2091
0.088264	13.0982
0.114214	14.6096
0.139312	16.4987
0.1644	18.136
0.190359	19.8992
0.216319	21.5365
0.240546	23.1738
0.266505	24.6851
0.292464	26.4484
0.316691	27.9597
0.342651	29.7229
0.367749	31.3602
0.39457	33.1234
0.420529	34.7607
0.446489	36.5239
0.472448	39.4207
0.494942	45.2141
0.520902	47.1033
0.546861	48.6146
0.573682	50.5038
0.596186	52.0151
0.621274	53.7783
0.647234	55.4156
0.672332	57.1788
0.698281	59.068
0.723379	60.9572
0.749339	62.9723
0.774427	64.9874
0.801258	67.5063
0.825485	70.0252
0.852305	73.0479
0.879997	76.8262
0.903363	80.6045
0.931045	86.1461
0.958737	92.9471
0.981231	99.4962
1.00027	106.171
