Adsorption isotherm of Nitrogen on TpTt after catalyst
DOI: 10.1021/jacs.9b01891
Article source: Figure S16
Adsorbate Nitrogen: InChIKey IJGRMHOSHXDMSA-UHFFFAOYSA-N
Kind: experiment
Temperature: 77 K
Tabular data in the source: 0
pressure (bar)	uptake (cm3(STP)/g)
0	0
0	4.2503
0.00534	7.79221
0.017803	10.6257
0.030276	14.876
0.053419	19.1263
0.080138	24.7934
0.106847	29.0437
0.128217	31.8772
0.156709	35.4191
0.183419	39.6694
0.206571	43.2113
0.231497	46.7533
0.256433	51.0035
0.281359	54.5454
0.306285	58.7957
0.334778	63.046
0.359714	66.588
0.38464	70.1299
0.409576	73.6718
0.434502	76.5053
0.459438	81.464
0.484364	85.0059
0.507517	89.2562
0.534226	92.7981
0.560935	96.34
0.585871	100.59
0.610797	104.841
0.635733	109.091
0.660659	113.341
0.687369	119.008
0.712305	122.55
0.737231	128.217
0.760383	132.822
0.787093	138.135
0.812029	145.218
0.835171	150.885
0.860107	159.386
0.886817	166.47
0.909969	177.096
0.931339	187.721
0.961605	211.806
0.982974	240.142
0.993664	282.645
0.024926	17.7096
0.047187	22.6682
0.072123	26.9185
0.097049	30.8146
0.122877	34.7107
0.147803	38.961
0.17362	42.5029
0.198556	46.3991
0.223482	50.6493
0.250192	53.8371
0.274236	58.0874
0.299162	61.6293
0.32499	65.5254
0.350807	69.4215
0.375743	73.3176
0.400669	77.2137
0.426487	81.464
0.452315	85.0059
0.477241	89.2562
0.502177	93.5065
0.527994	97.0484
0.55292	101.299
0.578748	105.549
0.603674	109.799
0.62861	114.05
0.655319	119.008
0.680245	123.259
0.706073	128.217
0.731891	133.176
0.756817	138.843
0.783536	144.51
0.809354	150.885
0.836063	158.323
0.863664	166.824
0.890373	177.804
0.917093	191.263
0.940235	206.139
0.966955	235.183
0.992772	282.645
