Adsorption isotherm of Carbon Dioxide on TpTt
DOI: 10.1021/jacs.9b01891
Article source: Figure S6(b)
Adsorbate Carbon Dioxide: InChIKey CURLTUGMZLYLDI-UHFFFAOYSA-N
Kind: experiment
Temperature: 273 K
Tabular data in the source: 0
pressure (bar)	uptake (cm3(STP)/g)
0	0.10038
1.09711	7.72898
1.93632	10.3388
2.87207	12.3965
3.61405	13.7516
4.48532	15.0565
5.3566	16.3614
6.26028	17.4655
7.13156	18.5696
8.00284	19.5232
8.90652	20.3764
9.7778	21.2798
10.8425	22.2334
11.7138	23.1368
12.585	23.8394
13.4243	24.6926
14.3921	25.4956
15.2633	26.1982
16.1026	26.9009
16.9094	27.6035
17.7482	28.2058
18.8453	29.059
19.5877	29.6612
20.5234	30.2133
21.3623	30.9661
22.2015	31.6186
23.2986	32.3212
24.2668	33.1242
25.1056	33.7265
25.8479	34.1782
26.7837	34.9812
27.7194	35.5332
28.5583	36.0853
29.3975	36.8381
30.2043	37.4404
31.237	37.9423
32.1403	38.7453
33.044	39.2472
33.8828	39.8494
34.6572	40.5521
1.54878	16.8632
2.90413	20.4768
4.35638	23.187
5.61484	24.9937
6.71195	26.5998
8.19661	28.1556
9.48714	29.4103
10.9714	30.8156
12.3268	31.9197
13.9404	33.1242
15.2633	33.9774
16.6511	34.7302
17.9741	35.5834
19.1356	36.1857
20.4589	36.8381
21.8463	37.4404
23.3955	38.143
24.7829	38.6449
26.1058	39.0966
27.5581	39.5985
28.849	39.8494
30.3657	40.2509
31.5917	40.4517
32.9147	40.4517
34.6572	40.5521
