Adsorption isotherm of Hydrogen on TpTt
DOI: 10.1021/jacs.9b01891
Article source: Figure S6(a)
Adsorbate Hydrogen: InChIKey UFHFLCQGNIYNRP-UHFFFAOYSA-N
Kind: experiment
Temperature: 77 K
Tabular data in the source: 0
pressure (bar)	uptake (cm3(STP)/g)
0.603181	3.18876
1.01853	4.63483
1.42405	5.85843
1.81962	6.89663
2.23496	7.74944
2.59097	8.45393
2.99637	9.78876
3.40189	10.6786
3.79746	11.2719
4.17325	12.1989
4.54904	13.0888
4.92483	13.8674
5.34017	14.9798
5.71596	15.9809
6.12136	16.982
6.56643	18.0202
6.962	19.2809
7.37735	20.2449
7.77292	21.2831
8.10915	22.0247
8.54428	22.9888
8.94967	24.2494
9.35519	24.9168
9.7112	25.6584
10.1068	27.364
10.4628	28.3281
10.8584	29.6629
11.3133	30.7382
11.6693	31.7393
12.0451	32.7775
0.454904	4.89438
0.850472	7.26742
1.24604	9.12135
1.68117	11.0494
2.04701	12.5697
2.44257	14.0899
2.78876	15.3876
3.21393	16.9079
3.56012	18.0944
3.95568	19.2809
4.3117	20.4674
4.70726	21.6539
5.12261	22.8775
5.48845	23.9899
5.89397	24.8798
6.34887	25.7326
6.73449	26.882
7.0905	27.7348
7.49602	28.4023
7.85203	29.0697
8.2476	29.6629
8.66295	30.2933
9.05852	31.1461
9.43431	31.5539
9.73098	31.8135
10.1266	32.1843
10.4924	32.4067
10.8781	32.5921
11.3231	32.6292
11.8769	32.7034
12.0648	32.8517
