Adsorption isotherm of Nitrogen on TpTt
DOI: 10.1021/jacs.9b01891
Article source: Figure S5 (a)
Adsorbate Nitrogen: InChIKey IJGRMHOSHXDMSA-UHFFFAOYSA-N
Kind: experiment
Temperature: 77 K
Tabular data in the source: 0
pressure (bar)	uptake (cm3(STP)/g)
0.001773	1.59272
0.003546	7.96359
0.012422	12.7417
0.028391	17.5199
0.052344	24.289
0.077189	29.0671
0.104699	34.2435
0.127761	39.818
0.153497	43.4016
0.179224	48.5779
0.204069	52.5597
0.23246	58.1342
0.257305	62.116
0.28215	66.8942
0.307876	71.2742
0.333613	75.6542
0.361112	79.6359
0.388622	84.4141
0.413467	87.5995
0.439193	93.9704
0.46492	99.5449
0.489765	103.527
0.50929	108.703
0.535908	113.879
0.562526	118.658
0.587361	123.436
0.613979	128.214
0.638824	133.788
0.663669	138.567
0.688514	144.937
0.712467	150.114
0.738203	156.883
0.764821	163.254
0.791439	170.421
0.814501	176.792
0.837573	185.154
0.862418	194.312
0.886371	205.461
0.911216	217.008
0.933396	232.139
0.955576	251.65
0.983086	289.477
0.999946	344.027
0.024845	12.7417
0.047917	18.3163
0.072751	23.8908
0.097596	29.4653
0.122441	34.2435
0.148168	38.6234
0.172131	43.7998
0.197857	48.9761
0.223594	53.3561
0.248429	58.1342
0.275047	63.3106
0.29901	68.0887
0.324736	73.2651
0.349581	77.6451
0.376199	82.4232
0.401044	87.5995
0.426771	92.3777
0.451616	97.554
0.477342	102.73
0.502187	108.305
0.527032	113.083
0.55365	118.658
0.578495	123.834
0.604221	129.408
0.629958	134.983
0.654793	140.956
0.680529	146.928
0.706256	153.299
0.731992	159.67
0.757718	167.235
0.783445	174.005
0.810063	181.968
0.8358	190.728
0.862418	201.081
0.889917	213.424
0.914762	228.157
0.936942	242.89
0.96356	273.151
0.992843	326.507
0.999946	344.027
