Adsorption isotherm of Hydrogen on TpTt
DOI: 10.1021/jacs.9b01891
Article source: Figure S6(a)
Adsorbate Hydrogen: InChIKey UFHFLCQGNIYNRP-UHFFFAOYSA-N
Kind: experiment
Temperature: 77 K
Tabular data in the source: 0
pressure (bar)	uptake (cm3(STP)/g)
0.502175	3.18876
0.84797	4.63483
1.18558	5.85843
1.51491	6.89663
1.86071	7.74944
2.1571	8.45393
2.49461	9.78876
2.83223	10.6786
3.16155	11.2719
3.47442	12.1989
3.78728	13.0888
4.10014	13.8674
4.44593	14.9798
4.7588	15.9809
5.09631	16.982
5.46685	18.0202
5.79618	19.2809
6.14198	20.2449
6.4713	21.2831
6.75123	22.0247
7.11349	22.9888
7.45101	24.2494
7.78862	24.9168
8.08501	25.6584
8.41434	27.364
8.71074	28.3281
9.04007	29.6629
9.41879	30.7382
9.71519	31.7393
10.0281	32.7775
0.378728	4.89438
0.708056	7.26742
1.03738	9.12135
1.39965	11.0494
1.70422	12.5697
2.03355	14.0899
2.32177	15.3876
2.67574	16.9079
2.96396	18.0944
3.29328	19.2809
3.58968	20.4674
3.91901	21.6539
4.2648	22.8775
4.56938	23.9899
4.90699	24.8798
5.28572	25.7326
5.60677	26.882
5.90316	27.7348
6.24077	28.4023
6.53717	29.0697
6.8665	29.6629
7.21229	30.2933
7.54162	31.1461
7.85448	31.5539
8.10148	31.8135
8.43081	32.1843
8.73539	32.4067
9.05653	32.5921
9.42698	32.6292
9.88804	32.7034
10.0445	32.8517
