Adsorption isotherm of Sulfur Hexafluoride on Domestic Active Carbon
DOI: 10.1007/bf02495483
Article source: Figure 2b
Adsorbate Sulfur Hexafluoride: InChIKey SFZCNBIFKDRMGX-UHFFFAOYSA-N
Kind: experiment
Isotherm type: excess
Temperature: 343 K
Tabular data in the source: 0
pressure (bar)	uptake (mmol/g)
0.485044	0.027971
0.704132	0.034315
0.835585	0.038122
1.44709	0.04697
1.88425	0.054988
2.05915	0.058366
2.58274	0.063402
3.08475	0.06929
3.60807	0.073052
5.94089	0.088499
7.90141	0.093797
9.64357	0.096148
11.4727	0.098064
12.2349	0.098827
14.3681	0.097311
14.6517	0.100252
15.8265	0.096297
17.0888	0.094456
18.6992	0.091726
