Adsorption isotherm of Sulfur Hexafluoride on Microporous Active Carbon
DOI: 10.1007/bf02495483
Article source: Figure 2a
Adsorbate Sulfur Hexafluoride: InChIKey SFZCNBIFKDRMGX-UHFFFAOYSA-N
Kind: experiment
Isotherm type: excess
Temperature: 327 K
Tabular data in the source: 0
pressure (bar)	uptake (mmol/g)
0.418495	0.884915
0.636347	0.962397
0.637216	1.02657
0.854815	1.08533
0.88235	1.11741
1.0185	1.1655
1.61677	1.31775
2.37717	1.43519
3.62541	1.55518
5.55083	1.65092
6.87935	1.69602
8.31613	1.7304
9.7799	1.75674
11.2436	1.77774
12.8156	1.79069
14.4689	1.80629
15.6614	1.80865
17.9651	1.82675
20.4042	1.83144
21.434	1.83117
