Adsorption isotherm of Sulfur Hexafluoride on Microporous Active Carbon
DOI: 10.1007/bf02495483
Article source: Figure 2a
Adsorbate Sulfur Hexafluoride: InChIKey SFZCNBIFKDRMGX-UHFFFAOYSA-N
Kind: experiment
Isotherm type: excess
Temperature: 373 K
Tabular data in the source: 0
pressure (bar)	uptake (mmol/g)
0.576531	0.547974
0.712648	0.593392
0.875792	0.633456
1.09325	0.681526
2.80519	1.02331
4.08064	1.15132
6.95543	1.31097
8.28396	1.35607
10.1275	1.40906
12.1064	1.45131
14.1393	1.48285
16.389	1.51166
17.8798	1.53265
19.9126	1.55083
21.6472	1.56106
22.2163	1.5609
