Adsorption isotherm of Methane on Microporous Active Carbon
DOI: 10.1007/bf02495483
Article source: Figure 3a
Adsorbate Methane: InChIKey VNWKTOKETHGBQD-UHFFFAOYSA-N
Kind: experiment
Isotherm type: excess
Temperature: 343 K
Tabular data in the source: 0
pressure (bar)	uptake (mmol/g)
1.7382	0.617716
4.79251	1.06066
7.15313	1.27084
9.1674	1.36912
10.8503	1.48983
13.195	1.55673
15.5426	1.6505
17.8913	1.75322
19.9006	1.80673
20.5733	1.85143
23.2514	1.91382
30.2784	2.05183
44.3211	2.22489
59.019	2.28593
60.6939	2.335
74.0514	2.35141
86.0707	2.34559
102.1	2.37066
104.771	2.36588
125.134	2.32778
146.828	2.25371
162.515	2.19375
184.541	2.10173
194.886	2.05132
215.908	1.93703
243.604	1.78616
