Adsorption isotherm of Methane on Microporous Active Carbon
DOI: 10.1007/bf02495483
Article source: Figure 3b
Adsorbate Methane: InChIKey VNWKTOKETHGBQD-UHFFFAOYSA-N
Kind: experiment
Isotherm type: excess
Temperature: 313 K
Tabular data in the source: 0
pressure (bar)	uptake (mmol/g)
0	0.188744
0	0.641606
3.41297	1.41503
5.11945	1.56594
8.53242	1.02814
10.2389	1.72622
15.3584	2.07518
22.1843	2.27317
32.4232	2.51826
49.4881	2.61227
58.0205	2.64985
76.7918	2.63063
93.8567	2.5737
114.334	2.50728
124.573	2.38444
139.932	2.28038
155.29	2.20462
172.355	2.08165
186.007	1.95875
203.072	1.83579
216.724	1.7695
230.375	1.66546
238.908	1.56153
293.515	1.46616
337.884	1.0691
382.253	0.97392
433.447	0.755973
496.587	0.651008
552.901	0.602775
629.693	0.422081
691.126	0.336016
779.863	0.277738
877.133	0.143828
923.208	0.105222
977.816	0.085324
993.174	-0.028173
1238.91	0.080398
1390.78	0.030363
