Adsorption isotherm of Sulfur Hexafluoride on Domestic Active Carbon
DOI: 10.1007/bf02495483
Article source: Figure 2b
Adsorbate Sulfur Hexafluoride: InChIKey SFZCNBIFKDRMGX-UHFFFAOYSA-N
Kind: experiment
Isotherm type: excess
Temperature: 313 K
Tabular data in the source: 0
pressure (bar)	uptake (mmol/g)
0.291332	0.038184
0.59824	0.047915
0.773603	0.053416
1.0366	0.061454
1.36519	0.070758
1.71536	0.079211
3.20044	0.100699
4.20437	0.11205
5.18532	0.117884
5.64323	0.121229
6.68949	0.127056
9.06419	0.134855
10.3493	0.137682
12.2439	0.140439
14.182	0.142768
18.5374	0.148644
