Adsorption isotherm of Methane on Domestic Active Carbon
DOI: 10.1007/bf02495483
Article source: Figure 4b
Adsorbate Methane: InChIKey VNWKTOKETHGBQD-UHFFFAOYSA-N
Kind: experiment
Isotherm type: excess
Temperature: 313 K
Tabular data in the source: 0
pressure (bar)	uptake (mmol/g)
0.092526	0.161227
0.22251	0.226837
0.386927	0.265133
0.815184	0.347217
0.912793	0.393692
2.33033	0.642713
3.45553	0.741381
6.60256	0.947159
9.4204	1.08454
11.6056	1.25454
13.6622	1.32614
16.3158	1.41976
19.5009	1.51626
23.0189	1.59919
25.9741	1.63551
