Adsorption isotherm of Sulfur Hexafluoride on Domestic Active Carbon
DOI: 10.1007/bf02495483
Article source: Figure 2b
Adsorbate Sulfur Hexafluoride: InChIKey SFZCNBIFKDRMGX-UHFFFAOYSA-N
Kind: experiment
Isotherm type: excess
Temperature: 408 K
Tabular data in the source: 0
pressure (bar)	uptake (mmol/g)
0.153315	0.004229
0.481069	0.009712
0.873672	0.013065
1.26627	0.016417
1.83368	0.022722
2.9233	0.027695
4.03469	0.032664
6.10424	0.038799
8.04298	0.0441
10.1332	0.045137
11.7229	0.04708
13.6822	0.046858
16.1854	0.044876
18.144	0.041258
19.4278	0.03814
