Adsorption isotherm of Methane on Microporous Active Carbon
DOI: 10.1007/bf02495483
Article source: Figure 3b
Adsorbate Methane: InChIKey VNWKTOKETHGBQD-UHFFFAOYSA-N
Kind: experiment
Isotherm type: absolute
Temperature: 313 K
Tabular data in the source: 0
pressure (bar)	uptake (mmol/g)
0	0.377391
0	0.650943
3.41297	1.31126
5.11945	1.57538
15.3584	2.8582
22.1843	2.56562
34.1297	2.84841
35.8362	2.96159
51.1945	3.13111
64.8464	3.3384
76.7918	3.60232
83.6177	3.47955
93.8567	3.602
116.041	3.70536
127.986	3.7806
139.932	3.85585
160.41	3.96867
170.648	3.91187
187.713	4.01533
199.659	4.0434
226.962	4.11836
244.027	4.11804
339.59	4.29548
383.959	4.41728
438.567	4.42569
496.587	4.54723
554.608	4.66878
631.399	4.70507
692.833	4.78881
783.276	4.90975
875.427	4.97405
924.915	5.00142
969.283	5.06662
1235.49	5.40122
1389.08	5.53983
1508.53	5.56588
