Adsorption isotherm of Methane on Microporous Active Carbon
DOI: 10.1007/bf02495483
Article source: Figure 3a
Adsorbate Methane: InChIKey VNWKTOKETHGBQD-UHFFFAOYSA-N
Kind: experiment
Isotherm type: excess
Temperature: 373 K
Tabular data in the source: 0
pressure (bar)	uptake (mmol/g)
0	0.085148
1.72225	0.474434
2.3975	0.541523
5.09051	0.738236
7.10728	0.858906
7.78402	0.939427
9.46292	1.02431
11.4767	1.11812
12.4868	1.19412
16.169	1.27879
16.8453	1.35483
19.5228	1.41274
21.1983	1.46628
23.5419	1.52423
29.2339	1.66688
41.942	1.84904
56.6509	2.00858
70.3492	2.08765
84.3769	2.12638
96.7356	2.16977
111.095	2.19055
129.121	2.14823
144.144	2.13312
163.839	2.09509
176.525	2.08024
194.217	2.04244
199.558	2.02841
206.903	2.02311
217.249	1.98613
