Adsorption isotherm of Methane on Domestic Active Carbon
DOI: 10.1007/bf02495483
Article source: Figure 4a
Adsorbate Methane: InChIKey VNWKTOKETHGBQD-UHFFFAOYSA-N
Kind: experiment
Isotherm type: excess
Temperature: 373 K
Tabular data in the source: 0
pressure (bar)	uptake (mmol/g)
0	0.029173
1.09757	0.087477
1.63321	0.154133
4.01966	0.49575
4.05792	0.429082
5.6983	0.570715
5.94938	0.633209
7.34586	0.699847
7.60172	0.754008
10.7318	0.799776
10.9686	0.887271
11.8653	0.824753
15.201	1.01218
15.4521	1.07468
18.2809	1.14545
18.6133	1.06628
19.9692	1.20375
20.5837	1.1329
23.9649	1.24117
23.9984	1.18283
32.449	1.45766
58.6879	1.73628
80.1492	1.84
92.6864	1.9939
99.5588	2.01876
107.012	2.0311
115.343	2.01426
124.504	2.05157
125.386	2.01405
153.811	1.9843
170.731	2.00061
189.711	1.92938
208.68	1.87482
231.107	1.79519
