Adsorption isotherm of Sulfur Hexafluoride on Microporous Active Carbon
DOI: 10.1007/bf02495483
Article source: Figure 2a
Adsorbate Sulfur Hexafluoride: InChIKey SFZCNBIFKDRMGX-UHFFFAOYSA-N
Kind: experiment
Isotherm type: excess
Temperature: 298 K
Tabular data in the source: 0
pressure (bar)	uptake (mmol/g)
0.123074	1.08285
0.149015	0.997286
0.175608	0.959846
0.176477	1.02402
0.259807	1.17373
0.314949	1.24323
0.451392	1.31271
0.61479	1.37149
0.696924	1.43297
0.96923	1.52915
1.48558	1.63597
2.11005	1.72136
2.78849	1.7907
3.68352	1.84393
4.93085	1.89708
6.36767	1.93413
8.12954	1.96039
9.99975	1.98128
11.4362	1.99427
13.3063	2.00446
15.5558	2.01456
18.1303	2.01654
19.919	2.01874
