Adsorption isotherm of Sulfur Hexafluoride on Microporous Active Carbon
DOI: 10.1007/bf02495483
Article source: Figure 2a
Adsorbate Sulfur Hexafluoride: InChIKey SFZCNBIFKDRMGX-UHFFFAOYSA-N
Kind: experiment
Isotherm type: excess
Temperature: 343 K
Tabular data in the source: 0
pressure (bar)	uptake (mmol/g)
0.360382	0.59616
0.552329	0.761884
0.607508	0.834062
0.689424	0.879495
0.879814	0.930246
1.01615	0.991707
1.85944	1.22678
2.78259	1.35487
4.03061	1.45882
4.9798	1.50936
6.98623	1.58369
8.53159	1.63141
10.3207	1.66569
12.5705	1.7052
15.7146	1.73644
18.1808	1.7438
19.9153	1.74601
21.948	1.75884
