Adsorption isotherm of Methane on Domestic Active Carbon
DOI: 10.1007/bf02495483
Article source: Figure 4b
Adsorbate Methane: InChIKey VNWKTOKETHGBQD-UHFFFAOYSA-N
Kind: experiment
Isotherm type: excess
Temperature: 343 K
Tabular data in the source: 0
pressure (bar)	uptake (mmol/g)
0.425474	0.144925
0.656214	0.185972
0.920176	0.227027
2.00985	0.377598
2.27212	0.456905
3.46618	0.500947
4.56046	0.547694
5.18829	0.624368
6.74453	0.74228
9.16345	0.885017
13.1386	1.14567
15.1294	1.20359
17.6177	1.28077
20.4359	1.40996
21.1683	1.37464
23.724	1.42998
25.5502	1.45507
25.5814	1.49879
26.0143	1.47705
