Adsorption isotherm of Methane on Microporous Active Carbon
DOI: 10.1007/bf02495483
Article source: Figure 3a
Adsorbate Methane: InChIKey VNWKTOKETHGBQD-UHFFFAOYSA-N
Kind: experiment
Isotherm type: excess
Temperature: 313 K
Tabular data in the source: 0
pressure (bar)	uptake (mmol/g)
0	0.273243
0.402158	0.613388
1.45116	1.03864
4.15812	1.36073
6.51924	1.57539
9.21026	1.75419
10.5558	1.84359
12.57	1.94188
14.2479	2.01781
16.5986	2.13844
18.272	2.17407
19.9489	2.24105
21.6233	2.28564
24.2989	2.32564
34.6723	2.53045
50.042	2.62723
67.0741	2.66115
83.7659	2.63689
101.788	2.56771
116.806	2.50334
133.152	2.37166
146.499	2.28957
158.508	2.19867
192.874	1.97095
209.887	1.83471
223.568	1.75706
234.908	1.65281
246.587	1.57986
