Adsorption isotherm of Sulfur Hexafluoride on Domestic Active Carbon
DOI: 10.1007/bf02495483
Article source: Figure 2b
Adsorbate Sulfur Hexafluoride: InChIKey SFZCNBIFKDRMGX-UHFFFAOYSA-N
Kind: experiment
Isotherm type: excess
Temperature: 298 K
Tabular data in the source: 0
pressure (bar)	uptake (mmol/g)
0.359046	0.049216
0.469653	0.057272
0.732466	0.064461
0.864843	0.072513
1.04076	0.080562
1.93805	0.102116
3.00839	0.118555
7.30479	0.153313
9.17914	0.162867
11.576	0.172362
13.7549	0.181033
18.7663	0.199998
