Adsorption isotherm of Methane on Domestic Active Carbon
DOI: 10.1007/bf02495483
Article source: Figure 4b
Adsorbate Methane: InChIKey VNWKTOKETHGBQD-UHFFFAOYSA-N
Kind: experiment
Isotherm type: excess
Temperature: 408 K
Tabular data in the source: 0
pressure (bar)	uptake (mmol/g)
0.065597	0.019144
0.99134	0.120489
3.27484	0.320567
6.38998	0.496281
8.54397	0.619821
11.1288	0.768068
11.2634	0.729853
13.3844	0.847919
16.0717	0.930621
18.0955	0.994015
22.5092	1.10451
24.4338	1.15695
25.4952	1.19549
