Adsorption isotherm of Sulfur Hexafluoride on Microporous Active Carbon
DOI: 10.1007/bf02495483
Article source: Figure 2a
Adsorbate Sulfur Hexafluoride: InChIKey SFZCNBIFKDRMGX-UHFFFAOYSA-N
Kind: experiment
Isotherm type: excess
Temperature: 408 K
Tabular data in the source: 0
pressure (bar)	uptake (mmol/g)
0.218468	0.122936
0.326144	0.069431
0.43632	0.200418
0.626746	0.253843
0.708699	0.30195
0.790615	0.347382
0.926695	0.390127
1.11698	0.432856
1.44392	0.561111
1.74282	0.619855
2.09581	0.670563
2.72027	0.755957
3.53425	0.827932
4.1314	0.897291
6.08435	1.02511
6.7891	1.03562
7.92843	1.1182
8.47047	1.12073
9.88059	1.1872
11.3984	1.20551
11.7239	1.22681
13.6483	1.24769
13.6489	1.29047
15.6005	1.31668
15.8439	1.28186
17.6875	1.33752
20.127	1.37162
21.8073	1.38187
22.3766	1.39241
