Adsorption isotherm of Methane on Microporous Active Carbon
DOI: 10.1007/bf02495483
Article source: Figure 3a
Adsorbate Methane: InChIKey VNWKTOKETHGBQD-UHFFFAOYSA-N
Kind: experiment
Isotherm type: excess
Temperature: 408 K
Tabular data in the source: 0
pressure (bar)	uptake (mmol/g)
0	0.026903
0	0.161267
2.02723	0.214698
4.72722	0.474098
6.07174	0.554544
6.74499	0.603723
9.09016	0.675102
11.1054	0.782339
14.1214	0.880509
16.4675	0.960843
18.1429	1.01439
18.4728	0.978529
18.4818	1.05913
21.1584	1.10808
22.8333	1.15715
27.1848	1.25517
39.2281	1.46427
53.935	1.6059
74.6523	1.75134
93.0205	1.78959
104.379	1.84652
114.398	1.86331
129.758	1.87503
143.115	1.89144
158.807	1.88521
175.167	1.87442
190.528	1.89509
193.196	1.86345
207.886	1.85733
235.262	1.8274
247.945	1.78568
