Adsorption isotherm of Sulfur Hexafluoride on Domestic Active Carbon
DOI: 10.1007/bf02495483
Article source: Figure 2b
Adsorbate Sulfur Hexafluoride: InChIKey SFZCNBIFKDRMGX-UHFFFAOYSA-N
Kind: experiment
Isotherm type: excess
Temperature: 373 K
Tabular data in the source: 0
pressure (bar)	uptake (mmol/g)
0.614001	0.020313
0.984833	0.023668
2.18432	0.033298
3.16536	0.039557
4.05914	0.044976
4.93078	0.048699
8.2868	0.06403
10.1378	0.066368
12.2935	0.068247
14.3836	0.06886
16.5821	0.066912
18.2141	0.06333
