Adsorption isotherm of Sulfur Hexafluoride on Microporous Active Carbon
DOI: 10.1007/bf02495483
Article source: Figure 2a
Adsorbate Sulfur Hexafluoride: InChIKey SFZCNBIFKDRMGX-UHFFFAOYSA-N
Kind: experiment
Isotherm type: excess
Temperature: 313 K
Tabular data in the source: 0
pressure (bar)	uptake (mmol/g)
0.256981	0.965172
0.448675	1.11218
0.612507	1.20304
0.830178	1.26716
0.939122	1.30724
1.02097	1.34732
1.53721	1.44611
3.76283	1.69685
5.01031	1.76069
6.06765	1.7925
6.98945	1.82166
8.42609	1.84534
9.80852	1.86904
11.0011	1.88476
12.3563	1.89242
14.118	1.90799
15.6085	1.90759
16.6655	1.91266
18.3729	1.91755
19.9176	1.91981
22.8988	1.92971
23.5763	1.92953
