Adsorption isotherm of Sulfur Hexafluoride on Domestic Active Carbon
DOI: 10.1007/bf02495483
Article source: Figure 2b
Adsorbate Sulfur Hexafluoride: InChIKey SFZCNBIFKDRMGX-UHFFFAOYSA-N
Kind: experiment
Isotherm type: excess
Temperature: 327 K
Tabular data in the source: 0
pressure (bar)	uptake (mmol/g)
0.793524	0.044921
1.03401	0.049564
1.27441	0.053783
1.62439	0.061387
2.25795	0.071507
2.84759	0.079932
3.43686	0.08666
4.11312	0.092952
4.74511	0.095853
5.98767	0.103356
6.40158	0.104583
7.70871	0.108681
9.4078	0.11316
12.9353	0.116157
15.0906	0.116338
19.1617	0.115877
