Adsorption isotherm of Water on Silicalite MFI
DOI: 10.1021/Jp054168o
Adsorbate Water: InChIKey XLYOFNOQVPJJNP-UHFFFAOYSA-N
Temperature: 300 K
Tabular data in the source: 0
pressure (bar)	uptake (molecules/unitcell)
315.44	0.916255
418.961	2.18386
468.257	6.47964
512.623	29.367
630.933	33.5219
670.369	34.6487
837.975	37.9585
980.933	40.1416
1887.97	45.0008
2844.31	47.7472
3430.93	49.4374
