Adsorption isotherm of Water on Silicalite MFI
DOI: 10.1021/Jp054168o
Adsorbate Water: InChIKey XLYOFNOQVPJJNP-UHFFFAOYSA-N
Temperature: 300 K
Tabular data in the source: 0
pressure (bar)	uptake (molecules/unitcell)
0.0237469	0.2593
0.075232	0.473821
0.0981143	0.616836
0.135298	0.616836
0.15103	0.902864
0.192504	3.19109
0.228257	8.62564
0.249709	11.6289
0.269731	17.0635
0.285463	30.7213
0.321217	34.4397
0.382713	35.6553
0.472812	38.0151
0.568631	40.4463
0.8518	44.5937
0.944759	45.5233
