Adsorption isotherm of Water on Silicalite MFI
DOI: 10.1021/Jp054168o
Adsorbate Water: InChIKey XLYOFNOQVPJJNP-UHFFFAOYSA-N
Temperature: 300 K
Tabular data in the source: 0
pressure (bar)	uptake (molecules/unitcell)
0.00127016	1.33191
0.00311505	1.76095
0.00427346	2.69054
0.00495993	3.19109
0.00744838	3.2626
0.0124682	3.62014
0.0156002	3.76315
0.0189467	3.97767
0.0219929	4.2637
0.0284715	4.33521
0.0300589	4.76425
0.0304451	5.2648
0.031818	6.76645
