Adsorption isotherm of Water on Silicalite MFI
DOI: 10.1021/Jp054168o
Adsorbate Water: InChIKey XLYOFNOQVPJJNP-UHFFFAOYSA-N
Temperature: 300 K
Tabular data in the source: 0
pressure (bar)	uptake (molecules/unitcell)
0.00157049	0.0447784
0.00556059	0.0447784
0.0109236	0.0447784
0.0135408	0.0447784
0.0160292	0.0447784
0.0213923	0.0447784
0.0267553	0.0447784
