Adsorption isotherm of Water on Silicalite MFI
DOI: 10.1021/Jp054168o
Adsorbate Water: InChIKey XLYOFNOQVPJJNP-UHFFFAOYSA-N
Temperature: 300 K
Tabular data in the source: 0
pressure (bar)	uptake (molecules/unitcell)
0.00217115	2.11849
0.00388732	2.83356
0.00573221	3.40561
0.00804904	4.12069
0.00920746	4.40671
0.0113527	5.12179
0.0130259	5.33631
0.0177025	6.98097
0.0248246	9.69824
