Adsorption isotherm of Water on Silicalite MFI
DOI: 10.1021/Jp054168o
Adsorbate Water: InChIKey XLYOFNOQVPJJNP-UHFFFAOYSA-N
Temperature: 300 K
Tabular data in the source: 0
pressure (bar)	uptake (molecules/unitcell)
0.00371571	0.0447784
0.00744838	0.2593
0.0109236	0.330807
0.0146134	0.473821
0.0182603	0.75985
0.0218642	0.75985
0.025082	1.18889
0.0284286	1.68944
0.0307454	3.04808
0.0317322	5.90836
0.03229	10.5563
0.0324616	16.6344
