Adsorption isotherm of Water on Silicalite MFI
DOI: 10.1021/Jp054168o
Adsorbate Water: InChIKey XLYOFNOQVPJJNP-UHFFFAOYSA-N
Temperature: 300 K
Tabular data in the source: 0
pressure (bar)	uptake (molecules/unitcell)
0.000498	0.402314
0.00212825	0.831357
0.00350119	1.11739
0.00521736	1.54643
0.00710515	1.83246
0.00937907	2.90506
0.0109236	4.12069
0.0117817	5.97987
0.0125969	6.48042
0.0135837	6.55193
0.0176167	6.98097
0.0186893	7.267
0.0197619	7.267
