Adsorption isotherm of Water on Silicalite MFI
DOI: 10.1021/Jp054168o
Adsorbate Water: InChIKey XLYOFNOQVPJJNP-UHFFFAOYSA-N
Temperature: 300 K
Tabular data in the source: 0
pressure (bar)	uptake (molecules/unitcell)
0.0380483	0.902864
0.0466292	2.69054
0.0566402	4.54973
0.0666512	19.5662
0.0780923	34.2967
0.110986	41.6619
0.183923	44.8083
0.329798	46.1669
