Adsorption isotherm of Water on Silicalite MFI
DOI: 10.1021/Jp054168o
Adsorbate Water: InChIKey XLYOFNOQVPJJNP-UHFFFAOYSA-N
Temperature: 300 K
Tabular data in the source: 0
pressure (bar)	uptake (molecules/unitcell)
1010.51	0.916255
1020.37	1.83175
1069.66	3.09935
1079.52	32.2543
1109.1	34.2965
1321.07	38.2402
1981.64	42.1134
2666.85	44.8599
3435.86	47.1839
