Adsorption isotherm of Water on Silicalite MFI
DOI: 10.1021/Jp054168o
Adsorbate Water: InChIKey XLYOFNOQVPJJNP-UHFFFAOYSA-N
Temperature: 300 K
Tabular data in the source: 0
pressure (bar)	uptake (molecules/unitcell)
0.262581	1.40341
0.312636	2.69054
0.361261	5.40781
0.417036	15.5618
0.520007	29.2912
0.648719	37.8721
0.774572	40.4463
0.877542	41.7334
