Adsorption isotherm of Water on Silicalite MFI
DOI: 10.1021/Jp054168o
Adsorbate Water: InChIKey XLYOFNOQVPJJNP-UHFFFAOYSA-N
Temperature: 300 K
Tabular data in the source: 0
pressure (bar)	uptake (molecules/unitcell)
0.0380483	0.75985
0.0723718	1.2604
0.109555	2.40451
0.141019	3.47712
0.176772	5.40781
0.213956	10.3418
0.284033	22.7125
0.35268	30.9359
0.484253	34.8688
0.628697	37.5145
0.773142	38.6586
