Adsorption isotherm of Water on Silicalite MFI
DOI: 10.1021/Jp054168o
Adsorbate Water: InChIKey XLYOFNOQVPJJNP-UHFFFAOYSA-N
Temperature: 300 K
Tabular data in the source: 0
pressure (bar)	uptake (molecules/unitcell)
0.00109855	-0.0982359
0.00410185	0.187793
0.00508865	0.330807
0.00809195	0.688343
0.0103659	3.11959
0.0120391	8.19659
0.0131547	11.2714
0.0140556	16.849
0.0150424	31.0789
0.0169302	34.2252
0.0198906	35.3693
0.0249962	37.9436
0.0300589	40.3748
