Adsorption isotherm of Water on Silicalite MFI
DOI: 10.1021/Jp054168o
Adsorbate Water: InChIKey XLYOFNOQVPJJNP-UHFFFAOYSA-N
Temperature: 300 K
Tabular data in the source: 0
pressure (bar)	uptake (molecules/unitcell)
399.242	0.845833
512.623	1.83175
586.566	2.11344
630.933	35.4937
749.242	37.043
867.552	38.6627
1355.58	41.4796
3499.95	51.8317
