Adsorption isotherm of Nitrogen on MOF [Cu(tzbc)2]
DOI: 10.1039/c5dt03570h
Article source: Figure 4
Adsorbate Nitrogen: InChIKey IJGRMHOSHXDMSA-UHFFFAOYSA-N
Kind: experiment
Temperature: 298 K
Tabular data in the source: 0
pressure (bar)	uptake (cm3(STP)/g)
0	0
0.038705	-0.278874
0.065828	-0.014632
0.096823	0.248748
0.131674	0.241002
0.162651	0.234116
0.201409	0.766042
0.244004	0.756574
0.263382	1.02254
0.333064	0.736777
0.387294	0.994993
0.468611	0.976918
0.530583	1.23341
0.604174	1.48733
0.65453	1.7464
0.670001	1.47269
0.735847	1.72833
0.766826	1.72144
0.801693	1.98396
0.844288	1.97449
0.867539	2.2396
0.933349	1.9547
1.00305	1.9392
1.03406	2.47285
1.0689	2.19484
