Adsorption isotherm of Carbon Dioxide on MOF [Cu(tzbc)2]
DOI: 10.1039/c5dt03570h
Article source: Figure 4
Adsorbate Carbon Dioxide: InChIKey CURLTUGMZLYLDI-UHFFFAOYSA-N
Kind: experiment
Temperature: 298 K
Tabular data in the source: 0
pressure (bar)	uptake (cm3(STP)/g)
0	0
0.023234	4.01786
0.054212	7.76786
0.081318	9.91071
0.10068	12.5893
0.104552	11.5179
0.131658	13.3929
0.162637	15
0.170381	16.3393
0.197486	16.6071
0.228466	17.9464
0.232337	20.0893
0.263316	19.0179
0.302039	21.4286
0.333017	20.625
0.367868	23.0357
0.398847	21.9643
0.429825	23.8393
0.468547	23.0357
0.495654	24.6429
0.530504	23.5714
0.565355	25.4464
0.600206	24.1071
0.631184	25.7143
0.669906	24.375
0.700885	25.4464
0.735736	24.375
0.762841	25.7143
0.801565	24.6429
0.832543	25.4464
0.867394	24.375
0.902244	24.9107
0.937095	24.375
1.01842	24.375
1.06876	23.8393
1.08812	24.1071
1.13846	23.3036
