Adsorption isotherm of Carbon Dioxide on MOF [Cu(tzbc)2]
DOI: 10.1039/c5dt03570h
Article source: Figure 4
Adsorbate Carbon Dioxide: InChIKey CURLTUGMZLYLDI-UHFFFAOYSA-N
Kind: experiment
Temperature: 273 K
Tabular data in the source: 0
pressure (bar)	uptake (cm3(STP)/g)
0	-0.271493
0.003848	3.52769
0.015391	6.23747
0.026935	11.9337
0.053869	20.6094
0.080803	25.4843
0.103891	29.2749
0.134672	34.4195
0.165455	36.3062
0.17315	37.9317
0.200084	38.7342
0.230867	40.8924
0.234715	42.2481
0.269345	42.5042
0.300128	44.9338
0.330909	45.1916
0.365539	47.3481
0.40017	46.7896
0.4348	48.9461
0.46943	48.6591
0.500212	50.2744
0.534842	49.9874
0.569472	51.0579
0.600254	51.0442
0.631037	52.1164
0.669514	51.8277
0.700297	52.8999
0.731079	52.6147
0.769557	53.6835
0.800339	53.1268
0.831121	53.9275
0.8696	53.3673
0.904229	54.7093
0.935012	53.8811
0.946555	54.6904
1.01581	54.6595
1.08123	54.9018
1.13125	54.8794
