Adsorption isotherm of Nitrogen on Zn-loaded granulated activated carbon
DOI: 10.1515/ijcre-2015-0216
Article source: Figure 2
Adsorbate Nitrogen: InChIKey IJGRMHOSHXDMSA-UHFFFAOYSA-N
Kind: experiment
Temperature: 298 K
Tabular data in the source: 0
pressure (bar)	uptake (cm3(STP)/g)
0.051199	158.192
0.069183	160.639
0.089884	162.558
0.101404	166.732
0.10872	163.84
0.114637	167.578
0.128569	164.854
0.130423	168.156
0.147415	165.667
0.147567	168.709
0.161478	169.195
0.166079	166.346
0.176424	169.564
0.185087	166.882
0.193051	169.924
0.205969	167.435
0.206972	170.125
0.212069	170.1
0.224967	170.418
0.22515	167.887
0.240916	170.619
0.244492	168.214
0.258232	170.812
0.263338	168.541
0.269945	170.996
0.284029	171.164
0.284039	168.834
0.301699	169.119
0.330546	171.549
0.331914	169.504
0.360771	169.755
0.361439	171.683
0.371278	171.817
0.389617	169.956
0.418302	172.026
0.418474	170.14
0.445963	172.227
0.447503	170.333
0.456663	172.453
0.476026	170.467
0.485682	172.805
0.504882	170.592
0.515562	172.788
0.533739	170.617
0.54374	172.721
0.563275	170.634
0.57362	172.578
0.603328	172.46
0.610968	170.65
0.631161	172.368
0.64102	170.692
0.649166	170.775
0.658833	172.208
0.679036	170.758
0.688034	172.032
0.719606	171.873
0.726739	170.624
0.750844	171.629
0.756954	170.565
0.781393	171.47
0.789722	170.565
0.813482	171.21
0.821973	170.472
0.844547	171.042
0.850485	170.388
0.875775	170.765
0.882402	170.346
0.912951	170.396
