Adsorption isotherm of Dibenzothiophene, Isooctane, Quinoline on Zn-loaded granulated activated carbon
DOI: 10.1515/ijcre-2015-0216
Article source: Table 1
Adsorbate Dibenzothiophene: InChIKey IYYZUPMFVPLQIF-UHFFFAOYSA-N
Adsorbate Isooctane: InChIKey NHTMVDHEPJAVLT-UHFFFAOYSA-N
Adsorbate Quinoline: InChIKey SMWDFEZZVXVKRB-UHFFFAOYSA-N
Kind: experiment
Temperature: 298 K
Tabular data in the source: 1
pressure (bar)	Dibenzothiophene fraction	Dibenzothiophene uptake (mmol/g)	Isooctane fraction	Isooctane uptake (mmol/g)	Quinoline fraction	Quinoline uptake (mmol/g)	total uptake (mmol/g)
1.01325	0.52	0.09			3.06	0.14	
1.01325	2.67	0.17			3.59	0.12	
1.01325	7.49	0.27			4.3	0.1	
1.01325	13.02	0.35			5.65	0.06	
1.01325	21.13	0.35			6.29	0.03	
1.01325	0.76	0.08			8.85	0.29	
1.01325	3.39	0.15			11.09	0.22	
1.01325	8.65	0.24			11.92	0.19	
1.01325	14.25	0.31			14.57	0.1	
1.01325	21.35	0.34			13.09	0.15	
1.01325	1.55	0.06			28.37	0.23	
1.01325	3.84	0.13			29.25	0.2	
1.01325	10.2	0.18			31.93	0.11	
1.01325	16.38	0.24			33.18	0.07	
1.01325	22.92	0.29			34.4	0.03	
1.01325	2.01	0.04			44.88	0.27	
1.01325	5.84	0.07			47.22	0.19	
1.01325	9.98	0.19			45.61	0.24	
1.01325	17.53	0.2			46.63	0.21	
1.01325	21.38	0.34			47.09	0.19	
1.01325	1.77	0.05			52.28	0.61	
1.01325	5.05	0.09			52.74	0.59	
1.01325	9.79	0.2			51.53	0.63	
1.01325	17.27	0.21			54.43	0.53	
1.01325	25.04	0.22			58.42	0.4	
