Adsorption isotherm of Nitrogen on granulated activated carbon
DOI: 10.1515/ijcre-2015-0216
Article source: Figure 2
Adsorbate Nitrogen: InChIKey IJGRMHOSHXDMSA-UHFFFAOYSA-N
Kind: experiment
Temperature: 298 K
Tabular data in the source: 0
pressure (bar)	uptake (cm3(STP)/g)
0.050388	151.277
0.071595	153.573
0.090593	154.906
0.100087	158.141
0.11181	156.029
0.115528	158.811
0.129957	159.297
0.13099	156.867
0.145915	159.75
0.149654	157.478
0.163738	160.219
0.167649	158.073
0.17765	160.579
0.188015	158.568
0.194459	160.839
0.207023	159.054
0.209566	161.057
0.225008	161.35
0.225352	159.414
0.2374	161.584
0.244705	159.782
0.252507	161.853
0.264392	160.109
0.270664	161.961
0.284424	160.436
0.286623	162.221
0.302409	162.405
0.303776	160.687
0.331944	162.715
0.332117	161.005
0.359271	163.008
0.360811	161.315
0.389141	163.142
0.390175	161.608
0.417664	163.402
0.418515	161.834
0.44652	163.737
0.447888	162.086
0.4764	162.287
0.47792	164.156
0.488103	164.407
0.506108	162.412
0.535137	162.487
0.535289	164.398
0.564491	164.431
0.581645	162.78
0.591311	164.423
0.594199	162.889
0.603358	164.406
0.622549	162.939
0.631374	164.439
0.659886	164.447
0.667536	163.064
0.679077	163.148
0.691124	164.414
0.708947	163.24
0.722696	164.371
0.741543	163.324
0.750874	164.363
0.755464	163.416
0.770744	163.525
0.784149	164.396
0.787037	163.6
0.802478	164.371
0.803674	163.642
0.817423	163.759
0.820129	164.396
0.833372	163.876
0.844071	164.278
0.875471	164.186
0.929618	164.018
