Adsorption isotherm of Nitrogen on Layered Double Hydroxides/Hollow Carbon Microsphere Composites (LDHs/HCMCs)
DOI: 10.1021/acssuschemeng.7b01717
Article source: Figure 2
Adsorbate Nitrogen: InChIKey IJGRMHOSHXDMSA-UHFFFAOYSA-N
Kind: experiment
Temperature: 77 K
Tabular data in the source: 0
pressure (bar)	uptake (cm3(STP)/g)
0.010305	40.92
0.030721	47.28
0.054674	50.96
0.077178	53.65
0.103431	55.71
0.139674	59.56
0.142592	59.02
0.183425	63.41
0.198431	65.65
0.201552	64.67
0.250298	70.13
0.253014	69.77
0.303422	74.43
0.308843	74.79
0.351338	79.09
0.357174	79.45
0.403843	84.11
0.408007	83.04
0.455923	89.84
0.457169	86.08
0.505926	96.3
0.507172	90.74
0.558006	93.25
0.558006	99.7
0.60884	102.57
0.609255	97.19
0.660504	106.69
0.66092	100.06
0.711328	104.36
0.712169	110.81
0.758656	115.9
0.76049	109.01
0.809571	114.88
0.812722	123.68
0.818761	125.38
0.830838	118.27
0.846584	130.91
0.863383	123.8
0.876778	139.72
0.887529	129.33
0.905392	152.02
0.909587	138.47
0.934006	170.65
0.936103	148.97
0.962092	166.13
0.965527	210.38
0.982347	247.52
0.985731	196.5
0.988396	268.41
0.995195	222.69
0.995225	290.42
1.00311	308.71
1.00363	290.2
1.00598	267.51
1.006	309.05
