Adsorption isotherm of Humic Acid, Water on Layered Double Hydroxides/Hollow Carbon Microsphere Composites (LDHs/HCMCs)
DOI: 10.1021/acssuschemeng.7b01717
Article source: Figure 6
Adsorbate Humic Acid: InChIKey QJZYHAIUNVAGQP-UHFFFAOYSA-N
Adsorbate Water: InChIKey XLYOFNOQVPJJNP-UHFFFAOYSA-N
Kind: experiment
Temperature: 298 K
Tabular data in the source: 0
pressure (bar)	Humic Acid fraction	Humic Acid uptake (mg/g)	Water fraction	Water uptake (mg/g)	total uptake (mg/g)
1.01325	0.93	190.15			
1.01325	5.293	247.99			
1.01325	11.739	287.12			
1.01325	15.617	294.63			
1.01325	20.227	298.85			
1.01325	25.155	300.41			
1.01325	30.316	301.31			
1.01325	40.086	300.66			
1.01325	50.146	302.22			
1.01325	59.829	304.01			
