Adsorption isotherm of Humic Acid, Lead(II) Ion, Water on Layered Double Hydroxides/Hollow Carbon Microsphere Composites (LDHs/HCMCs)
DOI: 10.1021/acssuschemeng.7b01717
Article source: Figure 6
Adsorbate Humic Acid: InChIKey QJZYHAIUNVAGQP-UHFFFAOYSA-N
Adsorbate Lead(II) Ion: InChIKey RVPVRDXYQKGNMQ-UHFFFAOYSA-N
Adsorbate Water: InChIKey XLYOFNOQVPJJNP-UHFFFAOYSA-N
Kind: experiment
Temperature: 298 K
Tabular data in the source: 0
pressure (bar)	Humic Acid fraction	Humic Acid uptake (mg/g)	Lead(II) Ion fraction	Lead(II) Ion uptake (mg/g)	Water fraction	Water uptake (mg/g)	total uptake (mg/g)
1.01325	0.46	94.98	0.368	95.225			
1.01325	0.986	188.047	1.959	181.173			
1.01325	3.737	211.931	4.16	207.696			
1.01325	5.995	239.191	7.002	229.553			
1.01325	8.929	257.856	10.255	247.237			
1.01325	12.102	278.302	14.515	259.028			
1.01325	20.532	291.393	22.851	272.051			
1.01325	30.927	289.65	32.331	278.937			
1.01325	39.76	300.183	41.445	286.313			
1.01325	49.284	305.066	51.062	289.515			
