Adsorption isotherm of Humic Acid, Lead(II) Ion, Water on Layered Double Hydroxides/Hollow Carbon Microsphere Composites (LDHs/HCMCs)
DOI: 10.1021/acssuschemeng.7b01717
Article source: Figure 6
Adsorbate Humic Acid: InChIKey QJZYHAIUNVAGQP-UHFFFAOYSA-N
Adsorbate Lead(II) Ion: InChIKey RVPVRDXYQKGNMQ-UHFFFAOYSA-N
Adsorbate Water: InChIKey XLYOFNOQVPJJNP-UHFFFAOYSA-N
Kind: experiment
Temperature: 298 K
Tabular data in the source: 0
pressure (bar)	Humic Acid fraction	Humic Acid uptake (mg/g)	Lead(II) Ion fraction	Lead(II) Ion uptake (mg/g)	Water fraction	Water uptake (mg/g)	total uptake (mg/g)
1.01325	1.017	191.7	1.121	191.01			
1.01325	1.558	238.5	1.318	239.13			
1.01325	2.877	322.6	2.724	321.63			
1.01325	4.802	357.81	4.019	366.43			
1.01325	8.964	413.84	8.78	423.21			
1.01325	15.453	441.86	15.481	446.52			
1.01325	24.641	453.42	24.554	456.52			
1.01325	34.639	452.56	34.917	459.74			
1.01325	44.529	461.87	44.347	464.52			
