Adsorption isotherm of Lead(II) Ion, Water on Layered Double Hydroxides/Hollow Carbon Microsphere Composites (LDHs/HCMCs)
DOI: 10.1021/acssuschemeng.7b01717
Article source: Figure 6
Adsorbate Lead(II) Ion: InChIKey RVPVRDXYQKGNMQ-UHFFFAOYSA-N
Adsorbate Water: InChIKey XLYOFNOQVPJJNP-UHFFFAOYSA-N
Kind: experiment
Temperature: 298 K
Tabular data in the source: 0
pressure (bar)	Lead(II) Ion fraction	Lead(II) Ion uptake (mg/g)	Water fraction	Water uptake (mg/g)	total uptake (mg/g)
1.01325	0.464	96.303			
1.01325	3.127	167.774			
1.01325	6.533	185.103			
1.01325	10.861	192.842			
1.01325	15.275	196.405			
1.01325	19.921	203.525			
1.01325	29.758	202.762			
1.01325	39.278	206.794			
1.01325	48.77	212.527			
1.01325	58.677	213.89			
