Adsorption isotherm of Methane on [Zn(L)].4DMF-a
DOI: 10.1039/c4dt02481h
Article source: Figure 4c
Adsorbate Methane: InChIKey VNWKTOKETHGBQD-UHFFFAOYSA-N
Kind: experiment
Temperature: 298 K
Tabular data in the source: 0
pressure (bar)	uptake (cm3(STP)/g)
0	0
1.8e-05	0.346008
0.06291	1.68656
0.131038	3.0235
0.162484	3.69377
0.193912	4.01804
0.227957	4.3405
0.262021	5.00897
0.298702	5.67562
0.330166	6.69191
0.361576	6.67017
0.398257	7.33682
0.429703	8.0071
0.466384	8.67376
0.500448	9.34222
0.531858	9.32048
0.558069	9.99438
0.602602	10.6556
0.631413	10.9817
0.647136	11.3168
0.665477	11.6502
0.694287	11.9762
0.733586	12.6411
0.759779	12.969
0.77812	13.3023
0.799077	13.6338
0.827888	13.9599
0.861969	14.9744
0.893397	15.2986
0.916955	15.2823
0.937895	15.2678
0.964087	15.5957
1.01126	16.6011
