Adsorption isotherm of Carbon Dioxide on [Zn(L)].4DMF-a
DOI: 10.1039/c4dt02481h
Article source: Figure 4c
Adsorbate Carbon Dioxide: InChIKey CURLTUGMZLYLDI-UHFFFAOYSA-N
Kind: experiment
Temperature: 273 K
Tabular data in the source: 0
pressure (bar)	uptake (cm3(STP)/g)
0	0
0.01324	4.49369
0.031684	7.25547
0.060616	9.66761
0.068553	12.087
0.129078	18.2944
0.131748	20.0236
0.165902	21.3959
0.20011	24.8442
0.234301	27.6006
0.265939	33.126
0.271143	31.3941
0.29745	33.8071
0.33165	36.9095
0.36585	40.0118
0.397479	45.1912
0.402683	43.4593
0.434248	46.2165
0.465823	49.3198
0.497371	51.385
0.531598	55.5254
0.539534	57.9448
0.563163	58.2826
0.605236	61.3823
0.639445	64.8306
0.657889	67.5924
0.668368	66.8967
0.6973	69.3089
0.736757	72.7554
0.768341	76.2047
0.794649	78.6177
0.80778	78.9592
0.836731	82.0634
0.876179	85.1639
0.902478	87.231
0.923537	89.6458
0.939301	90.3324
0.968243	93.0905
1.01821	96.8795
