Adsorption isotherm of Methane on [Zn(L)].4DMF-a
DOI: 10.1039/c4dt02481h
Article source: Figure 4b
Adsorbate Methane: InChIKey VNWKTOKETHGBQD-UHFFFAOYSA-N
Kind: experiment
Temperature: 195 K
Tabular data in the source: 0
pressure (bar)	uptake (cm3(STP)/g)
0	0
0.005374	3.65237
0.016086	8.52649
0.029438	12.1886
0.032227	20.6989
0.066799	20.7409
0.06691	28.0327
0.13092	40.2633
0.162852	41.5174
0.197497	46.4206
0.229485	51.3206
0.261545	61.0818
0.298795	62.3423
0.328122	67.2391
0.365429	72.1455
0.397451	79.4761
0.432024	79.5181
0.466652	83.206
0.503957	88.1125
0.530607	91.7907
0.565216	94.2633
0.602502	97.9545
0.634453	100.424
0.666403	102.893
0.70103	106.581
0.730303	107.832
0.76493	111.52
0.796861	112.774
0.836807	116.468
0.868739	117.723
0.898011	118.973
0.916663	121.427
0.92998	122.658
0.964589	125.131
1.01781	127.626
