Adsorption isotherm of Methane on [Zn(L)].4DMF-a
DOI: 10.1039/c4dt02481h
Article source: Figure 4c
Adsorbate Methane: InChIKey VNWKTOKETHGBQD-UHFFFAOYSA-N
Kind: experiment
Temperature: 273 K
Tabular data in the source: 0
pressure (bar)	uptake (cm3(STP)/g)
0	0
0.063204	2.75583
0.13685	4.81359
0.163176	5.84611
0.2	6.87499
0.231574	7.9057
0.268398	8.93458
0.310442	9.61442
0.32627	10.6506
0.365746	12.0258
0.399918	12.7084
0.434116	13.7381
0.465719	15.1161
0.502515	15.7977
0.534089	16.8284
0.568261	17.511
0.605112	18.8871
0.639257	19.2225
0.652433	19.9123
0.670831	20.2532
0.702378	20.9367
0.733925	21.6201
0.768125	22.6499
0.783898	22.9917
0.8076	24.0251
0.833898	24.7104
0.86807	25.393
0.904866	26.0747
0.918015	26.4173
0.936468	27.4526
0.967988	27.7889
1.02058	29.1595
