Adsorption isotherm of Carbon Dioxide on [Zn(L)].4DMF-a
DOI: 10.1039/c4dt02481h
Article source: Figure 4c
Adsorbate Carbon Dioxide: InChIKey CURLTUGMZLYLDI-UHFFFAOYSA-N
Kind: experiment
Temperature: 298 K
Tabular data in the source: 0
pressure (bar)	uptake (cm3(STP)/g)
0	0
0.010543	1.73245
0.023693	2.76955
0.031593	3.80847
0.063141	5.88085
0.068427	7.26791
0.131541	12.1071
0.13411	10.0229
0.163033	12.0962
0.194564	13.4741
0.228745	15.8928
0.257641	16.9244
0.265569	19.005
0.297072	19.3413
0.331225	20.7183
0.365398	22.7898
0.396982	26.251
0.402176	24.1659
0.420584	25.5484
0.470503	27.6144
0.499399	28.646
0.533561	30.3703
0.538856	32.1045
0.572982	32.4399
0.604513	33.8179
0.636042	35.1958
0.651844	37.2736
0.664947	36.5747
0.704359	38.2971
0.735898	40.0222
0.772686	41.7456
0.785845	43.1299
0.804215	43.1235
0.840984	44.1524
0.869899	45.8785
0.906696	47.949
0.919846	48.9861
0.932977	49.3288
0.967122	50.3586
1.01703	52.0774
