Adsorption isotherm of Carbon Dioxide on [Zn(L)].4DMF-a
DOI: 10.1039/c4dt02481h
Article source: Figure 4b
Adsorbate Carbon Dioxide: InChIKey CURLTUGMZLYLDI-UHFFFAOYSA-N
Kind: experiment
Temperature: 195 K
Tabular data in the source: 0
pressure (bar)	uptake (cm3(STP)/g)
0	0
0.002521	18.1661
0.004997	42.3875
0.00507	32.699
0.0075	62.9758
0.010223	54.4983
0.046424	190.138
0.099344	225.26
0.104607	232.526
0.149734	243.426
0.181646	243.426
0.208156	254.325
0.253311	261.592
0.279922	259.17
0.31177	267.647
0.375558	272.491
0.423363	280.969
0.479171	285.813
0.521694	289.446
0.580163	294.291
0.627995	299.135
0.681153	302.768
0.728985	307.612
0.798073	314.879
0.835267	319.723
0.869811	323.356
0.904356	326.99
0.970775	335.467
0.99735	337.889
