Adsorption isotherm of Nitrogen on [Zn(L)].4DMF-a
DOI: 10.1039/c4dt02481h
Article source: Figure 4a
Adsorbate Nitrogen: InChIKey IJGRMHOSHXDMSA-UHFFFAOYSA-N
Kind: experiment
Temperature: 77 K
Tabular data in the source: 0
pressure (bar)	uptake (cm3(STP)/g)
0	0
0.001006	110.206
0.002291	251.025
0.006129	371.441
0.006576	420.421
0.012352	453.086
0.039886	469.468
0.067458	489.932
0.081244	500.164
0.086647	492.011
0.108611	498.178
0.108685	506.341
0.122341	502.287
0.127892	510.462
0.147063	510.5
0.158091	518.686
0.18	518.73
0.207404	520.826
0.210217	528.995
0.259567	535.217
0.30888	537.357
0.319797	533.297
0.355492	543.573
0.380083	537.5
0.410245	541.643
0.462315	545.829
0.511608	545.928
0.56366	548.074
0.612953	548.173
0.667744	550.325
0.719776	550.429
0.77179	548.493
0.818384	552.669
0.845788	554.765
0.875894	552.785
0.911494	552.856
0.933403	552.9
0.960807	554.996
0.988212	557.092
1.00744	563.254
1.01303	575.51
