Adsorption isotherm of Methane on Dry Beulah Zap Coal
DOI: 10.1021/ef201393p
Article source: Table 7
Adsorbate Methane: InChIKey VNWKTOKETHGBQD-UHFFFAOYSA-N
Kind: experiment
Isotherm type: excess
Temperature: 328 K
Tabular data in the source: 1
pressure (bar)	uptake (mmol/g)
7.2	0.257
14.4	0.361
28.3	0.476
42.2	0.544
56	0.591
69.7	0.621
83.3	0.651
97.1	0.664
110.9	0.681
124.8	0.695
137.8	0.708
