Adsorption isotherm of Carbon Dioxide on Dry Activated Carbon F400
DOI: 10.1021/ef201393p
Article source: Table 8
Adsorbate Carbon Dioxide: InChIKey CURLTUGMZLYLDI-UHFFFAOYSA-N
Kind: experiment
Isotherm type: excess
Temperature: 328 K
Tabular data in the source: 1
pressure (bar)	uptake (mmol/g)
14.9	4.887
28.5	5.885
42.2	6.321
56.2	6.462
70.7	6.396
83.1	6.134
96.2	5.616
111.1	4.524
124.9	3.522
