Adsorption isotherm of Nitrogen on Dry Wyodak Coal
DOI: 10.1021/ef201393p
Article source: Table 6
Adsorbate Nitrogen: InChIKey IJGRMHOSHXDMSA-UHFFFAOYSA-N
Kind: experiment
Isotherm type: excess
Temperature: 328 K
Tabular data in the source: 1
pressure (bar)	uptake (mmol/g)
7.3	0.091
14.5	0.147
28.3	0.221
42.1	0.272
55.8	0.313
69.7	0.344
83.3	0.373
97	0.394
110.9	0.416
124.7	0.431
137.2	0.445
