Adsorption isotherm of Carbon Dioxide on Dry Beulah Zap Coal
DOI: 10.1021/ef201393p
Article source: Table 7
Adsorbate Carbon Dioxide: InChIKey CURLTUGMZLYLDI-UHFFFAOYSA-N
Kind: experiment
Isotherm type: excess
Temperature: 328 K
Tabular data in the source: 1
pressure (bar)	uptake (mmol/g)
6.1	0.819
14.2	1.108
27.8	1.397
41.7	1.591
55.4	1.706
69.6	1.76
83	1.752
95.9	1.661
110.1	1.47
122.2	1.344
138.1	1.248
