Adsorption isotherm of Nitrogen on Dry Beulah Zap Coal
DOI: 10.1021/ef201393p
Article source: Table 7
Adsorbate Nitrogen: InChIKey IJGRMHOSHXDMSA-UHFFFAOYSA-N
Kind: experiment
Isotherm type: excess
Temperature: 328 K
Tabular data in the source: 1
pressure (bar)	uptake (mmol/g)
7.7	0.089
14.6	0.137
28.3	0.201
42.2	0.244
56	0.277
69.8	0.297
83.4	0.316
97.3	0.331
110.9	0.339
124.7	0.346
138	0.358
