Adsorption isotherm of Carbon Dioxide on Dry Pocahontas Coal
DOI: 10.1021/ef201393p
Article source: Table 3
Adsorbate Carbon Dioxide: InChIKey CURLTUGMZLYLDI-UHFFFAOYSA-N
Kind: experiment
Isotherm type: excess
Temperature: 328 K
Tabular data in the source: 1
pressure (bar)	uptake (mmol/g)
10.7	0.715
16.6	0.831
28.5	0.979
42.5	1.067
55.5	1.11
69.7	1.124
83.3	1.089
98.4	1.001
111	0.86
123.8	0.758
138.4	0.695
