Adsorption isotherm of Nitrogen on Dry Activated Carbon F400
DOI: 10.1021/ef201393p
Article source: Table 8
Adsorbate Nitrogen: InChIKey IJGRMHOSHXDMSA-UHFFFAOYSA-N
Kind: experiment
Isotherm type: excess
Temperature: 328 K
Tabular data in the source: 1
pressure (bar)	uptake (mmol/g)
8.1	1.015
14.6	1.473
29.3	2.075
41.9	2.407
55.3	2.651
69.8	2.834
83.6	2.945
96.9	3.018
110.8	3.068
125.4	3.1
137	3.108
