Adsorption isotherm of Carbon Dioxide on Illinois No. 6 Coal
DOI: 10.1021/ef201393p
Article source: Table 5
Adsorbate Carbon Dioxide: InChIKey CURLTUGMZLYLDI-UHFFFAOYSA-N
Kind: experiment
Isotherm type: excess
Temperature: 328 K
Tabular data in the source: 1
pressure (bar)	uptake (mmol/g)
7	0.592
14.1	0.822
27.8	1.096
41.6	1.282
55.7	1.403
69.4	1.485
82.5	1.502
96.4	1.432
109.8	1.232
122.9	1.033
138.1	0.913
