Adsorption isotherm of Carbon Dioxide on Dry Wyodak Coal
DOI: 10.1021/ef201393p
Article source: Table 6
Adsorbate Carbon Dioxide: InChIKey CURLTUGMZLYLDI-UHFFFAOYSA-N
Kind: experiment
Isotherm type: excess
Temperature: 328 K
Tabular data in the source: 1
pressure (bar)	uptake (mmol/g)
6.9	0.791
14.5	1.078
27.8	1.388
41.8	1.602
56	1.749
69.8	1.82
83.4	1.827
96.5	1.735
109.9	1.587
123.3	1.43
138.2	1.324
