Adsorption isotherm of Methane on Dry Pocahontas Coal
DOI: 10.1021/ef201393p
Article source: Table 3
Adsorbate Methane: InChIKey VNWKTOKETHGBQD-UHFFFAOYSA-N
Kind: experiment
Isotherm type: excess
Temperature: 328 K
Tabular data in the source: 1
pressure (bar)	uptake (mmol/g)
7.1	0.311
14.6	0.451
28.5	0.601
42.2	0.679
56.1	0.729
70.1	0.756
83.8	0.779
97.3	0.796
111.2	0.802
124.8	0.808
138	0.81
