Adsorption isotherm of Carbon Dioxide on Dry Upper Freeport Coal
DOI: 10.1021/ef201393p
Article source: Table 4
Adsorbate Carbon Dioxide: InChIKey CURLTUGMZLYLDI-UHFFFAOYSA-N
Kind: experiment
Isotherm type: excess
Temperature: 328 K
Tabular data in the source: 1
pressure (bar)	uptake (mmol/g)
7.1	0.485
15.2	0.646
28.8	0.789
42.6	0.866
56	0.906
69.6	0.919
83.3	0.904
96.7	0.851
109.8	0.751
124.4	0.655
138.2	0.608
