Adsorption isotherm of Methane on Dry Activated Carbon F400
DOI: 10.1021/ef201393p
Article source: Table 8
Adsorbate Methane: InChIKey VNWKTOKETHGBQD-UHFFFAOYSA-N
Kind: experiment
Isotherm type: excess
Temperature: 328 K
Tabular data in the source: 1
pressure (bar)	uptake (mmol/g)
15	2.845
27.8	3.555
41.1	3.936
55.9	4.167
70.7	4.277
83.8	4.31
91.8	4.306
97.7	4.306
111.1	4.273
124.3	4.221
137.4	4.145
