Adsorption isotherm of Nitrogen on Dry Pocahontas Coal
DOI: 10.1021/ef201393p
Article source: Table 3
Adsorbate Nitrogen: InChIKey IJGRMHOSHXDMSA-UHFFFAOYSA-N
Kind: experiment
Isotherm type: excess
Temperature: 328 K
Tabular data in the source: 1
pressure (bar)	uptake (mmol/g)
7.6	0.102
14.6	0.167
28.4	0.255
42.3	0.318
56.1	0.36
69.9	0.397
83.6	0.422
97.2	0.441
111.3	0.46
125.1	0.475
137.9	0.483
