Adsorption isotherm of Nitrogen on Dry Upper Freeport Coal
DOI: 10.1021/ef201393p
Article source: Table 4
Adsorbate Nitrogen: InChIKey IJGRMHOSHXDMSA-UHFFFAOYSA-N
Kind: experiment
Isotherm type: excess
Temperature: 328 K
Tabular data in the source: 1
pressure (bar)	uptake (mmol/g)
7.7	0.079
14.4	0.124
28.3	0.193
42.5	0.237
56.1	0.273
70.3	0.3
84.1	0.319
97.4	0.335
111.1	0.349
125	0.36
137.7	0.371
