Adsorption isotherm of Methane on Illinois No. 6 Coal
DOI: 10.1021/ef201393p
Article source: Table 5
Adsorbate Methane: InChIKey VNWKTOKETHGBQD-UHFFFAOYSA-N
Kind: experiment
Isotherm type: excess
Temperature: 328 K
Tabular data in the source: 1
pressure (bar)	uptake (mmol/g)
6.7	0.265
24.5	0.459
39.3	0.565
55.4	0.649
69.4	0.689
83	0.736
96.9	0.769
110.3	0.788
124.4	0.802
138	0.818
