Adsorption isotherm of Methane on Dry Upper Freeport Coal
DOI: 10.1021/ef201393p
Article source: Table 4
Adsorbate Methane: InChIKey VNWKTOKETHGBQD-UHFFFAOYSA-N
Kind: experiment
Isotherm type: excess
Temperature: 328 K
Tabular data in the source: 1
pressure (bar)	uptake (mmol/g)
7.3	0.241
14.6	0.34
28.4	0.448
42.3	0.512
56.2	0.549
69.8	0.576
83.7	0.593
97.4	0.603
111.2	0.612
124.7	0.617
137.6	0.617
