Adsorption isotherm of Nitrogen on Illinois No. 6 Coal
DOI: 10.1021/ef201393p
Article source: Table 5
Adsorbate Nitrogen: InChIKey IJGRMHOSHXDMSA-UHFFFAOYSA-N
Kind: experiment
Isotherm type: excess
Temperature: 328 K
Tabular data in the source: 1
pressure (bar)	uptake (mmol/g)
6.9	0.084
13.9	0.136
27.8	0.211
41.9	0.267
55.2	0.31
69.5	0.344
83.2	0.373
97	0.397
110.8	0.416
124.6	0.431
138.7	0.446
