Adsorption isotherm of Methane on Dry Wyodak Coal
DOI: 10.1021/ef201393p
Article source: Table 6
Adsorbate Methane: InChIKey VNWKTOKETHGBQD-UHFFFAOYSA-N
Kind: experiment
Isotherm type: excess
Temperature: 328 K
Tabular data in the source: 1
pressure (bar)	uptake (mmol/g)
6.9	0.242
14.2	0.355
28	0.481
41.9	0.565
55.7	0.624
69.5	0.671
83.4	0.701
97	0.721
111	0.74
124.6	0.77
137.1	0.782
