Adsorption isotherm of Nitrogen on Zn-MCMOF
DOI: 10.1039/c5cc01635e
Article source: Figure 2
Adsorbate Nitrogen: InChIKey IJGRMHOSHXDMSA-UHFFFAOYSA-N
Kind: experiment
Temperature: 77 K
Tabular data in the source: 0
pressure (bar)	uptake (mmol/g)
0.001128	15.8978
0.002306	32.4869
0.003483	49.076
0.004612	64.9738
0.005789	81.5629
0.006967	98.1519
0.007997	112.667
0.012331	123.724
0.018636	137.545
0.026919	129.244
0.045105	135.453
0.074624	151.332
0.077388	140.27
0.09528	142.331
0.123867	145.077
0.124652	156.136
0.147033	146.443
0.172021	148.5
0.17813	159.556
0.197011	150.557
0.223726	151.921
0.229736	161.594
0.248666	153.287
0.273606	154.652
0.281391	164.324
0.298596	156.709
0.311654	165.686
0.323486	157.383
0.350201	158.747
0.365083	168.415
0.375092	159.422
0.400032	160.787
0.424972	162.152
0.432708	171.133
0.449962	164.209
0.474902	165.575
0.487961	174.552
0.501617	166.939
0.526508	167.613
0.538822	191.107
0.553222	168.977
0.572782	194.54
0.576388	170.344
0.601328	171.71
0.624731	201.417
0.628043	173.074
0.651257	175.132
0.678021	177.187
0.692993	213.122
0.70301	179.244
0.728048	181.992
0.749031	227.6
0.753087	184.74
0.779998	188.869
0.802698	258.669
0.805183	193.69
0.830516	200.585
0.838865	293.207
0.857771	209.553
0.883594	223.36
0.893864	318.054
0.909957	244.771
0.933556	277.243
0.94798	330.459
0.96588	307.636
0.992095	326.973
1.01644	344.929
