Adsorption isotherm of Nitrogen on T7Zn3
DOI: 10.1016/j.seppur.2021.119916
Article source: Figure 3B
Adsorbate Nitrogen: InChIKey IJGRMHOSHXDMSA-UHFFFAOYSA-N
Kind: experiment
Temperature: 77 K
Tabular data in the source: 0
pressure (bar)	uptake (cm3(STP)/g)
0.000486	24.0186
0.000486	47.6381
0.008984	60.2794
0.018696	65.9348
0.032051	70.5921
0.044192	74.5842
0.056332	77.9108
0.084255	84.2315
0.100038	86.8929
0.112179	88.8889
0.120677	90.5522
0.140102	93.8789
0.147386	94.5442
0.163169	96.5403
0.18138	98.8689
0.200805	102.196
0.217801	104.192
0.254223	108.184
0.289431	110.845
0.308855	113.174
0.324638	113.839
0.356204	115.835
0.390197	117.498
0.40598	118.496
0.424191	118.496
0.45697	119.827
0.475181	120.16
0.492178	120.16
0.506746	120.659
0.526171	121.158
0.562593	121.49
0.596586	122.488
0.609941	122.488
0.629973	122.488
0.659717	123.486
0.68157	123.819
0.697353	124.152
0.709494	124.152
0.730132	124.817
0.749557	124.817
0.76534	125.15
0.779909	125.15
0.801762	126.48
0.813902	126.813
0.834541	127.146
0.851538	127.478
0.872177	128.144
0.88796	129.142
0.9001	130.472
0.914669	130.805
0.929237	130.805
0.93895	131.803
0.947448	132.801
0.966873	133.466
0.974157	135.795
0.979014	137.126
0.988726	139.787
0.993582	141.118
0.997224	142.116
0.999046	143.779
1.00208	146.44
1.00572	149.102
1.00694	152.595
0.994796	147.771
0.985084	143.446
0.972943	139.454
0.960803	135.795
0.947448	133.965
0.930451	131.803
0.912241	130.805
0.886746	129.142
0.870356	128.31
0.849717	127.478
0.830899	126.813
0.801762	125.482
0.778695	125.482
0.764126	125.15
0.749557	125.15
0.733775	124.817
0.709494	123.819
0.696139	123.819
0.682784	123.154
0.659717	122.821
0.628152	122.821
0.607513	122.156
0.596586	121.823
0.558951	121.158
0.526171	121.158
0.506746	120.16
0.490964	120.16
0.476395	119.827
0.45697	119.827
0.421763	118.496
0.404766	118.164
0.390197	117.166
0.35499	115.835
0.324638	113.839
0.302785	113.174
0.288217	110.845
0.250581	107.851
0.216587	103.859
0.200805	101.863
0.18138	98.8689
0.161955	96.8729
0.147386	94.2116
0.140102	93.2136
0.120677	90.5522
0.113393	89.2216
0.100038	87.2255
0.084255	83.8989
0.056332	78.5762
0.044192	74.2515
0.030837	70.5921
0.018696	66.6001
0.00777	60.6121
0.0017	46.9727
0.000486	24.0186
