Adsorption isotherm of Vanadium +5 on T7Zn3
DOI: 10.1016/j.seppur.2021.119916
Article source: Figure 10C
Adsorbate Vanadium +5: InChIKey DIMMBYOINZRKMD-UHFFFAOYSA-N
Kind: experiment
Temperature: 313 K
Tabular data in the source: 0
pressure (bar)	uptake (mg/g)
1.01325	0.444444
1.01325	21.7778
1.01325	38.6667
1.01325	57.7778
1.01325	66.2222
1.01325	87.5556
1.01325	104.889
1.01325	132
1.01325	148
1.01325	171.556
