Adsorption isotherm of Vanadium +5 on TZ2
DOI: 10.1016/j.seppur.2021.119916
Article source: Figure 10B
Adsorbate Vanadium +5: InChIKey DIMMBYOINZRKMD-UHFFFAOYSA-N
Kind: experiment
Temperature: 333 K
Tabular data in the source: 0
pressure (bar)	uptake (mg/g)
1.01325	0.38059
1.01325	23.5966
1.01325	44.9096
1.01325	64.7003
1.01325	78.7821
1.01325	105.804
1.01325	117.983
1.01325	149.952
1.01325	168.601
1.01325	191.056
