Adsorption isotherm of Vanadium +5 on T7Zn3
DOI: 10.1016/j.seppur.2021.119916
Article source: Figure 10C
Adsorbate Vanadium +5: InChIKey DIMMBYOINZRKMD-UHFFFAOYSA-N
Kind: experiment
Temperature: 273 K
Tabular data in the source: 0
pressure (bar)	uptake (mg/g)
1.01325	0.444444
1.01325	22.2222
1.01325	40.4444
1.01325	54.2222
1.01325	67.1111
1.01325	86.8889
1.01325	102.444
1.01325	128.889
1.01325	147.556
1.01325	171.111
