Adsorption isotherm of Vanadium +5 on TZ1
DOI: 10.1016/j.seppur.2021.119916
Article source: Figure 10A
Adsorbate Vanadium +5: InChIKey DIMMBYOINZRKMD-UHFFFAOYSA-N
Kind: experiment
Temperature: 273 K
Tabular data in the source: 0
pressure (bar)	uptake (mg/g)
1.01325	-0.792079
1.01325	19.802
1.01325	29.3069
1.01325	48.7129
1.01325	61.3861
1.01325	71.6832
1.01325	92.6733
1.01325	107.723
1.01325	111.683
1.01325	117.624
