Adsorption isotherm of Vanadium +5 on TZ1
DOI: 10.1016/j.seppur.2021.119916
Article source: Figure 10A
Adsorbate Vanadium +5: InChIKey DIMMBYOINZRKMD-UHFFFAOYSA-N
Kind: experiment
Temperature: 333 K
Tabular data in the source: 0
pressure (bar)	uptake (mg/g)
1.01325	0
1.01325	17.8218
1.01325	35.2475
1.01325	48.7129
1.01325	64.1584
1.01325	78.8119
1.01325	99.0099
1.01325	117.228
1.01325	129.901
1.01325	139.802
