Adsorption isotherm of Vanadium +5 on T7Zn3
DOI: 10.1016/j.seppur.2021.119916
Article source: Figure 10C
Adsorbate Vanadium +5: InChIKey DIMMBYOINZRKMD-UHFFFAOYSA-N
Kind: experiment
Temperature: 333 K
Tabular data in the source: 0
pressure (bar)	uptake (mg/g)
1.01325	0
1.01325	22.2222
1.01325	43.1111
1.01325	56.4444
1.01325	66.2222
1.01325	88.4444
1.01325	105.111
1.01325	135.111
1.01325	149.778
1.01325	173.333
