Adsorption isotherm of Vanadium +5 on TZ2
DOI: 10.1016/j.seppur.2021.119916
Article source: Figure 10B
Adsorbate Vanadium +5: InChIKey DIMMBYOINZRKMD-UHFFFAOYSA-N
Kind: experiment
Temperature: 313 K
Tabular data in the source: 0
pressure (bar)	uptake (mg/g)
1.01325	0.38059
1.01325	23.216
1.01325	43.3872
1.01325	62.7973
1.01325	77.6403
1.01325	102.379
1.01325	111.132
1.01325	139.676
1.01325	157.945
1.01325	178.116
