Adsorption isotherm of Vanadium +5 on TZ1
DOI: 10.1016/j.seppur.2021.119916
Article source: Figure 10A
Adsorbate Vanadium +5: InChIKey DIMMBYOINZRKMD-UHFFFAOYSA-N
Kind: experiment
Temperature: 313 K
Tabular data in the source: 0
pressure (bar)	uptake (mg/g)
1.01325	0
1.01325	13.0693
1.01325	29.1089
1.01325	43.9604
1.01325	59.802
1.01325	76.8317
1.01325	97.0297
1.01325	111.287
1.01325	120
1.01325	129.109
