Adsorption isotherm of Vanadium +5 on TZ2
DOI: 10.1016/j.seppur.2021.119916
Article source: Figure 10B
Adsorbate Vanadium +5: InChIKey DIMMBYOINZRKMD-UHFFFAOYSA-N
Kind: experiment
Temperature: 273 K
Tabular data in the source: 0
pressure (bar)	uptake (mg/g)
1.01325	0
1.01325	22.0742
1.01325	41.8649
1.01325	57.8497
1.01325	75.7374
1.01325	90.5804
1.01325	103.901
1.01325	127.878
1.01325	144.624
1.01325	164.795
