Adsorption isotherm of Nitrogen on TZ1
DOI: 10.1016/j.seppur.2021.119916
Article source: Figure 3B
Adsorbate Nitrogen: InChIKey IJGRMHOSHXDMSA-UHFFFAOYSA-N
Kind: experiment
Temperature: 77 K
Tabular data in the source: 0
pressure (bar)	uptake (cm3(STP)/g)
0.010805	5.72189
0.032051	6.38723
0.067259	7.2189
0.079399	7.38523
0.101252	8.05057
0.123105	8.38323
0.14253	8.7159
0.161955	8.7159
0.18138	9.04857
0.202019	9.71391
0.252402	10.5456
0.302785	11.3772
0.352561	12.0426
0.40598	13.0406
0.45697	14.0386
0.50796	15.0366
0.557737	16.0346
0.608727	17.0326
0.658503	18.3633
0.710708	20.3593
0.761698	23.686
0.81026	28.3433
0.832113	32.668
0.86125	39.9867
0.886746	50.9647
0.921953	61.9428
0.934094	63.9388
0.972943	67.2655
0.985084	69.5941
0.993582	72.2555
1.00329	75.9148
1.00815	80.2395
0.994796	75.9148
0.985084	72.5882
0.955947	67.2655
0.924381	65.2695
0.898886	63.2735
0.886746	62.6081
0.862464	60.6121
0.840611	55.2894
0.815116	46.9727
0.766554	28.676
0.698567	21.69
0.647577	19.3613
0.594158	17.0326
0.557737	16.3673
0.505532	15.3693
0.455756	13.7059
0.403552	12.7079
0.35499	12.3752
0.302785	11.3772
0.251795	10.3792
0.200805	10.0466
0.180166	9.04857
0.161955	9.04857
0.14253	8.7159
0.120677	8.05057
0.100038	8.05057
0.079399	7.38523
0.066045	7.38523
0.031444	6.88623
0.010198	6.05456
