Adsorption isotherm of Nitrogen on TZ2
DOI: 10.1016/j.seppur.2021.119916
Article source: Figure 3B
Adsorbate Nitrogen: InChIKey IJGRMHOSHXDMSA-UHFFFAOYSA-N
Kind: experiment
Temperature: 77 K
Tabular data in the source: 0
pressure (bar)	uptake (cm3(STP)/g)
0.008984	46.6401
0.033265	54.6241
0.061188	61.2774
0.080613	64.2715
0.100038	67.2655
0.120677	69.9268
0.144958	73.2535
0.161955	75.2495
0.182594	77.5782
0.202019	80.2395
0.253009	85.8949
0.289431	90.2196
0.306427	91.2176
0.347705	96.2076
0.358632	96.5403
0.40598	101.863
0.45697	106.853
0.506746	112.508
0.558344	118.663
0.609941	124.152
0.660931	128.476
0.711922	132.136
0.761091	134.963
0.811474	137.791
0.830899	138.789
0.862464	140.619
0.886746	142.116
0.912241	144.112
0.937736	146.773
0.963231	151.098
0.987512	158.417
0.994796	163.739
1.00329	172.721
1.00754	183.367
0.99601	172.056
0.982656	162.741
0.954733	152.428
0.924381	147.771
0.896458	145.11
0.869749	143.446
0.86125	142.448
0.834541	141.45
0.809046	140.12
0.75927	138.124
0.707065	135.795
0.657289	133.466
0.607513	130.472
0.555309	126.48
0.504925	121.823
0.455756	115.17
0.405373	102.196
0.357418	96.7066
0.347705	96.2076
0.307641	91.8829
0.291859	89.8869
0.253009	86.2275
0.200805	80.2395
0.182594	77.9108
0.161955	75.5822
0.14253	73.2535
0.121891	70.0931
0.101252	67.2655
0.079399	63.9388
0.079399	63.9388
0.062402	60.9448
0.032051	54.6241
0.010198	46.6401
