Adsorption isotherm of Hydrogen on COF-108
DOI: 10.1007/s11224-012-0120-1
Adsorbate Hydrogen: InChIKey UFHFLCQGNIYNRP-UHFFFAOYSA-N
Temperature: 298 K
Tabular data in the source: 0
pressure (bar)	uptake (g/l)
1.12524	0.760838
10.8435	4.66506
20.8435	6.66788
30.421	8.0876
40.421	9.40591
50.2802	10.3946
60.421	11.358
70.421	12.2707
80.7027	13.1834
90.421	13.9693
99.9985	14.7045
