Adsorption isotherm of Hydrogen on COF-108
DOI: 10.1007/s11224-012-0120-1
Adsorbate Hydrogen: InChIKey UFHFLCQGNIYNRP-UHFFFAOYSA-N
Temperature: 298 K
Tabular data in the source: 0
pressure (bar)	uptake (wt%)
1.37359	0.0186057
10.0975	0.453369
20.2515	0.945338
30.2625	1.42587
40.1305	1.89495
49.9985	2.34116
59.8664	2.77592
70.1635	3.1878
80.3175	3.5768
90.1855	4.00012
99.4814	4.34336
