Adsorption isotherm of Hydrogen on COF-105
DOI: 10.1007/s11224-012-0120-1
Adsorbate Hydrogen: InChIKey UFHFLCQGNIYNRP-UHFFFAOYSA-N
Temperature: 298 K
Tabular data in the source: 0
pressure (bar)	uptake (g/l)
9.85763	0.938303
20.421	1.77492
29.9985	2.58619
39.9985	3.42281
50.2802	4.28478
60.1393	4.99464
69.9985	5.72985
80.2802	6.51577
90.1393	7.30168
99.9985	8.03689
