Adsorption isotherm of Hydrogen on COF-105
DOI: 10.1007/s11224-012-0120-1
Adsorbate Hydrogen: InChIKey UFHFLCQGNIYNRP-UHFFFAOYSA-N
Temperature: 298 K
Tabular data in the source: 0
pressure (bar)	uptake (g/l)
0.561856	0.112829
1.12524	0.957899
9.99848	4.42269
19.9985	5.85931
29.9985	6.7748
40.1393	7.35227
49.9985	7.76072
59.9985	8.15508
69.7168	8.45086
80.1393	8.64804
89.8576	8.90156
99.8576	9.02832
