Adsorption isotherm of Hydrogen on COF-105
DOI: 10.1007/s11224-012-0120-1
Adsorbate Hydrogen: InChIKey UFHFLCQGNIYNRP-UHFFFAOYSA-N
Temperature: 298 K
Tabular data in the source: 0
pressure (bar)	uptake (wt%)
1.12524	0.415569
9.99848	1.97191
20.5619	2.57754
30.1393	2.95782
40.1393	3.23247
49.9985	3.40853
60.2802	3.55641
69.8576	3.69022
79.9985	3.76768
89.9985	3.8874
100.139	3.92261
