Adsorption isotherm of Hydrogen on COF-105
DOI: 10.1007/s11224-012-0120-1
Adsorbate Hydrogen: InChIKey UFHFLCQGNIYNRP-UHFFFAOYSA-N
Temperature: 298 K
Tabular data in the source: 0
pressure (bar)	uptake (wt%)
1.68862	0.0282452
10.5619	0.0916255
20.421	0.162048
30.2802	0.232471
40.5619	0.281766
49.9985	0.32402
60.1393	0.359231
69.9985	0.401485
80.2802	0.422611
90.1393	0.478949
99.8576	0.507118
