Adsorption isotherm of Hydrogen on COF-105
DOI: 10.1007/s11224-012-0120-1
Adsorbate Hydrogen: InChIKey UFHFLCQGNIYNRP-UHFFFAOYSA-N
Temperature: 298 K
Tabular data in the source: 0
pressure (bar)	uptake (g/l)
0.702701	3.91565
1.12524	5.90156
10.2802	7.01424
20.1393	7.45086
29.9985	7.70438
40.2802	7.91565
50.1393	8.141
59.7168	8.19734
69.8576	8.38043
79.7168	8.49311
89.9985	8.61987
99.9985	8.69029
