Adsorption isotherm of Hydrogen on COF-108
DOI: 10.1007/s11224-012-0120-1
Adsorbate Hydrogen: InChIKey UFHFLCQGNIYNRP-UHFFFAOYSA-N
Temperature: 298 K
Tabular data in the source: 0
pressure (bar)	uptake (wt%)
0.658518	1.74622
1.08756	2.81024
10.0975	3.64545
20.2515	4.21751
30.1195	4.69803
39.9874	5.09847
49.8554	5.51035
60.0095	5.94512
70.1635	6.24259
80.0315	6.58582
90.0425	6.91762
99.9104	7.24941
