Adsorption isotherm of Acetylene on COF-105
DOI: 10.1007/s11224-012-0120-1
Adsorbate Acetylene: InChIKey HSFWRNGVRCDJHI-UHFFFAOYSA-N
Temperature: 298 K
Tabular data in the source: 0
pressure (bar)	uptake (cm3(STP)/g)
0.019486	0.431785
0.04932	1.03244
0.100446	2.28382
0.198597	4.48624
0.291944	6.73872
0.392657	9.04125
0.492825	11.4939
0.588736	13.7965
0.656319	16.0489
0.761153	18.3515
0.891494	20.7541
0.984063	22.8564
