Adsorption isotherm of Acetylene on COF-105
DOI: 10.1007/s11224-012-0120-1
Adsorbate Acetylene: InChIKey HSFWRNGVRCDJHI-UHFFFAOYSA-N
Temperature: 298 K
Tabular data in the source: 0
pressure (bar)	uptake (cm3(STP)/g)
1.12e-06	224.778
2.1e-06	240.795
1.06e-05	269.684
2.08e-05	278.551
5.37e-05	290.85
0.000101	300.861
0.000206	307.154
0.000521	313.446
0.00104008	316.021
0.00505286	318.309
0.0102908	318.595
0.0197523	319.739
0.0998268	328.606
0.191609	339.189
0.284467	352.06
0.484971	372.368
0.96838	406.12
