Adsorption isotherm of Acetylene on COF-105
DOI: 10.1007/s11224-012-0120-1
Adsorbate Acetylene: InChIKey HSFWRNGVRCDJHI-UHFFFAOYSA-N
Temperature: 298 K
Tabular data in the source: 0
pressure (bar)	uptake (cm3(STP)/g)
3.06e-12	1.76437
3.16e-11	1.41226
1.03e-10	1.76437
2.96e-10	2.11649
1.03e-09	5.98973
3.06e-09	14.7925
6.25e-09	26.7644
1.03e-08	40.4968
2.11e-08	67.2573
3.32e-08	85.2151
5.14e-08	113.736
8.23e-08	134.511
9.84e-08	146.835
2.01e-07	175.004
4.82e-07	205.638
