Adsorption isotherm of Hydrogen on COF-105
DOI: 10.1007/s11224-012-0120-1
Adsorbate Hydrogen: InChIKey UFHFLCQGNIYNRP-UHFFFAOYSA-N
Temperature: 298 K
Tabular data in the source: 0
pressure (bar)	uptake (wt%)
1.37359	0.041488
10.3835	0.453369
20.1085	0.922456
29.9764	1.3801
39.8444	1.81487
50.1415	2.23819
60.1525	2.65007
70.0205	3.02763
80.1745	3.46239
90.1855	3.83995
99.9104	4.20606
