Adsorption isotherm of Hydrogen on COF-105
DOI: 10.1007/s11224-012-0120-1
Adsorbate Hydrogen: InChIKey UFHFLCQGNIYNRP-UHFFFAOYSA-N
Temperature: 298 K
Tabular data in the source: 0
pressure (bar)	uptake (g/l)
1.26608	0.989007
10.2802	5.24816
19.9985	7.35239
30.421	9.02563
40.1393	10.3693
49.9985	11.4341
59.8576	12.4482
70.1393	13.4622
80.421	14.3749
90.2802	15.313
99.9985	16.0989
