Adsorption isotherm of Hydrogen on COF-105
DOI: 10.1007/s11224-012-0120-1
Adsorbate Hydrogen: InChIKey UFHFLCQGNIYNRP-UHFFFAOYSA-N
Temperature: 298 K
Tabular data in the source: 0
pressure (bar)	uptake (g/l)
1.68862	0.042406
10.1393	0.155082
19.9985	0.310012
30.2802	0.408603
40.5619	0.535364
50.421	0.591702
60.1393	0.676209
69.8576	0.732547
79.9985	0.817054
89.8576	0.859307
99.7168	0.901561
