Adsorption isotherm of Acetylene on COF-105
DOI: 10.1007/s11224-012-0120-1
Adsorbate Acetylene: InChIKey HSFWRNGVRCDJHI-UHFFFAOYSA-N
Temperature: 298 K
Tabular data in the source: 0
pressure (bar)	uptake (cm3(STP)/g)
1.1e-06	236.791
5.54e-06	252.808
1.04e-05	255.097
2.04e-05	255.955
5.06e-05	259.101
9.91e-05	261.103
0.000206	261.961
0.000491	262.533
0.00101974	262.247
0.00515369	261.961
0.00969853	262.247
0.0186155	264.536
0.0490158	265.966
0.0978737	268.254
0.195432	273.402
0.284467	276.549
0.484971	285.988
0.949434	309.156
