Adsorption isotherm of Hydrogen on COF-105
DOI: 10.1007/s11224-012-0120-1
Adsorbate Hydrogen: InChIKey UFHFLCQGNIYNRP-UHFFFAOYSA-N
Temperature: 298 K
Tabular data in the source: 0
pressure (bar)	uptake (wt%)
0.561856	1.8874
1.26608	2.81698
10.1393	3.30994
20.421	3.51416
30.2802	3.62684
39.9985	3.69726
50.1393	3.82402
60.2802	3.85219
70.2802	3.92261
79.9985	3.98599
89.8576	4.04937
99.8576	4.0705
