Adsorption isotherm of Acetylene on COF-108
DOI: 10.1007/s11224-012-0120-1
Adsorbate Acetylene: InChIKey HSFWRNGVRCDJHI-UHFFFAOYSA-N
Temperature: 298 K
Tabular data in the source: 0
pressure (bar)	uptake (cm3(STP)/g)
1.1e-06	240.509
2.14e-06	248.804
5.32e-06	258.243
1.06e-05	266.252
2.04e-05	269.97
4.86e-05	273.402
0.000107	276.263
0.000202	276.549
0.000501	278.265
0.000961	277.979
0.00211826	279.409
0.00495401	286.274
0.0205484	295.141
0.0480568	302.005
0.177048	317.165
0.284467	327.462
0.484971	338.617
0.96838	365.504
