Adsorption isotherm of Acetylene on COF-108
DOI: 10.1007/s11224-012-0120-1
Adsorbate Acetylene: InChIKey HSFWRNGVRCDJHI-UHFFFAOYSA-N
Temperature: 298 K
Tabular data in the source: 0
pressure (bar)	uptake (cm3(STP)/g)
1.14e-06	239.079
1.98e-06	245.658
5.32e-06	253.094
1.02e-05	258.529
2.08e-05	261.389
9.91e-05	266.252
0.000198	266.824
0.000501	267.11
0.00195729	267.396
0.00546841	267.396
0.0193658	267.682
0.0490158	269.684
0.0922409	272.544
0.211505	277.407
0.290144	281.983
0.494648	293.138
0.949434	318.595
