Adsorption isotherm of Acetylene on COF-108
DOI: 10.1007/s11224-012-0120-1
Adsorbate Acetylene: InChIKey HSFWRNGVRCDJHI-UHFFFAOYSA-N
Temperature: 298 K
Tabular data in the source: 0
pressure (bar)	uptake (cm3(STP)/g)
1.08e-12	1.41226
3.27e-12	1.76437
1.05e-11	2.11649
3.11e-11	1.76437
3.06e-10	3.17283
1.05e-09	10.9193
3.21e-09	26.7644
6.56e-09	47.8911
2.01e-08	97.539
3.11e-08	115.145
5.14e-08	139.088
7.97e-08	157.75
1.02e-07	171.483
2.01e-07	195.426
4.98e-07	222.891
