Adsorption isotherm of Acetylene on Mg(OOCH)2
DOI: 10.1007/s11224-012-0120-1
Adsorbate Acetylene: InChIKey HSFWRNGVRCDJHI-UHFFFAOYSA-N
Temperature: 298 K
Tabular data in the source: 0
pressure (bar)	uptake (cm3(STP)/g)
0.00108083	0.848119
0.00207422	1.4115
0.00306104	3.10164
0.00502762	6.20023
0.00699882	9.8622
0.0105315	13.8059
0.0204086	24.7918
0.0316194	31.834
0.0494676	40.003
0.0715952	45.9185
0.0996657	51.2707
0.202767	56.9045
0.296337	59.4397
0.486719	61.6932
0.711323	62.5383
0.990214	62.82
