Adsorption isotherm of Acetylene on COF-108
DOI: 10.1007/s11224-012-0120-1
Adsorbate Acetylene: InChIKey HSFWRNGVRCDJHI-UHFFFAOYSA-N
Temperature: 298 K
Tabular data in the source: 0
pressure (bar)	uptake (cm3(STP)/g)
0.0676576	1.73322
0.0849174	2.23377
0.0984811	2.58415
0.192798	5.13696
0.291944	7.68976
0.392657	10.2426
0.48798	12.9956
0.588736	15.3982
0.689553	18.0011
0.776341	20.5539
0.874053	23.407
0.96481	25.9598
