Adsorption isotherm of Hydrogen on COF-108
DOI: 10.1007/s11224-012-0120-1
Adsorbate Hydrogen: InChIKey UFHFLCQGNIYNRP-UHFFFAOYSA-N
Temperature: 298 K
Tabular data in the source: 0
pressure (bar)	uptake (wt%)
0.843546	1.77472
1.26608	2.81698
9.99848	3.35219
20.1393	3.5705
30.1393	3.7043
40.1393	3.78177
50.1393	3.90853
59.9985	3.98599
69.9985	3.98599
79.7168	3.99303
89.8576	4.03529
99.9985	4.07754
