Adsorption isotherm of Acetylene on CuBTC
DOI: 10.1007/s11224-012-0120-1
Adsorbate Acetylene: InChIKey HSFWRNGVRCDJHI-UHFFFAOYSA-N
Temperature: 298 K
Tabular data in the source: 0
pressure (bar)	uptake (cm3(STP)/g)
0.00507678	2.53826
0.0062276	2.81995
0.00706724	3.94671
0.0080201	2.53826
0.0103285	5.35516
0.0212185	11.2707
0.0407205	21.9749
0.0600935	34.9326
0.0715952	41.1298
0.0987008	58.8763
0.202767	103.383
0.293467	128.172
0.501134	153.524
0.697616	169.862
0.907195	180.848
0.999895	187.609
