Adsorption isotherm of Hydrogen on COF-105
DOI: 10.1007/s11224-012-0120-1
Adsorbate Hydrogen: InChIKey UFHFLCQGNIYNRP-UHFFFAOYSA-N
Temperature: 298 K
Tabular data in the source: 0
pressure (bar)	uptake (wt%)
1.23058	0.441928
10.2405	2.23819
20.2515	3.15348
30.1195	3.86283
40.2735	4.412
49.9985	4.84677
60.2955	5.30441
70.3065	5.72774
79.8884	6.05953
90.4715	6.45997
100.053	6.73456
