Adsorption isotherm of Hydrogen on COF-108
DOI: 10.1007/s11224-012-0120-1
Adsorbate Hydrogen: InChIKey UFHFLCQGNIYNRP-UHFFFAOYSA-N
Temperature: 298 K
Tabular data in the source: 0
pressure (bar)	uptake (g/l)
1.40693	0.0564905
10.2802	0.155082
20.5619	0.295927
30.1393	0.408603
39.9985	0.479026
50.1393	0.549448
60.1393	0.619871
69.8576	0.676209
79.9985	0.732547
89.9985	0.760716
99.9985	0.760716
