Adsorption isotherm of Hydrogen on COF-108
DOI: 10.1007/s11224-012-0120-1
Adsorbate Hydrogen: InChIKey UFHFLCQGNIYNRP-UHFFFAOYSA-N
Temperature: 298 K
Tabular data in the source: 0
pressure (bar)	uptake (wt%)
0.561856	0.0282452
1.12524	0.3874
10.421	1.80994
19.9985	2.39444
29.8576	2.73247
40.1393	2.96486
50.1393	3.14092
60.421	3.28881
70.1393	3.38036
80.2802	3.47191
90.2802	3.52825
99.8576	3.58458
