Adsorption isotherm of Hydrogen on COF-105
DOI: 10.1007/s11224-012-0120-1
Adsorbate Hydrogen: InChIKey UFHFLCQGNIYNRP-UHFFFAOYSA-N
Temperature: 298 K
Tabular data in the source: 0
pressure (bar)	uptake (g/l)
0.561856	4.05661
1.12524	6.05943
10.1393	7.75802
20.1393	9.02563
29.9985	9.91295
39.8576	10.8003
49.9985	11.7637
60.1393	12.4989
70.1393	13.4622
80.1393	14.2735
90.421	15.0594
99.9985	15.7693
