Adsorption isotherm of Hydrogen on COF-108
DOI: 10.1007/s11224-012-0120-1
Adsorbate Hydrogen: InChIKey UFHFLCQGNIYNRP-UHFFFAOYSA-N
Temperature: 298 K
Tabular data in the source: 0
pressure (bar)	uptake (wt%)
1.23058	0.041488
1.37359	0.373281
10.2405	2.10089
20.2515	3.02763
30.1195	3.66833
40.4165	4.17174
50.2845	4.67515
59.8664	5.08703
70.0205	5.48747
80.1745	5.84215
90.0425	6.20826
99.7674	6.52862
