Adsorption isotherm of Acetylene on COF-105
DOI: 10.1007/s11224-012-0120-1
Adsorbate Acetylene: InChIKey HSFWRNGVRCDJHI-UHFFFAOYSA-N
Temperature: 298 K
Tabular data in the source: 0
pressure (bar)	uptake (cm3(STP)/g)
0.0295067	0.58195
0.04932	1.03244
0.0683293	1.53299
0.0984811	2.18371
0.196645	4.28602
0.291944	6.43839
0.392657	8.49064
0.48798	10.6931
0.582948	12.9455
0.676062	15.0979
0.791833	17.05
0.882731	19.2525
0.974389	21.555
