Adsorption isotherm of Hydrogen on COF-108
DOI: 10.1007/s11224-012-0120-1
Adsorbate Hydrogen: InChIKey UFHFLCQGNIYNRP-UHFFFAOYSA-N
Temperature: 298 K
Tabular data in the source: 0
pressure (bar)	uptake (g/l)
0.561856	3.50719
0.984391	5.61987
10.2802	6.70438
20.421	7.12691
30.1393	7.42269
39.8576	7.57762
49.9985	7.85931
60.1393	8.09874
69.9985	8.07057
80.2802	8.07057
90.1393	8.15508
99.7168	8.23959
