Adsorption isotherm of Hydrogen on COF-108
DOI: 10.1007/s11224-012-0120-1
Adsorbate Hydrogen: InChIKey UFHFLCQGNIYNRP-UHFFFAOYSA-N
Temperature: 298 K
Tabular data in the source: 0
pressure (bar)	uptake (g/l)
0.561856	0.0846595
1.26608	0.760716
10.421	3.83114
20.421	5.16917
30.1393	5.87339
40.1393	6.43677
50.1393	6.76072
60.5619	7.11283
69.9985	7.31001
79.9985	7.52128
89.9985	7.66212
100.139	7.73255
