Adsorption isotherm of Hydrogen on COF-108
DOI: 10.1007/s11224-012-0120-1
Adsorbate Hydrogen: InChIKey UFHFLCQGNIYNRP-UHFFFAOYSA-N
Temperature: 298 K
Tabular data in the source: 0
pressure (bar)	uptake (g/l)
1.12524	0.127035
10.421	0.887598
20.5619	1.74957
30.421	2.56084
40.1393	3.39746
49.9985	4.13267
60.5619	4.89323
70.421	5.67915
80.2802	6.36365
90.2802	7.09887
99.9985	7.75802
