Adsorption isotherm of Hydrogen on COF-108
DOI: 10.1007/s11224-012-0120-1
Adsorbate Hydrogen: InChIKey UFHFLCQGNIYNRP-UHFFFAOYSA-N
Temperature: 298 K
Tabular data in the source: 0
pressure (bar)	uptake (g/l)
0.843546	3.54957
1.54777	5.62844
10.7027	7.47915
20.421	8.69605
29.9985	9.63408
39.8576	10.4453
50.421	11.4341
60.2802	12.3721
70.1393	12.9806
80.1393	13.7158
90.5619	14.4763
99.4351	15.1862
