Adsorption isotherm of Acetylene on COF-108
DOI: 10.1007/s11224-012-0120-1
Adsorbate Acetylene: InChIKey HSFWRNGVRCDJHI-UHFFFAOYSA-N
Temperature: 298 K
Tabular data in the source: 0
pressure (bar)	uptake (cm3(STP)/g)
0.00104654	0.18151
0.00200874	0.231565
0.00295291	0.231565
0.00498475	0.18151
0.00711375	0.231565
0.0101521	0.331675
0.0200721	0.58195
0.0313086	0.832225
0.04932	1.28272
0.0696928	2.03355
0.0994588	2.83443
0.196645	5.58745
0.291944	8.29042
0.392657	11.0434
0.492825	13.9967
0.582948	16.8999
0.676062	19.5528
0.776341	22.5561
0.874053	25.3091
0.96481	28.2123
