Adsorption isotherm of Hydrogen on COF-105
DOI: 10.1007/s11224-012-0120-1
Adsorbate Hydrogen: InChIKey UFHFLCQGNIYNRP-UHFFFAOYSA-N
Temperature: 298 K
Tabular data in the source: 0
pressure (bar)	uptake (wt%)
1.08756	1.84919
1.5166	2.77592
10.0975	3.59968
20.2515	4.13742
30.2625	4.57218
39.9874	4.98406
50.1415	5.3845
59.8664	5.7163
70.1635	6.10529
79.8884	6.44853
90.0425	6.8032
99.9104	7.11211
