Adsorption isotherm of Nitrogen on [Cu(bpy)(BF4)2(H2O)2*(bpy)]4
DOI: 10.1016/S0009-2614(00)01419-6
Adsorbate Nitrogen: InChIKey IJGRMHOSHXDMSA-UHFFFAOYSA-N
Temperature: 77 K
Tabular data in the source: 0
pressure (bar)	uptake (mmol/g)
0.0517392	0.122464
0.0862736	0.0837802
0.106	0.0845946
0.155315	0.0866306
0.20215	0.128673
0.22279	4.62176
0.246852	6.34745
0.290834	7.51243
0.342227	8.63761
0.386472	9.04053
0.433183	9.44355
0.482373	9.80656
0.529098	10.1695
0.580823	10.332
0.630083	10.4945
0.674425	10.6167
0.723698	10.739
0.775437	10.8615
0.822273	10.9035
0.871546	11.0259
0.920834	11.1082
0.960202	11.3504
