Adsorption isotherm of Carbon Dioxide on [Cu(bpy)(BF4)2(H2O)2*(bpy)]4
DOI: 10.1016/S0009-2614(00)01419-6
Adsorbate Carbon Dioxide: InChIKey CURLTUGMZLYLDI-UHFFFAOYSA-N
Temperature: 273 K
Tabular data in the source: 0
pressure (bar)	uptake (mmol/g)
0.45041	0.0110634
0.768396	0.0107103
1.45723	0.0330725
2.14627	0.0207439
2.88796	0.0661745
3.52224	0.354559
4.09549	2.01907
4.67617	2.41159
5.28459	2.59593
6.13187	2.71062
6.97942	2.77906
7.85368	2.81278
8.75452	2.83491
9.41677	2.86887
10.1321	2.8912
