Adsorption isotherm of Carbon Dioxide on [Cu(bpy)(BF4)2(H2O)2*(bpy)]4
DOI: 10.1016/S0009-2614(00)01419-6
Adsorbate Carbon Dioxide: InChIKey CURLTUGMZLYLDI-UHFFFAOYSA-N
Temperature: 273 K
Tabular data in the source: 0
pressure (bar)	uptake (mmol/g)
1.53673	0.0329843
2.17256	0.0554053
2.83503	0.0546697
3.52394	0.0654683
4.0537	0.0995707
4.64431	3.33671
5.19982	3.49798
6.10024	3.58949
6.92125	3.66952
7.79557	3.69168
8.6963	3.72537
9.62349	3.77059
10.1003	3.79319
