Adsorption isotherm of Nitrogen on [Cu(bpy)(BF4)2(H2O)2*(bpy)]4
DOI: 10.1016/S0009-2614(00)01419-6
Adsorbate Nitrogen: InChIKey IJGRMHOSHXDMSA-UHFFFAOYSA-N
Temperature: 77 K
Tabular data in the source: 0
pressure (bar)	uptake (mmol/g)
0.0862182	0.244215
0.0968154	5.2583
0.100916	7.66503
0.149552	9.63239
0.201014	10.557
0.250094	11.2409
0.296791	11.684
0.343501	12.0871
0.397637	12.4102
0.441965	12.5724
0.488745	12.7749
0.540471	12.9375
0.584785	13.1399
0.639004	13.2223
0.683332	13.3846
0.735085	13.4669
0.776961	13.589
0.831166	13.7116
0.87796	13.8739
0.924754	14.0363
0.968971	14.5194
