Adsorption isotherm of Nitrogen on [Cu(bpy)(BF4)2(H2O)2*(bpy)]4
DOI: 10.1016/S0009-2614(00)01419-6
Adsorbate Nitrogen: InChIKey IJGRMHOSHXDMSA-UHFFFAOYSA-N
Temperature: 77 K
Tabular data in the source: 0
pressure (bar)	uptake (mmol/g)
0.0122872	0.120835
0.0206126	4.5733
0.0322487	6.57924
0.0563798	8.10439
0.0805525	9.50921
0.100043	10.1919
0.127	10.6743
0.161244	11.4779
0.200474	12.1213
0.244664	12.6846
0.291347	13.1679
0.33803	13.6511
0.397069	14.0546
0.438904	14.297
0.490615	14.4997
0.534943	14.6619
0.589135	14.8246
0.638394	14.9871
0.68275	15.0691
0.732037	15.1514
0.78627	15.1937
0.830626	15.2758
0.872516	15.3577
0.929187	15.4804
0.96609	15.7226
