Adsorption isotherm of Carbon Dioxide on [Cu(bpy)(BF4)2(H2O)2*(bpy)]4
DOI: 10.1016/S0009-2614(00)01419-6
Adsorbate Carbon Dioxide: InChIKey CURLTUGMZLYLDI-UHFFFAOYSA-N
Temperature: 273 K
Tabular data in the source: 0
pressure (bar)	uptake (mmol/g)
0.768396	0.0107103
3.57719	0.019155
4.10712	0.0301301
4.71644	0.0525806
5.29396	0.988587
6.11469	1.11487
7.04187	1.1601
7.88967	1.18228
8.73751	1.20447
9.58541	1.21509
10.1419	1.21447
