Adsorption isotherm of Argon on [Cu(bpy)(BF4)2(H2O)2*(bpy)]4
DOI: 10.1016/S0009-2614(00)01419-6
Adsorbate Argon: InChIKey XKRFYHLGVUSROY-UHFFFAOYSA-N
Temperature: 77 K
Tabular data in the source: 0
pressure (bar)	uptake (mmol/g)
0.0520408	0.134103
0.0673469	0.134103
0.0818878	0.178804
0.0956633	0.178804
0.111735	0.268206
0.122449	0.402308
0.13699	1.38573
0.149235	2.41385
0.164541	3.53137
0.178316	4.60421
0.193622	5.90052
0.210459	7.01805
0.225	7.86738
0.242602	8.98491
0.254847	9.7895
0.269388	10.6388
0.283929	11.5328
0.3	12.4716
