Adsorption isotherm of Argon on [Cu(bpy)(BF4)2(H2O)2*(bpy)]4
DOI: 10.1016/S0009-2614(00)01419-6
Adsorbate Argon: InChIKey XKRFYHLGVUSROY-UHFFFAOYSA-N
Temperature: 77 K
Tabular data in the source: 0
pressure (bar)	uptake (mmol/g)
0.0520408	0.089402
0.0673469	0.089402
0.0971939	0.178804
0.114031	0.089402
0.170663	0.134103
0.186735	0.223505
0.202041	0.223505
0.217347	0.223505
0.231888	0.312907
0.247194	0.357607
0.27398	0.536412
0.28699	0.625814
0.299235	0.849319
