Adsorption isotherm of Nitrogen on [Cu(bpy)(BF4)2(H2O)2*(bpy)]4
DOI: 10.1016/S0009-2614(00)01419-6
Adsorbate Nitrogen: InChIKey IJGRMHOSHXDMSA-UHFFFAOYSA-N
Temperature: 77 K
Tabular data in the source: 0
pressure (bar)	uptake (mmol/g)
0.105986	0.124703
0.155079	0.768478
0.19931	1.2115
0.250994	1.4944
0.297774	1.69688
0.344582	1.81914
0.396335	1.9015
0.448088	1.98385
0.494923	2.02589
0.544238	2.02793
0.593526	2.11018
0.640389	2.07201
0.687197	2.19427
0.736512	2.1963
0.785799	2.27856
0.832662	2.24038
0.879498	2.28243
0.931265	2.32467
0.965702	2.56675
