Adsorption isotherm of Argon on [Cu(bpy)(BF4)2(H2O)2*(bpy)]4
DOI: 10.1016/S0009-2614(00)01419-6
Adsorbate Argon: InChIKey XKRFYHLGVUSROY-UHFFFAOYSA-N
Temperature: 77 K
Tabular data in the source: 0
pressure (bar)	uptake (mmol/g)
0.0903061	0.134103
0.104847	0.134103
0.133929	0.223505
0.151531	0.223505
0.179082	0.312907
0.194388	0.581113
0.210459	0.491712
0.218878	0.715215
0.225765	0.983421
0.233418	7.68857
0.240306	9.29781
0.254847	10.7729
0.269388	11.7116
0.285459	12.6951
0.298469	13.4997
