Adsorption isotherm of Carbon Dioxide on [Cu(bpy)(BF4)2(H2O)2*(bpy)]4
DOI: 10.1016/S0009-2614(00)01419-6
Adsorbate Carbon Dioxide: InChIKey CURLTUGMZLYLDI-UHFFFAOYSA-N
Temperature: 273 K
Tabular data in the source: 0
pressure (bar)	uptake (mmol/g)
0.450344	0.022627
0.821257	0.0337787
1.53679	0.0214207
2.22563	0.0437829
2.91459	0.0430178
3.62999	0.053787
4.14218	3.10599
4.67079	3.33668
5.27945	3.47476
6.10052	3.54323
7.00088	3.64631
7.87513	3.68003
8.74931	3.72531
9.597	3.77062
10.1268	3.79316
