Adsorption isotherm of Argon on [Cu(bpy)(BF4)2(H2O)2*(bpy)]4
DOI: 10.1016/S0009-2614(00)01419-6
Adsorbate Argon: InChIKey XKRFYHLGVUSROY-UHFFFAOYSA-N
Temperature: 77 K
Tabular data in the source: 0
pressure (bar)	uptake (mmol/g)
0.0512755	2.85e-15
0.1125	0.089402
0.143112	0.223505
0.158418	0.223505
0.172959	0.312907
0.185969	0.357607
0.197449	0.491712
0.205867	9.02959
0.210459	10.907
0.226531	12.9633
0.240306	14.2149
0.256378	15.1536
0.273214	16.0476
0.285459	16.6288
0.298469	17.0758
