Adsorption isotherm of Nitrogen on Zn(NDI-H)
DOI: 10.1039/C3ee40876k
Adsorbate Nitrogen: InChIKey IJGRMHOSHXDMSA-UHFFFAOYSA-N
Temperature: 77 K
Tabular data in the source: 0
pressure (bar)	uptake (cm3(STP)/g)
0.0202074	294.708
0.0203819	306.321
0.025043	316.489
0.0297477	329.561
0.0434689	342.646
0.0480426	347.007
0.0684391	354.296
0.109232	368.873
0.215352	380.644
0.319196	390.961
0.404941	396.895
0.504211	402.85
0.601183	405.898
0.695945	411.846
0.795346	426.511
0.890283	444.072
