Adsorption isotherm of Nitrogen on Zn(NDI-SO2Et)
DOI: 10.1039/C3ee40876k
Adsorbate Nitrogen: InChIKey IJGRMHOSHXDMSA-UHFFFAOYSA-N
Temperature: 77 K
Tabular data in the source: 0
pressure (bar)	uptake (cm3(STP)/g)
0.0124443	7.78256
0.0132546	66.2356
0.0133283	26.095
0.0138383	36.6598
0.0144107	90.1826
0.0148243	57.0852
0.014898	16.9446
0.016207	169.061
0.01636	47.2305
0.0168643	99.3447
0.017788	76.8121
0.0179184	121.179
0.0192501	107.098
0.0196864	157.804
0.0203041	128.932
0.0212561	148.653
0.0227239	137.39
0.0265376	174.725
0.0347544	178.27
0.0449489	181.116
0.0510521	182.542
0.0633604	187.508
0.0734529	188.241
0.119926	192.601
0.218772	198.522
0.317448	200.92
0.410054	202.597
0.506753	205.695
0.60744	208.099
0.70407	209.788
0.802746	212.187
0.897569	218.095
