Adsorption isotherm of Nitrogen on Zn(NDI-NHEt)
DOI: 10.1039/C3ee40876k
Adsorbate Nitrogen: InChIKey IJGRMHOSHXDMSA-UHFFFAOYSA-N
Temperature: 77 K
Tabular data in the source: 0
pressure (bar)	uptake (cm3(STP)/g)
0.00977291	200.337
0.0122015	211.954
0.0168407	220.67
0.0192258	229.384
0.0193785	239.545
0.0195094	248.255
0.0197057	261.32
0.0199238	275.836
0.0336887	291.825
0.0427708	296.193
0.0540852	299.113
0.0654215	303.485
0.0834765	304.963
0.11289	312.265
0.209949	321.12
0.318258	328.54
0.401684	330.116
0.503186	334.623
0.600181	339.123
0.699407	342.174
0.791849	343.764
0.891163	352.622
