Adsorption isotherm of Water on Zn(NDI-SEt)
DOI: 10.1039/C3ee40876k
Adsorbate Water: InChIKey XLYOFNOQVPJJNP-UHFFFAOYSA-N
Temperature: 293 K
Tabular data in the source: 0
pressure (bar)	uptake (g/g)
0.00358421	0.012927
0.00433153	0.0180235
0.00487894	0.0193367
0.00552616	0.0219146
0.0059744	0.0244709
0.0066213	0.0257948
0.00721878	0.0283673
0.00776715	0.0334423
0.00826608	0.0397659
0.00881662	0.0536186
0.00936935	0.0762489
0.00993079	0.13399
0.0110362	0.179251
0.0116841	0.184336
0.0119831	0.186877
0.0129291	0.190741
0.0133279	0.194546
0.0157187	0.208597
0.0172637	0.221304
0.0193067	0.236572
