Adsorption isotherm of Water on Zn(NDI-SEt)
DOI: 10.1039/C3ee40876k
Adsorbate Water: InChIKey XLYOFNOQVPJJNP-UHFFFAOYSA-N
Temperature: 293 K
Tabular data in the source: 0
pressure (bar)	uptake (cm3(STP)/g)
0.15763	0.0187623
0.164907	0.0198015
0.191582	0.0229294
0.21824	0.0240095
0.240063	0.0261033
0.254616	0.0281817
0.281307	0.0333574
0.303138	0.0364751
0.329821	0.0406269
0.356522	0.0468266
0.375986	0.0571065
0.393136	0.0806921
0.412981	0.138072
0.464223	0.183231
0.486053	0.186349
0.500616	0.189451
0.544275	0.195686
0.563674	0.197775
0.658278	0.212309
0.723792	0.224734
0.808697	0.238223
