Adsorption isotherm of Water on Zn(NDI-SO2Et)
DOI: 10.1039/C3ee40876k
Adsorbate Water: InChIKey XLYOFNOQVPJJNP-UHFFFAOYSA-N
Temperature: 293 K
Tabular data in the source: 0
pressure (bar)	uptake (cm3(STP)/g)
0.118882	0.0207284
0.152834	0.0248955
0.16255	0.0279877
0.189234	0.0321395
0.213503	0.0373101
0.232935	0.0434944
0.259651	0.0517418
0.281581	0.0671464
0.303517	0.0835749
0.327919	0.105128
0.349898	0.126676
0.376822	0.160521
0.398709	0.170806
0.415677	0.171866
0.430239	0.174968
0.449646	0.178081
0.459345	0.179125
0.471467	0.180175
0.568486	0.19369
0.648521	0.204097
0.740677	0.215554
0.849802	0.228071
