Adsorption isotherm of Nitrogen on Zn(NDI-SEt)
DOI: 10.1039/C3ee40876k
Adsorbate Nitrogen: InChIKey IJGRMHOSHXDMSA-UHFFFAOYSA-N
Temperature: 77 K
Tabular data in the source: 0
pressure (bar)	uptake (cm3(STP)/g)
0.0126834	19.1047
0.0128653	24.7549
0.0143541	8.51631
0.0145927	78.4323
0.0151496	33.2361
0.0152519	98.9144
0.0155702	108.802
0.0160134	60.0748
0.0163544	70.669
0.0168885	149.767
0.0169453	89.0323
0.017184	158.948
0.0179113	181.549
0.0179454	120.109
0.0181841	190.025
0.0182637	129.997
0.0186501	142.003
0.0196048	46.6672
0.0196274	172.373
0.0225483	200.631
0.0367433	204.203
0.0470287	211.295
0.0551433	213.437
0.0673494	217.71
0.115832	224.207
0.216641	231.562
0.315301	234.674
0.426009	237.114
0.506473	237.348
0.603076	239.042
0.69769	241.435
0.800328	243.146
0.898965	245.552
