Adsorption isotherm of Nitrogen on Zn(NDI-SOEt)
DOI: 10.1039/C3ee40876k
Adsorbate Nitrogen: InChIKey IJGRMHOSHXDMSA-UHFFFAOYSA-N
Temperature: 77 K
Tabular data in the source: 0
pressure (bar)	uptake (cm3(STP)/g)
0.0106263	17.6863
0.0123311	70.6573
0.0129789	28.2863
0.0131834	159.643
0.0135472	170.943
0.0136267	110.915
0.0138312	117.272
0.0139335	57.9501
0.0143996	9.92887
0.0146382	79.8448
0.0149224	151.173
0.0150247	91.8516
0.0152746	99.6207
0.015286	37.4738
0.0156497	48.7743
0.0182182	128.584
0.0186501	142.003
0.0186842	205.563
0.019923	181.555
0.0202412	191.443
0.0204912	199.212
0.0249008	211.231
0.0290832	216.186
0.0393004	221.159
0.047415	223.302
0.0596211	227.574
0.0737934	230.441
0.079851	231.164
0.116197	235.507
0.214925	240.738
0.313608	244.556
0.428315	246.302
0.508826	247.948
0.605429	249.642
0.702032	251.335
0.798634	253.028
0.899329	256.852
