Adsorption isotherm of Water on Zn(NDI-NHEt)
DOI: 10.1039/C3ee40876k
Adsorbate Water: InChIKey XLYOFNOQVPJJNP-UHFFFAOYSA-N
Temperature: 293 K
Tabular data in the source: 0
pressure (bar)	uptake (g/g)
0.00448042	0.0167857
0.0049781	0.0180935
0.00557527	0.019412
0.00627253	0.0232492
0.00686936	0.0233138
0.00721753	0.0233515
0.00771616	0.0284211
0.00811531	0.03348
0.00876346	0.0398197
0.00931275	0.0486566
0.00951325	0.0549479
0.00961491	0.0637363
0.00981511	0.0687736
0.0102196	0.0951497
0.0104767	0.129033
0.0108438	0.205562
0.0136422	0.258529
0.0155848	0.270025
0.0176772	0.284044
0.0200183	0.298091
