Adsorption isotherm of Water on Zn(NDI-SOEt)
DOI: 10.1039/C3ee40876k
Adsorbate Water: InChIKey XLYOFNOQVPJJNP-UHFFFAOYSA-N
Temperature: 293 K
Tabular data in the source: 0
pressure (bar)	uptake (cm3(STP)/g)
0.00974075	0.00616388
0.0219125	0.0133568
0.0292388	0.0205394
0.0583701	0.0277681
0.0705088	0.0308653
0.0923882	0.0401265
0.11669	0.0493927
0.143416	0.0586641
0.165312	0.069973
0.182387	0.0843435
0.209194	0.103854
0.231165	0.124378
0.25555	0.143883
0.279861	0.154174
0.299292	0.160358
0.325985	0.165534
0.352676	0.170709
0.376954	0.176904
0.398817	0.184117
0.41337	0.186196
0.457047	0.194479
0.466754	0.196547
0.483747	0.200678
0.507999	0.203801
0.539553	0.211035
0.55896	0.214147
0.641508	0.235823
0.726479	0.257504
0.843071	0.29461
