Adsorption isotherm of Nitrogen on Zn(NDI-SEt)
DOI: 10.1039/C3ee40876k
Adsorbate Nitrogen: InChIKey IJGRMHOSHXDMSA-UHFFFAOYSA-N
Temperature: 77 K
Tabular data in the source: 0
pressure (bar)	uptake (cm3(STP)/g)
0.0106091	105.984
0.01074	114.693
0.0120125	49.3728
0.0121433	58.0827
0.0122743	66.7925
0.0124051	75.5024
0.012536	84.2123
0.0127324	97.2771
0.0131687	126.31
0.0132777	133.568
0.0136776	10.1817
0.013714	162.601
0.0137649	15.9883
0.0138449	171.311
0.0139395	27.6015
0.0139758	180.021
0.0140703	36.3113
0.0157718	149.54
0.0158372	153.895
0.018615	188.737
0.0232323	196.002
0.0278498	203.267
0.0346776	207.632
0.045992	210.553
0.0573065	213.473
0.0708751	216.396
0.109327	225.163
0.21083	229.67
0.312332	234.176
0.422785	234.341
0.49947	237.359
0.5964	237.504
0.69335	239.1
0.7903	240.697
0.889527	243.748
