Adsorption isotherm of Water on Zn(NDI-H)
DOI: 10.1039/C3ee40876k
Adsorbate Water: InChIKey XLYOFNOQVPJJNP-UHFFFAOYSA-N
Temperature: 293 K
Tabular data in the source: 0
pressure (bar)	uptake (g/g)
0.00656908	0.0157578
0.00706739	0.0195735
0.00756539	0.0221352
0.00821291	0.025967
0.00886261	0.0385765
0.00926301	0.0486512
0.00967118	0.0900747
0.00993359	0.145275
0.0103508	0.223064
0.0106167	0.292058
0.0110843	0.372359
0.0135286	0.401464
0.0154711	0.412959
0.0178604	0.420741
0.0203501	0.432296
