Adsorption isotherm of N-propane, Methane on Silica Gel
DOI: 10.1002/aic.690110425
Article source: Figure 4
Adsorbate N-propane: InChIKey ATUOYWHBWRKTHZ-UHFFFAOYSA-N
Adsorbate Methane: InChIKey VNWKTOKETHGBQD-UHFFFAOYSA-N
Kind: experiment
Temperature: 293 K
Tabular data in the source: 0
pressure (bar)	N-propane fraction	N-propane uptake (mmol/g)	Methane fraction	Methane uptake (mmol/g)	total uptake (mmol/g)
7.23949	0.0472	0.745	0.9528	0.667	
14.3411	0.0472	0.98	0.9528	1.06	
27.9927	0.0472	1.24	0.9528	1.49	
41.5754	0.0472	1.31	0.9528	1.81	
55.3649	0.0472	1.29	0.9528	2.01	
69.637	0.0472	1.24	0.9528	2.36	
