Adsorption isotherm of N-propane, Methane on Silica Gel
DOI: 10.1002/aic.690110425
Article source: Figure 3
Adsorbate N-propane: InChIKey ATUOYWHBWRKTHZ-UHFFFAOYSA-N
Adsorbate Methane: InChIKey VNWKTOKETHGBQD-UHFFFAOYSA-N
Kind: experiment
Temperature: 293 K
Tabular data in the source: 0
pressure (bar)	N-propane fraction	N-propane uptake (mmol/g)	Methane fraction	Methane uptake (mmol/g)	total uptake (mmol/g)
7.1016	0.0231	0.426	0.9769	0.747	
14.0653	0.0231	0.579	0.9769	1.18	
27.3722	0.0231	0.73	0.9769	1.81	
41.2306	0.0231	0.764	0.9769	2.04	
55.1581	0.0231	0.769	0.9769	2.34	
69.637	0.0231	0.735	0.9769	2.65	
