Adsorption isotherm of Nitrogen on In-BPnDC
DOI: 10.1016/j.matlet.2013.03.127
Adsorbate Nitrogen: InChIKey IJGRMHOSHXDMSA-UHFFFAOYSA-N
Temperature: 77 K
Tabular data in the source: 0
pressure (bar)	uptake (cm3(STP)/g)
0.000865	0.372114
0.00229475	7.00798
0.0523498	8.38091
0.112416	8.83856
0.201085	10.2115
0.299764	11.8133
0.402735	12.9574
0.505705	14.3303
0.602955	16.6185
0.65301	18.4491
0.705925	20.7374
0.760271	23.9409
0.85323	33.5514
0.906145	42.4755
0.95048	56.6625
0.967641	67.4172
0.976222	80.2313
0.983373	100.368
0.987663	115.699
0.993384	144.759
0.994814	170.388
0.997674	175.65
