Adsorption isotherm of Nitrogen on CAT@ZIF-90
DOI: 10.1021/ja513058h
Article source: Figure 2a
Adsorbate Nitrogen: InChIKey IJGRMHOSHXDMSA-UHFFFAOYSA-N
Kind: experiment
Temperature: 77 K
Tabular data in the source: 0
pressure (bar)	uptake (cm3(STP)/g)
0	0
0.005	234.742
0.015	242.254
0.03	247.887
0.065	251.643
0.09	251.643
0.1	251.643
0.135	253.521
0.14	255.399
0.15	255.399
0.18	253.521
0.205	253.521
0.245	255.399
0.285	255.399
0.295	257.277
0.345	257.277
0.395	259.155
0.445	261.033
0.495	266.667
0.545	270.423
0.6	276.056
0.65	283.568
0.7	291.08
0.75	292.958
0.8	296.714
0.825	298.592
0.855	300.469
0.88	302.347
0.905	302.347
0.93	302.347
0.95	306.103
0.96	306.103
0.975	306.103
0.995	313.615
