Adsorption isotherm of Nitrogen on ZIF-90
DOI: 10.1021/ja513058h
Article source: Figure 2a
Adsorbate Nitrogen: InChIKey IJGRMHOSHXDMSA-UHFFFAOYSA-N
Kind: experiment
Temperature: 77 K
Tabular data in the source: 0
pressure (bar)	uptake (cm3(STP)/g)
0	257.277
0.005	283.568
0.015	287.324
0.025	291.08
0.035	294.836
0.065	294.836
0.09	296.714
0.105	298.592
0.125	298.592
0.14	298.592
0.16	298.592
0.185	298.592
0.2	300.469
0.25	300.469
0.28	302.347
0.305	302.347
0.335	302.347
0.35	304.225
0.395	304.225
0.4	304.225
0.45	307.981
0.495	315.493
0.555	334.272
0.605	345.54
0.63	345.54
0.65	349.296
0.665	351.174
0.705	351.174
0.715	351.174
0.75	353.052
0.8	354.93
0.82	354.93
0.85	354.93
0.88	356.808
0.9	356.808
0.925	356.808
0.95	356.808
0.985	360.563
0.995	362.441
