Adsorption isotherm of Nitrogen on JUC-506 w/Chromic Acid solut.
DOI: 10.1038/s41557-019-0238-5
Article source: Figure S47
Adsorbate Nitrogen: InChIKey IJGRMHOSHXDMSA-UHFFFAOYSA-N
Kind: experiment
Temperature: 77 K
Tabular data in the source: 0
pressure (bar)	uptake (cm3(STP)/g)
0.013719	214.751
0.025483	232.321
0.033316	245.987
0.041158	253.796
0.050956	263.557
0.056833	273.319
0.068597	286.985
0.080351	294.794
0.090149	304.555
0.101913	314.317
0.148948	349.458
0.199904	388.503
0.25086	423.644
0.301817	454.881
0.354739	478.308
0.401774	497.831
0.451747	516.377
0.506625	525.163
0.552677	531.02
0.603634	538.829
0.66145	551.518
0.709468	560.304
0.758468	568.113
0.807469	577.874
0.866258	589.588
0.909382	613.015
0.964249	659.87
1.00443	702.82
