Adsorption isotherm of Nitrogen on JUC-505 w/NaOH (14M)
DOI: 10.1038/s41557-019-0238-5
Article source: Figure S46
Adsorbate Nitrogen: InChIKey IJGRMHOSHXDMSA-UHFFFAOYSA-N
Kind: experiment
Temperature: 77 K
Tabular data in the source: 0
pressure (bar)	uptake (cm3(STP)/g)
0	104.119
0	150.572
0	168.192
0	181.007
0	189.016
0	206.636
0	227.46
0	240.275
0	248.284
0	254.691
0.001935	285.126
0.003871	299.542
0.007731	310.755
0.007731	320.366
0.021268	358.81
0.034805	365.217
0.052213	374.828
0.08412	387.643
0.104415	392.449
0.154693	406.865
0.203035	416.476
0.255248	426.087
0.304553	438.101
0.355803	445.309
0.407043	451.716
0.452477	456.522
0.512431	466.133
0.560773	478.947
0.61104	486.957
0.657447	494.966
0.707725	502.975
0.765743	514.188
0.815048	523.799
0.860492	537.414
0.91076	555.835
0.966843	589.474
1.00842	655.149
