Adsorption isotherm of Nitrogen on JUC-506
DOI: 10.1038/s41557-019-0238-5
Article source: Figure 3 (b)
Adsorbate Nitrogen: InChIKey IJGRMHOSHXDMSA-UHFFFAOYSA-N
Kind: experiment
Temperature: 77 K
Tabular data in the source: 0
pressure (bar)	uptake (cm3(STP)/g)
0	112.01
0	125.735
0	139.461
0.001844	153.186
0.003688	172.059
0.003688	182.353
0.003688	192.647
0.005522	202.941
0.005522	214.951
0.007366	225.245
0.008288	236.397
0.020265	269.853
0.025787	280.147
0.03132	288.725
0.036842	299.02
0.046052	312.745
0.058951	324.755
0.066317	335.049
0.077372	347.917
0.09027	360.784
0.101325	372.794
0.151065	410.539
0.201728	448.284
0.251468	540.931
0.302131	578.676
0.352793	589.828
0.404378	600.98
0.45504	609.559
0.503859	618.137
0.554521	626.716
0.605184	635.294
0.654002	650.735
0.706509	661.029
0.756249	670.466
0.80599	680.76
0.856652	695.343
0.910081	717.647
0.956143	752.819
1.00312	862.623
0.011977	261.275
0.03132	314.461
0.053429	347.059
0.101325	401.961
0.151065	441.422
0.200806	479.167
0.25239	576.961
0.303975	607.843
0.35556	621.569
0.4053	630.147
0.453196	637.01
0.508469	655.882
0.559132	664.461
0.609794	673.039
0.654002	681.618
0.705587	690.196
0.755327	700.49
0.80599	712.5
0.859418	723.652
0.907315	745.956
0.959821	786.275
