Adsorption isotherm of Methane on JUC-506
DOI: 10.1038/s41557-019-0238-5
Article source: Figure S33
Adsorbate Methane: InChIKey VNWKTOKETHGBQD-UHFFFAOYSA-N
Kind: experiment
Temperature: 298 K
Tabular data in the source: 0
pressure (bar)	uptake (Uptake %)
0.00601	0.0404
0.01804	0.0404
0.03407	0.08081
0.04609	0.08081
0.05812	0.12121
0.06613	0.12121
0.07415	0.12121
0.08617	0.12121
0.10421	0.12121
0.15431	0.20202
0.20441	0.28283
0.25351	0.38384
0.30461	0.44444
0.35471	0.52525
0.40481	0.60606
0.45491	0.64646
0.50501	0.72727
0.55311	0.76768
0.60421	0.84848
0.65431	0.92929
0.70541	0.9697
0.75451	1.05051
0.80461	1.09091
0.85371	1.17172
0.90581	1.25253
0.95291	1.29293
1	1.37374
0.09419	0.08081
0.14429	0.12121
0.19439	0.20202
0.24449	0.28283
0.29359	0.34343
0.34469	0.40404
0.39479	0.48485
0.44489	0.56566
0.49499	0.64646
0.54509	0.70707
0.59519	0.76768
0.64529	0.84848
0.69439	0.94949
0.74449	0.9899
0.79559	1.07071
0.84469	1.15152
0.89579	1.21212
0.94589	1.27273
0.98998	1.33333
