Adsorption isotherm of Nitrogen on JUC-506
DOI: 10.1038/s41557-019-0238-5
Article source: Figure S33
Adsorbate Nitrogen: InChIKey IJGRMHOSHXDMSA-UHFFFAOYSA-N
Kind: experiment
Temperature: 298 K
Tabular data in the source: 0
pressure (bar)	uptake (Uptake %)
0	0
0.01002	0
0.03206	0
0.04409	0
0.05812	0
0.06814	0
0.07816	0
0.08617	0
0.1002	0
0.15631	0
0.20441	0.0404
0.25451	0.08081
0.30661	0.16162
0.35471	0.24242
0.40681	0.28283
0.45491	0.30303
0.50301	0.36364
0.55311	0.44444
0.60521	0.48485
0.65531	0.52525
0.70541	0.56566
0.75551	0.64646
0.80561	0.68687
0.85571	0.74747
0.90481	0.80808
0.95491	0.86869
1	0.92929
0.04409	0
0.09419	0
0.14329	0
0.19439	0
0.24449	0.0202
0.29459	0.08081
0.34469	0.12121
0.39379	0.18182
0.44489	0.24242
0.49399	0.32323
0.54509	0.36364
0.59419	0.40404
0.64429	0.48485
0.69439	0.54545
0.74449	0.58586
0.79459	0.66667
0.84469	0.72727
0.89479	0.80808
0.94489	0.84848
0.98998	0.88889
