Adsorption isotherm of Nitrogen on JUC-506 w/HF (40%)
DOI: 10.1038/s41557-019-0238-5
Article source: Figure S47
Adsorbate Nitrogen: InChIKey IJGRMHOSHXDMSA-UHFFFAOYSA-N
Kind: experiment
Temperature: 77 K
Tabular data in the source: 0
pressure (bar)	uptake (cm3(STP)/g)
0.007843	220.607
0.017641	251.844
0.027439	271.367
0.039193	286.985
0.050956	296.746
0.06272	306.508
0.072518	318.221
0.084272	335.792
0.09407	341.649
0.150913	378.742
0.202843	413.883
0.252826	503.688
0.299861	536.876
0.356694	548.59
0.399808	560.304
0.460573	570.065
0.507608	577.874
0.554643	585.683
0.600695	595.445
0.652634	609.111
0.707512	616.92
0.768266	630.586
0.807469	638.395
0.854504	654.013
0.909382	673.536
0.95053	706.724
1.00541	818.004
