Adsorption isotherm of Nitrogen on JUC-506 w/18M H2SO4
DOI: 10.1038/s41557-019-0238-5
Article source: Figure S47
Adsorbate Nitrogen: InChIKey IJGRMHOSHXDMSA-UHFFFAOYSA-N
Kind: experiment
Temperature: 77 K
Tabular data in the source: 0
pressure (bar)	uptake (cm3(STP)/g)
0.150913	388.503
0.199904	437.31
0.25086	529.067
0.307704	550.542
0.352773	562.256
0.403729	575.922
0.455669	582.755
0.506625	591.54
0.56052	601.302
0.650679	618.872
0.711433	628.633
0.764345	638.395
0.858425	655.965
0.911337	681.345
0.970136	716.486
0.993654	767.245
