Adsorption isotherm of Methane on JUC-506
DOI: 10.1038/s41557-019-0238-5
Article source: Figure 3 (d)
Adsorbate Methane: InChIKey VNWKTOKETHGBQD-UHFFFAOYSA-N
Kind: experiment
Temperature: 273 K
Tabular data in the source: 0
pressure (bar)	uptake (mg/g)
0.04576	2.83688
0.06482	2.83688
0.0858	3.30969
0.10486	3.78251
0.15443	4.72813
0.20591	5.67376
0.25548	7.0922
0.30505	7.56501
0.35462	8.74704
0.40419	8.98345
0.45567	10.1655
0.50524	9.92908
0.55481	11.3475
0.60439	12.2931
0.65396	13.7116
0.70448	14.6572
0.7531	15.13
0.80267	15.6028
0.85224	16.5485
0.90372	17.4941
0.95329	17.4941
0.99714	18.9125
0.04766	2.83688
0.09724	3.78251
0.14681	4.72813
0.19447	5.67376
0.245	6.61939
0.29552	7.56501
0.34509	8.51064
0.39466	8.98345
0.44423	9.92908
0.49571	10.8747
0.54528	11.8203
0.59485	12.2931
0.64252	12.766
0.69399	13.7116
0.74357	14.6572
0.79314	15.13
0.84366	16.3121
0.89418	17.0213
0.94376	17.4941
0.98761	19.3853
