Adsorption isotherm of Nitrogen on JUC-505
DOI: 10.1038/s41557-019-0238-5
Article source: Figure 3 (a)
Adsorbate Nitrogen: InChIKey IJGRMHOSHXDMSA-UHFFFAOYSA-N
Kind: experiment
Temperature: 77 K
Tabular data in the source: 0
pressure (bar)	uptake (cm3(STP)/g)
0	112.529
0	159.861
0	183.527
0	194.664
0	204.408
0	222.506
0	239.211
0	250.348
0	260.093
0	268.445
0.003607	301.856
0.003607	317.169
0.005411	322.738
0.007214	332.483
0.021633	356.148
0.028847	364.501
0.048677	377.03
0.07032	386.775
0.081131	392.343
0.102764	400.696
0.152352	417.401
0.201029	430.626
0.252411	443.852
0.304694	456.381
0.353371	467.517
0.404763	478.654
0.454341	491.183
0.504821	500.928
0.557105	516.241
0.608487	527.378
0.658075	537.123
0.706752	549.652
0.759036	562.181
0.807712	574.71
0.860898	591.415
0.910486	612.993
0.960966	651.276
1.00243	713.921
0.052284	390.951
0.099157	413.225
0.15145	429.93
0.201931	442.459
0.250607	456.381
0.302891	467.517
0.353371	478.654
0.405665	487.007
0.455243	498.84
0.504821	509.977
0.557105	525.986
0.605782	534.339
0.656272	545.476
0.707654	556.613
0.759036	569.142
0.811319	583.063
0.859996	599.768
0.910486	622.042
0.959163	662.413
