Adsorption isotherm of Carbon Dioxide on JUC-505
DOI: 10.1038/s41557-019-0238-5
Article source: Figure S32
Adsorbate Carbon Dioxide: InChIKey CURLTUGMZLYLDI-UHFFFAOYSA-N
Kind: experiment
Temperature: 298 K
Tabular data in the source: 0
pressure (bar)	uptake (Uptake %)
0.00204	0.30151
0.00611	0.50251
0.00815	0.67839
0.01018	0.90452
0.01731	1.33166
0.02037	1.55779
0.03055	1.9598
0.04073	2.51256
0.05092	2.91457
0.06008	3.36683
0.06925	3.79397
0.08045	4.17085
0.09063	4.54774
0.10387	4.94975
0.14868	6.38191
0.19857	7.73869
0.25051	8.89447
0.30041	9.92462
0.35031	10.8794
0.4002	11.7337
0.4501	12.5126
0.50102	13.2915
0.55092	13.995
0.60183	14.6482
0.65173	15.2764
0.70163	15.8543
0.75153	16.4573
0.80244	16.9849
0.85234	17.5126
0.90326	17.99
0.95316	18.4925
0.99796	18.8945
0.05092	3.31658
0.0998	5.27638
0.14664	6.83417
0.19756	8.1407
0.24644	9.34673
0.29633	10.3769
0.34623	11.3065
0.39715	12.1608
0.44603	12.9648
0.49491	13.6683
0.54582	14.3216
0.5947	14.9749
0.6446	15.5779
0.6945	16.1306
0.7444	16.6332
0.7943	17.1357
0.84521	17.6382
0.89409	18.0905
0.94399	18.5176
0.98778	18.8442
