Adsorption isotherm of Methane on JUC-505
DOI: 10.1038/s41557-019-0238-5
Article source: Figure S32
Adsorbate Methane: InChIKey VNWKTOKETHGBQD-UHFFFAOYSA-N
Kind: experiment
Temperature: 298 K
Tabular data in the source: 0
pressure (bar)	uptake (Uptake %)
0.00305	0.1005
0.00815	0.15075
0.01833	0.15075
0.02851	0.15075
0.03462	0.15075
0.04481	0.15075
0.05295	0.20101
0.06314	0.20101
0.07332	0.27638
0.0835	0.25126
0.09369	0.30151
0.10387	0.25126
0.15275	0.35176
0.20367	0.37688
0.25458	0.50251
0.30346	0.60302
0.35438	0.70352
0.40326	0.77889
0.45316	0.85427
0.50305	0.90452
0.55295	1.00503
0.60489	1.0804
0.65377	1.15578
0.70468	1.20603
0.75356	1.25628
0.80346	1.35678
0.85336	1.40704
0.90428	1.45729
0.95316	1.55779
0.99898	1.60804
0.14664	0.30151
0.19348	0.40201
0.2444	0.50251
0.29532	0.57789
0.34521	0.67839
0.39511	0.75377
0.44399	0.80402
0.49491	0.8794
0.54582	0.95477
0.5947	1.05528
0.6446	1.10553
0.6945	1.15578
0.74542	1.20603
0.79532	1.30653
0.84521	1.35678
0.89409	1.45729
0.94399	1.53266
0.9888	1.55779
