Adsorption isotherm of Nitrogen on JUC-505
DOI: 10.1038/s41557-019-0238-5
Article source: Figure S32
Adsorbate Nitrogen: InChIKey IJGRMHOSHXDMSA-UHFFFAOYSA-N
Kind: experiment
Temperature: 298 K
Tabular data in the source: 0
pressure (bar)	uptake (Uptake %)
0	0
0.01222	0
0.02037	0
0.03462	0
0.05092	0
0.0611	0
0.06925	0
0.07739	0.05025
0.08758	0.05025
0.10183	0.05025
0.15479	0.15075
0.2057	0.20101
0.25255	0.25126
0.30346	0.35176
0.35438	0.35176
0.40428	0.37688
0.45418	0.45226
0.50509	0.50251
0.55397	0.55276
0.60387	0.57789
0.65479	0.62814
0.70367	0.65327
0.75356	0.70352
0.80448	0.75377
0.8554	0.80402
0.90326	0.85427
0.95316	0.90452
1	0.90452
0.04481	0
0.09369	0
0.14257	0.05025
0.19348	0.15075
0.24338	0.20101
0.29328	0.25126
0.3442	0.32663
0.39409	0.35176
0.44399	0.42714
0.49287	0.45226
0.54379	0.50251
0.59369	0.55276
0.64358	0.55276
0.69348	0.62814
0.74338	0.65327
0.79328	0.72864
0.84318	0.77889
0.89409	0.80402
0.94399	0.85427
0.98778	0.90452
