Adsorption isotherm of Nitrogen on JUC-506 w/MeONa (5M)
DOI: 10.1038/s41557-019-0238-5
Article source: Figure S47
Adsorbate Nitrogen: InChIKey IJGRMHOSHXDMSA-UHFFFAOYSA-N
Kind: experiment
Temperature: 77 K
Tabular data in the source: 0
pressure (bar)	uptake (cm3(STP)/g)
0.023518	240.13
0.035281	263.557
0.045079	279.176
0.058799	296.746
0.068597	310.412
0.078395	322.126
0.090149	335.792
0.103868	345.553
0.150913	388.503
0.20187	423.644
0.252826	515.401
0.305738	556.399
0.354739	573.97
0.399808	583.731
0.45273	591.54
0.507608	597.397
0.554643	605.206
0.605599	611.063
0.65459	624.729
0.711433	632.538
0.756513	638.395
0.805503	650.108
0.870179	659.87
0.903495	683.297
0.964249	747.722
1.00933	788.72
