Adsorption isotherm of Nitrogen on JUC-505 w/LiAlH (2.4M)
DOI: 10.1038/s41557-019-0238-5
Article source: Figure S46
Adsorbate Nitrogen: InChIKey IJGRMHOSHXDMSA-UHFFFAOYSA-N
Kind: experiment
Temperature: 77 K
Tabular data in the source: 0
pressure (bar)	uptake (cm3(STP)/g)
0	126.545
0	142.563
0	148.97
0	160.183
0	179.405
0	198.627
0	208.238
0	222.654
0.001935	251.487
0.003871	267.506
0.009666	283.524
0.023203	304.348
0.030935	310.755
0.048342	318.764
0.081212	333.181
0.104415	341.19
0.152758	357.208
0.2011	368.421
0.253312	376.43
0.30359	387.643
0.353867	398.856
0.404135	409.268
0.454412	419.68
0.50469	429.291
0.557865	442.906
0.60718	453.318
0.659383	462.929
0.707725	474.142
0.758002	488.558
0.80828	499.771
0.862428	518.993
0.909797	539.016
0.961037	575.057
1.00358	621.51
