Adsorption isotherm of Nitrogen on JUC-505
DOI: 10.1038/s41557-019-0238-5
Article source: Figure 3 (c)
Adsorbate Nitrogen: InChIKey IJGRMHOSHXDMSA-UHFFFAOYSA-N
Kind: experiment
Temperature: 273 K
Tabular data in the source: 0
pressure (bar)	uptake (mg/g)
0.00273	0.51151
0.02279	0.51151
0.06472	1.02302
0.07931	1.53453
0.10665	1.53453
0.15406	2.04604
0.2051	2.04604
0.25433	3.06905
0.30356	3.58056
0.35096	4.60358
0.40383	4.60358
0.45305	5.11509
0.50593	6.13811
0.55333	6.64962
0.60438	6.64962
0.65542	7.67263
0.70647	8.18414
0.75387	8.18414
0.80128	9.20716
0.85232	9.20716
0.90337	10.2302
0.95442	10.2302
0.99818	10.2302
0.04376	0
0.0948	1.02302
0.14403	1.53453
0.19417	2.04604
0.24339	3.06905
0.29444	3.58056
0.34549	4.09207
0.39471	5.11509
0.44576	4.60358
0.4959	5.6266
0.54421	6.39386
0.59344	6.64962
0.64448	7.16113
0.69371	7.67263
0.74476	8.18414
0.79398	8.69565
0.84503	9.20716
0.89426	9.71867
0.94531	10.2302
0.98906	10.7417
