Adsorption isotherm of Nitrogen on JUC-505 w/12M HCl
DOI: 10.1038/s41557-019-0238-5
Article source: Figure S46
Adsorbate Nitrogen: InChIKey IJGRMHOSHXDMSA-UHFFFAOYSA-N
Kind: experiment
Temperature: 77 K
Tabular data in the source: 0
pressure (bar)	uptake (cm3(STP)/g)
0	172.998
0	187.414
0	206.636
0	235.469
0	265.904
0.007731	336.384
0.034805	355.606
0.044472	370.023
0.077352	384.439
0.108286	395.652
0.148897	410.069
0.203035	427.689
0.253312	443.707
0.305525	458.124
0.355803	469.336
0.409941	483.753
0.454412	494.966
0.512431	507.78
0.554967	524.6
0.60718	536.613
0.655522	549.428
0.70966	562.243
0.759937	575.057
0.804409	589.474
0.858557	607.094
0.920436	629.519
0.957177	671.167
1.00358	744.851
