Adsorption isotherm of Nitrogen on JUC-505-COOH
DOI: 10.1038/s41557-019-0238-5
Article source: Figure S26
Adsorbate Nitrogen: InChIKey IJGRMHOSHXDMSA-UHFFFAOYSA-N
Kind: experiment
Temperature: 77 K
Tabular data in the source: 0
pressure (bar)	uptake (cm3(STP)/g)
0	98.6682
0	138.291
0	155.383
0	167.814
0	177.137
0	195.782
0.000942	212.875
0.001895	226.859
0	234.628
0.001895	243.951
0.002837	268.812
0.004722	282.797
0.005674	292.12
0.009454	299.889
0.022687	315.427
0.030246	321.643
0.050095	332.519
0.069945	341.842
0.083178	346.504
0.103027	352.719
0.151228	366.704
0.202275	380.688
0.253312	393.896
0.30435	406.326
0.354445	418.757
0.406435	430.411
0.457472	442.841
0.507567	453.718
0.557662	466.149
0.606815	479.356
0.657853	491.01
0.7089	504.218
0.758043	516.648
0.80909	531.41
0.862022	548.502
0.911165	571.809
0.960318	613.763
1.00096	722.531
0.049153	352.719
0.102085	372.919
0.151228	386.903
0.201323	400.111
0.25237	413.319
0.302465	425.749
0.353503	436.626
0.403598	447.503
0.455588	459.156
0.505683	480.133
0.555778	492.564
0.606815	503.441
0.658805	515.094
0.7089	528.302
0.759937	540.733
0.810975	554.717
0.856348	568.701
0.90928	598.224
0.960318	656.493
1.00096	722.531
