Adsorption isotherm of Nitrogen on JUC-506 w/NaOH (14M)
DOI: 10.1038/s41557-019-0238-5
Article source: Figure S47
Adsorbate Nitrogen: InChIKey IJGRMHOSHXDMSA-UHFFFAOYSA-N
Kind: experiment
Temperature: 77 K
Tabular data in the source: 0
pressure (bar)	uptake (cm3(STP)/g)
0	74.1865
0.148948	380.694
0.197949	435.358
0.252826	507.592
0.301817	544.685
0.352773	554.447
0.407651	564.208
0.460573	573.97
0.505642	583.731
0.558564	593.492
0.603634	605.206
0.65459	618.872
0.709468	632.538
0.759451	640.347
0.80452	653.037
0.862337	667.679
0.913293	689.154
0.960338	751.627
1.00149	855.098
