Adsorption isotherm of Nitrogen on JUC-506 w/LiAlH (2.4M)
DOI: 10.1038/s41557-019-0238-5
Article source: Figure S47
Adsorbate Nitrogen: InChIKey IJGRMHOSHXDMSA-UHFFFAOYSA-N
Kind: experiment
Temperature: 77 K
Tabular data in the source: 0
pressure (bar)	uptake (cm3(STP)/g)
0	89.8048
0	105.423
0	122.993
0	138.612
0.001956	154.23
0.003921	173.753
0.005877	191.323
0.007843	204.989
0.017641	230.369
0.023518	244.035
0.027439	251.844
0.035281	261.605
0.047035	273.319
0.058799	288.937
0.070553	300.651
0.080351	310.412
0.088193	320.174
0.097009	331.887
0.150913	367.028
0.199904	402.169
0.25086	452.928
0.299861	497.831
0.353756	520.282
0.399808	538.829
0.455669	558.351
0.507608	566.161
0.556598	575.922
0.603634	583.731
0.662432	599.349
0.707512	605.206
0.758468	616.92
0.803548	628.633
0.852538	638.395
0.913293	659.87
0.964249	693.059
0.999531	759.436
