Adsorption isotherm of Carbon Dioxide on JUC-505
DOI: 10.1038/s41557-019-0238-5
Article source: Figure 3 (c)
Adsorbate Carbon Dioxide: InChIKey CURLTUGMZLYLDI-UHFFFAOYSA-N
Kind: experiment
Temperature: 273 K
Tabular data in the source: 0
pressure (bar)	uptake (mg/g)
0.00273	4.60358
0.00547	8.18414
0.00912	12.7877
0.01185	17.3913
0.02097	26.3427
0.02917	35.2941
0.04011	42.9668
0.05014	50.1279
0.06016	56.7775
0.07019	62.9156
0.08113	68.0307
0.09207	73.1458
0.10301	78.7724
0.14676	97.1867
0.19872	113.811
0.24886	127.877
0.29991	140.665
0.35096	150.895
0.40201	160.614
0.45123	169.309
0.50228	176.982
0.5515	184.143
0.60255	191.049
0.6536	197.442
0.701	203.325
0.75205	209.207
0.80219	214.066
0.85141	218.926
0.90155	223.785
0.9526	227.621
0.99818	231.458
0.04649	52.1739
0.10119	82.8644
0.15041	102.302
0.19781	118.67
0.24886	132.992
0.29809	144.757
0.34913	154.987
0.39745	164.962
0.44758	173.146
0.49681	180.563
0.54512	187.98
0.59708	194.373
0.64631	200.512
0.69644	205.882
0.74476	211.253
0.79398	215.857
0.84503	219.949
0.89517	224.552
0.94531	228.389
0.98906	231.458
