Adsorption isotherm of Nitrogen on JUC-505 w/Chromic Acid solut.
DOI: 10.1038/s41557-019-0238-5
Article source: Figure S46
Adsorbate Nitrogen: InChIKey IJGRMHOSHXDMSA-UHFFFAOYSA-N
Kind: experiment
Temperature: 77 K
Tabular data in the source: 0
pressure (bar)	uptake (cm3(STP)/g)
0.011602	193.822
0.025139	208.238
0.030935	229.062
0.050277	252.288
0.081212	277.117
0.100555	294.737
0.154693	317.162
0.2011	339.588
0.255248	352.403
0.305525	365.217
0.350959	371.625
0.403172	378.032
0.454412	384.439
0.50856	389.245
0.553032	400.458
0.609115	406.865
0.651651	411.67
0.715466	419.68
0.761873	427.689
0.816011	437.3
0.858557	451.716
0.908835	477.346
0.957177	510.984
1.00165	557.437
