Adsorption isotherm of Carbon Dioxide on JUC-506
DOI: 10.1038/s41557-019-0238-5
Article source: Figure 3 (d)
Adsorbate Carbon Dioxide: InChIKey CURLTUGMZLYLDI-UHFFFAOYSA-N
Kind: experiment
Temperature: 273 K
Tabular data in the source: 0
pressure (bar)	uptake (mg/g)
0.00572	7.0922
0.00953	10.8747
0.01907	18.4397
0.03337	26.0047
0.04194	31.2057
0.05338	36.1702
0.06292	40.4255
0.07436	44.6809
0.08389	48.6998
0.09152	52.4823
0.10486	56.7376
0.15443	71.3948
0.204	84.87
0.25357	96.9267
0.3041	106.856
0.35558	117.494
0.40419	126.241
0.45377	134.752
0.50334	142.553
0.55291	150.355
0.60439	157.21
0.653	163.83
0.70257	170.213
0.7531	176.359
0.80267	182.979
0.85224	188.652
0.90181	193.853
0.95138	199.527
0.99905	203.31
0.04671	43.9716
0.09724	64.7754
0.14776	80.8511
0.19447	94.5627
0.24595	106.856
0.29552	117.258
0.34604	126.95
0.39657	136.17
0.44614	143.735
0.49476	152.009
0.54528	159.338
0.59676	165.485
0.64633	171.631
0.69399	177.305
0.74547	182.979
0.79504	187.234
0.84461	192.435
0.89418	196.69
0.94376	200.946
0.98761	203.31
