Adsorption isotherm of Nitrogen on JUC-506
DOI: 10.1038/s41557-019-0238-5
Article source: Figure 3 (d)
Adsorbate Nitrogen: InChIKey IJGRMHOSHXDMSA-UHFFFAOYSA-N
Kind: experiment
Temperature: 273 K
Tabular data in the source: 0
pressure (bar)	uptake (mg/g)
0.00763	0
0.02479	0
0.03432	0
0.06292	0
0.07626	0.47281
0.09533	0.47281
0.10867	0.47281
0.15634	1.89125
0.20591	2.36407
0.25739	3.30969
0.30505	3.78251
0.35462	4.25532
0.40229	4.72813
0.45377	5.43735
0.50334	6.61939
0.55291	7.0922
0.60439	7.56501
0.65396	8.03783
0.70543	8.98345
0.7531	9.69267
0.80458	9.92908
0.85224	10.4019
0.90181	11.3475
0.95329	11.8203
0.99523	12.2931
0.04576	0
0.09533	0.47281
0.14681	1.41844
0.19638	1.89125
0.24595	2.36407
0.29552	2.83688
0.34509	3.78251
0.39657	4.72813
0.44423	5.67376
0.4938	6.14657
0.54528	6.61939
0.59295	7.0922
0.64442	8.03783
0.69304	8.51064
0.74357	9.45626
0.79504	9.92908
0.84271	10.8747
0.89228	11.3475
0.9428	11.8203
0.98856	12.2931
