Adsorption isotherm of Methane on JUC-505
DOI: 10.1038/s41557-019-0238-5
Article source: Figure 3 (c)
Adsorbate Methane: InChIKey VNWKTOKETHGBQD-UHFFFAOYSA-N
Kind: experiment
Temperature: 273 K
Tabular data in the source: 0
pressure (bar)	uptake (mg/g)
0.04649	3.06905
0.05561	3.58056
0.06837	3.58056
0.07748	3.58056
0.09025	3.58056
0.10301	4.09207
0.15223	5.11509
0.20328	6.64962
0.25433	7.67263
0.30447	8.4399
0.35278	9.20716
0.40201	9.97442
0.45397	11.2532
0.50228	12.2762
0.55333	13.2992
0.60255	14.3223
0.6536	14.8338
0.70283	15.3453
0.75387	16.8798
0.8031	16.8798
0.85415	17.6471
0.90428	18.9258
0.9526	19.4373
0.99818	19.9489
0.095716	3.58056
0.147675	5.11509
0.194166	6.13811
0.245214	7.67263
0.295351	7.92839
0.345488	9.20716
0.394713	9.71867
0.445761	10.9974
0.493163	11.7647
0.544211	12.2762
0.59526	13.2992
0.646308	14.8338
0.69371	15.3453
0.744758	15.8568
0.793984	16.8798
0.84412	17.3913
0.894257	18.4143
0.944394	19.1816
0.989061	19.4373
