Adsorption isotherm of Nitrogen on JUC-505 w/boiling water
DOI: 10.1038/s41557-019-0238-5
Article source: Figure S46
Adsorbate Nitrogen: InChIKey IJGRMHOSHXDMSA-UHFFFAOYSA-N
Kind: experiment
Temperature: 77 K
Tabular data in the source: 0
pressure (bar)	uptake (cm3(STP)/g)
0.251377	434.096
0.307461	445.309
0.355803	458.924
0.408005	472.54
0.458283	483.753
0.502754	496.568
0.553032	514.188
0.61104	528.604
0.653587	543.021
0.708697	555.835
0.756067	571.854
0.816011	584.668
0.866288	605.492
0.91463	626.316
0.962973	667.963
1.00165	730.435
