Adsorption isotherm of Nitrogen on JUC-506 w/12M HCl
DOI: 10.1038/s41557-019-0238-5
Article source: Figure S47
Adsorbate Nitrogen: InChIKey IJGRMHOSHXDMSA-UHFFFAOYSA-N
Kind: experiment
Temperature: 77 K
Tabular data in the source: 0
pressure (bar)	uptake (cm3(STP)/g)
0.003921	234.273
0.021562	275.271
0.029394	286.985
0.037237	302.603
0.047035	314.317
0.056833	327.983
0.066631	341.649
0.07644	351.41
0.089176	366.052
0.101913	376.79
0.150913	415.835
0.20187	472.451
0.252826	546.638
0.303782	585.683
0.354739	593.492
0.400791	603.254
0.456652	614.967
0.507608	624.729
0.554643	636.443
0.611476	644.252
0.663415	661.822
0.712406	672.56
0.765328	682.321
0.81138	695.011
0.854504	708.677
0.907416	734.056
0.962294	794.577
0.995609	896.095
