Adsorption isotherm of Carbon Dioxide on JUC-506
DOI: 10.1038/s41557-019-0238-5
Article source: Figure S33
Adsorbate Carbon Dioxide: InChIKey CURLTUGMZLYLDI-UHFFFAOYSA-N
Kind: experiment
Temperature: 298 K
Tabular data in the source: 0
pressure (bar)	uptake (Uptake %)
0.002	0.40404
0.00601	0.56566
0.01804	1.0101
0.03206	1.41414
0.04108	1.73737
0.0521	2.0202
0.06212	2.30303
0.07214	2.54545
0.08216	2.82828
0.09218	3.07071
0.10421	3.35354
0.1523	4.40404
0.2024	5.37374
0.25251	6.30303
0.30261	7.11111
0.35271	7.89899
0.40281	8.64646
0.45291	9.35354
0.50301	10.101
0.55311	10.7475
0.60421	11.3939
0.65331	12.0404
0.70341	12.6465
0.75351	13.2323
0.80361	13.8384
0.85371	14.3636
0.90481	14.9495
0.95391	15.4747
1	15.9192
0.04409	2.62626
0.09419	3.9798
0.14429	5.09091
0.19439	6.12121
0.24449	7.09091
0.29459	7.87879
0.34469	8.68687
0.39479	9.43434
0.44489	10.1414
0.49499	10.7879
0.54509	11.4545
0.59519	12.0404
0.64429	12.6061
0.69439	13.1313
0.74549	13.697
0.79559	14.1414
0.84569	14.6465
0.89579	15.1515
0.94589	15.5556
0.98998	15.9192
