Adsorption isotherm of Nitrogen on JUC-505 w/MeONa (5M)
DOI: 10.1038/s41557-019-0238-5
Article source: Figure S46
Adsorbate Nitrogen: InChIKey IJGRMHOSHXDMSA-UHFFFAOYSA-N
Kind: experiment
Temperature: 77 K
Tabular data in the source: 0
pressure (bar)	uptake (cm3(STP)/g)
0.011602	299.542
0.025139	333.181
0.03287	339.588
0.050277	352.403
0.081212	366.819
0.10249	373.227
0.154693	389.245
0.20497	400.458
0.255248	413.272
0.30359	424.485
0.35483	434.096
0.408005	444.508
0.450552	456.522
0.510496	464.531
0.5598	478.947
0.609115	488.558
0.663253	498.169
0.711595	509.382
0.754132	520.595
0.802474	531.808
0.856622	547.826
0.906899	567.048
0.957177	605.492
1.01325	640.732
