Adsorption isotherm of Nitrogen on JUC-505 w/HF (40%)
DOI: 10.1038/s41557-019-0238-5
Article source: Figure S46
Adsorbate Nitrogen: InChIKey IJGRMHOSHXDMSA-UHFFFAOYSA-N
Kind: experiment
Temperature: 77 K
Tabular data in the source: 0
pressure (bar)	uptake (cm3(STP)/g)
0.001935	288.33
0.005806	309.153
0.009666	323.57
0.027074	339.588
0.050277	350.801
0.081212	368.421
0.100555	376.43
0.152758	392.449
0.2011	408.467
0.253312	422.883
0.30359	435.698
0.351932	450.114
0.407043	459.725
0.454412	470.938
0.502754	480.549
0.562698	496.568
0.603309	507.78
0.655522	520.595
0.703864	531.808
0.761873	544.622
0.81215	559.039
0.856622	573.455
0.91076	597.483
0.957177	635.927
1.00165	691.991
