Adsorption isotherm of Nitrogen on JUC-505-NH2
DOI: 10.1038/s41557-019-0238-5
Article source: Figure S26
Adsorbate Nitrogen: InChIKey IJGRMHOSHXDMSA-UHFFFAOYSA-N
Kind: experiment
Temperature: 77 K
Tabular data in the source: 0
pressure (bar)	uptake (cm3(STP)/g)
0.001854	211.91
0.003719	250.215
0.003719	266.738
0.009292	277.253
0.009292	283.262
0.022312	299.785
0.031603	307.296
0.050196	317.811
0.070644	326.824
0.083664	331.33
0.102257	338.841
0.152454	352.361
0.203582	365.88
0.252846	374.893
0.303043	386.159
0.353239	395.923
0.404368	406.438
0.456429	420.708
0.505693	430.472
0.557754	442.489
0.606096	451.502
0.660011	462.017
0.710207	474.034
0.760404	487.554
0.808746	509.335
0.860796	526.609
0.911925	552.897
0.963054	612.232
1.00209	806.009
0.050196	356.867
0.100393	376.395
0.149667	390.665
0.198931	403.433
0.252846	413.948
0.303043	424.464
0.351385	434.979
0.403446	445.494
0.455496	457.511
0.503839	477.039
0.557754	490.558
0.60795	501.073
0.658146	510.837
0.708343	517.597
0.758539	529.614
0.8106	546.137
0.858942	567.918
0.910993	604.721
0.962121	691.094
1.00209	806.76
