Adsorption isotherm of Nitrogen on JUC-505 w/18M H2SO4
DOI: 10.1038/s41557-019-0238-5
Article source: Figure S46
Adsorbate Nitrogen: InChIKey IJGRMHOSHXDMSA-UHFFFAOYSA-N
Kind: experiment
Temperature: 77 K
Tabular data in the source: 0
pressure (bar)	uptake (cm3(STP)/g)
0.017408	341.19
0.030935	349.199
0.050277	360.412
0.081212	374.828
0.09862	382.838
0.152758	402.06
0.203035	414.874
0.352895	447.712
0.404135	457.323
0.454412	467.735
0.500819	477.346
0.560773	493.364
0.61104	501.373
0.667124	514.188
0.717401	522.197
0.761873	535.011
0.802474	547.826
0.858557	563.844
0.906899	584.668
0.957177	621.51
0.997778	687.185
