Adsorption isotherm of Nitrogen on JUC-506 w/boiling water
DOI: 10.1038/s41557-019-0238-5
Article source: Figure S47
Adsorbate Nitrogen: InChIKey IJGRMHOSHXDMSA-UHFFFAOYSA-N
Kind: experiment
Temperature: 77 K
Tabular data in the source: 0
pressure (bar)	uptake (cm3(STP)/g)
0.005877	242.082
0.017641	273.319
0.023518	292.842
0.035281	304.555
0.045079	322.126
0.056833	331.887
0.064676	345.553
0.07644	353.362
0.086238	367.028
0.099957	378.742
0.148948	419.74
0.20187	456.833
0.248905	548.59
0.305738	579.826
0.350818	589.588
0.399808	599.349
0.45273	613.015
0.507608	628.633
0.556598	638.395
0.603634	648.156
0.660477	663.774
0.711433	677.44
0.752591	689.154
0.800609	701.844
0.851566	718.438
0.917214	741.866
0.954451	806.291
0.986794	880.477
