Adsorption isotherm of Hydrogen on Cr-MOF fiber
DOI: 10.1016/j.ijhydene.2015.05.088
Article source: Figure 2d
Adsorbate Hydrogen: InChIKey UFHFLCQGNIYNRP-UHFFFAOYSA-N
Kind: experiment
Temperature: 77 K
Tabular data in the source: 0
pressure (bar)	uptake (wt%)
0.013636	0.090032
0.027273	0.173633
0.045455	0.237942
0.063636	0.289389
0.081818	0.334405
0.102273	0.37299
0.122727	0.405145
0.147727	0.437299
0.168182	0.475884
0.190909	0.501608
0.213636	0.527331
0.236364	0.553055
0.259091	0.578778
0.284091	0.604502
0.306818	0.623794
0.329545	0.649518
0.352273	0.662379
0.379545	0.681672
0.402273	0.707395
0.425	0.720257
0.45	0.73955
0.472727	0.758842
0.497727	0.765273
0.522727	0.790997
0.55	0.797428
0.572727	0.81672
0.595455	0.829582
0.625	0.842444
0.647727	0.855305
0.677273	0.874598
0.702273	0.881029
0.731818	0.893891
0.756818	0.906752
0.781818	0.926045
0.809091	0.938907
0.838636	0.951768
0.861364	0.958199
0.888636	0.971061
0.918182	0.983923
0.929545	0.990354
