Adsorption isotherm of Nitrogen on Zr-MOF fiber
DOI: 10.1016/j.ijhydene.2015.05.088
Article source: Figure 2a
Adsorbate Nitrogen: InChIKey IJGRMHOSHXDMSA-UHFFFAOYSA-N
Kind: experiment
Temperature: 77 K
Tabular data in the source: 0
pressure (bar)	uptake (cm3(STP)/g)
0.000122	21.2502
0.000237	41.2503
0.00071	123.751
0.003096	140.004
0.010063	155.013
0.017016	167.521
0.035486	188.794
0.072284	206.34
0.131968	215.165
0.203076	216.504
0.265025	220.331
0.31777	219.147
0.375117	220.469
0.434758	221.793
0.519628	223.15
0.581562	224.477
0.622847	224.529
0.664146	227.08
0.72608	228.408
0.746716	227.183
0.767365	228.459
0.808657	229.761
0.85225	232.315
0.870591	231.088
0.902709	232.378
0.902744	238.628
0.932554	237.416
0.948631	241.186
0.948724	257.436
0.964736	249.956
0.978591	266.223
0.985629	293.732
0.997305	329.997
