Adsorption isotherm of Nitrogen on Cr-MOF fiber
DOI: 10.1016/j.ijhydene.2015.05.088
Article source: Figure 2c
Adsorbate Nitrogen: InChIKey IJGRMHOSHXDMSA-UHFFFAOYSA-N
Kind: experiment
Temperature: 77 K
Tabular data in the source: 0
pressure (bar)	uptake (cm3(STP)/g)
0.002278	0.002278
0.004556	150.993
0.01139	198.675
0.018223	210.596
0.034169	242.384
0.066059	274.172
0.125285	333.775
0.307517	409.272
0.507973	421.192
0.571754	429.139
0.624146	429.139
0.740319	437.086
0.806378	445.033
0.867882	452.98
0.90205	456.954
0.931663	468.874
0.947608	484.768
0.961276	500.662
0.974943	524.503
0.981777	564.238
0.993166	611.921
