Adsorption isotherm of Hydrogen on Cr-MOF nanocrystals
DOI: 10.1016/j.ijhydene.2015.05.088
Article source: Figure 2d
Adsorbate Hydrogen: InChIKey UFHFLCQGNIYNRP-UHFFFAOYSA-N
Kind: experiment
Temperature: 77 K
Tabular data in the source: 0
pressure (bar)	uptake (wt%)
0.002273	0.128617
0.015909	0.231511
0.025	0.321543
0.036364	0.398714
0.05	0.469453
0.061364	0.533762
0.077273	0.59164
0.090909	0.643087
0.104545	0.694534
0.120455	0.745981
0.134091	0.784566
0.147727	0.836013
0.165909	0.874598
0.181818	0.919614
0.2	0.958199
0.213636	0.990354
0.231818	1.02251
0.25	1.06752
0.265909	1.09968
0.281818	1.13183
0.3	1.16399
0.315909	1.19614
0.336364	1.22186
0.35	1.25402
0.370455	1.28617
0.386364	1.3119
0.404545	1.33762
0.425	1.36977
0.440909	1.38907
0.459091	1.41479
0.477273	1.44051
0.495455	1.46624
0.511364	1.49196
0.529545	1.51768
0.55	1.54341
0.565909	1.5627
0.586364	1.58199
0.611364	1.61415
0.627273	1.63344
0.645455	1.65273
0.663636	1.67203
0.686364	1.69775
0.704545	1.71704
0.725	1.74277
0.745455	1.76206
0.765909	1.78135
0.786364	1.80064
0.806818	1.81994
0.829545	1.83923
0.85	1.86495
0.870455	1.88424
0.895455	1.89711
0.915909	1.92283
0.927273	1.92926
