Adsorption isotherm of Nitrogen on Zr-MOF nanocrystals
DOI: 10.1016/j.ijhydene.2015.05.088
Article source: Figure 2a
Adsorbate Nitrogen: InChIKey IJGRMHOSHXDMSA-UHFFFAOYSA-N
Kind: experiment
Temperature: 77 K
Tabular data in the source: 0
pressure (bar)	uptake (cm3(STP)/g)
0.000186	32.5002
0.000251	43.7503
0.000315	55.0004
0.000387	67.5005
0.000437	76.2505
0.000502	87.5006
0.000624	108.751
0.000681	118.751
0.00076	132.501
0.000781	136.251
0.000824	143.751
0.000867	151.251
0.00091	158.751
0.000968	168.751
0.001097	191.251
0.001147	200.001
0.001161	202.501
0.001226	213.752
0.002365	12.503
0.002408	20.003
0.002874	101.254
0.003326	180.004
0.003354	185.004
0.003577	223.754
0.00362	231.255
0.005963	240.007
0.008336	253.76
0.008386	262.51
0.010744	273.763
0.015367	280.019
0.017704	287.522
0.020033	293.775
0.026964	302.534
0.031587	308.789
0.033902	312.542
0.040805	316.301
0.070686	327.588
0.091364	333.864
0.157914	340.197
0.183165	343.979
0.215283	345.269
0.258875	347.824
0.297881	350.372
0.304761	350.381
0.313943	351.642
0.36671	354.208
0.373591	354.217
0.412589	355.516
0.421763	355.527
0.449294	356.812
0.476817	356.846
0.508927	356.886
0.53187	358.165
0.568568	358.211
0.58463	359.481
0.619027	358.274
0.64197	359.552
0.667207	360.834
0.69473	360.868
0.719959	360.9
0.745196	362.181
0.749783	362.187
0.768132	362.21
0.797949	362.247
0.823178	362.279
0.830066	363.538
0.839233	362.299
0.852995	362.316
0.86905	362.336
0.873637	362.342
0.898874	363.624
0.92181	363.652
0.933278	363.667
0.942452	363.678
0.94934	364.937
0.960801	363.701
0.967689	364.96
0.979157	364.974
0.992926	366.241
