Adsorption isotherm of Nitrogen on Cr-MOF nanocrystals
DOI: 10.1016/j.ijhydene.2015.05.088
Article source: Figure 2c
Adsorbate Nitrogen: InChIKey IJGRMHOSHXDMSA-UHFFFAOYSA-N
Kind: experiment
Temperature: 77 K
Tabular data in the source: 0
pressure (bar)	uptake (cm3(STP)/g)
0.002278	0.002278
0.004556	55.6291
0.006834	325.828
0.01139	393.377
0.020501	429.139
0.034169	480.795
0.066059	552.318
0.132118	699.338
0.259681	838.411
0.514806	870.199
0.57631	878.146
0.621868	886.093
0.740319	898.013
0.808656	905.96
0.870159	921.854
0.904328	933.775
0.931663	953.642
0.949886	973.51
0.961276	1001.32
0.974943	1088.74
0.981777	1239.74
