Adsorption isotherm of Nitrogen on Zr-MOF fiber
DOI: 10.1016/j.ijhydene.2015.05.088
Article source: Figure 2b
Adsorbate Nitrogen: InChIKey IJGRMHOSHXDMSA-UHFFFAOYSA-N
Kind: experiment
Temperature: 77 K
Tabular data in the source: 0
pressure (bar)	uptake (wt%)
0.013667	0.103636
0.031891	0.172682
0.050114	0.23679
0.070615	0.295948
0.093394	0.34028
0.116173	0.38955
0.14123	0.419056
0.166287	0.458438
0.191344	0.492882
0.218679	0.522377
0.243736	0.551883
0.271071	0.576439
0.298405	0.605934
0.32574	0.625552
0.353075	0.650108
0.38041	0.669726
0.407745	0.689344
0.43508	0.713901
0.464692	0.728569
0.492027	0.748188
0.517084	0.762879
0.546697	0.777547
0.574032	0.797165
0.603645	0.811834
0.633257	0.826502
0.660592	0.846121
0.690205	0.855851
0.722096	0.875446
0.751708	0.885177
0.783599	0.899834
0.813212	0.909564
0.840547	0.924244
0.870159	0.933975
0.899772	0.948643
0.924829	0.953458
