Adsorption isotherm of Nitrogen on Zr-MOF nanocrystals
DOI: 10.1016/j.ijhydene.2015.05.088
Article source: Figure 2b
Adsorbate Nitrogen: InChIKey IJGRMHOSHXDMSA-UHFFFAOYSA-N
Kind: experiment
Temperature: 77 K
Tabular data in the source: 0
pressure (bar)	uptake (wt%)
0.002278	0.019742
0.004556	0.054298
0.01139	0.118462
0.025057	0.21716
0.059226	0.36514
0.070615	0.399651
0.077449	0.434185
0.079727	0.444051
0.08656	0.46377
0.091116	0.488439
0.100228	0.508147
0.104784	0.518001
0.107062	0.522928
0.111617	0.53772
0.118451	0.547563
0.120729	0.562367
0.218679	0.774229
0.241458	0.813622
0.318907	0.931758
0.357631	0.985888
0.482916	1.13342
0.603645	1.25134
0.719818	1.35447
0.842825	1.44769
0.922551	1.50656
