Adsorption isotherm of Hydrogen on JUC-48
DOI: 10.1002/anie.200700537
Adsorbate Hydrogen: InChIKey UFHFLCQGNIYNRP-UHFFFAOYSA-N
Temperature: 77 K
Tabular data in the source: 0
pressure (bar)	uptake (wt%)
1.18189	0.215365
2.14324	0.608642
4.06593	1.14612
6.22895	1.50007
8.27181	1.69671
10.1945	1.88679
15.1214	2.18831
20.2886	2.3915
30.0222	2.56847
40.1163	2.64713
49.9701	2.65368
