Adsorption isotherm of Propene on Black Pearls I activated carbon
DOI: 10.1021/acs.iecr.1c03876
Article source: Figure 2A
Adsorbate Propene: InChIKey QQONPFPTGQHPMA-UHFFFAOYSA-N
Kind: experiment
Temperature: 298 K
Tabular data in the source: 0
pressure (bar)	uptake (mmol/g)
0.02216	0.567155
0.04814	1.10745
0.063917	1.1685
0.094676	1.4188
0.158017	1.64774
0.175412	1.69963
0.205672	1.7851
0.255981	1.91331
0.309229	2.04151
0.392602	2.16972
1.01	2.16972
