Adsorption isotherm of Methyl ethyl ketone on FAU Y
DOI: 10.1021/acs.iecr.1c03876
Article source: Figure 1A
Adsorbate Methyl ethyl ketone: InChIKey ZWEHNKRNPOVVGH-UHFFFAOYSA-N
Kind: experiment
Temperature: 298 K
Tabular data in the source: 0
pressure (bar)	uptake (mmol/g)
2.6e-05	0.15
5e-05	0.13875
0.000104	0.31125
0.000192	0.45
0.0003	0.58125
0.000381	0.8625
0.00049	1.035
0.000548	1.21125
0.000608	1.42875
0.00065	1.56
0.000783	1.79625
0.000862	1.98375
0.000942	2.07
0.001053	2.13
0.001407	2.31
0.001645	2.4
0.002475	2.41125
0.003642	2.64
0.006357	2.67
0.008814	2.65125
