Adsorption isotherm of 1,4-Dioxane on FAU Y
DOI: 10.1021/acs.iecr.1c03876
Article source: Figure 1A
Adsorbate 1,4-Dioxane: InChIKey RYHBNJHYFVUHQT-UHFFFAOYSA-N
Kind: experiment
Temperature: 298 K
Tabular data in the source: 0
pressure (bar)	uptake (mmol/g)
2.6e-05	0.1575
7.1e-05	0.30375
0.000117	0.45375
0.000195	0.63375
0.000231	0.78375
0.000249	0.86625
0.000257	0.945
0.000296	1.25625
0.000307	1.365
0.000338	1.51125
0.00037	1.7625
0.000404	2.0025
0.000462	2.20125
0.000655	2.35125
0.001178	2.4525
0.001297	2.475
0.002457	2.52
0.004758	2.59125
