Adsorption isotherm of N-propane on Black Pearls I activated carbon
DOI: 10.1021/acs.iecr.1c03876
Article source: Figure 2A
Adsorbate N-propane: InChIKey ATUOYWHBWRKTHZ-UHFFFAOYSA-N
Kind: experiment
Temperature: 298 K
Tabular data in the source: 0
pressure (bar)	uptake (mmol/g)
0.021085	0.789988
0.059028	1.14103
0.072379	1.22039
0.112677	1.41575
0.14377	1.53175
0.186199	1.64774
0.236401	1.77289
0.288432	1.87057
0.371702	2.00488
0.444578	2.10867
0.572927	2.25519
0.716624	2.37424
0.779846	2.45665
0.852875	2.48107
0.905323	2.5116
1.03542	2.5116
