Adsorption isotherm of Carbon Dioxide on BUT-30
DOI: 10.1016/j.jssc.2014.07.001
Article source: Figure 4
Adsorbate Carbon Dioxide: InChIKey CURLTUGMZLYLDI-UHFFFAOYSA-N
Kind: experiment
Temperature: 195 K
Tabular data in the source: 0
pressure (bar)	uptake (cm3(STP)/g)
0	0
0.022397	42.4741
0.073993	73.6265
0.11315	81.6097
0.154975	112.69
0.191765	128.347
0.240956	163.328
0.265758	201.974
0.271094	248.168
0.274138	309.729
0.275829	482.818
0.277295	382.829
0.277783	432.833
0.278722	528.993
0.279137	571.304
0.28218	632.865
0.284435	363.651
0.285149	436.733
0.285187	690.58
0.285524	725.198
0.293003	490.638
0.293491	540.642
0.29428	621.417
0.297212	671.438
0.300105	717.614
0.307922	767.672
0.324945	760.106
0.344749	787.176
0.376503	787.412
0.39131	802.907
0.410738	791.512
0.432909	810.908
0.449932	803.342
0.474547	822.756
0.496418	811.38
0.513666	826.892
0.535538	815.516
0.557746	838.758
0.57958	823.536
0.596866	842.895
0.616257	827.654
0.636061	854.725
0.657744	824.116
0.66293	854.924
0.699419	839.811
0.723958	851.531
0.743349	836.291
0.763078	855.668
0.784836	832.753
0.787579	863.542
0.828879	840.772
0.848645	863.996
0.867998	844.909
0.89017	864.304
0.907043	841.353
0.912266	876.007
0.951085	849.372
0.961156	880.216
0.99276	865.066
