Adsorption isotherm of Argon on BUT-30
DOI: 10.1016/j.jssc.2014.07.001
Article source: Figure 3
Adsorbate Argon: InChIKey XKRFYHLGVUSROY-UHFFFAOYSA-N
Kind: experiment
Temperature: 87 K
Tabular data in the source: 0
pressure (bar)	uptake (cm3(STP)/g)
0	0
0.003899	86.3309
0.014727	159.712
0.018822	220.144
0.024195	712.23
0.024342	392.806
0.024752	638.849
0.024997	306.475
0.025407	552.518
0.026062	466.187
0.027438	884.892
0.028126	794.245
0.031402	962.59
0.037709	1031.65
0.048766	1074.82
0.077941	1130.94
0.095403	1230.22
0.106494	1269.06
0.144874	1312.23
0.206352	1312.23
0.267764	1320.86
0.329242	1320.86
0.342904	1320.86
0.365674	1320.86
0.424875	1320.86
0.50909	1325.18
0.568324	1320.86
0.607	1325.18
0.629769	1325.18
0.668511	1320.86
0.693557	1320.86
0.750448	1325.18
0.768665	1325.18
0.791467	1320.86
0.852945	1320.86
0.912146	1320.86
0.932606	1325.18
