Adsorption isotherm of Nitrogen on BUT-30
DOI: 10.1016/j.jssc.2014.07.001
Article source: Figure 2
Adsorbate Nitrogen: InChIKey IJGRMHOSHXDMSA-UHFFFAOYSA-N
Kind: experiment
Temperature: 77 K
Tabular data in the source: 0
pressure (bar)	uptake (cm3(STP)/g)
0	0
0.002277	90.5876
0.006831	168.203
0.009108	249.082
0.011385	326.724
0.013662	485.273
0.018216	559.652
0.02277	637.268
0.027324	718.119
0.034155	802.18
0.050093	869.95
0.091079	908.294
0.113849	927.439
0.154834	939.893
0.195819	952.347
0.214035	955.365
0.273236	967.601
0.332437	970.128
0.35976	973.037
0.398469	975.81
0.4349	978.61
0.45767	978.337
0.519149	984.073
0.57835	983.364
0.603396	983.064
0.642105	982.601
0.701306	988.364
0.760507	984.419
0.819708	986.946
0.847031	986.619
0.88574	989.391
0.922171	988.955
0.93811	992
