Adsorption isotherm of Estradiol on Raw Hydrocarbon
DOI: 10.1039/c7ra06065c
Article source: Figure 6
Adsorbate Estradiol: InChIKey VOXZDWNPVJITMN-ZBRFXRBCSA-N
Kind: experiment
Temperature: 301 K
Tabular data in the source: 0
pressure (bar)	uptake (mg/g)
1.01325	2.61776
1.01325	4.97107
1.01325	6.88795
1.01325	9.91471
1.01325	16.7074
1.01325	28.9288
1.01325	35.3769
1.01325	37.7677
