Adsorption isotherm of Estradiol on Hydrocarbon-FMBO
DOI: 10.1039/c7ra06065c
Article source: Figure 6
Adsorbate Estradiol: InChIKey VOXZDWNPVJITMN-ZBRFXRBCSA-N
Kind: experiment
Temperature: 301 K
Tabular data in the source: 0
pressure (bar)	uptake (mg/g)
1.01325	3.08021
1.01325	5.81795
1.01325	7.76122
1.01325	12.318
1.01325	21.3295
1.01325	36.7341
1.01325	47.1726
1.01325	51.1882
