Adsorption isotherm of Nitrogen on C7H5NO5Mg
DOI: 10.1039/C2dt00057a
Adsorbate Nitrogen: InChIKey IJGRMHOSHXDMSA-UHFFFAOYSA-N
Temperature: 77 K
Tabular data in the source: 0
pressure (bar)	uptake (cm3(STP)/g)
0.00215415	0.00215415
0.00646244	118.462
0.0280039	128.132
0.0452371	131.758
0.0689327	132.967
0.0947824	134.78
0.122786	135.989
0.142174	139.011
0.165869	139.615
0.217569	142.637
0.23911	145.055
0.267114	146.264
0.29081	147.473
0.31666	148.681
0.340355	149.286
0.359742	151.099
0.387746	152.308
0.409288	153.516
0.437292	153.516
0.465296	155.33
0.480375	156.538
0.508379	158.352
0.534228	159.56
0.557924	160.165
0.605315	161.978
0.626857	164.396
0.65486	165.604
0.678556	165.604
0.702252	166.813
0.725947	168.022
0.756105	169.231
0.775493	170.44
0.799188	171.648
0.825038	172.857
0.844425	174.67
0.872429	177.692
0.896125	182.527
0.91982	189.78
0.94567	207.912
