Adsorption isotherm of Nitrogen on C7H5NO5Mg
DOI: 10.1039/C2dt00057a
Adsorbate Nitrogen: InChIKey IJGRMHOSHXDMSA-UHFFFAOYSA-N
Temperature: 77 K
Tabular data in the source: 0
pressure (bar)	uptake (cm3(STP)/g)
0.00215415	0.00215415
0.00430829	54.3956
0.0215415	58.022
0.0667785	62.2527
0.103399	64.6703
0.148636	67.6923
0.168023	70.1099
0.217569	72.5275
0.241264	74.3407
0.29081	77.3626
0.31666	79.1758
0.361897	80.989
0.411442	83.4066
0.435138	84.6154
0.460987	84.6154
0.488991	88.2418
0.510533	89.4505
0.534228	91.2637
0.55577	93.0769
0.583774	93.0769
0.611778	94.8901
0.633319	95.4945
0.661323	99.1209
0.682864	101.538
0.704406	103.352
0.736718	103.956
0.775493	105.165
0.799188	105.769
0.825038	109.396
0.853042	111.813
0.881046	111.813
0.898279	113.022
0.91982	114.835
0.952133	120.275
0.965058	140.824
