Adsorption isotherm of Nitrogen on C7H5NO5Mg
DOI: 10.1039/C2dt00057a
Adsorbate Nitrogen: InChIKey IJGRMHOSHXDMSA-UHFFFAOYSA-N
Temperature: 77 K
Tabular data in the source: 0
pressure (bar)	uptake (cm3(STP)/g)
0.00215415	129.341
0.0107707	135.989
0.0344663	140.22
0.0710868	143.846
0.0969366	143.846
0.12494	145.659
0.172332	146.264
0.217569	147.473
0.26496	149.89
0.303735	150.495
0.355434	152.308
0.402825	152.912
0.430829	153.516
0.463141	154.121
0.519149	156.538
0.560078	158.352
0.579465	158.956
0.605315	160.769
0.624702	161.978
0.676402	164.396
0.702252	166.209
0.730256	170.44
0.773339	172.857
0.799188	175.879
0.825038	178.901
0.850888	183.132
0.872429	186.154
0.900433	190.385
0.943516	198.242
0.965058	206.099
