Adsorption isotherm of Nitrogen on C7H5NO5Mg
DOI: 10.1039/C2dt00057a
Adsorbate Nitrogen: InChIKey IJGRMHOSHXDMSA-UHFFFAOYSA-N
Temperature: 77 K
Tabular data in the source: 0
pressure (bar)	uptake (cm3(STP)/g)
0.00861659	50.7692
0.0236956	54.3956
0.0452371	55.6044
0.073241	58.022
0.0990907	60.4396
0.120632	61.044
0.144328	62.8571
0.17664	64.6703
0.196027	65.2747
0.219723	67.6923
0.243419	68.9011
0.269268	70.7143
0.29081	71.3187
0.318814	72.5275
0.336047	74.9451
0.361897	74.9451
0.3899	76.1538
0.41575	77.3626
0.450217	80.3846
0.482529	81.5934
0.506224	83.4066
0.532074	85.8242
0.557924	86.4286
0.560078	85.8242
0.605315	87.6374
0.631165	88.2418
0.652706	92.4725
0.682864	92.4725
0.723793	95.4945
0.753951	97.3077
0.777647	96.7033
0.803497	97.3077
0.827192	99.7253
0.848734	102.747
0.872429	103.956
0.900433	105.165
0.91982	106.978
0.947824	111.209
0.962903	130.549
