Adsorption isotherm of Nitrogen on EB-COF:Br
DOI: 10.1021/jacs.5b13490
Article source: Figure 2C
Adsorbate Nitrogen: InChIKey IJGRMHOSHXDMSA-UHFFFAOYSA-N
Kind: experiment
Temperature: 77 K
Tabular data in the source: 0
pressure (bar)	uptake (cm3(STP)/g)
0.007307	12.1622
0.012178	21.6216
0.012178	28.3784
0.012178	37.8378
0.014614	48.6486
0.01705	66.2162
0.01705	72.973
0.01705	86.4865
0.019486	100
0.019486	113.514
0.01705	154.054
0.026793	181.081
0.058457	191.892
0.090121	197.297
0.124221	204.054
0.151013	204.054
0.180242	208.108
0.202163	208.108
0.250877	209.459
0.302026	214.865
0.35074	217.568
0.411633	220.27
0.455475	224.324
0.501754	228.378
0.545596	229.73
0.601617	231.081
0.650331	233.784
0.706352	236.486
0.757502	243.243
0.801344	245.946
0.828137	248.649
0.862237	250
0.884158	252.703
0.903644	259.459
0.923129	266.216
0.949922	279.73
0.976715	308.108
0.984022	322.973
0.993764	347.297
0.9962	371.622
0.170021	210.924
0.221349	210.862
0.257194	213.287
0.310823	214.456
0.369398	224.261
0.445343	225.403
0.411731	222.975
0.506012	232.737
0.555522	240.084
0.598131	243.736
0.656085	242.431
0.702813	239.905
0.745559	246.025
0.801902	255.833
0.835446	257.027
0.866758	258.223
0.903016	268.056
0.928047	276.667
0.950846	285.281
0.973782	296.365
1.00242	329.663
1.00778	345.706
1.02722	374.077
