Adsorption isotherm of Nitrogen on EB-COF:PW12
DOI: 10.1021/jacs.5b13490
Article source: Figure 3A
Adsorbate Nitrogen: InChIKey IJGRMHOSHXDMSA-UHFFFAOYSA-N
Kind: experiment
Temperature: 77 K
Tabular data in the source: 0
pressure (bar)	uptake (cm3(STP)/g)
0.018614	2.6455
0.03987	4.76191
0.068304	3.7037
0.082483	4.76191
0.108575	2.6455
0.151188	2.6455
0.17247	3.7037
0.217476	2.6455
0.230496	2.6455
0.274268	3.7037
0.328694	4.76191
0.380827	2.6455
0.430542	2.6455
0.487385	1.5873
0.529973	2.6455
0.589184	1.5873
0.634139	2.6455
0.693349	1.5873
0.73833	1.5873
0.761954	3.7037
0.818772	3.7037
0.837711	3.7037
0.866095	4.76191
0.894479	5.82011
0.918103	7.93651
0.946462	10.0529
0.970086	12.1693
0.988925	16.4021
1.00542	19.5767
1.01477	24.8677
0.117301	5.05864
0.175556	3.78421
0.228899	1.43862
0.277541	2.36904
0.326131	2.21267
0.401445	1.97029
0.428222	2.97107
0.489064	4.94918
0.554554	2.5645
0.615238	1.28225
0.673493	0.007819
0.707611	2.07193
0.748754	1.32134
0.795072	1.79046
0.824279	2.78343
0.848574	2.70524
0.868115	4.81626
0.882745	5.85614
0.921616	5.73104
0.936299	7.8577
0.970576	13.1822
0.985364	17.4824
1.00031	25.043
