Adsorption isotherm of Nitrogen on EB-COF:F
DOI: 10.1021/jacs.5b13490
Article source: Figure 2A
Adsorbate Nitrogen: InChIKey IJGRMHOSHXDMSA-UHFFFAOYSA-N
Kind: experiment
Temperature: 77 K
Tabular data in the source: 0
pressure (bar)	uptake (cm3(STP)/g)
0.015542	14.9254
0.015847	38.806
0.011009	59.7015
0.013828	80.597
0.019161	98.5075
0.016761	110.448
0.016971	126.866
0.02038	194.03
0.038646	225.373
0.079768	247.761
0.100224	250.746
0.123271	256.716
0.164183	262.687
0.184639	265.672
0.205077	267.164
0.266445	276.119
0.317491	276.119
0.368593	280.597
0.414629	288.06
0.470855	294.03
0.516796	294.03
0.562756	295.522
0.608811	304.478
0.665018	308.955
0.708445	311.94
0.769718	313.433
0.810669	322.388
0.841372	328.358
0.87459	331.343
0.902779	340.299
0.943805	355.224
0.964452	373.134
0.982718	404.478
0.99068	428.358
1.00133	462.687
1.01466	507.463
0.139463	267.632
0.192057	273.635
0.232073	282.582
0.294699	288.599
0.337335	288.662
0.38495	291.694
0.440126	291.775
0.477672	297.756
0.530228	306.722
0.585385	308.284
0.632982	312.798
0.713238	312.915
0.733153	324.796
0.7908	327.843
0.8258	336.783
0.843282	342.735
0.87074	353.145
0.903232	362.082
0.925637	375.448
0.958018	393.273
0.975258	418.483
0.979921	446.638
1.00424	507.415
0.994691	468.882
