Adsorption isotherm of Nitrogen on EB-COF:Cl
DOI: 10.1021/jacs.5b13490
Article source: Figure 2B
Adsorbate Nitrogen: InChIKey IJGRMHOSHXDMSA-UHFFFAOYSA-N
Kind: experiment
Temperature: 77 K
Tabular data in the source: 0
pressure (bar)	uptake (cm3(STP)/g)
0.010764	39.2487
0.016241	66.2903
0.018962	78.4597
0.019118	90.6223
0.019344	108.19
0.016934	120.346
0.019742	139.273
0.022568	159.55
0.028131	193.349
0.051618	224.493
0.095366	235.42
0.167298	243.72
0.218638	246.56
0.257152	249.365
0.316188	252.226
0.367563	257.768
0.416355	261.952
0.462599	267.481
0.508792	268.955
0.575576	275.89
0.611524	278.689
0.665438	282.211
0.714204	284.368
0.768162	291.269
0.811858	298.142
0.865764	300.989
0.917243	314.64
0.966382	345.852
1.01672	470.31
0.023028	174.336
0.046057	217.001
0.069085	232.079
0.097231	241.62
0.163758	248.245
0.214932	254.932
0.255871	257.523
0.31728	266.928
0.353102	266.782
0.409394	272.069
0.445216	277.44
0.514301	284.054
0.57571	292.079
0.634561	300.115
0.667824	298.6
0.713881	302.55
0.75482	309.279
0.800877	314.608
0.846934	325.455
0.916019	347.241
0.962076	396.708
1.00813	473.762
