Adsorption isotherm of Nitrogen on EB-COF:I
DOI: 10.1021/jacs.5b13490
Article source: Figure 2D
Adsorbate Nitrogen: InChIKey IJGRMHOSHXDMSA-UHFFFAOYSA-N
Kind: experiment
Temperature: 77 K
Tabular data in the source: 0
pressure (bar)	uptake (cm3(STP)/g)
0.004201	22.8758
0.002273	73.8562
0.00425	88.2353
0.003756	101.307
0.003064	119.608
0.009983	136.601
0.017001	150.98
0.067165	157.516
0.094791	160.131
0.127361	165.359
0.149996	166.667
0.177722	166.667
0.197935	165.359
0.25057	173.203
0.305922	175.817
0.353713	178.431
0.411636	179.739
0.451915	181.046
0.50959	188.889
0.567513	190.196
0.612685	195.425
0.668087	196.732
0.705549	205.882
0.771132	204.575
0.806221	209.804
0.843881	213.725
0.873929	218.954
0.893797	226.797
0.916235	233.333
0.940896	247.712
0.960022	275.163
0.981472	307.843
0.985475	335.294
0.998918	379.739
1.00707	430.719
0.149244	180.165
0.191447	183.629
0.221922	185.93
0.287325	180.878
0.338915	185.513
0.385825	190.165
0.451342	189.931
0.500564	193.37
0.542851	200.448
0.591988	200.273
0.64121	203.712
0.697593	213.149
0.732747	215.433
0.796121	223.641
0.833756	231.94
0.871363	239.035
0.887827	242.591
0.906941	259.39
0.937726	274.943
0.954753	302.593
0.967101	330.26
0.98176	356.714
0.998929	390.387
1.01395	432.502
