Adsorption isotherm of Methane on UiO-66(Zr)
DOI: 10.1021/jp202633t
Adsorbate Methane: InChIKey VNWKTOKETHGBQD-UHFFFAOYSA-N
Temperature: 303 K
Tabular data in the source: 0
pressure (bar)	uptake (cm3(STP)/cm3)
5.87304	51.5652
8.04576	63.391
10.2238	70.9251
15.205	86.0001
20.1955	93.5643
25.1834	103.275
29.549	110.832
35.1658	117.33
39.8452	123.818
49.8344	132.509
79.1835	153.21
89.8003	159.762
