Adsorption isotherm of Carbon Dioxide on UiO-66(Zr)
DOI: 10.1021/jp202633t
Adsorbate Carbon Dioxide: InChIKey CURLTUGMZLYLDI-UHFFFAOYSA-N
Temperature: 303 K
Tabular data in the source: 0
pressure (bar)	uptake (cm3(STP)/cm3)
0.533473	18.41
1.07104	29.2887
1.60815	41.0042
2.14708	49.3724
2.6851	59.4142
3.22585	64.4351
4.08859	76.9874
5.27742	89.5397
6.46762	99.5816
7.65781	109.623
8.52329	117.155
