Adsorption isotherm of Carbon Dioxide, Methane on UiO-66(Zr)
DOI: 10.1021/jp202633t
Article source: Figure 2
Adsorbate Carbon Dioxide: InChIKey CURLTUGMZLYLDI-UHFFFAOYSA-N
Adsorbate Methane: InChIKey VNWKTOKETHGBQD-UHFFFAOYSA-N
Kind: experiment
Isotherm type: absolute
Temperature: 303 K
Tabular data in the source: 0
pressure (bar)	Carbon Dioxide fraction	Carbon Dioxide uptake (cm3(STP)/cm3)	Methane fraction	Methane uptake (cm3(STP)/cm3)	total uptake (cm3(STP)/cm3)
0.5407	0.5	16.864	0.5	12.087	
1.2442	0.5	21.941	0.5	7.931	
1.6177	0.5	29.892	0.5	4.099	
2.1552	0.5	31.151	0.5	5.035	
2.6942	0.5	40.054	0.5	7.251	
3.1909	0.5	43.862	0.5	7.551	
4.1021	0.5	54.347	0.5	8.17	
6.2134	0.5	73.079	0.5	10.026	
8.1581	0.5	85.128	0.5	9.648	
10.2268	0.5	97.81	0.5	17.878	
12.1707	0.5	106.356	0.5	21.324	
