Adsorption isotherm of Methane on UiO-66(Zr)
DOI: 10.1021/jp202633t
Article source: Figure 2
Adsorbate Methane: InChIKey VNWKTOKETHGBQD-UHFFFAOYSA-N
Kind: experiment
Isotherm type: absolute
Temperature: 303 K
Tabular data in the source: 0
pressure (bar)	uptake (cm3(STP)/cm3)
0.82	3.949
1.057	7.112
1.412	12.251
2.587	20.945
3.645	30.034
4.118	36.755
5.057	42.286
6.114	49.793
8.107	59.667
10.097	66.376
12.088	74.667
14.078	80.585
16.183	86.106
18.054	90.443
21.913	99.51
26.237	106.596
29.977	112.896
35.118	119.975
39.906	124.684
44.929	130.578
50.067	134.098
55.088	138.014
60.108	140.347
65.128	143.077
70.265	146.2
74.934	148.141
80.303	149.681
84.738	150.833
90.108	153.164
