Adsorption isotherm of Methane on UiO-66(Zr)
DOI: 10.1021/jp202633t
Adsorbate Methane: InChIKey VNWKTOKETHGBQD-UHFFFAOYSA-N
Temperature: 303 K
Tabular data in the source: 0
pressure (bar)	uptake (cm3(STP)/cm3)
2.33333	11.9658
5	15.3846
7.44444	17.9487
10	17.9487
12.5556	19.6581
14.8889	21.3675
20	23.0769
25	24.7863
30	26.4957
