Adsorption isotherm of Methane on UiO-66(Zr)
DOI: 10.1021/jp202633t
Adsorbate Methane: InChIKey VNWKTOKETHGBQD-UHFFFAOYSA-N
Temperature: 303 K
Tabular data in the source: 0
pressure (bar)	uptake (cm3(STP)/cm3)
0.432963	3.34728
1.30253	3.34728
1.84646	2.51046
2.60733	2.51046
3.04166	3.34728
4.12816	4.1841
5.5412	4.1841
6.5181	6.69456
7.38721	7.53138
7.82154	8.3682
8.69019	10.0418
