Adsorption isotherm of Carbon Dioxide on UiO-66(Zr)
DOI: 10.1021/jp202633t
Adsorbate Carbon Dioxide: InChIKey CURLTUGMZLYLDI-UHFFFAOYSA-N
Temperature: 303 K
Tabular data in the source: 0
pressure (bar)	uptake (cm3(STP)/cm3)
0.211479	10.8787
0.413407	39.3305
0.945971	59.4142
2.55867	92.0502
4.93496	119.665
7.53593	133.891
9.92178	143.933
12.5273	149.791
14.9154	155.649
19.9118	162.343
24.8003	167.364
29.7976	172.385
