Adsorption isotherm of Methane on UiO-66(Zr)
DOI: 10.1021/jp202633t
Adsorbate Methane: InChIKey VNWKTOKETHGBQD-UHFFFAOYSA-N
Temperature: 303 K
Tabular data in the source: 0
pressure (bar)	uptake (cm3(STP)/cm3)
1.33333	1.7094
2.22222	4.2735
2.55556	7.69231
3.11111	5.98291
4.22222	8.54701
6	9.40171
8	9.40171
10.1111	17.094
12.1111	21.3675
