Adsorption isotherm of Carbon Dioxide on UiO-66(Zr)
DOI: 10.1021/jp202633t
Adsorbate Carbon Dioxide: InChIKey CURLTUGMZLYLDI-UHFFFAOYSA-N
Temperature: 303 K
Tabular data in the source: 0
pressure (bar)	uptake (cm3(STP)/cm3)
0.276284	28.9729
0.564638	48.2893
1.15878	72.9738
1.17219	62.2443
1.75024	99.8042
1.76366	89.0747
3.28992	118.061
3.90284	127.724
5.13807	139.54
7.30543	155.658
10.1072	164.272
12.2852	171.806
14.7812	175.051
16.962	180.44
20.0829	183.692
25.0748	190.183
29.7595	192.379
34.7554	195.652
39.7513	198.924
44.7473	202.197
50.0583	203.327
54.4306	205.52
59.7417	206.65
