Adsorption isotherm of Carbon Dioxide on UiO-66(Zr)
DOI: 10.1021/jp202633t
Adsorbate Carbon Dioxide: InChIKey CURLTUGMZLYLDI-UHFFFAOYSA-N
Temperature: 303 K
Tabular data in the source: 0
pressure (bar)	uptake (cm3(STP)/cm3)
0.444444	28.2051
1	44.4444
2.44444	73.5043
4.88889	98.2906
7.44444	111.966
10	121.368
12.4444	128.205
15	133.333
19.8889	141.026
25.1111	146.154
30	149.573
