Adsorption isotherm of Carbon Dioxide on UiO-66(Zr)
DOI: 10.1021/jp202633t
Adsorbate Carbon Dioxide: InChIKey CURLTUGMZLYLDI-UHFFFAOYSA-N
Temperature: 303 K
Tabular data in the source: 0
pressure (bar)	uptake (cm3(STP)/cm3)
-0.315809	-1.06838
0.00940708	7.47863
0.337311	18.1624
0.353438	30.9829
0.994463	40.5983
1.32102	50.2137
1.64893	60.8974
2.61651	80.1282
3.89185	94.0171
4.85406	108.974
5.80955	118.59
6.76369	127.137
8.34946	137.821
9.93657	149.573
11.8355	159.188
13.733	167.735
15.941	173.077
18.1503	179.487
21.9333	186.966
26.0281	192.308
29.4939	197.65
35.1597	201.923
39.882	206.197
45.2306	208.333
49.9503	210.47
55.2975	211.538
60.0159	212.607
