Adsorption isotherm of Methane on UiO-66(Zr)
DOI: 10.1021/jp202633t
Adsorbate Methane: InChIKey VNWKTOKETHGBQD-UHFFFAOYSA-N
Temperature: 303 K
Tabular data in the source: 0
pressure (bar)	uptake (cm3(STP)/cm3)
2.49682	5.85774
4.99591	7.53138
10.1046	7.53138
12.4955	8.3682
14.995	9.20502
19.9945	10.0418
24.9945	10.0418
29.9941	10.8787
