Adsorption isotherm of Carbon Dioxide, Methane on UiO-66(Zr)
DOI: 10.1021/jp202633t
Article source: Figure 2
Adsorbate Carbon Dioxide: InChIKey CURLTUGMZLYLDI-UHFFFAOYSA-N
Adsorbate Methane: InChIKey VNWKTOKETHGBQD-UHFFFAOYSA-N
Kind: experiment
Isotherm type: absolute
Temperature: 303 K
Tabular data in the source: 0
pressure (bar)	Carbon Dioxide fraction	Carbon Dioxide uptake (cm3(STP)/cm3)	Methane fraction	Methane uptake (cm3(STP)/cm3)	total uptake (cm3(STP)/cm3)
0.5297	0.75	18.38	0.25	4.05	
1.0172	0.75	28.037	0.25	4.361	
1.6265	0.75	39.564	0.25	4.05	
2.642	0.75	58.879	0.25	1.869	
3.1284	0.75	63.24	0.25	3.427	
3.9807	0.75	76.012	0.25	4.361	
5.1972	0.75	89.097	0.25	5.296	
6.2917	0.75	98.754	0.25	7.165	
7.5885	0.75	109.034	0.25	7.788	
8.6825	0.75	116.511	0.25	9.969	
