Adsorption isotherm of Carbon Dioxide on UiO-66(Zr)
DOI: 10.1021/jp202633t
Article source: Figure 2
Adsorbate Carbon Dioxide: InChIKey CURLTUGMZLYLDI-UHFFFAOYSA-N
Kind: experiment
Isotherm type: absolute
Temperature: 303 K
Tabular data in the source: 0
pressure (bar)	uptake (cm3(STP)/cm3)
0.237	3.954
0.36	10.282
0.832	16.212
1.076	28.077
1.322	41.524
1.798	50.619
2.156	60.11
3.108	79.485
4.056	94.509
5.001	107.16
6.062	118.623
7.121	128.899
7.945	136.013
9.94	147.864
11.933	157.738
14.041	166.424
15.914	172.342
18.253	179.049
21.994	186.139
25.851	192.438
29.589	196.76
34.844	201.86
40.098	205.379
45.001	207.318
50.021	209.652
55.039	210.799
60.29	211.153
