Adsorption isotherm of Methane on UiO-66(Zr)
DOI: 10.1021/jp202633t
Adsorbate Methane: InChIKey VNWKTOKETHGBQD-UHFFFAOYSA-N
Temperature: 303 K
Tabular data in the source: 0
pressure (bar)	uptake (cm3(STP)/cm3)
3.3999	30.0794
4.33068	35.4542
4.94897	40.8256
6.18822	49.4226
8.36362	59.1026
10.2292	66.6334
12.0948	74.1641
13.9617	80.6219
16.1438	84.9372
18.0108	91.395
21.7486	101.092
26.1155	107.576
30.1713	112.985
34.8507	119.473
39.8452	123.818
44.8358	131.382
50.1455	133.585
54.5138	138.997
60.1347	142.276
64.8181	145.545
70.1251	149.894
74.8126	149.944
79.4973	152.141
84.4946	154.34
89.8057	155.47
