Adsorption isotherm of Carbon Dioxide on UiO-66(Zr)
DOI: 10.1021/jp202633t
Adsorbate Carbon Dioxide: InChIKey CURLTUGMZLYLDI-UHFFFAOYSA-N
Temperature: 303 K
Tabular data in the source: 0
pressure (bar)	uptake (cm3(STP)/cm3)
0.333333	15.3846
1	23.0769
1.66667	29.0598
2.11111	31.6239
2.77778	40.1709
3.22222	44.4444
4.11111	54.7009
6.11111	71.7949
8.11111	85.4701
10	98.2906
12.2222	106.838
