Adsorption isotherm of Hydrogen on CMS 4A
DOI: 10.1007/s00339-015-9537-x
Article source: Figure 3(a)- NREL_2
Adsorbate Hydrogen: InChIKey UFHFLCQGNIYNRP-UHFFFAOYSA-N
Kind: experiment
Isotherm type: excess
Temperature: 303 K
Tabular data in the source: 0
pressure (bar)	uptake (wt%)
9.116	0.047079
12.996	0.061871
17.074	0.079488
17.668	0.085136
24.572	0.110148
26.806	0.115124
34.957	0.139464
35.42	0.145785
44.488	0.167435
50.733	0.186262
53.096	0.187069
63.083	0.208854
68.408	0.225664
73.067	0.225126
82.2	0.243684
86.275	0.25498
91.393	0.253231
103.81	0.278379
110.965	0.281606
122.197	0.299626
130.141	0.304064
140.517	0.317511
146.229	0.320873
157.456	0.328942
