Adsorption isotherm of Hydrogen on MSC-30
DOI: 10.1007/s00339-015-9537-x
Article source: Figure 1(b)- 192 mg
Adsorbate Hydrogen: InChIKey UFHFLCQGNIYNRP-UHFFFAOYSA-N
Kind: experiment
Isotherm type: excess
Temperature: 303 K
Tabular data in the source: 0
pressure (bar)	uptake (wt%)
9.062	0.10042
16.162	0.16687
25.19	0.21953
28.186	0.27265
34.43	0.32139
50.88	0.41407
60.335	0.49708
75.144	0.57733
76.679	0.56929
85.563	0.64931
102.014	0.70634
111.434	0.7751
127.064	0.81029
127.278	0.81059
137.341	0.871
150.902	0.90436
152.829	0.90482
165.104	0.95196
173.527	0.96324
178.844	0.96669
