Adsorption isotherm of Hydrogen on MSC-30
DOI: 10.1007/s00339-015-9537-x
Article source: Figure 1(b)- 203 mg
Adsorbate Hydrogen: InChIKey UFHFLCQGNIYNRP-UHFFFAOYSA-N
Kind: experiment
Isotherm type: excess
Temperature: 303 K
Tabular data in the source: 0
pressure (bar)	uptake (wt%)
6.631	0.08504
11.903	0.13965
26.453	0.24199
33.784	0.30447
41.733	0.3635
53.269	0.42956
60.125	0.48248
68.795	0.51606
79.449	0.57117
86.929	0.62153
95.542	0.64599
106.082	0.69307
113.845	0.73796
122.061	0.75255
133.564	0.80255
149.034	0.84307
155.21	0.8708
168.356	0.89526
175.836	0.9062
