Adsorption isotherm of Hydrogen on CMS 4A
DOI: 10.1007/s00339-015-9537-x
Article source: Figure 3(b)- 2
Adsorbate Hydrogen: InChIKey UFHFLCQGNIYNRP-UHFFFAOYSA-N
Kind: experiment
Isotherm type: excess
Temperature: 76 K
Tabular data in the source: 0
pressure (bar)	uptake (wt%)
0.0297	0.5949
0.1735	0.86707
0.2113	0.75051
0.3342	0.96556
0.8726	1.05939
1.4109	1.13865
1.9289	1.20101
3.2223	1.25054
4.2371	1.28608
5.2716	1.31171
6.5248	1.33618
7.8973	1.3624
9.2099	1.3723
10.5822	1.38045
11.9346	1.39209
12.9489	1.40025
14.0824	1.40432
15.7728	1.41013
17.0058	1.4177
18.4377	1.42294
19.5314	1.42001
20.5057	1.41942
21.5597	1.42
22.3154	1.42291
22.912	1.42349
23.4886	1.42232
24.1449	1.42289
24.7414	1.42231
25.4575	1.43396
