Adsorption isotherm of Hydrogen on MSC-30
DOI: 10.1007/s00339-015-9537-x
Article source: Figure 2(b)- 3_1
Adsorbate Hydrogen: InChIKey UFHFLCQGNIYNRP-UHFFFAOYSA-N
Kind: experiment
Isotherm type: excess
Temperature: 76 K
Tabular data in the source: 0
pressure (bar)	uptake (wt%)
0.256	1.96589
2.057	3.39223
2.153	3.47254
3.489	3.95435
6.416	4.33707
7.782	4.48884
12.515	4.85836
15.735	5.01892
22.713	5.24985
26.469	5.32683
34.032	5.40819
44.132	5.39495
47.694	5.39494
61.599	5.22112
62.819	5.21672
79.36	4.96811
