Adsorption isotherm of Hydrogen on MSC-30
DOI: 10.1007/s00339-015-9537-x
Article source: Figure 1(a)- PCT 2
Adsorbate Hydrogen: InChIKey UFHFLCQGNIYNRP-UHFFFAOYSA-N
Kind: experiment
Isotherm type: excess
Temperature: 303 K
Tabular data in the source: 0
pressure (bar)	uptake (wt%)
6.614	0.07105
9.865	0.1001
13.486	0.14122
17.255	0.16892
19.398	0.19216
24.423	0.23283
27.157	0.26188
35.213	0.31551
38.39	0.35394
53.393	0.43752
55.019	0.4679
71.944	0.54478
73.126	0.57248
90.495	0.63653
90.569	0.63685
108.233	0.72937
109.786	0.7182
125.676	0.79329
129.225	0.78882
142.824	0.84425
144.303	0.84157
155.612	0.87554
159.973	0.88716
163.742	0.89789
169.508	0.90639
174.164	0.91757
176.899	0.92338
