Adsorption isotherm of Hydrogen on MSC-30
DOI: 10.1007/s00339-015-9537-x
Article source: Figure 2(a)- 2_2
Adsorbate Hydrogen: InChIKey UFHFLCQGNIYNRP-UHFFFAOYSA-N
Kind: experiment
Isotherm type: excess
Temperature: 303 K
Tabular data in the source: 0
pressure (bar)	uptake (wt%)
0.7888	0.04514
1.726	0.07912
2.8414	0.10282
3.9327	0.12177
5.0538	0.13981
6.1271	0.15498
7.385	0.16917
8.4999	0.18238
9.5493	0.19664
10.8607	0.20925
11.9101	0.22223
13.1798	0.23536
13.9548	0.24359
15.0876	0.25612
16.0175	0.26435
17.1025	0.27733
17.949	0.2845
19.028	0.29575
19.8089	0.30314
20.9058	0.31394
