Adsorption isotherm of Hydrogen on MSC-30
DOI: 10.1007/s00339-015-9537-x
Article source: Figure 2(a)- 2_1
Adsorbate Hydrogen: InChIKey UFHFLCQGNIYNRP-UHFFFAOYSA-N
Kind: experiment
Isotherm type: excess
Temperature: 303 K
Tabular data in the source: 0
pressure (bar)	uptake (wt%)
0.7892	0.04021
1.8884	0.06951
3.0092	0.08959
4.1225	0.10928
5.1002	0.12545
6.3182	0.14143
7.4008	0.15427
8.6186	0.16892
9.7237	0.18205
10.8062	0.19479
12.099	0.20763
13.1891	0.22086
14.4668	0.23341
15.2409	0.24092
16.3234	0.25339
17.1051	0.26128
17.7138	0.26641
18.6988	0.28011
19.6004	0.28563
20.728	0.29837
