Adsorption isotherm of Hydrogen on MSC-30
DOI: 10.1007/s00339-015-9537-x
Article source: Figure 2(b)- 3_2
Adsorbate Hydrogen: InChIKey UFHFLCQGNIYNRP-UHFFFAOYSA-N
Kind: experiment
Isotherm type: excess
Temperature: 76 K
Tabular data in the source: 0
pressure (bar)	uptake (wt%)
0.95	2.50354
5.057	4.15574
5.395	4.06981
9.914	4.64366
14.403	4.97496
20.151	5.1344
29.28	5.35761
35.827	5.34934
48.521	5.34943
53.962	5.31204
71.911	5.0599
