Adsorption isotherm of Hydrogen on MSC-30
DOI: 10.1007/s00339-015-9537-x
Article source: Figure 2(b)- NREL_2
Adsorbate Hydrogen: InChIKey UFHFLCQGNIYNRP-UHFFFAOYSA-N
Kind: experiment
Isotherm type: excess
Temperature: 76 K
Tabular data in the source: 0
pressure (bar)	uptake (wt%)
5.888	4.5829
17.184	5.40005
27.235	5.56283
29.821	5.64861
39.53	5.63101
42.799	5.67061
51.727	5.56723
55.483	5.57382
64.509	5.40005
69.29	5.36706
76.852	5.21749
83.73	5.1207
89.243	4.99753
94.903	4.93594
102.269	4.79076
