Adsorption isotherm of Hydrogen on CMS 4A
DOI: 10.1007/s00339-015-9537-x
Article source: Figure 3(b)- NREL_1
Adsorbate Hydrogen: InChIKey UFHFLCQGNIYNRP-UHFFFAOYSA-N
Kind: experiment
Isotherm type: excess
Temperature: 76 K
Tabular data in the source: 0
pressure (bar)	uptake (wt%)
0.5364	1.05133
2.2948	1.2533
4.502	1.33628
5.1791	1.35537
6.5077	1.36931
7.7109	1.37958
8.8639	1.38912
9.641	1.39719
11.4708	1.40599
11.7966	1.40745
14.2529	1.41404
14.5286	1.41433
15.0801	1.41991
17.0099	1.41695
17.3607	1.41548
19.7414	1.40003
21.2703	1.40663
25.2553	1.40806
26.0573	1.41133
26.8844	1.40878
30.8188	1.38597
31.5207	1.40106
32.423	1.3977
36.4577	1.3793
37.0845	1.38093
37.9865	1.37488
41.8961	1.36603
42.3472	1.36598
42.8735	1.36749
43.901	1.36234
47.9606	1.33365
49.4895	1.33657
53.6493	1.30862
54.6769	1.31082
