Adsorption isotherm of Hydrogen on MSC-30
DOI: 10.1007/s00339-015-9537-x
Article source: Figure 2(b)- 1_1
Adsorbate Hydrogen: InChIKey UFHFLCQGNIYNRP-UHFFFAOYSA-N
Kind: experiment
Isotherm type: excess
Temperature: 76 K
Tabular data in the source: 0
pressure (bar)	uptake (wt%)
1.531	3.26477
2.923	3.72119
4.46	4.06762
8.023	4.54053
12.073	4.87266
17.001	5.0882
22.051	5.23446
27.149	5.35102
32.565	5.42029
40.664	5.48075
49.153	5.46532
55.227	5.4807
57.788	5.37731
64.204	5.36739
67.155	5.2607
73.351	5.19139
74.717	5.14299
79.718	5.07589
79.766	5.07513
82.791	4.9648
