Adsorption isotherm of Hydrogen on MSC-30
DOI: 10.1007/s00339-015-9537-x
Article source: Figure 2(a)- NREL_2
Adsorbate Hydrogen: InChIKey UFHFLCQGNIYNRP-UHFFFAOYSA-N
Kind: experiment
Isotherm type: excess
Temperature: 303 K
Tabular data in the source: 0
pressure (bar)	uptake (wt%)
19.732	0.19591
39.449	0.36143
59.915	0.49932
80.141	0.61565
100.606	0.71475
121.15	0.79403
140.5	0.86124
155.549	0.89915
165.343	0.92025
172.032	0.93274
176.57	0.94308
