Adsorption isotherm of Hydrogen on MSC-30
DOI: 10.1007/s00339-015-9537-x
Article source: Figure 1(a)- PCT 1
Adsorbate Hydrogen: InChIKey UFHFLCQGNIYNRP-UHFFFAOYSA-N
Kind: experiment
Isotherm type: excess
Temperature: 303 K
Tabular data in the source: 0
pressure (bar)	uptake (wt%)
6.168	0.07129
9.746	0.10447
14.555	0.15245
19.505	0.19225
21.943	0.2222
26.303	0.25618
33.248	0.31341
39.381	0.35991
46.253	0.40642
51.426	0.43951
59.775	0.49809
66.5	0.53476
71.894	0.56159
72.411	0.57902
79.875	0.61704
86.673	0.64567
92.728	0.67066
93.286	0.68361
100.315	0.71348
107.345	0.73828
113.304	0.75998
114.607	0.77012
121.032	0.79605
128.248	0.81606
134.207	0.83354
134.999	0.83776
140.678	0.85974
145.892	0.87694
154.785	0.89161
155.762	0.90677
158.043	0.91245
165.679	0.92346
167.402	0.93107
171.638	0.93446
172.895	0.94376
175.829	0.94292
177.039	0.9525
