Adsorption isotherm of Hydrogen on MSC-30
DOI: 10.1007/s00339-015-9537-x
Article source: Figure 2(b)- 1_2
Adsorbate Hydrogen: InChIKey UFHFLCQGNIYNRP-UHFFFAOYSA-N
Kind: experiment
Isotherm type: excess
Temperature: 76 K
Tabular data in the source: 0
pressure (bar)	uptake (wt%)
1.194	3.12826
1.869	3.32787
8.044	4.57363
16.924	5.1043
