Adsorption isotherm of Hydrogen on MSC-30
DOI: 10.1007/s00339-015-9537-x
Article source: Figure 1(b)- 840 mg
Adsorbate Hydrogen: InChIKey UFHFLCQGNIYNRP-UHFFFAOYSA-N
Kind: experiment
Isotherm type: excess
Temperature: 303 K
Tabular data in the source: 0
pressure (bar)	uptake (wt%)
6.506	0.07095
10.131	0.1041
14.813	0.15289
19.72	0.19141
25.596	0.25714
33.586	0.31563
39.773	0.35788
45.785	0.41003
51.815	0.43696
59.468	0.50182
66.848	0.53483
72.068	0.57883
72.385	0.58232
80.035	0.61764
87.46	0.63964
92.905	0.68181
93.131	0.68365
100.466	0.7155
107.711	0.73693
113.875	0.76009
114.776	0.76791
121.256	0.79338
128.635	0.81481
134.529	0.83276
135.249	0.83913
140.559	0.86113
155.452	0.89181
158.946	0.91551
172.229	0.93342
173.445	0.93733
176.622	0.94123
177.337	0.94393
