Adsorption isotherm of Hydrogen on CMS 4A
DOI: 10.1007/s00339-015-9537-x
Article source: Figure 3(b)- NREL_2
Adsorbate Hydrogen: InChIKey UFHFLCQGNIYNRP-UHFFFAOYSA-N
Kind: experiment
Isotherm type: excess
Temperature: 76 K
Tabular data in the source: 0
pressure (bar)	uptake (wt%)
0.2971	0.89666
0.5812	0.9998
1.4335	1.16121
2.1123	1.2218
2.8699	1.26573
3.9433	1.30087
4.9693	1.32768
6.3425	1.34755
7.9052	1.37621
8.9786	1.38082
10.0046	1.397
11.9461	1.40252
12.8931	1.39974
14.1875	1.40481
16.7761	1.40385
19.6489	1.40983
20.9748	1.40334
23.3583	1.40377
24.8578	1.40098
25.4892	1.39959
27.4623	1.40095
30.7613	1.38981
31.4242	1.38795
32.9238	1.38146
36.4911	1.37216
37.1224	1.37215
38.4641	1.36428
39.1113	1.36195
42.7733	1.34803
46.1512	1.33227
46.8773	1.32856
48.1874	1.32901
49.024	1.32437
54.8169	1.29562
