Adsorption isotherm of Hydrogen on MSC-30
DOI: 10.1007/s00339-015-9537-x
Article source: Figure 2(a)- NREL_1
Adsorbate Hydrogen: InChIKey UFHFLCQGNIYNRP-UHFFFAOYSA-N
Kind: experiment
Isotherm type: excess
Temperature: 303 K
Tabular data in the source: 0
pressure (bar)	uptake (wt%)
17.312	0.17155
35.141	0.31237
54.192	0.4438
72.054	0.54504
91.37	0.63921
109.834	0.71981
128.999	0.78793
144.702	0.8403
156.291	0.8734
164.218	0.89647
169.836	0.90705
174.101	0.91546
177.161	0.92115
