Adsorption isotherm of Hydrogen on MSC-30
DOI: 10.1007/s00339-015-9537-x
Article source: Figure 1(b)- 1040 mg
Adsorbate Hydrogen: InChIKey UFHFLCQGNIYNRP-UHFFFAOYSA-N
Kind: experiment
Isotherm type: excess
Temperature: 303 K
Tabular data in the source: 0
pressure (bar)	uptake (wt%)
8.879	0.10979
12.41	0.12933
13.603	0.15466
20.442	0.21806
22.016	0.23137
25.503	0.24729
31.014	0.30591
38.347	0.35251
44.196	0.4049
51.619	0.44542
57.423	0.49275
64.845	0.53124
71.189	0.57177
78.049	0.60186
84.325	0.6405
91.747	0.6677
98.09	0.70374
104.928	0.72819
111.653	0.758
118.558	0.78057
125.373	0.80806
132.165	0.82976
138.935	0.85247
145.75	0.87403
152.678	0.89168
158.255	0.90933
166.352	0.92581
