Adsorption isotherm of Hydrogen on CMS 4A
DOI: 10.1007/s00339-015-9537-x
Article source: Figure 3(a)- 4_2
Adsorbate Hydrogen: InChIKey UFHFLCQGNIYNRP-UHFFFAOYSA-N
Kind: experiment
Isotherm type: excess
Temperature: 303 K
Tabular data in the source: 0
pressure (bar)	uptake (wt%)
17.268	0.092568
23.047	0.135309
37.091	0.161375
40.769	0.189332
47.854	0.187444
51.925	0.210292
59.405	0.216738
62.163	0.232598
76.73	0.246565
