Adsorption isotherm of Hydrogen on MSC-30
DOI: 10.1007/s00339-015-9537-x
Article source: Figure 2(a)- 1_G
Adsorbate Hydrogen: InChIKey UFHFLCQGNIYNRP-UHFFFAOYSA-N
Kind: experiment
Isotherm type: excess
Temperature: 303 K
Tabular data in the source: 0
pressure (bar)	uptake (wt%)
0.938	0.01131
4.005	0.04363
7.79	0.09362
13.088	0.14771
26.478	0.26833
41.208	0.34768
54.416	0.43481
67.256	0.50775
