Adsorption isotherm of Hydrogen on CMS 4A
DOI: 10.1007/s00339-015-9537-x
Article source: Figure 3(a)- NREL_1
Adsorbate Hydrogen: InChIKey UFHFLCQGNIYNRP-UHFFFAOYSA-N
Kind: experiment
Isotherm type: excess
Temperature: 303 K
Tabular data in the source: 0
pressure (bar)	uptake (wt%)
8.979	0.043918
12.71	0.05866
13.789	0.064591
18.681	0.084586
20.173	0.090517
22.492	0.094245
26.307	0.110682
28.544	0.117799
31.196	0.125085
36.249	0.137117
39.813	0.150164
42.05	0.155756
45.28	0.16101
49.836	0.173041
54.64	0.183039
55.718	0.186767
58.7	0.194393
63.421	0.202696
67.893	0.211678
70.294	0.214728
72.86	0.218118
77.25	0.227777
81.722	0.234894
83.378	0.238283
86.11	0.242012
91.574	0.247943
95.881	0.257433
97.289	0.259975
100.102	0.261331
105.317	0.266924
110.368	0.274888
112.272	0.276753
114.175	0.278447
119.697	0.284811
124.234	0.289722
128.353	0.293459
134.402	0.298797
138.573	0.302854
142.276	0.306911
148.063	0.311716
151.088	0.315132
152.548	0.316306
155.623	0.317375
159.69	0.321325
162.976	0.324848
166.051	0.325062
170.273	0.327518
