Adsorption isotherm of Hydrogen on MSC-30
DOI: 10.1007/s00339-015-9537-x
Article source: Figure 2(a)- 1_1
Adsorbate Hydrogen: InChIKey UFHFLCQGNIYNRP-UHFFFAOYSA-N
Kind: experiment
Isotherm type: excess
Temperature: 303 K
Tabular data in the source: 0
pressure (bar)	uptake (wt%)
3.26	0.05863
5.291	0.08333
11.158	0.1463
17.477	0.19013
23.47	0.23125
29.764	0.27495
36.359	0.31186
42.828	0.35175
48.997	0.39124
55.591	0.42381
62.462	0.4523
68.48	0.48011
75.375	0.50725
81.87	0.52706
