Adsorption isotherm of Hydrogen on CMS 4A
DOI: 10.1007/s00339-015-9537-x
Article source: Figure 3(a)- 4_1 SP
Adsorbate Hydrogen: InChIKey UFHFLCQGNIYNRP-UHFFFAOYSA-N
Kind: experiment
Isotherm type: excess
Temperature: 303 K
Tabular data in the source: 0
pressure (bar)	uptake (wt%)
35.733	0.160141
41.444	0.171821
54.086	0.216542
71.874	0.249769
