Adsorption isotherm of Hydrogen on MSC-30
DOI: 10.1007/s00339-015-9537-x
Article source: Figure 2(a)- NREL_3
Adsorbate Hydrogen: InChIKey UFHFLCQGNIYNRP-UHFFFAOYSA-N
Kind: experiment
Isotherm type: excess
Temperature: 303 K
Tabular data in the source: 0
pressure (bar)	uptake (wt%)
9.292	0.11368
12.875	0.13329
14.07	0.15785
20.958	0.22035
22.193	0.23522
25.697	0.25074
31.55	0.30633
38.597	0.35331
44.45	0.40719
52.055	0.4477
57.709	0.49468
65.194	0.53002
71.326	0.57205
78.572	0.60372
84.784	0.64122
91.751	0.66708
98.082	0.70329
105.009	0.7285
111.698	0.75716
118.745	0.78043
125.593	0.80716
132.083	0.83021
138.891	0.85069
145.739	0.87331
152.507	0.88991
158.479	0.90736
166.323	0.9259
