Adsorption isotherm of Hydrogen on CMS 4A
DOI: 10.1007/s00339-015-9537-x
Article source: Figure 3(a)- 2
Adsorbate Hydrogen: InChIKey UFHFLCQGNIYNRP-UHFFFAOYSA-N
Kind: experiment
Isotherm type: excess
Temperature: 303 K
Tabular data in the source: 0
pressure (bar)	uptake (wt%)
0.689	0.002251
1.656	0.011355
3.329	0.018713
4.935	0.026977
6.083	0.034704
7.283	0.041463
9.183	0.049688
10.422	0.057053
11.497	0.065095
13.645	0.070597
14.265	0.076777
15.711	0.083888
17.612	0.089728
19.223	0.0965
20.628	0.101749
22.818	0.107589
23.685	0.113938
25.875	0.11961
