Adsorption isotherm of Hydrogen on MSC-30
DOI: 10.1007/s00339-015-9537-x
Article source: Figure 2(b)- NREL_1
Adsorbate Hydrogen: InChIKey UFHFLCQGNIYNRP-UHFFFAOYSA-N
Kind: experiment
Isotherm type: excess
Temperature: 76 K
Tabular data in the source: 0
pressure (bar)	uptake (wt%)
21.42	5.43828
34.644	5.59653
51.429	5.47756
66.019	5.24203
76.802	5.08793
81.877	4.96249
92.953	4.76219
105.054	4.56849
111.738	4.45843
113.397	4.39021
121.058	4.32634
132.476	4.15464
139.844	4.05777
144.284	3.98953
147.846	3.9411
