Adsorption isotherm of Hydrogen on MSC-30
DOI: 10.1007/s00339-015-9537-x
Article source: Figure 2(b)- 2
Adsorbate Hydrogen: InChIKey UFHFLCQGNIYNRP-UHFFFAOYSA-N
Kind: experiment
Isotherm type: excess
Temperature: 76 K
Tabular data in the source: 0
pressure (bar)	uptake (wt%)
0.281	0.66305
0.573	1.82821
0.589	1.27632
1.012	2.39581
1.646	2.89301
2.378	3.344
3.403	3.7334
4.232	4.05239
5.452	4.29878
6.671	4.51217
7.988	4.67716
9.354	4.82014
10.623	4.93673
12.086	5.03132
13.208	5.10611
14.574	5.17209
15.404	5.23368
16.135	5.29528
17.257	5.33267
17.892	5.36346
18.721	5.39425
19.745	5.42504
20.38	5.45804
