Adsorption isotherm of Methane on STT Zeolite
DOI: 10.1007/s10450-017-9911-4
Article source: Figure 1
Adsorbate Methane: InChIKey VNWKTOKETHGBQD-UHFFFAOYSA-N
Kind: experiment
Isotherm type: excess
Temperature: 298 K
Tabular data in the source: 0
pressure (bar)	uptake (mmol/g)
0.001224	0.002796
0.200326	0.123036
0.489596	0.283622
0.687067	0.372304
0.822929	0.435419
0.943696	0.478562
