Adsorption isotherm of Methane on STT Zeolite
DOI: 10.1007/s10450-017-9911-4
Article source: Figure 1
Adsorbate Methane: InChIKey VNWKTOKETHGBQD-UHFFFAOYSA-N
Kind: experiment
Temperature: 323 K
Tabular data in the source: 0
pressure (bar)	uptake (mmol/g)
0	0.001997
0.266422	0.08229
0.53978	0.145406
0.729498	0.188948
0.875153	0.2249
0.956752	0.238482
