Adsorption isotherm of Methane on STT Zeolite
DOI: 10.1007/s10450-017-9911-4
Article source: Figure 1
Adsorbate Methane: InChIKey VNWKTOKETHGBQD-UHFFFAOYSA-N
Kind: experiment
Isotherm type: excess
Temperature: 348 K
Tabular data in the source: 0
pressure (bar)	uptake (mmol/g)
0.000408	0.002397
0.21583	0.033156
0.521828	0.077097
0.740922	0.10466
0.847409	0.117044
0.934721	0.132224
