Adsorption isotherm of Carbon Dioxide on STT Zeolite
DOI: 10.1007/s10450-017-9911-4
Article source: Figure 2
Adsorbate Carbon Dioxide: InChIKey CURLTUGMZLYLDI-UHFFFAOYSA-N
Kind: experiment
Isotherm type: excess
Temperature: 348 K
Tabular data in the source: 0
pressure (bar)	uptake (mmol/g)
0.00266	0.020422
0.035239	0.095303
0.071144	0.171886
0.211436	0.318244
0.380319	0.439074
0.56383	0.561607
0.589096	0.551396
0.730718	0.651804
0.793218	0.670524
0.837101	0.709666
0.928856	0.767529
