Adsorption isotherm of Carbon Dioxide on STT Zeolite
DOI: 10.1007/s10450-017-9911-4
Article source: Figure 2
Adsorbate Carbon Dioxide: InChIKey CURLTUGMZLYLDI-UHFFFAOYSA-N
Kind: experiment
Temperature: 323 K
Tabular data in the source: 0
pressure (bar)	uptake (mmol/g)
0.000665	0.008509
0.046543	0.171886
0.104388	0.291014
0.178191	0.433969
0.353059	0.650102
0.494016	0.806671
0.541223	0.850919
0.719415	1.0194
0.759309	1.06875
0.833112	1.12662
0.888963	1.18278
0.920878	1.19809
0.949468	1.22192
0.962766	1.23383
