Adsorption isotherm of Carbon Dioxide on STT Zeolite
DOI: 10.1007/s10450-017-9911-4
Article source: Figure 2
Adsorbate Carbon Dioxide: InChIKey CURLTUGMZLYLDI-UHFFFAOYSA-N
Kind: experiment
Temperature: 298 K
Tabular data in the source: 0
pressure (bar)	uptake (mmol/g)
0.000665	0.005106
0.004654	0.039142
0.006649	0.156569
0.039229	0.331858
0.086436	0.515657
0.15625	0.704561
0.284574	1.05854
0.356383	1.17767
0.535904	1.51974
0.680851	1.758
0.783245	1.90606
0.847074	1.99966
0.908245	2.07114
0.950798	2.1307
