Adsorption isotherm of Lead(II) Ion on marine diatom biosilica
DOI: 10.1016/j.apsusc.2016.11.069
Article source: Figure 5a
Adsorbate Lead(II) Ion: InChIKey RVPVRDXYQKGNMQ-UHFFFAOYSA-N
Kind: experiment
Temperature: 298 K
Tabular data in the source: 0
pressure (bar)	uptake (mg/g)
1.01325	9.87
1.01325	41.466
1.01325	60.67
1.01325	101.513
1.01325	108.274
1.01325	104.821
