Adsorption isotherm of Ni(II) on marine diatom biosilica
DOI: 10.1016/j.apsusc.2016.11.069
Article source: Figure 7c
Adsorbate Ni(II): InChIKey VEQPNABPJHWNSG-UHFFFAOYSA-N
Kind: experiment
Temperature: 298 K
Tabular data in the source: 0
pressure (bar)	uptake (mg/g)
1.01325	0.73
1.01325	2.044
1.01325	24.286
1.01325	28.065
1.01325	27.346
