Adsorption isotherm of Ag(I) on marine diatom biosilica
DOI: 10.1016/j.apsusc.2016.11.069
Article source: Figure 7c
Adsorbate Ag(I): InChIKey FOIXSVOLVBLSDH-UHFFFAOYSA-N
Kind: experiment
Temperature: 298 K
Tabular data in the source: 0
pressure (bar)	uptake (mg/g)
1.01325	4.842
1.01325	4.189
1.01325	11.739
1.01325	16.83
1.01325	13.96
