Adsorption isotherm of Copper(II) Ion on marine diatom biosilica
DOI: 10.1016/j.apsusc.2016.11.069
Article source: Figure 7c
Adsorbate Copper(II) Ion: InChIKey JPVYNHNXODAKFH-UHFFFAOYSA-N
Kind: experiment
Temperature: 298 K
Tabular data in the source: 0
pressure (bar)	uptake (mg/g)
1.01325	7.191
1.01325	7.494
1.01325	11.36
1.01325	11.139
1.01325	11.224
