Adsorption isotherm of Cadmium(II) Ion on marine diatom biosilica
DOI: 10.1016/j.apsusc.2016.11.069
Article source: Figure 7c
Adsorbate Cadmium(II) Ion: InChIKey WLZRMCYVCSSEQC-UHFFFAOYSA-N
Kind: experiment
Temperature: 298 K
Tabular data in the source: 0
pressure (bar)	uptake (mg/g)
1.01325	5.114
1.01325	6.592
1.01325	15.136
1.01325	12.618
1.01325	11.003
