Adsorption isotherm of Nitrogen on CuBTC/CF
DOI: 10.1016/j.micromeso.2011.12.055
Adsorbate Nitrogen: InChIKey IJGRMHOSHXDMSA-UHFFFAOYSA-N
Temperature: 77 K
Tabular data in the source: 0
pressure (bar)	uptake (cm3(STP)/g)
0.013028	225.408
0.0297784	228.261
0.0483899	231.114
0.0651402	234.918
0.0837517	236.821
0.100502	238.723
0.119114	239.674
0.137725	240.625
0.154475	241.576
0.173087	242.527
0.191698	243.478
0.21031	243.478
0.228921	244.429
0.245672	245.38
0.264283	246.332
0.282895	246.332
0.301506	247.283
0.320118	247.283
0.338729	248.234
0.357341	248.234
0.375952	248.234
0.394564	249.185
0.413175	249.185
0.429926	249.185
0.448537	250.136
0.46901	250.136
0.487621	250.136
0.506233	251.087
0.524844	251.087
0.543456	251.087
0.562067	251.087
0.580679	251.087
0.59929	252.038
0.617902	252.038
0.636513	252.038
0.655125	252.038
0.673736	252.038
0.692348	252.038
0.709098	252.989
0.727709	252.989
0.746321	252.989
0.764932	252.989
0.783544	253.94
0.802155	253.94
0.820767	253.94
0.839378	254.891
0.85799	254.891
0.876601	255.842
0.893352	256.793
0.910102	258.696
0.924991	265.353
0.936158	271.06
0.947325	278.668
0.956631	287.228
0.962214	296.739
