Adsorption isotherm of Nitrogen on Ceramic Foam
DOI: 10.1016/j.micromeso.2011.12.055
Adsorbate Nitrogen: InChIKey IJGRMHOSHXDMSA-UHFFFAOYSA-N
Temperature: 77 K
Tabular data in the source: 0
pressure (bar)	uptake (cm3(STP)/g)
0.0111669	0.951087
0.0335007	0.951087
0.0725848	0.951087
0.0949186	1.90217
0.148892	0.951087
0.191698	0.951087
0.264283	0.951087
0.308951	1.90217
0.361063	0.951087
0.407592	0.951087
0.455982	0.951087
0.506233	0.951087
0.5509	1.90217
0.603012	1.90217
0.651402	0.951087
0.699792	1.90217
0.703514	0.951087
0.748182	0.951087
0.774238	1.90217
0.82635	2.85326
0.876601	1.90217
0.911963	2.85326
0.947325	4.75543
0.967798	8.55978
