Adsorption isotherm of Nitrogen on CuBTC/CF
DOI: 10.1016/j.micromeso.2011.12.055
Adsorbate Nitrogen: InChIKey IJGRMHOSHXDMSA-UHFFFAOYSA-N
Temperature: 77 K
Tabular data in the source: 0
pressure (bar)	uptake (cm3(STP)/g)
0.0074446	108.424
0.0279172	112.228
0.0688625	115.082
0.0986409	116.984
0.139586	117.935
0.150753	118.886
0.195421	118.886
0.243811	118.886
0.2922	119.837
0.321979	119.837
0.34059	120.788
0.370369	119.837
0.381536	119.837
0.400147	119.837
0.418759	119.837
0.439231	120.788
0.487621	120.788
0.515538	121.739
0.53415	121.739
0.563928	121.739
0.580679	121.739
0.632791	121.739
0.662569	120.788
0.69607	121.739
0.71282	121.739
0.729571	121.739
0.76121	121.739
0.77796	121.739
0.805878	121.739
0.843101	121.739
0.872879	122.69
0.897074	121.739
0.913824	122.69
0.936158	123.641
0.951047	124.592
0.967798	128.397
