Adsorption isotherm of Nitrogen on CuBTC/CF
DOI: 10.1016/j.micromeso.2011.12.055
Adsorbate Nitrogen: InChIKey IJGRMHOSHXDMSA-UHFFFAOYSA-N
Temperature: 77 K
Tabular data in the source: 0
pressure (bar)	uptake (cm3(STP)/g)
0.00558345	75.1359
0.0241949	76.087
0.0409453	77.9891
0.0595568	78.9402
0.0763071	80.8424
0.0949186	81.7935
0.111669	82.7446
0.13028	82.7446
0.154475	82.7446
0.173087	82.7446
0.202865	82.7446
0.221477	83.6957
0.251255	84.6467
0.269867	84.6467
0.2922	85.5978
0.342451	86.5489
0.409453	86.5489
0.467149	87.5
0.532289	90.3533
0.586262	90.3533
0.63093	90.3533
0.677458	91.3043
0.716543	92.2554
0.735154	92.2554
0.751904	92.2554
0.770516	92.2554
0.776099	92.2554
0.831934	94.1576
0.850545	95.1087
0.898935	96.0598
0.932436	97.962
0.951047	97.962
0.964075	103.668
