Adsorption isotherm of Carbon Dioxide on [Zn2(bpdc)2bpe]-2DMF
DOI: 10.1039/C0cc02942d
Adsorbate Carbon Dioxide: InChIKey CURLTUGMZLYLDI-UHFFFAOYSA-N
Temperature: 273 K
Tabular data in the source: 0
pressure (bar)	uptake (cm3(STP)/g)
0.0157535	2.31579
0.0274818	3.15789
0.0354096	4.84211
0.0475465	9.89474
0.0593157	11.1579
0.0788492	12.4211
0.102244	13.4737
0.129563	14.9474
0.156861	16.2105
0.199687	17.4737
0.250299	18.9474
0.321016	27.5789
0.398945	30.5263
0.508076	34.9474
0.570334	36.4211
0.640336	37.6842
0.718061	38.5263
0.807453	39.5789
0.908472	40.4211
1.01723	41.0526
