Adsorption isotherm of Methane on [Zn2(bpdc)2bpe]-2DMF
DOI: 10.1039/C0cc02942d
Adsorbate Methane: InChIKey VNWKTOKETHGBQD-UHFFFAOYSA-N
Temperature: 298 K
Tabular data in the source: 0
pressure (bar)	uptake (cm3(STP)/g)
0.0502061	0.166667
0.155182	0.333333
0.25103	0.333333
0.556831	0.666667
0.712014	1
0.76222	1
0.807861	1
0.862632	1
0.912838	1
0.963044	1
1.01325	1.16667
