Adsorption isotherm of Nitrogen on [Zn2(bpdc)2bpe]-2DMF
DOI: 10.1039/C0cc02942d
Adsorbate Nitrogen: InChIKey IJGRMHOSHXDMSA-UHFFFAOYSA-N
Temperature: 298 K
Tabular data in the source: 0
pressure (bar)	uptake (cm3(STP)/g)
0.100412	0.183183
0.200824	0.1997
0.406213	0.233483
0.607037	0.266517
0.812426	0.133634
0.912838	0.316817
1.00869	0.332583
