Adsorption isotherm of Carbon monoxide on [Zn2(bpdc)2(bpe)]
DOI: 10.1039/C0cc02942d
Adsorbate Carbon monoxide: InChIKey UGFAIRIUMAVXCW-UHFFFAOYSA-N
Temperature: 298 K
Tabular data in the source: 0
pressure (bar)	uptake (cm3(STP)/g)
0.104763	0.121212
0.204614	0.181818
0.309377	0.121212
0.407592	0.121212
0.510717	0.121212
0.610569	0.121212
0.712058	0.181818
0.815183	0.121212
0.916672	0.181818
1.01161	0.181818
