Adsorption isotherm of Carbon Dioxide on [Zn2(bpdc)2bpe]-2DMF
DOI: 10.1039/C0cc02942d
Adsorbate Carbon Dioxide: InChIKey CURLTUGMZLYLDI-UHFFFAOYSA-N
Temperature: 298 K
Tabular data in the source: 0
pressure (bar)	uptake (cm3(STP)/g)
0.0466884	1.05263
0.0622988	1.89474
0.0740271	2.73684
0.0975858	5.47368
0.124925	7.15789
0.156146	8.84211
0.202854	10.1053
0.249584	11.5789
0.315703	12.8421
0.405157	14.5263
0.506216	15.7895
0.568413	16.6316
0.634553	18.1053
0.716406	21.4737
0.80588	23.3684
0.907042	25.6842
