Adsorption isotherm of Carbon Dioxide on [Zn2(bpdc)2bpe]-2DMF
DOI: 10.1039/C0cc02942d
Adsorbate Carbon Dioxide: InChIKey CURLTUGMZLYLDI-UHFFFAOYSA-N
Temperature: 288 K
Tabular data in the source: 0
pressure (bar)	uptake (cm3(STP)/g)
0.0585801	3.57895
0.0783792	7.57895
0.0940306	8.84211
0.121349	10.3158
0.156432	11.7895
0.199279	13.2632
0.249849	14.3158
0.319872	15.7895
0.405443	17.4737
0.502947	22.1053
0.569251	25.2632
0.639294	26.9474
0.713259	29.0526
0.806677	31.5789
0.9117	33.6842
1.00892	35.3684
