Adsorption isotherm of Oxygen on [Zn2(bpdc)2(bpe)]
DOI: 10.1039/C0cc02942d
Adsorbate Oxygen: InChIKey MYMOFIZGZYHOMD-UHFFFAOYSA-N
Temperature: 298 K
Tabular data in the source: 0
pressure (bar)	uptake (cm3(STP)/g)
0.104763	0
0.202977	0.121457
0.306103	0.121457
0.409229	0.121457
0.50908	0.121457
0.608932	0
0.710421	0
0.81191	0.0607287
0.916672	0.0607287
1.01489	0.121457
