Adsorption isotherm of Carbon Dioxide on [Zn2(bpdc)2bpe]-2DMF
DOI: 10.1039/C0cc02942d
Adsorbate Carbon Dioxide: InChIKey CURLTUGMZLYLDI-UHFFFAOYSA-N
Temperature: 298 K
Tabular data in the source: 0
pressure (bar)	uptake (cm3(STP)/g)
0.00456419	0.333333
0.0228209	0.5
0.0410777	1.33333
0.0638986	2
0.0821554	3
0.100412	5.33333
0.123233	7.33333
0.159747	8.66667
0.200824	10.1667
0.255595	11.5
0.324057	13
0.401649	14.5
0.506625	15.8333
0.570524	16.8333
0.638986	18
0.716578	21.1667
0.807861	23.3333
0.903709	25.3333
1.00412	27.8333
