Adsorption isotherm of Hydrogen on In-MOF
DOI: 10.1039/B905138d
Adsorbate Hydrogen: InChIKey UFHFLCQGNIYNRP-UHFFFAOYSA-N
Temperature: 77 K
Tabular data in the source: 0
pressure (bar)	uptake (mg/g)
0.0180263	1.36011
0.0423388	3.55681
0.0580703	5.03271
0.106695	7.77859
0.15389	9.35747
0.206805	10.7304
0.291184	12.1377
0.409885	13.339
0.564341	14.3
0.661591	14.8149
0.765991	15.2954
0.868961	15.7759
0.963351	16.0505
0.987663	16.1878
