Adsorption isotherm of Hydrogen on CuBTC
DOI: 10.1039/B905138d
Adsorbate Hydrogen: InChIKey UFHFLCQGNIYNRP-UHFFFAOYSA-N
Temperature: 77 K
Tabular data in the source: 0
pressure (bar)	uptake (mg/g)
0.00372489	0.502022
0.0165962	2.76737
0.0409086	5.03271
0.0695115	7.19509
0.128147	10.2156
0.182493	12.0347
0.235408	13.5449
0.316926	15.2268
0.45565	17.4578
0.562911	18.7278
0.65873	19.6888
0.810326	21.1304
0.916156	21.7825
0.991954	22.3317
