Adsorption isotherm of Hydrogen on In-MOF
DOI: 10.1039/B905138d
Adsorbate Hydrogen: InChIKey UFHFLCQGNIYNRP-UHFFFAOYSA-N
Temperature: 77 K
Tabular data in the source: 0
pressure (bar)	uptake (mg/g)
0.00515504	0.158787
0.0308976	1.56605
0.100975	3.62545
0.15961	4.75813
0.215386	5.4446
0.296904	6.13106
0.366981	6.64592
0.518576	7.26374
0.620117	7.60697
0.721657	7.81291
0.818906	8.12182
0.917586	8.22479
0.973362	8.22479
