Adsorption isotherm of Nitrogen on In-MOF
DOI: 10.1039/B905138d
Adsorbate Nitrogen: InChIKey IJGRMHOSHXDMSA-UHFFFAOYSA-N
Temperature: 77 K
Tabular data in the source: 0
pressure (bar)	uptake (cm3(STP)/g)
0.00372489	5.8195
0.00372489	46.8646
0.00372489	124.45
0.00515504	196.029
0.00658518	240.077
0.015166	255.594
0.0566402	265.605
0.131008	278.119
0.213956	281.122
0.266871	283.625
0.281173	291.133
0.296904	310.654
0.35983	314.158
0.514286	316.661
0.668741	317.162
0.764561	317.162
0.866101	317.162
0.963351	317.162
0.994814	319.664
