Adsorption isotherm of Nitrogen on In-MOF
DOI: 10.1039/B905138d
Adsorbate Nitrogen: InChIKey IJGRMHOSHXDMSA-UHFFFAOYSA-N
Temperature: 77 K
Tabular data in the source: 0
pressure (bar)	uptake (cm3(STP)/g)
0.00229475	23.3388
0.00229475	47.3652
0.00658518	77.8987
0.0437689	91.9141
0.103835	97.4202
0.183923	99.9229
0.25686	101.425
0.35411	102.926
0.505705	103.427
0.604385	103.927
0.711646	104.428
0.806035	104.928
0.906145	106.931
0.95763	106.931
0.990524	108.933
