Adsorption isotherm of Nitrogen on Zeo4A
DOI: 10.1007/s10450-020-00245-0
Article source: Figure 3a
Adsorbate Nitrogen: InChIKey IJGRMHOSHXDMSA-UHFFFAOYSA-N
Kind: experiment
Temperature: 77 K
Tabular data in the source: 0
pressure (bar)	uptake (cm3(STP)/g)
0.005763	2.53968
0.015628	6.34921
0.042292	6.34921
0.074914	8.25397
0.107863	6.98413
0.161061	8.25397
0.199967	8.88889
0.25105	10.7937
0.300342	10.1587
0.36181	10.7937
0.415204	10.1587
0.462184	12.0635
0.513332	13.3333
0.558391	13.9683
0.61172	13.9683
0.652612	15.2381
0.717987	17.7778
0.764968	19.6825
0.809832	22.2222
0.864886	25.3968
0.935894	33.0159
0.973172	49.5238
0.340517	18.4127
0.401725	21.5873
0.44864	24.127
0.499723	26.0317
0.552987	26.6667
0.598437	23.4921
0.655868	23.4921
0.710727	28.5714
0.751749	28.5714
0.794497	31.746
0.851538	35.5556
0.906136	43.1746
0.951228	63.4921
