Adsorption isotherm of Carbon Dioxide on PAF
DOI: 10.1007/s10450-020-00245-0
Article source: Figure 3b
Adsorbate Carbon Dioxide: InChIKey CURLTUGMZLYLDI-UHFFFAOYSA-N
Kind: experiment
Temperature: 273 K
Tabular data in the source: 0
pressure (bar)	uptake (cm3(STP)/g)
0.01067	7.96134
0.01191	17.784
0.012944	20.9695
0.013787	24.9515
0.016235	29.7295
0.019066	32.9145
0.032296	37.6892
0.060028	41.9285
0.082688	44.842
0.110929	46.9572
0.171323	49.8591
0.228441	51.4345
0.289471	51.6814
0.328684	52.9968
0.38426	53.5108
0.450299	55.349
0.514732	56.3912
0.55606	56.3786
0.609457	58.4861
0.666766	59.265
0.727733	59.7774
0.777663	61.355
0.842351	61.3352
0.888624	63.1795
0.911983	63.1723
0.94773	63.9579
0.97648	63.9491
0.108623	49.0818
0.208294	53.0336
0.300968	56.1911
0.399414	57.7539
0.495936	59.8483
0.601506	61.6744
0.680187	63.2432
0.788063	62.9448
0.891773	65.0369
0.978086	64.745
