Adsorption isotherm of Carbon Dioxide on Zeo4A
DOI: 10.1007/s10450-020-00245-0
Article source: Figure 4b
Adsorbate Carbon Dioxide: InChIKey CURLTUGMZLYLDI-UHFFFAOYSA-N
Kind: experiment
Temperature: 363 K
Tabular data in the source: 0
pressure (bar)	uptake (mmol/g)
0.00304	0.038776
0.018136	0.222949
0.028277	0.436344
0.040232	0.572034
0.06575	0.746296
0.096531	0.920456
0.135205	1.09446
0.170635	1.21028
0.289363	1.48953
0.374681	1.59467
0.465669	1.73853
0.527613	1.87325
0.620824	1.97824
0.718887	2.04429
0.843568	2.13896
0.936063	2.176
