Adsorption isotherm of Nitrogen on Zeo4A
DOI: 10.1007/s10450-020-00245-0
Article source: Figure 5b
Adsorbate Nitrogen: InChIKey IJGRMHOSHXDMSA-UHFFFAOYSA-N
Kind: experiment
Temperature: 343 K
Tabular data in the source: 0
pressure (bar)	uptake (mmol/g)
0.013174	0.00135
0.121187	0.016427
0.200079	0.028781
0.313788	0.040608
0.41145	0.052464
0.498613	0.062488
0.593601	0.074349
0.717611	0.08986
0.815471	0.099864
0.905309	0.109883
