Adsorption isotherm of Nitrogen on PAF
DOI: 10.1007/s10450-020-00245-0
Article source: Figure 5b
Adsorbate Nitrogen: InChIKey IJGRMHOSHXDMSA-UHFFFAOYSA-N
Kind: experiment
Temperature: 323 K
Tabular data in the source: 0
pressure (bar)	uptake (mmol/g)
0.015749	0.002271
0.110291	0.018299
0.215977	0.030141
0.316165	0.043381
0.421454	0.058927
0.510895	0.07265
0.613708	0.086349
0.708449	0.100525
0.803387	0.112849
0.908924	0.12608
