Adsorption isotherm of Carbon Dioxide on XFF
DOI: 10.1007/s10450-020-00245-0
Article source: Figure 4a
Adsorbate Carbon Dioxide: InChIKey CURLTUGMZLYLDI-UHFFFAOYSA-N
Kind: experiment
Temperature: 343 K
Tabular data in the source: 0
pressure (bar)	uptake (mmol/g)
0.006915	0.053617
0.017848	0.300811
0.038846	0.537144
0.046593	0.838136
0.094635	1.10644
0.176816	1.51416
0.2889	1.80327
0.427956	2.10285
0.509051	2.188
0.607089	2.30523
0.738795	2.42209
0.833357	2.5071
0.921114	2.57067
1.00887	2.63424
