Adsorption isotherm of Nitrogen on PAF
DOI: 10.1007/s10450-020-00245-0
Article source: Figure 3a
Adsorbate Nitrogen: InChIKey IJGRMHOSHXDMSA-UHFFFAOYSA-N
Kind: experiment
Temperature: 77 K
Tabular data in the source: 0
pressure (bar)	uptake (cm3(STP)/g)
-0.002572	3.80952
0.00114	7.61905
0.017483	8.25397
0.050431	6.98413
0.068761	8.25397
0.10363	8.25397
0.156894	8.88889
0.20586	11.4286
0.256943	13.3333
0.299886	14.6032
0.349113	14.6032
0.410451	16.5079
0.46378	16.5079
0.523066	18.4127
0.572098	20.3175
0.611134	19.6825
0.656193	20.3175
0.719322	24.7619
0.764642	22.8571
0.807195	27.9365
0.853654	34.9206
0.910759	38.0952
0.953117	45.0794
0.41032	17.7778
0.459287	20.3175
0.504216	22.2222
0.555363	23.4921
0.602409	24.7619
0.66964	29.2063
0.712583	30.4762
0.75354	31.1111
0.798274	34.9206
0.853589	35.5556
0.900504	38.0952
0.955298	43.8095
