Adsorption isotherm of Nitrogen on ZEO13X
DOI: 10.1007/s10450-020-00245-0
Article source: Figure 3a
Adsorbate Nitrogen: InChIKey IJGRMHOSHXDMSA-UHFFFAOYSA-N
Kind: experiment
Temperature: 77 K
Tabular data in the source: 0
pressure (bar)	uptake (cm3(STP)/g)
0.00573	22.8571
0.001758	61.5873
-0.002116	79.3651
-0.001042	88.8889
-0.003614	93.9683
-9.8e-05	99.6825
0.005665	103.492
0.01553	107.302
0.025525	109.841
0.033534	111.746
0.049748	113.651
0.100635	117.46
0.149536	120.635
0.194465	122.54
0.247403	126.349
0.304574	128.889
0.347257	132.698
0.396223	135.238
0.449226	138.413
0.504281	141.587
0.550936	146.667
0.601953	149.206
0.650919	151.746
0.695653	155.556
0.748656	158.73
0.801269	165.714
0.852221	168.889
0.914894	177.778
0.956079	196.19
-0.004949	86.9841
-0.00586	95.873
0.003353	106.032
0.014944	113.016
0.051148	120
0.067361	121.905
0.108188	123.81
0.159401	124.444
0.212274	128.889
0.253166	130.159
0.300081	132.698
0.356991	137.778
0.389679	139.048
0.440436	144.127
0.491453	146.667
0.53215	149.841
0.577079	151.746
0.646166	158.095
0.70109	162.54
0.731596	165.079
0.798762	170.159
0.849454	175.873
0.901806	185.397
