Adsorption isotherm of Carbon Dioxide on XFF
DOI: 10.1007/s10450-020-00245-0
Article source: Figure 4a
Adsorbate Carbon Dioxide: InChIKey CURLTUGMZLYLDI-UHFFFAOYSA-N
Kind: experiment
Temperature: 323 K
Tabular data in the source: 0
pressure (bar)	uptake (mmol/g)
0.013612	0.042792
0.020925	0.214756
0.021396	0.354536
0.022048	0.548078
0.02603	0.73083
0.036927	0.967272
0.051082	1.17142
0.109478	1.51488
0.198465	1.94403
0.330932	2.28669
0.425892	2.48997
0.524039	2.63945
0.625371	2.73514
0.709869	2.831
0.804576	2.95902
0.926073	3.04373
1.0071	3.10738
