Adsorption isotherm of Nitrogen on PAF
DOI: 10.1007/s10450-020-00245-0
Article source: Figure 5b
Adsorbate Nitrogen: InChIKey IJGRMHOSHXDMSA-UHFFFAOYSA-N
Kind: experiment
Temperature: 363 K
Tabular data in the source: 0
pressure (bar)	uptake (mmol/g)
0.015749	0.002271
0.116432	0.010881
0.21459	0.018106
0.312797	0.024869
0.392433	0.030277
0.514808	0.036069
0.626139	0.045122
0.727169	0.05049
0.80938	0.05682
0.897038	0.062213
