Adsorption isotherm of Carbon Dioxide on Zeo4A
DOI: 10.1007/s10450-020-00245-0
Article source: Figure 4b
Adsorbate Carbon Dioxide: InChIKey CURLTUGMZLYLDI-UHFFFAOYSA-N
Kind: experiment
Temperature: 343 K
Tabular data in the source: 0
pressure (bar)	uptake (mmol/g)
0.008404	0.048381
0.021176	0.261725
0.036477	0.465311
0.04156	0.698222
0.069429	1.09574
0.117528	1.41519
0.167544	1.66665
0.216231	1.79192
0.297716	2.03305
0.449627	2.21457
0.523807	2.26167
0.637964	2.35654
0.720548	2.45203
0.83146	2.48871
0.929217	2.52565
