Adsorption isotherm of Carbon Dioxide on PAF
DOI: 10.1007/s10450-020-00245-0
Article source: Figure 4b
Adsorbate Carbon Dioxide: InChIKey CURLTUGMZLYLDI-UHFFFAOYSA-N
Kind: experiment
Temperature: 343 K
Tabular data in the source: 0
pressure (bar)	uptake (mmol/g)
0.000817	0.077654
0.002146	0.203842
0.017242	0.388015
0.029708	0.572239
0.033769	0.708082
0.075789	0.949985
0.114565	1.1337
0.136635	1.23036
0.161234	1.31726
0.183304	1.41392
0.232094	1.54889
0.269848	1.63554
0.307602	1.72218
0.437749	1.83616
0.525186	1.89271
0.617886	1.94917
0.72627	1.99561
0.82372	2.00342
0.926944	2.05967
