Adsorption isotherm of Nitrogen on ZEO13X
DOI: 10.1007/s10450-020-00245-0
Article source: Figure 5a
Adsorbate Nitrogen: InChIKey IJGRMHOSHXDMSA-UHFFFAOYSA-N
Kind: experiment
Temperature: 323 K
Tabular data in the source: 0
pressure (bar)	uptake (mmol/g)
0.005402	0.00276
0.059607	0.018839
0.07862	0.022969
0.105716	0.031239
0.132863	0.037666
0.190015	0.045908
0.396676	0.082123
0.491929	0.09586
0.581592	0.114211
0.701184	0.137142
0.807316	0.152712
0.9052	0.170133
