Adsorption isotherm of Nitrogen on XFF
DOI: 10.1007/s10450-020-00245-0
Article source: Figure 3a
Adsorbate Nitrogen: InChIKey IJGRMHOSHXDMSA-UHFFFAOYSA-N
Kind: experiment
Temperature: 77 K
Tabular data in the source: 0
pressure (bar)	uptake (cm3(STP)/g)
-0.001042	48.8889
-0.001595	74.2857
-0.000326	81.9048
0.00293	90.1587
0.010288	98.4127
0.013935	102.857
0.025395	111.111
0.03718	116.19
0.053394	118.095
0.096402	118.73
0.145108	123.81
0.194009	126.984
0.228553	130.159
0.283737	132.063
0.330718	133.968
0.385642	138.413
0.438645	141.587
0.493765	144.127
0.557024	147.302
0.593553	151.111
0.652645	154.921
0.697574	156.825
0.750577	160
0.797232	165.079
0.848054	169.524
0.890606	174.603
0.949242	182.857
0.006804	112.381
0.038906	119.365
0.099853	125.079
0.154843	128.889
0.199446	133.968
0.234185	135.238
0.281165	137.143
0.334494	137.143
0.395637	140.952
0.440306	145.397
0.493114	150.476
0.539768	155.556
0.601367	154.921
0.650203	158.73
0.680514	163.175
0.741657	166.984
0.802669	172.063
0.849389	176.508
0.902067	182.857
0.936219	189.841
