Adsorption isotherm of Nitrogen on Zeo4A
DOI: 10.1007/s10450-020-00245-0
Article source: Figure 5b
Adsorbate Nitrogen: InChIKey IJGRMHOSHXDMSA-UHFFFAOYSA-N
Kind: experiment
Temperature: 363 K
Tabular data in the source: 0
pressure (bar)	uptake (mmol/g)
0.018423	0.002266
0.097662	0.011378
0.209093	0.019505
0.315174	0.027642
0.407736	0.037193
0.500693	0.043039
0.6042	0.050255
0.707656	0.057934
0.803189	0.064701
0.895949	0.0724
