Adsorption isotherm of Carbon Dioxide on XFF
DOI: 10.1007/s10450-020-00245-0
Article source: Figure 3b
Adsorbate Carbon Dioxide: InChIKey CURLTUGMZLYLDI-UHFFFAOYSA-N
Kind: experiment
Temperature: 273 K
Tabular data in the source: 0
pressure (bar)	uptake (cm3(STP)/g)
0.013803	2.38516
0.01323	4.77471
0.015997	8.22519
0.024091	11.9395
0.030261	16.1854
0.032455	22.0255
0.063209	28.6532
0.085805	31.8322
0.104998	34.2157
0.122458	36.3342
0.171307	42.4255
0.231828	44.7963
0.283429	46.9044
0.327651	49.8113
0.385023	50.3247
0.443875	52.1651
0.495412	54.5387
0.559781	55.8465
0.618887	56.6248
0.663554	57.6731
0.72972	58.9803
0.783626	58.9638
0.844656	59.2106
0.903381	61.582
0.92674	61.5749
0.956969	62.8931
0.105077	41.3838
0.198467	49.0543
0.305389	52.7384
0.405504	54.8317
0.500357	56.3956
0.594891	59.287
0.693529	60.0533
0.790242	61.3512
0.890421	63.1789
