Adsorption isotherm of Nitrogen on ZEO13X
DOI: 10.1007/s10450-020-00245-0
Article source: Figure 5a
Adsorbate Nitrogen: InChIKey IJGRMHOSHXDMSA-UHFFFAOYSA-N
Kind: experiment
Temperature: 363 K
Tabular data in the source: 0
pressure (bar)	uptake (mmol/g)
0.013573	0.003674
0.089612	0.020655
0.155011	0.027046
0.206736	0.033911
0.296676	0.042123
0.416671	0.050307
0.484802	0.056696
0.585608	0.067202
0.702871	0.075389
0.792836	0.082679
0.912793	0.092246
