Adsorption isotherm of Carbon Dioxide on ZEO13X
DOI: 10.1007/s10450-020-00245-0
Article source: Figure 3b
Adsorbate Carbon Dioxide: InChIKey CURLTUGMZLYLDI-UHFFFAOYSA-N
Kind: experiment
Temperature: 273 K
Tabular data in the source: 0
pressure (bar)	uptake (cm3(STP)/g)
0.017142	3.44608
0.018048	7.16262
0.020561	11.6751
0.021149	16.7192
0.027319	20.9651
0.042552	32.3764
0.061634	42.7245
0.083785	47.762
0.099384	50.1466
0.132444	54.6497
0.175584	62.0702
0.217755	66.0396
0.279946	68.9409
0.338416	72.3743
0.39528	75.0118
0.443223	77.3865
0.49662	79.4941
0.561053	80.5363
0.607263	82.6461
0.666305	83.69
0.72336	85.5309
0.775278	86.3115
0.830663	87.622
0.878861	88.9347
0.901966	89.9896
0.932322	90.7767
0.962741	91.2984
0.108067	58.905
0.196972	70.2937
0.306851	76.6318
0.401132	80.5853
0.493615	84.5393
0.593667	86.898
0.685053	87.932
0.783372	90.0258
