Adsorption isotherm of Carbon Dioxide on XFF
DOI: 10.1007/s10450-020-00245-0
Article source: Figure 4a
Adsorbate Carbon Dioxide: InChIKey CURLTUGMZLYLDI-UHFFFAOYSA-N
Kind: experiment
Temperature: 363 K
Tabular data in the source: 0
pressure (bar)	uptake (mmol/g)
0.013576	0.03204
0.014011	0.161067
0.024401	0.246977
0.045326	0.461806
0.055716	0.547716
0.137789	0.923177
0.199044	1.11607
0.287416	1.36243
0.385671	1.54417
0.514228	1.72558
0.619108	1.87499
0.730432	1.93831
0.831837	2.0555
0.919593	2.11907
