Adsorption isotherm of Carbon Dioxide on PAF
DOI: 10.1007/s10450-020-00245-0
Article source: Figure 4b
Adsorbate Carbon Dioxide: InChIKey CURLTUGMZLYLDI-UHFFFAOYSA-N
Kind: experiment
Temperature: 363 K
Tabular data in the source: 0
pressure (bar)	uptake (mmol/g)
0.003142	0.048483
0.003448	0.077603
0.009221	0.126035
0.012976	0.232758
0.022096	0.349086
0.047103	0.474814
0.064013	0.581281
0.088817	0.687596
0.105318	0.755237
0.149254	0.929141
0.211607	1.10269
0.316057	1.27542
0.425871	1.45775
0.473741	1.50536
0.529606	1.56253
0.638194	1.62838
0.731097	1.70425
0.826326	1.75094
0.929447	1.79749
