Adsorption isotherm of Carbon Dioxide on ZEO13X
DOI: 10.1007/s10450-020-00245-0
Article source: Figure 4a
Adsorbate Carbon Dioxide: InChIKey CURLTUGMZLYLDI-UHFFFAOYSA-N
Kind: experiment
Temperature: 343 K
Tabular data in the source: 0
pressure (bar)	uptake (mmol/g)
0.010318	0.064333
0.014445	0.290095
0.028818	0.558758
0.039642	0.773695
0.084679	1.14955
0.126349	1.52545
0.201361	1.80421
0.299906	2.07197
0.408443	2.30736
0.503475	2.53215
0.591413	2.64948
0.696112	2.74513
0.79748	2.85157
0.905691	2.99019
