Adsorption isotherm of Carbon Dioxide on PAF
DOI: 10.1007/s10450-020-00245-0
Article source: Figure 4b
Adsorbate Carbon Dioxide: InChIKey CURLTUGMZLYLDI-UHFFFAOYSA-N
Kind: experiment
Temperature: 323 K
Tabular data in the source: 0
pressure (bar)	uptake (mmol/g)
0.005977	0.067845
0.019669	0.36855
0.029912	0.591652
0.040564	0.853581
0.060131	1.21242
0.083734	1.45468
0.111168	1.56095
0.138704	1.67692
0.184965	1.82165
0.225248	1.89854
0.326249	1.99366
0.424619	2.08884
0.541509	2.19337
0.628538	2.2111
0.715975	2.26765
0.818995	2.30449
0.927583	2.37034
