Adsorption isotherm of Nitrogen on XFF
DOI: 10.1007/s10450-020-00245-0
Article source: Figure 5a
Adsorbate Nitrogen: InChIKey IJGRMHOSHXDMSA-UHFFFAOYSA-N
Kind: experiment
Temperature: 363 K
Tabular data in the source: 0
pressure (bar)	uptake (mmol/g)
0.010816	0.004598
0.116935	0.02063
0.157781	0.025661
0.236892	0.030196
0.285986	0.033377
0.392395	0.038809
0.430534	0.042921
0.471418	0.04657
0.583291	0.051997
0.646072	0.054243
0.733329	0.060614
0.853286	0.070181
0.921481	0.074266
0.973357	0.075601
