Adsorption isotherm of Nitrogen on XFF
DOI: 10.1007/s10450-020-00245-0
Article source: Figure 5a
Adsorbate Nitrogen: InChIKey IJGRMHOSHXDMSA-UHFFFAOYSA-N
Kind: experiment
Temperature: 343 K
Tabular data in the source: 0
pressure (bar)	uptake (mmol/g)
0.008121	0.003218
0.078633	0.022508
0.111282	0.027547
0.157567	0.033495
0.212025	0.040358
0.282888	0.046744
0.364681	0.05312
0.432863	0.057666
0.498225	0.065439
0.582674	0.074578
0.656245	0.081884
0.738001	0.089642
0.836124	0.098308
0.920637	0.105142
0.977827	0.112002
