Adsorption isotherm of Carbon Dioxide on ZEO13X
DOI: 10.1007/s10450-020-00245-0
Article source: Figure 4a
Adsorbate Carbon Dioxide: InChIKey CURLTUGMZLYLDI-UHFFFAOYSA-N
Kind: experiment
Temperature: 363 K
Tabular data in the source: 0
pressure (bar)	uptake (mmol/g)
0.00362	0.075157
0.017522	0.20404
0.045507	0.515567
0.111035	0.977228
0.121425	1.06314
0.192926	1.29893
0.274564	1.54536
0.342444	1.70592
0.427015	1.82329
0.531931	1.98345
0.575954	2.05825
0.606401	2.10093
0.728296	2.30392
0.809463	2.41058
0.917385	2.46318
