Adsorption isotherm of Nitrogen on PAF
DOI: 10.1007/s10450-020-00245-0
Article source: Figure 5b
Adsorbate Nitrogen: InChIKey IJGRMHOSHXDMSA-UHFFFAOYSA-N
Kind: experiment
Temperature: 343 K
Tabular data in the source: 0
pressure (bar)	uptake (mmol/g)
0.021048	0.002724
0.121187	0.016427
0.202853	0.02785
0.313689	0.041534
0.395701	0.049715
0.506884	0.060157
0.596721	0.070176
0.705279	0.08016
0.789818	0.089726
0.924723	0.103365
