Adsorption isotherm of Carbon Dioxide on Zeo4A
DOI: 10.1007/s10450-020-00245-0
Article source: Figure 3b
Adsorbate Carbon Dioxide: InChIKey CURLTUGMZLYLDI-UHFFFAOYSA-N
Kind: experiment
Temperature: 273 K
Tabular data in the source: 0
pressure (bar)	uptake (cm3(STP)/g)
0.015043	12.2078
0.019368	24.1534
0.009445	35.5723
0.011958	40.0848
0.020179	43.2682
0.031421	48.8399
0.055687	52.5493
0.07655	55.4633
0.092404	56.7859
0.110054	58.1079
0.1725	59.9472
0.224227	61.5243
0.275828	63.6324
0.330958	66.0049
0.389937	67.3143
0.447437	67.2967
0.500961	68.8733
0.557889	71.2453
0.6297	71.4888
0.672698	72.0066
0.72468	72.5217
0.782116	72.7696
0.833843	74.3467
0.9002	74.8574
0.914448	75.384
0.946537	76.4361
0.968036	76.695
0.102167	61.0307
0.201774	65.248
0.301445	69.1998
0.399764	71.2936
0.496541	72.326
0.60025	74.4181
0.698697	75.9809
0.786489	77.016
0.890326	78.5772
