Adsorption isotherm of Nitrogen on XFF
DOI: 10.1007/s10450-020-00245-0
Article source: Figure 5a
Adsorbate Nitrogen: InChIKey IJGRMHOSHXDMSA-UHFFFAOYSA-N
Kind: experiment
Temperature: 323 K
Tabular data in the source: 0
pressure (bar)	uptake (mmol/g)
-8.8e-05	0.003687
0.065021	0.020677
0.105805	0.028013
0.149282	0.036729
0.195505	0.044981
0.252695	0.051841
0.288051	0.057799
0.3534	0.066034
0.410614	0.071972
0.435117	0.075175
0.489537	0.08342
0.546739	0.089819
0.650139	0.105392
0.726391	0.114538
0.827134	0.127348
0.906019	0.140179
0.955011	0.147046
