Adsorption isotherm of Carbon Dioxide on Zeo4A
DOI: 10.1007/s10450-020-00245-0
Article source: Figure 4b
Adsorbate Carbon Dioxide: InChIKey CURLTUGMZLYLDI-UHFFFAOYSA-N
Kind: experiment
Temperature: 323 K
Tabular data in the source: 0
pressure (bar)	uptake (mmol/g)
0.006284	0.096965
0.016016	0.271534
0.022913	0.42674
0.032748	0.611015
0.031751	0.766374
0.033182	0.902268
0.045647	1.08649
0.060156	1.46485
0.12537	1.91019
0.21738	2.15112
0.35118	2.36211
0.44955	2.45729
0.539721	2.5235
0.63758	2.57014
0.709436	2.64642
0.838766	2.68274
0.931363	2.72949
