Adsorption isotherm of Nitrogen on Zeo4A
DOI: 10.1007/s10450-020-00245-0
Article source: Figure 5b
Adsorbate Nitrogen: InChIKey IJGRMHOSHXDMSA-UHFFFAOYSA-N
Kind: experiment
Temperature: 323 K
Tabular data in the source: 0
pressure (bar)	uptake (mmol/g)
0.013074	0.002276
0.107567	0.018767
0.217809	0.038008
0.315026	0.054031
0.422989	0.069572
0.499307	0.081005
0.596523	0.097029
0.699039	0.113505
0.804081	0.131366
0.893819	0.142311
