Adsorption isotherm of Carbon Dioxide on ZEO13X
DOI: 10.1007/s10450-020-00245-0
Article source: Figure 4a
Adsorbate Carbon Dioxide: InChIKey CURLTUGMZLYLDI-UHFFFAOYSA-N
Kind: experiment
Temperature: 323 K
Tabular data in the source: 0
pressure (bar)	uptake (mmol/g)
0.013576	0.03204
0.02422	0.193216
0.02469	0.332995
0.025306	0.515785
0.029143	0.655528
0.040113	0.913475
0.061618	1.30034
0.096445	1.64405
0.127724	1.93404
0.179024	2.17005
0.243827	2.41666
0.308595	2.65252
0.410506	2.92024
0.518862	3.10188
0.654116	3.27246
0.779089	3.3894
0.873724	3.49591
0.96148	3.55948
