Adsorption isotherm of Nitrogen on ZEO13X
DOI: 10.1007/s10450-020-00245-0
Article source: Figure 5a
Adsorbate Nitrogen: InChIKey IJGRMHOSHXDMSA-UHFFFAOYSA-N
Kind: experiment
Temperature: 343 K
Tabular data in the source: 0
pressure (bar)	uptake (mmol/g)
0.010854	0.003216
0.092357	0.020191
0.119491	0.027079
0.165664	0.037175
0.206434	0.044971
0.301637	0.060551
0.388706	0.073835
0.503035	0.089398
0.606434	0.104971
0.688101	0.115956
0.797003	0.130141
0.897746	0.142951
