Adsorption isotherm of Nitrogen on BCTB-BCTA COF
DOI: 10.1039/d0tc01872d
Article source: Figure 2
Adsorbate Nitrogen: InChIKey IJGRMHOSHXDMSA-UHFFFAOYSA-N
Kind: experiment
Temperature: 77 K
Tabular data in the source: 0
pressure (bar)	uptake (cm3(STP)/g)
0.004454	77.3303
0.002552	40.7042
0.009357	118.635
0.044653	149.997
0.047792	130.882
0.063053	159.187
0.064379	140.354
0.116064	189.477
0.117936	177.623
0.13463	194.179
0.135914	182.056
0.153176	199.608
0.151869	183.534
0.171154	201.503
0.169846	187.08
0.188947	205.096
0.189685	192.23
0.207823	209.994
0.207823	190.368
0.243778	201.659
0.261756	211.978
0.260953	194.721
0.279733	200.982
0.298673	207.802
0.336437	204.662
0.370993	213.86
0.391193	215.036
0.45329	216.902
0.524675	216.189
0.542653	221.682
0.578607	227.862
0.598117	228.086
0.629008	221.846
0.664125	237.901
0.661079	221.952
0.724549	226.549
0.770128	232.832
0.818156	253.366
0.814561	236.482
0.912538	273.58
0.908942	254.213
0.929167	273.539
0.936583	263.916
0.948642	287.103
0.95533	269.447
0.96662	297.244
0.97411	278.397
0.984395	309.95
0.990215	288.773
1.00258	322.849
1.00557	304.329
1.01269	333.923
0.02231	132.029
0.081804	188.264
0.104114	198.044
0.079944	166.259
0.100395	176.039
0.403441	224.939
0.4053	205.379
0.422033	205.379
0.438765	207.824
0.453639	227.384
0.557752	234.719
0.60795	242.054
0.708345	246.944
0.708345	224.939
0.749247	251.834
0.871953	249.389
0.871953	266.504
0.888685	268.949
0.888685	246.944
0.849643	264.059
0.851502	246.944
0.834769	259.169
0.834769	239.609
0.355102	220.049
0.355102	212.714
0.303045	215.159
0.778994	256.724
0.784572	237.164
0.505695	229.829
0.507555	212.714
0.557752	215.159
0.89984	273.839
