Adsorption isotherm of Nitrogen on BCTB-PD COF
DOI: 10.1039/d0tc01872d
Article source: Figure 2
Adsorbate Nitrogen: InChIKey IJGRMHOSHXDMSA-UHFFFAOYSA-N
Kind: experiment
Temperature: 77 K
Tabular data in the source: 0
pressure (bar)	uptake (cm3(STP)/g)
-0.004535	167.772
0.009121	334.077
0.003555	229.931
-4e-05	195.355
0.020559	331.542
0.052843	466.449
0.060115	506.459
0.073425	530.775
0.078236	579.734
0.069622	501.223
0.082142	553.91
0.093538	604.445
0.092843	578.551
0.100708	652.898
0.104453	622.757
0.118739	663.324
0.119559	631.527
0.137412	673.964
0.139035	645.044
0.155423	683.368
0.15464	649.28
0.172379	690.063
0.174218	660.931
0.19072	698.086
0.192318	668.771
0.206904	699.036
0.213646	671.283
0.232542	678.907
0.261756	716.032
0.299209	716.353
0.29771	690.912
0.314339	695.969
0.335163	722.201
0.33354	696.816
0.350769	700.373
0.407447	708.144
0.425799	711.045
0.49681	747.739
0.495462	723.014
0.513439	754.598
0.511941	726.243
0.531417	752.141
0.531417	726.375
0.550742	757.25
0.549769	730.32
0.567371	762.023
0.566023	733.357
0.585349	762.762
0.585349	736.165
0.604824	758.378
0.598832	736.534
0.621304	762.263
0.621304	736.688
0.639805	755.334
0.631416	737.642
0.658008	763.525
0.656884	738.13
0.711191	771.886
0.729917	747
0.748678	771.564
0.748943	748.055
0.782726	779.375
0.784973	755.275
0.803999	777.804
0.804168	756.526
0.821302	783.64
0.820428	760.338
0.840812	781.636
0.835909	764.535
0.858605	784.922
0.85501	766.292
0.875235	784.2
0.893212	793.201
0.893212	771.056
0.91074	794.766
0.91135	774.653
0.929167	790.993
0.037648	449.414
0.037648	449.414
0.020434	389.987
0.044104	445.169
0.28188	694.195
0.711169	749.377
0.883314	794.655
0.933882	803.145
0.947869	808.804
0.967235	815.879
1.00812	831.443
1.00812	831.443
0.986602	827.198
0.996285	808.804
0.98445	804.559
0.967235	797.485
0.952173	788.995
0.434659	716.834
0.434659	716.834
0.456178	722.494
0.456178	722.494
0.456178	742.303
0.399154	735.228
0.25821	691.366
