Adsorption isotherm of Nitrogen on BCTA-TP COF
DOI: 10.1039/d0tc01872d
Article source: Figure 2
Adsorbate Nitrogen: InChIKey IJGRMHOSHXDMSA-UHFFFAOYSA-N
Kind: experiment
Temperature: 77 K
Tabular data in the source: 0
pressure (bar)	uptake (cm3(STP)/g)
0.001957	143.692
0.006497	210.328
0.008788	261.162
0.017712	297.714
0.03571	299.639
0.045278	316.659
0.061757	323.224
0.079734	329.729
0.097712	334.245
0.115689	338.151
0.133891	342.562
0.151644	343.985
0.171154	351.85
0.187374	351.135
0.205052	351.956
0.221306	354.436
0.24058	353.536
0.256737	358.458
0.276737	357.442
0.293965	362.277
0.309897	363.901
0.341012	363.235
0.35786	369.176
0.395635	373.025
0.410784	373.091
0.429973	368.87
0.449769	378.128
0.46475	378.58
0.502728	382.914
0.518649	383.281
0.539282	383.18
0.556136	388.806
0.574113	384.604
0.610068	393.206
0.628045	390.775
0.663037	400.208
0.678446	393.984
0.712914	404.369
0.731415	403.35
0.749393	410.845
0.76737	409.629
0.784973	418.525
0.789467	408.296
0.805572	420.31
0.824846	426.772
0.817932	410.595
0.843025	434.056
0.837033	415.89
0.85863	440.946
0.879014	446.662
0.878284	425.301
0.896807	453.387
0.896208	432.432
0.914186	458.254
0.917032	435.201
0.931938	464.995
0.933661	438.793
0.950515	478.384
0.948881	451.556
0.968171	491.432
0.966245	461.282
0.985346	506.727
0.983848	474.995
1.00482	511.383
1.0022	486.2
1.01344	527.82
0.303045	371.638
0.611668	396.088
0.708345	413.203
1.01325	498.777
