Adsorption isotherm of Hydrogen on ThiaHAT-1a
DOI: 10.1039/d1sc02690a
Article source: Figure 7
Adsorbate Hydrogen: InChIKey UFHFLCQGNIYNRP-UHFFFAOYSA-N
Kind: experiment
Temperature: 77 K
Tabular data in the source: 0
pressure (bar)	uptake (mmol/g)
0.010007	-0.196399
0.065048	-0.03928
0.080059	0.03928
0.110081	0.157119
0.167624	0.274959
0.220163	0.432079
0.2702	0.549918
0.321488	0.667758
0.371525	0.785597
0.422813	0.864157
0.469097	0.942717
0.525389	0.981997
0.572924	1.09984
0.622961	1.13912
0.6755	1.21768
0.724286	1.29624
0.775574	1.37479
0.825611	1.45335
0.87815	1.49264
0.926936	1.5712
0.978224	1.61047
1.00074	1.72831
0.896914	1.5712
0.846877	1.5712
0.79684	1.53191
0.745552	1.53191
0.696766	1.49264
0.645478	1.41408
0.595441	1.33552
0.545404	1.25696
0.494116	1.25696
0.442828	1.1784
0.395293	1.09984
0.344005	1.02128
0.293968	0.981997
0.241429	0.864157
0.192643	0.785597
0.142606	0.667758
0.091318	0.589198
0.072554	0.510638
0.045033	0.353519
