Adsorption isotherm of Nitrogen on ThiaHAT-1all
DOI: 10.1039/d1sc02690a
Article source: Figure 11
Adsorbate Nitrogen: InChIKey IJGRMHOSHXDMSA-UHFFFAOYSA-N
Kind: experiment
Temperature: 77 K
Tabular data in the source: 0
pressure (bar)	uptake (mmol/g)
0.009047	8.15658
0.030759	10.121
0.034378	10.6335
0.039806	11.7438
0.043425	12.3416
0.054281	12.8541
0.074184	13.4093
0.108562	13.7509
0.162844	14.0925
0.224362	14.3488
0.322069	14.605
0.358256	14.605
0.399872	14.605
0.439678	14.7331
0.470438	14.8612
0.526528	14.9039
0.571763	14.9039
0.615187	14.9039
0.674897	14.9039
0.720131	15.032
0.78165	15.032
0.817837	15.0747
0.866691	15.1601
0.930019	15.1601
0.975253	15.4164
1.00782	22.8043
0.95535	15.331
0.902878	15.1174
0.83955	15.0747
0.797934	15.0747
0.740034	15.0747
0.692991	14.9466
0.644137	14.9466
0.586238	14.8185
0.544622	14.8185
0.490341	14.7331
0.445106	14.7331
0.399872	14.6904
0.3474	14.4769
0.291309	14.4769
0.242456	14.4769
0.197222	14.3061
0.135703	14.0498
0.08685	13.4947
0.072375	13.3238
0.059709	12.7687
0.048853	12.2135
