Adsorption isotherm of Oxygen on TolHAT-1aIV
DOI: 10.1039/d1sc02690a
Article source: Figure 7
Adsorbate Oxygen: InChIKey MYMOFIZGZYHOMD-UHFFFAOYSA-N
Kind: experiment
Temperature: 77 K
Tabular data in the source: 0
pressure (bar)	uptake (mmol/g)
0.001214	5.01961
0.001214	5.64706
0.001699	6.43137
0.001699	7.05882
0.003155	7.76471
0.003155	8.47059
0.003641	9.41177
0.003641	10.1961
0.004611	11.0588
0.004611	12.0784
0.006068	12.4706
0.007039	13.098
0.007039	14.0392
0.006553	14.8235
0.007039	15.3725
0.007524	16.3137
0.00898	17.3333
0.013349	17.6471
0.016747	17.8824
0.02063	18.0392
0.029853	18.5098
0.039562	18.6667
0.050241	18.8235
0.061405	19.1373
0.071599	19.2157
0.080822	19.2941
0.092472	19.5294
0.102666	19.6078
0.111404	19.8431
0.121597	19.9216
0.130335	19.9216
0.1415	20.1569
0.150723	20.2353
0.160916	20.3137
0.170139	20.4706
0.178877	20.6275
0.187129	21.1765
0.189556	21.4902
0.191012	21.6471
0.193439	21.8824
0.18276	20.7843
0.177421	20.6275
0.165285	20.4706
0.155091	20.3137
0.144897	20.1569
0.134704	19.9216
0.125966	19.9216
0.115287	19.6863
0.105093	19.8431
0.095385	19.5294
0.087133	19.6078
0.075968	19.3725
0.067716	19.2941
0.058008	19.1373
0.046843	18.9804
0.039562	18.6667
0.029853	18.4314
