Adsorption isotherm of Nitrogen on ThiaHAT-1a immersed in conc. HCl (aq)
DOI: 10.1039/d1sc02690a
Article source: Figure S15
Adsorbate Nitrogen: InChIKey IJGRMHOSHXDMSA-UHFFFAOYSA-N
Kind: experiment
Temperature: 77 K
Tabular data in the source: 0
pressure (bar)	uptake (mmol/g)
0.00468	0.535211
0.0117	0.957746
0.067862	1.35211
0.081902	1.40845
0.112323	1.46479
0.168485	1.52113
0.217626	1.52113
0.270278	1.5493
0.319419	1.60563
0.368561	1.57747
0.418872	1.57747
0.471524	1.57747
0.521835	1.57747
0.570977	1.57747
0.622458	1.60563
0.67277	1.69014
0.721911	1.6338
0.775733	1.71831
0.827214	1.6338
0.875186	1.80282
0.925497	1.77465
0.976979	1.97183
1.00974	2.95775
0.948898	1.91549
0.900927	1.80282
0.848275	1.74648
0.797964	1.6338
0.747652	1.69014
0.698511	1.69014
0.647029	1.6338
0.595548	1.66197
0.545236	1.57747
0.496095	1.57747
0.444613	1.52113
0.393132	1.52113
0.33931	1.52113
0.291339	1.57747
0.243367	1.57747
0.193056	1.52113
0.141574	1.49296
0.045631	1.32394
