Adsorption isotherm of Carbon Dioxide on TPHAT-a
DOI: 10.1039/d1sc02690a
Article source: Figure S18a
Adsorbate Carbon Dioxide: InChIKey CURLTUGMZLYLDI-UHFFFAOYSA-N
Kind: experiment
Temperature: 195 K
Tabular data in the source: 0
pressure (bar)	uptake (mmol/g)
0.002897	0
0.005793	0.679245
0.066623	0.981132
0.127453	1.20755
0.178144	1.50943
0.225939	1.58491
0.280975	1.69811
0.331666	1.84906
0.386703	2
0.433049	2.03774
0.488085	2.15094
0.541673	2.22641
0.58802	2.41509
0.645953	2.41509
0.695196	2.56604
0.748784	2.64151
0.798027	2.71698
0.851615	2.83019
0.900858	2.86792
0.955894	2.98113
0.99355	3.09434
1.01528	3.28302
0.958791	3.39623
0.909547	3.32076
0.857408	3.39623
0.805268	3.28302
0.756025	3.24528
0.702437	3.20755
0.650297	3.13208
0.599606	3.13208
0.547466	2.98113
0.496775	3.0566
0.44898	2.79245
0.396841	2.79245
0.346149	2.71698
0.291113	2.64151
0.24187	2.56604
0.185385	2.37736
0.140487	2.15094
0.094141	1.81132
0.049243	1.54717
