Adsorption isotherm of Nitrogen on ThiaHAT-1a immersed in NaOH (aq)
DOI: 10.1039/d1sc02690a
Article source: Figure S15
Adsorbate Nitrogen: InChIKey IJGRMHOSHXDMSA-UHFFFAOYSA-N
Kind: experiment
Temperature: 77 K
Tabular data in the source: 0
pressure (bar)	uptake (mmol/g)
0.00468	0.225352
0.00234	1.69014
0.00702	2.14085
0.0117	2.64789
0.060842	4.33803
0.088923	4.4507
0.105303	4.50704
0.166145	4.56338
0.215286	4.61972
0.269108	4.67606
0.318249	4.73239
0.367391	4.73239
0.420042	4.76056
0.470354	4.76056
0.518325	4.78873
0.570977	4.78873
0.621288	4.78873
0.67043	4.78873
0.719571	4.78873
0.771053	4.87324
0.823704	4.92958
0.874016	5.01408
0.921987	5.01408
0.971129	5.1831
1.01208	6.25352
0.954748	5.1831
0.903267	5.01408
0.854125	4.90141
0.800304	4.84507
0.751162	4.84507
0.699681	4.78873
0.651709	4.78873
0.601398	4.73239
0.549916	4.67606
0.498435	4.61972
0.444613	4.73239
0.397812	4.61972
0.34633	4.50704
0.297189	4.56338
0.248047	4.56338
0.194226	4.4507
0.140404	4.4507
0.046801	4
