Adsorption isotherm of Hydrogen on TPHAT-a
DOI: 10.1039/d1sc02690a
Article source: Figure S18a
Adsorbate Hydrogen: InChIKey UFHFLCQGNIYNRP-UHFFFAOYSA-N
Kind: experiment
Temperature: 77 K
Tabular data in the source: 0
pressure (bar)	uptake (mmol/g)
0.008491	-0.075472
0.082079	-0.075472
0.113212	0.075472
0.169818	0.150943
0.220764	0.226415
0.268879	0.301887
0.322655	0.45283
0.376431	0.679245
0.430207	0.830189
0.486813	0.981132
0.529267	1.13207
0.583043	1.20755
0.633989	1.43396
0.670783	1.66038
0.73588	1.81132
0.781165	1.96226
0.834941	2.18868
0.883056	2.33962
0.934001	2.56604
0.976456	2.64151
1.00193	2.71698
0.948153	2.71698
0.894377	2.56604
0.849092	2.49057
0.795316	2.26415
0.744371	2.18868
0.687765	2.03774
0.64531	1.88679
0.580213	1.66038
0.529267	1.66038
0.495304	1.43396
0.441528	1.43396
0.387752	1.20755
0.345297	1.20755
0.291522	1.0566
0.234916	0.90566
0.1868	0.90566
0.133024	0.90566
0.084909	0.679245
0.041039	0.754717
