Adsorption isotherm of Nitrogen on TolHAT-1aIV
DOI: 10.1039/d1sc02690a
Article source: Figure 7
Adsorbate Nitrogen: InChIKey IJGRMHOSHXDMSA-UHFFFAOYSA-N
Kind: experiment
Temperature: 77 K
Tabular data in the source: 0
pressure (bar)	uptake (mmol/g)
0.001248	6.11765
0.008735	6.82353
0.011231	7.52941
0.016222	8.15686
0.021213	8.86275
0.0287	9.41177
0.036187	9.96078
0.036187	10.9804
0.041179	11.6863
0.04617	12.3137
0.051162	13.0196
0.078614	13.6471
0.108562	14.0392
0.168459	14.4314
0.215877	14.5882
0.278269	14.7451
0.320696	14.902
0.374353	15.1373
0.420524	15.2157
0.472933	15.3725
0.527838	15.451
0.572761	15.5294
0.627666	15.5294
0.680075	15.6078
0.727494	15.7647
0.772416	15.7647
0.829817	15.9216
0.878483	16.0392
0.927149	16.1569
0.972071	16.549
1.00701	18.3529
0.959593	16.4706
0.894705	16
0.847287	15.9216
0.794877	15.8431
0.738724	15.6471
0.692554	15.6863
0.647631	15.5294
0.597718	15.6078
0.537821	15.5294
0.492899	15.451
0.445481	15.3725
0.38808	15.2157
0.343157	15.1373
0.293244	14.9804
0.235843	14.9804
0.185929	14.6667
0.141006	14.4314
0.091093	13.8824
