Adsorption isotherm of Nitrogen on ThiaHAT-1al
DOI: 10.1039/d1sc02690a
Article source: Figure 11
Adsorbate Nitrogen: InChIKey IJGRMHOSHXDMSA-UHFFFAOYSA-N
Kind: experiment
Temperature: 77 K
Tabular data in the source: 0
pressure (bar)	uptake (mmol/g)
0.008305	6.84311
0.008305	7.17053
0.011074	7.49795
0.011074	7.89086
0.027684	9.52797
0.033221	9.72442
0.040142	10.8377
0.044295	11.6889
0.044295	12.1473
0.049832	12.6057
0.049832	12.8677
0.078901	13.6535
0.107969	13.9154
0.170259	14.3411
0.215939	14.5703
0.271307	14.7667
0.323908	14.9304
0.370971	15.0614
0.423572	15.1596
0.473404	15.3233
0.523236	15.3561
0.574452	15.4216
0.624284	15.5198
0.674116	15.618
0.723948	15.6508
0.775164	15.7817
0.823612	15.8799
0.874828	16.0109
0.920507	16.1746
0.967571	16.5675
1.00218	18.2701
0.956497	16.502
0.896975	16.1419
0.838838	15.9454
0.79039	15.8145
0.740558	15.749
0.690726	15.618
0.63951	15.618
0.592447	15.487
0.542615	15.4216
0.490014	15.2906
0.442951	15.2251
0.388966	15.2578
0.340518	15.1269
0.286534	14.9632
0.238086	14.7667
0.188254	14.6357
0.141191	14.4393
0.091359	13.9154
0.03599	10.2483
0.027684	9.13506
0.022148	8.48022
