Adsorption isotherm of Nitrogen on ThiaHAT-1a
DOI: 10.1039/d1sc02690a
Article source: Figure 7
Adsorbate Nitrogen: InChIKey IJGRMHOSHXDMSA-UHFFFAOYSA-N
Kind: experiment
Temperature: 77 K
Tabular data in the source: 0
pressure (bar)	uptake (mmol/g)
0.005004	1.53191
0.005004	2.23895
0.010007	2.98527
0.05379	4.32079
0.071303	4.43862
0.085063	4.51719
0.112583	4.63503
0.171377	4.6743
0.222665	4.75286
0.275204	4.83142
0.325241	4.8707
0.375278	4.79214
0.429068	4.8707
0.476603	4.8707
0.527891	4.94926
0.579179	4.94926
0.629216	4.90998
0.679253	4.90998
0.72929	4.90998
0.780578	4.94926
0.833117	4.94926
0.87815	4.98854
0.928187	4.98854
0.978224	5.22422
1.01075	6.79542
0.960711	5.22422
0.893161	4.98854
0.848128	4.98854
0.798091	4.90998
0.745552	4.90998
0.695515	4.90998
0.642976	4.83142
0.587935	4.90998
0.5404	4.83142
0.492865	4.83142
0.437824	4.90998
0.387787	4.75286
0.340252	4.83142
0.290215	4.83142
0.237676	4.75286
0.187639	4.75286
0.137602	4.59575
0.042531	4.28151
