Adsorption isotherm of Nitrogen on ThiaHAT-1a heated at 250 C
DOI: 10.1039/d1sc02690a
Article source: Figure S15
Adsorbate Nitrogen: InChIKey IJGRMHOSHXDMSA-UHFFFAOYSA-N
Kind: experiment
Temperature: 77 K
Tabular data in the source: 0
pressure (bar)	uptake (mmol/g)
-0.00117	2.59155
0.00468	4.39437
0.00468	5.88732
0.051482	12.7324
0.086583	13.7465
0.170825	14.0845
0.222307	14.169
0.269108	14.3662
0.32527	14.4225
0.372071	14.5352
0.421212	14.5352
0.477374	14.5915
0.521835	14.5915
0.573317	14.7042
0.620118	14.7042
0.67511	14.7324
0.726592	14.8169
0.775733	14.8169
0.827214	14.9296
0.875186	14.9577
0.926667	14.9859
0.978149	15.2113
0.961768	15.1549
0.893906	15.0423
0.870506	15.0423
0.849445	14.9859
0.795624	14.9859
0.746482	14.9296
0.697341	14.8732
0.641179	14.7887
0.594378	14.8169
0.549916	14.8169
0.491415	14.7042
0.444613	14.7042
0.393132	14.6479
0.34165	14.6479
0.290169	14.5352
0.241027	14.5352
0.194226	14.3662
0.142744	14.1972
