Adsorption isotherm of Hydrogen on TolHAT-1aIV
DOI: 10.1039/d1sc02690a
Article source: Figure 7
Adsorbate Hydrogen: InChIKey UFHFLCQGNIYNRP-UHFFFAOYSA-N
Kind: experiment
Temperature: 77 K
Tabular data in the source: 0
pressure (bar)	uptake (mmol/g)
0.011231	-0.235294
0.053657	0.078431
0.08111	0.313725
0.111058	0.470588
0.172203	0.823529
0.223364	1.09804
0.273278	1.2549
0.32444	1.45098
0.375601	1.64706
0.425515	1.84314
0.477925	1.96078
0.529086	2.07843
0.576504	2.15686
0.627666	2.23529
0.673836	2.35294
0.727494	2.47059
0.773664	2.58823
0.827321	2.66667
0.880978	2.7451
0.929644	2.86275
0.979558	2.90196
0.997028	2.90196
0.942123	2.90196
0.892209	2.82353
0.8398	2.78431
0.794877	2.66667
0.742468	2.54902
0.691306	2.47059
0.640144	2.35294
0.592726	2.15686
0.541565	2.07843
0.491651	1.92157
0.442985	1.80392
0.390575	1.68628
0.341909	1.52941
0.291996	1.33333
0.240834	1.17647
0.189672	0.941176
0.141006	0.666667
0.091093	0.431373
0.068631	0.235294
0.047418	0.039216
