Adsorption isotherm of Nitrogen on TPHAT-a
DOI: 10.1039/d1sc02690a
Article source: Figure S18a
Adsorbate Nitrogen: InChIKey IJGRMHOSHXDMSA-UHFFFAOYSA-N
Kind: experiment
Temperature: 77 K
Tabular data in the source: 0
pressure (bar)	uptake (mmol/g)
0.014152	1.16981
0.065097	1.81132
0.08774	1.88679
0.110382	2.11321
0.172649	2.41509
0.222179	2.49057
0.27454	2.60377
0.32407	2.90566
0.375016	3.01887
0.425961	3.16981
0.476907	3.35849
0.526437	3.62264
0.574552	3.84906
0.625498	4.03774
0.676443	4.41509
0.724559	4.71698
0.776919	4.9434
0.82928	5.54717
0.87598	6.33962
0.929756	7.77358
0.975041	11.2453
0.960889	10.3019
0.900038	7.01887
0.844847	6
0.791071	5.32076
0.742956	4.75472
0.696256	4.26415
0.638234	3.84906
0.590119	3.62264
0.539174	3.54717
0.489643	3.13208
0.427376	3.01887
0.373601	2.79245
0.335391	2.60377
0.288691	2.5283
0.240576	2.11321
0.1868	1.96226
0.135855	1.81132
0.09057	1.66038
