Adsorption isotherm of Carbon Dioxide on TolHAT-1aIV
DOI: 10.1039/d1sc02690a
Article source: Figure 7
Adsorbate Carbon Dioxide: InChIKey CURLTUGMZLYLDI-UHFFFAOYSA-N
Kind: experiment
Temperature: 195 K
Tabular data in the source: 0
pressure (bar)	uptake (mmol/g)
0.014048	0.156863
0.054915	1.64706
0.108553	3.29412
0.157083	4.54902
0.208166	6.19608
0.238817	8.94118
0.238817	10.2745
0.246479	11.2941
0.264358	11.451
0.340984	12.1569
0.386959	12.3137
0.436766	12.549
0.486573	12.6275
0.540211	12.7843
0.591294	13.098
0.641101	13.2157
0.694739	13.2941
0.749654	13.4902
0.796906	13.4902
0.853099	13.6471
0.902905	13.7255
0.956543	13.8039
0.9757	13.8039
1.00252	13.8039
1.02167	13.8431
0.928447	13.6471
0.869701	13.4118
0.803292	13.3333
0.762425	13.3333
0.708787	13.1765
0.660257	13.1765
0.604065	13.098
0.555536	12.9412
0.494235	12.7843
0.466139	12.549
0.404839	12.3922
0.348647	12.0784
0.300117	11.8431
0.223491	7.21569
0.233708	8.86275
0.164745	4.47059
0.113661	3.05882
0.044698	1.56863
