Adsorption isotherm of Carbon Dioxide on ThiaHAT-1a
DOI: 10.1039/d1sc02690a
Article source: Figure 7
Adsorbate Carbon Dioxide: InChIKey CURLTUGMZLYLDI-UHFFFAOYSA-N
Kind: experiment
Temperature: 195 K
Tabular data in the source: 0
pressure (bar)	uptake (mmol/g)
0.010242	0.746318
0.061452	1.92471
0.117783	2.71031
0.163872	3.57447
0.211241	5.73486
0.282935	6.00982
0.323902	6.16694
0.384074	6.32406
0.435284	6.40262
0.489054	6.48118
0.538984	6.55974
0.590194	6.6383
0.641404	6.71686
0.695174	6.87398
0.747664	6.91326
0.797594	6.99182
0.852644	7.0311
0.901294	7.07038
0.955064	7.26678
0.975548	7.34534
1.00115	7.34534
1.01908	7.34534
0.920498	7.46317
0.860326	7.34534
0.814237	7.30606
0.757906	7.26678
0.710537	7.26678
0.655486	7.10966
0.605557	7.07038
0.553067	7.0311
0.500577	6.99182
0.450647	6.91326
0.398157	6.87398
0.346947	6.71686
0.297017	6.59902
0.244527	6.36334
0.199719	5.81342
0.15491	3.61375
0.092178	2.74959
0.05249	2.12111
