Adsorption isotherm of Nitrogen on ThiaHAT-1alv
DOI: 10.1039/d1sc02690a
Article source: Figure 11
Adsorbate Nitrogen: InChIKey IJGRMHOSHXDMSA-UHFFFAOYSA-N
Kind: experiment
Temperature: 77 K
Tabular data in the source: 0
pressure (bar)	uptake (mmol/g)
0.014475	7.72954
0.016284	8.2847
0.023522	9.05338
0.030759	9.86477
0.036187	10.5907
0.041616	11.4875
0.045234	12.1281
0.052472	12.3416
0.075994	12.9395
0.108562	13.2384
0.161034	13.4093
0.213506	13.5801
0.264169	13.7509
0.313022	13.879
0.363684	13.9217
0.417966	13.9217
0.466819	14.0498
0.519291	14.1352
0.564525	14.1779
0.618806	14.2206
0.669469	14.2633
0.720131	14.3488
0.770794	14.3915
0.823266	14.3915
0.872119	14.6477
0.920972	14.6477
0.968016	14.9039
1.00601	21.1388
0.951731	14.7758
0.899259	14.4769
0.848597	14.5196
0.797934	14.4342
0.745462	14.3488
0.6948	14.3488
0.644137	14.1779
0.593475	14.1779
0.544622	14.0925
0.496673	14.0712
0.443297	14.0071
0.390825	13.879
0.340162	13.8363
0.293119	13.7509
0.239742	13.6228
0.191794	13.5374
0.140227	13.2811
