Adsorption isotherm of Oxygen on ThiaHAT-1a
DOI: 10.1039/d1sc02690a
Article source: Figure 7
Adsorbate Oxygen: InChIKey MYMOFIZGZYHOMD-UHFFFAOYSA-N
Kind: experiment
Temperature: 77 K
Tabular data in the source: 0
pressure (bar)	uptake (mmol/g)
0.001946	2.86743
0.003406	3.81015
0.00438	4.83142
0.004866	5.4599
0.009246	5.77414
0.020438	5.8527
0.030657	5.93126
0.040876	6.32406
0.050608	6.32406
0.059367	6.32406
0.074452	6.32406
0.081752	6.2455
0.092457	6.40262
0.103649	6.32406
0.114355	6.40262
0.125061	6.40262
0.13382	6.32406
0.144525	6.40262
0.153771	6.48118
0.164963	6.48118
0.172749	6.55974
0.180535	6.6383
0.191241	6.71686
0.190267	7.0311
0.183455	6.95254
0.175182	6.95254
0.163017	6.79542
0.153284	6.6383
0.143065	6.55974
0.132847	6.55974
0.123601	6.55974
0.113382	6.59902
0.104623	6.48118
0.09489	6.55974
0.085645	6.48118
0.076399	6.48118
0.065693	6.40262
0.058394	6.40262
0.048175	6.32406
0.037956	6.2455
0.028467	6.20622
0.019221	6.08838
