Adsorption isotherm of Oxygen on TPHAT-a
DOI: 10.1039/d1sc02690a
Article source: Figure S18a
Adsorbate Oxygen: InChIKey MYMOFIZGZYHOMD-UHFFFAOYSA-N
Kind: experiment
Temperature: 77 K
Tabular data in the source: 0
pressure (bar)	uptake (mmol/g)
0.012662	0
0.023672	0
0.03303	0.075472
0.04349	0.150943
0.053399	0.150943
0.062757	0.150943
0.073217	0.150943
0.083126	0.226415
0.09331	0.188679
0.102944	0.226415
0.112578	0.188679
0.122762	0.264151
0.132671	0.301887
0.14258	0.301887
0.15304	0.301887
0.162949	0.377358
0.172307	0.377358
0.180565	0.45283
0.188822	0.679245
0.193226	0.754717
0.18607	0.679245
0.17561	0.528302
0.16405	0.377358
0.154141	0.377358
0.144232	0.377358
0.134873	0.301887
0.124689	0.301887
0.113954	0.226415
0.104596	0.226415
0.094686	0.226415
0.083952	0.226415
0.074868	0.226415
0.064409	0.226415
0.05505	0.150943
0.046242	0.075472
0.035783	0.150943
0.026424	0.150943
0.008258	0.150943
