Adsorption isotherm of Nitrogen on MMC-6
DOI: 10.1007/s10934-015-9997-6
Article source: Figure 5
Adsorbate Nitrogen: InChIKey IJGRMHOSHXDMSA-UHFFFAOYSA-N
Kind: experiment
Temperature: 77 K
Tabular data in the source: 0
pressure (bar)	uptake (cm3(STP)/g)
0	0
0.011001	8.0429
0.030715	10.4558
0.050434	13.6729
0.081096	16.8901
0.098591	15.2815
0.140207	20.1072
0.153361	23.3244
0.159926	23.3244
0.181829	25.7373
0.203725	27.3458
0.212479	27.3458
0.25407	28.9544
0.254089	31.3673
0.306623	32.9759
0.313212	36.193
0.354804	37.8016
0.405167	41.8231
0.409562	44.2359
0.455531	45.8445
0.505901	50.6702
0.508095	51.4745
0.556258	53.8874
0.60881	57.9088
0.659174	61.9303
0.711726	65.9517
0.759907	70.7775
0.792751	73.1903
0.814653	75.6032
0.832172	77.2118
0.845321	79.6247
0.860639	79.6247
0.873812	85.2547
0.889119	83.6461
0.911056	90.8847
0.911109	98.1233
0.93737	98.1233
0.937529	119.839
0.959741	164.879
0.963743	113.405
0.979772	210.724
0.988092	151.206
0.993067	233.244
0.997098	185.791
1.00162	205.094
1.00616	227.614
1.01069	249.33
