Adsorption isotherm of Nitrogen on MMC-4
DOI: 10.1007/s10934-015-9997-6
Article source: Figure 5
Adsorbate Nitrogen: InChIKey IJGRMHOSHXDMSA-UHFFFAOYSA-N
Kind: experiment
Temperature: 77 K
Tabular data in the source: 0
pressure (bar)	uptake (cm3(STP)/g)
0	0
0.002241	7.23861
0.004465	12.0643
0.006659	12.8686
0.026379	16.0858
0.046081	16.8901
0.081113	19.3029
0.102998	19.3029
0.120511	20.1072
0.142396	20.1072
0.159909	20.9115
0.199307	21.7158
0.25403	23.3244
0.306553	23.3244
0.35251	23.3244
0.407232	24.933
0.455384	25.7373
0.507919	27.3458
0.558259	28.1501
0.610787	28.9544
0.658939	29.7587
0.709285	31.3673
0.761819	32.9759
0.796852	35.3887
0.807782	33.7802
0.831856	33.7802
0.838427	34.5845
0.849375	35.3887
0.871283	38.6059
0.880036	38.6059
0.886602	38.6059
0.899756	41.8231
0.91288	41.0188
0.934794	45.0402
0.934848	52.2788
0.96328	49.866
0.96562	70.7775
0.985264	63.5389
0.985464	90.8847
0.987745	103.753
0.991911	74.7989
0.994446	122.252
0.998553	85.2547
1.00526	105.362
1.00768	136.729
