Adsorption isotherm of Nitrogen on SiO2@Fe3O4
DOI: 10.1007/s10934-015-9997-6
Article source: Figure 5
Adsorbate Nitrogen: InChIKey IJGRMHOSHXDMSA-UHFFFAOYSA-N
Kind: experiment
Temperature: 77 K
Tabular data in the source: 0
pressure (bar)	uptake (cm3(STP)/g)
0	0
0.056777	8.06452
0.0939	8.87097
0.150677	9.67742
0.194351	10.4839
0.248945	12.0968
0.301355	12.9032
0.353764	12.9032
0.358131	13.7097
0.395255	15.3226
0.40399	13.7097
0.452032	14.5161
0.504441	15.3226
0.508809	17.7419
0.552484	18.5484
0.554667	16.9355
0.611444	20.1613
0.633281	18.5484
0.635465	21.7742
0.657302	19.3548
0.661669	21.7742
0.67914	20.9677
0.683507	23.3871
0.707528	21.7742
0.711895	25
0.731549	22.5806
0.735916	26.6129
0.759937	25
0.764305	28.2258
0.781775	26.6129
0.790509	32.2581
0.805796	28.2258
0.816714	34.6774
0.834184	32.2581
0.840735	40.3226
0.858206	36.2903
0.864756	47.5806
0.880042	40.3226
0.893145	65.3226
0.906248	50
0.914982	78.2258
0.93682	66.129
0.945555	91.129
0.991412	96.7742
