Adsorption isotherm of Nitrogen on MMC-3
DOI: 10.1007/s10934-015-9997-6
Article source: Figure 5
Adsorbate Nitrogen: InChIKey IJGRMHOSHXDMSA-UHFFFAOYSA-N
Kind: experiment
Temperature: 77 K
Tabular data in the source: 0
pressure (bar)	uptake (cm3(STP)/g)
0	0
0.008735	1.60858
0.032756	3.21716
0.102635	4.82574
0.16378	6.43432
0.211822	7.23861
0.255496	7.23861
0.307905	8.84718
0.355948	9.65147
0.408357	11.2601
0.456399	10.4558
0.510992	12.8686
0.556851	12.8686
0.60926	12.8686
0.661669	13.6729
0.75557	16.0858
0.794877	16.0858
0.84292	17.6944
0.869124	19.3029
0.895329	21.7158
0.912798	19.3029
0.923717	24.933
0.93682	21.7158
0.949922	32.1716
0.963024	25.7373
0.97831	43.4316
0.987045	33.7802
0.989229	55.496
0.993596	40.2145
1.00015	45.0402
1.00452	54.6917
1.00888	67.5603
