Adsorption isotherm of Nitrogen on IRMOF-1
DOI: 10.1007/s10934-015-9997-6
Article source: Figure 5
Adsorbate Nitrogen: InChIKey IJGRMHOSHXDMSA-UHFFFAOYSA-N
Kind: experiment
Temperature: 77 K
Tabular data in the source: 0
pressure (bar)	uptake (cm3(STP)/g)
0	0
0.00257	52.2809
0.009159	55.5032
0.028884	59.5404
0.048586	60.3603
0.081436	63.6035
0.101174	69.2492
0.107709	65.233
0.123029	65.2451
0.140577	70.8891
0.160251	67.6875
0.184329	68.5109
0.204054	72.548
0.212785	69.3378
0.252218	74.9991
0.254377	70.9794
0.304753	76.6494
0.313483	73.4392
0.357253	73.4739
0.357276	76.6911
0.405434	78.3379
0.411975	75.1259
0.455757	76.7693
0.457969	79.9882
0.508326	83.2453
0.527987	78.4352
0.558667	84.0896
0.560826	80.0698
0.609019	86.5424
0.613361	81.7201
0.637475	87.3693
0.661525	84.1712
0.66156	88.997
0.687792	84.9964
0.711918	92.2541
0.72939	87.4422
0.760087	95.5095
0.764417	89.0786
0.792937	98.7527
0.814793	94.7486
0.821416	102.797
0.8367	97.9832
0.847725	109.252
0.87834	106.059
0.878422	117.319
0.887118	109.283
0.911384	135.844
0.91782	118.155
0.937616	131.843
0.937857	164.82
0.960046	206.66
0.964071	158.406
0.982218	246.088
0.988508	208.291
0.993331	269.421
0.999714	244.493
1.0042	258.974
1.00647	271.04
1.01099	290.347
