Adsorption isotherm of Nitrogen on Fe3O4
DOI: 10.1007/s10934-015-9997-6
Article source: Figure 5
Adsorbate Nitrogen: InChIKey IJGRMHOSHXDMSA-UHFFFAOYSA-N
Kind: experiment
Temperature: 77 K
Tabular data in the source: 0
pressure (bar)	uptake (cm3(STP)/g)
0	0
0.050226	3.17729
0.100451	3.94171
0.14631	3.90531
0.203087	5.46882
0.253312	5.42895
0.303538	6.19338
0.353764	6.15351
0.40399	6.11364
0.412725	6.911
0.44548	6.885
0.456399	6.07204
0.508809	7.63902
0.548116	9.2164
0.556851	7.60088
0.607077	9.16959
0.633281	9.95308
0.661669	9.93055
0.687874	9.90975
0.711895	10.695
0.735916	11.4802
0.762121	11.4594
0.786142	12.2446
0.81453	14.6349
0.838552	14.6159
0.860389	16.2071
0.880042	13.7787
0.888777	16.9889
0.910615	16.1673
0.93682	19.3636
0.989229	24.1478
0.997964	24.1408
