Adsorption isotherm of Nitrogen on MMC-5
DOI: 10.1007/s10934-015-9997-6
Article source: Figure 5
Adsorbate Nitrogen: InChIKey IJGRMHOSHXDMSA-UHFFFAOYSA-N
Kind: experiment
Temperature: 77 K
Tabular data in the source: 0
pressure (bar)	uptake (cm3(STP)/g)
0	0
0.030572	11.2601
0.080798	15.2815
0.141942	18.4987
0.305722	26.5416
0.355948	28.1501
0.408357	31.3673
0.456399	33.7802
0.508809	36.193
0.559034	37.8016
0.611444	40.2145
0.661669	42.6273
0.709712	45.8445
0.759937	49.0617
0.812347	52.2788
0.832001	53.8874
0.860389	55.496
0.88441	57.9088
0.912798	61.9303
0.930268	72.3861
0.960841	73.1903
0.965208	98.1233
0.982678	90.0804
0.987045	167.292
0.993596	187.399
0.997964	130.295
1.00233	162.466
1.0067	201.877
