Adsorption isotherm of Carbon Dioxide on [Co3(BTB)2(DMA)4]*4DMA
DOI: 10.1021/Cg300686n
Adsorbate Carbon Dioxide: InChIKey CURLTUGMZLYLDI-UHFFFAOYSA-N
Temperature: 195 K
Tabular data in the source: 0
pressure (bar)	uptake (cm3(STP)/g)
0.00421681	15.8228
0.0118086	39.8734
0.0432593	56.962
0.0623246	73.4177
0.115803	89.2405
0.143878	98.1013
0.188774	103.165
0.365615	120.886
0.628874	140.506
0.823026	158.861
0.927878	171.519
1.01035	182.278
