Adsorption isotherm of Carbon Dioxide on [Co3(BTB)2(DMA)4]*4DMA
DOI: 10.1021/Cg300686n
Adsorbate Carbon Dioxide: InChIKey CURLTUGMZLYLDI-UHFFFAOYSA-N
Temperature: 298 K
Tabular data in the source: 0
pressure (bar)	uptake (cm3(STP)/g)
0.0197996	0.858937
0.0618647	2.6013
0.0989982	4.29468
0.126122	4.56412
0.202854	7.97537
0.311642	11.7051
0.432612	14.2312
0.536395	17.249
0.640104	19.6037
0.741347	21.9339
0.840052	23.5767
0.896838	24.803
1.03746	26.8622
