Adsorption isotherm of Methane on [Co3(BTB)2(DMA)4]*4DMA
DOI: 10.1021/Cg300686n
Adsorbate Methane: InChIKey VNWKTOKETHGBQD-UHFFFAOYSA-N
Temperature: 195 K
Tabular data in the source: 0
pressure (bar)	uptake (cm3(STP)/g)
0.000804104	3.57344
0.0287869	17.9291
0.0583619	28.3602
0.0892073	33.4373
0.142503	39.2848
0.220807	46.2663
0.301024	50.7526
0.425661	54.6356
0.520577	58.4443
0.674531	60.6149
0.778871	62.3043
0.925315	64.099
1.00473	65.0118
