Adsorption isotherm of Hydrogen on [Co3(BTB)2(DMA)4]*4DMA
DOI: 10.1021/Cg300686n
Adsorbate Hydrogen: InChIKey UFHFLCQGNIYNRP-UHFFFAOYSA-N
Temperature: 77 K
Tabular data in the source: 0
pressure (bar)	uptake (cm3(STP)/g)
0.00128657	5.7175
0.0176903	23.6157
0.0420064	43.6764
0.0616748	54.0828
0.101237	64.8959
0.15278	73.9534
0.254338	85.2787
0.334877	91.1943
0.484923	97.998
0.639359	102.313
0.788681	105.9
0.939596	105.563
1.02916	107.573
