Adsorption isotherm of Nitrogen on [Co3(BTB)2(DMA)4]*4DMA
DOI: 10.1021/Cg300686n
Adsorbate Nitrogen: InChIKey IJGRMHOSHXDMSA-UHFFFAOYSA-N
Temperature: 77 K
Tabular data in the source: 0
pressure (bar)	uptake (cm3(STP)/g)
0.0029894	7.08487
0.0234574	49.5941
0.0422813	64.2066
0.0896165	74.3911
0.172208	84.1328
0.268308	89.8893
0.507488	98.7454
0.760923	105.387
0.962978	110.258
1.00517	114.244
1.03582	120.886
