Adsorption isotherm of Carbon Dioxide on [Co3(BTB)2(DMA)4]*4DMA
DOI: 10.1021/Cg300686n
Adsorbate Carbon Dioxide: InChIKey CURLTUGMZLYLDI-UHFFFAOYSA-N
Temperature: 273 K
Tabular data in the source: 0
pressure (bar)	uptake (cm3(STP)/g)
0.0197996	0.858937
0.0620851	4.59025
0.0969733	8.24808
0.14419	12.0284
0.203589	14.6052
0.27539	17.9675
0.374242	20.9362
0.478171	25.2798
0.584346	27.6591
0.68559	29.9893
0.789446	33.67
0.883292	35.9267
1.03654	40.7603
