Adsorption isotherm of Nitrogen on ZrFA
DOI: 10.1039/c4dt03183k
Article source: Figure 2a
Adsorbate Nitrogen: InChIKey IJGRMHOSHXDMSA-UHFFFAOYSA-N
Kind: experiment
Temperature: 303 K
Tabular data in the source: 0
pressure (bar)	uptake (mmol/g)
0	0
0.146341	0.013208
0.292683	0.033019
0.398049	0.039623
0.474146	0.046226
0.59122	0.059434
0.673171	0.05283
0.702439	0.066038
0.796098	0.079245
0.89561	0.079245
1.00098	0.092453
1.10049	0.10566
