Adsorption isotherm of Carbon Dioxide on ZrFA
DOI: 10.1039/c4dt03183k
Article source: Figure 2a
Adsorbate Carbon Dioxide: InChIKey CURLTUGMZLYLDI-UHFFFAOYSA-N
Kind: experiment
Temperature: 313 K
Tabular data in the source: 0
pressure (bar)	uptake (mmol/g)
0	0
0.011707	0.052518
0.017561	0.137932
0.029268	0.197023
0.035122	0.118117
0.046829	0.144344
0.058537	0.163999
0.070244	0.269099
0.076098	0.203339
0.105366	0.262334
0.11122	0.28202
0.146341	0.327837
0.152195	0.432969
0.17561	0.353968
0.199024	0.491868
0.228293	0.419407
0.245854	0.550766
0.251707	0.44557
0.298537	0.497895
0.35122	0.543616
0.392195	0.576256
0.439024	0.622008
0.444878	0.713995
0.497561	0.654552
0.503415	0.746538
0.54439	0.680586
0.550244	0.779146
0.597073	0.719734
0.643902	0.745769
0.649756	0.82461
0.690732	0.850677
0.696585	0.771771
0.743415	0.876679
0.796098	0.896109
0.801951	0.823776
0.84878	0.915539
0.854634	0.849779
0.89561	0.928428
0.901463	0.875814
0.942439	0.895307
0.948293	0.947858
0.977561	0.960843
0.995122	0.927883
1.02439	0.967159
1.0478	0.947312
1.07122	0.986621
1.09463	0.966774
1.15317	0.986172
