Adsorption isotherm of Nitrogen on ZrFA
DOI: 10.1039/c4dt03183k
Article source: Figure 2a
Adsorbate Nitrogen: InChIKey IJGRMHOSHXDMSA-UHFFFAOYSA-N
Kind: experiment
Temperature: 293 K
Tabular data in the source: 0
pressure (bar)	uptake (mmol/g)
0	0
0.040976	0.019494
0.058537	0.019398
0.099512	0.019173
0.152195	0.025458
0.216585	0.03825
0.292683	0.044406
0.403902	0.056943
0.497561	0.076148
0.602927	0.082144
0.702439	0.094744
0.796098	0.100804
0.901463	0.119945
1.00683	0.119368
1.1122	0.131936
