Adsorption isotherm of Carbon Dioxide on ZrFA
DOI: 10.1039/c4dt03183k
Article source: Figure 2a
Adsorbate Carbon Dioxide: InChIKey CURLTUGMZLYLDI-UHFFFAOYSA-N
Kind: experiment
Temperature: 293 K
Tabular data in the source: 0
pressure (bar)	uptake (mmol/g)
0	0
0.005882	0.052582
0.017647	0.170892
0.029412	0.262911
0.035294	0.42723
0.052941	0.341784
0.058824	0.387793
0.070588	0.532394
0.076471	0.440376
0.1	0.506103
0.129412	0.565258
0.152941	0.611268
0.158824	0.755869
0.176471	0.66385
0.194118	0.696714
0.205882	0.841315
0.217647	0.742723
0.252941	0.907042
0.258824	0.78216
0.3	0.841315
0.341176	0.887324
0.358824	1.02535
0.394118	0.946479
0.4	1.06479
0.447059	0.992488
0.452941	1.10423
0.494118	1.03192
0.505882	1.14366
0.547059	1.16995
0.552941	1.07793
0.6	1.1108
0.647059	1.14366
0.652941	1.22911
0.7	1.18967
0.705882	1.26197
0.752941	1.21596
0.8	1.30798
0.852941	1.28169
0.858824	1.33427
0.9	1.34742
0.952941	1.33427
0.982353	1.38685
1	1.36056
1.02941	1.4
1.05882	1.39343
1.08235	1.41972
1.10588	1.41972
1.15294	1.43944
