Adsorption isotherm of Nitrogen on ZrFA
DOI: 10.1039/c4dt03183k
Article source: Figure 2a
Adsorbate Nitrogen: InChIKey IJGRMHOSHXDMSA-UHFFFAOYSA-N
Kind: experiment
Temperature: 313 K
Tabular data in the source: 0
pressure (bar)	uptake (mmol/g)
0	0
0.216585	0.006604
0.30439	0.013208
0.403902	0.026415
0.503415	0.019811
0.59122	0.039623
0.673171	0.026415
0.708293	0.039623
0.796098	0.039623
0.878049	0.039623
0.901463	0.039623
1.00098	0.039623
1.10634	0.046226
