Adsorption isotherm of Carbon Dioxide on ZrFA
DOI: 10.1039/c4dt03183k
Article source: Figure 2a
Adsorbate Carbon Dioxide: InChIKey CURLTUGMZLYLDI-UHFFFAOYSA-N
Kind: experiment
Temperature: 303 K
Tabular data in the source: 0
pressure (bar)	uptake (mmol/g)
0	0
0.011707	0.046009
0.023415	0.092019
0.040976	0.144601
0.058537	0.223474
0.070244	0.335211
0.081951	0.262911
0.099512	0.407512
0.105366	0.302347
0.122927	0.35493
0.146341	0.394366
0.169756	0.440376
0.199024	0.584977
0.216585	0.506103
0.245854	0.532394
0.298537	0.604695
0.30439	0.709859
0.345366	0.644131
0.392195	0.801878
0.398049	0.690141
0.444878	0.73615
0.450732	0.847887
0.497561	0.880751
0.503415	0.788732
0.54439	0.815023
0.550244	0.920188
0.597073	0.861033
0.649756	0.979343
0.696585	1.01221
0.702439	0.926761
0.743415	0.959624
0.749268	1.04507
0.796098	0.992488
0.84878	1.01878
0.854634	1.08451
0.901463	1.1108
0.948293	1.08451
0.977561	1.14366
1.00683	1.11737
1.03024	1.15681
1.0478	1.13052
1.07707	1.17653
1.09463	1.16338
1.14732	1.18967
