Adsorption isotherm of Hydrogen on COF-102-4
DOI: 10.1021/Nl903068a
Adsorbate Hydrogen: InChIKey UFHFLCQGNIYNRP-UHFFFAOYSA-N
Temperature: 77 K
Tabular data in the source: 0
pressure (bar)	uptake (wt%)
5.02776	3.87755
8.23286	5.61224
11.9009	6.93878
16.7206	7.95918
20.6224	8.77551
24.9855	9.38776
28.8889	10
32.7938	10.4082
36.2397	10.7143
39.4558	11.0204
43.5914	11.3265
44.74	11.4286
50.025	11.7347
55.0809	11.9388
59.9062	12.2449
64.7306	12.6531
69.7873	12.7551
74.3835	12.9592
79.8991	13.1633
84.4968	13.1633
89.552	13.4694
94.8378	13.6735
99.8952	13.6735
