Adsorption isotherm of Hydrogen on COF-102-3
DOI: 10.1021/Nl903068a
Adsorbate Hydrogen: InChIKey UFHFLCQGNIYNRP-UHFFFAOYSA-N
Temperature: 300 K
Tabular data in the source: 0
pressure (bar)	uptake (wt%)
2.52874	0.220626
3.21839	0.275799
4.36782	0.38608
5.74713	0.468934
7.81609	0.60696
9.42529	0.799842
11.4943	0.910376
13.3333	1.02085
14.9425	1.18624
17.0115	1.29677
18.8506	1.46223
20.6897	1.5727
22.5287	1.71066
24.3678	1.87611
25.977	1.98652
28.046	2.09706
29.6552	2.26245
31.4943	2.37292
33.5632	2.48345
35.1724	2.62135
37.0115	2.73182
38.8506	2.89728
40.9195	2.98032
42.7586	3.11828
44.3678	3.28368
46.4368	3.36672
48.2759	3.47719
49.8851	3.64258
51.7241	3.72556
53.7931	3.83609
55.6322	3.94657
57.4713	4.08453
59.3103	4.22249
61.3793	4.30553
63.2184	4.41601
65.0575	4.55397
66.8966	4.63695
68.7356	4.74742
70.5747	4.85789
72.4138	4.96836
74.023	5.13375
76.092	5.1893
77.931	5.29977
79.7701	5.43774
81.8391	5.52078
83.908	5.63131
85.7471	5.71429
87.8161	5.82483
89.6552	5.96279
91.4943	6.04577
93.5632	6.1838
95.1724	6.29421
97.2414	6.37725
99.0805	6.48772
