Adsorption isotherm of Hydrogen on COF-102
DOI: 10.1021/Nl903068a
Adsorbate Hydrogen: InChIKey UFHFLCQGNIYNRP-UHFFFAOYSA-N
Temperature: 77 K
Tabular data in the source: 0
pressure (bar)	uptake (wt%)
2.50841	2.65306
4.56486	4.28571
10.0672	6.22449
14.8878	7.14286
19.7115	7.65306
24.9957	8.06122
30.0516	8.26531
34.8768	8.57143
39.7029	8.77551
44.7596	8.87755
49.5856	9.08163
54.8722	9.18367
60.1579	9.38776
64.9848	9.4898
69.5817	9.59184
74.6391	9.59184
79.6958	9.69388
84.7517	9.89796
89.5793	9.89796
94.6368	9.89796
99.6935	10
