Adsorption isotherm of Hydrogen on COF-102-5
DOI: 10.1021/Nl903068a
Adsorbate Hydrogen: InChIKey UFHFLCQGNIYNRP-UHFFFAOYSA-N
Temperature: 77 K
Tabular data in the source: 0
pressure (bar)	uptake (wt%)
0.977654	1.42529
1.81564	1.95402
1.95531	2.41379
3.77095	3.54023
4.7486	4.06897
10.1955	5.83908
15.3631	6.94253
19.8324	7.72414
25	8.32184
30.1676	8.68966
35.0559	8.96552
39.8045	9.14943
45.2514	9.10345
50.1397	9.10345
55.1676	9.03448
60.1955	8.91954
65.2235	8.73563
69.9721	8.57471
75	8.3908
80.3073	8.18391
85.1955	8
90.0838	7.70115
94.8324	7.54023
100.14	7.31034
