Adsorption isotherm of Hydrogen on COF-102-5
DOI: 10.1021/Nl903068a
Adsorbate Hydrogen: InChIKey UFHFLCQGNIYNRP-UHFFFAOYSA-N
Temperature: 300 K
Tabular data in the source: 0
pressure (bar)	uptake (wt%)
4.13793	0.0836118
10.1149	0.305186
14.9425	0.526445
20.4598	0.665418
25.0575	0.859122
30.1149	0.99797
34.9425	1.19174
40	1.33058
45.0575	1.46943
50.1149	1.60828
55.1724	1.74713
60.4598	1.91353
65.2874	2.02482
69.8851	2.16354
75.1724	2.32994
80.2299	2.46879
85.0575	2.58008
90.1149	2.69144
95.1724	2.83029
100.23	2.94164
