Adsorption isotherm of Hydrogen on COF-102-5
DOI: 10.1021/Nl903068a
Adsorbate Hydrogen: InChIKey UFHFLCQGNIYNRP-UHFFFAOYSA-N
Temperature: 77 K
Tabular data in the source: 0
pressure (bar)	uptake (wt%)
5.25452	4.28571
9.83814	6.12245
14.6532	7.7551
20.1619	8.87755
24.9816	9.89796
30.0336	10.6122
34.6259	11.3265
39.9093	11.8367
44.9613	12.551
49.7865	12.8571
54.8401	13.3673
59.8944	13.7755
64.4898	14.0816
69.774	14.4898
74.6	14.6939
79.6552	15
84.7119	15.102
89.767	15.4082
94.5922	15.7143
99.6489	15.8163
