Adsorption isotherm of Hydrogen on COF-102-2
DOI: 10.1021/Nl903068a
Adsorbate Hydrogen: InChIKey UFHFLCQGNIYNRP-UHFFFAOYSA-N
Temperature: 300 K
Tabular data in the source: 0
pressure (bar)	uptake (wt%)
5.05747	0.19383
7.58621	0.304491
10.3448	0.470198
14.9425	0.691393
20.2299	0.885287
24.5977	1.07893
29.8851	1.30031
34.9425	1.52163
40.2299	1.71553
44.8276	1.88174
50.1149	2.07563
55.1724	2.21448
60.2299	2.40831
65.0575	2.57459
69.8851	2.76835
75.1724	2.93476
80.4598	3.10116
85.0575	3.26737
90.1149	3.43371
95.1724	3.60005
100.23	3.76639
