Adsorption isotherm of Hydrogen on COF-102
DOI: 10.1021/Nl903068a
Adsorbate Hydrogen: InChIKey UFHFLCQGNIYNRP-UHFFFAOYSA-N
Temperature: 77 K
Tabular data in the source: 0
pressure (bar)	uptake (wt%)
1.81564	1.90805
2.65363	2.82759
4.18994	3.88506
4.88827	4.34483
10.0559	5.86207
15.0838	6.48276
19.9721	6.85057
24.7207	6.94253
34.7765	6.98851
40.0838	6.94253
44.6927	6.8046
49.7207	6.66667
54.6089	6.5977
60.1955	6.45977
65.0838	6.25287
69.9721	6.11494
75.1397	5.95402
79.8883	5.77011
85.1955	5.6092
89.8045	5.44828
95.1117	5.28736
100.14	5.17241
