Adsorption isotherm of Hydrogen on COF-102
DOI: 10.1021/Nl903068a
Adsorbate Hydrogen: InChIKey UFHFLCQGNIYNRP-UHFFFAOYSA-N
Temperature: 300 K
Tabular data in the source: 0
pressure (bar)	uptake (wt%)
4.36782	0.111166
10.1149	0.167729
15.1724	0.306577
20.2299	0.417933
24.5977	0.474116
29.8851	0.558044
34.9425	0.6694
40	0.725773
45.2874	0.837192
50.3448	0.921057
55.1724	1.00486
60.2299	1.08872
65.2874	1.17259
69.8851	1.22883
75.1724	1.28527
80.2299	1.39663
84.8276	1.45287
90.1149	1.50931
95.1724	1.59317
100.46	1.64961
