Adsorption isotherm of Hydrogen on COF-102-4
DOI: 10.1021/Nl903068a
Adsorbate Hydrogen: InChIKey UFHFLCQGNIYNRP-UHFFFAOYSA-N
Temperature: 300 K
Tabular data in the source: 0
pressure (bar)	uptake (wt%)
5.28736	0.166402
9.65517	0.250077
14.7126	0.416416
20.2299	0.55539
24.8276	0.694111
29.8851	0.832958
34.9425	0.944314
39.7701	1.0831
45.0575	1.19452
50.1149	1.33336
54.9425	1.44466
60	1.58351
64.8276	1.63982
70.3448	1.77879
74.7126	1.86246
79.7701	1.97382
85.0575	2.08524
90.3448	2.16917
95.4023	2.28052
100.23	2.36432
