Adsorption isotherm of Hydrogen on COF-102-2
DOI: 10.1021/Nl903068a
Adsorbate Hydrogen: InChIKey UFHFLCQGNIYNRP-UHFFFAOYSA-N
Temperature: 77 K
Tabular data in the source: 0
pressure (bar)	uptake (wt%)
0.977654	1.24138
2.09497	1.93103
3.91061	3.05747
4.7486	3.51724
9.77654	5.56322
14.8045	7.01149
19.9721	7.93103
24.8603	8.66667
30.1676	9.1954
34.9162	9.6092
39.6648	9.81609
45.1117	9.97701
50.1397	9.97701
55.0279	9.95402
60.0559	9.88506
64.9441	9.67816
69.9721	9.56322
74.7207	9.33333
80.0279	9.10345
84.6369	8.87356
89.8045	8.62069
94.9721	8.34483
100.14	8.11494
