Adsorption isotherm of Hydrogen on COF-102-2
DOI: 10.1021/Nl903068a
Adsorbate Hydrogen: InChIKey UFHFLCQGNIYNRP-UHFFFAOYSA-N
Temperature: 77 K
Tabular data in the source: 0
pressure (bar)	uptake (wt%)
2.73751	2.7551
5.25452	4.28571
14.6501	8.16327
19.6958	9.69388
24.7447	10.8163
29.7944	11.8367
34.844	12.8571
39.896	13.5714
44.7173	14.3878
49.5402	15
54.5938	15.5102
59.6474	16.0204
64.7001	16.6327
69.5262	16.8367
74.5797	17.3469
79.8647	17.6531
84.6892	18.0612
89.7443	18.3673
94.5696	18.6735
99.6247	18.9796
