Adsorption isotherm of Hydrogen on COF-102-4
DOI: 10.1021/Nl903068a
Adsorbate Hydrogen: InChIKey UFHFLCQGNIYNRP-UHFFFAOYSA-N
Temperature: 77 K
Tabular data in the source: 0
pressure (bar)	uptake (wt%)
0.977654	1.17241
1.39665	1.65517
2.7933	2.91954
4.05028	3.58621
4.88827	4.16092
14.9441	7.03448
20.2514	7.81609
24.8603	8.13793
30.1676	8.41379
35.0559	8.50575
40.0838	8.57471
44.9721	8.55172
50.2793	8.45977
55.0279	8.34483
60.0559	8.22989
65.2235	8.02299
69.9721	7.83908
75.1397	7.63218
80.0279	7.47126
85.1955	7.26437
89.8045	7.08046
95.2514	6.87356
100	6.68966
