Adsorption isotherm of Hydrogen on COF-102-3
DOI: 10.1021/Nl903068a
Adsorbate Hydrogen: InChIKey UFHFLCQGNIYNRP-UHFFFAOYSA-N
Temperature: 77 K
Tabular data in the source: 0
pressure (bar)	uptake (wt%)
0.977654	0.91954
1.67598	1.24138
2.65363	1.77011
3.35196	2.36782
4.18994	2.75862
4.7486	3.10345
7.68156	3.90805
9.9162	4.66667
14.9441	5.72414
19.9721	6.3908
25.1397	6.78161
30.0279	7.08046
34.9162	7.08046
39.6648	7.05747
45.1117	6.91954
49.8603	6.64368
54.7486	6.32184
60.1955	6
64.9441	5.6092
70.1117	5.1954
75.1397	4.75862
79.8883	4.27586
84.9162	3.81609
90.0838	3.37931
94.9721	2.85057
100	2.3908
