Adsorption isotherm of Hydrogen on COF-102-3
DOI: 10.1021/Nl903068a
Adsorbate Hydrogen: InChIKey UFHFLCQGNIYNRP-UHFFFAOYSA-N
Temperature: 77 K
Tabular data in the source: 0
pressure (bar)	uptake (wt%)
1.81953	2.55102
4.56408	4.38776
7.54007	6.02041
9.82876	7.34694
11.4333	7.95918
13.037	8.67347
13.9503	9.4898
15.7862	9.89796
17.3899	10.6122
18.9929	11.4286
20.8288	11.8367
22.4326	12.551
24.0371	13.1633
25.6431	13.5714
27.4775	14.1837
29.0812	14.898
30.9172	15.3061
32.9823	15.8163
34.5875	16.3265
36.4235	16.7347
38.4885	17.2449
40.3253	17.551
42.1605	18.0612
43.9948	18.6735
46.0622	18.8776
47.8982	19.2857
49.7334	19.7959
51.8	20.102
53.865	20.6122
55.9317	20.9184
57.9983	21.2245
60.0649	21.5306
61.9009	21.9388
63.736	22.449
66.0341	22.551
68.0999	22.9592
69.9367	23.2653
72.234	23.4694
74.0699	23.8776
76.3672	24.0816
78.4346	24.2857
80.502	24.4898
82.5686	24.7959
84.6352	25.102
86.9317	25.4082
88.9984	25.7143
91.0665	25.8163
93.363	26.1224
95.4304	26.3265
97.7277	26.5306
99.7944	26.8367
