Adsorption isotherm of Carbon Dioxide on [Co(bpg)3]Cl3
DOI: 10.1039/C1ce05376k
Adsorbate Carbon Dioxide: InChIKey CURLTUGMZLYLDI-UHFFFAOYSA-N
Temperature: 293 K
Tabular data in the source: 0
pressure (bar)	uptake (mmol/g)
0.0236738	0.0624244
0.0608167	0.177786
0.126363	0.370055
0.1788	0.520374
0.244346	0.667198
0.307707	0.814021
0.423506	1.02726
0.534934	1.20905
0.687876	1.40132
0.792749	1.50968
0.919472	1.61456
0.976279	1.65301
