Adsorption isotherm of Hydrogen on [Co(bpg)3]Cl3
DOI: 10.1039/C1ce05376k
Adsorbate Hydrogen: InChIKey UFHFLCQGNIYNRP-UHFFFAOYSA-N
Temperature: 77 K
Tabular data in the source: 0
pressure (bar)	uptake (wt%)
0.0193041	0.0156061
0.0608167	0.0488162
0.128548	0.0977574
0.187539	0.134463
0.246531	0.171169
0.301153	0.207001
0.381993	0.248951
0.445354	0.271673
0.526195	0.297018
0.593926	0.318867
0.663842	0.33722
0.731573	0.346833
0.834262	0.367808
0.917287	0.382665
0.947875	0.388783
0.991573	0.3949
