Adsorption isotherm of Nitrogen on JUC-523
DOI: 10.1039/c9sc03725j
Article source: Figure 3D
Adsorbate Nitrogen: InChIKey IJGRMHOSHXDMSA-UHFFFAOYSA-N
Kind: experiment
Temperature: 77 K
Tabular data in the source: 0
pressure (bar)	uptake (cm3(STP)/g)
0	42.0561
0	79.4393
0.003176	123.832
0.003176	154.206
0.003176	186.916
0.003176	198.598
0.006353	207.944
0.009529	226.636
0.025411	254.673
0.031763	278.037
0.044469	292.056
0.050821	306.075
0.085761	355.14
0.117524	387.85
0.158817	401.869
0.196933	404.206
0.22552	408.879
0.269988	413.551
0.295399	418.224
0.333515	418.224
0.368455	422.897
0.406571	422.897
0.44151	425.234
0.473274	427.57
0.514566	432.243
0.549505	429.907
0.581269	432.243
0.616208	432.243
0.654324	436.916
0.689264	436.916
0.72738	436.916
0.76232	441.589
0.795671	443.925
0.829023	443.925
0.867139	443.925
0.905255	448.598
0.940194	450.935
0.97831	457.944
1.0069	467.29
1.00372	483.645
1.0069	507.009
0.997368	471.963
0.9529	462.617
0.911607	460.28
0.879844	457.944
0.841728	457.944
0.809965	457.944
0.790907	457.944
0.740085	457.944
0.719439	455.607
0.682911	455.607
0.651148	453.271
0.613032	453.271
0.562211	453.271
0.539976	453.271
0.508213	450.935
0.473274	450.935
0.435158	448.598
0.397042	446.262
0.365278	446.262
0.330339	443.925
0.295399	441.589
0.258871	441.589
0.219167	436.916
0.187404	434.579
0.152464	427.57
0.117524	415.888
0.079408	376.168
0.050821	338.785
0.025411	287.383
0.009529	238.318
