Adsorption isotherm of Nitrogen on JUC-521-Fe
DOI: 10.1039/c9sc03725j
Article source: Figure S49
Adsorbate Nitrogen: InChIKey IJGRMHOSHXDMSA-UHFFFAOYSA-N
Kind: experiment
Temperature: 77 K
Tabular data in the source: 0
pressure (bar)	uptake (cm3(STP)/g)
0	26.4205
0	49.4318
0	69.8864
0	92.0455
0.002147	110.795
0.002147	126.136
0.010734	136.364
0.01932	163.636
0.030054	173.864
0.036494	187.5
0.049374	194.318
0.081575	223.295
0.115923	236.932
0.158857	242.045
0.195351	248.864
0.229699	253.977
0.264046	253.977
0.2941	255.682
0.330594	255.682
0.364942	259.091
0.403583	260.795
0.43793	260.795
0.470131	262.5
0.506625	267.614
0.545266	267.614
0.579613	269.318
0.613961	271.023
0.650455	272.727
0.686949	276.136
0.72237	277.841
0.757791	281.25
0.792138	281.25
0.826486	286.364
0.86298	293.182
0.897327	300
0.933822	310.227
0.970316	323.864
0.99393	351.136
1.00681	361.364
1.00466	369.886
0.989636	361.364
0.957435	334.091
0.916648	318.75
0.878007	310.227
0.843659	301.705
0.824339	300
0.789992	294.886
0.753497	291.477
0.71915	289.773
0.680509	284.659
0.646162	284.659
0.609667	282.955
0.57532	279.545
0.538826	279.545
0.506625	277.841
0.472278	271.023
0.433637	269.318
0.398216	269.318
0.360648	267.614
0.328448	265.909
0.291953	262.5
0.259753	262.5
0.221112	259.091
0.188911	257.386
0.151343	251.42
0.115923	243.75
0.081575	231.818
0.047228	203.693
