Adsorption isotherm of Nitrogen on JUC-522
DOI: 10.1039/c9sc03725j
Article source: Figure 3C
Adsorbate Nitrogen: InChIKey IJGRMHOSHXDMSA-UHFFFAOYSA-N
Kind: experiment
Temperature: 77 K
Tabular data in the source: 0
pressure (bar)	uptake (cm3(STP)/g)
0	20.2532
0	45.5696
0	68.3544
0	91.1392
0	113.924
0	134.177
0.003176	149.367
0.003176	167.089
0.006353	187.342
0.009529	273.418
0.025411	318.987
0.028587	341.772
0.047645	346.835
0.06035	356.962
0.085761	362.025
0.123877	372.152
0.158817	379.747
0.193756	382.278
0.231872	382.278
0.263636	387.342
0.298575	389.873
0.336691	392.405
0.371631	394.937
0.403394	397.468
0.435158	400
0.479626	400
0.514566	400
0.549505	405.063
0.581269	407.595
0.616208	410.127
0.654324	410.127
0.69244	412.658
0.721027	412.658
0.759143	417.722
0.797259	420.253
0.832199	422.785
0.863962	427.848
0.908431	437.975
0.937018	450.633
0.971958	475.949
1.00372	558.228
0.971958	501.266
0.924313	460.759
0.878256	445.57
0.844904	437.975
0.809965	435.443
0.790907	432.911
0.749614	430.38
0.717851	427.848
0.686088	425.316
0.644795	420.253
0.613032	420.253
0.574916	417.722
0.543153	415.19
0.505037	415.19
0.466921	412.658
0.438334	410.127
0.403394	407.595
0.365278	405.063
0.327162	402.532
0.292223	400
0.257283	397.468
0.219167	394.937
0.187404	389.873
0.149288	384.81
0.117524	382.278
0.079408	372.152
0.047645	362.025
0.022234	329.114
0.009529	245.57
