Adsorption isotherm of Nitrogen on JUC-521
DOI: 10.1039/c9sc03725j
Article source: Figure 3B
Adsorbate Nitrogen: InChIKey IJGRMHOSHXDMSA-UHFFFAOYSA-N
Kind: experiment
Temperature: 77 K
Tabular data in the source: 0
pressure (bar)	uptake (cm3(STP)/g)
0	20.6897
0	43.9655
0	69.8276
0	87.931
0	106.034
0	129.31
0	147.414
0	168.103
0.003176	181.034
0.009529	204.31
0.028587	250.862
0.03494	271.552
0.047645	281.897
0.085761	323.276
0.114348	343.966
0.157228	358.19
0.193756	362.069
0.228696	364.655
0.263636	369.828
0.301752	372.414
0.330339	375
0.368455	380.172
0.403394	382.759
0.44151	382.759
0.473274	385.345
0.511389	390.517
0.546329	393.103
0.581269	395.69
0.616208	398.276
0.651148	400.862
0.686088	403.448
0.721027	406.034
0.759143	411.207
0.794083	413.793
0.832199	418.966
0.863962	426.724
0.898902	431.897
0.937018	447.414
0.965605	468.103
0.991016	499.138
1.00055	512.069
1.00372	527.586
1.01325	587.069
0.994192	535.345
0.965605	493.966
0.921136	468.103
0.876668	450
0.848081	444.828
0.825846	437.069
0.78773	434.483
0.754379	426.724
0.714675	421.552
0.682911	418.966
0.647972	416.379
0.609856	411.207
0.578092	408.621
0.5368	403.448
0.505037	403.448
0.470097	398.276
0.431981	393.103
0.400218	390.517
0.362102	385.345
0.330339	385.345
0.295399	385.345
0.257283	380.172
0.222343	375
0.187404	372.414
0.149288	364.655
0.114348	354.31
0.079408	333.621
0.047645	297.414
0.015882	237.931
