Adsorption isotherm of Nitrogen on JUC-520
DOI: 10.1039/c9sc03725j
Article source: Figure 3A
Adsorbate Nitrogen: InChIKey IJGRMHOSHXDMSA-UHFFFAOYSA-N
Kind: experiment
Temperature: 77 K
Tabular data in the source: 0
pressure (bar)	uptake (cm3(STP)/g)
0	23.5043
0	44.8718
0	68.3761
0	89.7436
0	113.248
0	130.342
0	151.709
0	166.667
0	188.034
0.003176	200.855
0.012705	226.496
0.015882	260.684
0.047645	288.462
0.06035	294.872
0.085761	299.145
0.120701	307.692
0.15564	311.966
0.193756	314.103
0.22552	318.376
0.263636	320.513
0.295399	322.65
0.330339	326.923
0.365278	326.923
0.403394	329.06
0.438334	329.06
0.47645	331.197
0.511389	333.333
0.546329	335.47
0.581269	335.47
0.616208	339.744
0.651148	341.88
0.689264	341.88
0.724204	344.017
0.757555	346.154
0.794083	350.427
0.829023	352.564
0.863962	354.701
0.898902	365.385
0.937018	376.068
0.97037	394.231
0.971958	416.667
0.924313	380.342
0.878256	368.59
0.844904	363.248
0.806788	356.838
0.771849	354.701
0.752791	354.701
0.717851	352.564
0.682911	350.427
0.644795	348.291
0.613032	348.291
0.578092	346.154
0.539976	344.017
0.505037	344.017
0.473274	339.744
0.435158	339.744
0.400218	337.607
0.365278	335.47
0.330339	335.47
0.292223	331.197
0.257283	329.06
0.222343	326.923
0.184227	324.786
0.149288	320.513
0.117524	316.239
0.080996	309.829
0.050821	303.419
0.028587	278.846
0.003176	211.538
