Adsorption isotherm of Carbon Dioxide on Cu(BDC) (60mL DMF 100W Microwave)
DOI: 10.1007/s10934-015-9992-y
Article source: Figure 7
Adsorbate Carbon Dioxide: InChIKey CURLTUGMZLYLDI-UHFFFAOYSA-N
Kind: experiment
Temperature: 313 K
Tabular data in the source: 0
pressure (bar)	uptake (mmol/g)
0	-0.026201
5.79431	0.786026
10.8361	1.23144
20.092	1.75546
31.2291	2.35808
40.1087	2.8559
44.3227	3.0393
