Adsorption isotherm of Nitrogen on Cu(BDC) (60mL DMF 300W Microwave)
DOI: 10.1007/s10934-015-9992-y
Article source: Figure 6
Adsorbate Nitrogen: InChIKey IJGRMHOSHXDMSA-UHFFFAOYSA-N
Kind: experiment
Temperature: 77 K
Tabular data in the source: 0
pressure (bar)	uptake (cm3(STP)/g)
0.004087	330.498
0.008174	365.353
0.020435	382.78
0.022479	379.046
0.06948	384.647
0.110351	392.116
0.1737	388.382
0.198222	393.361
0.351487	395.851
0.369879	390.871
0.45162	400.83
0.5211	412.033
0.649843	397.718
0.705017	412.656
0.839891	403.942
0.895066	414.523
0.954328	417.635
0.956372	411.411
1.0095	421.992
