Adsorption isotherm of Methane on Cu(BDC) (60mL DMF 100W Microwave)
DOI: 10.1007/s10934-015-9992-y
Article source: Figure 7
Adsorbate Methane: InChIKey VNWKTOKETHGBQD-UHFFFAOYSA-N
Kind: experiment
Temperature: 313 K
Tabular data in the source: 0
pressure (bar)	uptake (mmol/g)
0	-0.026201
5.49331	0.026201
13.2441	0.078603
23.8545	0.131004
34.6154	0.131004
44.4732	0.209607
