Adsorption isotherm of Methane on Cu(BDC) (60mL DMF 300W Microwave)
DOI: 10.1007/s10934-015-9992-y
Article source: Figure 7
Adsorbate Methane: InChIKey VNWKTOKETHGBQD-UHFFFAOYSA-N
Kind: experiment
Temperature: 313 K
Tabular data in the source: 0
pressure (bar)	uptake (mmol/g)
0	-0.026201
2.55853	0.366812
4.5903	0.681223
6.92308	0.969432
14.5987	1.88646
20.7692	2.48908
26.7893	3.1441
32.7341	3.66812
42.3662	4.66376
47.6338	5.26638
