Adsorption isotherm of Nitrogen on Cu(BDC) (60mL DMF 100W Microwave)
DOI: 10.1007/s10934-015-9992-y
Article source: Figure 6
Adsorbate Nitrogen: InChIKey IJGRMHOSHXDMSA-UHFFFAOYSA-N
Kind: experiment
Temperature: 77 K
Tabular data in the source: 0
pressure (bar)	uptake (cm3(STP)/g)
0.004087	146.888
0.012261	178.631
0.047001	186.722
0.089915	195.436
0.161439	196.68
0.167569	192.324
0.253398	197.925
0.316747	199.17
0.357617	195.436
0.427098	203.527
0.512925	214.108
0.641668	202.282
0.682538	214.73
0.792889	209.751
0.866456	217.22
0.942067	215.353
0.944111	218.465
0.997243	219.71
