Adsorption isotherm of Carbon Dioxide on Cu(BDC) (60mL DMF 300W Microwave)
DOI: 10.1007/s10934-015-9992-y
Article source: Figure 7
Adsorbate Carbon Dioxide: InChIKey CURLTUGMZLYLDI-UHFFFAOYSA-N
Kind: experiment
Temperature: 313 K
Tabular data in the source: 0
pressure (bar)	uptake (mmol/g)
0	-0.026201
1.35452	1.33624
4.51505	3.0131
9.10535	4.50655
14.8244	5.8952
23.6288	7.46725
33.4114	8.9083
42.6672	10.0087
47.5585	10.3755
