Adsorption isotherm of Nitrogen on Cu(BDC) (87mL DMF 300W Microwave)
DOI: 10.1007/s10934-015-9992-y
Article source: Figure 6
Adsorbate Nitrogen: InChIKey IJGRMHOSHXDMSA-UHFFFAOYSA-N
Kind: experiment
Temperature: 77 K
Tabular data in the source: 0
pressure (bar)	uptake (cm3(STP)/g)
0.004087	70.9544
0.006131	62.8631
0.010218	90.8714
0.014305	85.2697
0.032696	93.361
0.055175	101.452
0.094002	97.7178
0.126699	105.809
0.239093	101.452
0.263615	108.299
0.418923	111.411
0.472055	117.635
0.478186	106.432
0.519057	130.083
0.647799	131.95
0.674364	112.656
0.707061	134.44
0.776542	139.419
0.790846	118.88
0.8685	147.51
0.872587	128.216
1.00542	156.846
