Adsorption isotherm of Nitrogen on Cu(BDC) (87mL DMF 100W Microwave)
DOI: 10.1007/s10934-015-9992-y
Article source: Figure 6
Adsorbate Nitrogen: InChIKey IJGRMHOSHXDMSA-UHFFFAOYSA-N
Kind: experiment
Temperature: 77 K
Tabular data in the source: 0
pressure (bar)	uptake (cm3(STP)/g)
0.002044	255.809
0.014305	280.705
0.020435	283.817
0.071523	285.062
0.087872	288.797
0.169613	290.664
0.294268	288.797
0.329008	293.154
0.408706	293.776
0.510883	299.378
0.598754	300
0.606929	293.154
0.762237	300
0.864413	296.888
0.899153	301.867
0.962502	301.245
1.00133	307.469
