Adsorption isotherm of Hydrogen on Cu2(TPTC-OEt)
DOI: 10.1021/Cg4009224
Adsorbate Hydrogen: InChIKey UFHFLCQGNIYNRP-UHFFFAOYSA-N
Temperature: 77 K
Tabular data in the source: 0
pressure (bar)	uptake (cm3(STP)/g)
0.0245198	0.222857
0.0473046	0.342857
0.0749905	0.445714
0.0972933	0.537143
0.124497	0.611429
0.151894	0.697143
0.181789	0.777143
0.206302	0.845714
0.2435	0.897143
0.270704	0.971429
0.294638	1.00571
0.323955	1.05143
0.348275	1.10857
0.380187	1.15429
0.409312	1.18857
0.430554	1.21714
0.462273	1.25143
0.491301	1.28
0.515235	1.31429
0.541861	1.35429
0.578578	1.37714
0.594534	1.4
0.628848	1.43429
0.650091	1.46286
0.679119	1.49143
0.70805	1.51429
0.739577	1.53714
0.758031	1.55429
0.781676	1.57143
0.807916	1.58857
0.850111	1.62857
0.86847	1.64
0.899997	1.66286
0.923641	1.68
0.949882	1.69714
0.9841	1.72571
1.00775	1.74286
1.03398	1.76
1.05753	1.77143
1.08627	1.78286
1.11761	1.79429
