Adsorption isotherm of Hydrogen on Cu2(TPTC-OMe)
DOI: 10.1021/Cg4009224
Adsorbate Hydrogen: InChIKey UFHFLCQGNIYNRP-UHFFFAOYSA-N
Temperature: 77 K
Tabular data in the source: 0
pressure (bar)	uptake (cm3(STP)/g)
0.0265366	0.188571
0.0413434	0.297143
0.0526875	0.354286
0.0829685	0.457143
0.102291	0.525714
0.126996	0.605714
0.148817	0.668571
0.178423	0.731429
0.239942	0.84
0.267049	0.908571
0.293579	0.942857
0.320011	0.971429
0.354518	1.01714
0.378452	1.05143
0.405077	1.09143
0.428819	1.11429
0.460442	1.14286
0.486875	1.17143
0.521189	1.20571
0.53945	1.21143
0.565787	1.23429
0.594815	1.26286
0.626342	1.28571
0.649987	1.30286
0.679015	1.33143
0.705062	1.33714
0.731399	1.36
0.757831	1.38857
0.78138	1.4
0.812809	1.41714
0.83905	1.43429
0.868078	1.46286
0.891529	1.46857
0.915078	1.48
0.943817	1.49143
0.975246	1.50857
0.996103	1.51429
1.01975	1.53143
1.04858	1.54857
1.08251	1.56
1.10866	1.57143
