Adsorption isotherm of Hydrogen on Cu2(TPTC-O^n Hex)
DOI: 10.1021/Cg4009224
Adsorbate Hydrogen: InChIKey UFHFLCQGNIYNRP-UHFFFAOYSA-N
Temperature: 77 K
Tabular data in the source: 0
pressure (bar)	uptake (cm3(STP)/g)
0.0125973	0.131429
0.0379771	0.251429
0.138911	0.542857
0.672089	1.22857
0.939776	1.40571
1.0184	1.45143
1.04185	1.45714
1.07319	1.46857
1.09693	1.49143
