Adsorption isotherm of Nitrogen on Cu2(TPTC-O^n Pr)
DOI: 10.1021/Cg4009224
Adsorbate Nitrogen: InChIKey IJGRMHOSHXDMSA-UHFFFAOYSA-N
Temperature: 77 K
Tabular data in the source: 0
pressure (bar)	uptake (cm3(STP)/g)
0.0865563	0.0890937
0.0880487	100.498
0.089541	194.171
0.0984946	357.891
0.122373	366.351
0.150727	370.595
0.168635	370.611
0.183559	371.467
0.208929	374.021
0.216391	374.872
0.240269	376.58
0.261161	374.91
0.307424	378.326
0.364133	376.688
0.434274	378.436
0.486506	379.326
0.540231	377.684
0.605894	380.273
0.67902	382.868
0.749159	382.085
0.820793	383.835
0.907349	384.754
0.929734	384.774
