Adsorption isotherm of Nitrogen on Cu2(TPTC-O^n Hex)
DOI: 10.1021/Cg4009224
Adsorbate Nitrogen: InChIKey IJGRMHOSHXDMSA-UHFFFAOYSA-N
Temperature: 77 K
Tabular data in the source: 0
pressure (bar)	uptake (cm3(STP)/g)
9.16055	0.110174
104.854	0.539974
117.64	0.566135
199.881	0.791301
267.385	0.958824
371.678	1.07885
471.627	1.22516
491.939	1.23027
512.513	1.25638
570.725	1.30323
588.118	1.32411
740.693	1.44382
748.544	1.44901
765.741	1.45415
784.562	1.46452
806.562	1.48012
