Adsorption isotherm of Nitrogen on Cu2(TPTC-OEt)
DOI: 10.1021/Cg4009224
Adsorbate Nitrogen: InChIKey IJGRMHOSHXDMSA-UHFFFAOYSA-N
Temperature: 77 K
Tabular data in the source: 0
pressure (bar)	uptake (cm3(STP)/g)
0.00730256	23.3888
0.00791418	39.4748
0.014782	61.0675
0.0214324	81.7621
0.0243468	100.582
0.0283481	123.892
0.0382997	144.665
0.0409968	162.587
0.0443459	183.202
0.0453922	201.085
0.0522601	222.677
0.0580409	239.78
0.064474	259.576
0.0686927	283.784
0.0751257	303.581
0.0777342	314.357
0.0950695	331.736
0.113098	338.417
0.174694	348.817
0.235856	357.421
0.291631	364.111
0.353356	368.265
0.41343	372.379
0.489359	374.193
0.550867	377.449
0.607641	381.484
0.668497	382.045
0.724836	384.284
0.782826	386.563
0.842465	388.881
0.900672	392.057
0.998062	394.384
1.01765	393.959
