Adsorption isotherm of Nitrogen on Cu2(TPTC-OMe)
DOI: 10.1021/Cg4009224
Adsorbate Nitrogen: InChIKey IJGRMHOSHXDMSA-UHFFFAOYSA-N
Temperature: 77 K
Tabular data in the source: 0
pressure (bar)	uptake (cm3(STP)/g)
0.0865563	175.603
0.0880487	232.988
0.089541	270.12
0.0910334	157.041
0.0970028	281.097
0.110434	292.923
0.123865	299.686
0.149235	304.771
0.165651	306.473
0.186543	309.023
0.204452	312.414
0.222361	311.586
0.237284	313.286
0.255192	314.99
0.274592	314.163
0.29847	316.715
0.316378	319.262
0.361149	319.301
0.468598	323.614
0.522322	326.192
0.592463	327.941
0.64768	327.989
0.714836	328.047
0.767068	328.092
0.825269	328.143
0.908841	332.435
0.926749	331.607
