Adsorption isotherm of Hydrogen on Cu2(TPTC-O^n Pr)
DOI: 10.1021/Cg4009224
Adsorbate Hydrogen: InChIKey UFHFLCQGNIYNRP-UHFFFAOYSA-N
Temperature: 77 K
Tabular data in the source: 0
pressure (bar)	uptake (cm3(STP)/g)
0.0050048	0.142857
0.0277896	0.262857
0.0398086	0.36
0.0787422	0.514286
0.0931634	0.6
0.131519	0.72
0.161607	0.811429
0.188811	0.885714
0.215725	0.942857
0.248313	1.02857
0.272824	1.09714
0.296952	1.14286
0.323481	1.17714
0.352798	1.22286
0.382211	1.27429
0.414317	1.33143
0.440749	1.36
0.456705	1.38286
0.499094	1.43429
0.525623	1.46857
0.54677	1.49143
0.576086	1.53714
0.602616	1.57143
0.634238	1.6
0.655287	1.61714
0.689602	1.65143
0.713344	1.67429
0.737085	1.69714
0.766113	1.72571
0.784472	1.73714
0.824072	1.77714
0.853003	1.8
0.86867	1.80571
0.897698	1.83429
0.939797	1.86857
0.960558	1.86857
0.992085	1.89143
1.00554	1.92
1.02361	1.91429
1.04745	1.94286
1.06552	1.93714
1.08397	1.95429
1.11271	1.96571
