Adsorption isotherm of Carbon Dioxide on Bio-MOF-14
DOI: 10.1039/C3sc22207a
Adsorbate Carbon Dioxide: InChIKey CURLTUGMZLYLDI-UHFFFAOYSA-N
Temperature: 273 K
Tabular data in the source: 0
pressure (bar)	uptake (cm3(STP)/g)
0.0197031	2.72604
0.101393	8.55702
0.154914	13.1204
0.252097	29.5993
0.356323	33.6556
0.405619	34.9866
0.505619	37.4584
0.557731	38.6627
0.65914	40.5007
0.712661	41.1345
0.860548	43.226
0.964773	44.7472
1.01548	45.8246
