Adsorption isotherm of Carbon Dioxide on Bio-MOF-12
DOI: 10.1039/C3sc22207a
Adsorbate Carbon Dioxide: InChIKey CURLTUGMZLYLDI-UHFFFAOYSA-N
Temperature: 273 K
Tabular data in the source: 0
pressure (bar)	uptake (cm3(STP)/g)
0.00944547	12.3388
0.0180263	21.1485
0.025177	26.5544
0.0394785	31.9604
0.0623608	37.5665
0.102405	46.176
0.15246	54.5852
0.201085	60.1914
0.25829	65.1969
0.348389	72.605
0.44993	79.0121
0.55576	84.0176
0.65444	88.4224
0.75598	91.6259
0.807465	93.2277
0.861811	95.4301
1.00769	99.6347
