Adsorption isotherm of Carbon Dioxide on Bio-MOF-14
DOI: 10.1039/C3sc22207a
Adsorbate Carbon Dioxide: InChIKey CURLTUGMZLYLDI-UHFFFAOYSA-N
Temperature: 298 K
Tabular data in the source: 0
pressure (bar)	uptake (cm3(STP)/g)
0.0421011	0.0848119
0.535059	0.0848119
1.01393	0.112981
2.76041	0.197488
4.57731	0.394671
6.38013	0.507347
8.16886	0.70453
10.0139	0.873544
