Adsorption isotherm of Carbon Dioxide on Bio-MOF-14
DOI: 10.1039/C3sc22207a
Adsorbate Carbon Dioxide: InChIKey CURLTUGMZLYLDI-UHFFFAOYSA-N
Temperature: 273 K
Tabular data in the source: 0
pressure (bar)	uptake (cm3(STP)/g)
0.00843546	2.219
0.0492805	5.32463
0.0957594	8.74716
0.208435	20.9796
0.305619	31.8176
0.453506	36.381
0.556323	38.2824
0.608435	39.2965
0.705619	40.7542
0.811252	42.212
0.85914	42.9091
0.964773	44.2401
1.00421	44.6838
