Adsorption isotherm of Carbon Dioxide on Bio-MOF-14
DOI: 10.1039/C3sc22207a
Adsorbate Carbon Dioxide: InChIKey CURLTUGMZLYLDI-UHFFFAOYSA-N
Temperature: 298 K
Tabular data in the source: 0
pressure (bar)	uptake (cm3(STP)/g)
0.0702701	0.479178
0.267453	1.15523
0.450552	1.83129
0.647735	2.78904
0.802664	3.21157
0.971679	3.9158
2.7745	8.53552
4.57731	12.0003
6.4083	14.2538
8.19703	16.5073
9.99985	18.1693
