Adsorption isotherm of Carbon Dioxide on Bio-MOF-14
DOI: 10.1039/C3sc22207a
Adsorbate Carbon Dioxide: InChIKey CURLTUGMZLYLDI-UHFFFAOYSA-N
Temperature: 273 K
Tabular data in the source: 0
pressure (bar)	uptake (cm3(STP)/g)
0.00801532	0.72604
0.0380483	3.3289
0.106695	8.93506
0.146739	12.3388
0.202515	20.5478
0.254	28.7568
0.304055	31.5599
0.404165	34.5632
0.505705	37.5665
0.605815	39.5687
0.704495	40.9703
0.808895	42.572
0.909005	44.374
0.961921	44.7744
1.00339	44.7744
