Adsorption isotherm of Carbon Dioxide on Bio-MOF-11
DOI: 10.1039/C3sc22207a
Adsorbate Carbon Dioxide: InChIKey CURLTUGMZLYLDI-UHFFFAOYSA-N
Temperature: 273 K
Tabular data in the source: 0
pressure (bar)	uptake (cm3(STP)/g)
0.00801532	11.7381
0.0366182	33.5621
0.0566402	44.9747
0.0881033	57.1881
0.15103	75.8085
0.199654	87.4213
0.248279	95.6303
0.299764	103.439
0.404165	113.65
0.505705	122.059
0.605815	128.667
0.704495	134.273
0.808895	138.678
0.909005	143.082
1.00053	146.486
