Adsorption isotherm of Carbon Dioxide on Bio-MOF-13
DOI: 10.1039/C3sc22207a
Adsorbate Carbon Dioxide: InChIKey CURLTUGMZLYLDI-UHFFFAOYSA-N
Temperature: 273 K
Tabular data in the source: 0
pressure (bar)	uptake (cm3(STP)/g)
0.00485596	2.92846
0.0108756	11.9384
0.0180263	16.3432
0.035188	22.3498
0.0995445	31.9604
0.196794	38.5676
0.305485	43.3729
0.401305	46.3762
0.504275	49.3795
0.610106	51.7821
0.704495	53.7843
0.807465	55.7865
0.861811	56.3872
0.913296	57.3883
1.00769	59.1903
