Adsorption isotherm of Carbon Dioxide on Bio-MOF-14
DOI: 10.1039/C3sc22207a
Adsorbate Carbon Dioxide: InChIKey CURLTUGMZLYLDI-UHFFFAOYSA-N
Temperature: 273 K
Tabular data in the source: 0
pressure (bar)	uptake (cm3(STP)/g)
0.00561856	0.127447
0.107027	7.16266
0.152097	10.8387
0.20421	25.9232
0.301393	30.8669
0.354914	32.3246
0.456323	34.9232
0.50421	35.9373
0.60421	37.8387
0.65914	38.8528
0.761957	40.4373
0.809844	41.2612
0.911252	42.4021
1.0028	43.9232
