Adsorption isotherm of Hydrogen Chloride on Cr-MIL(101)
DOI: 10.1039/c4ta06832g
Article source: Figure 2b
Adsorbate Hydrogen Chloride: InChIKey VEXZGXHMUGYJMC-UHFFFAOYSA-N
Kind: experiment
Temperature: 298 K
Tabular data in the source: 0
pressure (bar)	uptake (mmol/g)
0	0
0.009944	4.9453
0.021268	6.13377
0.02911	6.57619
0.041333	6.82549
0.050201	6.90885
0.101239	7.60228
0.199765	7.93921
0.304922	8.24889
0.404554	8.58589
0.506429	9.06113
