Adsorption isotherm of Hydrogen Chloride on UiO-66
DOI: 10.1039/c4ta06832g
Article source: Figure 2b
Adsorbate Hydrogen Chloride: InChIKey VEXZGXHMUGYJMC-UHFFFAOYSA-N
Kind: experiment
Temperature: 298 K
Tabular data in the source: 0
pressure (bar)	uptake (mmol/g)
0	0
0.009833	4.54545
0.019877	5.04132
0.031005	5.45455
0.041049	5.95041
0.053324	6.55647
0.098724	7.21763
0.202616	7.85124
0.302124	8.62259
0.405999	9.17355
0.504306	9.50413
