Adsorption isotherm of Methane on DATPIM
DOI: 10.1002/adma.201605826
Article source: Figure S11e
Adsorbate Methane: InChIKey VNWKTOKETHGBQD-UHFFFAOYSA-N
Kind: experiment
Temperature: 298 K
Tabular data in the source: 0
pressure (bar)	uptake (mmol/g)
0.115324	0.00405
0.167986	0.00608
0.209316	0.0123
0.262645	0.0154
0.315974	0.0163
0.370636	0.0194
0.423965	0.0235
0.477294	0.0256
0.531956	0.0286
0.585285	0.0327
0.638614	0.0358
0.691943	0.041
0.746605	0.0451
0.799934	0.0492
0.853263	0.0481
0.907925	0.0522
0.961254	0.0563
