Adsorption isotherm of Carbon Dioxide on PIM-1
DOI: 10.1002/adma.201605826
Article source: Figure S11e
Adsorbate Carbon Dioxide: InChIKey CURLTUGMZLYLDI-UHFFFAOYSA-N
Kind: experiment
Temperature: 298 K
Tabular data in the source: 0
pressure (bar)	uptake (mmol/g)
0.010119	0.0281
0.021332	0.0583
0.032664	0.0916
0.04213	0.12
0.052796	0.146
0.062928	0.171
0.072527	0.196
0.08146	0.216
0.092792	0.245
0.103458	0.27
0.151987	0.375
0.210649	0.49
0.263978	0.587
0.315974	0.675
0.369303	0.762
0.423965	0.844
0.477294	0.92
0.530623	0.994
0.585285	1.06
0.638614	1.13
0.693276	1.2
0.746605	1.26
0.801267	1.32
0.853263	1.38
0.905259	1.43
0.961254	1.49
1.01458	1.54
