Adsorption isotherm of Methane on PIM-1
DOI: 10.1002/adma.201605826
Article source: Figure S11e
Adsorbate Methane: InChIKey VNWKTOKETHGBQD-UHFFFAOYSA-N
Kind: experiment
Temperature: 298 K
Tabular data in the source: 0
pressure (bar)	uptake (mmol/g)
0.100125	0.00719
0.076527	0.00409
0.154654	0.0113
0.207983	0.0165
0.262645	0.0206
0.315974	0.0268
0.369303	0.033
0.423965	0.0381
0.477294	0.0422
0.530623	0.0484
0.583952	0.0546
0.638614	0.0598
0.691943	0.0649
0.745272	0.0711
0.801267	0.0763
0.853263	0.0814
0.906592	0.0866
0.961254	0.0907
1.01458	0.0948
