Adsorption isotherm of Carbon Dioxide on DATPIM
DOI: 10.1002/adma.201605826
Article source: Figure S11e
Adsorbate Carbon Dioxide: InChIKey CURLTUGMZLYLDI-UHFFFAOYSA-N
Kind: experiment
Temperature: 298 K
Tabular data in the source: 0
pressure (bar)	uptake (mmol/g)
0.008999	0.0343
0.012932	0.0552
0.020798	0.0853
0.030931	0.121
0.041063	0.156
0.052796	0.195
0.062928	0.225
0.072527	0.25
0.083193	0.282
0.092259	0.305
0.102925	0.335
0.151987	0.444
0.210649	0.557
0.263978	0.645
0.317307	0.726
0.369303	0.796
0.425298	0.864
0.478627	0.923
0.533289	0.978
0.583952	1.03
0.639947	1.09
0.693276	1.13
0.745272	1.17
0.801267	1.22
0.854596	1.26
0.907925	1.3
0.958588	1.33
