Adsorption isotherm of Carbon Dioxide on IRMOF-1
DOI: 10.1021/Ie202777q
Adsorbate Carbon Dioxide: InChIKey CURLTUGMZLYLDI-UHFFFAOYSA-N
Temperature: 298 K
Tabular data in the source: 0
pressure (bar)	uptake (mmol/g)
0.00366882	-0.00992784
0.101169	0.290072
0.221169	0.590072
0.296169	0.796739
0.401169	1.02341
0.506169	1.23674
0.611169	1.48341
0.708669	1.63007
0.813669	1.81674
0.926169	1.95007
1.03867	2.09007
1.35367	2.42341
1.69117	2.68341
1.99117	2.87674
2.90617	3.33674
4.12867	3.71007
4.57867	3.81007
