Adsorption isotherm of Nitrogen on CONNCO at pH 2
DOI: 10.1021/acsami.0c21823
Article source: Figure S8
Adsorbate Nitrogen: InChIKey IJGRMHOSHXDMSA-UHFFFAOYSA-N
Kind: experiment
Temperature: 77 K
Tabular data in the source: 0
pressure (bar)	uptake ()
0.00538	3.21839
0.003587	9.65517
0.001793	14.4828
0.001793	20.9195
0.001793	27.3563
0.001793	34.5977
0.003587	77.2414
0.020624	79.6552
0.039454	81.2644
0.059181	82.8736
0.073528	82.8736
0.089668	83.6782
0.112982	85.2874
0.130915	85.2874
0.156023	86.092
0.170369	86.8966
0.188303	86.8966
0.21341	87.7011
0.317425	91.7241
0.425027	94.9425
0.503935	97.3563
0.554149	98.9655
0.649197	102.989
0.661751	103.793
0.708378	107.816
0.798046	115.057
0.812393	115.862
0.850054	120.69
0.859021	123.103
0.898475	130.345
0.905648	134.368
0.937929	144.828
0.948689	152.874
0.957656	161.724
0.977383	173.793
0.989936	189.08
0.993523	199.54
0.998903	213.218
1.00608	229.31
1.0007	224.483
0.988143	210.805
0.973796	196.322
0.959449	183.448
0.941515	170.575
0.914615	159.31
0.909235	156.897
0.884128	148.046
0.857227	140.805
0.823154	133.563
0.812393	131.954
0.772939	125.517
0.755006	123.908
0.699412	117.471
0.659958	114.253
0.604363	109.425
0.543389	106.207
0.505728	104.598
0.441167	99.7701
0.403507	99.7701
0.353292	97.3563
0.288731	96.5517
0.225964	93.3333
0.209823	93.3333
