Adsorption isotherm of Nitrogen on CONNCO
DOI: 10.1021/acsami.0c21823
Article source: Figure 4
Adsorbate Nitrogen: InChIKey IJGRMHOSHXDMSA-UHFFFAOYSA-N
Kind: experiment
Temperature: 77 K
Tabular data in the source: 0
pressure (bar)	uptake ()
0.005201	4.51733
0.004584	18.0085
0.004584	39.4356
0.004584	56.1011
0.004584	68.7987
0.004584	81.4963
0.020625	87.845
0.042836	101.336
0.057644	102.923
0.073685	103.717
0.09096	103.717
0.108235	104.511
0.135382	108.479
0.153891	110.066
0.172401	113.24
0.192144	116.415
0.213121	121.176
0.264947	127.525
0.315538	131.493
0.408084	133.874
0.452507	137.842
0.503098	137.842
0.55369	138.635
0.658576	143.397
0.710401	147.365
0.811585	160.062
0.858475	170.379
0.907833	187.838
0.94115	205.297
0.958425	223.55
0.9757	243.39
0.986806	267.992
0.997911	291.006
1.01148	322.75
0.995443	310.052
0.979402	275.928
0.963361	249.739
0.942383	240.216
0.918938	218.789
0.902897	214.821
0.865879	198.949
0.809117	183.87
0.754824	174.347
0.654874	165.618
0.603048	160.856
0.5068	160.062
0.403149	157.682
0.353791	154.507
0.303199	154.507
0.234098	150.539
0.199547	147.365
0.182272	141.81
