Adsorption isotherm of Nitrogen on CONN
DOI: 10.1021/acsami.0c21823
Article source: Figure 4
Adsorbate Nitrogen: InChIKey IJGRMHOSHXDMSA-UHFFFAOYSA-N
Kind: experiment
Temperature: 77 K
Tabular data in the source: 0
pressure (bar)	uptake (cm3(STP)/g)
0.007052	10.0725
0.007052	25.9445
0.007052	48.1652
0.004584	95.781
0.004584	105.304
0.007052	118.795
0.007052	132.286
0.007052	144.984
0.007052	156.888
0.013222	171.173
0.019391	179.902
0.039134	194.981
0.05641	199.742
0.071217	206.885
0.083556	213.233
0.1033	218.789
0.132914	225.137
0.147722	227.518
0.167465	233.867
0.185974	238.628
0.209419	245.771
0.234098	252.12
0.263713	256.881
0.315538	264.817
0.355025	281.483
0.405617	294.18
0.456208	303.703
0.505566	313.227
0.556158	320.369
0.607984	331.479
0.65364	338.622
0.709168	351.319
0.759759	360.842
0.806649	373.54
0.859709	394.174
0.912769	421.156
0.953489	456.074
0.970764	485.437
0.963361	480.676
0.947319	468.772
0.916471	449.725
0.911535	443.377
0.863411	420.362
0.805415	402.109
0.758525	391.793
0.705466	384.65
0.656108	375.127
0.605516	371.159
0.554924	367.191
0.503098	360.842
0.450039	352.113
0.399447	344.97
0.336516	339.415
0.300731	332.273
0.251373	323.543
0.214355	315.607
0.172401	307.671
0.142786	298.942
0.120575	287.832
0.099598	279.102
0.078621	265.611
0.060111	249.739
0.047772	233.867
0.036667	227.518
0.026795	217.995
0.021859	205.297
