Adsorption isotherm of Nitrogen on CONNCO at pH 13
DOI: 10.1021/acsami.0c21823
Article source: Figure S8
Adsorbate Nitrogen: InChIKey IJGRMHOSHXDMSA-UHFFFAOYSA-N
Kind: experiment
Temperature: 77 K
Tabular data in the source: 0
pressure (bar)	uptake (cm3(STP)/g)
0.001793	0.804598
0.001793	6.43678
0.001793	17.7011
0.001793	29.7701
0.001793	39.4253
0.003587	50.6897
0.003587	57.931
0.001793	66.7816
0.003587	69.1954
0.01614	71.6092
0.037661	74.023
0.053801	75.6322
0.073528	75.6322
0.090565	76.4368
0.123742	77.2414
0.139882	77.2414
0.152436	77.2414
0.168576	78.4483
0.182923	78.046
0.195477	78.8506
0.211617	79.6552
0.265418	81.2644
0.319219	82.069
0.396333	85.2874
0.453721	87.7011
0.507522	87.7011
0.554149	90.1149
0.654577	93.3333
0.661751	93.3333
0.706585	94.1379
0.798046	99.7701
0.812393	100.575
0.853641	103.793
0.862608	106.207
0.894888	111.839
0.912822	117.471
0.937929	127.126
0.945102	131.954
0.957656	140.805
0.972003	152.874
0.984556	168.161
0.988143	181.034
0.993523	193.103
0.998903	206.782
1.00428	221.264
0.998903	218.851
0.989936	207.586
0.977383	193.908
0.970209	181.839
0.957656	170.575
0.943309	158.908
0.927169	147.241
0.909235	138.391
0.887715	130.345
0.862608	122.299
0.835707	115.862
0.807013	110.23
0.771146	106.207
0.762179	104.598
0.710172	99.7701
0.654577	97.3563
0.604363	94.1379
0.532629	91.7241
0.505728	91.7241
0.468068	86.8966
0.4053	86.4943
0.364053	83.6782
0.351499	83.6782
0.290525	82.069
0.227757	80.4598
0.19727	78.8506
0.182923	78.8506
