Adsorption isotherm of Nitrogen on CONN-COF at pH 13
DOI: 10.1021/acsami.0c21823
Article source: Figure S7
Adsorbate Nitrogen: InChIKey IJGRMHOSHXDMSA-UHFFFAOYSA-N
Kind: experiment
Temperature: 77 K
Tabular data in the source: 0
pressure (bar)	uptake (cm3(STP)/g)
0.003344	2.25479
0.005016	11.274
0.003344	22.5479
0.001672	63.1342
0.003344	76.6629
0.005016	87.9369
0.003344	99.2108
0.005016	111.612
0.005016	117.249
0.005016	126.268
0.006688	136.415
0.013376	149.944
0.020064	158.963
0.040129	169.109
0.053505	173.619
0.075241	181.511
0.085274	186.02
0.105338	190.53
0.130418	193.912
0.150483	200.676
0.165531	202.931
0.190611	207.441
0.209004	213.078
0.232412	216.46
0.265853	220.97
0.31267	229.989
0.352798	243.517
0.406303	254.791
0.458136	262.683
0.504953	269.448
0.555114	277.339
0.608619	282.976
0.65878	289.741
0.707269	298.76
0.757429	311.161
0.80759	321.308
0.864439	338.219
0.907912	359.639
0.953057	393.461
0.966433	411.499
0.958073	408.117
0.941353	399.098
0.907912	382.187
0.861095	360.767
0.80759	346.11
0.760774	338.219
0.707269	331.454
0.65878	325.817
0.606947	322.435
0.553442	315.671
0.506625	312.289
0.456464	306.652
0.406303	301.015
0.352798	296.505
0.297621	290.868
0.252476	286.359
0.225724	281.849
0.195627	277.339
0.172219	275.085
0.150483	264.938
0.120386	251.409
0.100322	243.517
0.071897	231.116
