Adsorption isotherm of Nitrogen on CONN-COF at pH 2
DOI: 10.1021/acsami.0c21823
Article source: Figure S7
Adsorbate Nitrogen: InChIKey IJGRMHOSHXDMSA-UHFFFAOYSA-N
Kind: experiment
Temperature: 77 K
Tabular data in the source: 0
pressure (bar)	uptake (cm3(STP)/g)
0.003344	18.0383
0.005016	45.0958
0.005016	64.2616
0.005016	81.1725
0.005016	96.956
0.005016	139.797
0.001672	148.816
0.005016	161.218
0.010032	173.619
0.021736	182.638
0.040129	196.167
0.056849	201.804
0.068553	207.441
0.086946	211.95
0.105338	217.587
0.13209	224.352
0.148811	226.607
0.168875	231.116
0.190611	234.498
0.212348	239.008
0.232412	243.517
0.262509	248.027
0.31267	257.046
0.35447	262.683
0.404631	270.575
0.458136	280.722
0.506625	286.359
0.558458	293.123
0.606947	302.142
0.657108	312.289
0.707269	320.18
0.759101	331.454
0.810934	347.238
0.861095	365.276
0.907912	387.824
0.958073	422.773
0.964761	437.43
0.953057	434.047
0.934665	427.283
0.907912	414.882
0.856079	396.843
0.809262	385.569
0.760774	375.423
0.707269	365.276
0.657108	356.257
0.603603	348.365
0.553442	342.728
0.508297	337.091
0.454792	319.053
0.404631	311.161
0.35447	306.652
0.290933	298.76
0.262509	293.123
0.229068	289.741
0.202316	284.104
0.185595	281.849
0.172219	278.467
0.155499	268.32
0.13209	258.174
0.096978	244.645
0.071897	228.861
