Adsorption isotherm of Nitrogen on CON at pH 13
DOI: 10.1021/acsami.0c21823
Article source: Figure S6
Adsorbate Nitrogen: InChIKey IJGRMHOSHXDMSA-UHFFFAOYSA-N
Kind: experiment
Temperature: 77 K
Tabular data in the source: 0
pressure (bar)	uptake (cm3(STP)/g)
0.001672	1.34529
0.003344	5.38117
0.003344	10.0897
0.003344	23.5426
0.003344	49.1031
0.003344	62.5561
0.003344	69.2825
0.006688	80.0448
0.011704	87.4439
0.018392	90.1345
0.040129	97.5336
0.056849	101.57
0.068553	104.26
0.085274	106.278
0.096978	108.969
0.12373	111.659
0.143795	114.35
0.158843	115.695
0.180579	118.386
0.202316	120.404
0.224052	122.422
0.254985	124.439
0.304309	127.803
0.34611	132.511
0.397943	136.547
0.449776	139.91
0.498265	143.946
0.548426	147.982
0.598587	152.018
0.652092	157.399
0.70058	162.108
0.747397	168.834
0.79923	174.888
0.854407	184.978
0.904568	195.74
0.949713	212.556
0.959745	220.628
0.951385	219.283
0.932993	215.247
0.90624	209.865
0.859423	201.794
0.80759	195.74
0.752413	189.686
0.702252	184.978
0.652092	180.269
0.601931	176.233
0.550098	173.543
0.501609	170.179
0.451448	161.435
0.399615	157.399
0.349454	154.036
0.284245	150
0.255821	147.309
0.225724	145.291
0.195627	142.601
0.182251	141.256
0.167203	139.238
0.155499	137.892
0.14045	135.874
0.128746	134.529
0.101994	130.493
0.081929	127.13
0.065209	123.094
0.050161	119.058
0.033441	113.677
