Adsorption isotherm of Nitrogen on CON
DOI: 10.1021/acsami.0c21823
Article source: Figure 4
Adsorbate Nitrogen: InChIKey IJGRMHOSHXDMSA-UHFFFAOYSA-N
Kind: experiment
Temperature: 77 K
Tabular data in the source: 0
pressure (bar)	uptake ()
0.005818	27.5316
0.007052	73.5603
0.00952	101.336
0.023093	113.24
0.041602	120.383
0.053942	124.35
0.068749	125.938
0.087258	131.493
0.105768	134.667
0.130446	138.635
0.151424	139.429
0.168699	141.81
0.187208	145.778
0.210653	148.952
0.229162	150.539
0.263713	153.714
0.315538	158.475
0.353791	164.03
0.406851	168.792
0.456208	171.173
0.505566	178.315
0.557392	183.077
0.605516	189.425
0.656108	195.774
0.709168	201.329
0.759759	208.472
0.809117	217.201
0.857241	227.518
0.907833	241.803
0.965828	270.372
0.954723	268.785
0.931278	264.024
0.906599	257.675
0.859709	248.152
0.810351	240.216
0.757291	233.867
0.707934	228.312
0.657342	222.757
0.604282	218.789
0.556158	213.233
0.504332	209.265
0.458676	198.949
0.403149	194.187
0.352557	189.425
0.287158	185.457
0.261245	182.283
0.229162	179.109
0.202015	175.141
0.185974	173.554
0.172401	171.966
0.157593	170.379
0.147722	167.998
0.132914	166.411
0.104534	160.856
0.087258	156.888
0.069983	152.126
0.053942	146.571
0.039134	140.222
