Adsorption isotherm of Nitrogen on CON at pH 2
DOI: 10.1021/acsami.0c21823
Article source: Figure S6
Adsorbate Nitrogen: InChIKey IJGRMHOSHXDMSA-UHFFFAOYSA-N
Kind: experiment
Temperature: 77 K
Tabular data in the source: 0
pressure (bar)	uptake ()
0.003344	53.8117
0.003344	75.3363
0.005852	88.7892
0.011704	95.5157
0.018392	100.897
0.041801	107.623
0.056849	110.314
0.070225	114.35
0.083601	117.04
0.10701	119.731
0.13209	122.422
0.150483	126.457
0.170547	127.803
0.190611	129.821
0.209004	133.184
0.232412	134.529
0.264181	136.547
0.314342	141.256
0.35447	145.964
0.404631	150
0.458136	154.036
0.504953	158.744
0.553442	162.78
0.606947	167.489
0.65878	172.87
0.707269	178.251
0.759101	184.305
0.809262	192.377
0.862767	203.139
0.912928	215.247
0.956401	234.753
0.968105	242.152
0.956401	240.807
0.936337	236.099
0.909584	230.717
0.864439	221.973
0.812606	213.901
0.759101	207.848
0.707269	203.812
0.65878	199.103
0.605275	194.395
0.553442	190.359
0.508297	186.996
0.458136	177.578
0.406303	172.87
0.352798	169.507
0.292605	164.798
0.260837	162.108
0.229068	159.417
0.200644	156.726
0.187267	155.381
0.172219	153.363
0.159679	151.682
0.145467	149.327
0.133762	147.982
0.10701	143.946
0.088618	139.91
0.070225	135.202
0.056849	131.839
0.038457	125.112
