Adsorption isotherm of Methane on Porous Carbon CS1000AF
DOI: 10.1021/la3048938
Adsorbate Methane: InChIKey VNWKTOKETHGBQD-UHFFFAOYSA-N
Temperature: 318 K
Tabular data in the source: 0
pressure (bar)	uptake (mmol/g)
1.0643	0.324675
1.77384	0.649351
2.48337	0.876623
5.32151	1.46104
7.80488	2.01299
10.643	2.56494
14.5455	3.34416
20.5765	4.25325
31.2195	5.45455
42.2173	6.3961
53.9246	7.17532
64.2129	7.75974
77.3392	8.24675
102.528	9.05844
115.299	9.38312
128.78	9.67532
140.488	9.9026
150.776	10.0974
