Adsorption isotherm of Carbon Dioxide on Activated Carbon Filtrasorb F400
DOI: 10.1021/la3048938
Adsorbate Carbon Dioxide: InChIKey CURLTUGMZLYLDI-UHFFFAOYSA-N
Temperature: 318 K
Tabular data in the source: 0
pressure (bar)	uptake (mmol/g)
1.99115	0.775385
9.95575	2.43692
18.1416	3.32308
26.1062	5.16923
34.292	6.83077
41.8142	7.64308
49.5575	8.19692
56.8584	8.56615
64.823	8.86154
72.7876	9.15692
81.1947	9.34154
