Adsorption isotherm of Carbon Dioxide on Activated Carbon Filtrasorb F400
DOI: 10.1021/la3048938
Adsorbate Carbon Dioxide: InChIKey CURLTUGMZLYLDI-UHFFFAOYSA-N
Temperature: 318 K
Tabular data in the source: 0
pressure (bar)	uptake (mmol/g)
3.40687	1.56989
12.5707	2.90323
21.6916	3.6129
29.9656	4
37.4031	4.21505
48.138	4.4086
58.0423	4.51613
65.8818	4.58065
73.7184	4.60215
82.792	4.62366
91.0379	4.60215
98.4577	4.55914
106.702	4.51613
113.297	4.47312
120.714	4.3871
128.131	4.30108
135.549	4.23656
142.139	4.12903
151.206	4.04301
