Adsorption isotherm of Nitrogen on Porous Carbon CS1000A
DOI: 10.1021/la3048938
Adsorbate Nitrogen: InChIKey IJGRMHOSHXDMSA-UHFFFAOYSA-N
Temperature: 77 K
Tabular data in the source: 0
pressure (bar)	uptake (mmol/g)
0.00184	4.66677
0.00552	10.667
0.01104	12.8895
0.02392	16.3903
0.04968	17.8362
0.07176	18.2819
0.09752	18.45
0.1932	19.2333
0.3404	19.5195
0.39008	19.7445
0.48944	19.8058
0.5888	19.9226
0.69368	20.2619
0.79304	20.1565
0.89976	20.2181
