Adsorption isotherm of Water on Activated Carbon Filtrasorb F400
DOI: 10.1021/la3048938
Adsorbate Water: InChIKey XLYOFNOQVPJJNP-UHFFFAOYSA-N
Temperature: 318 K
Tabular data in the source: 0
pressure (bar)	uptake (mmol/g)
0.000420748	0.229358
0.00422429	0.30581
0.0111986	0.30581
0.0181717	0.458716
0.0230332	0.382263
0.0287382	0.535168
0.0325405	0.764526
0.0373994	0.993884
0.0395109	1.22324
0.0433099	1.83486
0.0458409	2.44648
0.0473138	3.21101
0.0485741	4.12844
0.0550935	7.95107
0.0582429	10.3976
0.0599195	12.0795
0.0620187	13.7615
0.0643299	15.367
0.0670651	16.8196
0.06854	17.3547
0.0702249	18.0428
0.0729685	18.5015
0.075078	18.9602
0.0767662	19.2661
0.0830975	20.3364
0.088372	21.4067
