Adsorption isotherm of Methane on Porous Carbon CS1000A
DOI: 10.1021/la3048938
Adsorbate Methane: InChIKey VNWKTOKETHGBQD-UHFFFAOYSA-N
Temperature: 318 K
Tabular data in the source: 0
pressure (bar)	uptake (mmol/g)
2.1286	0.422078
3.1929	0.649351
4.61197	1.13636
7.80488	1.62338
10.2882	2.04545
13.1264	2.46753
14.9002	2.75974
16.6741	3.01948
18.8027	3.31169
23.0599	3.86364
25.1885	4.12338
27.3171	4.38312
29.0909	4.64286
31.5743	4.80519
34.0576	4.93506
36.1863	5.16234
38.6696	5.38961
41.153	5.58442
43.9911	5.81169
46.4745	6.00649
49.3126	6.23377
51.4412	6.42857
53.9246	6.55844
56.7627	6.65584
58.8914	6.88312
62.0843	7.04545
64.9224	7.20779
68.1153	7.37013
71.3082	7.53247
74.5011	7.66234
77.3392	7.79221
80.1774	7.88961
83.3703	8.01948
86.5632	8.11688
90.1109	8.21429
93.3038	8.31169
96.4967	8.44156
100.044	8.53896
105.011	8.63636
107.849	8.7987
111.397	8.86364
114.59	8.99351
118.137	9.05844
121.33	9.18831
124.878	9.25325
131.619	9.41558
134.812	9.51299
138.359	9.57792
141.907	9.61039
145.1	9.67532
150.776	9.77273
