Adsorption isotherm of Carbon Dioxide on Activated Carbon Filtrasorb F400
DOI: 10.1021/la3048938
Adsorbate Carbon Dioxide: InChIKey CURLTUGMZLYLDI-UHFFFAOYSA-N
Temperature: 318 K
Tabular data in the source: 0
pressure (bar)	uptake (mmol/g)
0.0108377	0.349517
1.15121	1.12649
3.04059	2.05899
4.93479	3.14683
8.3282	4.58455
12.4526	5.59526
15.4474	6.17851
18.4386	6.64525
22.1728	7.07334
26.2803	7.54036
29.2643	7.77409
31.5029	7.96881
32.9937	8.04684
34.4869	8.20255
35.2323	8.24156
44.1722	8.55441
53.4891	9.02269
64.6604	9.29725
72.8513	9.45458
79.1818	9.61145
91.0936	9.76968
98.9113	9.88809
107.471	9.929
116.032	10.0476
125.336	10.0887
134.64	10.1298
143.572	10.2096
