Adsorption isotherm of Carbon Dioxide on Activated Carbon Filtrasorb F400
DOI: 10.1021/la3048938
Adsorbate Carbon Dioxide: InChIKey CURLTUGMZLYLDI-UHFFFAOYSA-N
Temperature: 318 K
Tabular data in the source: 0
pressure (bar)	uptake (mmol/g)
3.37583	1.11828
8.3701	1.78495
17.491	2.49462
25.7665	2.90323
33.6179	3.13978
43.939	3.31183
53.02	3.44086
61.7034	3.78495
69.1394	3.97849
76.5695	4.08602
84.4134	4.21505
92.247	4.19355
99.2573	4.19355
106.263	4.12903
114.094	4.06452
121.1	4
128.516	3.91398
135.518	3.78495
142.935	3.69892
150.35	3.5914
