Adsorption isotherm of Methane on Porous Carbon CS1000AF
DOI: 10.1021/la3048938
Adsorbate Methane: InChIKey VNWKTOKETHGBQD-UHFFFAOYSA-N
Temperature: 318 K
Tabular data in the source: 0
pressure (bar)	uptake (mmol/g)
2.51121	0.493937
3.58744	0.823106
5.73991	1.21829
7.89238	1.71215
10.0448	2.14022
20.0897	3.72124
31.5695	4.84202
53.8117	6.52422
77.4888	7.81198
101.883	8.60647
128.072	9.36844
149.955	9.70188
