Adsorption isotherm of Carbon Dioxide on Porous Carbon CS1000AF
DOI: 10.1021/la3048938
Adsorbate Carbon Dioxide: InChIKey CURLTUGMZLYLDI-UHFFFAOYSA-N
Temperature: 318 K
Tabular data in the source: 0
pressure (bar)	uptake (mmol/g)
1.79775	1.9
5.03371	3.4
8.26966	4.85
10.7865	6.1
16.1798	7.9
21.9326	9.45
28.4045	10.8
34.5169	11.65
49.618	12.85
67.9551	13.75
94.9213	14.15
153.528	14.75
