Adsorption isotherm of Carbon Dioxide on Porous Carbon CS1000AF
DOI: 10.1021/la3048938
Adsorbate Carbon Dioxide: InChIKey CURLTUGMZLYLDI-UHFFFAOYSA-N
Temperature: 318 K
Tabular data in the source: 0
pressure (bar)	uptake (mmol/g)
0.719101	0.55
3.23596	1.8
5.39326	2.9
8.26966	4.3
10.427	5.55
16.5393	7.6
22.2921	9.1
28.0449	10.15
35.236	11.2
49.618	12.55
67.9551	13.15
94.5618	13.95
153.528	14.6
