Adsorption isotherm of Nitrogen on Porous Carbon CS1000AF
DOI: 10.1021/la3048938
Adsorbate Nitrogen: InChIKey IJGRMHOSHXDMSA-UHFFFAOYSA-N
Temperature: 77 K
Tabular data in the source: 0
pressure (bar)	uptake (mmol/g)
0.00368	10.778
0.01104	14.834
0.02392	17.0569
0.046	17.836
0.07176	18.2819
0.09752	18.45
0.19504	18.8445
0.33856	19.186
0.39008	19.689
0.48944	19.1947
0.5888	19.6448
0.69184	19.7062
0.79304	19.7676
0.89792	19.8847
