Adsorption isotherm of Methane on Activated Carbon Filtrasorb F400
DOI: 10.1021/la3048938
Adsorbate Methane: InChIKey VNWKTOKETHGBQD-UHFFFAOYSA-N
Temperature: 318 K
Tabular data in the source: 0
pressure (bar)	uptake (mmol/g)
3.90244	0.475309
12.0621	1.05864
21.286	1.38272
29.4457	1.55556
36.8958	1.68519
46.8293	1.90123
56.0532	2.59259
66.3415	3.54321
73.7916	4.04012
80.5322	4.45062
87.9823	4.77469
95.0776	4.96914
101.463	5.09877
108.559	5.20679
115.299	5.31481
121.33	5.35802
128.426	5.37963
135.166	5.40123
141.907	5.37963
149.712	5.40123
