Adsorption isotherm of Nitrogen on Activated Carbon Filtrasorb F400
DOI: 10.1021/la3048938
Adsorbate Nitrogen: InChIKey IJGRMHOSHXDMSA-UHFFFAOYSA-N
Temperature: 77 K
Tabular data in the source: 0
pressure (bar)	uptake (mmol/g)
0.00184	9.16677
0.00736	10.1671
0.01288	10.8341
0.02944	11.3906
0.04048	11.8356
0.04784	12.1138
0.06072	12.3924
0.092	12.8386
0.1564	13.4534
0.2024	13.6782
0.25208	13.9033
0.276	13.9602
0.3036	14.0729
0.32384	14.0741
0.35512	14.187
0.3772	14.1882
0.4048	14.3009
0.45264	14.4148
0.50232	14.4732
0.55016	14.587
0.598	14.7564
0.644	14.8146
0.69368	14.9841
0.74152	15.098
0.78752	15.2117
0.83352	15.4921
0.88688	15.8285
0.92368	16.3306
0.94576	16.8319
0.96416	17.3885
0.966	17.6664
