Adsorption isotherm of Carbon Dioxide on Porous Carbon CS1000A
DOI: 10.1021/la3048938
Adsorbate Carbon Dioxide: InChIKey CURLTUGMZLYLDI-UHFFFAOYSA-N
Temperature: 318 K
Tabular data in the source: 0
pressure (bar)	uptake (mmol/g)
1.76211	0.430034
3.17181	1.24232
5.28634	2.00683
8.10573	2.72355
10.5727	3.67918
15.859	5.30375
21.8502	6.78498
28.1938	8.12287
34.8899	9.22184
49.6916	11.1331
67.6652	12.2321
95.1542	12.9966
114.537	13.1877
138.855	13.3788
153.656	13.57
