Adsorption isotherm of Methane on Activated Carbon Filtrasorb F400
DOI: 10.1021/la3048938
Adsorbate Methane: InChIKey VNWKTOKETHGBQD-UHFFFAOYSA-N
Temperature: 318 K
Tabular data in the source: 0
pressure (bar)	uptake (mmol/g)
0.373721	0.177778
2.61489	1.22222
7.77872	2.4
12.1997	3.31111
17.3288	3.82222
22.8201	4.28889
29.7611	4.6
36.7022	4.91111
49.1113	5.24444
58.2299	5.37778
67.7141	5.53333
81.205	5.64444
90.3213	5.73333
97.2496	5.8
111.467	5.86667
116.935	5.88889
122.768	5.91111
127.143	5.93333
133.34	5.95556
136.62	5.95556
141.722	5.95556
144.64	6
150.472	6
