Adsorption isotherm of Methane on Porous Carbon CS1000AF
DOI: 10.1021/la3048938
Adsorbate Methane: InChIKey VNWKTOKETHGBQD-UHFFFAOYSA-N
Temperature: 318 K
Tabular data in the source: 0
pressure (bar)	uptake (mmol/g)
1.79372	0.658264
2.86996	0.954537
4.30493	1.44825
7.53363	2.00813
10.4036	2.53503
20.4484	4.21473
30.852	5.43397
53.4529	7.18204
76.7713	8.23947
102.601	9.13294
128.43	9.69746
149.955	10.0966
