Adsorption isotherm of Methane on Activated Carbon Filtrasorb F400
DOI: 10.1021/la3048938
Adsorbate Methane: InChIKey VNWKTOKETHGBQD-UHFFFAOYSA-N
Temperature: 318 K
Tabular data in the source: 0
pressure (bar)	uptake (mmol/g)
3.90244	1.90123
12.0621	3.34877
20.5765	4.06173
28.3814	4.51543
36.1863	4.86111
46.4745	5.2284
55.6984	5.46605
63.8581	5.61728
71.663	5.74691
80.1774	5.83333
87.6275	5.94136
94.3681	6.00617
101.463	6.04938
107.849	6.07099
114.945	6.1142
122.749	6.15741
129.135	6.15741
135.521	6.20062
142.262	6.17901
149.357	6.15741
