Adsorption isotherm of Carbon Dioxide on Activated Carbon Filtrasorb F400
DOI: 10.1021/la3048938
Adsorbate Carbon Dioxide: InChIKey CURLTUGMZLYLDI-UHFFFAOYSA-N
Temperature: 318 K
Tabular data in the source: 0
pressure (bar)	uptake (mmol/g)
4.25526	1.91398
12.5973	3.29032
20.4752	3.91398
28.3368	4.30108
35.7773	4.55914
46.5166	4.8172
56.4209	4.92473
63.8481	4.98925
71.6831	4.98925
80.3429	4.98925
88.1765	4.96774
94.7729	4.94624
101.368	4.90323
108.375	4.86022
114.967	4.77419
122.799	4.73118
129.805	4.66667
136.399	4.60215
142.989	4.49462
149.581	4.4086
