Adsorption isotherm of Methane on Porous Carbon CS1000AF
DOI: 10.1021/la3048938
Adsorbate Methane: InChIKey VNWKTOKETHGBQD-UHFFFAOYSA-N
Temperature: 318 K
Tabular data in the source: 0
pressure (bar)	uptake (mmol/g)
2.15247	0.526758
6.09865	1.31704
7.53363	1.87655
10.7623	2.37063
20.4484	3.91868
30.852	5.23661
53.8117	6.88606
76.7713	8.07499
102.242	8.96839
128.072	9.5987
150.673	9.93229
