Adsorption isotherm of Carbon Dioxide on Activated Carbon Filtrasorb F400
DOI: 10.1021/la3048938
Adsorbate Carbon Dioxide: InChIKey CURLTUGMZLYLDI-UHFFFAOYSA-N
Temperature: 318 K
Tabular data in the source: 0
pressure (bar)	uptake (mmol/g)
3.74386	0.473118
12.0282	1.01075
21.1196	1.29032
28.9635	1.41935
37.2183	1.52688
46.7103	1.63441
56.6441	2.17204
66.9963	2.7957
74.0302	3.13978
81.0494	3.26882
88.4824	3.41935
95.9081	3.46237
102.092	3.44086
109.1	3.39785
115.692	3.31183
122.284	3.22581
128.462	3.11828
135.462	2.96774
141.228	2.86022
150.288	2.68817
