Adsorption isotherm of Carbon Dioxide on Porous Carbon CS1000AF
DOI: 10.1021/la3048938
Adsorbate Carbon Dioxide: InChIKey CURLTUGMZLYLDI-UHFFFAOYSA-N
Temperature: 318 K
Tabular data in the source: 0
pressure (bar)	uptake (mmol/g)
2.51685	0.8
3.59551	1.35
5.75281	2.4
7.91011	3.25
10.7865	4.35
16.5393	6.75
22.2921	8.5
28.4045	10
35.5955	11.15
49.9775	12.35
68.3146	13.15
153.888	13.9
