Adsorption isotherm of Carbon Dioxide on Porous Carbon CS1000AF
DOI: 10.1021/la3048938
Adsorbate Carbon Dioxide: InChIKey CURLTUGMZLYLDI-UHFFFAOYSA-N
Temperature: 318 K
Tabular data in the source: 0
pressure (bar)	uptake (mmol/g)
0.719101	1
2.8764	2.45
5.03371	3.8
7.91011	5.1
10.427	6.35
16.1798	8.3
21.9326	9.8
28.0449	11
34.8764	11.95
49.618	13.05
67.5955	14.05
94.9213	14.3
153.888	14.9
