Adsorption isotherm of Carbon Dioxide on Activated Carbon Filtrasorb F400
DOI: 10.1021/la3048938
Adsorbate Carbon Dioxide: InChIKey CURLTUGMZLYLDI-UHFFFAOYSA-N
Temperature: 318 K
Tabular data in the source: 0
pressure (bar)	uptake (mmol/g)
1.99115	2.21538
10.177	5.16923
18.1416	6.49846
26.5487	7.27385
34.292	7.82769
43.8053	8.27077
53.3186	8.64
61.9469	8.89846
69.6903	9.08308
77.2124	9.19385
83.8496	9.34154
