Adsorption isotherm of Water on Porous Carbon CS1000AF
DOI: 10.1021/la3048938
Adsorbate Water: InChIKey XLYOFNOQVPJJNP-UHFFFAOYSA-N
Temperature: 318 K
Tabular data in the source: 0
pressure (bar)	uptake (mmol/g)
0.00464827	0.152905
0.0130994	0.458716
0.0194384	0.611621
0.0257762	0.917431
0.0323272	0.993884
0.0388749	1.4526
0.045212	1.83486
0.0517611	2.14067
0.0580988	2.44648
0.0648592	2.75229
0.0709817	3.51682
0.0777415	3.89908
0.0840695	5.35168
0.087844	8.8685
0.0905669	11.7737
