Adsorption isotherm of Methane on Porous Carbon CS1000AF
DOI: 10.1021/la3048938
Adsorbate Methane: InChIKey VNWKTOKETHGBQD-UHFFFAOYSA-N
Temperature: 318 K
Tabular data in the source: 0
pressure (bar)	uptake (mmol/g)
1.79372	0.230632
2.86996	0.494011
5.02242	0.823401
7.53363	1.18576
10.0448	1.61391
20.4484	2.99763
31.5695	4.11833
53.4529	6.09652
77.13	7.51586
101.883	8.57358
128.072	9.20396
149.955	9.50451
