Adsorption isotherm of Methane on Activated Carbon Filtrasorb F400
DOI: 10.1021/la3048938
Adsorbate Methane: InChIKey VNWKTOKETHGBQD-UHFFFAOYSA-N
Temperature: 318 K
Tabular data in the source: 0
pressure (bar)	uptake (mmol/g)
3.54767	1.59877
12.0621	3.00309
21.9956	3.80247
29.8004	4.23457
37.9601	4.58025
48.2483	4.88272
57.8271	5.14198
65.9867	5.31481
73.082	5.44444
82.306	5.61728
90.1109	5.7037
98.2705	5.76852
105.721	5.87654
112.816	5.91975
120.621	5.96296
127.716	5.98457
134.812	6.00617
142.262	6.00617
149.712	6.02778
