Adsorption isotherm of Water on Porous Carbon CS1000A
DOI: 10.1021/la3048938
Adsorbate Water: InChIKey XLYOFNOQVPJJNP-UHFFFAOYSA-N
Temperature: 318 K
Tabular data in the source: 0
pressure (bar)	uptake (mmol/g)
0.00485896	0.229358
0.013102	0.152905
0.019443	0.0764526
0.0262053	0.152905
0.0325463	0.0764526
0.0388859	0.152905
0.0456489	0.152905
0.0517779	0.152905
0.0583289	0.229358
0.0648818	0.0764526
0.0712215	0.152905
0.0775618	0.152905
0.0839028	0.0764526
0.0906651	0.152905
