Adsorption isotherm of Carbon Dioxide on Porous Carbon CS1000AF
DOI: 10.1021/la3048938
Adsorbate Carbon Dioxide: InChIKey CURLTUGMZLYLDI-UHFFFAOYSA-N
Temperature: 318 K
Tabular data in the source: 0
pressure (bar)	uptake (mmol/g)
0.704846	0.527397
1.05727	0.958904
2.11454	1.77397
3.17181	2.39726
4.93392	3.78767
7.7533	5.13014
10.2203	6.32877
15.859	8.39041
21.4978	9.82877
27.8414	11.0753
34.8899	11.9384
49.3392	13.1849
67.3128	13.9521
82.8194	14.2397
94.4493	14.4315
110.661	14.5274
132.863	14.7192
153.656	14.863
