Adsorption isotherm of Methane on Activated Carbon Filtrasorb F400
DOI: 10.1021/la3048938
Adsorbate Methane: InChIKey VNWKTOKETHGBQD-UHFFFAOYSA-N
Temperature: 318 K
Tabular data in the source: 0
pressure (bar)	uptake (mmol/g)
3.54767	1.10185
8.51441	1.81481
17.3836	2.59259
25.898	3.0679
34.0576	3.37037
43.9911	3.67284
52.5055	3.88889
61.7295	4.3642
69.1796	4.68827
76.6297	4.94753
84.7894	5.14198
91.8847	5.29321
98.6253	5.37963
105.721	5.44444
114.235	5.50926
120.976	5.53086
127.716	5.57407
135.166	5.55247
142.262	5.55247
150.421	5.57407
