Adsorption isotherm of Carbon Dioxide on Activated Carbon Filtrasorb F400
DOI: 10.1021/la3048938
Adsorbate Carbon Dioxide: InChIKey CURLTUGMZLYLDI-UHFFFAOYSA-N
Temperature: 318 K
Tabular data in the source: 0
pressure (bar)	uptake (mmol/g)
0.442478	0.0738462
9.29204	3.91385
22.1239	5.53846
31.1947	6.83077
39.3805	7.64308
47.7876	8.23385
55.3097	8.56615
62.3894	8.78769
69.2478	8.97231
82.5221	9.15692
