Adsorption isotherm of Carbon Dioxide on Activated Carbon Filtrasorb F400
DOI: 10.1021/la3048938
Adsorbate Carbon Dioxide: InChIKey CURLTUGMZLYLDI-UHFFFAOYSA-N
Temperature: 318 K
Tabular data in the source: 0
pressure (bar)	uptake (mmol/g)
1.32743	1.36615
9.0708	4.57846
19.6903	6.16615
28.7611	6.94154
38.0531	7.49538
45.5752	8.04923
52.4336	8.38154
60.3982	8.71385
68.1416	8.93538
74.7788	9.08308
82.5221	9.15692
