Adsorption isotherm of Carbon Dioxide on SIOC-COF-5
DOI: 10.1039/c6cc06637b
Article source: Figure 3
Adsorbate Carbon Dioxide: InChIKey CURLTUGMZLYLDI-UHFFFAOYSA-N
Kind: experiment
Temperature: 273 K
Tabular data in the source: 0
pressure (bar)	uptake (cm3(STP)/g)
0.015556	3.65518
0.040935	8.21328
0.180939	34.3376
0.24371	43.7503
0.430672	64.7511
0.487384	69.9287
0.543102	74.4444
0.599317	78.6356
0.656526	82.6413
0.79781	91.3304
0.921544	97.7702
0.987846	101.154
0.857298	95.098
0.739012	87.9085
0.362453	58.1699
0.297341	50.3268
0.109604	23.2026
0.061856	12.7451
0.053174	11.1111
0.02713	6.20915
0.004341	0.980392
