Adsorption isotherm of Hydrogen on SIOC-COF-5
DOI: 10.1039/c6cc06637b
Article source: Figure 3
Adsorbate Hydrogen: InChIKey UFHFLCQGNIYNRP-UHFFFAOYSA-N
Kind: experiment
Temperature: 77 K
Tabular data in the source: 0
pressure (bar)	uptake (cm3(STP)/g)
0.010802	14.1461
0.05259	48.2487
0.102338	72.8179
0.150095	90.305
0.199843	103.053
0.249591	113.648
0.297348	122.12
0.351076	129.501
0.398834	136.12
0.450571	143.175
0.498329	148.541
0.550066	153.389
0.599814	158.02
0.649562	162.188
0.699309	165.892
0.750052	169.746
0.798805	173.056
0.850542	176.215
0.90029	179.675
0.950037	182.616
0.993815	184.986
