Adsorption isotherm of Hydrogen on SIOC-COF-6
DOI: 10.1039/c6cc06637b
Article source: Figure 3
Adsorbate Hydrogen: InChIKey UFHFLCQGNIYNRP-UHFFFAOYSA-N
Kind: experiment
Temperature: 77 K
Tabular data in the source: 0
pressure (bar)	uptake (cm3(STP)/g)
0.055575	28.7275
0.105323	48.5127
0.1491	62.8462
0.197853	76.5332
0.249591	89.3925
0.301328	100.915
0.391414	118.666
0.494889	136.505
0.546627	146.047
0.598364	154.298
0.650102	161.121
0.69533	166.679
0.747969	173.533
0.791568	178.497
0.840593	183.955
0.89233	189.833
0.944068	195.502
0.99481	199.883
0.009767	6.53595
0.351601	110.948
0.450353	129.085
