Adsorption isotherm of Nitrogen on SIOC-COF-6
DOI: 10.1039/c6cc06637b
Article source: Figure 2c
Adsorbate Nitrogen: InChIKey IJGRMHOSHXDMSA-UHFFFAOYSA-N
Kind: experiment
Temperature: 77 K
Tabular data in the source: 0
pressure (bar)	uptake (cm3(STP)/g)
0.000991	6.28291
0.001744	30.8531
0.003645	59.3547
0.006833	317.673
0.006651	294.617
0.006651	273.465
0.005783	254.513
0.005783	235.947
0.004476	217.651
0.004476	199.41
0.004476	181.169
0.004476	162.928
0.004476	144.687
0.004476	126.446
0.004476	108.205
0.004476	89.9638
0.004476	76.663
0.009098	346.973
0.011637	373.488
0.053272	491.892
0.095093	509.176
0.116004	514.449
0.136914	519.959
0.157825	522.401
0.198138	524.627
0.240451	530.79
0.26325	531.645
0.283289	535.255
0.302692	533.705
0.326679	536.916
0.344453	537.486
0.36844	537.998
0.387842	540.67
0.407882	538.928
0.43068	541.81
0.450574	546.086
0.47253	541.354
0.492396	543.663
0.512804	542.687
0.535233	544.47
0.554754	544.335
0.576038	546.561
0.617769	548.97
0.617859	545.202
0.657938	545.858
0.680591	548.698
0.701502	550.931
0.722936	547.853
0.762492	549.987
0.792786	551.353
0.81056	552.569
0.826966	553.116
0.847877	556.014
0.868787	555.301
0.889698	559.956
0.911654	557.779
0.928906	564.479
0.928906	555.206
0.952866	565.397
0.973341	567.899
0.993131	578.164
1.00732	593.113
0.225552	530.487
0.186514	525.189
0.957729	575.892
0.798975	553.946
0.443297	538.054
0.657571	550.919
0.759937	554.703
