Adsorption isotherm of Carbon Dioxide on SIOC-COF-6
DOI: 10.1039/c6cc06637b
Article source: Figure 3
Adsorbate Carbon Dioxide: InChIKey CURLTUGMZLYLDI-UHFFFAOYSA-N
Kind: experiment
Temperature: 273 K
Tabular data in the source: 0
pressure (bar)	uptake (cm3(STP)/g)
0.053585	2.79152
0.068509	3.30516
0.113282	7.29016
0.182929	12.7133
0.247601	17.4964
0.297348	21.4188
0.36401	26.4661
0.429677	31.32
0.495344	36.1439
0.545092	40.039
0.593844	43.6182
0.659511	48.2487
0.742092	53.9116
0.79184	57.4772
0.857507	61.9116
0.923174	66.4659
0.989836	70.7205
0.039067	1.63399
0.022789	0.980392
0.007054	0.163399
