Adsorption isotherm of Nitrogen on SIOC-COF-5
DOI: 10.1039/c6cc06637b
Article source: Figure 2a
Adsorbate Nitrogen: InChIKey IJGRMHOSHXDMSA-UHFFFAOYSA-N
Kind: experiment
Temperature: 77 K
Tabular data in the source: 0
pressure (bar)	uptake (cm3(STP)/g)
0.001509	158.812
0.000782	134.507
0.000921	117.488
0.000921	101.267
0.001547	88.25
0.002093	183.54
0.015538	200.396
0.000953	63.0325
0.001785	49.9133
0.002616	24.7411
0.002206	11.0331
0.043087	213.243
0.071193	219.7
0.096794	222.547
0.125734	225.69
0.154035	227.754
0.181835	228.633
0.207631	230.17
0.235931	230.616
0.264983	231.415
0.296039	232.347
0.323839	232.953
0.351137	234.588
0.37493	235.351
0.406236	234.677
0.433785	235.076
0.46205	236.122
0.488884	237.139
0.513928	237.517
0.548991	239.27
0.57654	238.937
0.605029	239.927
0.631639	240.667
0.659188	241.999
0.686737	242.598
0.714286	243.796
0.742587	245.327
0.76688	246.466
0.796934	248.988
0.829492	252.449
0.857793	256.164
0.884841	261.435
0.91214	268.158
0.939689	280.986
0.959224	290.996
0.972247	305.084
0.986439	328.993
0.001662	76.3062
0.001662	36.938
0.000831	147.266
0.001662	173.026
0.00665	193.925
0.142995	234.425
0.190786	235.941
0.230922	237.938
0.258472	238.116
0.293155	239.426
0.333646	239.93
0.353515	240.006
0.406236	241.4
0.433785	242.664
0.462336	243.179
0.513939	246.241
0.615466	248.066
0.571531	247.457
0.631537	248.402
0.687989	249.354
0.721243	250.534
0.746218	251.917
0.778151	255.212
0.806639	260.246
0.852076	272.487
0.888347	281.351
0.967489	350.301
1.00328	378.615
0.931791	309.599
0.531146	246.416
