Adsorption isotherm of Carbon Dioxide on MIL-53(Al)
DOI: 10.1039/B702986a
Adsorbate Carbon Dioxide: InChIKey CURLTUGMZLYLDI-UHFFFAOYSA-N
Temperature: 300 K
Tabular data in the source: 0
pressure (bar)	uptake (molecules/unitcell)
0.15233	0.967742
0.436081	1.39785
0.577957	1.6129
1.1365	1.82796
1.83169	1.88172
2.24985	1.98925
2.52838	2.04301
2.94654	2.15054
3.36246	2.09677
3.78062	2.2043
4.61395	2.2043
5.58692	2.25806
6.14247	2.25806
6.55989	2.31183
7.25433	2.31183
7.67174	2.36559
8.36619	2.36559
9.47805	2.41935
9.89546	2.47312
10.5907	2.52688
12.6732	2.47312
15.0366	2.63441
17.2611	2.7957
19.4855	2.95699
22.1251	3.01075
24.3481	3.06452
26.9892	3.22581
29.6289	3.27957
