Adsorption isotherm of Carbon Dioxide on MIL-53(Al)
DOI: 10.1039/B702986a
Adsorbate Carbon Dioxide: InChIKey CURLTUGMZLYLDI-UHFFFAOYSA-N
Temperature: 300 K
Tabular data in the source: 0
pressure (bar)	uptake (molecules/unitcell)
0.245902	1.36029
0.491803	1.83824
0.901639	1.98529
1.63934	2.31618
2.04918	2.31618
2.70492	2.57353
3.36066	2.57353
3.77049	2.64706
4.67213	2.72059
5.65574	2.79412
6.39344	3.01471
6.80328	3.30882
7.13115	3.82353
7.45902	4.41176
9.34426	6.76471
12.1311	7.35294
14.4262	7.68382
16.5574	7.94118
18.4426	8.08824
20.082	8.27206
21.5574	8.30882
22.8689	8.38235
24.7541	8.52941
26.3934	8.60294
27.623	8.67647
28.8525	8.78676
30.2459	8.86029
31.3934	8.89706
