Adsorption isotherm of Carbon Dioxide on MIL-53(Al)
DOI: 10.1039/B702986a
Adsorbate Carbon Dioxide: InChIKey CURLTUGMZLYLDI-UHFFFAOYSA-N
Temperature: 300 K
Tabular data in the source: 0
pressure (bar)	uptake (molecules/unitcell)
0.0819672	0.0819672
0.327869	1.58088
0.901639	1.83824
1.55738	1.91176
1.96721	1.94853
2.45902	2.05882
3.03279	2.05882
3.52459	2.16912
4.01639	2.16912
4.5082	2.20588
4.91803	2.20588
5.57377	2.31618
6.14754	2.24265
6.63934	6.10294
7.13115	6.28676
7.70492	6.50735
8.27869	6.80147
8.68852	6.875
9.34426	7.05882
9.83607	7.20588
10.4098	7.42647
12.623	7.94118
14.8361	8.30882
17.1311	8.49265
19.5082	8.67647
21.9672	8.97059
24.3443	9.19118
26.8852	9.33824
29.4262	9.44853
