Adsorption isotherm of Carbon Dioxide on MIL-53(Al)
DOI: 10.1039/B702986a
Adsorbate Carbon Dioxide: InChIKey CURLTUGMZLYLDI-UHFFFAOYSA-N
Temperature: 300 K
Tabular data in the source: 0
pressure (bar)	uptake (molecules/unitcell)
0.285245	0.537634
0.56601	0.752688
0.989397	1.23656
1.55391	1.88172
1.9773	2.36559
2.6807	3.01075
2.96744	3.65591
3.52823	4.03226
4.22864	4.46237
4.5124	4.89247
5.21057	5.16129
5.76986	5.43011
6.33065	5.80645
6.7503	6.02151
7.30884	6.23656
7.72924	6.50538
8.28928	6.82796
8.98447	6.88172
9.68265	7.15054
9.82228	7.2043
10.6593	7.47312
12.7487	7.90323
14.9761	8.27957
17.3402	8.49462
19.705	8.76344
21.9303	8.97849
24.4332	9.19355
26.9355	9.35484
29.5751	9.4086
