Adsorption isotherm of Methane on FIR-2-ht
DOI: 10.1021/Cg3001009
Adsorbate Methane: InChIKey VNWKTOKETHGBQD-UHFFFAOYSA-N
Temperature: 273 K
Tabular data in the source: 0
pressure (bar)	uptake (cm3(STP)/g)
0.0746326	1.28276
0.161957	2.26867
0.215478	3.25459
0.26759	3.94473
0.374633	5.71938
0.47745	7.09966
0.599985	8.67712
0.726745	10.649
0.85914	12.9166
0.925337	14.0011
1.00139	15.3813
