Adsorption isotherm of Argon on FIR-2-ht
DOI: 10.1021/Cg3001009
Adsorbate Argon: InChIKey XKRFYHLGVUSROY-UHFFFAOYSA-N
Temperature: 77 K
Tabular data in the source: 0
pressure (bar)	uptake (cm3(STP)/g)
0.000865	123.351
0.000865	179.984
0.00229475	58.7081
0.00229475	226.893
0.00372489	13.5155
0.00658518	277.806
0.0466292	316.134
0.0881033	327.003
0.161041	339.016
0.264011	349.313
0.35125	356.75
0.44993	361.898
0.548609	367.047
0.644429	371.051
0.85037	374.484
0.95191	375.628
