Adsorption isotherm of Nitrogen on FIR-2-ht
DOI: 10.1021/Cg3001009
Adsorbate Nitrogen: InChIKey IJGRMHOSHXDMSA-UHFFFAOYSA-N
Temperature: 298 K
Tabular data in the source: 0
pressure (bar)	uptake (cm3(STP)/g)
0.0492805	0.00106716
0.15914	0.00106716
0.24083	0.00106716
0.316886	0.00106716
0.42252	0.00106716
0.54083	0.00106716
0.670407	0.00106716
0.792943	0.00106716
0.861957	0.00106716
0.925337	0.00106716
1.00139	0.00106716
