Adsorption isotherm of Nitrogen on FIR-2-ht
DOI: 10.1021/Cg3001009
Adsorbate Nitrogen: InChIKey IJGRMHOSHXDMSA-UHFFFAOYSA-N
Temperature: 273 K
Tabular data in the source: 0
pressure (bar)	uptake (cm3(STP)/g)
0.133788	0.19825
0.214069	0.691208
0.268999	0.7898
0.374633	1.18417
0.474633	1.18417
0.597168	1.47994
0.661957	1.67712
0.729562	1.77571
0.792943	1.77571
0.860548	1.9729
0.925337	1.87431
1.0028	1.87431
