Adsorption isotherm of Nitrogen on FIR-2-ht
DOI: 10.1021/Cg3001009
Adsorbate Nitrogen: InChIKey IJGRMHOSHXDMSA-UHFFFAOYSA-N
Temperature: 77 K
Tabular data in the source: 0
pressure (bar)	uptake (cm3(STP)/g)
0.00229475	217.168
0.00372489	8.93909
0.00372489	105.617
0.00801532	288.103
0.035188	310.985
0.0809526	324.715
0.142449	332.723
0.201085	333.296
0.298334	338.444
0.404165	341.304
0.499985	342.448
0.598664	344.165
0.748829	346.453
0.860381	346.453
0.943329	347.025
0.977652	347.597
