Adsorption isotherm of Hydrogen on FIR-2-ht
DOI: 10.1021/Cg3001009
Adsorbate Hydrogen: InChIKey UFHFLCQGNIYNRP-UHFFFAOYSA-N
Temperature: 87 K
Tabular data in the source: 0
pressure (bar)	uptake (cm3(STP)/g)
0.00702701	3.38272
0.0281538	9.24188
0.0563228	16.0024
0.0816749	21.4109
0.130971	30.8757
0.214069	42.594
0.333788	55.4391
0.464773	67.1574
0.594351	77.5236
0.726745	86.5377
0.790126	90.8193
0.881675	95.101
0.925337	97.3546
1.01548	102.087
