Adsorption isotherm of Carbon Dioxide on FIR-2-ht
DOI: 10.1021/Cg3001009
Adsorbate Carbon Dioxide: InChIKey CURLTUGMZLYLDI-UHFFFAOYSA-N
Temperature: 273 K
Tabular data in the source: 0
pressure (bar)	uptake (cm3(STP)/g)
0.0140693	1.18417
0.0450552	3.64895
0.112661	9.76163
0.164773	14.987
0.212661	19.2264
0.264773	23.3673
0.373224	30.1701
0.473224	36.7757
0.526745	39.8321
0.598576	44.2687
0.65914	49.1982
0.729562	54.2264
0.795759	58.8602
0.857731	62.7053
0.925337	66.0574
