Adsorption isotherm of Methane on FIR-2-ht
DOI: 10.1021/Cg3001009
Adsorbate Methane: InChIKey VNWKTOKETHGBQD-UHFFFAOYSA-N
Temperature: 298 K
Tabular data in the source: 0
pressure (bar)	uptake (cm3(STP)/g)
0.0112524	0.00106716
0.109844	0.986983
0.190126	1.87431
0.268999	2.95881
0.373224	4.14191
0.478858	5.32501
0.597168	6.70529
0.729562	7.98698
0.85914	9.36726
1.00139	10.8461
