Adsorption isotherm of Carbon Dioxide on FIR-2-ht
DOI: 10.1021/Cg3001009
Adsorbate Carbon Dioxide: InChIKey CURLTUGMZLYLDI-UHFFFAOYSA-N
Temperature: 298 K
Tabular data in the source: 0
pressure (bar)	uptake (cm3(STP)/g)
0.0267453	0.592616
0.111252	3.55036
0.160548	5.4236
0.214069	7.39543
0.26759	9.17008
0.371816	12.6208
0.478858	16.5644
0.592942	20.8039
0.729562	25.5363
0.792943	27.7053
0.856323	30.1701
0.923928	32.1419
