Adsorption isotherm of Hydrogen on FIR-2-ht
DOI: 10.1021/Cg3001009
Adsorbate Hydrogen: InChIKey UFHFLCQGNIYNRP-UHFFFAOYSA-N
Temperature: 77 K
Tabular data in the source: 0
pressure (bar)	uptake (cm3(STP)/g)
0.00421011	1.80526
0.0154777	14.1996
0.0323791	27.27
0.0535059	36.2841
0.0943509	50.0306
0.132379	60.8475
0.187309	72.5658
0.264773	86.5377
0.397168	104.791
0.529562	119.89
0.657731	131.833
0.809844	142.876
0.883083	148.735
0.92252	151.214
1.00139	156.622
