Adsorption isotherm of Ethane on FJI-C1
DOI: 10.1002/cssc.201402206
Adsorbate Ethane: InChIKey OTMSDBZUPAUEDD-UHFFFAOYSA-N
Temperature: 273 K
Tabular data in the source: 0
pressure (bar)	uptake (cm3(STP)/g)
0.0397022	9.49903
0.0543226	12.8546
0.066825	15.1053
0.081394	17.3661
0.108465	21.8775
0.135588	27.4837
0.160567	31.4376
0.202285	39.852
0.243873	45.5295
0.281303	50.6393
0.322918	56.8641
0.364533	63.089
0.404055	68.7563
0.470623	78.3876
0.537088	85.8294
0.603553	93.2712
0.672085	100.723
0.738499	107.07
0.806953	112.88
0.875408	118.69
0.941719	122.847
1.01847	129.245
