Adsorption isotherm of Methanol on FJI-C1
DOI: 10.1002/cssc.201402206
Adsorbate Methanol: InChIKey OKKJLVBELUTLKV-UHFFFAOYSA-N
Temperature: 298 K
Tabular data in the source: 0
pressure (bar)	uptake (wt%)
0.000944196	0.0624213
0.00442089	3.58144
0.0154867	7.95669
0.0260858	10.7845
0.0358761	11.7666
0.0459671	12.6307
0.0560406	13.3163
0.0654825	13.9405
0.0758687	14.6272
0.0856175	15.1929
0.0963224	15.94
0.106065	16.4462
0.116445	17.0734
0.126861	18.0574
0.136905	18.4457
0.147273	18.9539
0.15298	19.7447
