Adsorption isotherm of Toluene on FJI-C1
DOI: 10.1002/cssc.201402206
Adsorbate Toluene: InChIKey YXFVVABEGXRONW-UHFFFAOYSA-N
Temperature: 298 K
Tabular data in the source: 0
pressure (bar)	uptake (wt%)
0.0046965	0.422601
0.00764091	0.701718
0.010724	0.92332
0.0135258	1.08152
0.0164675	1.24168
0.0194806	1.4623
0.0224223	1.62246
0.0253641	1.78262
0.0283758	1.94377
0.0313163	2.0444
