Adsorption isotherm of Ethanol on FJI-C1
DOI: 10.1002/cssc.201402206
Adsorbate Ethanol: InChIKey LFQSCWFLJHTTHZ-UHFFFAOYSA-N
Temperature: 298 K
Tabular data in the source: 0
pressure (bar)	uptake (wt%)
0.00470839	0.626175
0.00999082	1.01836
0.0151325	1.52852
0.0202741	2.03869
0.0252668	2.48839
0.0305519	2.94005
0.0354011	3.44825
0.040689	3.9594
0.0458252	4.3506
0.050815	4.74083
0.0559512	5.13203
0.0610873	5.52324
0.0659309	5.91248
0.0715031	6.24715
