Adsorption isotherm of Acetylene on FJI-C1
DOI: 10.1002/cssc.201402206
Adsorbate Acetylene: InChIKey HSFWRNGVRCDJHI-UHFFFAOYSA-N
Temperature: 298 K
Tabular data in the source: 0
pressure (bar)	uptake (cm3(STP)/g)
0.0243419	9.55717
0.0482817	13.4071
0.0722215	17.2569
0.0882172	20.3308
0.108104	22.6513
0.129964	24.9755
0.147852	26.9117
0.171658	28.8591
0.189546	30.7953
0.211406	33.1195
0.235212	35.067
0.255072	37.0069
0.274933	38.9469
0.292794	40.5026
0.3166	42.4501
0.33646	44.39
0.360293	46.7179
0.382072	47.9007
0.401933	49.8406
0.419794	51.3963
0.441627	53.3401
0.46346	55.2838
0.483267	56.4627
0.503101	58.0222
0.524907	59.5854
0.544795	61.9059
0.570546	63.4766
0.586408	64.6481
0.608241	66.5918
0.628048	67.7707
0.649854	69.334
0.665743	70.8859
0.687522	72.0687
0.709356	74.0124
0.729163	75.1913
0.748996	76.7508
0.774802	79.0825
0.794582	79.881
0.814469	82.2014
0.838248	83.7684
0.856082	84.9436
0.875862	85.7421
0.899668	87.6896
0.919475	88.8686
0.945227	90.4393
0.959116	91.607
0.980895	92.7897
0.998756	94.3455
1.02254	95.9124
