Adsorption isotherm of Ethane on FJI-C1
DOI: 10.1002/cssc.201402206
Adsorbate Ethane: InChIKey OTMSDBZUPAUEDD-UHFFFAOYSA-N
Temperature: 298 K
Tabular data in the source: 0
pressure (bar)	uptake (cm3(STP)/g)
0.0398819	6.16282
0.0498523	7.70352
0.0637145	8.49076
0.0776034	9.65848
0.107461	13.5196
0.13532	16.9965
0.161125	19.3282
0.200899	23.9691
0.242566	27.4723
0.284287	31.7364
0.322062	35.9931
0.365702	39.5
0.401451	42.9919
0.470869	48.45
0.540313	54.2886
0.603813	59.7355
0.675204	65.1974
0.738677	70.2638
0.806069	74.9572
0.875434	79.6544
0.940826	83.9635
1.02205	89.0637
