Adsorption isotherm of N-propane on FJI-C1
DOI: 10.1002/cssc.201402206
Adsorbate N-propane: InChIKey ATUOYWHBWRKTHZ-UHFFFAOYSA-N
Temperature: 273 K
Tabular data in the source: 0
pressure (bar)	uptake (cm3(STP)/g)
0.00446734	7.13643
0.00684238	13.7153
0.0111298	17.02
0.0155971	24.1564
0.0202187	34.5772
0.0269583	46.1029
0.042067	59.8589
0.0527598	67.5733
0.069781	78.0551
0.0845813	85.2425
0.107879	97.397
0.137249	106.845
0.162459	115.726
0.208361	125.255
0.245765	129.817
0.287303	134.4
0.326774	138.973
0.366167	141.903
0.407628	144.844
0.471924	150.086
0.542342	153.716
0.610642	156.241
0.670651	158.179
0.738951	160.704
0.8072	162.135
0.875449	163.566
0.939591	165.523
1.02228	166.478
