Adsorption isotherm of Nitrogen on FJI-C1
DOI: 10.1002/cssc.201402206
Adsorbate Nitrogen: InChIKey IJGRMHOSHXDMSA-UHFFFAOYSA-N
Temperature: 77 K
Tabular data in the source: 0
pressure (bar)	uptake (cm3(STP)/g)
0.00197291	12.1409
0.00285832	40.0285
0.00412868	80.0412
0.00582249	133.391
0.00863269	221.904
0.0088348	178.27
0.0111735	301.93
0.0115295	263.145
0.0161971	360.162
0.0170152	335.927
0.0170825	388.049
0.0247433	429.338
0.0317495	450.014
0.0353873	464.596
0.0407671	484.043
0.0572626	503.602
0.0990115	518.564
0.139057	529.873
0.158228	533.701
0.178948	536.332
0.194867	537.703
0.363536	550.295
0.816333	562.087
0.867187	563.807
0.902045	561.731
0.914748	561.858
0.954524	564.679
