Adsorption isotherm of Ethene on FJI-C1
DOI: 10.1002/cssc.201402206
Adsorbate Ethene: InChIKey VGGSQFUCUMXWEO-UHFFFAOYSA-N
Temperature: 273 K
Tabular data in the source: 0
pressure (bar)	uptake (cm3(STP)/g)
0.0271228	5.60623
0.0416403	6.77226
0.0561836	8.48568
0.0727677	9.66189
0.0811112	11.3448
0.10609	15.2987
0.133085	18.1679
0.162145	21.0474
0.201668	26.7147
0.241113	30.7398
0.280532	34.2175
0.32207	38.8002
0.363556	42.2882
0.403001	46.3133
0.471482	52.6705
0.535726	56.8178
0.60418	62.6276
0.674676	67.9001
0.734813	72.5745
0.805257	76.7523
0.873686	82.0147
0.935864	86.1518
1.01667	90.9279
