Adsorption isotherm of Methane on FJI-C1
DOI: 10.1002/cssc.201402206
Adsorbate Methane: InChIKey VNWKTOKETHGBQD-UHFFFAOYSA-N
Temperature: 298 K
Tabular data in the source: 0
pressure (bar)	uptake (cm3(STP)/g)
0.0177539	0.0337709
0.0473972	0.851027
0.0670969	0.508065
0.0967135	0.944835
0.120439	1.75083
0.148083	2.18385
0.173727	2.23263
0.197426	2.65815
0.22507	3.09117
0.254686	3.52794
0.282303	3.58047
0.306002	4.00598
0.331673	4.43525
0.361263	4.49153
0.392879	5.31254
0.416524	4.97708
0.442222	5.78684
0.469866	6.21985
0.493511	5.8844
0.521155	6.31741
0.548799	6.75043
0.578416	7.1872
0.602061	6.85175
0.629731	7.66525
0.653403	7.71028
0.679074	8.13954
0.706745	8.95305
0.734309	8.24461
0.765925	9.06562
0.789623	9.49113
0.813295	9.53616
0.840939	9.96918
0.866583	10.018
0.890255	10.063
0.915926	10.4923
0.951434	10.5598
0.977079	10.6086
1.00472	11.0416
1.03039	11.4709
1.05604	11.5196
1.08166	11.1879
