Adsorption isotherm of Methane on FJI-C1
DOI: 10.1002/cssc.201402206
Adsorbate Methane: InChIKey VNWKTOKETHGBQD-UHFFFAOYSA-N
Temperature: 273 K
Tabular data in the source: 0
pressure (bar)	uptake (cm3(STP)/g)
0.0144919	0.618641
0.0455165	1.31871
0.0683004	2.52546
0.0931252	3.19499
0.119991	3.32732
0.14479	3.44946
0.173748	4.13936
0.198522	3.71411
0.227505	4.95139
0.252304	5.07354
0.279221	6.30064
0.310272	7.5481
0.333004	7.66007
0.361937	7.80257
0.386761	8.47211
0.415694	8.61461
0.442611	9.84172
0.465369	10.5011
0.492235	10.6334
0.519101	10.7657
0.545966	10.898
0.574976	12.6827
0.601841	12.815
0.626666	13.4846
0.657691	14.1846
0.678331	13.739
0.703156	14.4086
0.736221	14.5714
0.761046	15.241
0.790004	15.9309
0.816896	16.6106
0.843787	17.2903
0.868561	16.865
0.897519	17.5549
0.92441	18.2347
0.949209	18.3568
0.976075	18.4891
1.0009	19.1587
1.02779	19.8384
1.05884	21.0858
1.08361	20.6606
