Adsorption isotherm of Acetylene on FJI-C1
DOI: 10.1002/cssc.201402206
Adsorbate Acetylene: InChIKey HSFWRNGVRCDJHI-UHFFFAOYSA-N
Temperature: 273 K
Tabular data in the source: 0
pressure (bar)	uptake (cm3(STP)/g)
0.0233494	13.2493
0.048457	19.9402
0.067262	24.4109
0.0839232	27.2293
0.102703	31.1526
0.127707	35.6539
0.150645	40.145
0.169373	42.9735
0.188127	46.3495
0.210988	49.1984
0.231782	52.0371
0.254643	54.8861
0.273423	58.8094
0.292125	61.0906
0.315012	64.4869
0.337873	67.3358
0.356601	70.1644
0.381554	73.5708
0.398215	76.3892
0.423143	79.2483
0.439753	80.9719
0.45848	83.8005
0.479275	86.6392
0.50211	88.9407
0.527064	92.3472
0.541607	94.0607
0.56656	97.4671
0.585262	99.7483
0.606031	102.04
0.630959	104.899
0.64961	106.085
0.668337	108.914
0.689106	111.205
0.707808	113.486
0.728577	115.778
0.751412	118.079
0.774222	119.833
0.792924	122.114
0.811601	123.848
0.836451	125.065
0.855179	127.894
0.875896	129.09
0.892506	130.814
0.919501	133.683
0.938177	135.417
0.956828	136.603
0.979637	138.357
1.00038	140.101
1.01696	141.278
