Adsorption isotherm of Ethene on FJI-C1
DOI: 10.1002/cssc.201402206
Adsorbate Ethene: InChIKey VGGSQFUCUMXWEO-UHFFFAOYSA-N
Temperature: 298 K
Tabular data in the source: 0
pressure (bar)	uptake (cm3(STP)/g)
0.0258589	3.09267
0.0357489	3.49191
0.0436663	3.88741
0.0575553	5.05513
0.0714443	6.22286
0.0813879	7.38307
0.10722	10.0953
0.134998	12.4307
0.160803	14.7624
0.204443	18.2693
0.242111	21.004
0.285723	24.1305
0.323365	26.4847
0.365005	29.6073
0.404619	31.9653
0.470038	36.655
0.537349	40.2069
0.606687	44.5236
0.671999	47.6913
0.741336	52.008
0.806702	55.9367
0.873959	58.7276
0.943243	62.2833
1.02044	66.2345
