Adsorption isotherm of Cyclohexane on FJI-C1
DOI: 10.1002/cssc.201402206
Adsorbate Cyclohexane: InChIKey XDTMQSROBMDMFD-UHFFFAOYSA-N
Temperature: 298 K
Tabular data in the source: 0
pressure (bar)	uptake (wt%)
0.00432898	0.136615
0.00936887	0.157218
0.0146396	0.0598459
0.0196841	0.139927
0.0242439	0.158567
0.0292839	0.17917
0.0343193	0.140295
0.0396081	0.280834
0.0446436	0.241959
0.0492079	0.320078
0.0544924	0.401139
0.0595277	0.362264
0.0645721	0.442345
0.0700829	0.345954
0.0746474	0.424072
0.0794518	0.503172
0.0844962	0.583253
0.089527	0.484899
0.0950514	0.566942
0.0996068	0.526105
0.104656	0.665663
0.109926	0.568291
0.113776	0.702944
0.118575	0.722566
