Adsorption isotherm of N-propane on FJI-C1
DOI: 10.1002/cssc.201402206
Adsorbate N-propane: InChIKey ATUOYWHBWRKTHZ-UHFFFAOYSA-N
Temperature: 298 K
Tabular data in the source: 0
pressure (bar)	uptake (cm3(STP)/g)
0.00218707	3.04764
0.0102921	6.10653
0.0143982	8.39695
0.014559	10.6799
0.0208254	15.6374
0.0290376	20.2183
0.0352236	24.0344
0.0414632	28.6115
0.0538619	36.6242
0.0724199	48.0725
0.082578	52.2766
0.110812	61.0803
0.137019	69.1193
0.167118	76.4048
0.207187	85.2311
0.251175	93.6843
0.289084	99.8434
0.32894	105.626
0.368768	111.028
0.410515	115.672
0.47996	121.511
0.545379	126.2
0.61269	129.752
0.679948	132.543
0.743207	134.566
0.812411	136.98
0.879615	139.01
0.942874	141.033
1.02591	143.854
