Adsorption isotherm of Benzene on FJI-C1
DOI: 10.1002/cssc.201402206
Adsorbate Benzene: InChIKey UHOVQNZJYSORNB-UHFFFAOYSA-N
Temperature: 298 K
Tabular data in the source: 0
pressure (bar)	uptake (wt%)
0.00516869	3.47033
0.00993974	4.73899
0.0151565	5.71222
0.0198877	6.44558
0.0253162	7.1224
0.030502	7.67929
0.0354538	8.23519
0.0401673	8.73064
0.0451103	9.16759
0.0502873	9.60552
0.0554598	9.98397
0.0601689	10.4199
0.0655752	10.7994
0.0705138	11.1768
0.0752141	11.4939
0.0801571	11.9308
0.0857929	12.2517
0.0902637	12.6272
0.0956568	12.8282
0.100595	13.2057
0.105534	13.5832
0.110698	13.8427
