Adsorption isotherm of Nitrogen on C24H8ClCo4N32O4
DOI: 10.1039/C2jm15592c
Adsorbate Nitrogen: InChIKey IJGRMHOSHXDMSA-UHFFFAOYSA-N
Temperature: 77 K
Tabular data in the source: 0
pressure (bar)	uptake (cm3(STP)/g)
0.00227522	235.465
0.00455044	309.593
0.00910089	345.93
0.0113761	389.535
0.0182018	401.163
0.0568806	414.244
0.0910089	421.512
0.120587	422.965
0.582457	437.5
0.591558	438.953
0.627961	440.407
0.655264	440.407
0.664365	440.407
0.81453	447.674
0.841832	449.128
0.885062	459.302
0.903263	465.116
0.939667	484.012
0.955593	497.093
0.96697	510.174
