Adsorption isotherm of Carbon Dioxide on C24H8Cd4ClN32O4
DOI: 10.1039/C2jm15592c
Adsorbate Carbon Dioxide: InChIKey CURLTUGMZLYLDI-UHFFFAOYSA-N
Temperature: 298 K
Tabular data in the source: 0
pressure (bar)	uptake (wt%)
0.0201571	0.421145
0.0268618	0.651024
0.0448025	0.880473
0.0582488	1.11009
0.08069	1.30101
0.103119	1.56865
0.130049	1.79775
0.156984	1.9885
0.199613	2.40878
0.249003	2.71374
0.300633	3.05696
0.354523	3.32339
0.399418	3.62852
0.453301	3.9333
0.498215	4.12336
0.547616	4.3516
0.599265	4.57975
0.650908	4.84627
0.700309	5.07451
0.749711	5.30275
0.803619	5.45411
0.848526	5.68252
0.902428	5.87224
0.951836	6.06212
0.981037	6.13771
1.00125	6.21365
