Adsorption isotherm of Nitrogen on C24H8Cd4ClN32O4
DOI: 10.1039/C2jm15592c
Adsorbate Nitrogen: InChIKey IJGRMHOSHXDMSA-UHFFFAOYSA-N
Temperature: 77 K
Tabular data in the source: 0
pressure (bar)	uptake (cm3(STP)/g)
0.00227522	0.00227522
0.00682567	236.919
0.0182018	329.942
0.081908	354.651
0.113761	359.012
0.163816	363.372
0.213871	367.733
0.263926	370.64
0.318531	372.093
0.36176	373.547
0.40954	373.547
0.459595	376.453
0.50965	377.907
0.559705	379.36
0.607484	380.814
0.655264	383.721
0.700769	385.174
0.750823	388.081
0.800878	388.081
0.846383	392.442
0.887337	396.802
0.939667	399.709
0.964694	408.43
0.97607	414.244
