Adsorption isotherm of Hydrogen on C24H8ClCo4N32O4
DOI: 10.1039/C2jm15592c
Adsorbate Hydrogen: InChIKey UFHFLCQGNIYNRP-UHFFFAOYSA-N
Temperature: 77 K
Tabular data in the source: 0
pressure (bar)	uptake (wt%)
0.00229358	0.292693
0.00917431	0.393598
0.0137615	0.444046
0.0206422	0.486721
0.0321101	0.53326
0.0481651	0.603074
0.0688073	0.67287
0.0848624	0.715509
0.107798	0.77365
0.146789	0.851138
0.155963	0.874395
0.201835	0.94021
0.252294	1.00213
0.300459	1.05629
0.357798	1.11429
0.401376	1.14906
0.454128	1.19544
0.504587	1.2263
0.559633	1.26491
0.605505	1.28802
0.655963	1.31888
0.704128	1.34975
0.756881	1.37284
0.802752	1.39207
0.855505	1.41904
0.90367	1.44214
0.954128	1.46136
1.00229	1.4767
