Adsorption isotherm of Hydrogen on C24H8Cd4ClN32O4
DOI: 10.1039/C2jm15592c
Adsorbate Hydrogen: InChIKey UFHFLCQGNIYNRP-UHFFFAOYSA-N
Temperature: 77 K
Tabular data in the source: 0
pressure (bar)	uptake (wt%)
0.0114679	0.261601
0.0206422	0.34697
0.0481651	0.467204
0.0642202	0.533136
0.0848624	0.583521
0.110092	0.645535
0.15367	0.734652
0.201835	0.815987
0.254587	0.885658
0.305046	0.93981
0.357798	0.990071
0.408257	1.03646
0.456422	1.07121
0.504587	1.10596
0.555046	1.1407
0.610092	1.17154
0.65367	1.20243
0.708716	1.22939
0.754587	1.25639
0.807339	1.28336
0.853211	1.30647
0.90367	1.32957
0.954128	1.35266
1.00459	1.36799
