Adsorption isotherm of Carbon Dioxide on C24H8ClCo4N32O4
DOI: 10.1039/C2jm15592c
Adsorbate Carbon Dioxide: InChIKey CURLTUGMZLYLDI-UHFFFAOYSA-N
Temperature: 298 K
Tabular data in the source: 0
pressure (bar)	uptake (wt%)
0.0155888	0.881594
0.026714	1.57158
0.040068	2.37655
0.0623861	3.33459
0.0847289	4.13922
0.0981382	4.59898
0.127241	5.28827
0.151862	5.90102
0.201153	6.81968
0.254956	7.6231
0.299802	8.23508
0.353618	8.96178
0.402976	9.45852
0.4501	9.87863
0.497217	10.3371
0.551082	10.7569
0.598212	11.1387
0.647589	11.5204
0.699219	11.8636
0.748609	12.1685
0.797998	12.4735
0.847381	12.8168
0.901271	13.0832
0.950666	13.3498
1.00006	13.6548
