Adsorption isotherm of Nitrogen on N-K2Ti4O9
DOI: 10.1016/j.mssp.2015.03.025
Article source: Figure 3
Adsorbate Nitrogen: InChIKey IJGRMHOSHXDMSA-UHFFFAOYSA-N
Kind: experiment
Temperature: 77 K
Tabular data in the source: 0
pressure (bar)	uptake (cm3(STP)/g)
0.004225	1.0892
0.011369	1.1914
0.035443	1.3195
0.047065	1.7929
0.0719	1.3771
0.081445	1.8418
0.095479	1.4045
0.108428	1.8433
0.118571	1.4405
0.141814	1.8156
0.144216	1.8578
0.182334	1.8477
0.183084	1.8335
0.223938	1.5068
0.233159	1.832
0.273355	1.5126
0.283315	1.7946
0.323338	1.5357
0.333633	1.7731
0.373666	1.5444
0.384954	1.7372
0.423903	1.5502
0.435444	1.7057
0.474718	1.5805
0.487343	1.7216
0.525289	1.6195
0.53758	1.7475
0.575779	1.6598
0.58807	1.7476
0.626097	1.7117
0.6393	1.7851
0.67675	1.801
0.690206	1.86
0.727412	1.9363
0.740696	1.9953
0.776899	2.1364
0.790842	2.2371
0.816588	2.4012
0.827633	2.4746
0.842406	2.6314
0.847888	2.6688
0.859925	2.7911
0.867403	2.9192
0.884091	3.1308
0.893636	3.3077
0.909493	3.5811
0.920284	3.9337
0.934652	4.1567
0.948513	5.0733
0.958808	5.256
0.975557	7.5812
0.982194	7.528
0.991151	9.0877
0.991384	9.241
1.00092	11.8503
1.00728	14.6892
