Adsorption isotherm of Nitrogen on N-K2Ti4O9/MIL-101
DOI: 10.1016/j.mssp.2015.03.025
Article source: Figure 3
Adsorbate Nitrogen: InChIKey IJGRMHOSHXDMSA-UHFFFAOYSA-N
Kind: experiment
Temperature: 77 K
Tabular data in the source: 0
pressure (bar)	uptake (cm3(STP)/g)
0.004023	16.217
0.008856	18.708
0.030458	23.286
0.047825	25.797
0.06577	26.904
0.079976	28.051
0.087879	29.168
0.10167	29.8
0.119614	31.629
0.129585	33.349
0.140051	33.527
0.166325	35.129
0.166436	35.133
0.178261	35.527
0.188414	35.589
0.203754	36.583
0.209682	36.3
0.252958	39.615
0.257609	39.199
0.304542	40.444
0.318829	40.206
0.357039	41.144
0.372744	40.986
0.401571	41.717
0.408127	41.43
0.457888	42.582
0.459803	42.605
0.508145	43.808
0.508398	43.82
0.559314	44.54
0.55981	43.621
0.609328	44.519
0.61099	44.638
0.659079	45.16
0.66224	46.564
0.705019	46.078
0.713247	47.888
0.758934	47.422
0.764011	49.518
0.807206	49.339
0.813184	50.358
0.828139	50.287
0.840602	53.57
0.85647	51.849
0.865366	55.606
0.881142	53.667
0.883473	57.474
0.911388	56.969
0.914722	61.577
0.928927	64.148
0.931086	60.113
0.955596	66.184
0.963925	75.024
0.984626	79.601
0.990452	85.01
0.992722	94.948
0.995721	97.825
0.997119	94.453
0.999216	100.515
1.00612	102.769
