Adsorption isotherm of Nitrogen on MIL-101
DOI: 10.1016/j.mssp.2015.03.025
Article source: Figure 3
Adsorbate Nitrogen: InChIKey IJGRMHOSHXDMSA-UHFFFAOYSA-N
Kind: experiment
Temperature: 77 K
Tabular data in the source: 0
pressure (bar)	uptake (cm3(STP)/g)
0.003678	123.99
0.014672	208.67
0.058748	387.87
0.066702	422.66
0.110454	517.68
0.116625	528.36
0.166122	571.77
0.170631	586.63
0.214789	651.13
0.217717	651.04
0.268501	662.25
0.273314	663.24
0.321818	669.87
0.373231	675.37
0.424055	680.52
0.476379	684.26
0.52763	687.99
0.52995	687.99
0.579478	690.64
0.632866	694.19
0.635369	694.33
0.685595	697.43
0.687176	697.57
0.737251	699.33
0.738832	699.33
0.793567	702.15
0.794976	702.29
0.843287	703.72
0.845658	703.72
0.894224	706.73
0.89705	706.87
0.946548	709.97
0.997798	719.63
