Adsorption isotherm of Nitrogen, Methanethiol on silica alumina gel SorBead H
DOI: 10.1021/acs.jced.6b00301
Article source: Figure 4/Table S3
Adsorbate Nitrogen: InChIKey IJGRMHOSHXDMSA-UHFFFAOYSA-N
Adsorbate Methanethiol: InChIKey LSDPWZHWYPCBBB-UHFFFAOYSA-N
Kind: experiment
Temperature: 323 K
Tabular data in the source: 1
pressure (bar)	Nitrogen fraction	Nitrogen uptake (mmol/g)	Methanethiol fraction	Methanethiol uptake (mmol/g)	total uptake (mmol/g)
1.3			0.0002	0.0389	
1.3			0.000416	0.06	
1.3			0.000635	0.0776	
1.3			0.000847	0.0941	
1.3			0.001076	0.111	
1.3			0.001305	0.125	
1.3			0.001539	0.137	
1.3			0.001781	0.15	
1.3			0.002035	0.163	
