Adsorption isotherm of Nitrogen, Methanethiol on silica alumina gel SorBead H
DOI: 10.1021/acs.jced.6b00301
Article source: Figure 4/Table S3
Adsorbate Nitrogen: InChIKey IJGRMHOSHXDMSA-UHFFFAOYSA-N
Adsorbate Methanethiol: InChIKey LSDPWZHWYPCBBB-UHFFFAOYSA-N
Kind: experiment
Temperature: 573 K
Tabular data in the source: 1
pressure (bar)	Nitrogen fraction	Nitrogen uptake (mmol/g)	Methanethiol fraction	Methanethiol uptake (mmol/g)	total uptake (mmol/g)
1.3			0.000164	0.00086	
1.3			0.000328	0.00162	
1.3			0.000496	0.00228	
1.3			0.000668	0.00285	
1.3			0.000833	0.00368	
1.3			0.001015	0.00442	
1.3			0.0012	0.00509	
1.3			0.001387	0.00579	
1.3			0.001579	0.00653	
1.3			0.001774	0.00735	
1.3			0.001973	0.00809	
