Adsorption isotherm of Carbon Dioxide, Nitrogen on silica alumina gel SorBead H
DOI: 10.1021/acs.jced.6b00301
Article source: Figure 6/Table S5
Adsorbate Carbon Dioxide: InChIKey CURLTUGMZLYLDI-UHFFFAOYSA-N
Adsorbate Nitrogen: InChIKey IJGRMHOSHXDMSA-UHFFFAOYSA-N
Kind: experiment
Temperature: 373 K
Tabular data in the source: 1
pressure (bar)	Carbon Dioxide fraction	Carbon Dioxide uptake (mmol/g)	Nitrogen fraction	Nitrogen uptake (mmol/g)	total uptake (mmol/g)
1.3	0.004195	0.00546			
1.3	0.008292	0.0125			
1.3	0.012427	0.0189			
1.3	0.016579	0.0263			
1.3	0.020733	0.0315			
1.3	0.024889	0.0373			
1.3	0.029038	0.0453			
1.3	0.033186	0.0521			
1.3	0.037338	0.0578			
1.3	0.041501	0.0629			
1.3	0.045648	0.0685			
1.3	0.049801	0.0726			
1.3	0.002018	0.0117			
