Adsorption isotherm of Nitrogen, Water on silica alumina gel SorBead H
DOI: 10.1021/acs.jced.6b00301
Article source: Figure 2/Table S1
Adsorbate Nitrogen: InChIKey IJGRMHOSHXDMSA-UHFFFAOYSA-N
Adsorbate Water: InChIKey XLYOFNOQVPJJNP-UHFFFAOYSA-N
Kind: experiment
Temperature: 298 K
Tabular data in the source: 1
pressure (bar)	Nitrogen fraction	Nitrogen uptake (mmol/g)	Water fraction	Water uptake (mmol/g)	total uptake (mmol/g)
1.3			0.000114	0.33	
1.3			0.000233	0.46	
1.3			0.000435	0.58	
1.3			0.00064	0.72	
1.3			0.000836	0.82	
1.3			0.001024	0.91	
1.3			0.001208	1.05	
1.3			0.001401	1.17	
1.3			0.001601	1.3	
1.3			0.001795	1.39	
1.3			0.00198	1.46	
