Adsorption isotherm of Nitrogen, Water on silica alumina gel SorBead H
DOI: 10.1021/acs.jced.6b00301
Article source: Figure 2/Table S1
Adsorbate Nitrogen: InChIKey IJGRMHOSHXDMSA-UHFFFAOYSA-N
Adsorbate Water: InChIKey XLYOFNOQVPJJNP-UHFFFAOYSA-N
Kind: experiment
Temperature: 473 K
Tabular data in the source: 1
pressure (bar)	Nitrogen fraction	Nitrogen uptake (mmol/g)	Water fraction	Water uptake (mmol/g)	total uptake (mmol/g)
1.3			0.000116	0.15	
1.3			0.000229	0.199	
1.3			0.000433	0.255	
1.3			0.000624	0.285	
1.3			0.000803	0.319	
1.3			0.000972	0.346	
1.3			0.001128	0.358	
1.3			0.001292	0.42	
1.3			0.001442	0.439	
1.3			0.001594	0.461	
1.3			0.001738	0.478	
1.3			0.001881	0.497	
