Adsorption isotherm of Ethanethiol, Nitrogen on silica alumina gel SorBead H
DOI: 10.1021/acs.jced.6b00301
Article source: Figure 5/Table S4
Adsorbate Ethanethiol: InChIKey DNJIEGIFACGWOD-UHFFFAOYSA-N
Adsorbate Nitrogen: InChIKey IJGRMHOSHXDMSA-UHFFFAOYSA-N
Kind: experiment
Temperature: 473 K
Tabular data in the source: 1
pressure (bar)	Ethanethiol fraction	Ethanethiol uptake (mmol/g)	Nitrogen fraction	Nitrogen uptake (mmol/g)	total uptake (mmol/g)
1.3	0.000565	0.00365			
1.3	0.000723	0.0046			
1.3	0.000883	0.00555			
1.3	0.001041	0.00639			
1.3	0.0012	0.00744			
1.3	0.001358	0.0082			
1.3	0.001519	0.00877			
1.3	0.001678	0.00966			
1.3	0.001835	0.0101			
1.3	0.001998	0.0117			
