Adsorption isotherm of Nitrogen, Hydrogen sulfide on silica alumina gel SorBead H
DOI: 10.1021/acs.jced.6b00301
Article source: Figure 3/Table S2
Adsorbate Nitrogen: InChIKey IJGRMHOSHXDMSA-UHFFFAOYSA-N
Adsorbate Hydrogen sulfide: InChIKey RWSOTUBLDIXVET-UHFFFAOYSA-N
Kind: experiment
Temperature: 323 K
Tabular data in the source: 1
pressure (bar)	Nitrogen fraction	Nitrogen uptake (mmol/g)	Hydrogen sulfide fraction	Hydrogen sulfide uptake (mmol/g)	total uptake (mmol/g)
1.3			0.000194	0.00355	
1.3			0.000389	0.00571	
1.3			0.00058	0.00766	
1.3			0.000772	0.0095	
1.3			0.000986	0.0113	
1.3			0.001186	0.0129	
1.3			0.001388	0.0147	
1.3			0.001591	0.0165	
1.3			0.001791	0.0181	
1.3			0.001995	0.0196	
