Adsorption isotherm of Carbon Dioxide, Nitrogen on silica alumina gel SorBead H
DOI: 10.1021/acs.jced.6b00301
Article source: Figure 6/Table S5
Adsorbate Carbon Dioxide: InChIKey CURLTUGMZLYLDI-UHFFFAOYSA-N
Adsorbate Nitrogen: InChIKey IJGRMHOSHXDMSA-UHFFFAOYSA-N
Kind: experiment
Temperature: 298 K
Tabular data in the source: 1
pressure (bar)	Carbon Dioxide fraction	Carbon Dioxide uptake (mmol/g)	Nitrogen fraction	Nitrogen uptake (mmol/g)	total uptake (mmol/g)
1.3	0.004189	0.0122			
1.3	0.008302	0.0246			
1.3	0.012396	0.0362			
1.3	0.016522	0.0477			
1.3	0.020656	0.0589			
1.3	0.024778	0.0699			
1.3	0.028929	0.0817			
1.3	0.033086	0.0931			
1.3	0.037243	0.105			
1.3	0.041404	0.116			
1.3	0.04555	0.127			
1.3	0.049674	0.137			
