Adsorption isotherm of Nitrogen, Methanethiol on silica alumina gel SorBead H
DOI: 10.1021/acs.jced.6b00301
Article source: Figure 4/Table S3
Adsorbate Nitrogen: InChIKey IJGRMHOSHXDMSA-UHFFFAOYSA-N
Adsorbate Methanethiol: InChIKey LSDPWZHWYPCBBB-UHFFFAOYSA-N
Kind: experiment
Temperature: 298 K
Tabular data in the source: 1
pressure (bar)	Nitrogen fraction	Nitrogen uptake (mmol/g)	Methanethiol fraction	Methanethiol uptake (mmol/g)	total uptake (mmol/g)
1.3			0.0002	0.107	
1.3			0.000416	0.155	
1.3			0.000633	0.19	
1.3			0.000843	0.221	
1.3			0.001068	0.251	
1.3			0.001291	0.276	
1.3			0.001519	0.299	
1.3			0.001753	0.321	
1.3			0.001992	0.342	
