Adsorption isotherm of Nitrogen, Methanethiol on silica alumina gel SorBead H
DOI: 10.1021/acs.jced.6b00301
Article source: Figure 4/Table S3
Adsorbate Nitrogen: InChIKey IJGRMHOSHXDMSA-UHFFFAOYSA-N
Adsorbate Methanethiol: InChIKey LSDPWZHWYPCBBB-UHFFFAOYSA-N
Kind: experiment
Temperature: 373 K
Tabular data in the source: 1
pressure (bar)	Nitrogen fraction	Nitrogen uptake (mmol/g)	Methanethiol fraction	Methanethiol uptake (mmol/g)	total uptake (mmol/g)
1.3			0.000202	0.00916	
1.3			0.000413	0.0157	
1.3			0.000631	0.0216	
1.3			0.000854	0.0269	
1.3			0.001079	0.0317	
1.3			0.001307	0.0366	
1.3			0.001524	0.0431	
1.3			0.001761	0.0479	
1.3			0.002009	0.0539	
