Adsorption isotherm of Carbon Dioxide, Nitrogen on silica alumina gel SorBead H
DOI: 10.1021/acs.jced.6b00301
Article source: Figure 6/Table S5
Adsorbate Carbon Dioxide: InChIKey CURLTUGMZLYLDI-UHFFFAOYSA-N
Adsorbate Nitrogen: InChIKey IJGRMHOSHXDMSA-UHFFFAOYSA-N
Kind: experiment
Temperature: 323 K
Tabular data in the source: 1
pressure (bar)	Carbon Dioxide fraction	Carbon Dioxide uptake (mmol/g)	Nitrogen fraction	Nitrogen uptake (mmol/g)	total uptake (mmol/g)
1.3	0.004181	0.00829			
1.3	0.008273	0.018			
1.3	0.012406	0.0266			
1.3	0.016552	0.0348			
1.3	0.020693	0.0442			
1.3	0.024838	0.0532			
1.3	0.028977	0.0626			
1.3	0.033097	0.0723			
1.3	0.037246	0.0816			
1.3	0.0414	0.0896			
1.3	0.045556	0.0992			
1.3	0.049728	0.109			
