Adsorption isotherm of Ethanethiol, Nitrogen on silica alumina gel SorBead H
DOI: 10.1021/acs.jced.6b00301
Article source: Figure 5/Table S4
Adsorbate Ethanethiol: InChIKey DNJIEGIFACGWOD-UHFFFAOYSA-N
Adsorbate Nitrogen: InChIKey IJGRMHOSHXDMSA-UHFFFAOYSA-N
Kind: experiment
Temperature: 298 K
Tabular data in the source: 1
pressure (bar)	Ethanethiol fraction	Ethanethiol uptake (mmol/g)	Nitrogen fraction	Nitrogen uptake (mmol/g)	total uptake (mmol/g)
1.3	0.000114	0.185			
1.3	0.000229	0.254			
1.3	0.000344	0.305			
1.3	0.000459	0.351			
1.3	0.00057	0.389			
1.3	0.000683	0.421			
1.3	0.000741	0.441			
1.3	0.000863	0.473			
1.3	0.001018	0.515			
1.3	0.001233	0.564			
1.3	0.001474	0.612			
1.3	0.001716	0.657			
1.3	0.001986	0.704			
