Adsorption isotherm of Nitrogen, Hydrogen sulfide on silica alumina gel SorBead H
DOI: 10.1021/acs.jced.6b00301
Article source: Figure 3/Table S2
Adsorbate Nitrogen: InChIKey IJGRMHOSHXDMSA-UHFFFAOYSA-N
Adsorbate Hydrogen sulfide: InChIKey RWSOTUBLDIXVET-UHFFFAOYSA-N
Kind: experiment
Temperature: 373 K
Tabular data in the source: 1
pressure (bar)	Nitrogen fraction	Nitrogen uptake (mmol/g)	Hydrogen sulfide fraction	Hydrogen sulfide uptake (mmol/g)	total uptake (mmol/g)
1.3			0.000194	0.000862	
1.3			0.000392	0.00164	
1.3			0.000589	0.00217	
1.3			0.000782	0.00266	
1.3			0.000987	0.00313	
1.3			0.001187	0.00361	
1.3			0.001388	0.00413	
1.3			0.00159	0.00475	
1.3			0.001792	0.00524	
1.3			0.001999	0.00579	
