Adsorption isotherm of Nitrogen, Methanethiol on silica alumina gel SorBead H
DOI: 10.1021/acs.jced.6b00301
Article source: Figure 4/Table S3
Adsorbate Nitrogen: InChIKey IJGRMHOSHXDMSA-UHFFFAOYSA-N
Adsorbate Methanethiol: InChIKey LSDPWZHWYPCBBB-UHFFFAOYSA-N
Kind: experiment
Temperature: 473 K
Tabular data in the source: 1
pressure (bar)	Nitrogen fraction	Nitrogen uptake (mmol/g)	Methanethiol fraction	Methanethiol uptake (mmol/g)	total uptake (mmol/g)
1.3			0.000204	0.00187	
1.3			0.000419	0.00308	
1.3			0.000646	0.00438	
1.3			0.00087	0.00541	
1.3			0.001095	0.00641	
1.3			0.001327	0.00771	
1.3			0.001564	0.00923	
1.3			0.001797	0.0104	
1.3			0.002018	0.0117	
