Adsorption isotherm of Nitrogen, Hydrogen sulfide on silica alumina gel SorBead H
DOI: 10.1021/acs.jced.6b00301
Article source: Figure 3/Table S2
Adsorbate Nitrogen: InChIKey IJGRMHOSHXDMSA-UHFFFAOYSA-N
Adsorbate Hydrogen sulfide: InChIKey RWSOTUBLDIXVET-UHFFFAOYSA-N
Kind: experiment
Temperature: 298 K
Tabular data in the source: 1
pressure (bar)	Nitrogen fraction	Nitrogen uptake (mmol/g)	Hydrogen sulfide fraction	Hydrogen sulfide uptake (mmol/g)	total uptake (mmol/g)
1.3			0.00019	0.00715	
1.3			0.000386	0.0103	
1.3			0.000578	0.0141	
1.3			0.000784	0.0179	
1.3			0.00099	0.0215	
1.3			0.001191	0.0245	
1.3			0.001399	0.0277	
1.3			0.001596	0.0301	
1.3			0.0018	0.0328	
1.3			0.002007	0.0353	
