Adsorption isotherm of Nitrogen, Hydrogen sulfide on silica alumina gel SorBead H
DOI: 10.1021/acs.jced.6b00301
Article source: Figure 3/Table S2
Adsorbate Nitrogen: InChIKey IJGRMHOSHXDMSA-UHFFFAOYSA-N
Adsorbate Hydrogen sulfide: InChIKey RWSOTUBLDIXVET-UHFFFAOYSA-N
Kind: experiment
Temperature: 473 K
Tabular data in the source: 1
pressure (bar)	Nitrogen fraction	Nitrogen uptake (mmol/g)	Hydrogen sulfide fraction	Hydrogen sulfide uptake (mmol/g)	total uptake (mmol/g)
1.3			0.000195	0.000712	
1.3			0.00039	0.000894	
1.3			0.000586	0.00108	
1.3			0.000782	0.00134	
1.3			0.000984	0.00151	
1.3			0.001186	0.00197	
1.3			0.001386	0.00226	
1.3			0.001591	0.00247	
1.3			0.001794	0.00273	
1.3			0.002	0.00297	
