Adsorption isotherm of Ethanethiol, Nitrogen on silica alumina gel SorBead H
DOI: 10.1021/acs.jced.6b00301
Article source: Figure 5/Table S4
Adsorbate Ethanethiol: InChIKey DNJIEGIFACGWOD-UHFFFAOYSA-N
Adsorbate Nitrogen: InChIKey IJGRMHOSHXDMSA-UHFFFAOYSA-N
Kind: experiment
Temperature: 373 K
Tabular data in the source: 1
pressure (bar)	Ethanethiol fraction	Ethanethiol uptake (mmol/g)	Nitrogen fraction	Nitrogen uptake (mmol/g)	total uptake (mmol/g)
1.3	0.000111	0.0135			
1.3	0.000226	0.0208			
1.3	0.00034	0.0262			
1.3	0.000453	0.0309			
1.3	0.000567	0.0339			
1.3	0.000725	0.0383			
1.3	0.000884	0.0435			
1.3	0.00104	0.0493			
1.3	0.001198	0.054			
1.3	0.001356	0.0583			
1.3	0.001514	0.0624			
1.3	0.001671	0.066			
1.3	0.001822	0.069			
1.3	0.001969	0.0716			
