Adsorption isotherm of Ethanethiol, Nitrogen on silica alumina gel SorBead H
DOI: 10.1021/acs.jced.6b00301
Article source: Figure 5/Table S4
Adsorbate Ethanethiol: InChIKey DNJIEGIFACGWOD-UHFFFAOYSA-N
Adsorbate Nitrogen: InChIKey IJGRMHOSHXDMSA-UHFFFAOYSA-N
Kind: experiment
Temperature: 323 K
Tabular data in the source: 1
pressure (bar)	Ethanethiol fraction	Ethanethiol uptake (mmol/g)	Nitrogen fraction	Nitrogen uptake (mmol/g)	total uptake (mmol/g)
1.3	0.000115	0.0762			
1.3	0.00023	0.108			
1.3	0.000346	0.134			
1.3	0.000459	0.154			
1.3	0.000556	0.166			
1.3	0.000718	0.19			
1.3	0.000874	0.211			
1.3	0.001032	0.231			
1.3	0.001187	0.249			
1.3	0.001344	0.267			
1.3	0.001498	0.283			
1.3	0.001652	0.299			
1.3	0.001801	0.312			
