Adsorption isotherm of Lead(II) Ion, Water on Zeolite magnetized by Fe3O4
DOI: 10.1088/2053-1591/aa9738
Article source: Figure 8
Adsorbate Lead(II) Ion: InChIKey RVPVRDXYQKGNMQ-UHFFFAOYSA-N
Adsorbate Water: InChIKey XLYOFNOQVPJJNP-UHFFFAOYSA-N
Kind: experiment
Temperature: 298 K
Tabular data in the source: 0
pressure (bar)	Lead(II) Ion fraction	Lead(II) Ion uptake (mg/g)	Water fraction	Water uptake (mg/g)	total uptake (mg/g)
1.01325	0.244	138.636			
1.01325	4.388	239.258			
1.01325	30.151	267.581			
1.01325	131.657	268.195			
