Adsorption isotherm of Cadmium(II) Ion, Water on Zeolite magnetized by Fe3O4
DOI: 10.1088/2053-1591/aa9738
Article source: Figure 8
Adsorbate Cadmium(II) Ion: InChIKey WLZRMCYVCSSEQC-UHFFFAOYSA-N
Adsorbate Water: InChIKey XLYOFNOQVPJJNP-UHFFFAOYSA-N
Kind: experiment
Temperature: 298 K
Tabular data in the source: 0
pressure (bar)	Cadmium(II) Ion fraction	Cadmium(II) Ion uptake (mg/g)	Water fraction	Water uptake (mg/g)	total uptake (mg/g)
1.01325	0.355	57.4434			
1.01325	2.042	79.9217			
1.01325	7.304	92.5143			
1.01325	39.062	110.991			
