Adsorption isotherm of Carbon Dioxide on Skyline Coal activated to 450C @ 0.1C/min
DOI: 10.1021/acs.energyfuels.6b03116
Article source: Figure 2
Adsorbate Carbon Dioxide: InChIKey CURLTUGMZLYLDI-UHFFFAOYSA-N
Kind: experiment
Temperature: 323 K
Tabular data in the source: 0
pressure (bar)	uptake (mmol/g)
0.5656	0.13545
1.6398	0.3356
3.1287	0.5992
6.3732	0.8107
11.5243	0.97497
18.5054	1.20756
25.5258	1.24975
32.5647	1.34076
43.8313	1.41379
