Adsorption isotherm of Carbon Dioxide on Untreated Skyline Coal
DOI: 10.1021/acs.energyfuels.6b03116
Article source: Figure 2
Adsorbate Carbon Dioxide: InChIKey CURLTUGMZLYLDI-UHFFFAOYSA-N
Kind: experiment
Temperature: 323 K
Tabular data in the source: 0
pressure (bar)	uptake (mmol/g)
0.5926	0.07218
1.6819	0.24167
3.8599	0.41114
6.8638	0.56757
10.4308	0.6914
14.2605	0.79567
19.4794	0.91948
28.9785	1.09867
41.744	1.3202
