Adsorption isotherm of Carbon Dioxide on Skyline Coal activated to 325C @ 10C/min
DOI: 10.1021/acs.energyfuels.6b03116
Article source: Figure 2
Adsorbate Carbon Dioxide: InChIKey CURLTUGMZLYLDI-UHFFFAOYSA-N
Kind: experiment
Temperature: 323 K
Tabular data in the source: 0
pressure (bar)	uptake (mmol/g)
1.857	0.15912
3.6904	0.30695
6.1151	0.46606
10.2307	0.59231
16.0611	0.73907
21.9859	0.83347
27.5323	0.90734
40.1267	0.98833
