Adsorption isotherm of Carbon Dioxide on Skyline Coal activated to 600C @ 0.1C/min
DOI: 10.1021/acs.energyfuels.6b03116
Article source: Figure 2
Adsorbate Carbon Dioxide: InChIKey CURLTUGMZLYLDI-UHFFFAOYSA-N
Kind: experiment
Temperature: 323 K
Tabular data in the source: 0
pressure (bar)	uptake (mmol/g)
0.2825	0.14034
1.1107	0.42348
1.7869	0.84495
4.521	1.16224
9.3309	1.5039
16.5952	1.73974
24.181	1.87305
31.5975	1.94615
43.1863	1.8483
