Adsorption isotherm of Carbon Dioxide on Skyline Coal activated to 450C @ 10C/min
DOI: 10.1021/acs.energyfuels.6b03116
Article source: Figure 2
Adsorbate Carbon Dioxide: InChIKey CURLTUGMZLYLDI-UHFFFAOYSA-N
Kind: experiment
Temperature: 323 K
Tabular data in the source: 0
pressure (bar)	uptake (mmol/g)
1.4752	0.17974
2.7898	0.39322
4.1421	0.65072
7.1086	0.86582
11.8021	1.04016
18.1661	1.18515
26.9892	1.291
39.6604	1.35118
