Adsorption isotherm of Carbon Dioxide on Untreated Skyline Coal
DOI: 10.1021/acs.energyfuels.6b03116
Article source: Figure 2
Adsorbate Carbon Dioxide: InChIKey CURLTUGMZLYLDI-UHFFFAOYSA-N
Kind: experiment
Temperature: 323 K
Tabular data in the source: 0
pressure (bar)	uptake (mmol/g)
0.5047	0.07842
1.7518	0.23422
3.7717	0.40744
6.7903	0.56731
10.368	0.69129
14.3143	0.80809
19.509	0.92384
29.0428	1.09488
41.7387	1.31814
