Adsorption isotherm of Carbon Dioxide on Skyline Coal activated to 600C @ 10C/min
DOI: 10.1021/acs.energyfuels.6b03116
Article source: Figure 2
Adsorbate Carbon Dioxide: InChIKey CURLTUGMZLYLDI-UHFFFAOYSA-N
Kind: experiment
Temperature: 323 K
Tabular data in the source: 0
pressure (bar)	uptake (mmol/g)
2.2643	0.4242
3.2788	0.73873
5.6823	1.00273
11.2584	1.29441
17.7163	1.45081
26.5768	1.5094
39.0404	1.58998
