Adsorption isotherm of Carbon Dioxide on Skyline Coal activated to 325C @ 0.1C/min
DOI: 10.1021/acs.energyfuels.6b03116
Article source: Figure 2
Adsorbate Carbon Dioxide: InChIKey CURLTUGMZLYLDI-UHFFFAOYSA-N
Kind: experiment
Temperature: 323 K
Tabular data in the source: 0
pressure (bar)	uptake (mmol/g)
0.6422	0.07578
1.9444	0.20621
4.2352	0.34438
7.3647	0.49157
12.0372	0.63615
18.2226	0.77553
25.1272	0.89037
32.5413	0.99098
43.6551	1.11737
