Adsorption isotherm of Hydrogen on Ni3(btc)2(3-pic)6(pd)3
DOI: 10.1126/science.1101982
Adsorbate Hydrogen: InChIKey UFHFLCQGNIYNRP-UHFFFAOYSA-N
Temperature: 77 K
Tabular data in the source: 0
pressure (bar)	uptake (mmol/g)
0.00411242	0.15085
0.0102595	0.271702
0.0184598	0.452919
0.0470623	0.605245
0.0981202	0.789043
0.198201	1.18664
0.300311	1.52412
0.402408	1.80135
0.498383	2.07822
0.69849	2.60232
0.800563	2.75907
0.896526	2.97569
