Adsorption isotherm of Hydrogen on Ni2(bipy)3(NO3)4
DOI: 10.1126/science.1101982
Adsorbate Hydrogen: InChIKey UFHFLCQGNIYNRP-UHFFFAOYSA-N
Temperature: 77 K
Tabular data in the source: 0
pressure (bar)	uptake (mmol/g)
0.00761169	1.08108
0.0196291	1.52703
0.0499724	2.05405
0.0987452	2.45946
0.200621	2.78378
0.29849	2.95946
0.400455	3.10811
0.500421	3.17568
0.598345	3.24324
0.702406	3.28378
0.800338	3.33784
0.898269	3.39189
0.998256	3.41892
