Adsorption isotherm of Hydrogen on Carbon
DOI: 10.1126/science.1101982
Adsorbate Hydrogen: InChIKey UFHFLCQGNIYNRP-UHFFFAOYSA-N
Temperature: 77 K
Tabular data in the source: 0
pressure (bar)	uptake (mmol/g)
0.0105362	1.62714
0.0208203	2.01933
0.0352598	2.77321
0.0578382	3.4071
0.078345	3.89026
0.100862	4.22294
0.14592	5.00879
0.199099	5.58428
0.254294	6.03942
0.297225	6.40345
0.399403	7.07225
0.501549	7.59045
0.60163	7.98805
0.699671	8.38552
0.799733	8.69276
0.901831	8.96999
