Adsorption isotherm of Hydrogen on Ni2(bipy)3(NO3)4
DOI: 10.1126/science.1101982
Adsorbate Hydrogen: InChIKey UFHFLCQGNIYNRP-UHFFFAOYSA-N
Temperature: 77 K
Tabular data in the source: 0
pressure (bar)	uptake (mmol/g)
0.0116244	1.21622
0.0196153	1.55405
0.0520477	1.98649
0.100807	2.41892
0.198573	2.7973
0.300476	3.06757
0.398331	3.27027
0.498235	3.45946
0.600193	3.62162
0.70011	3.78378
0.802082	3.91892
0.90202	4.04054
0.995843	4.14865
