Adsorption isotherm of Nitrogen on CoMOF
DOI: 10.1039/c5ce01123j
Article source: Figure 3a
Adsorbate Nitrogen: InChIKey IJGRMHOSHXDMSA-UHFFFAOYSA-N
Kind: experiment
Temperature: 77 K
Tabular data in the source: 0
pressure (bar)	uptake (cm3(STP)/g)
0	0
0.000268	21.7201
0.00097	78.7354
0.00204	165.616
0.002141	173.761
0.002274	184.621
0.004983	104.537
0.005318	131.687
0.006104	195.49
0.006288	210.423
0.021205	221.319
0.039784	229.509
0.050921	233.608
0.058363	237.699
0.065788	240.432
0.076892	241.817
0.084317	244.55
0.091775	249.998
0.110338	256.83
0.132529	258.242
0.147413	266.423
0.162128	261.029
0.173249	263.771
0.188033	263.807
0.202815	263.843
0.214003	272.016
0.225006	265.255
0.239807	266.649
0.25837	273.481
0.269389	268.078
0.287886	269.481
0.299072	277.653
0.321181	272.277
0.335963	272.313
0.35451	277.788
0.376634	273.77
0.398825	275.182
0.402604	281.978
0.432086	275.263
0.458025	280.756
0.476453	276.728
0.494948	278.131
0.513494	283.606
0.539331	280.954
0.565218	282.375
0.576289	281.045
0.594767	281.09
0.609601	285.198
0.628029	281.171
0.646542	283.931
0.665037	285.334
0.6835	284.021
0.716795	286.817
0.738936	284.156
0.764839	286.935
0.794422	288.364
0.823989	288.436
0.846163	288.491
0.868337	288.545
0.883104	287.223
0.901616	289.983
0.934878	290.064
0.957053	290.119
0.979228	290.173
1.00142	291.584
1.02731	293.005
1.0495	294.417
