Adsorption isotherm of Hydrogen on CoMOF
DOI: 10.1039/c5ce01123j
Article source: Figure 3b
Adsorbate Hydrogen: InChIKey UFHFLCQGNIYNRP-UHFFFAOYSA-N
Kind: experiment
Temperature: 77 K
Tabular data in the source: 0
pressure (bar)	uptake (wt%)
0	0
0.008438	0.141658
0.016876	0.263092
0.029533	0.364344
0.04641	0.435301
0.063286	0.496146
0.0886	0.597525
0.109696	0.6483
0.122353	0.709103
0.130791	0.739525
0.168762	0.810695
0.198296	0.902005
0.236267	0.973176
0.27002	1.02408
0.303772	1.07498
0.341744	1.12593
0.379715	1.17687
0.417687	1.20759
0.45144	1.23827
0.459878	1.24847
0.476754	1.27898
0.49363	1.29937
0.514726	1.3097
0.535821	1.33014
0.544259	1.34034
0.569573	1.3507
0.590669	1.38125
0.615983	1.40174
0.645516	1.42226
0.670831	1.43263
0.696145	1.46322
0.725679	1.47363
0.746775	1.48396
0.759431	1.4942
0.780526	1.50452
0.818498	1.52513
0.835374	1.55564
0.85647	1.55585
0.877565	1.57629
0.902879	1.57655
0.919755	1.58683
0.936632	1.587
0.966166	1.60752
0.999918	1.62809
