Adsorption isotherm of Carbon Dioxide on CoMOF
DOI: 10.1039/c5ce01123j
Article source: Figure 3c
Adsorbate Carbon Dioxide: InChIKey CURLTUGMZLYLDI-UHFFFAOYSA-N
Kind: experiment
Temperature: 298 K
Tabular data in the source: 0
pressure (bar)	uptake (cm3(STP)/g)
0	0
0.004203	1.46034
0.033885	4.36545
0.055083	6.54506
0.0933	8.71221
0.127237	11.6142
0.15269	13.7907
0.178143	15.9672
0.203621	17.412
0.246042	21.0395
0.305458	25.3862
0.347905	28.282
0.386096	31.1809
0.398785	33.3667
0.445511	35.5276
0.47522	37.701
0.500647	40.6093
0.521922	40.5937
0.555858	43.4957
0.60679	47.1169
0.657721	50.7382
0.691684	52.9085
0.704397	54.3626
0.734157	55.0725
0.755354	57.2521
0.776577	58.7
0.819025	61.5958
0.869982	64.4853
0.908227	65.9208
0.925195	67.3718
0.942163	68.8228
0.959157	69.542
0.980381	70.9899
0.99312	71.7123
1.01009	73.1633
