Adsorption isotherm of Carbon Dioxide on CoMOF
DOI: 10.1039/c5ce01123j
Article source: Figure 3c
Adsorbate Carbon Dioxide: InChIKey CURLTUGMZLYLDI-UHFFFAOYSA-N
Kind: experiment
Temperature: 273 K
Tabular data in the source: 0
pressure (bar)	uptake (cm3(STP)/g)
0	0
0.029851	4.41365
0.059753	10.2908
0.089655	16.1679
0.110944	18.3797
0.14514	25.7236
0.183501	30.8756
0.213377	36.021
0.24747	40.4379
0.281562	44.8549
0.311465	50.732
0.358336	56.6224
0.392454	61.7711
0.435032	66.1947
0.486197	73.5519
0.541578	80.1807
0.592691	86.0744
0.643779	91.2365
0.69916	97.8652
0.745979	102.292
0.792799	106.719
0.848128	111.884
0.894921	115.58
0.950199	119.282
1.00977	124.45
