Adsorption isotherm of Nitrogen on Rh-P-COF-2
DOI: 10.1002/chem.202002150
Article source: Figure S11a
Adsorbate Nitrogen: InChIKey IJGRMHOSHXDMSA-UHFFFAOYSA-N
Kind: experiment
Temperature: 77 K
Tabular data in the source: 0
pressure (bar)	uptake (mmol/g)
0.000742	2.57865
0.02757	9.65513
0.055163	13.4847
0.082757	15.6493
0.110351	17.8971
0.137945	20.2282
0.165538	22.143
0.193132	24.2243
0.220726	26.4722
0.24832	28.6367
0.275914	30.5515
0.303507	32.7994
0.331101	34.8807
0.358695	36.962
0.386289	39.0433
0.413882	41.2079
0.441476	43.2059
0.46907	45.3705
0.496664	47.6183
0.524257	49.6164
0.551851	51.5312
0.579445	53.9455
0.607039	56.1101
0.634633	58.1082
0.662226	60.1062
0.68982	62.6871
0.717414	64.6019
0.745008	66.8497
0.772601	69.0143
0.800195	71.3453
0.827789	73.8429
0.855383	76.507
0.882977	78.9213
0.91057	81.9184
0.938164	86.4973
0.964378	91.1362
0.978022	102.066
0.991052	110.141
1.00025	118.6
