Adsorption isotherm of Nitrogen on Rh-P-COF-1
DOI: 10.1002/chem.202002150
Article source: Figure S11a
Adsorbate Nitrogen: InChIKey IJGRMHOSHXDMSA-UHFFFAOYSA-N
Kind: experiment
Temperature: 77 K
Tabular data in the source: 0
pressure (bar)	uptake (mmol/g)
0.011473	0.116075
0.039067	0.414844
0.062719	0.770911
0.089656	0.956448
0.119549	1.33571
0.147143	1.67131
0.176379	1.86542
0.200031	1.96189
0.229157	2.25521
0.258284	2.50623
0.286754	2.80558
0.311063	3.0301
0.337999	3.09558
0.367126	3.44482
0.397786	3.77906
0.42308	4.12695
0.448375	4.15969
0.477282	4.41928
0.506628	4.63444
0.535755	4.97005
0.559407	5.24718
0.586343	5.43662
0.616237	5.65762
0.64613	5.8418
0.671424	6.25516
0.696719	6.32064
0.725845	6.60986
0.754206	7.00822
0.784099	7.16784
0.807751	7.39411
0.836987	7.71217
0.864581	8.07233
0.892174	8.28515
0.919768	8.49797
0.947362	8.80902
0.974956	9.02184
0.997951	9.46386
