Adsorption isotherm of Argon on Rh-P-COF-1
DOI: 10.1002/chem.202002150
Article source: Figure S11c
Adsorbate Argon: InChIKey XKRFYHLGVUSROY-UHFFFAOYSA-N
Kind: experiment
Temperature: 87 K
Tabular data in the source: 0
pressure (bar)	uptake (mmol/g)
0.014131	7.93996
0.027955	14.1869
0.053299	27.5731
0.083251	42.7442
0.124723	62.3774
0.138547	63.2698
0.152371	76.656
0.193843	90.9347
0.221491	108.783
0.262964	124.847
0.304436	143.587
0.332084	160.543
0.373556	175.714
0.401204	192.67
0.442676	209.626
0.474932	225.69
0.516404	243.538
0.585525	276.557
0.654645	308.684
0.728373	344.381
0.756021	362.229
0.797493	379.185
0.829749	397.034
0.868918	414.436
0.89887	430.945
0.926518	446.116
0.940342	450.579
0.96799	466.642
0.981814	471.104
1.00716	482.706
0.684328	330.23
0.546969	259.143
0.618534	295.357
