Adsorption isotherm of Argon on P-COF-1
DOI: 10.1002/chem.202002150
Article source: Figure S11c
Adsorbate Argon: InChIKey XKRFYHLGVUSROY-UHFFFAOYSA-N
Kind: experiment
Temperature: 87 K
Tabular data in the source: 0
pressure (bar)	uptake (mmol/g)
1.00291	619.943
0.970588	595.8
0.938268	579.705
0.894406	551.538
0.869012	535.443
0.829766	513.983
0.797447	489.84
0.759356	469.721
0.722419	444.237
0.690099	422.777
0.653162	402.658
0.623151	375.833
0.578135	357.055
0.542352	334.254
0.513495	314.135
0.476558	288.651
0.438467	265.849
0.404993	247.071
0.370365	224.27
0.333428	206.834
0.296492	181.35
0.263018	163.913
0.227235	139.77
0.194915	122.334
0.160287	96.8499
0.136047	83.4373
0.125659	75.3897
0.091031	55.2708
0.05294	39.1756
0.033317	23.0805
