Adsorption isotherm of Argon on Rh-P-COF-2
DOI: 10.1002/chem.202002150
Article source: Figure S11c
Adsorbate Argon: InChIKey XKRFYHLGVUSROY-UHFFFAOYSA-N
Kind: experiment
Temperature: 87 K
Tabular data in the source: 0
pressure (bar)	uptake (mmol/g)
0.007978	11.8846
0.033908	32.2581
0.051859	45.8404
0.082951	67.22
0.118733	98.6606
0.134893	98.6606
0.159133	124.206
0.192607	139.926
0.228389	171.367
0.264172	189.052
0.299954	210.668
0.338045	236.213
0.370365	261.759
0.409611	281.409
0.439622	306.955
0.47425	334.465
0.515804	352.151
0.551586	379.661
0.583906	391.451
0.620843	422.892
0.650854	448.437
0.686636	477.913
0.727036	497.563
0.761664	523.109
0.797447	550.619
0.833229	582.06
0.869012	591.885
0.873629	621.361
0.90364	623.326
0.905949	652.801
0.939423	652.801
0.941731	688.172
0.971742	697.997
0.969434	731.403
1.00983	796.249
