Adsorption isotherm of Nitrogen on P-COF-2
DOI: 10.1002/chem.202002150
Article source: Figure S11a
Adsorbate Nitrogen: InChIKey IJGRMHOSHXDMSA-UHFFFAOYSA-N
Kind: experiment
Temperature: 77 K
Tabular data in the source: 0
pressure (bar)	uptake (mmol/g)
0.000304	10.7612
0.02757	18.9794
0.057463	24.8904
0.080458	25.5564
0.110351	26.0559
0.137945	27.6377
0.167838	29.1362
0.190833	31.3841
0.213828	31.5506
0.24602	32.3831
0.283732	34.4811
0.312705	35.2553
0.337999	37.8778
0.395027	37.0785
0.42308	38.7519
0.455273	40.3754
0.483327	40.6751
0.510001	42.0737
0.537594	44.7711
0.563349	44.7711
0.593242	45.87
0.622215	45.87
0.648889	47.4685
0.673724	49.0669
0.703617	50.6987
0.742708	52.064
0.777967	52.3637
0.809393	55.3608
0.841586	56.2766
0.878378	59.4402
0.905971	61.022
0.93258	66.0291
0.943913	71.3453
0.95656	78.4634
0.965758	88.3289
0.968057	97.8197
0.958859	72.8439
0.979555	115.219
0.970357	106.811
0.965474	83.027
0.997325	121.946
0.722612	52.3243
0.009953	16
