Adsorption isotherm of Nitrogen on P-COF-1
DOI: 10.1002/chem.202002150
Article source: Figure S11a
Adsorbate Nitrogen: InChIKey IJGRMHOSHXDMSA-UHFFFAOYSA-N
Kind: experiment
Temperature: 77 K
Tabular data in the source: 0
pressure (bar)	uptake (mmol/g)
0.00331	2.41268
0.00112	1.13107
0.005719	7.12391
0.004493	4.38299
0.00787	8.51173
0.009551	5.97686
0.031709	10.2857
0.060222	10.9274
0.087356	11.412
0.111501	11.5266
0.144186	11.9218
0.179335	12.2633
0.206929	12.4652
0.236822	12.9509
0.260737	12.9771
0.287411	13.1637
0.315005	13.5009
0.346278	13.8742
0.383989	14.326
0.42308	14.3424
0.457573	14.6796
0.498306	15.196
0.525637	15.6881
0.561049	15.7094
0.593242	15.7885
0.625435	16.3233
0.653488	16.2447
0.679243	16.8209
0.705916	16.8864
0.745008	17.1582
0.773981	17.2466
0.802495	17.8185
0.788698	16.9781
0.827329	17.8163
0.853083	17.9767
0.882977	18.2223
0.91057	18.577
0.938164	18.6861
0.965758	19.3028
0.986453	19.6629
1.00945	20.0231
