Adsorption isotherm of Argon on P-COF-2
DOI: 10.1002/chem.202002150
Article source: Figure S11c
Adsorbate Argon: InChIKey XKRFYHLGVUSROY-UHFFFAOYSA-N
Kind: experiment
Temperature: 87 K
Tabular data in the source: 0
pressure (bar)	uptake (mmol/g)
0.014131	44.4645
0.043622	69.5675
0.069427	83.1649
0.101683	100.946
0.131635	132.063
0.161587	141.216
0.184627	164.096
0.209971	174.229
0.246835	207.46
0.279092	224.892
0.315956	248.426
0.343604	272.178
0.373556	290.592
0.397518	306.477
0.426548	324.258
0.454196	345.613
0.481844	361.521
0.509032	382.571
0.53714	407.281
0.569397	424.932
0.597045	442.147
0.624693	466.77
0.652341	490.849
0.679989	497.495
0.707637	523.753
0.736668	544.171
0.762472	570.843
0.789199	586.009
0.818229	617.78
0.845877	640.225
1.00025	860.312
0.871634	646.859
0.86964	667.233
0.907537	677.419
0.913521	731.749
0.93945	718.166
0.931472	762.309
0.973358	769.1
0.971364	847.199
0.305172	246.18
0.231372	202.037
0.799829	592.53
