Adsorption isotherm of Nitrogen on ASUiO-66
DOI: 10.1039/c4ta06678b
Article source: Figure 2
Adsorbate Nitrogen: InChIKey IJGRMHOSHXDMSA-UHFFFAOYSA-N
Kind: experiment
Temperature: 77 K
Tabular data in the source: 0
pressure (bar)	uptake (cm3(STP)/g)
0.000334	34.555
0.000669	41.406
0.001175	45.815
0.001256	60.769
0.001429	49.181
0.001763	53.321
0.002766	68.722
0.003192	75.693
0.004276	80.221
0.008471	90.349
0.009565	95.919
0.014175	104.856
0.019211	110.039
0.024896	114.506
0.029962	117.911
0.034086	121.221
0.040074	123.916
0.044998	127.665
0.050196	129.638
0.101821	144.835
0.14911	152.95
0.202052	159.519
0.252563	164.362
0.300591	167.688
0.351922	170.371
0.403588	172.458
0.45576	174.187
0.505743	176.154
0.556406	177.288
0.607565	178.719
0.65839	180.21
0.708748	181.79
0.759046	183.368
0.809769	185.246
0.859013	187.724
0.914164	191.854
0.963175	201.011
0.98498	217.694
0.999835	287.131
