Adsorption isotherm of Nitrogen on IRMOF-1
DOI: 10.1039/B908862h
Adsorbate Nitrogen: InChIKey IJGRMHOSHXDMSA-UHFFFAOYSA-N
Temperature: 77 K
Tabular data in the source: 0
pressure (bar)	uptake (cm3(STP)/g)
0.00188645	226.743
0.00943223	232.319
0.0245238	239.285
0.033956	243.464
0.0471612	246.245
0.0622527	249.723
0.0980952	252.488
0.135824	254.554
0.167894	255.228
0.188645	255.911
0.205623	257.294
0.218828	257.285
0.249011	257.263
0.275421	257.244
0.299945	258.622
0.315037	258.611
0.399927	259.248
0.426337	259.229
0.477271	259.89
0.490476	259.88
0.545183	260.539
0.588571	260.508
0.605549	259.798
0.669689	261.147
0.731941	260.405
0.760238	260.384
0.782875	261.066
0.839469	261.025
0.848901	261.018
0.901721	261.678
0.937564	262.35
0.963974	263.726
