Adsorption isotherm of Nitrogen on IRMOF-1/GO
DOI: 10.1039/B908862h
Adsorbate Nitrogen: InChIKey IJGRMHOSHXDMSA-UHFFFAOYSA-N
Temperature: 77 K
Tabular data in the source: 0
pressure (bar)	uptake (cm3(STP)/g)
-2.78e-17	200.233
0.00754579	204.413
0.0226374	211.379
0.0320696	215.558
0.0528205	219.032
0.0622527	221.118
0.0980952	223.185
0.124505	224.562
0.158462	226.63
0.186758	227.308
0.207509	227.991
0.215055	227.985
0.245238	229.359
0.269762	229.341
0.316923	229.307
0.365971	229.97
0.394267	229.949
0.42445	231.323
0.473498	231.288
0.486703	231.976
0.54141	231.239
0.586685	231.904
0.603663	231.892
0.660256	232.549
0.750806	232.484
0.758352	232.479
0.782875	233.159
0.835696	233.818
0.848901	233.111
0.897949	233.774
0.935678	233.747
0.963974	235.819
