Adsorption isotherm of Nitrogen on Carbon
DOI: 10.1016/s0008-6223(03)00202-1
Adsorbate Nitrogen: InChIKey IJGRMHOSHXDMSA-UHFFFAOYSA-N
Temperature: 319 K
Tabular data in the source: 0
pressure (bar)	uptake (mmol/g)
7.09646	0.0174709
14.195	0.0338089
28.5894	0.066485
43.3781	0.0918371
56.3922	0.109302
68.8148	0.125077
83.0119	0.138034
97.0119	0.149865
111.012	0.160569
125.012	0.167893
