Adsorption isotherm of Carbon Dioxide on Carbon
DOI: 10.1016/s0008-6223(03)00202-1
Adsorbate Carbon Dioxide: InChIKey CURLTUGMZLYLDI-UHFFFAOYSA-N
Temperature: 318 K
Tabular data in the source: 0
pressure (bar)	uptake (mmol/g)
6.70209	0.191561
8.08237	0.223111
14.5894	0.322266
27.2091	0.454097
42.7866	0.553252
55.9979	0.602829
69.4063	0.633252
83.4063	0.661421
96.6176	0.676069
109.829	0.685083
123.04	0.688463
