Adsorption isotherm of Carbon Dioxide on Carbon
DOI: 10.1016/s0008-6223(03)00202-1
Adsorbate Carbon Dioxide: InChIKey CURLTUGMZLYLDI-UHFFFAOYSA-N
Temperature: 319 K
Tabular data in the source: 0
pressure (bar)	uptake (mmol/g)
7.29364	0.199176
15.7725	0.309599
28.7866	0.388472
41.9979	0.43974
55.012	0.449599
69.2091	0.443683
83.9979	0.410162
96.4204	0.351007
108.251	0.291852
123.04	0.238613
