Adsorption isotherm of Nitrogen on Carbon
DOI: 10.1016/s0008-6223(03)00202-1
Adsorbate Nitrogen: InChIKey IJGRMHOSHXDMSA-UHFFFAOYSA-N
Temperature: 318 K
Tabular data in the source: 0
pressure (bar)	uptake (mmol/g)
6.72831	0.945338
18.1408	1.70045
28.5523	2.1581
41.1661	2.5471
54.9813	2.7988
69.7976	2.97042
83.2124	3.07339
97.0275	3.15348
110.843	3.19924
124.458	3.22213
135.87	3.23357
