Adsorption isotherm of Carbon Dioxide on Carbon
DOI: 10.1016/s0008-6223(03)00202-1
Adsorbate Carbon Dioxide: InChIKey CURLTUGMZLYLDI-UHFFFAOYSA-N
Temperature: 319 K
Tabular data in the source: 0
pressure (bar)	uptake (mmol/g)
3.34998	2.86209
5.12463	3.48181
7.49082	4.22547
11.0401	4.9466
17.5472	5.75787
24.4486	6.34378
32.7303	6.72688
42.3922	6.97477
54.8148	7.09871
69.9979	6.85083
82.4204	6.40012
91.688	5.38604
96.8148	4.77759
99.9697	4.1466
109.829	3.40294
115.744	2.91843
129.547	2.63674
136.251	2.38885
