Adsorption isotherm of Nitrogen on Carbon
DOI: 10.1016/s0008-6223(03)00202-1
Adsorbate Nitrogen: InChIKey IJGRMHOSHXDMSA-UHFFFAOYSA-N
Temperature: 319 K
Tabular data in the source: 0
pressure (bar)	uptake (mmol/g)
14.5894	0.0332455
30.1669	0.0580343
38.4486	0.070992
43.5753	0.0670483
55.6035	0.0845131
70.7866	0.099161
85.9697	0.108175
98.7866	0.113246
111.801	0.125077
124.618	0.136344
