Adsorption isotherm of Methane on Carbon
DOI: 10.1016/s0008-6223(03)00202-1
Adsorbate Methane: InChIKey VNWKTOKETHGBQD-UHFFFAOYSA-N
Temperature: 318 K
Tabular data in the source: 0
pressure (bar)	uptake (mmol/g)
5.72721	1.82631
12.5347	2.75304
26.3499	3.61112
35.7602	3.89715
48.3741	4.17174
61.3884	4.29759
76.6051	4.3548
89.6194	4.3548
103.234	4.29759
117.05	4.22895
132.466	4.12598
