Adsorption isotherm of Methane on Carbon
DOI: 10.1016/s0008-6223(03)00202-1
Adsorbate Methane: InChIKey VNWKTOKETHGBQD-UHFFFAOYSA-N
Temperature: 319 K
Tabular data in the source: 0
pressure (bar)	uptake (mmol/g)
6.70209	0.0867728
13.9979	0.144238
27.6035	0.217477
41.9979	0.287336
56.5894	0.310998
69.2091	0.336914
83.9979	0.358322
97.2091	0.37635
110.815	0.386491
124.026	0.401139
