Adsorption isotherm of Carbon Dioxide on Carbon
DOI: 10.1016/s0008-6223(03)00202-1
Adsorbate Carbon Dioxide: InChIKey CURLTUGMZLYLDI-UHFFFAOYSA-N
Temperature: 319 K
Tabular data in the source: 0
pressure (bar)	uptake (mmol/g)
6.30772	0.26819
13.6035	0.396359
27.4063	0.599458
41.6035	0.68819
54.8148	0.74143
69.6035	0.796641
83.4063	0.790726
87.1528	0.782838
95.6317	0.735514
103.322	0.676359
107.66	0.62312
119.491	0.583683
