Adsorption isotherm of Methane on Carbon
DOI: 10.1016/s0008-6223(03)00202-1
Adsorbate Methane: InChIKey VNWKTOKETHGBQD-UHFFFAOYSA-N
Temperature: 318 K
Tabular data in the source: 0
pressure (bar)	uptake (mmol/g)
7.68801	0.0490202
14.7866	0.0862033
27.8007	0.143668
42.195	0.191555
55.2091	0.229302
69.4063	0.259161
83.2091	0.283386
96.6176	0.304231
111.012	0.317753
124.618	0.338034
