Adsorption isotherm of Nitrogen on Carbon
DOI: 10.1016/s0008-6223(03)00202-1
Adsorbate Nitrogen: InChIKey IJGRMHOSHXDMSA-UHFFFAOYSA-N
Temperature: 319 K
Tabular data in the source: 0
pressure (bar)	uptake (mmol/g)
6.70209	0.500866
14.5894	0.723683
21.688	0.843965
35.4908	0.966219
43.181	1.01157
50.8711	1.04706
60.9274	1.06875
72.7584	1.09439
83.0119	1.05889
92.0824	1.00763
103.913	0.960303
123.04	0.853824
