Adsorption isotherm of Methane on Carbon
DOI: 10.1016/s0008-6223(03)00202-1
Adsorbate Methane: InChIKey VNWKTOKETHGBQD-UHFFFAOYSA-N
Temperature: 319 K
Tabular data in the source: 0
pressure (bar)	uptake (mmol/g)
15.7725	0.127336
21.4908	0.164519
38.6458	0.202829
47.3218	0.218604
50.0824	0.224238
64.2796	0.242266
79.4627	0.256914
91.8852	0.270435
107.66	0.287336
112.984	0.298604
123.434	0.299731
126.392	0.303111
136.843	0.312125
