Adsorption isotherm of Ethane on Carbon
DOI: 10.1016/s0008-6223(03)00202-1
Adsorbate Ethane: InChIKey OTMSDBZUPAUEDD-UHFFFAOYSA-N
Temperature: 318 K
Tabular data in the source: 0
pressure (bar)	uptake (mmol/g)
5.71618	3.81984
11.6317	5.08181
18.7303	5.83674
25.8289	6.32125
34.5049	6.64801
48.8993	6.86209
59.1528	6.87336
68.6176	6.74942
79.6598	6.37759
86.1669	5.96069
92.0824	5.38604
100.758	4.16914
111.012	3.3128
129.153	2.65928
