Adsorption isotherm of Hydrogen on PCN-12-Si
DOI: 10.1021/Ic900478z
Adsorbate Hydrogen: InChIKey UFHFLCQGNIYNRP-UHFFFAOYSA-N
Temperature: 77 K
Tabular data in the source: 0
pressure (bar)	uptake (wt%)
0.00248026	0.193295
0.016476	1.28403
0.0198421	1.54636
0.191334	0.911331
0.474261	1.96077
0.657092	2.20938
1.11027	2.52714
1.65451	2.94159
2.28786	3.30086
3.99978	3.71584
6.34043	4.13112
10.0284	4.54702
15.2435	4.97743
24.1399	5.29908
38.1569	5.69212
59.8969	5.96445
