Adsorption isotherm of Hydrogen on PCN-12-Si
DOI: 10.1021/Ic900478z
Adsorbate Hydrogen: InChIKey UFHFLCQGNIYNRP-UHFFFAOYSA-N
Temperature: 77 K
Tabular data in the source: 0
pressure (bar)	uptake (wt%)
0.00385356	0.00385356
0.00963391	0.155039
0.0134875	0.232558
0.017341	0.294574
0.0231214	0.325581
0.0308285	0.426357
0.0366089	0.449612
0.0500963	0.527132
0.102119	0.79845
0.150289	0.976744
0.202312	1.14729
0.254335	1.29457
0.306358	1.42636
0.360308	1.54264
0.408478	1.65891
0.462428	1.75969
0.514451	1.86047
0.564547	1.94574
0.61657	2.03101
0.67052	2.10853
0.709056	2.17054
0.768786	2.27132
0.811175	2.32558
0.870906	2.42636
0.911368	2.48062
0.973025	2.56589
