Adsorption isotherm of Nitrogen on PCN-12-Si
DOI: 10.1021/Ic900478z
Adsorbate Nitrogen: InChIKey IJGRMHOSHXDMSA-UHFFFAOYSA-N
Temperature: 77 K
Tabular data in the source: 0
pressure (bar)	uptake (cm3(STP)/g)
0.00499422	475.291
0.00702513	455.265
0.00884705	499.041
0.0146558	525.667
0.0185086	549.417
0.0302707	558.499
0.0577497	569.329
0.0813222	572.77
0.102917	579.878
0.122562	582.472
0.148112	582.246
0.169728	582.81
0.197245	582.189
0.218861	582.752
0.240483	581.68
0.264067	581.849
0.289616	581.623
0.321061	581.848
0.407554	575.923
0.505852	565.992
0.602168	561.365
0.702432	551.039
0.792853	545.961
0.889121	556.057
