Adsorption isotherm of Hydrogen on PCN-12-Si
DOI: 10.1021/Ic900478z
Adsorbate Hydrogen: InChIKey UFHFLCQGNIYNRP-UHFFFAOYSA-N
Temperature: 77 K
Tabular data in the source: 0
pressure (bar)	uptake (wt%)
0.0106297	0.828407
0.101868	0.938903
0.106828	1.32549
0.473198	1.87793
0.745496	2.09896
0.927972	2.31995
1.01992	2.48568
1.47328	2.81725
2.64573	3.19057
3.99818	3.59158
6.42813	3.96548
9.9354	4.29846
15.3285	4.60469
24.1324	4.71919
38.2348	4.7671
60.1474	4.48725
