Adsorption isotherm of Nitrogen on Zeolite 13X
DOI: 10.1021/je5008235
Article source: Table 4
Adsorbate Nitrogen: InChIKey IJGRMHOSHXDMSA-UHFFFAOYSA-N
Kind: experiment
Temperature: 303 K
Tabular data in the source: 0
pressure (bar)	uptake (mmol/g)
0.047	0.01651
0.196	0.05303
0.394	0.11316
0.609	0.16159
0.794	0.20086
1.035	0.25223
1.32	0.30849
1.601	0.37637
2.006	0.44425
2.993	0.61511
3.965	0.75734
4.996	0.89704
5.961	1.0175
6.965	1.1449
7.979	1.27753
9.042	1.40148
10.016	1.51589
