Adsorption isotherm of Nitrogen, Methane on Zeolite 13X
DOI: 10.1021/je5008235
Article source: Table 10
Adsorbate Nitrogen: InChIKey IJGRMHOSHXDMSA-UHFFFAOYSA-N
Adsorbate Methane: InChIKey VNWKTOKETHGBQD-UHFFFAOYSA-N
Kind: experiment
Temperature: 323 K
Tabular data in the source: 0
pressure (bar)	Nitrogen fraction	Nitrogen uptake (mmol/g)	Methane fraction	Methane uptake (mmol/g)	total uptake (mmol/g)
7.0251	0.699	0.5312	0.3015	0.5045	1.0357
4.9952	0.699	0.4562	0.301	0.4117	0.8679
3.0937	0.699	0.2934	0.3009	0.2621	0.5555
1.0892	0.699	0.1222	0.3007	0.1023	0.2245
7.0112	0.534	0.4211	0.4665	0.7841	1.2052
5.0961	0.533	0.3377	0.4667	0.6219	0.9596
3.0509	0.534	0.2376	0.4663	0.3964	0.634
1.0544	0.534	0.0894	0.4664	0.1427	0.2321
7.0178	0.167	0.1278	0.8335	1.3372	1.465
5.0571	0.167	0.1045	0.8334	1.0458	1.1503
3.0636	0.167	0.0732	0.8333	0.6947	0.7679
5.782	0.114	0.0774	0.8865	1.2661	1.3435
7.0252	0.059	0.044	0.9406	1.4939	1.5379
5.0225	0.06	0.0354	0.9405	1.1765	1.2119
3.0014	0.06	0.0242	0.9404	0.7802	0.8044
