Adsorption isotherm of Methane on Zeolite 13X
DOI: 10.1021/je5008235
Article source: Table 3
Adsorbate Methane: InChIKey VNWKTOKETHGBQD-UHFFFAOYSA-N
Kind: experiment
Temperature: 303 K
Tabular data in the source: 0
pressure (bar)	uptake (mmol/g)
0.0487	0.02806
0.1894	0.09255
0.3764	0.18224
0.5836	0.27696
0.7851	0.36474
1.0204	0.46275
1.2794	0.58188
1.5974	0.70209
1.9588	0.8692
2.897	1.22149
3.9116	1.51958
4.9093	1.8062
5.98	2.04752
7.0328	2.25732
8.0633	2.42239
9.042	2.55129
10.044	2.70334
