Adsorption isotherm of Nitrogen on Zeolite 13X
DOI: 10.1021/je5008235
Article source: Table 4
Adsorbate Nitrogen: InChIKey IJGRMHOSHXDMSA-UHFFFAOYSA-N
Kind: experiment
Temperature: 323 K
Tabular data in the source: 0
pressure (bar)	uptake (mmol/g)
0.058	0.0152
0.192	0.03906
0.393	0.07734
0.589	0.11751
0.791	0.14747
0.988	0.18112
1.196	0.21429
1.392	0.24362
1.6	0.27117
1.973	0.32077
2.473	0.39219
2.972	0.45229
3.971	0.57861
4.935	0.68359
5.972	0.78665
6.951	0.87916
7.98	0.97314
8.964	1.0666
9.975	1.14602
