Adsorption isotherm of Nitrogen, Methane on Zeolite 13X
DOI: 10.1021/je5008235
Article source: Table 9
Adsorbate Nitrogen: InChIKey IJGRMHOSHXDMSA-UHFFFAOYSA-N
Adsorbate Methane: InChIKey VNWKTOKETHGBQD-UHFFFAOYSA-N
Kind: experiment
Temperature: 303 K
Tabular data in the source: 0
pressure (bar)	Nitrogen fraction	Nitrogen uptake (mmol/g)	Methane fraction	Methane uptake (mmol/g)	total uptake (mmol/g)
7.0473	0.7	0.7633	0.3001	0.6816	1.4449
5.0146	0.7	0.6186	0.3005	0.5421	1.1607
3.0738	0.7	0.4311	0.2997	0.3738	0.8049
1.0889	0.701	0.1788	0.2995	0.1456	0.3244
6.9785	0.534	0.5331	0.4664	1.0348	1.5679
5.0356	0.535	0.459	0.4652	0.8724	1.3314
3.0659	0.535	0.2264	0.4654	0.5589	0.7853
1.0484	0.535	0.1392	0.4652	0.2138	0.353
6.9602	0.168	0.1584	0.8322	1.7712	1.9296
5.0479	0.168	0.1348	0.8319	1.4362	1.571
2.9376	0.168	0.0219	0.8317	0.992	1.0139
6.1984	0.114	0.0976	0.8857	1.6966	1.7942
4.9414	0.114	0.0887	0.8856	1.487	1.5757
3.0412	0.115	0.066	0.8851	0.9743	1.0403
1.0852	0.116	0.0289	0.8845	0.4534	0.4823
6.9501	0.061	0.0559	0.9391	1.943	1.9989
5.0187	0.061	0.0463	0.939	1.5434	1.5897
3.0472	0.061	0.0332	0.9388	1.0446	1.0778
