Adsorption isotherm of Methane on Zeolite 13X
DOI: 10.1021/je5008235
Article source: Table 3
Adsorbate Methane: InChIKey VNWKTOKETHGBQD-UHFFFAOYSA-N
Kind: experiment
Temperature: 323 K
Tabular data in the source: 0
pressure (bar)	uptake (mmol/g)
0.0501	0.02285
0.1897	0.06992
0.3924	0.13475
0.5934	0.20642
0.7937	0.26795
1.0141	0.34571
1.3285	0.43671
1.5882	0.51125
2.0081	0.63441
3.0197	0.91449
4.0107	1.16615
5.0255	1.41313
5.9711	1.60895
7.0439	1.82082
8.1165	2.00944
9.1031	2.16778
10.041	2.30159
