Adsorption isotherm of Nitrogen on Pd@Zn - BDC
DOI: 10.1039/c4nj01985g
Article source: Figure 5
Adsorbate Nitrogen: InChIKey IJGRMHOSHXDMSA-UHFFFAOYSA-N
Kind: experiment
Temperature: 77 K
Tabular data in the source: 0
pressure (bar)	uptake (cm3(STP)/g)
0.003005	1.953
0.003625	4.897
0.00448	8.19
0.004785	10.945
0.004789	10.96
0.005094	16.922
0.005246	20.34
0.005473	25.929
0.005476	25.946
0.005704	27.95
0.006323	32.166
0.006945	33.988
0.008501	36.857
0.010762	39.152
0.014349	40.649
0.021212	41.947
0.02449	41.273
0.041976	43.763
0.042044	43.766
0.046569	41.898
0.060456	42.746
0.061234	42.973
0.066073	42.821
0.07559	43.096
0.080818	43.245
0.081668	44.754
0.086435	43.071
0.098997	43.645
0.101546	44.225
0.105472	43.72
0.126112	44.293
0.130389	43.539
0.151768	44.498
0.155946	43.964
0.176833	44.687
0.180029	44.31
0.20303	45.128
0.206864	44.798
0.228391	44.908
0.231193	44.641
0.253211	45.097
0.256701	44.893
0.277736	45.711
0.28162	45.177
0.304375	45.476
0.307275	45.177
0.328605	45.743
0.332931	45.429
0.354753	45.712
0.358685	45.508
0.379279	45.87
0.383849	45.697
0.405179	45.886
0.408472	45.839
0.430983	46.154
0.434522	45.871
0.455607	46.107
0.459686	45.935
0.480279	46.234
0.485096	45.951
0.506132	46.721
0.510212	46.234
0.531197	46.753
0.535327	46.298
0.555575	47.084
0.560295	46.188
0.580838	47.132
0.585705	46.283
0.607232	47.038
0.611902	46.268
0.632739	47.29
0.636821	46.394
0.657904	47.275
0.662231	46.41
0.682085	47.542
0.68705	46.536
0.708134	47.527
0.712805	46.38
0.733525	47.7
0.73852	46.352
0.759054	48.174
0.7637	46.471
0.783283	48.204
0.789527	46.523
0.808594	48.865
0.814642	46.649
0.834298	49.604
0.840245	50.576
0.840249	50.576
0.865954	47.169
0.866932	47.663
0.891015	52.221
0.891938	52.335
0.916083	48.93
0.917355	49.473
0.941442	50.785
0.943105	57.669
0.966112	53.552
0.968166	54.745
0.985166	66.346
0.992646	59.273
1.00856	66.409
1.01102	68.011
1.01229	72.885
