Adsorption isotherm of Nitrogen on Zn-BDC
DOI: 10.1039/c4nj01985g
Article source: Figure 5
Adsorbate Nitrogen: InChIKey IJGRMHOSHXDMSA-UHFFFAOYSA-N
Kind: experiment
Temperature: 77 K
Tabular data in the source: 0
pressure (bar)	uptake (cm3(STP)/g)
0.00182	1.326
0.002439	8.651
0.002563	4.573
0.003306	11.027
0.003554	13.68
0.00405	19.937
0.004174	16.74
0.004297	16.848
0.005041	40.33
0.005165	25.877
0.005413	45.597
0.00566	50.863
0.005784	56.09
0.006032	61.317
0.006155	68.96
0.006279	82.225
0.006527	87.492
0.006651	92.758
0.006899	97.985
0.007023	103.252
0.007146	108.479
0.007395	113.706
0.007518	121.737
0.007642	124.12
0.008758	131.01
0.01136	135.999
0.015695	141.543
0.016191	137.821
0.022014	140.117
0.025482	145.383
0.031305	142.413
0.041711	144.234
0.047039	148.392
0.054596	145.698
0.067605	150.727
0.070702	147.559
0.087023	152.333
0.090858	148.404
0.103542	149.377
0.108065	153.337
0.130584	150.004
0.131075	154.31
0.154084	150.883
0.157722	155.094
0.180714	152.138
0.182276	156.229
0.206782	152.361
0.209123	156.702
0.230897	153.308
0.233473	157.274
0.256659	154.022
0.259447	157.368
0.281995	154.575
0.283968	157.57
0.306133	155.099
0.310035	158.292
0.331179	155.245
0.333966	158.314
0.355958	155.57
0.360727	158.65
0.381769	155.993
0.38531	158.821
0.406548	156.478
0.410383	159.26
0.431776	156.942
0.435926	159.714
0.457112	157.139
0.460766	159.871
0.482757	157.632
0.48635	160.166
0.50772	157.651
0.511623	160.68
0.532757	158.152
0.537722	160.777
0.558082	158.558
0.562541	161.073
0.583541	158.814
0.586824	161.012
0.608636	159.198
0.613319	161.218
0.63415	159.346
0.638672	161.801
0.660069	160.043
0.66358	162.113
0.684965	159.942
0.689569	162.71
0.710095	160.339
0.714856	162.609
0.735459	160.962
0.739753	162.982
0.760392	161.239
0.765534	163.358
0.786161	161.436
0.790559	163.673
0.812101	162.329
0.815378	164.175
0.83677	162.522
0.840487	163.183
0.84761	164.877
0.86283	163.125
0.873366	165.643
0.887193	163.806
0.899643	166.656
0.913149	165.123
0.924507	168.203
0.937753	166.613
0.951957	170.478
0.963137	168.415
0.978066	175.225
0.987234	172.829
0.994616	180.503
1.00386	178.837
1.00743	182.192
1.0099	185.578
