Adsorption isotherm of Argon on Zn-BDC
DOI: 10.1039/c4nj01985g
Article source: Figure 5
Adsorbate Argon: InChIKey XKRFYHLGVUSROY-UHFFFAOYSA-N
Kind: experiment
Temperature: 77 K
Tabular data in the source: 0
pressure (bar)	uptake (cm3(STP)/g)
0.000415	1.332
0.000613	5.482
0.000712	9.632
0.000813	13.782
0.00101	17.932
0.001111	22.114
0.00121	26.295
0.00131	30.445
0.001409	34.627
0.001511	42.958
0.00161	47.171
0.00171	51.321
0.001908	55.502
0.002007	59.652
0.002206	63.519
0.002207	63.568
0.002308	76.284
0.002407	79.868
0.00241	84.584
0.002609	92.884
0.002708	97.034
0.002908	105.334
0.003108	113.665
0.004288	116.149
0.005273	118.821
0.006257	121.085
0.007438	123.474
0.008226	125.203
0.008916	128.756
0.010392	131.208
0.013245	133.754
0.018066	136.929
0.022002	139.57
0.028395	141.55
0.02987	136.96
0.034003	143.122
0.042758	145.479
0.052496	147.397
0.062629	148.905
0.065578	143.906
0.081613	151.293
0.081809	151.307
0.08968	152.079
0.101973	147.928
0.122434	149.656
0.123714	155.001
0.142402	151.132
0.162665	152.294
0.182633	154.4
0.183816	158.392
0.20388	155.499
0.233194	160.716
0.274014	157.632
0.282904	162.305
0.322407	159.658
0.33287	163.5
0.373779	161.351
0.384398	165.044
0.424525	162.795
0.434988	166.638
0.475272	164.19
0.485579	168.082
0.526956	165.434
0.536637	169.226
0.577132	167.226
0.586552	170.156
0.627733	168.394
0.637767	171.317
0.678194	169.649
0.688424	172.289
0.729244	170.903
0.739278	173.512
0.778706	172.125
0.791348	174.838
0.817187	175.609
0.829518	174.103
0.841788	176.716
0.866956	178.063
0.87994	176.647
0.885939	177.181
0.893711	179.57
0.910432	178.972
0.921254	182.398
0.935418	181.831
0.960995	187.457
