Adsorption isotherm of Carbon Dioxide on Zn-BDC
DOI: 10.1039/c4nj01985g
Article source: Figure 6
Adsorbate Carbon Dioxide: InChIKey CURLTUGMZLYLDI-UHFFFAOYSA-N
Kind: experiment
Temperature: 273 K
Tabular data in the source: 0
pressure (bar)	uptake (cm3(STP)/g)
0.003134	0.2999
0.009746	0.7385
0.018601	1.1907
0.026747	1.6969
0.035129	2.1355
0.04245	2.4999
0.058746	3.1747
0.076578	3.8967
0.090631	4.3758
0.107399	5.0304
0.122517	5.5364
0.138813	6.1167
0.154638	6.6497
0.182154	7.6011
0.209081	8.512
0.235771	9.4229
0.262657	10.3016
0.288998	11.1638
0.314961	12.0796
0.341395	12.9793
0.368694	13.8193
0.394286	14.7545
0.419943	15.657
0.446189	16.5621
0.472153	17.4618
0.49836	18.4105
0.524814	19.2978
0.55044	20.2695
0.575771	21.1838
0.60305	22.2061
0.628619	23.1305
0.654717	24.1292
0.680637	25.0975
0.706559	26.0928
0.732421	27.0779
0.759346	28.1576
0.784781	29.1348
0.810655	30.1415
0.83705	31.1097
0.863442	32.1287
0.889955	33.1206
0.917174	34.2036
0.944513	35.1955
0.971971	36.1199
0.998129	37.0544
1.02516	38.0489
0.034401	3.9452
0.068061	5.6232
0.103505	7.135
0.137917	8.4806
0.173248	9.7366
0.20816	10.9558
0.242481	12.175
0.277512	13.4212
0.312897	14.6235
0.346981	15.8393
0.381775	17.0855
0.418695	18.3587
0.452367	19.5407
0.487043	20.7768
0.522545	22.0669
0.557221	23.3029
0.592191	24.5255
0.627339	25.7649
0.662134	26.9469
0.696219	28.1323
0.731602	29.392
0.766397	30.5369
0.801547	31.6548
0.836815	32.7389
0.872024	33.7757
0.888211	34.2823
0.922828	35.3089
0.959161	36.3153
