Adsorption isotherm of Carbon Dioxide on Zn-BDC
DOI: 10.1039/c4nj01985g
Article source: Figure 6
Adsorbate Carbon Dioxide: InChIKey CURLTUGMZLYLDI-UHFFFAOYSA-N
Kind: experiment
Temperature: 273 K
Tabular data in the source: 0
pressure (bar)	uptake (cm3(STP)/g)
0.001899	0.0758
0.010679	0.246
0.018269	0.4844
0.030176	0.7824
0.039105	1.0292
0.045947	1.6251
0.050862	1.3102
0.059643	1.4975
0.069317	1.7869
0.083157	2.1955
0.097595	2.4765
0.098035	3.0212
0.114115	2.8596
0.134505	3.2427
0.147	4.1961
0.156234	3.7535
0.183173	4.3325
0.198942	5.3113
0.214725	5.0391
0.249477	6.4123
0.250665	5.7368
0.291773	6.5545
0.300035	7.426
0.342533	7.548
0.351902	8.4327
0.399165	8.6475
0.402063	9.441
0.452131	10.4493
0.466859	9.983
0.503605	11.463
0.544767	11.4628
0.555104	12.4204
0.591947	12.4164
0.606005	13.425
0.635853	13.3401
0.656609	14.4552
0.707586	15.4471
0.74256	15.4473
0.75791	16.4607
0.804931	16.7852
0.808943	17.4202
0.842491	18.1365
0.868011	18.1907
0.893287	19.1501
0.940069	19.7179
0.944792	20.1773
1.01207	21.4443
