Adsorption isotherm of Nitrogen on (H2dab)[Zn2(ox)3]
DOI: 10.1021/Ja203291n
Adsorbate Nitrogen: InChIKey IJGRMHOSHXDMSA-UHFFFAOYSA-N
Temperature: 77 K
Tabular data in the source: 0
pressure (bar)	uptake (cm3(STP)/g)
0.11836	0.580263
0.143634	0.587378
0.166441	0.0468514
0.190483	0.327092
0.235485	0.613233
0.287881	0.0810356
0.335967	0.914991
0.38405	0.928526
0.432748	0.668761
0.492545	0.959066
0.528301	1.51608
0.556658	1.52406
0.586865	1.80604
0.668239	2.64936
0.718787	2.39012
0.748993	2.39862
0.783518	3.50223
0.817423	3.51177
0.850711	3.52114
0.881537	4.35024
0.912983	6.2734
0.934566	7.92032
