Adsorption isotherm of Methanol on (H2dab)[Zn2(ox)3]
DOI: 10.1021/Ja203291n
Adsorbate Methanol: InChIKey OKKJLVBELUTLKV-UHFFFAOYSA-N
Temperature: 298 K
Tabular data in the source: 0
pressure (bar)	uptake (cm3(STP)/g)
0.000800808	2.48952
0.00156958	2.24078
0.00229565	2.53809
0.00303239	4.20437
0.00380117	4.22934
0.00452723	4.80038
0.0051572	7.8318
0.00524262	18.5098
0.00526398	30.0068
0.00533872	40.6844
0.0053494	52.4548
0.00539211	64.5
0.00542414	75.7237
0.00549888	86.9487
0.00552024	98.4458
0.00556295	109.67
0.00572311	119.255
0.00580853	129.386
0.00597937	139.245
0.00619292	147.738
0.00645985	155.958
0.00684424	162.54
0.00730337	167.482
0.00784792	171.058
0.00844585	173.267
0.00910786	175.205
0.00982324	176.323
0.0105493	177.441
0.0113181	178.561
0.0120335	179.132
0.0127702	179.977
0.0135283	180.823
0.0142223	182.214
0.0149164	184.426
0.0155891	185.543
0.016187	188.847
