Adsorption isotherm of 1-Butanol on (H2dab)[Zn2(ox)3]
DOI: 10.1021/Ja203291n
Adsorbate 1-Butanol: InChIKey LRHPLDYGYMQRHN-UHFFFAOYSA-N
Temperature: 298 K
Tabular data in the source: 0
pressure (bar)	uptake (cm3(STP)/g)
0.00216441	0.45898
0.00264674	0.500264
0.00313312	0.268172
0.00407752	0.622728
0.00464091	0.67095
0.00498544	0.700439
0.00515162	0.44094
0.00542724	1.2857
0.00575554	1.04008
0.00631894	0.814576
