Adsorption isotherm of Water on (H2dab)[Zn2(ox)3]
DOI: 10.1021/Ja203291n
Adsorbate Water: InChIKey XLYOFNOQVPJJNP-UHFFFAOYSA-N
Temperature: 298 K
Tabular data in the source: 0
pressure (bar)	uptake (cm3(STP)/g)
9.95e-05	5.20246
0.000219003	11.2264
0.000238913	17.7961
0.00031855	23.272
0.000398188	34.7697
0.000418097	29.5693
0.000457916	45.9934
0.000477825	40.793
0.000557463	52.2907
0.000935741	69.8156
0.00133393	75.297
0.00167239	81.051
0.00205067	85.4372
0.00260813	90.1002
0.00374296	93.9521
0.00565426	96.1752
0.00802348	96.4902
0.0105122	97.9022
0.0130008	98.493
0.015589	100.18
0.0181574	100.225
0.0195311	104.355
0.0201483	108.745
0.0204469	113.951
0.020865	120.528
0.0210044	124.362
0.0213229	130.937
0.0215818	136.964
0.0216415	142.987
0.021761	147.916
0.0220397	154.49
0.0220596	161.06
0.0224578	170.373
0.0225971	183.24
0.0228759	194.468
0.0229157	200.764
0.0238713	247.587
0.0240505	253.339
0.0241302	253.066
0.0242297	258.816
0.0244686	264.295
0.0246677	270.047
0.0249863	276.074
0.0250062	276.074
0.0255636	281.559
0.0264197	285.132
0.0277935	288.714
0.0292071	292.571
