Adsorption isotherm of 2-Propanol on (H2dab)[Zn2(ox)3]
DOI: 10.1021/Ja203291n
Adsorbate 2-Propanol: InChIKey KFZMGEQAYNKOFK-UHFFFAOYSA-N
Temperature: 298 K
Tabular data in the source: 0
pressure (bar)	uptake (cm3(STP)/g)
0.0190754	1.05777
0.0316339	1.76098
0.0439126	5.7454
