Adsorption isotherm of Ethanol on (H2dab)[Zn2(ox)3]
DOI: 10.1021/Ja203291n
Adsorbate Ethanol: InChIKey LFQSCWFLJHTTHZ-UHFFFAOYSA-N
Temperature: 298 K
Tabular data in the source: 0
pressure (bar)	uptake (cm3(STP)/g)
0.00331629	1.94659
0.00644415	1.97538
0.00945896	2.00314
0.0121723	2.30184
0.0156393	3.42864
0.0182396	4.27375
0.0209906	4.29908
0.024533	83.1638
0.0246084	4.6061
0.0247591	81.5235
0.0249099	87.5468
0.0250606	64.0081
0.025136	76.0526
0.0252113	99.8671
0.0252867	58.5357
0.0256636	53.0647
0.0261911	43.763
0.0262665	106.446
0.0263796	36.3742
0.026568	27.3431
0.0267187	30.9029
0.0274348	23.2453
0.0275478	116.312
0.0276232	20.236
0.0281508	13.6716
0.0281885	17.504
0.0289045	11.215
0.0289798	7.93102
0.0295828	119.615
0.0314671	120.728
0.0325599	124.296
0.0349718	125.961
0.036027	129.529
0.0395317	131.477
0.0425465	132.052
0.0456744	133.723
0.0485761	135.119
0.0515909	136.241
0.0545304	137.363
0.0567161	139.847
