Adsorption isotherm of Acetone on (H2dab)[Zn2(ox)3]
DOI: 10.1021/Ja203291n
Adsorbate Acetone: InChIKey CSCPPACGZOOCGX-UHFFFAOYSA-N
Temperature: 298 K
Tabular data in the source: 0
pressure (bar)	uptake (cm3(STP)/g)
0.0102948	0.570342
0.0580254	1.22395
0.0709719	0.15785
0.108096	0.787863
0.125878	0.55369
0.148339	2.24598
0.216191	3.21806
