Adsorption isotherm of Hydrogen on (H2dab)[Zn2(ox)3]
DOI: 10.1021/Ja203291n
Adsorbate Hydrogen: InChIKey UFHFLCQGNIYNRP-UHFFFAOYSA-N
Temperature: 77 K
Tabular data in the source: 0
pressure (bar)	uptake (cm3(STP)/g)
16.4343	0.59189
26.8402	0.346874
37.183	0.648632
45.4321	1.49161
47.5891	0.67709
81.0923	2.13608
88.8333	1.88377
96.0671	2.72398
99.3666	2.733
