Adsorption isotherm of Acetonitrile on (H2dab)[Zn2(ox)3]
DOI: 10.1021/Ja203291n
Adsorbate Acetonitrile: InChIKey WEVYAHXRMPXWCK-UHFFFAOYSA-N
Temperature: 298 K
Tabular data in the source: 0
pressure (bar)	uptake (cm3(STP)/g)
0.00298269	0.303558
0.00343356	0.581791
0.0121388	0.668868
0.0129019	1.49767
0.0240349	1.06159
0.0293066	1.93549
0.0317691	1.13895
0.0342315	1.4373
0.0361044	2.27721
0.0401969	2.59187
0.041168	3.14902
0.0434224	2.62413
0.0457114	3.19447
0.0480004	3.76481
0.0499427	5.15285
0.0518849	5.99345
0.0534109	9.56711
