Adsorption isotherm of 1-Propanol on (H2dab)[Zn2(ox)3]
DOI: 10.1021/Ja203291n
Adsorbate 1-Propanol: InChIKey BDERNNFJNOPAEC-UHFFFAOYSA-N
Temperature: 298 K
Tabular data in the source: 0
pressure (bar)	uptake (cm3(STP)/g)
0.0017146	0.320904
0.00247104	0.34172
0.00621542	0.992201
0.0071988	0.745539
0.010338	0.284477
0.0112584	0.309803
0.0122291	0.610238
0.0132503	1.18578
0.0139942	1.20625
0.0158222	1.25656
0.0169317	2.38198
0.0171838	2.11519
0.0183059	2.41979
0.0189615	2.71155
