Adsorption isotherm of Acetaldehyde on (H2dab)[Zn2(ox)3]
DOI: 10.1021/Ja203291n
Adsorbate Acetaldehyde: InChIKey IKHGUXGNUITLKF-UHFFFAOYSA-N
Temperature: 288 K
Tabular data in the source: 0
pressure (bar)	uptake (cm3(STP)/g)
0.0495648	0.303558
0.0570572	0.581791
0.0847213	0.872166
0.126217	0.349699
0.167714	0.922123
0.210362	1.22152
0.291049	1.81753
0.333698	1.56948
0.457034	3.01234
0.538873	3.88277
0.578641	3.63298
0.618984	3.93099
0.658175	4.50203
0.697366	5.34678
0.734827	6.46423
0.772866	6.48712
0.810904	7.60491
0.848365	8.72235
0.884098	12.576
