Adsorption isotherm of Nitrogen on C9H14N12O6Co2
DOI: 10.1021/Cg2002223
Adsorbate Nitrogen: InChIKey IJGRMHOSHXDMSA-UHFFFAOYSA-N
Temperature: 77 K
Tabular data in the source: 0
pressure (bar)	uptake (cm3(STP)/g)
0.00515395	0.00515395
0.0103079	44.2857
0.0386546	48.1633
0.0721553	49.7959
0.103079	50.6122
0.149465	51.6327
0.193273	51.6327
0.262852	52.2449
0.30666	52.2449
0.360777	52.2449
0.404585	52.449
0.458702	52.6531
0.499933	52.8571
0.651975	53.4694
0.703514	53.2653
0.798863	53.8776
0.840094	54.2857
0.889057	54.4898
0.935442	54.6939
0.963789	54.898
