Adsorption isotherm of Propene on Zeolite CHA
DOI: 10.1021/Jp101744k
Adsorbate Propene: InChIKey QQONPFPTGQHPMA-UHFFFAOYSA-N
Temperature: 303 K
Tabular data in the source: 0
pressure (bar)	uptake (mmol/g)
0.0506052	1.24228
0.0987042	1.71834
0.247934	2.2113
0.398079	2.41975
0.4963	2.47609
0.602908	2.53806
0.695381	2.55496
0.889744	2.60848
