Adsorption isotherm of Propene on Zeolite CHA
DOI: 10.1021/Jp101744k
Adsorbate Propene: InChIKey QQONPFPTGQHPMA-UHFFFAOYSA-N
Temperature: 303 K
Tabular data in the source: 0
pressure (bar)	uptake (mmol/g)
0.040067	1.25919
0.050278	1.45919
0.0699906	1.76059
0.099993	2.03102
0.150465	2.25073
0.204093	2.37468
0.303151	2.49581
0.403277	2.56341
0.704461	2.65073
0.907227	2.66764
