Adsorption isotherm of Propene on Zeolite ITQ-12
DOI: 10.1021/Jp101744k
Adsorbate Propene: InChIKey QQONPFPTGQHPMA-UHFFFAOYSA-N
Temperature: 300 K
Tabular data in the source: 0
pressure (bar)	uptake (mmol/g)
0.00123792	0.243753
0.0018561	0.269495
0.00434087	0.32098
0.00555697	0.348868
0.00740049	0.404644
0.00947373	0.451838
0.0136542	0.520485
0.0206759	0.619165
0.028645	0.707119
0.037773	0.797218
0.0566355	0.902333
0.0866119	1.02461
0.136439	1.11256
0.237247	1.20695
0.433428	1.27346
0.840187	1.31207
