Adsorption isotherm of Propene on Zeolite ITQ-12
DOI: 10.1021/Jp101744k
Adsorbate Propene: InChIKey QQONPFPTGQHPMA-UHFFFAOYSA-N
Temperature: 300 K
Tabular data in the source: 0
pressure (bar)	uptake (mmol/g)
0.00102606	0.0252802
0.00202868	0.053311
0.00956779	0.267546
0.019486	0.467766
0.100446	1.01437
0.198597	1.17855
0.96481	1.33071
