Adsorption isotherm of Propene on Zeolite ITQ-12
DOI: 10.1021/Jp101744k
Adsorbate Propene: InChIKey QQONPFPTGQHPMA-UHFFFAOYSA-N
Temperature: 300 K
Tabular data in the source: 0
pressure (bar)	uptake (mmol/g)
0.00103957	0.0236833
0.00309097	0.0217115
0.00598989	0.0572044
0.0105315	0.130162
0.0153914	0.220866
0.0200153	0.317486
0.0415206	0.629035
0.0612743	0.82819
0.0804615	0.944528
0.155924	1.11608
0.256097	1.21073
0.356506	1.25016
0.563195	1.28763
0.907195	1.31918
