Adsorption isotherm of Propene on Zeolite MFI
DOI: 10.1021/Jp101744k
Adsorbate Propene: InChIKey QQONPFPTGQHPMA-UHFFFAOYSA-N
Temperature: 298 K
Tabular data in the source: 0
pressure (bar)	uptake (mmol/g)
0.001	0.169045
0.00198852	0.31834
0.00297289	0.470453
0.00506016	0.712707
0.00796797	0.974678
0.00980592	1.09862
0.0200146	1.39721
0.030313	1.54369
0.0489869	1.66482
0.0801982	1.73806
0.313122	1.90707
1.0738	1.99158
2.99223	2.01412
9.49301	1.98595
