Adsorption isotherm of Propene on Zeolite CHA
DOI: 10.1021/Jp101744k
Adsorbate Propene: InChIKey QQONPFPTGQHPMA-UHFFFAOYSA-N
Temperature: 303 K
Tabular data in the source: 0
pressure (bar)	uptake (mmol/g)
0.041657	1.28172
0.0489903	1.38876
0.0576146	1.49581
0.0668839	1.60003
0.0727682	1.662
0.0968022	1.84792
0.123859	2.03383
0.146611	2.13806
0.18043	2.27327
0.230861	2.36904
0.269746	2.45637
0.334128	2.52679
0.422009	2.61411
0.533004	2.68454
0.660219	2.73242
0.828475	2.76904
