Adsorption isotherm of N-propane on Zeolite ITQ-12
DOI: 10.1021/Jp101744k
Adsorbate N-propane: InChIKey ATUOYWHBWRKTHZ-UHFFFAOYSA-N
Temperature: 300 K
Tabular data in the source: 0
pressure (bar)	uptake (mmol/g)
0.00106	0.0118523
0.00199505	0.0118523
0.00398065	0.0118523
0.00699882	0.0098805
0.0099343	0.0138242
0.0200153	0.027627
0.0384115	0.0552326
0.0702155	0.0926974
0.0967988	0.132134
0.193139	0.248472
0.38913	0.433824
0.585544	0.57974
0.799413	0.690162
0.980626	0.765092
