Adsorption isotherm of N-propane on Zeolite ITQ-12
DOI: 10.1021/Jp101744k
Adsorbate N-propane: InChIKey ATUOYWHBWRKTHZ-UHFFFAOYSA-N
Temperature: 300 K
Tabular data in the source: 0
pressure (bar)	uptake (mmol/g)
0.00105693	0.21372
0.00310244	0.211574
0.00613398	0.21801
0.0155254	0.226591
0.0606907	0.284512
0.0800302	0.314545
0.150606	0.400353
0.259307	0.507614
0.362819	0.608439
0.459896	0.677086
0.612466	0.735007
0.75367	0.788637
0.865461	0.86372
