Adsorption isotherm of Propene on Zeolite ITQ-12
DOI: 10.1021/Jp101744k
Adsorbate Propene: InChIKey QQONPFPTGQHPMA-UHFFFAOYSA-N
Temperature: 300 K
Tabular data in the source: 0
pressure (bar)	uptake (mmol/g)
0.00106742	0.250188
0.00204882	0.282366
0.00704382	0.438967
0.0101521	0.520485
0.0200721	0.735007
0.0404776	0.96669
0.0703847	1.11685
0.101443	1.19194
0.20256	1.29491
0.408484	1.35712
0.600484	1.36785
0.815652	1.38072
