Adsorption isotherm of Propene on Zeolite ITQ-12
DOI: 10.1021/Jp101744k
Adsorbate Propene: InChIKey QQONPFPTGQHPMA-UHFFFAOYSA-N
Temperature: 300 K
Tabular data in the source: 0
pressure (bar)	uptake (mmol/g)
0.00303141	0.0177678
0.00598989	0.0552326
0.0101295	0.118331
0.0152424	0.212979
0.020211	0.315514
0.0395492	0.629035
0.0595117	0.818331
0.0804615	0.944528
0.147082	1.10819
0.198859	1.16537
0.302159	1.23242
0.450272	1.27777
0.889713	1.32312
