Adsorption isotherm of Propene on Zeolite ITQ-12
DOI: 10.1021/Jp101744k
Adsorbate Propene: InChIKey QQONPFPTGQHPMA-UHFFFAOYSA-N
Temperature: 300 K
Tabular data in the source: 0
pressure (bar)	uptake (mmol/g)
0.00397158	0.109373
0.00711375	0.189461
0.0198748	0.453751
0.0392955	0.704026
0.0703847	0.908251
0.0965544	1.01837
0.384975	1.26664
0.588736	1.30669
0.784049	1.32271
