Adsorption isotherm of Propene on Zeolite ITQ-12
DOI: 10.1021/Jp101744k
Adsorbate Propene: InChIKey QQONPFPTGQHPMA-UHFFFAOYSA-N
Temperature: 300 K
Tabular data in the source: 0
pressure (bar)	uptake (mmol/g)
0.00199505	0.0670636
0.00398065	0.122275
0.00706724	0.197204
0.0101295	0.274106
0.0200153	0.465373
0.0403263	0.715796
0.070902	0.909035
0.10064	1.01551
0.200803	1.17326
0.404573	1.27777
0.59705	1.30735
0.791673	1.32706
0.971132	1.33692
