Adsorption isotherm of N-propane on Zeolite ITQ-12
DOI: 10.1021/Jp101744k
Adsorbate N-propane: InChIKey ATUOYWHBWRKTHZ-UHFFFAOYSA-N
Temperature: 300 K
Tabular data in the source: 0
pressure (bar)	uptake (mmol/g)
0.00204882	0.305964
0.00409105	0.393918
0.00725571	0.520485
0.0101521	0.614875
0.0202714	0.848703
0.0404776	1.06108
0.0710835	1.19837
0.102451	1.25844
0.200569	1.32923
