Adsorption isotherm of Propene on Zeolite MFI
DOI: 10.1021/Jp101744k
Adsorbate Propene: InChIKey QQONPFPTGQHPMA-UHFFFAOYSA-N
Temperature: 297 K
Tabular data in the source: 0
pressure (bar)	uptake (mmol/g)
0.00133009	0.231016
0.00226396	0.346509
0.00486702	0.611298
0.0081774	0.87327
0.0125467	1.0789
0.0171294	1.27327
0.0246314	1.48172
0.0392921	1.64792
0.0643265	1.83102
0.0866896	1.91552
0.127933	1.98313
