Adsorption isotherm of Propene on Zeolite ITQ-12
DOI: 10.1021/Jp101744k
Adsorbate Propene: InChIKey QQONPFPTGQHPMA-UHFFFAOYSA-N
Temperature: 300 K
Tabular data in the source: 0
pressure (bar)	uptake (mmol/g)
0.00121468	0.0414298
0.00182779	0.0670636
0.00497895	0.147909
0.00693105	0.209035
0.00850221	0.26819
0.0119514	0.325373
0.0160022	0.41805
0.0231602	0.514669
0.0325559	0.632979
0.0529539	0.802557
0.0940142	0.966219
0.149972	1.07861
0.219179	1.15354
0.336291	1.21073
0.552342	1.25805
0.82309	1.28171
