Adsorption isotherm of Propene on Zeolite ITQ-12
DOI: 10.1021/Jp101744k
Adsorbate Propene: InChIKey QQONPFPTGQHPMA-UHFFFAOYSA-N
Temperature: 300 K
Tabular data in the source: 0
pressure (bar)	uptake (mmol/g)
0.00106742	0.226591
0.00304174	0.224446
0.00619488	0.260914
0.0103546	0.312399
0.0155254	0.389627
0.0210885	0.481871
0.0416952	0.758604
0.0625163	0.919495
0.100446	1.06322
0.198597	1.20481
0.309772	1.26917
0.497718	1.30778
0.936636	1.34425
