Adsorption isotherm of Propene on Zeolite ITQ-12
DOI: 10.1021/Jp101744k
Adsorbate Propene: InChIKey QQONPFPTGQHPMA-UHFFFAOYSA-N
Temperature: 300 K
Tabular data in the source: 0
pressure (bar)	uptake (mmol/g)
0.00106	0.0315706
0.00201456	0.0611481
0.00401957	0.120303
0.00706724	0.191289
0.0101295	0.262275
0.0200153	0.453542
0.0403263	0.698049
0.0688624	0.905092
0.0987008	1.0096
0.196934	1.19101
0.396776	1.28763
0.59705	1.32115
0.791673	1.33692
0.952418	1.34678
