Adsorption isotherm of Propene on Zeolite MFI
DOI: 10.1021/Jp101744k
Adsorbate Propene: InChIKey QQONPFPTGQHPMA-UHFFFAOYSA-N
Temperature: 298 K
Tabular data in the source: 0
pressure (bar)	uptake (mmol/g)
0.0413848	1.35214
0.127933	1.50707
0.251153	1.63383
0.421979	1.71834
0.546975	1.75778
0.718252	1.7775
1.0738	1.82257
1.48515	1.86764
2.0276	1.88454
2.99223	1.92116
