Adsorption isotherm of Propene on Zeolite ITQ-12
DOI: 10.1021/Jp101744k
Adsorbate Propene: InChIKey QQONPFPTGQHPMA-UHFFFAOYSA-N
Temperature: 300 K
Tabular data in the source: 0
pressure (bar)	uptake (mmol/g)
0.00105693	0.0152692
0.00307194	0.0112648
0.00601397	0.0513088
0.0098556	0.10737
0.015072	0.203476
0.0198748	0.299582
0.0400796	0.627942
0.0606907	0.830165
0.0816272	0.94429
0.149125	1.10847
0.254234	1.19857
0.408484	1.26464
0.594581	1.29267
0.891494	1.3187
