Adsorption isotherm of N-propane on Zeolite ITQ-12
DOI: 10.1021/Jp101744k
Adsorbate N-propane: InChIKey ATUOYWHBWRKTHZ-UHFFFAOYSA-N
Temperature: 300 K
Tabular data in the source: 0
pressure (bar)	uptake (mmol/g)
0.00204882	0.21801
0.00405083	0.21372
0.0101521	0.230881
0.0202714	0.254479
0.0412853	0.282366
0.0717892	0.329561
0.102451	0.376756
0.200569	0.511904
0.404468	0.717845
0.612466	0.861574
0.807633	0.940947
1.0037	1.01174
