Adsorption isotherm of Propene on Zeolite MFI
DOI: 10.1021/Jp101744k
Adsorbate Propene: InChIKey QQONPFPTGQHPMA-UHFFFAOYSA-N
Temperature: 298 K
Tabular data in the source: 0
pressure (bar)	uptake (mmol/g)
0.00309086	0.222566
0.00512623	0.380312
0.00828417	0.566228
0.0101951	0.678904
0.0208089	1.08172
0.0307088	1.25637
0.0502745	1.462
0.101291	1.63947
0.201449	1.77186
0.416541	1.84792
1.0463	1.94088
3.19275	2.02257
5.2952	2.062
9.61696	2.07327
