Adsorption isotherm of Propene on Zeolite ITQ-12
DOI: 10.1021/Jp101744k
Adsorbate Propene: InChIKey QQONPFPTGQHPMA-UHFFFAOYSA-N
Temperature: 300 K
Tabular data in the source: 0
pressure (bar)	uptake (mmol/g)
0.00120292	0.0414298
0.004883	0.151852
0.00673168	0.212979
0.0090133	0.285937
0.0119514	0.331289
0.0169641	0.423965
0.0231602	0.522557
0.0292517	0.591571
0.0373066	0.68819
0.0577998	0.816359
0.0922026	0.958331
0.14852	1.06481
0.241575	1.16537
0.42474	1.23242
0.847468	1.27974
