Adsorption isotherm of Propene on Zeolite ITQ-12
DOI: 10.1021/Jp101744k
Adsorbate Propene: InChIKey QQONPFPTGQHPMA-UHFFFAOYSA-N
Temperature: 300 K
Tabular data in the source: 0
pressure (bar)	uptake (mmol/g)
0.00120177	0.0312868
0.00483918	0.145412
0.00650856	0.209483
0.00849819	0.26154
0.010987	0.311595
0.0147771	0.387678
0.0221563	0.501804
0.0280846	0.57989
0.0359525	0.673993
0.0544411	0.802134
0.0754243	0.906248
0.119995	1.01837
0.187168	1.11247
0.286233	1.18255
0.459896	1.23461
0.823749	1.28066
