Adsorption isotherm of Hydrogen on IRMOF-8
DOI: 10.1016/j.jcat.2014.07.010
Adsorbate Hydrogen: InChIKey UFHFLCQGNIYNRP-UHFFFAOYSA-N
Temperature: 300 K
Tabular data in the source: 0
pressure (bar)	uptake (cm3(STP)/g)
0.147453	0.269417
0.442066	0.640777
0.607777	0.84466
0.802398	1.07039
1.02067	1.31068
