Adsorption isotherm of Nitrogen on AC
DOI: 10.1016/j.jcat.2014.07.010
Adsorbate Nitrogen: InChIKey IJGRMHOSHXDMSA-UHFFFAOYSA-N
Temperature: 77 K
Tabular data in the source: 0
pressure (bar)	uptake (cm3(STP)/g)
1.41408e-06	2.96759
2.20725e-06	29.3887
4.20196e-06	51.2559
8.83531e-06	68.6238
1.52346e-05	86.1011
2.89922e-05	116.857
5.51622e-05	152.058
9.98781e-05	187.286
0.000155787	231.486
0.000231314	266.823
0.000379133	310.995
0.000621758	341.833
0.000970134	377.144
0.00193902	421.206
0.00288019	447.655
0.00449481	478.52
0.00737533	496.025
0.014033	531.226
0.0188791	553.284
0.030938	601.901
0.0459295	641.683
0.0915634	747.969
0.142447	854.392
0.191185	934.23
0.282989	1045.12
0.399563	1098.27
0.511542	1120.35
0.723327	1137.94
0.83875	1155.64
0.881073	1164.5
