Adsorption isotherm of Nitrogen on Cu-TDPAT and IRMOF-8
DOI: 10.1016/j.jcat.2014.07.010
Adsorbate Nitrogen: InChIKey IJGRMHOSHXDMSA-UHFFFAOYSA-N
Temperature: 77 K
Tabular data in the source: 0
pressure (bar)	uptake (cm3(STP)/g)
0.00441318	19.936
0.00579071	19.9671
0.00996992	21.6103
0.0152785	21.6592
0.0234138	20.127
0.0332018	20.167
0.0508805	20.2158
0.102311	20.2958
0.14508	20.3357
0.205729	20.3757
0.291729	20.4157
0.382787	20.4468
0.542804	20.4867
0.712231	22.0989
0.93454	22.1299
