Adsorption isotherm of Hydrogen on IRMOF-8
DOI: 10.1016/j.jcat.2014.07.010
Adsorbate Hydrogen: InChIKey UFHFLCQGNIYNRP-UHFFFAOYSA-N
Temperature: 300 K
Tabular data in the source: 0
pressure (bar)	uptake (cm3(STP)/g)
-2.54823e-05	-0.0145631
0.0158245	0.0436893
0.0210993	0.0582524
0.0342481	0.0728155
0.173649	0.240291
0.270978	0.364078
0.43925	0.531553
0.602298	0.713592
0.804666	0.866505
1.02018	1.03398
