Adsorption isotherm of Hydrogen on Pt/AC_2 in CuBTC
DOI: 10.1016/j.jcat.2014.07.010
Adsorbate Hydrogen: InChIKey UFHFLCQGNIYNRP-UHFFFAOYSA-N
Temperature: 300 K
Tabular data in the source: 0
pressure (bar)	uptake (cm3(STP)/g)
0.00903614	0.0965251
0.0240964	0.135135
0.0331325	0.15444
0.171687	0.46332
0.271084	0.733591
0.427711	1.10039
0.608434	1.38996
0.804217	1.79537
0.987952	2.08494
1.0241	2.12355
