Adsorption isotherm of Nitrogen on Cu-TDPAT and IRMOF-8
DOI: 10.1016/j.jcat.2014.07.010
Adsorbate Nitrogen: InChIKey IJGRMHOSHXDMSA-UHFFFAOYSA-N
Temperature: 77 K
Tabular data in the source: 0
pressure (bar)	uptake (cm3(STP)/g)
6.0982e-07	20.5001
7.40409e-07	37.9136
9.7152e-07	45.8498
1.37765e-06	50.6329
2.03082e-06	53.8393
2.8798e-06	57.0413
4.24523e-06	58.6668
6.0198e-06	63.4498
8.87405e-06	66.6563
1.25838e-05	73.0204
1.7844e-05	80.9655
2.43407e-05	88.9062
3.32018e-05	98.4279
4.35654e-05	109.526
5.71626e-05	123.786
7.79725e-05	131.727
9.84169e-05	144.402
0.000129137	157.081
0.000162994	169.756
0.000205727	182.431
0.000249783	196.683
0.000315277	209.357
0.000382792	223.609
0.000447066	236.275
0.000564276	248.95
0.000712232	261.625
0.00097152	271.146
0.0013252	280.668
0.00173885	290.185
0.00246571	294.968
0.00336342	299.747
0.00476938	306.111
0.00676319	310.894
0.00959029	315.677
0.0130816	322.037
0.0185503	326.82
0.0263046	330.022
0.0373011	333.224
0.0549872	338.011
0.0779726	342.794
0.102311	345.987
0.134246	349.181
0.205729	350.81
0.464758	360.39
0.633955	366.75
0.80017	371.519
0.93454	377.861
