Adsorption isotherm of Hydrogen on Pt/AC_2
DOI: 10.1016/j.jcat.2014.07.010
Adsorbate Hydrogen: InChIKey UFHFLCQGNIYNRP-UHFFFAOYSA-N
Temperature: 300 K
Tabular data in the source: 0
pressure (bar)	uptake (cm3(STP)/g)
-0.000390044	0.62017
-0.000268155	0.426367
-0.000182833	0.290705
-8.53222e-05	0.135662
0.00575315	0.85249
0.0119939	0.929768
0.0244143	1.18122
0.0306428	1.27788
0.171827	1.79567
0.265937	2.16024
0.432303	2.63828
0.601802	3.13559
0.802784	3.57354
0.991187	4.01197
