Adsorption isotherm of Hydrogen on Pt/AC_1 in IRMOF-8
DOI: 10.1016/j.jcat.2014.07.010
Adsorbate Hydrogen: InChIKey UFHFLCQGNIYNRP-UHFFFAOYSA-N
Temperature: 300 K
Tabular data in the source: 0
pressure (bar)	uptake (cm3(STP)/g)
0.174699	0.579151
0.271084	0.868726
0.436747	1.29344
0.60241	1.75676
0.801205	2.16216
1.01205	2.58687
