Adsorption isotherm of Hydrogen on IRMOF-8
DOI: 10.1016/j.jcat.2014.07.010
Adsorbate Hydrogen: InChIKey UFHFLCQGNIYNRP-UHFFFAOYSA-N
Temperature: 300 K
Tabular data in the source: 0
pressure (bar)	uptake (cm3(STP)/g)
0.157926	0.254854
0.270978	0.364078
0.439238	0.524272
0.602184	0.648058
0.804538	0.793689
1.01997	0.910194
