Adsorption isotherm of Hydrogen on e-Pt/AC_1 in IRMOF-8
DOI: 10.1016/j.jcat.2014.07.010
Adsorbate Hydrogen: InChIKey UFHFLCQGNIYNRP-UHFFFAOYSA-N
Temperature: 300 K
Tabular data in the source: 0
pressure (bar)	uptake (cm3(STP)/g)
0.150602	0.289575
0.274096	0.46332
0.433735	0.694981
0.605422	0.907336
0.804217	1.1583
1.01807	1.38996
