Adsorption isotherm of Nitrogen on IRMOF-8
DOI: 10.1016/j.jcat.2014.07.010
Adsorbate Nitrogen: InChIKey IJGRMHOSHXDMSA-UHFFFAOYSA-N
Temperature: 77 K
Tabular data in the source: 0
pressure (bar)	uptake (cm3(STP)/g)
1.66212e-06	1.42857
2.01317e-06	2.85714
3.3146e-06	4.28571
5.6692e-06	7.14286
9.69934e-06	8.57143
1.53639e-05	11.4286
2.34267e-05	12.8571
3.4367e-05	15.7143
4.85179e-05	18.5714
6.3453e-05	20
7.98604e-05	21.4286
0.000100511	22.8571
0.00022471	30
0.000447859	35.7143
0.000893104	38.5714
0.00178005	44.2857
0.00304454	47.1429
0.00464111	50
0.00763927	52.8571
0.0135772	55.7143
0.0184511	57.1429
0.0315415	62.8571
0.0499622	65.7143
0.0886772	75.7143
0.134955	87.1429
0.190368	94.2857
0.268387	104.286
0.378898	107.143
0.495259	111.429
0.623495	111.429
0.75538	111.429
0.846623	117.143
0.879021	121.429
