Adsorption isotherm of Nitrogen on IRMOF-8
DOI: 10.1016/j.jcat.2014.07.010
Adsorbate Nitrogen: InChIKey IJGRMHOSHXDMSA-UHFFFAOYSA-N
Temperature: 77 K
Tabular data in the source: 0
pressure (bar)	uptake (cm3(STP)/g)
1.00678e-06	14.2857
1.2671e-06	15.7143
3.17842e-06	22.8571
4.31709e-06	27.1429
5.86681e-06	28.5714
8.94339e-06	31.4286
1.16931e-05	34.2857
1.58863e-05	37.1429
2.32987e-05	41.4286
2.82119e-05	44.2857
5.20453e-05	52.8571
6.54307e-05	60
8.23288e-05	62.8571
0.000103503	70
0.000222255	87.1429
0.000441643	108.571
0.000845457	124.286
0.00174957	134.286
0.00256656	137.143
0.00492143	144.286
0.00809621	150
0.0149483	154.286
0.0195498	155.714
0.0309586	160
0.0490266	164.286
0.0940593	168.571
0.143384	171.429
0.194856	172.857
0.296954	177.143
0.373639	180
0.470383	180
0.56957	182.857
0.663161	190
0.771917	198.571
