Adsorption isotherm of Hydrogen on Pt in IRMOF-8
DOI: 10.1016/j.jcat.2014.07.010
Adsorbate Hydrogen: InChIKey UFHFLCQGNIYNRP-UHFFFAOYSA-N
Temperature: 300 K
Tabular data in the source: 0
pressure (bar)	uptake (cm3(STP)/g)
-0.00326662	0.193925
-0.0031813	0.0582628
-0.000182833	0.290705
0.00607006	0.348602
0.0122742	0.48402
0.0184905	0.600059
0.0341289	0.735111
0.150301	1.02131
0.263341	1.28824
0.432986	1.55299
0.602618	1.83711
0.800553	2.12013
1.0142	2.42193
