Adsorption isotherm of Hydrogen on Pt in Cu-TDPAT
DOI: 10.1016/j.jcat.2014.07.010
Adsorbate Hydrogen: InChIKey UFHFLCQGNIYNRP-UHFFFAOYSA-N
Temperature: 300 K
Tabular data in the source: 0
pressure (bar)	uptake (cm3(STP)/g)
2.42087e-05	-0.0193064
0.175247	0.240816
0.272336	0.312413
0.435139	0.476729
0.604237	0.621376
0.801574	0.745083
1.01454	0.906494
