Adsorption isotherm of Hydrogen on IRMOF-8
DOI: 10.1016/j.jcat.2014.07.010
Adsorbate Hydrogen: InChIKey UFHFLCQGNIYNRP-UHFFFAOYSA-N
Temperature: 300 K
Tabular data in the source: 0
pressure (bar)	uptake (cm3(STP)/g)
0.00254823	-0.0436893
0.0158754	0.0728155
0.0395867	0.123786
0.168527	0.313107
0.265856	0.436893
0.43925	0.531553
0.620569	0.65534
0.807138	0.779126
1.02245	0.830097
