Adsorption isotherm of Hydrogen on IRMOF-8
DOI: 10.1016/j.jcat.2014.07.010
Adsorbate Hydrogen: InChIKey UFHFLCQGNIYNRP-UHFFFAOYSA-N
Temperature: 300 K
Tabular data in the source: 0
pressure (bar)	uptake (cm3(STP)/g)
0.171152	0.313107
0.26592	0.473301
0.436855	0.662621
0.599929	0.859223
0.804908	1.00485
1.02045	1.18689
