Adsorption isotherm of Nitrogen on IRMOF-8
DOI: 10.1016/j.jcat.2014.07.010
Adsorbate Nitrogen: InChIKey IJGRMHOSHXDMSA-UHFFFAOYSA-N
Temperature: 77 K
Tabular data in the source: 0
pressure (bar)	uptake (cm3(STP)/g)
1.04817e-06	4.28571
1.36893e-06	12.8571
1.65624e-06	20
2.0049e-06	24.2857
2.72541e-06	24.2857
3.16885e-05	38.5714
6.81964e-05	44.2857
0.000103957	47.1429
0.000215477	48.5714
0.000429696	51.4286
0.000856667	55.7143
0.00177518	58.5714
0.00270602	61.4286
0.00445658	61.4286
0.00705735	65.7143
0.0130338	68.5714
0.0184057	70
0.0302874	74.2857
0.0479757	77.1429
0.0993877	81.4286
0.151547	82.8571
0.198142	85.7143
0.290593	90
0.380043	91.4286
0.477922	97.1429
0.578381	102.857
0.673603	108.571
0.754967	114.286
0.841302	150
0.903202	180
0.972852	192.857
