Adsorption isotherm of Hydrogen on IRMOF-8
DOI: 10.1016/j.jcat.2014.07.010
Adsorbate Hydrogen: InChIKey UFHFLCQGNIYNRP-UHFFFAOYSA-N
Temperature: 300 K
Tabular data in the source: 0
pressure (bar)	uptake (cm3(STP)/g)
0.0218725	0.0566483
0.0374992	0.0943533
0.147031	0.24245
0.269055	0.428433
0.434945	0.631181
0.5977	0.83411
0.798075	1.03486
1.01724	1.25383
