Adsorption isotherm of Hydrogen on e-Pt/AC_2 in Cu-TDPAT
DOI: 10.1016/j.jcat.2014.07.010
Adsorbate Hydrogen: InChIKey UFHFLCQGNIYNRP-UHFFFAOYSA-N
Temperature: 300 K
Tabular data in the source: 0
pressure (bar)	uptake (cm3(STP)/g)
0.00301205	-0.03861
0.0210843	0
0.0451807	0.0965251
0.177711	0.23166
0.271084	0.34749
0.436747	0.46332
0.608434	0.598456
0.801205	0.656371
0.990964	0.791506
