Adsorption isotherm of Nitrogen on Pt/AC_1
DOI: 10.1016/j.jcat.2014.07.010
Adsorbate Nitrogen: InChIKey IJGRMHOSHXDMSA-UHFFFAOYSA-N
Temperature: 77 K
Tabular data in the source: 0
pressure (bar)	uptake (cm3(STP)/g)
1.44465e-07	-0.218808
2.25741e-07	-0.464968
3.19324e-07	8.23267
4.98886e-07	12.4311
9.04277e-07	20.9919
1.72279e-06	25.0809
3.27975e-06	46.9481
5.65525e-06	64.4254
1.24932e-05	86.2105
2.04995e-05	103.715
3.90114e-05	134.471
6.0881e-05	165.337
9.98965e-05	182.842
0.000231527	244.6
0.000440283	293.135
0.000924553	341.615
0.0017585	385.705
0.00274582	403.237
0.0045031	434.075
0.00738757	456.024
0.0147734	486.753
0.018002	504.422
0.0325951	539.65
0.0483885	579.432
0.087388	676.884
0.135954	783.307
0.18257	849.811
0.283926	965.123
0.345783	996.125
0.465369	1009.29
0.567171	1022.52
0.802135	1035.66
0.885129	1053.38
