Adsorption isotherm of Nitrogen on Pt/AC_2 in CuBTC
DOI: 10.1016/j.jcat.2014.07.010
Adsorbate Nitrogen: InChIKey IJGRMHOSHXDMSA-UHFFFAOYSA-N
Temperature: 77 K
Tabular data in the source: 0
pressure (bar)	uptake (cm3(STP)/g)
4.02228e-07	-6.38298
4.1948e-07	14.0351
4.37474e-07	77.193
4.56228e-07	89.4737
4.75797e-07	108.772
5.17478e-07	124.561
6.12128e-07	140.351
7.55147e-07	154.386
9.31562e-07	166.667
1.19851e-06	171.93
1.677e-06	178.947
2.44721e-06	184.211
3.28346e-06	185.965
5.21113e-06	185.965
7.93052e-06	191.228
1.10969e-05	192.982
1.61932e-05	198.246
2.36305e-05	203.509
2.91508e-05	210.526
3.75044e-05	221.053
4.82504e-05	233.333
5.95226e-05	245.614
6.20758e-05	261.404
6.75152e-05	275.439
7.34297e-05	294.737
8.68604e-05	305.263
9.85218e-05	321.053
0.000237964	361.404
0.000446747	382.456
0.000912204	387.719
0.00178604	392.982
0.00308299	394.737
0.00489307	396.491
0.0077659	400
0.015857	407.018
0.0221877	405.263
0.0323781	407.018
0.0513868	414.035
0.0964743	431.579
0.134992	433.333
0.196989	438.596
0.28746	443.86
0.419479	452.632
0.539676	454.386
0.724089	457.895
0.856526	459.649
0.893259	466.667
1.01319	480.702
