Adsorption isotherm of Nitrogen on Pt/AC_2 in Cu-TDPAT
DOI: 10.1016/j.jcat.2014.07.010
Adsorbate Nitrogen: InChIKey IJGRMHOSHXDMSA-UHFFFAOYSA-N
Temperature: 77 K
Tabular data in the source: 0
pressure (bar)	uptake (cm3(STP)/g)
4.75797e-07	-6.31003
5.62823e-07	49.1228
6.38384e-07	59.6491
8.56528e-07	70.1754
1.05663e-06	75.4386
1.60802e-06	89.4737
1.98373e-06	94.7368
2.77576e-06	108.772
3.72427e-06	117.544
4.79139e-06	124.561
6.16427e-06	131.579
8.62545e-06	142.105
1.2069e-05	154.386
1.68877e-05	163.158
2.57005e-05	173.684
3.59618e-05	180.702
4.82504e-05	189.474
6.47384e-05	198.246
0.000102748	219.298
0.000218792	257.895
0.000446747	294.737
0.000912204	324.561
0.00186261	343.86
0.00271808	354.386
0.00469182	363.158
0.00714022	370.175
0.0139798	389.474
0.0382994	422.807
0.0513868	429.825
0.0964743	442.105
0.188889	447.368
0.369827	456.14
0.724089	461.404
0.97152	461.404
