Adsorption isotherm of Nitrogen on Cu-TDPAT and IRMOF-8
DOI: 10.1016/j.jcat.2014.07.010
Adsorbate Nitrogen: InChIKey IJGRMHOSHXDMSA-UHFFFAOYSA-N
Temperature: 77 K
Tabular data in the source: 0
pressure (bar)	uptake (cm3(STP)/g)
4.47066e-07	29.9507
5.02263e-07	42.6122
5.86614e-07	53.6972
6.85112e-07	66.3632
8.98963e-07	82.2046
1.22623e-06	91.7263
1.80764e-06	102.838
2.28161e-06	106.027
2.7702e-06	118.697
3.92819e-06	121.899
4.95817e-06	129.831
6.76319e-06	139.352
9.22533e-06	148.874
1.25838e-05	158.396
1.71649e-05	167.918
2.34138e-05	175.858
3.32018e-05	185.384
4.52889e-05	193.325
6.17762e-05	202.847
8.42659e-05	212.368
9.84169e-05	221.872
0.000231128	255.172
0.000464764	285.291
0.000934548	313.83
0.00187919	332.882
0.0028798	337.674
0.00458788	348.794
0.00789881	355.181
0.0141375	371.057
0.0192842	380.579
0.0319376	394.866
0.0549872	404.414
0.10636	412.395
0.156789	417.183
0.222332	420.385
0.291729	421.997
0.397935	423.613
0.522142	425.225
0.609824	425.243
0.769711	426.851
0.93454	426.873
