Adsorption isotherm of Nitrogen on Cu-TDPAT
DOI: 10.1016/j.jcat.2014.07.010
Adsorbate Nitrogen: InChIKey IJGRMHOSHXDMSA-UHFFFAOYSA-N
Temperature: 77 K
Tabular data in the source: 0
pressure (bar)	uptake (cm3(STP)/g)
-6.13032	-6.31003
-6.05945	49.1228
-6.0063	59.6491
-5.88227	70.1754
-5.79369	75.4386
-5.61651	89.4737
-5.52792	94.7368
-5.38617	108.772
-5.26215	117.544
-5.15585	124.561
-5.04954	131.579
-4.9078	142.105
-4.76606	154.386
-4.62432	163.158
-4.44714	173.684
-4.3054	180.702
-4.18137	189.474
-4.05735	198.246
-3.91561	210.526
-3.52582	249.123
-3.24234	277.193
-2.94114	308.772
-2.63994	328.07
-2.46275	335.088
-2.23243	342.105
-2.01982	350.877
-1.8072	364.912
-1.66547	377.193
-1.41742	391.228
-1.2048	400
-0.956755	414.035
-0.779579	414.035
-0.602402	419.298
-0.425225	421.053
-0.177177	424.561
0.0177177	426.316
