Adsorption isotherm of Hydrogen on Pt/AC_1
DOI: 10.1016/j.jcat.2014.07.010
Adsorbate Hydrogen: InChIKey UFHFLCQGNIYNRP-UHFFFAOYSA-N
Temperature: 300 K
Tabular data in the source: 0
pressure (bar)	uptake (cm3(STP)/g)
0.00614319	0.23232
0.00624071	0.0772775
0.0186368	0.367495
0.0248653	0.464153
0.0405402	0.541064
0.150362	0.924405
0.263353	1.26886
0.429731	1.72753
0.599291	2.12793
0.800297	2.52712
1.01387	2.9452
