Adsorption isotherm of Nitrogen on IRMOF-8
DOI: 10.1016/j.jcat.2014.07.010
Adsorbate Nitrogen: InChIKey IJGRMHOSHXDMSA-UHFFFAOYSA-N
Temperature: 77 K
Tabular data in the source: 0
pressure (bar)	uptake (cm3(STP)/g)
5.89742e-07	1.42857
7.41228e-07	10
8.96296e-07	20
1.0847e-06	25.7143
1.47327e-06	30
2.0788e-06	35.7143
3.16973e-06	37.1429
3.98825e-06	40
6.31759e-06	42.8571
8.58068e-06	47.1429
1.12158e-05	51.4286
1.64355e-05	60
2.23049e-05	68.5714
2.91234e-05	78.5714
3.80357e-05	87.1429
4.9648e-05	98.5714
6.48249e-05	108.571
8.14295e-05	120
0.000102289	131.429
0.000123621	144.286
0.00015529	155.714
0.000187673	168.571
0.000218335	180
0.000263865	192.857
0.000318891	205.714
0.000370887	218.571
0.000448231	231.429
0.000541854	242.857
0.000680474	255.714
0.000923234	265.714
0.00169993	284.286
0.00258852	292.857
0.00459422	302.857
0.00727347	308.571
0.0134107	320
0.0182201	322.857
0.0288451	328.571
0.0456659	334.286
0.09455	341.429
0.144093	345.714
0.188344	350
0.2763	352.857
0.347554	357.143
0.472192	360
0.529518	362.857
0.641349	364.286
0.777012	364.286
0.869674	377.143
0.870867	370
