Adsorption isotherm of Nitrogen on IRMOF-8
DOI: 10.1016/j.jcat.2014.07.010
Adsorbate Nitrogen: InChIKey IJGRMHOSHXDMSA-UHFFFAOYSA-N
Temperature: 77 K
Tabular data in the source: 0
pressure (bar)	uptake (cm3(STP)/g)
5.05687e-07	2.85714
5.89592e-07	2.85714
6.11987e-07	8.57143
7.40818e-07	12.8571
8.97288e-07	14.2857
1.21905e-06	17.1429
2.00656e-06	20
2.83355e-06	21.4286
3.70682e-06	21.4286
5.4364e-06	25.7143
6.84403e-06	25.7143
8.94832e-06	28.5714
1.04299e-05	30
1.31236e-05	32.8571
1.58907e-05	35.7143
1.92518e-05	35.7143
2.33051e-05	40
2.82041e-05	45.7143
3.28565e-05	50
3.83073e-05	50
4.81872e-05	54.2857
6.29683e-05	60
8.22833e-05	65.7143
9.58566e-05	70
0.000213655	92.8571
0.000440912	117.143
0.000876621	135.714
0.00181302	148.571
0.00265823	154.286
0.00437181	161.429
0.00807182	165.714
0.0148872	175.714
0.0210171	178.571
0.029671	181.429
0.0506934	190
0.0935453	197.143
0.137043	207.143
0.186086	212.857
0.272688	221.429
0.356431	225.714
0.466275	225.714
0.586844	227.143
0.65827	228.571
0.828713	228.571
0.928558	235.714
