Adsorption isotherm of Hydrogen on AC
DOI: 10.1016/j.jcat.2014.07.010
Adsorbate Hydrogen: InChIKey UFHFLCQGNIYNRP-UHFFFAOYSA-N
Temperature: 300 K
Tabular data in the source: 0
pressure (bar)	uptake (cm3(STP)/g)
0.0374266	0.152273
0.149997	0.377413
0.265678	0.621679
0.437669	0.959208
0.597119	1.29746
0.797325	1.63336
1.01313	2.02627
