Adsorption isotherm of Nitrogen on Pt/AC_1 in IRMOF-8
DOI: 10.1016/j.jcat.2014.07.010
Adsorbate Nitrogen: InChIKey IJGRMHOSHXDMSA-UHFFFAOYSA-N
Temperature: 77 K
Tabular data in the source: 0
pressure (bar)	uptake (cm3(STP)/g)
7.85492e-07	38.5965
1.0975e-06	43.8596
1.471e-06	45.614
2.14349e-06	49.1228
3.12343e-06	52.6316
4.552e-06	54.386
6.91563e-06	59.6491
8.88508e-06	66.6667
1.24125e-05	73.6842
1.73405e-05	80.7018
2.3235e-05	85.9649
3.38378e-05	96.4912
5.35737e-05	108.772
7.79851e-05	124.561
9.60444e-05	136.842
0.000104311	150.877
0.000230208	196.491
0.000447973	245.614
0.000948816	282.456
0.00185064	303.509
0.0028112	310.526
0.00484029	321.053
0.0126594	338.596
0.014347	343.86
0.0184443	343.86
0.0304685	349.123
0.0503085	359.649
0.0982139	370.175
0.137226	375.439
0.183846	382.456
0.256796	391.228
0.374195	394.737
0.480554	407.018
0.544864	407.018
0.644096	408.772
0.899941	414.035
