Adsorption isotherm of Nitrogen on CuBTC
DOI: 10.1016/j.jcat.2014.07.010
Adsorbate Nitrogen: InChIKey IJGRMHOSHXDMSA-UHFFFAOYSA-N
Temperature: 77 K
Tabular data in the source: 0
pressure (bar)	uptake (cm3(STP)/g)
3.26056e-07	-6.47416
3.40034e-07	24.5614
3.54618e-07	84.2105
3.69829e-07	101.754
4.02228e-07	119.298
4.1948e-07	128.07
4.75797e-07	8.77193
5.39674e-07	150.877
5.86964e-07	152.632
6.38384e-07	5.26316
7.24088e-07	166.667
7.8752e-07	173.684
9.7152e-07	173.684
1.24989e-06	177.193
1.60802e-06	185.965
2.25005e-06	187.719
2.77576e-06	189.474
4.59433e-06	194.737
6.16427e-06	198.246
8.62545e-06	200
1.61932e-05	205.263
2.26586e-05	214.035
2.79526e-05	221.053
3.59618e-05	233.333
4.25395e-05	242.105
5.24773e-05	254.386
5.95226e-05	266.667
6.75152e-05	285.965
7.65794e-05	308.772
8.32878e-05	322.807
8.68604e-05	333.333
9.85218e-05	340.351
0.000248166	378.947
0.00046591	394.737
0.000951331	403.509
0.0019425	405.263
0.00271808	408.772
0.00449885	410.526
0.00809882	414.035
0.0152048	415.789
0.0195615	417.544
0.0310464	421.053
0.0472478	426.316
0.0964743	443.86
0.134992	450.877
0.196989	454.386
0.28746	459.649
0.385688	464.912
0.496202	468.421
0.66576	470.175
0.755144	471.93
0.97152	471.93
1.01319	478.947
