Adsorption isotherm of Nitrogen on IRMOF-8
DOI: 10.1016/j.jcat.2014.07.010
Adsorbate Nitrogen: InChIKey IJGRMHOSHXDMSA-UHFFFAOYSA-N
Temperature: 77 K
Tabular data in the source: 0
pressure (bar)	uptake (cm3(STP)/g)
3.43204e-06	22.8571
6.5863e-06	25.7143
1.00455e-05	25.7143
1.36481e-05	28.5714
1.92785e-05	28.5714
2.425e-05	32.8571
3.4254e-05	32.8571
4.65256e-05	37.1429
5.8556e-05	38.5714
8.92384e-05	42.8571
0.000116674	45.7143
0.000232414	54.2857
0.000481073	62.8571
0.000888223	67.1429
0.00191206	71.4286
0.00269787	77.1429
0.00444193	78.5714
0.00789245	82.8571
0.0140311	84.2857
0.0183452	87.1429
0.0325958	91.4286
0.0516478	92.8571
0.0990884	97.1429
0.145362	100
0.197545	101.429
0.301052	105.714
0.364534	108.571
0.458544	112.857
0.555081	117.143
0.64629	124.286
0.696702	132.857
0.868245	185.714
0.871105	168.571
