Adsorption isotherm of Hydrogen on IRMOF-8
DOI: 10.1016/j.jcat.2014.07.010
Adsorbate Hydrogen: InChIKey UFHFLCQGNIYNRP-UHFFFAOYSA-N
Temperature: 300 K
Tabular data in the source: 0
pressure (bar)	uptake (cm3(STP)/g)
8.91879e-05	0.0509709
0.00280305	0.101942
0.00549143	0.13835
0.0108045	0.174757
0.016143	0.225728
0.0188441	0.269417
0.0346813	0.320388
0.171648	0.597087
0.269093	0.786408
0.44018	1.06311
0.603343	1.31068
0.803277	1.57282
1.01896	1.83495
