Adsorption isotherm of Hydrogen on IRMOF-8
DOI: 10.1016/j.jcat.2014.07.010
Adsorbate Hydrogen: InChIKey UFHFLCQGNIYNRP-UHFFFAOYSA-N
Temperature: 300 K
Tabular data in the source: 0
pressure (bar)	uptake (cm3(STP)/g)
3.82234e-05	0.0218447
0.0053895	0.0800971
0.010728	0.131068
0.0160666	0.182039
0.0397778	0.23301
0.171292	0.393204
0.265984	0.509709
0.431631	0.677184
0.605102	0.815534
0.807456	0.961165
1.01767	1.09951
