Adsorption isotherm of Hydrogen on Pt/AC_2 in Cu-TDPAT
DOI: 10.1016/j.jcat.2014.07.010
Adsorbate Hydrogen: InChIKey UFHFLCQGNIYNRP-UHFFFAOYSA-N
Temperature: 300 K
Tabular data in the source: 0
pressure (bar)	uptake (cm3(STP)/g)
0.0331325	0.23166
0.171687	0.945946
0.268072	1.50579
0.439759	2.33591
0.60241	3.14672
0.804217	3.97683
1.01506	4.88417
