Adsorption isotherm of Nitrogen on IRMOF-8
DOI: 10.1016/j.jcat.2014.07.010
Adsorbate Nitrogen: InChIKey IJGRMHOSHXDMSA-UHFFFAOYSA-N
Temperature: 77 K
Tabular data in the source: 0
pressure (bar)	uptake (cm3(STP)/g)
3.86137e-07	8.57143
4.67425e-07	12.8571
5.88128e-07	15.7143
7.40017e-07	18.5714
8.62307e-07	21.4286
1.085e-06	24.2857
1.53177e-06	27.1429
1.92731e-06	30
2.82737e-06	32.8571
3.8423e-06	34.2857
5.4259e-06	35.7143
7.37381e-06	37.1429
9.64099e-06	40
1.41394e-05	44.2857
1.84817e-05	48.5714
2.41575e-05	52.8571
2.92511e-05	55.7143
3.67843e-05	61.4286
4.80808e-05	65.7143
6.27959e-05	74.2857
9.20453e-05	81.4286
0.000221346	108.571
0.000456911	131.429
0.000874222	150
0.00174001	162.857
0.00265242	165.714
0.00453421	171.429
0.00746331	174.286
0.0143107	181.429
0.0194483	182.857
0.0296546	184.286
0.0451931	188.571
0.0972585	194.286
0.142756	194.286
0.186648	197.143
0.284524	200
0.358096	201.429
0.468324	202.857
0.546027	202.857
0.661345	204.286
0.832355	205.714
0.896788	217.143
