Adsorption isotherm of Nitrogen on Cu-TDPAT and IRMOF-8
DOI: 10.1016/j.jcat.2014.07.010
Adsorbate Nitrogen: InChIKey IJGRMHOSHXDMSA-UHFFFAOYSA-N
Temperature: 77 K
Tabular data in the source: 0
pressure (bar)	uptake (cm3(STP)/g)
7.40409e-07	-6.11798
7.69718e-07	52.1473
8.64752e-07	61.6468
8.98963e-07	71.1374
1.00995e-06	82.2179
1.09147e-06	88.5509
1.37765e-06	96.4827
1.87919e-06	104.423
2.46571e-06	109.197
3.49648e-06	112.4
4.95817e-06	115.602
7.30889e-06	117.227
1.03644e-05	120.429
1.46971e-05	123.631
2.16652e-05	125.256
3.07222e-05	128.458
4.52889e-05	131.665
6.67624e-05	136.452
9.46699e-05	139.654
0.000269943	146.099
0.00048315	149.327
0.00100995	155.736
0.00187919	157.388
0.0028798	160.599
0.00476938	165.399
0.00853634	165.466
0.0152785	168.695
0.0192842	171.883
0.0332018	171.946
0.0452889	175.143
0.190365	184.794
0.41368	189.626
0.564283	192.823
0.712231	194.431
0.740413	200.759
0.831833	208.678
