Adsorption isotherm of Nitrogen on IRMOF-8
DOI: 10.1016/j.jcat.2014.07.010
Adsorbate Nitrogen: InChIKey IJGRMHOSHXDMSA-UHFFFAOYSA-N
Temperature: 77 K
Tabular data in the source: 0
pressure (bar)	uptake (cm3(STP)/g)
6.12805e-07	3.50877
6.65736e-07	14.0351
7.23239e-07	24.5614
9.69107e-07	29.8246
1.29888e-06	31.5789
1.74093e-06	33.3333
2.75843e-06	36.8421
4.19065e-06	42.1053
5.85695e-06	43.8596
9.27731e-06	50.8772
1.35186e-05	54.386
1.73684e-05	61.4035
2.23152e-05	68.4211
2.98918e-05	77.193
4.73131e-05	92.9825
5.82776e-05	103.509
7.48207e-05	119.298
0.000104466	133.333
0.000139873	147.368
0.000179573	163.158
0.000221031	182.456
0.000283649	203.509
0.000334913	219.298
0.000448365	235.088
0.00060025	250.877
0.000739472	259.649
0.000949799	270.175
0.00185337	285.965
0.00319162	294.737
0.00445863	301.754
0.0080063	310.526
0.0143788	317.544
0.0184766	322.807
0.0305177	329.825
0.052568	335.088
0.0984738	338.596
0.14343	347.368
0.184387	347.368
0.292061	354.386
0.391456	356.14
0.482322	363.158
0.61996	364.912
0.732763	368.421
0.902987	373.684
0.941316	377.193
