Adsorption isotherm of Hydrogen on Cu-TDPAT
DOI: 10.1016/j.jcat.2014.07.010
Adsorbate Hydrogen: InChIKey UFHFLCQGNIYNRP-UHFFFAOYSA-N
Temperature: 300 K
Tabular data in the source: 0
pressure (bar)	uptake (cm3(STP)/g)
0.0282543	0.0755837
0.172829	0.202346
0.267135	0.254799
0.433735	0.360981
0.600347	0.447856
0.798443	0.474994
1.01537	0.558955
