Adsorption isotherm of Nitrogen on Pt/AC_2
DOI: 10.1016/j.jcat.2014.07.010
Adsorbate Nitrogen: InChIKey IJGRMHOSHXDMSA-UHFFFAOYSA-N
Temperature: 77 K
Tabular data in the source: 0
pressure (bar)	uptake (cm3(STP)/g)
2.83049e-06	11.4738
4.88238e-06	20.062
8.01423e-06	28.6776
1.31526e-05	41.7377
2.05373e-05	59.2697
3.37048e-05	72.3299
5.52945e-05	94.2791
8.62605e-05	134.034
0.000128177	151.593
0.00017241	178.096
0.000231954	200.155
0.000312055	222.214
0.000511566	261.941
0.000839405	279.446
0.0011291	305.949
0.00176271	327.925
0.00289182	349.875
0.00578205	385.048
0.00817282	411.524
0.0134055	437.918
0.0189628	446.615
0.0310865	486.343
0.0509614	526.07
0.0966789	632.384
0.15049	725.473
0.192312	792.004
0.299021	911.761
0.3643	933.874
0.466482	951.516
0.659612	969.102
0.804201	973.438
0.887245	995.606
