Adsorption isotherm of Nitrogen on CrN1260
DOI: 10.1039/C001964j
Adsorbate Nitrogen: InChIKey IJGRMHOSHXDMSA-UHFFFAOYSA-N
Temperature: 77 K
Tabular data in the source: 0
pressure (bar)	uptake (cm3(STP)/g)
0.00147838	2.91411
0.0044934	4.91719
0.0181539	7.82902
0.0455331	9.82753
0.0683551	11.0983
0.115539	12.5466
0.158157	13.8137
0.229699	15.6218
0.275359	17.0704
0.328637	18.3355
0.413884	20.141
0.488469	22.1306
0.53414	22.8507
0.585889	24.4803
0.63459	26.2927
0.677205	27.7419
0.689382	28.1039
0.747197	31.3717
0.759376	31.5516
0.760891	32.0978
0.77307	32.2776
0.785241	33.004
0.797409	33.9124
0.808055	34.8212
0.82022	35.9118
0.832391	36.6381
0.859751	39.9117
0.870391	41.1847
0.871891	42.6416
0.881031	42.4578
0.882531	43.9147
0.885577	43.9141
0.89012	45.5526
0.893168	45.3699
0.896183	47.373
0.90228	47.0075
0.905298	48.8284
0.923485	54.4717
0.937101	60.2979
0.940119	62.1188
0.94613	67.4
0.949095	72.6818
0.953591	77.4168
0.956609	79.2378
0.961155	80.6941
0.96265	82.5153
0.963992	94.3548
0.967121	88.8897
0.970139	90.7106
