Adsorption isotherm of Nitrogen on CrN21150
DOI: 10.1039/C001964j
Adsorbate Nitrogen: InChIKey IJGRMHOSHXDMSA-UHFFFAOYSA-N
Temperature: 77 K
Tabular data in the source: 0
pressure (bar)	uptake (cm3(STP)/g)
0.00885132	0.325866
0.0295044	0.488798
0.0678601	0.488798
0.0781866	0.651731
0.100315	0.814664
0.115067	0.814664
0.137195	0.651731
0.154898	0.814664
0.175551	0.977597
0.196204	0.977597
0.246362	0.977597
0.293569	0.814664
0.340776	0.814664
0.392408	0.977597
0.43814	0.977597
0.494198	0.814664
0.563534	1.30346
0.616642	1.14053
0.668274	1.14053
0.711056	1.30346
0.747936	1.62933
0.780391	1.62933
0.799569	1.79226
0.832024	1.79226
0.854152	1.95519
0.880706	2.44399
0.902834	2.60692
0.926438	3.42159
0.951516	4.56212
0.957417	5.70265
0.970694	9.4501
