Adsorption isotherm of Hydrogen on CrN12100
DOI: 10.1039/C001964j
Adsorbate Hydrogen: InChIKey UFHFLCQGNIYNRP-UHFFFAOYSA-N
Temperature: 298 K
Tabular data in the source: 0
pressure (bar)	uptake (wt%)
2.32848	0.0253662
4.49064	0.0345523
6.98545	0.0437287
10.4782	0.0528764
12.6403	0.0643746
14.8025	0.0735606
16.632	0.0804442
20.2911	0.0872748
21.6216	0.105733
23.2848	0.117246
25.6133	0.126427
26.6112	0.133335
28.6071	0.140214
30.104	0.156355
33.4304	0.160884
34.5946	0.170098
35.7588	0.177001
37.921	0.186187
40.4158	0.190739
42.7443	0.202233
43.5759	0.213769
46.9023	0.227546
49.2308	0.232103
51.2266	0.241294
53.8877	0.25509
56.2162	0.261959
58.5447	0.27114
61.0395	0.278005
63.5343	0.289493
65.0312	0.301011
67.6923	0.312494
70.0208	0.317051
72.0166	0.333179
74.6778	0.344662
77.0062	0.339971
77.8378	0.342259
79.501	0.342211
