Adsorption isotherm of Nitrogen on CrN11100
DOI: 10.1039/C001964j
Adsorbate Nitrogen: InChIKey IJGRMHOSHXDMSA-UHFFFAOYSA-N
Temperature: 77 K
Tabular data in the source: 0
pressure (bar)	uptake (cm3(STP)/g)
0.00592257	0.575693
0.0148334	0.895522
0.0296858	1.40725
0.060907	1.85501
0.0772662	1.98294
0.101058	2.23881
0.118905	2.36674
0.139728	2.49467
0.157565	2.8145
0.178388	2.94243
0.197726	3.0064
0.245328	3.13433
0.292921	3.45416
0.342008	3.64606
0.389605	3.90192
0.44018	4.09382
0.487776	4.34968
0.535375	4.54158
0.603804	4.73348
0.632062	4.92537
0.681156	4.98934
0.748083	5.4371
0.765927	5.629
0.777817	5.88486
0.797148	6.07676
0.828376	6.39659
0.849183	6.84435
0.87594	7.29211
0.899701	8.18763
0.924923	9.59488
0.94559	12.8571
0.952924	14.968
0.955748	18.0384
0.960078	20.7249
0.967095	29.2324
