Adsorption isotherm of Nitrogen on CrN1160
DOI: 10.1039/C001964j
Adsorbate Nitrogen: InChIKey IJGRMHOSHXDMSA-UHFFFAOYSA-N
Temperature: 77 K
Tabular data in the source: 0
pressure (bar)	uptake (cm3(STP)/g)
0.0148239	1.08742
0.0504989	1.72708
0.0832078	2.17484
0.115939	2.17484
0.135274	2.30277
0.157584	2.4307
0.17841	2.49467
0.193284	2.55864
0.243859	2.75053
0.291462	2.87846
0.34204	3.0064
0.391124	3.26226
0.438727	3.39019
0.487808	3.71002
0.533922	3.83795
0.594909	4.09382
0.636554	4.34968
0.693064	4.86141
0.728765	4.98934
0.779324	5.50107
0.801624	5.8209
0.826895	6.26866
0.850677	6.71642
0.87445	7.35608
0.901182	8.31557
0.921941	9.72281
0.942627	12.6013
0.954399	15.2239
0.961597	20.0853
0.965712	27.1215
