Adsorption isotherm of Hydrogen on CrN21150
DOI: 10.1039/C001964j
Adsorbate Hydrogen: InChIKey UFHFLCQGNIYNRP-UHFFFAOYSA-N
Temperature: 298 K
Tabular data in the source: 0
pressure (bar)	uptake (wt%)
18.1289	0.0896495
19.4595	0.101172
21.289	0.11268
23.7838	0.124168
26.6112	0.133335
29.9376	0.144799
32.5988	0.156283
35.5925	0.174694
39.0852	0.190778
40.7484	0.202291
43.0769	0.204535
45.9044	0.222951
49.5634	0.232094
52.2245	0.252826
56.3825	0.268891
58.0457	0.273467
60.2079	0.278029
61.8711	0.291853
63.8669	0.303356
66.0291	0.314855
68.8565	0.324021
71.3514	0.328574
72.8482	0.335467
74.5114	0.340043
76.341	0.349239
78.0042	0.358439
79.6674	0.358391
