Adsorption isotherm of Hydrogen on CrN1160
DOI: 10.1039/C001964j
Adsorbate Hydrogen: InChIKey UFHFLCQGNIYNRP-UHFFFAOYSA-N
Temperature: 298 K
Tabular data in the source: 0
pressure (bar)	uptake (wt%)
2.4948	0.0161129
5.48857	0.0229628
6.81913	0.0275486
9.48025	0.0297838
10.6445	0.0343744
14.3035	0.0435172
16.4657	0.0527033
20.1247	0.0549097
23.6175	0.0640573
26.7775	0.0685902
30.6029	0.0754161
34.4283	0.0868662
37.921	0.10295
41.4137	0.112098
45.738	0.116597
49.0644	0.12575
53.0561	0.137195
56.7152	0.146338
60.5405	0.162412
63.368	0.171579
67.526	0.180707
70.8524	0.192172
74.3451	0.199007
77.5052	0.205852
78.8358	0.208126
80.1663	0.215024
