Adsorption isotherm of Nitrogen on CrN21100
DOI: 10.1039/C001964j
Adsorbate Nitrogen: InChIKey IJGRMHOSHXDMSA-UHFFFAOYSA-N
Temperature: 77 K
Tabular data in the source: 0
pressure (bar)	uptake (cm3(STP)/g)
0.00147522	1.79226
0.0103265	3.25866
0.0280292	4.72505
0.0663849	6.19145
0.0796618	6.51731
0.103265	7.16904
0.128344	7.65784
0.151948	7.98371
0.172601	8.30957
0.197679	8.47251
0.222758	8.79837
0.246362	8.9613
0.267015	9.28717
0.292093	9.61303
0.342251	9.9389
0.387983	10.4277
0.439615	10.7536
0.50305	11.8941
0.548782	12.3829
0.588613	12.8717
0.63582	13.6864
0.683027	14.664
0.731709	15.6415
0.781866	16.945
0.799569	18.0855
0.829073	19.389
0.854152	20.0407
0.879231	22.4847
0.902834	25.0916
0.924963	29.9796
0.950041	39.9185
0.957417	46.9246
0.966269	60.4481
0.969219	66.4766
0.970694	75.112
