Adsorption isotherm of Nitrogen on CrN12150
DOI: 10.1039/C001964j
Adsorbate Nitrogen: InChIKey IJGRMHOSHXDMSA-UHFFFAOYSA-N
Temperature: 77 K
Tabular data in the source: 0
pressure (bar)	uptake (cm3(STP)/g)
0.00915089	2.36623
0.0259275	2.72738
0.0777826	3.08196
0.0976095	3.07824
0.175392	3.2458
0.266901	3.95724
0.312656	4.31297
0.423991	4.10994
0.494148	4.64324
0.553629	4.81423
0.61311	4.80308
0.664965	4.79336
0.71682	5.51223
0.779351	6.04696
0.822055	6.2211
0.847983	6.58054
0.87391	6.93998
0.904413	8.02715
0.919665	8.93504
0.947118	12.2086
0.953218	15.1218
0.959319	19.6744
0.96847	25.8658
