Adsorption isotherm of Nitrogen on CrN2160
DOI: 10.1039/C001964j
Adsorbate Nitrogen: InChIKey IJGRMHOSHXDMSA-UHFFFAOYSA-N
Temperature: 77 K
Tabular data in the source: 0
pressure (bar)	uptake (cm3(STP)/g)
0.00442566	1.62933
0.0118018	2.11813
0.0280292	2.93279
0.0560583	3.58452
0.0781866	4.39919
0.0973645	4.56212
0.134245	4.88798
0.151948	5.37678
0.175551	5.53971
0.194729	5.53971
0.246362	6.02851
0.293569	6.51731
0.3393	6.84318
0.393884	7.00611
0.441091	7.49491
0.488298	7.82077
0.535505	8.30957
0.588613	8.63544
0.632869	9.12424
0.702204	10.1018
0.73761	10.9165
0.780391	12.057
0.803995	12.8717
0.829073	13.8493
0.852677	14.8269
0.879231	16.4562
0.905785	19.0631
0.926438	22.6477
0.950041	30.7943
0.957417	36.6599
0.964793	49.5316
0.969219	66.6395
