Adsorption isotherm of Hydrogen on CrN11150
DOI: 10.1039/C001964j
Adsorbate Hydrogen: InChIKey UFHFLCQGNIYNRP-UHFFFAOYSA-N
Temperature: 298 K
Tabular data in the source: 0
pressure (bar)	uptake (wt%)
10.9771	0.0597983
11.9751	0.0690181
13.8046	0.0759016
15.6341	0.0920337
18.1289	0.10121
20.6237	0.128884
22.4532	0.131143
24.948	0.15188
27.2765	0.163374
28.9397	0.181823
30.2703	0.186408
32.7651	0.193273
33.5967	0.204809
35.5925	0.218624
37.7547	0.227811
39.7505	0.239314
41.9127	0.2485
43.5759	0.2577
46.4033	0.266867
49.2308	0.27141
51.3929	0.289844
54.0541	0.294392
55.052	0.301299
56.5489	0.326689
59.7089	0.347407
61.2058	0.351988
63.5343	0.365794
66.1954	0.370341
68.1913	0.384156
70.5198	0.393338
72.6819	0.395587
74.6778	0.420963
76.0083	0.427861
77.3389	0.42551
78.3368	0.439354
