Adsorption isotherm of Hydrogen on CrN21100
DOI: 10.1039/C001964j
Adsorbate Hydrogen: InChIKey UFHFLCQGNIYNRP-UHFFFAOYSA-N
Temperature: 298 K
Tabular data in the source: 0
pressure (bar)	uptake (wt%)
3.82536	0.0299472
5.48857	0.0391477
7.15177	0.0483482
9.64657	0.0552125
10.8108	0.0690517
13.1393	0.0759208
15.1351	0.0827996
16.7983	0.0989365
18.9605	0.112747
19.9584	0.124279
22.4532	0.131143
23.6175	0.138046
24.4491	0.156519
26.9439	0.163383
28.2744	0.177218
31.4345	0.18175
33.763	0.20018
35.4262	0.216317
37.2557	0.223201
39.5842	0.232382
40.9148	0.241592
44.0748	0.255374
46.237	0.266872
48.2328	0.271438
50.5613	0.282932
51.7256	0.296771
54.3867	0.30363
55.7173	0.315153
59.5426	0.321979
60.2079	0.331208
64.0333	0.338034
65.0312	0.347253
66.3617	0.351839
67.526	0.372615
68.6902	0.386454
69.6881	0.395674
70.5198	0.404898
74.3451	0.411724
75.343	0.41632
76.6736	0.423218
78.0042	0.430115
78.8358	0.443964
80	0.450867
