Adsorption isotherm of Hydrogen on CrN2160
DOI: 10.1039/C001964j
Adsorbate Hydrogen: InChIKey UFHFLCQGNIYNRP-UHFFFAOYSA-N
Temperature: 298 K
Tabular data in the source: 0
pressure (bar)	uptake (wt%)
6.98545	0.0275438
9.64657	0.0274669
12.474	0.0320094
14.8025	0.0365664
16.7983	0.0480694
19.4595	0.0572411
21.7879	0.061798
24.2827	0.0709745
27.2765	0.0732001
28.9397	0.0939613
30.9356	0.10084
32.5988	0.105416
34.0956	0.112309
35.7588	0.114573
37.2557	0.119154
38.9189	0.123731
40.2495	0.128316
41.7464	0.137522
43.2432	0.144415
44.5738	0.155937
45.9044	0.160523
47.5676	0.160475
49.2308	0.162739
50.7277	0.169632
52.3909	0.171896
54.0541	0.176472
55.5509	0.178741
57.2141	0.178693
58.8773	0.178645
60.5405	0.183221
62.2037	0.187798
63.7006	0.190066
65.1975	0.194647
66.8607	0.199224
68.5239	0.2038
70.0208	0.210693
71.5177	0.215274
73.1809	0.224475
74.5114	0.22906
76.1746	0.231324
77.8378	0.231276
