Adsorption isotherm of Nitrogen on CrN11150
DOI: 10.1039/C001964j
Adsorbate Nitrogen: InChIKey IJGRMHOSHXDMSA-UHFFFAOYSA-N
Temperature: 77 K
Tabular data in the source: 0
pressure (bar)	uptake (cm3(STP)/g)
0.00294066	0.703625
0.0133297	1.21535
0.0311672	1.53518
0.0623947	1.85501
0.0787445	2.17484
0.0980824	2.23881
0.115936	2.23881
0.136758	2.36674
0.175431	2.55864
0.193284	2.55864
0.242378	2.6226
0.313788	2.68657
0.361388	2.87846
0.408987	3.07036
0.456593	3.13433
0.504202	3.13433
0.55478	3.26226
0.600901	3.26226
0.649992	3.39019
0.699085	3.45416
0.748166	3.77399
0.780884	4.02985
0.794262	4.28571
0.828465	4.60554
0.850772	4.79744
0.876032	5.4371
0.902778	6.14072
0.923546	7.35608
0.947208	10.2345
0.951573	12.2175
0.958761	17.2708
0.963037	21.0448
0.964316	25.2665
0.965718	26.9936
