Adsorption isotherm of Nitrogen on CrN12100
DOI: 10.1039/C001964j
Adsorbate Nitrogen: InChIKey IJGRMHOSHXDMSA-UHFFFAOYSA-N
Temperature: 77 K
Tabular data in the source: 0
pressure (bar)	uptake (cm3(STP)/g)
0.00607441	1.09176
0.0212937	1.63535
0.0517379	2.35824
0.0776249	2.35339
0.109592	3.07599
0.165931	3.24758
0.229879	3.78204
0.26034	3.41203
0.304486	4.3145
0.347115	4.85295
0.4065	5.02397
0.462834	5.55985
0.520696	5.73115
0.584649	5.90131
0.634892	6.43834
0.682092	6.79379
0.732335	7.33082
0.77953	8.05057
0.7978	8.22929
0.825202	8.7706
0.851077	9.49435
0.878482	9.85351
0.899789	10.5781
0.925651	12.2126
0.952978	17.672
0.962028	23.3169
0.968008	30.6018
