Adsorption isotherm of Hydrogen on CrN11100
DOI: 10.1039/C001964j
Adsorbate Hydrogen: InChIKey UFHFLCQGNIYNRP-UHFFFAOYSA-N
Temperature: 298 K
Tabular data in the source: 0
pressure (bar)	uptake (wt%)
0.997921	0.0230925
4.65696	0.0530446
6.98545	0.0714744
8.64865	0.082987
10.3119	0.103748
11.4761	0.117587
12.474	0.129119
13.8046	0.142954
15.4678	0.159091
16.9647	0.170608
19.2931	0.193662
20.4574	0.202877
22.2869	0.225945
23.7838	0.244399
25.7796	0.262839
26.1123	0.267453
27.6091	0.278971
29.106	0.295113
30.2703	0.304327
31.7672	0.318157
32.9314	0.331996
33.5967	0.338913
37.0894	0.373495
38.42	0.382705
40.7484	0.39651
44.0748	0.428784
44.9064	0.435696
46.237	0.449531
49.3971	0.479497
50.5613	0.495649
51.2266	0.500254
53.3888	0.514064
55.2183	0.52326
57.3805	0.550943
59.3763	0.571694
60.5405	0.585534
62.0374	0.599363
63.5343	0.608568
64.8649	0.617778
66.0291	0.626993
67.8586	0.643125
69.1892	0.659272
70.3534	0.668487
73.6798	0.693824
75.1767	0.700717
77.8378	0.716825
79.3347	0.726031
80	0.728324
