Adsorption isotherm of Hydrogen on CrN12150
DOI: 10.1039/C001964j
Adsorbate Hydrogen: InChIKey UFHFLCQGNIYNRP-UHFFFAOYSA-N
Temperature: 298 K
Tabular data in the source: 0
pressure (bar)	uptake (wt%)
7.31809	0.0321584
11.4761	0.0389747
16.1331	0.0480886
21.289	0.0641246
24.2827	0.0732866
26.2786	0.0824775
27.6091	0.0916876
30.9356	0.110089
32.4324	0.119294
33.9293	0.128499
35.4262	0.135392
36.9231	0.149222
38.42	0.153803
40.0832	0.158379
41.58	0.16296
43.2432	0.172161
44.7401	0.179054
46.4033	0.18363
47.9002	0.188211
49.3971	0.19048
51.0603	0.197368
52.5572	0.204261
54.2204	0.21115
55.7173	0.215731
57.2141	0.224936
58.711	0.236453
60.3742	0.24103
61.8711	0.245611
63.5343	0.247875
65.1975	0.252451
66.6944	0.257032
68.3576	0.259296
69.8545	0.266189
71.5177	0.268453
73.1809	0.270717
