Adsorption isotherm of Hydrogen on CrN1260
DOI: 10.1039/C001964j
Adsorbate Hydrogen: InChIKey UFHFLCQGNIYNRP-UHFFFAOYSA-N
Temperature: 298 K
Tabular data in the source: 0
pressure (bar)	uptake (wt%)
3.16008	0.0230301
5.32225	0.0252797
7.98337	0.0275149
11.3098	0.0343552
15.1351	0.0458053
17.9626	0.05266
21.1227	0.0595051
23.2848	0.0571305
24.7817	0.0593994
26.4449	0.0593513
28.1081	0.0593032
29.7713	0.0615673
31.4345	0.0615192
33.0977	0.0637833
34.5946	0.0660522
36.2578	0.0683162
37.921	0.0705803
39.4179	0.0751613
41.0811	0.0774254
42.7443	0.0820016
44.2412	0.0796462
45.9044	0.0819103
47.5676	0.0818622
49.2308	0.0818141
50.894	0.0817661
52.5572	0.081718
54.2204	0.0839821
55.7173	0.0862509
57.2141	0.0862077
58.8773	0.0907839
60.5405	0.093048
62.0374	0.0953168
63.5343	0.10221
65.0312	0.102167
66.6944	0.104431
68.1913	0.1067
69.8545	0.106652
71.5177	0.108916
73.1809	0.11118
74.6778	0.113449
76.341	0.115713
78.0042	0.11104
78.8358	0.106392
