Adsorption isotherm of Neon on NC-methanol-a-333k
DOI: 10.1016/j.carbon.2008.11.036
Article source: Figure 3
Adsorbate Neon: InChIKey GKAOGPIIYCISHV-UHFFFAOYSA-N
Kind: experiment
Temperature: 24 K
Tabular data in the source: 0
pressure (bar)	uptake (mol/g)
3e-06	0.000188
5e-06	0.000234
8e-06	0.000297
1.2e-05	0.000359
2e-05	0.000406
2.5e-05	0.000453
3.1e-05	0.0005
3.6e-05	0.000562
4.4e-05	0.000641
5e-05	0.000672
5.9e-05	0.000734
7e-05	0.000781
8e-05	0.000844
9.4e-05	0.000891
0.000106	0.000953
0.00012	0.001016
0.000141	0.001063
0.000162	0.001125
0.000183	0.001172
0.000207	0.001234
0.000238	0.001297
0.000275	0.001344
0.000323	0.001406
0.000365	0.001469
0.000428	0.001531
0.000504	0.001578
0.000604	0.001641
0.00071	0.001703
0.000852	0.00175
0.00125	0.001844
0.001835	0.001937
0.00264	0.002047
0.003721	0.002125
0.005038	0.002203
0.006551	0.002281
0.008182	0.002344
0.010426	0.002391
0.012505	0.002453
0.013287	0.002484
0.015617	0.002531
0.01763	0.002578
0.019901	0.002641
0.022466	0.002687
0.023392	0.002719
0.026407	0.002781
0.029213	0.002812
0.030418	0.002859
0.032318	0.002922
0.034338	0.002953
0.037987	0.002984
0.039554	0.003078
0.041184	0.003125
0.044651	0.003187
0.047441	0.003219
0.050404	0.003312
0.054647	0.003359
0.055762	0.003391
0.058061	0.003453
0.060455	0.003531
0.062947	0.003594
0.068245	0.003687
0.07251	0.003781
0.078612	0.003891
0.080217	0.003953
0.085229	0.004
0.088743	0.004094
0.094288	0.004234
0.098175	0.004328
0.104309	0.004437
0.106438	0.0045
0.110826	0.004562
0.115396	0.004641
0.120153	0.004719
0.122605	0.004781
0.125107	0.004875
0.130266	0.004938
0.132924	0.005
0.138404	0.005063
0.14123	0.005094
0.144112	0.005156
0.147053	0.00525
0.153115	0.005328
0.156241	0.005484
0.162682	0.005578
0.166002	0.005781
0.169389	0.005687
0.179974	0.005922
0.187393	0.006
