Adsorption isotherm of Neon on NC-methanol-a-333k
DOI: 10.1016/j.carbon.2008.11.036
Article source: Figure 3
Adsorbate Neon: InChIKey GKAOGPIIYCISHV-UHFFFAOYSA-N
Kind: experiment
Temperature: 23 K
Tabular data in the source: 0
pressure (bar)	uptake (mol/g)
3e-06	0.000375
6e-06	0.000484
9e-06	0.000609
1.3e-05	0.000719
1.8e-05	0.000828
2.6e-05	0.000937
3.4e-05	0.001047
4.4e-05	0.001141
5.7e-05	0.001266
7.4e-05	0.001359
9.8e-05	0.001469
0.000125	0.001578
0.000169	0.001672
0.000234	0.001797
0.000336	0.001891
0.000504	0.002
0.000754	0.002109
0.001153	0.002188
0.001692	0.002281
0.002435	0.002375
0.003364	0.002469
0.004463	0.002516
0.005804	0.002609
0.007103	0.002672
0.008519	0.002766
0.009617	0.002828
0.010856	0.002891
0.012505	0.002953
0.013287	0.003016
0.014699	0.003094
0.016593	0.003156
0.01763	0.003219
0.019113	0.003312
0.020307	0.003344
0.022017	0.003453
0.024357	0.003547
0.026946	0.003656
0.028056	0.00375
0.02981	0.003875
0.032318	0.003969
0.034338	0.004094
0.039554	0.004266
0.042025	0.004375
0.042883	0.004453
0.045562	0.004562
0.048409	0.004672
0.049397	0.004781
0.052483	0.004875
0.054647	0.004953
0.059246	0.005141
0.061689	0.005297
0.066881	0.005437
0.069638	0.005641
0.07251	0.005781
0.07704	0.005922
0.081853	0.006094
0.083524	0.00625
0.088743	0.006406
0.092401	0.006578
0.098175	0.006703
0.100178	0.006906
