Adsorption isotherm of Neon on NC-methanol-a-333k
DOI: 10.1016/j.carbon.2008.11.036
Article source: Figure 3
Adsorbate Neon: InChIKey GKAOGPIIYCISHV-UHFFFAOYSA-N
Kind: experiment
Temperature: 41 K
Tabular data in the source: 0
pressure (bar)	uptake (mol/g)
0.000514	6.3e-05
0.001275	0.000141
0.002157	0.000172
0.003102	0.000234
0.004034	0.000297
0.005038	0.000344
0.006166	0.000375
0.006822	0.000406
0.008182	0.000453
0.009236	0.000484
0.010013	0.000531
0.011304	0.000562
0.01201	0.000594
0.013021	0.000578
0.014117	0.000641
0.014405	0.000672
0.014999	0.000672
0.015617	0.000687
