Adsorption isotherm of Neon on NC-methanol-a-333k
DOI: 10.1016/j.carbon.2008.11.036
Article source: Figure 3
Adsorbate Neon: InChIKey GKAOGPIIYCISHV-UHFFFAOYSA-N
Kind: experiment
Temperature: 29 K
Tabular data in the source: 0
pressure (bar)	uptake (mol/g)
4.8e-05	0.000125
0.000153	0.00025
0.000298	0.000375
0.000474	0.0005
0.000724	0.000625
0.001042	0.00075
0.00144	0.000891
0.001989	0.001016
0.002693	0.001141
0.003647	0.001266
0.004374	0.001344
0.005246	0.001406
0.00642	0.0015
0.007701	0.001563
0.009051	0.001625
0.012505	0.001719
0.016261	0.001813
0.020307	0.001891
0.025361	0.001969
0.031672	0.002016
0.037987	0.002063
0.044651	0.002125
0.051433	0.002156
0.061689	0.002219
0.075499	0.002297
0.088743	0.002344
0.100178	0.002406
0.113087	0.002453
0.127661	0.0025
0.138404	0.002547
0.153115	0.002594
0.166002	0.002625
0.179974	0.002672
0.191219	0.002734
0.207311	0.002781
0.224759	0.002844
0.234025	0.002891
0.25372	0.002938
0.258897	0.002953
0.26957	0.002984
0.280684	0.003016
0.304305	0.003078
0.323316	0.003156
0.343515	0.003219
0.365012	0.003281
0.387816	0.003359
0.403804	0.003422
0.429031	0.003484
0.455835	0.003594
0.484312	0.003672
0.514569	0.003781
0.546716	0.003891
0.592725	0.004
0.629754	0.004125
0.655717	0.004219
0.682751	0.004328
0.725405	0.004437
0.770724	0.004562
0.786451	0.004672
0.818874	0.004781
0.870032	0.004906
0.887785	0.005031
0.924386	0.005156
0.962496	0.005297
1.00228	0.005422
1.02273	0.005547
1.06489	0.005703
1.1088	0.005828
