Adsorption isotherm of Neon on NC-methanol-a-333k
DOI: 10.1016/j.carbon.2008.11.036
Article source: Figure 3
Adsorbate Neon: InChIKey GKAOGPIIYCISHV-UHFFFAOYSA-N
Kind: experiment
Temperature: 50 K
Tabular data in the source: 0
pressure (bar)	uptake (mol/g)
0.00125	1.6e-05
0.002587	4.7e-05
0.004034	6.3e-05
0.005353	9.4e-05
0.006822	9.4e-05
0.00887	0.000109
0.010639	0.000109
0.012255	0.000125
0.014699	0.000156
0.01763	0.000188
0.021145	0.000219
0.024357	0.00025
0.028056	0.00025
0.031672	0.000281
0.033651	0.000297
0.038763	0.000344
0.040361	0.000359
0.042883	0.000375
0.049397	0.000406
0.053554	0.000422
0.0569	0.000453
0.061689	0.000469
0.066881	0.000516
0.07106	0.000547
0.073989	0.000547
0.081853	0.000594
0.086968	0.000609
