Adsorption isotherm of Neon on NC-methanol-a-333k
DOI: 10.1016/j.carbon.2008.11.036
Article source: Figure 3
Adsorbate Neon: InChIKey GKAOGPIIYCISHV-UHFFFAOYSA-N
Kind: experiment
Temperature: 31 K
Tabular data in the source: 0
pressure (bar)	uptake (mol/g)
0.000144	0.000141
0.000504	0.000297
0.001021	0.000453
0.001659	0.000594
0.002535	0.000719
0.003574	0.000875
0.004839	0.000984
0.00642	0.001109
0.008349	0.001219
0.010639	0.001297
0.013021	0.001391
0.015305	0.001453
0.021145	0.001563
0.026407	0.001656
0.032978	0.001719
0.042025	0.001797
0.052483	0.001875
0.062947	0.001937
0.075499	0.001984
0.086968	0.002031
0.098175	0.002078
0.10861	0.002094
0.115396	0.002125
0.125107	0.002156
0.132924	0.002188
0.138404	0.002188
0.156241	0.00225
0.162682	0.002266
0.172848	0.002281
0.187393	0.002328
0.195121	0.002344
0.211543	0.002375
0.224759	0.002406
0.238801	0.002422
0.258897	0.002453
0.26957	0.002469
0.280684	0.0025
0.304305	0.002531
0.336645	0.002563
0.343515	0.002578
0.365012	0.002641
0.387816	0.002672
0.412044	0.002719
0.437786	0.002766
0.474627	0.002797
0.494195	0.002828
0.514569	0.002875
0.546716	0.002922
0.580872	0.002984
0.617161	0.003031
0.642605	0.003094
0.682751	0.003156
0.740207	0.00325
0.770724	0.003328
0.835583	0.003406
0.924386	0.0035
0.943249	0.003578
1.02273	0.003703
1.08662	0.003828
1.15451	0.003953
1.20211	0.004016
1.25166	0.004109
1.30327	0.00425
