Adsorption isotherm of Neon on NC-methanol-a-333k
DOI: 10.1016/j.carbon.2008.11.036
Article source: Figure 3
Adsorbate Neon: InChIKey GKAOGPIIYCISHV-UHFFFAOYSA-N
Kind: experiment
Temperature: 47 K
Tabular data in the source: 0
pressure (bar)	uptake (mol/g)
0.001042	3.1e-05
0.002338	7.8e-05
0.003502	0.000141
0.005038	0.000172
0.006685	0.000219
0.008349	0.000266
0.009813	0.000313
0.011534	0.000344
0.014117	0.000422
0.015617	0.000453
0.01763	0.0005
0.019113	0.000516
0.020722	0.000578
0.02387	0.000656
