Adsorption isotherm of Neon on NC-methanol-a-333k
DOI: 10.1016/j.carbon.2008.11.036
Article source: Figure 3
Adsorbate Neon: InChIKey GKAOGPIIYCISHV-UHFFFAOYSA-N
Kind: experiment
Temperature: 27 K
Tabular data in the source: 0
pressure (bar)	uptake (mol/g)
1.8e-05	0.000203
4e-05	0.000297
6.4e-05	0.000391
9.4e-05	0.0005
0.000125	0.000578
0.000166	0.000672
0.000211	0.000766
0.000253	0.000875
0.000316	0.000953
0.000403	0.001047
0.000504	0.001141
0.000629	0.001219
0.000785	0.001313
0.001176	0.0015
0.00153	0.001578
0.002484	0.001734
0.003954	0.001891
0.006166	0.002
0.00887	0.002109
0.012255	0.002172
0.015305	0.002266
0.019113	0.002328
0.022924	0.002391
0.026407	0.002422
0.031672	0.002484
0.035754	0.002547
0.040361	0.002578
0.044651	0.002641
0.048409	0.002672
0.052483	0.002703
0.058061	0.00275
0.061689	0.002797
0.066881	0.002828
0.069638	0.002891
0.075499	0.002953
0.080217	0.002969
0.083524	0.003
0.086968	0.003031
0.090553	0.003063
0.100178	0.003141
0.102222	0.003172
0.106438	0.003203
0.110826	0.00325
0.117751	0.003297
0.127661	0.003391
0.135637	0.003453
0.144112	0.003531
0.150053	0.003625
0.162682	0.003734
0.176375	0.003859
0.187393	0.003969
0.203165	0.004063
0.21586	0.004156
0.224759	0.004281
0.238801	0.004391
0.25372	0.004484
0.26418	0.004609
0.275071	0.004703
0.286412	0.004797
0.304305	0.004922
0.310514	0.005016
0.329913	0.005141
0.343515	0.005297
0.357677	0.005422
0.37246	0.005531
0.38006	0.005625
0.395729	0.005734
0.412044	0.005859
0.420452	0.005984
0.429031	0.006109
0.437786	0.006234
0.455835	0.006375
0.465136	0.006484
0.484312	0.006656
0.494195	0.006766
0.504279	0.006891
