Adsorption isotherm of Neon on NC-methanol-a-333k
DOI: 10.1016/j.carbon.2008.11.036
Article source: Figure 3
Adsorbate Neon: InChIKey GKAOGPIIYCISHV-UHFFFAOYSA-N
Kind: experiment
Temperature: 46 K
Tabular data in the source: 0
pressure (bar)	uptake (mol/g)
0.000834	3.1e-05
0.001989	4.7e-05
0.003166	7.8e-05
0.006685	0.000125
0.008693	0.000156
0.010856	0.000203
0.013021	0.000234
0.015617	0.000266
0.017989	0.000297
0.019503	0.000313
0.021145	0.000344
0.022924	0.000375
0.024357	0.000375
0.026946	0.000406
0.028629	0.000438
0.030418	0.000438
0.032978	0.000469
0.035754	0.0005
0.038763	0.000516
0.041184	0.000547
0.044651	0.000594
0.047441	0.000594
0.050404	0.000609
0.053554	0.000625
