Adsorption isotherm of Neon on NC-methanol-a-333k
DOI: 10.1016/j.carbon.2008.11.036
Article source: Figure 3
Adsorbate Neon: InChIKey GKAOGPIIYCISHV-UHFFFAOYSA-N
Kind: experiment
Temperature: 28 K
Tabular data in the source: 0
pressure (bar)	uptake (mol/g)
1.2e-05	0.000109
4.9e-05	0.000234
9.8e-05	0.000344
0.000162	0.000469
0.000229	0.000578
0.000323	0.000687
0.000437	0.000797
0.000592	0.000906
0.000785	0.001031
0.001042	0.001141
0.001411	0.00125
0.001872	0.001375
0.002484	0.001484
0.00323	0.001609
0.004286	0.001672
0.005574	0.001766
0.007103	0.001844
0.009051	0.001922
0.011304	0.001969
0.013287	0.002031
0.015617	0.002078
0.019113	0.002141
0.023392	0.002188
0.029213	0.00225
0.035039	0.002312
0.041184	0.002359
0.049397	0.002422
0.054647	0.002469
0.061689	0.002516
0.066881	0.002547
0.075499	0.002609
0.081853	0.002641
0.086968	0.002687
0.092401	0.002719
0.106438	0.002797
0.120153	0.002875
0.132924	0.002969
0.144112	0.003047
0.159429	0.003125
0.172848	0.003203
0.191219	0.003312
0.203165	0.003406
0.220265	0.003484
0.238801	0.003578
0.26418	0.00375
0.286412	0.003859
0.29822	0.003969
0.323316	0.004078
0.336645	0.004188
0.343515	0.004266
0.37246	0.004375
0.395729	0.004484
0.429031	0.004719
0.455835	0.004844
0.474627	0.004969
0.484312	0.005063
0.504279	0.005156
0.514569	0.005266
0.535783	0.005359
0.557872	0.0055
0.580872	0.005609
0.592725	0.00575
0.604819	0.005875
0.629754	0.005969
0.642605	0.006109
0.669098	0.006375
0.696683	0.006516
0.710899	0.006641
0.725405	0.006797
0.740207	0.006906
