Adsorption isotherm of Neon on NC
DOI: 10.1016/j.carbon.2008.11.036
Article source: Figure 2b
Adsorbate Neon: InChIKey GKAOGPIIYCISHV-UHFFFAOYSA-N
Kind: experiment
Temperature: 31 K
Tabular data in the source: 0
pressure (bar)	uptake (mol/g)
0	0
0.003117	0.001105
0.009351	0.001175
0.012467	0.001298
0.015584	0.001509
0.021818	0.001614
0.037403	0.001684
0.052987	0.001807
0.071688	0.001895
0.087273	0.00193
0.093507	0.001965
0.112208	0.002018
0.130909	0.00207
0.146494	0.002123
0.168312	0.002158
0.177662	0.002175
0.193247	0.002228
0.205714	0.002246
0.221299	0.002281
0.233766	0.002281
0.246234	0.002298
0.255584	0.002316
0.305455	0.002386
0.33039	0.002439
0.352208	0.002456
0.374026	0.002491
0.405195	0.002526
0.461299	0.002596
0.508052	0.002649
0.52987	0.002684
0.551688	0.002719
0.607792	0.002789
0.701299	0.002912
0.81039	0.003053
0.900779	0.003193
0.972468	0.003298
1.09403	0.003456
