Adsorption isotherm of Neon on NC-methanol-a-333k
DOI: 10.1016/j.carbon.2008.11.036
Article source: Figure 2b
Adsorbate Neon: InChIKey GKAOGPIIYCISHV-UHFFFAOYSA-N
Kind: experiment
Temperature: 31 K
Tabular data in the source: 0
pressure (bar)	uptake (mol/g)
0	0
0.003117	0.000439
0.006234	0.001088
0.012467	0.001333
0.018701	0.001421
0.021818	0.001509
0.028052	0.001632
0.031169	0.001684
0.037403	0.001772
0.04987	0.001842
0.056104	0.001895
0.062338	0.001912
0.071688	0.001982
0.081039	0.002018
0.087273	0.002053
0.09974	0.002088
0.118442	0.00214
0.127792	0.002175
0.143377	0.002211
0.155844	0.002246
0.171429	0.002281
0.180779	0.002316
0.193247	0.002333
0.205714	0.002351
0.218182	0.002368
0.227532	0.002404
0.24	0.002421
0.252468	0.002456
0.264935	0.002474
0.271169	0.002474
0.280519	0.002491
0.292987	0.002526
0.321039	0.002561
0.345974	0.002596
0.374026	0.002649
0.405195	0.002684
0.439481	0.002754
0.470649	0.002807
0.508052	0.002842
0.542338	0.002912
0.576623	0.002965
0.610909	0.003035
0.648312	0.003088
0.685714	0.00314
0.723117	0.003211
0.763636	0.003298
0.801039	0.003333
0.838442	0.003404
0.897662	0.003491
0.941299	0.003579
1.00052	0.003702
1.06286	0.003807
1.12519	0.003912
1.18442	0.004035
