Adsorption isotherm of Argon on Zr-fumarate
DOI: 10.1016/j.micromeso.2011.12.010
Adsorbate Argon: InChIKey XKRFYHLGVUSROY-UHFFFAOYSA-N
Temperature: 87 K
Tabular data in the source: 0
pressure (bar)	uptake (cm3(STP)/g)
0.00254225	0.00254225
0.00508451	32.6425
0.00762676	195.829
0.0127113	208.214
0.020338	218.351
0.0355916	227.372
0.0584718	237.527
0.0762676	239.798
0.10169	243.203
0.152535	247.763
0.195754	252.315
0.223718	253.472
0.269479	256.901
0.317782	259.207
0.373711	261.522
0.427099	262.708
0.449979	264.986
0.498282	266.166
0.544042	269.595
0.592345	271.901
0.64319	274.21
0.691493	275.391
0.737254	279.945
0.788099	283.38
0.838944	285.689
0.884704	291.368
0.938092	301.558
