Adsorption isotherm of Carbon Dioxide on Co3(DPyP)3 4DMF
DOI: 10.1039/C3dt53287a
Adsorbate Carbon Dioxide: InChIKey CURLTUGMZLYLDI-UHFFFAOYSA-N
Temperature: 196 K
Tabular data in the source: 0
pressure (bar)	uptake (cm3(STP)/g)
0.00477085	2.05795
0.026836	7.20096
0.0479232	21.1971
0.0778841	25.721
0.111471	29.009
0.137234	33.1219
0.15937	38.4708
0.197226	42.3756
0.23067	45.2518
0.259557	46.6877
0.296699	48.5339
0.346006	50.3778
0.382789	51.1946
0.436008	52.626
0.489084	53.6457
0.546143	54.4587
0.607186	55.0652
0.664173	55.6724
0.716962	55.8686
0.773879	56.2699
0.826812	56.8779
0.883657	57.0733
0.944628	57.4739
0.997489	57.876
1.05846	58.2766
1.11538	58.6779
