Adsorption isotherm of Nitrogen on Co3(DPyP)3 4DMF
DOI: 10.1039/C3dt53287a
Adsorbate Nitrogen: InChIKey IJGRMHOSHXDMSA-UHFFFAOYSA-N
Temperature: 77 K
Tabular data in the source: 0
pressure (bar)	uptake (cm3(STP)/g)
0.0567939	2.25267
0.0814052	2.45334
0.105955	2.44813
0.134074	2.64806
0.148101	2.64509
0.179665	2.6384
0.204214	2.63319
0.225319	2.8346
0.246361	2.83014
0.274417	2.8242
0.295461	2.81974
0.348129	3.01446
0.40092	3.62092
0.446574	3.81713
0.492227	4.01334
0.541388	4.2088
0.590611	4.61013
0.639896	5.21734
0.689181	5.82454
0.731451	6.43323
0.780859	7.45217
0.830577	9.50046
0.877036	12.373
0.924113	17.3042
0.953655	22.2391
0.969539	28.4122
