Adsorption isotherm of Nitrogen on Co3(DPyP)3 4DMF
DOI: 10.1039/C3dt53287a
Adsorbate Nitrogen: InChIKey IJGRMHOSHXDMSA-UHFFFAOYSA-N
Temperature: 77 K
Tabular data in the source: 0
pressure (bar)	uptake (cm3(STP)/g)
0.0656707	2.25267
0.0941288	2.45334
0.122516	2.44813
0.155029	2.64806
0.17125	2.64509
0.207747	2.6384
0.236133	2.63319
0.260536	2.8346
0.284867	2.83014
0.317309	2.8242
0.341641	2.81974
0.402541	3.01446
0.463583	3.62092
0.516373	3.81713
0.569162	4.01334
0.626007	4.2088
0.682923	4.61013
0.739911	5.21734
0.796899	5.82454
0.845776	6.43323
0.902907	7.45217
0.960395	9.50046
1.01412	12.373
1.06855	17.3042
1.10271	22.2391
1.12108	28.4122
