Adsorption isotherm of Nitrogen on C9H5YO7 Dehydrated
DOI: 10.1021/Ja801411f
Adsorbate Nitrogen: InChIKey IJGRMHOSHXDMSA-UHFFFAOYSA-N
Temperature: 87 K
Tabular data in the source: 0
pressure (bar)	uptake (cm3(STP)/g)
0.00243255	3.58251
0.01206	9.31046
0.0264925	17.1856
0.0433404	27.2095
0.0601541	34.366
0.0793661	42.2378
0.100976	50.8246
0.117756	55.1138
0.136959	62.2687
0.158527	67.2714
0.180094	72.274
0.199255	75.8447
0.237593	84.4197
0.278295	90.8425
0.321387	97.2637
0.359674	101.538
0.407529	106.522
0.445816	110.796
0.488882	115.066
0.527152	117.907
0.56782	121.462
0.608471	123.584
0.64913	126.422
0.670655	127.841
0.708916	129.964
0.749576	132.803
0.790227	134.925
0.828488	137.048
0.883468	138.443
0.943246	141.268
0.976719	142.678
1.00302	144.093
