Adsorption isotherm of Hydrogen on C9H5YO7 Dehydrated
DOI: 10.1021/Ja801411f
Adsorbate Hydrogen: InChIKey UFHFLCQGNIYNRP-UHFFFAOYSA-N
Temperature: 87 K
Tabular data in the source: 0
pressure (bar)	uptake (wt%)
0.0971894	0.0694444
0.107113	0.33179
0.20868	0.516975
0.214225	0.66358
0.595978	0.756173
0.696086	0.902778
0.890757	1.04938
0.987654	1.11111
1.17999	1.19599
1.46718	1.28858
1.65864	1.35031
2.03981	1.42747
2.51583	1.51235
2.99127	1.58179
3.56098	1.64352
4.22555	1.71296
5.36234	1.76698
6.40428	1.81327
7.91933	1.86728
9.4335	1.89815
11.2314	1.92901
12.3664	1.93673
13.7854	1.95216
15.9612	1.97531
17.7579	1.97531
19.9332	1.98302
20.7842	1.98302
21.6353	1.98302
25.6069	1.98302
26.2692	1.99074
30.429	1.96759
32.0372	1.98302
34.9672	1.94444
37.1421	1.94444
38.2766	1.93673
