Adsorption isotherm of Hydrogen on C9H5YO7 Dehydrated
DOI: 10.1021/Ja801411f
Adsorbate Hydrogen: InChIKey UFHFLCQGNIYNRP-UHFFFAOYSA-N
Temperature: 77 K
Tabular data in the source: 0
pressure (bar)	uptake (wt%)
0.122581	0.740741
0.222689	0.887346
0.323673	1.0571
0.425532	1.25
0.617868	1.33488
0.620494	1.40432
0.813998	1.52006
1.19517	1.59722
1.29323	1.68981
1.57867	1.73611
2.05469	1.82099
2.53013	1.89043
3.19441	1.95216
4.14179	1.99846
4.99402	2.02932
5.65683	2.05247
6.79275	2.08333
8.11721	2.09877
10.4824	2.12963
11.0495	2.12191
12.5631	2.13735
15.0215	2.12963
15.6834	2.12963
18.2369	2.13735
20.2218	2.1142
21.5463	2.12963
25.2325	2.08333
30.0537	2.04475
32.0401	2.06019
