Adsorption isotherm of Nitrogen on C9H5YO7 Dehydrated
DOI: 10.1021/Ja801411f
Adsorbate Nitrogen: InChIKey IJGRMHOSHXDMSA-UHFFFAOYSA-N
Temperature: 77 K
Tabular data in the source: 0
pressure (bar)	uptake (cm3(STP)/g)
0.00232931	18.3689
0.0186345	23.822
0.037269	26.5556
0.0559034	28.609
0.0768672	30.6639
0.10016	31.3598
0.118795	31.3723
0.149076	32.0729
0.17004	32.7672
0.193333	32.7829
0.221284	33.4819
0.244578	33.4975
0.286505	34.206
0.316786	34.2263
0.340079	34.2419
0.377348	34.9472
0.400641	34.9629
0.449557	35.676
0.47285	35.6916
0.496143	35.027
0.517107	35.7213
0.568352	35.7557
0.605621	36.461
0.645219	36.4876
0.668512	36.5032
0.703452	37.207
0.726745	37.2226
0.805941	38.6363
0.829234	38.652
0.850198	39.3463
0.873491	39.362
0.896784	40.0579
0.917748	40.7522
0.941041	41.4481
0.962005	41.4622
0.982969	41.4763
1.00393	43.5312
