Adsorption isotherm of Carbon Dioxide on MIL-53np (Al)
DOI: 10.1007/s10450-007-9025-5
Adsorbate Carbon Dioxide: InChIKey CURLTUGMZLYLDI-UHFFFAOYSA-N
Temperature: 303 K
Tabular data in the source: 0
pressure (bar)	uptake (molecules/unitcell)
0.136187	0.904462
0.272374	1.3302
0.544747	1.59657
1.08949	1.81017
1.49805	1.86398
2.17899	1.9714
2.58755	2.02521
2.99611	2.07902
3.54086	2.13304
4.0856	2.18706
4.63035	2.18789
5.1751	2.24191
5.58366	2.24253
6.1284	2.24336
6.67315	2.29738
7.2179	2.35139
8.30739	2.35305
9.2607	2.40769
9.80545	2.40852
10.4864	2.46275
12.6654	2.51925
14.9805	2.62915
17.2957	2.84543
19.4747	2.95513
20.8366	3.01039
21.9261	3.01205
22.7432	3.06648
24.3774	3.12215
25.4669	3.177
27.1012	3.23268
28.3268	3.23454
29.4163	3.34258
