Adsorption isotherm of Carbon Dioxide on MIL-53(Al)
DOI: 10.1007/s10450-007-9025-5
Adsorbate Carbon Dioxide: InChIKey CURLTUGMZLYLDI-UHFFFAOYSA-N
Temperature: 303 K
Tabular data in the source: 0
pressure (bar)	uptake (molecules/unitcell)
0.118329	0.702703
0.242162	0.972973
0.491204	1.40541
0.615725	1.62162
0.995479	1.78378
1.63115	1.83784
2.0116	1.94595
2.64727	2
3.0284	2.05405
3.53612	2.16216
4.17248	2.16216
4.5543	2.16216
5.18998	2.21622
5.57179	2.21622
6.33474	2.27027
6.6684	6.05405
6.71587	2.32432
7.17543	6.21622
7.80767	6.54054
8.18604	6.81081
8.69376	6.91892
9.20079	7.08108
9.83577	7.18919
10.3414	7.45946
12.6261	7.94595
14.785	8.32432
17.0738	8.48649
19.3613	8.75676
21.7767	8.97297
24.3187	9.24324
26.7355	9.35135
29.2796	9.45946
