Adsorption isotherm of Carbon Dioxide on MIL-47(V)
DOI: 10.1007/s10450-007-9025-5
Adsorbate Carbon Dioxide: InChIKey CURLTUGMZLYLDI-UHFFFAOYSA-N
Temperature: 303 K
Tabular data in the source: 0
pressure (bar)	uptake (molecules/unitcell)
0.232558	0.529412
0.542636	1.23529
0.852713	1.94118
1.00775	2.47059
1.47287	3.41176
1.86047	4.17647
2.09302	4.58824
2.63566	5.29412
3.33333	6.29412
3.79845	6.94118
4.10853	7.29412
4.8062	7.76471
5.42636	8.17647
6.12403	8.64706
7.2093	9.11765
8.21705	9.70588
9.30233	9.88235
10.4651	10.1176
11.3178	10.3529
12.6357	10.5882
13.7209	10.8235
14.8837	10.9412
16.0465	11.0588
17.1318	11.1765
18.2946	11.2353
19.5349	11.3529
