Adsorption isotherm of Carbon Dioxide on MIL-53lp (Al)
DOI: 10.1007/s10450-007-9025-5
Adsorbate Carbon Dioxide: InChIKey CURLTUGMZLYLDI-UHFFFAOYSA-N
Temperature: 303 K
Tabular data in the source: 0
pressure (bar)	uptake (molecules/unitcell)
0.272374	0.21318
0.40856	0.372961
0.544747	0.692317
1.08949	1.17187
2.0428	2.34353
2.58755	3.03585
3.1323	3.62178
3.54086	4.10113
4.0856	4.4211
4.63035	4.84746
5.1751	5.22063
5.58366	5.48721
6.1284	5.75399
6.67315	6.07397
7.2179	6.28757
7.76265	6.55435
8.17121	6.82093
8.85214	6.87516
9.39689	7.14194
9.94163	7.24915
10.4864	7.46275
12.6654	7.89159
14.8444	8.32043
17.1595	8.53672
19.4747	8.753
21.9261	9.02268
24.3774	9.23918
26.8288	9.40248
29.4163	9.4596
