Adsorption isotherm of Carbon Dioxide on MIL-47(V)
DOI: 10.1007/s10450-007-9025-5
Adsorbate Carbon Dioxide: InChIKey CURLTUGMZLYLDI-UHFFFAOYSA-N
Temperature: 303 K
Tabular data in the source: 0
pressure (bar)	uptake (molecules/unitcell)
0.232558	0.294118
0.620155	0.882353
1.00775	1.52941
1.70543	2.41176
2.24806	3.17647
2.71318	3.76471
3.17829	4.17647
3.72093	4.82353
4.26357	5.35294
5.34884	6
6.20155	6.52941
7.05426	7
8.06202	7.35294
9.06977	7.76471
9.76744	8
10.5426	8.29412
11.2403	8.52941
11.938	8.70588
12.6357	8.88235
13.2558	9.05882
13.876	9.23529
14.8837	9.47059
15.814	9.70588
16.6667	9.88235
17.5194	10.0588
18.062	10.2353
18.8372	10.4118
19.5349	10.6471
20.2326	10.7647
