Adsorption isotherm of Carbon Dioxide on MIL-53(Al)
DOI: 10.1007/s10450-007-9025-5
Adsorbate Carbon Dioxide: InChIKey CURLTUGMZLYLDI-UHFFFAOYSA-N
Temperature: 303 K
Tabular data in the source: 0
pressure (bar)	uptake (molecules/unitcell)
0.636364	1.77419
1.14545	1.98925
1.65455	2.31183
2.03636	2.31183
2.92727	2.47312
3.81818	2.63441
4.70909	2.68817
5.72727	2.74194
6.49091	2.95699
7	3.22581
7.25455	3.8172
7.63636	4.4086
9.54545	6.72043
12.0909	7.25806
14.5091	7.68817
16.5455	7.90323
18.5818	8.01075
20.1091	8.22581
21.3818	8.27957
22.7818	8.44086
24.8182	8.49462
26.4727	8.60215
27.6182	8.65591
29.0182	8.76344
30.2909	8.76344
31.4364	8.8172
