Adsorption isotherm of Methane on Activated carbon: WV1050
DOI: 10.1260/0263-6174.29.7.651
Article source: Figure 3a
Adsorbate Methane: InChIKey VNWKTOKETHGBQD-UHFFFAOYSA-N
Kind: experiment
Temperature: 293 K
Tabular data in the source: 0
pressure (bar)	uptake (mmol/g)
0.237	0.133
0.505	0.273
0.679	0.359
0.963	0.665
2.52	1.26
5.71	2.41
7.57	2.84
11	3.56
14.6	4.15
