Adsorption isotherm of Carbon Dioxide on Activated carbon: WV1050
DOI: 10.1260/0263-6174.29.7.651
Article source: Figure 2a
Adsorbate Carbon Dioxide: InChIKey CURLTUGMZLYLDI-UHFFFAOYSA-N
Kind: experiment
Temperature: 293 K
Tabular data in the source: 0
pressure (bar)	uptake (mmol/g)
0.14	0.366
0.14	0.799
0.945	2.18
2.36	3.66
4.94	5.68
7.53	7.27
9.59	8.5
15	11
