Adsorption isotherm of Carbon Dioxide, Methane on Activated carbon: WV1050
DOI: 10.1260/0263-6174.29.7.651
Article source: Figure 5a & 9
Adsorbate Carbon Dioxide: InChIKey CURLTUGMZLYLDI-UHFFFAOYSA-N
Adsorbate Methane: InChIKey VNWKTOKETHGBQD-UHFFFAOYSA-N
Kind: experiment
Temperature: 293 K
Tabular data in the source: 0
pressure (bar)	Carbon Dioxide fraction	Carbon Dioxide uptake (mmol/g)	Methane fraction	Methane uptake (mmol/g)	total uptake (mmol/g)
2.5	0.78	3.2009	0.22	0.1924	3.3933
5	0.78	0.279	0.22	5.1567	5.1567
10	0.78	0.4207	0.22	7.6585	7.6585
