Adsorption isotherm of Carbon Dioxide, Methane on Activated carbon: WV1050
DOI: 10.1260/0263-6174.29.7.651
Article source: Figure 4a & 9
Adsorbate Carbon Dioxide: InChIKey CURLTUGMZLYLDI-UHFFFAOYSA-N
Adsorbate Methane: InChIKey VNWKTOKETHGBQD-UHFFFAOYSA-N
Kind: experiment
Temperature: 293 K
Tabular data in the source: 0
pressure (bar)	Carbon Dioxide fraction	Carbon Dioxide uptake (mmol/g)	Methane fraction	Methane uptake (mmol/g)	total uptake (mmol/g)
2.5	0.18	1.0974	0.82	1.1	2.1974
5	0.18	1.6359	0.82	1.7513	3.3872
10	0.18	2.415	0.82	2.5852	5.0002
