Adsorption isotherm of Carbon Dioxide on TMPS-4a
DOI: 10.1007/s10450-016-9845-2
Article source: Figure 1f
Adsorbate Carbon Dioxide: InChIKey CURLTUGMZLYLDI-UHFFFAOYSA-N
Kind: experiment
Isotherm type: excess
Temperature: 298 K
Tabular data in the source: 0
pressure (bar)	uptake (cm3(STP)/g)
0.000745	0.058139
0.000998	0.058139
0.007231	0.203488
0.010271	0.261628
0.04778	1.07558
0.096391	1.94767
0.146372	2.76163
0.197734	3.57558
0.245709	4.3314
0.295289	5.08721
0.348992	5.61047
0.392296	6.42442
0.448404	7.15116
0.504043	7.76163
0.538883	8.43023
0.595712	8.98256
0.615957	9.7093
0.680913	10.2907
0.727979	10.8721
0.765402	11.4826
0.846118	12.1512
0.889614	12.7035
0.935346	13.1977
0.951107	13.8081
