Adsorption isotherm of Carbon Dioxide on Zeolite Y
DOI: 10.1007/s10450-016-9845-2
Article source: Figure 2c
Adsorbate Carbon Dioxide: InChIKey CURLTUGMZLYLDI-UHFFFAOYSA-N
Kind: experiment
Isotherm type: excess
Temperature: 298 K
Tabular data in the source: 0
pressure (bar)	uptake (cm3(STP)/g)
9.6e-05	1.03858
0.000201	1.03858
0.000685	2.07715
0.001074	3.11573
0.004233	13.5015
0.007509	20.7715
0.010207	29.0801
0.027262	64.3917
0.048355	98.6647
0.053566	105.935
0.074321	138.131
0.095012	162.018
0.123975	183.828
0.152133	206.677
0.170259	225.89
0.202613	245.104
0.224446	261.721
0.248631	279.377
0.264376	294.955
0.292864	310.534
0.31785	326.113
0.352101	341.691
0.374398	353.116
0.390042	364.54
0.406339	373.887
0.441006	385.312
0.450125	391.543
0.468933	402.967
0.498629	415.43
0.50894	425.816
0.54117	436.202
0.563782	449.703
0.57544	459.05
0.611881	472.552
0.650629	485.015
0.677815	497.478
0.706137	512.018
0.735642	529.674
0.76638	542.136
0.798403	556.677
0.831764	570.178
0.866518	584.718
0.921392	596.142
0.959892	607.567
