Adsorption isotherm of Nitrogen on Carbon Black
DOI: 10.1007/s10450-016-9845-2
Article source: Figure 1a
Adsorbate Nitrogen: InChIKey IJGRMHOSHXDMSA-UHFFFAOYSA-N
Kind: experiment
Isotherm type: excess
Temperature: 77 K
Tabular data in the source: 0
pressure (bar)	uptake (cm3(STP)/g)
1e-06	0.817157
2e-06	0.817157
3e-06	1.6887
4e-06	1.6887
5e-06	2.56024
1.3e-05	2.56024
2.1e-05	2.56024
3.9e-05	2.56024
5.7e-05	5.17487
8e-05	3.43178
0.000221	5.17487
0.000322	6.91795
0.000493	8.66103
0.001129	9.53257
0.003375	13.0187
0.008372	12.1472
0.013184	12.1472
0.028612	13.8903
0.050143	14.7618
0.074861	14.7618
0.105949	15.6334
0.149947	15.6334
0.223864	18.248
0.308476	21.7342
0.425068	24.3488
0.617877	29.578
0.765115	38.2935
0.922461	51.3666
0.922461	67.9259
0.947439	82.7421
0.947439	94.9437
0.898142	125.448
0.922461	154.208
0.922461	177.74
0.947439	211.73
0.922461	243.977
0.947439	276.224
0.973093	309.343
0.973093	339.847
0.973093	369.479
0.947439	403.469
0.973093	434.845
0.999441	465.349
