Adsorption isotherm of Carbon Dioxide on Zeolite Y
DOI: 10.1007/s10450-016-9845-2
Article source: Figure 2
Adsorbate Carbon Dioxide: InChIKey CURLTUGMZLYLDI-UHFFFAOYSA-N
Kind: experiment
Temperature: 298 K
Tabular data in the source: 0
pressure (bar)	uptake (ml/g)
0.267526	0
8.05096	134.234
9.96178	617.117
