Adsorption isotherm of Water on TMPS-4a
DOI: 10.1007/s10450-016-9845-2
Article source: Figure 1e
Adsorbate Water: InChIKey XLYOFNOQVPJJNP-UHFFFAOYSA-N
Kind: experiment
Isotherm type: excess
Temperature: 298 K
Tabular data in the source: 0
pressure (bar)	uptake (cm3(STP)/g)
8e-06	1.60256
1.3e-05	4.80769
2.9e-05	6.41026
5.6e-05	9.61539
9.8e-05	9.61539
0.000215	14.4231
0.000387	14.4231
0.000629	20.8333
0.001007	25.641
0.001457	27.2436
0.00197	30.4487
0.00241	35.2564
0.003206	38.4615
0.004959	48.0769
0.006379	56.0897
0.007934	64.1026
0.009384	72.1154
0.011477	84.9359
0.013127	99.359
0.014276	112.179
0.015788	126.603
0.017461	145.833
0.018057	171.474
0.018362	189.103
0.019311	238.782
0.019311	283.654
0.01997	331.731
0.01997	371.795
0.019637	419.872
0.020651	463.141
0.020308	509.615
0.01997	556.09
0.020651	599.359
0.020651	645.833
0.021001	685.897
0.020651	732.372
0.021001	775.641
0.020651	815.705
0.020651	858.974
0.022085	879.808
0.023619	905.449
0.026121	929.487
0.027935	945.513
0.028888	966.346
0.029377	979.167
0.029377	1019.23
