Adsorption isotherm of Carbon Dioxide on Carbon Black
DOI: 10.1007/s10450-016-9845-2
Article source: Figure 1c
Adsorbate Carbon Dioxide: InChIKey CURLTUGMZLYLDI-UHFFFAOYSA-N
Kind: experiment
Isotherm type: excess
Temperature: 298 K
Tabular data in the source: 0
pressure (bar)	uptake (cm3(STP)/g)
0.025085	0.014514
0.051104	0.058055
0.074926	0.058055
0.102034	0.058055
0.125639	0.087083
0.152642	0.101597
0.175751	0.101597
0.202359	0.130624
0.22835	0.101597
0.252541	0.159652
0.275571	0.188679
0.306818	0.188679
0.332557	0.217707
0.350905	0.217707
0.370265	0.232221
0.393326	0.246734
0.417822	0.290276
0.446833	0.30479
0.47786	0.348331
0.507621	0.377358
0.532044	0.391872
0.584472	0.435414
0.629265	0.493469
0.668456	0.566038
0.71487	0.609579
0.754312	0.667634
0.817592	0.754717
0.868511	0.812772
0.922602	0.885341
0.980062	0.928882
