Adsorption isotherm of Water on Aerosil 200
DOI: 10.1007/s10450-016-9845-2
Article source: Figure 1b
Adsorbate Water: InChIKey XLYOFNOQVPJJNP-UHFFFAOYSA-N
Kind: experiment
Isotherm type: excess
Temperature: 298 K
Tabular data in the source: 0
pressure (bar)	uptake (cm3(STP)/g)
0.000605	3.48837
0.000874	4.36047
0.001188	6.10465
0.001897	7.84884
0.003303	12.2093
0.004258	13.0814
0.005309	17.4419
0.005869	18.314
0.006317	20.0581
0.007876	22.6744
0.009184	24.4186
0.010498	26.1628
0.011761	30.5233
0.013265	32.2674
0.014373	35.7558
0.015888	39.2442
0.017331	44.4767
0.018904	49.7093
0.020483	56.686
0.021899	65.407
0.023101	79.3605
0.024208	88.0814
0.024864	93.3139
0.025367	100.291
0.026055	114.244
0.026761	131.686
0.02694	150
0.027303	164.826
0.02767	179.651
0.027856	197.093
0.028043	211.047
0.02842	231.977
0.028802	253.779
0.02842	277.326
0.028802	297.384
0.028996	320.93
0.029781	337.5
0.029386	358.43
0.029386	378.488
0.02919	400.291
0.02919	419.477
0.029981	442.151
0.029781	463.953
0.029781	485.756
0.029781	506.686
0.029583	526.744
0.029583	548.547
