Adsorption isotherm of Nitrogen on Zeolite Y
DOI: 10.1007/s10450-016-9845-2
Article source: Figure 2a
Adsorbate Nitrogen: InChIKey IJGRMHOSHXDMSA-UHFFFAOYSA-N
Kind: experiment
Isotherm type: excess
Temperature: 77 K
Tabular data in the source: 0
pressure (bar)	uptake (cm3(STP)/g)
3e-06	6.61765
4e-06	9.26471
5e-06	17.6471
6e-06	26.9118
7e-06	36.1765
9e-06	45
1.5e-05	54.2647
2.3e-05	62.6471
3.6e-05	71.9118
4.1e-05	74.1176
5.1e-05	83.3824
6.5e-05	89.5588
8.3e-05	97.5
8.8e-05	103.676
0.000131	112.941
0.000183	120.441
0.000207	124.853
0.000308	134.118
0.00055	142.941
0.00087	148.235
0.001181	150.882
0.002243	156.176
0.003548	159.706
0.00615	163.235
0.007854	165.441
0.01003	165.882
0.028354	170.294
0.052252	173.382
0.075405	175.147
0.108815	176.912
0.134775	178.235
0.200529	179.559
0.27222	181.324
0.392837	183.529
0.486556	186.618
0.602633	190.588
0.793454	195.441
0.793454	200.294
0.843472	203.824
0.896642	211.324
0.924472	215.294
0.953165	222.353
1.0447	243.088
1.0447	265.147
1.0447	285.441
