Adsorption isotherm of Water on Zeolite Y
DOI: 10.1007/s10450-016-9845-2
Article source: Figure 2
Adsorbate Water: InChIKey XLYOFNOQVPJJNP-UHFFFAOYSA-N
Kind: experiment
Temperature: 298 K
Tabular data in the source: 0
pressure (bar)	uptake (ml/g)
0.058283	0.384123
0.068663	0.768246
0.090619	4.60948
0.0998	6.53009
0.105389	9.9872
0.120558	18.4379
0.134131	27.2727
0.162474	44.5583
0.17485	53.3931
0.185229	62.2279
0.196007	70.6786
0.204789	79.5134
0.213572	88.3483
0.221955	100.256
0.234729	124.456
0.239121	136.748
0.242713	148.656
0.246705	160.179
0.250697	172.087
0.253093	185.531
0.256286	197.823
0.258681	209.731
0.263472	228.937
0.265867	238.156
0.267863	246.991
0.269859	255.442
0.273052	268.118
0.274649	275.8
0.27944	285.019
