Adsorption isotherm of Carbon Dioxide on Zeolite Y
DOI: 10.1007/s10450-016-9845-2
Article source: Figure 2
Adsorbate Carbon Dioxide: InChIKey CURLTUGMZLYLDI-UHFFFAOYSA-N
Kind: experiment
Temperature: 298 K
Tabular data in the source: 0
pressure (bar)	uptake (ml/g)
3.27389	0
3.82166	0.900901
4.71338	2.7027
5.00637	3.6036
5.98727	15.3153
6.42039	22.5225
6.67516	30.6306
7.33758	67.5676
7.7707	100.901
7.82166	110.811
8.10191	139.64
8.25478	161.261
8.4586	187.387
8.59873	209.009
8.6879	229.73
8.80255	246.847
8.87898	263.964
8.96815	281.081
9.04459	297.297
9.07006	312.613
9.1465	327.928
9.19745	342.342
9.24841	354.054
9.27389	370.27
9.35032	382.883
9.38854	396.396
9.42675	409.91
9.47771	417.117
9.50319	432.432
9.5414	445.946
9.56688	454.955
9.59236	466.667
9.64331	479.279
9.65605	485.586
9.66879	497.297
9.68153	504.505
9.68153	511.712
9.70701	527.027
9.7707	539.64
9.80892	550.45
9.8344	561.261
9.88535	573.874
9.91083	590.09
9.96178	602.703
9.96178	611.712
