Adsorption isotherm of Water on Zeolite Y
DOI: 10.1007/s10450-016-9845-2
Article source: Figure 2b
Adsorbate Water: InChIKey XLYOFNOQVPJJNP-UHFFFAOYSA-N
Kind: experiment
Isotherm type: excess
Temperature: 298 K
Tabular data in the source: 0
pressure (bar)	uptake (cm3(STP)/g)
8e-06	2.67062
1e-05	8.45697
1e-05	17.3591
1.4e-05	26.2611
2.2e-05	35.6083
3.7e-05	44.5104
6e-05	52.5223
0.000101	60.5341
0.000152	68.9911
0.000243	77.8932
0.000336	86.7952
0.000527	97.4777
0.000731	110.386
0.000954	121.068
0.00117	132.641
0.001406	145.104
0.001623	156.231
0.001872	168.694
0.00225	182.047
0.002544	194.51
0.002817	206.973
0.003185	218.546
0.003318	225.223
0.00375	235.905
0.00407	244.807
0.004601	254.154
0.005096	262.611
0.005644	271.958
0.006125	280.861
0.007362	289.763
0.008322	294.659
