Adsorption isotherm of Nitrogen on TMPS-4a
DOI: 10.1007/s10450-016-9845-2
Article source: Figure 1d
Adsorbate Nitrogen: InChIKey IJGRMHOSHXDMSA-UHFFFAOYSA-N
Kind: experiment
Isotherm type: excess
Temperature: 77 K
Tabular data in the source: 0
pressure (bar)	uptake (cm3(STP)/g)
2e-06	0
3e-06	5.22449
4e-06	9.14286
6e-06	11.7551
1.1e-05	18.2857
2.1e-05	24.8163
3.4e-05	31.3469
5.8e-05	35.2653
9e-05	39.1837
0.000206	52.2449
0.000353	60.0816
0.000541	66.6122
0.000747	70.5306
0.000951	77.0612
0.001087	79.6735
0.001961	87.5102
0.003177	103.184
0.004751	109.714
0.006212	117.551
0.008122	122.776
0.010338	126.694
0.018648	141.061
0.025726	148.898
0.043982	161.959
0.051658	168.49
0.067544	181.551
0.085979	188.082
0.106549	197.224
0.128548	207.673
0.155088	218.122
0.182158	231.184
0.231873	245.551
0.272345	263.837
0.346676	286.041
0.407185	305.633
0.418251	347.429
0.418251	378.776
0.441293	399.673
0.453285	446.694
0.465604	482.612
0.465604	504.163
0.561733	514.612
0.696128	526.367
0.77494	538.122
0.88612	551.184
0.910201	591.673
0.910201	626.939
0.960344	668.735
0.934936	702.694
0.960344	735.347
0.986442	787.592
0.934936	817.633
0.960344	848.98
