Adsorption isotherm of Hydrogen on IRMOF-8
DOI: 10.1021/Ja0542690
Adsorbate Hydrogen: InChIKey UFHFLCQGNIYNRP-UHFFFAOYSA-N
Temperature: 77 K
Tabular data in the source: 0
pressure (bar)	uptake (molecules/unitcell)
0.0140911	0.853225
0.0454516	1.47452
0.0739672	2.01819
0.0968152	2.3291
0.133988	2.67929
0.179739	3.10731
0.20261	3.3407
0.234081	3.5744
0.26842	3.8082
0.30277	4.00325
0.339976	4.23716
0.371447	4.47086
0.405797	4.66591
0.468785	4.97828
0.534651	5.25199
0.580458	5.48621
0.660648	5.7992
0.703611	5.9558
0.760886	6.19044
0.812428	6.42487
0.861147	6.50416
0.929891	6.73922
0.964274	6.81799
1.00151	6.93562
