Adsorption isotherm of Hydrogen on IRMOF-11
DOI: 10.1021/Ja0542690
Adsorbate Hydrogen: InChIKey UFHFLCQGNIYNRP-UHFFFAOYSA-N
Temperature: 77 K
Tabular data in the source: 0
pressure (bar)	uptake (molecules/unitcell)
0.00556754	0.581598
0.0112129	0.89188
0.025404	1.39627
0.0510747	1.86232
0.0738894	2.28951
0.105294	2.75576
0.130987	3.14429
0.179562	3.72746
0.196687	3.9994
0.219568	4.19403
0.242438	4.42741
0.262441	4.6607
0.282467	4.81647
0.290979	5.12685
0.313916	5.12769
0.33393	5.32221
0.356812	5.51684
0.379682	5.75023
0.405453	5.86745
0.428334	6.06208
0.451215	6.25671
0.47123	6.45123
0.476975	6.41268
0.502724	6.60742
0.528483	6.76339
0.554243	6.91937
0.580002	7.07534
0.605762	7.23132
0.631522	7.38729
0.657281	7.54327
0.683052	7.66048
0.708812	7.81646
0.746029	8.01161
0.771799	8.12882
0.797559	8.2848
0.823318	8.44077
0.851967	8.51933
0.877727	8.67531
0.903487	8.83128
0.929246	8.98726
0.955028	9.06571
0.980799	9.18293
1.00657	9.30014
