Adsorption isotherm of Hydrogen on IRMOF-1
DOI: 10.1021/Ja0542690
Adsorbate Hydrogen: InChIKey UFHFLCQGNIYNRP-UHFFFAOYSA-N
Temperature: 77 K
Tabular data in the source: 0
pressure (bar)	uptake (molecules/unitcell)
0.0286045	0.233598
0.065777	0.583786
0.105817	0.934078
0.134421	1.16768
0.165904	1.36262
0.191641	1.59611
0.200232	1.63518
0.231714	1.83013
0.268931	2.02528
0.300414	2.22022
0.334775	2.37651
0.371981	2.61042
0.403486	2.72784
0.429245	2.88382
0.475053	3.11804
0.500823	3.23525
0.532328	3.35268
0.569556	3.50907
0.612507	3.70443
0.666938	3.86145
0.709878	4.09556
0.747118	4.2132
0.795803	4.40876
0.841632	4.56547
0.884606	4.68331
0.933291	4.87888
0.964807	4.95754
1.00205	5.07517
