Adsorption isotherm of Hydrogen on MOF-177
DOI: 10.1021/Ja0542690
Adsorbate Hydrogen: InChIKey UFHFLCQGNIYNRP-UHFFFAOYSA-N
Temperature: 77 K
Tabular data in the source: 0
pressure (bar)	uptake (molecules/unitcell)
0.0143023	0.116799
0.0571757	0.583473
0.0943371	0.97242
0.140078	1.4392
0.188696	1.86732
0.234459	2.25658
0.277366	2.60698
0.320295	2.87986
0.363213	3.19149
0.397529	3.50282
0.440458	3.7757
0.497678	4.20413
0.532028	4.39918
0.569223	4.67185
0.620742	4.9838
0.663682	5.21792
0.692298	5.41276
0.738094	5.68574
0.786768	5.92006
0.838287	6.23201
0.884095	6.46624
0.927024	6.73911
0.961385	6.8954
0.998602	7.09055
