Adsorption isotherm of Isobutane on CuBTC
DOI: 10.1021/La8008656
Adsorbate Isobutane: InChIKey NNPPMTNAJDCUHE-UHFFFAOYSA-N
Temperature: 323 K
Tabular data in the source: 0
pressure (bar)	uptake (Fractional Coverage)
0.000186	0.00187239
0.00234887	0.0761581
0.00549509	0.196326
0.0070682	0.290276
0.00896904	0.469435
0.0104111	0.602713
0.0115909	0.672629
0.013164	0.738175
0.0154581	0.786242
0.0230615	0.864898
0.0282396	0.895486
