Adsorption isotherm of Isobutene on CuBTC
DOI: 10.1021/La8008656
Adsorbate Isobutene: InChIKey VQTUBCCKSQIDNK-UHFFFAOYSA-N
Temperature: 313 K
Tabular data in the source: 0
pressure (bar)	uptake (Fractional Coverage)
0.000678	0.335058
0.00102726	0.409344
0.00163902	0.477803
0.00360541	0.619091
0.00600877	0.753097
0.00801886	0.81136
0.0108155	0.859428
0.0147046	0.891472
0.0195987	0.916234
0.0249298	0.9308
