Adsorption isotherm of Isobutane on CuBTC
DOI: 10.1021/La8008656
Adsorbate Isobutane: InChIKey NNPPMTNAJDCUHE-UHFFFAOYSA-N
Temperature: 303 K
Tabular data in the source: 0
pressure (bar)	uptake (mol/g)
0.00347432	0.00226384
0.0037365	0.00276344
0.00404238	0.00327325
0.00443566	0.00384423
0.00517852	0.00437442
0.00666423	0.00485364
0.00959196	0.00517991
0.019555	0.0054756
0.0257163	0.00558776
