Adsorption isotherm of Nitrogen on CuBTC
DOI: 10.1021/La8008656
Adsorbate Nitrogen: InChIKey IJGRMHOSHXDMSA-UHFFFAOYSA-N
Temperature: 77 K
Tabular data in the source: 0
pressure (bar)	uptake (ml/g)
0.00153064	216.322
0.0194466	258.927
0.0308079	259.583
0.0402757	260.238
0.0495979	261.549
0.0603766	261.549
0.0711553	263.516
0.0838276	262.205
0.0976651	263.516
