Adsorption isotherm of Isobutane on CuBTC
DOI: 10.1021/La8008656
Adsorbate Isobutane: InChIKey NNPPMTNAJDCUHE-UHFFFAOYSA-N
Temperature: 303 K
Tabular data in the source: 0
pressure (bar)	uptake (mol/g)
0.000678	0.000286
0.00133314	0.000602
0.00238188	0.0013054
0.00312474	0.00219246
0.0037802	0.00322227
0.00456675	0.00372187
0.00640205	0.0041705
0.0100726	0.00448658
0.0206911	0.0047109
0.0267214	0.00479246
