Adsorption isotherm of Isobutane on CuBTC
DOI: 10.1021/La8008656
Adsorbate Isobutane: InChIKey NNPPMTNAJDCUHE-UHFFFAOYSA-N
Temperature: 303 K
Tabular data in the source: 0
pressure (bar)	uptake (mol/g)
0.00071	0.000277
0.00228332	0.000976
0.00313543	0.00178036
0.00379089	0.0027417
0.0043808	0.00379044
0.00503627	0.00438473
0.00660938	0.0048217
0.00949341	0.0051538
0.0140161	0.00534607
0.0258144	0.0055733
