Adsorption isotherm of Nitrogen on CuBTC
DOI: 10.1021/La8008656
Adsorbate Nitrogen: InChIKey IJGRMHOSHXDMSA-UHFFFAOYSA-N
Temperature: 77 K
Tabular data in the source: 0
pressure (bar)	uptake (ml/g)
7.41e-05	80.6415
0.00022	37.381
0.00167629	285.146
0.00400683	324.473
0.00939618	334.961
0.0197379	338.894
0.0382365	343.482
0.0602309	344.137
0.0822253	345.448
0.0911105	344.137
