Adsorption isotherm of Isobutane on CuBTC
DOI: 10.1021/La8008656
Adsorbate Isobutane: InChIKey NNPPMTNAJDCUHE-UHFFFAOYSA-N
Temperature: 313 K
Tabular data in the source: 0
pressure (bar)	uptake (Fractional Coverage)
0.000907	0.043385
0.00254551	0.139519
0.00372534	0.244393
0.00490517	0.366746
0.00582282	0.508763
0.00687156	0.670444
0.00805139	0.742545
0.00995223	0.814645
0.0130329	0.862713
0.0281085	0.941368
