Adsorption isotherm of Isobutene on CuBTC
DOI: 10.1021/La8008656
Adsorbate Isobutene: InChIKey VQTUBCCKSQIDNK-UHFFFAOYSA-N
Temperature: 303 K
Tabular data in the source: 0
pressure (bar)	uptake (mol/g)
0.000415	0.000806
0.00102726	0.00124423
0.00181381	0.00165207
0.00325583	0.00208031
0.00439196	0.00222305
0.00605247	0.00241678
0.00841213	0.00250854
0.0137869	0.00264109
0.0206474	0.00274305
0.0294743	0.00282462
