Adsorption isotherm of Isobutene on CuBTC
DOI: 10.1021/La8008656
Adsorbate Isobutene: InChIKey VQTUBCCKSQIDNK-UHFFFAOYSA-N
Temperature: 303 K
Tabular data in the source: 0
pressure (bar)	uptake (Fractional Coverage)
0.000328	0.317579
0.000721	0.46178
0.00190121	0.610352
0.00343062	0.757467
0.00465415	0.823013
0.00692642	0.885646
0.0108592	0.929344
0.0164962	0.946822
0.0227449	0.965758
0.0292121	0.977411
