Adsorption isotherm of Isobutene on CuBTC
DOI: 10.1021/La8008656
Adsorbate Isobutene: InChIKey VQTUBCCKSQIDNK-UHFFFAOYSA-N
Temperature: 303 K
Tabular data in the source: 0
pressure (bar)	uptake (mol/g)
0.000153	0.000286
0.00059	0.000612
0.00124575	0.000918
0.00220709	0.00121364
0.00391129	0.00149913
0.0071886	0.00167246
0.0116457	0.00177442
0.0169768	0.0018254
0.0234878	0.00187638
0.0298676	0.00193756
