Adsorption isotherm of Isobutane on CuBTC
DOI: 10.1021/La8008656
Adsorbate Isobutane: InChIKey NNPPMTNAJDCUHE-UHFFFAOYSA-N
Temperature: 303 K
Tabular data in the source: 0
pressure (bar)	uptake (mol/g)
0.000328	0.000225
0.00120205	0.000806
0.002076	0.00117286
0.00395499	0.00134619
0.00740709	0.00147874
0.0116894	0.00152972
0.0165836	0.00156031
0.0218273	0.00160109
0.0270273	0.0015909
