Adsorption isotherm of Isobutane on CuBTC
DOI: 10.1021/La8008656
Adsorbate Isobutane: InChIKey NNPPMTNAJDCUHE-UHFFFAOYSA-N
Temperature: 303 K
Tabular data in the source: 0
pressure (bar)	uptake (mol/g)
0.000678	0.000174
0.00177011	0.000643
0.00268776	0.00120344
0.00325583	0.0018356
0.00386759	0.00254933
0.00421717	0.00296737
0.00504743	0.00334462
0.00701381	0.00371168
0.0106844	0.00394619
0.0295617	0.00420109
