Adsorption isotherm of Isobutane on CuBTC
DOI: 10.1021/La8008656
Adsorbate Isobutane: InChIKey NNPPMTNAJDCUHE-UHFFFAOYSA-N
Temperature: 318 K
Tabular data in the source: 0
pressure (bar)	uptake (Fractional Coverage)
0.00215223	0.078343
0.00385643	0.176662
0.005364	0.277167
0.00654383	0.399519
0.00746148	0.528427
0.00903459	0.676998
0.01028	0.753469
0.012443	0.801536
0.0157203	0.845234
0.0297472	0.923889
