Adsorption isotherm of Isobutane on CuBTC
DOI: 10.1021/La8008656
Adsorbate Isobutane: InChIKey NNPPMTNAJDCUHE-UHFFFAOYSA-N
Temperature: 303 K
Tabular data in the source: 0
pressure (bar)	uptake (Fractional Coverage)
0.000448	0.043385
0.00175895	0.148259
0.00254551	0.281536
0.00300433	0.427923
0.00372534	0.596158
0.00418416	0.690108
0.00490517	0.773133
0.00693711	0.853973
0.0106077	0.908595
0.0295506	0.980696
