Adsorption isotherm of Isobutene on CuBTC
DOI: 10.1021/La8008656
Adsorbate Isobutene: InChIKey VQTUBCCKSQIDNK-UHFFFAOYSA-N
Temperature: 323 K
Tabular data in the source: 0
pressure (bar)	uptake (Fractional Coverage)
0.000284	0.0437413
0.000634	0.273881
0.00177011	0.399147
0.00264407	0.463237
0.00517852	0.587047
0.00854322	0.703573
0.0108155	0.757467
0.0138522	0.807548
0.0180672	0.85321
0.0296934	0.902384
