Adsorption isotherm of Nitrogen on CuBTC
DOI: 10.1021/La8008656
Adsorbate Nitrogen: InChIKey IJGRMHOSHXDMSA-UHFFFAOYSA-N
Temperature: 77 K
Tabular data in the source: 0
pressure (bar)	uptake (ml/g)
0.000511	87.8516
0.000802	179.616
0.00342419	264.826
0.0101245	273.347
0.0195923	278.591
0.0305166	280.558
0.0488696	283.835
0.0711553	285.146
0.0829536	283.835
0.0868864	284.49
