Adsorption isotherm of Nitrogen on CuBTC
DOI: 10.1021/La8008656
Adsorbate Nitrogen: InChIKey IJGRMHOSHXDMSA-UHFFFAOYSA-N
Temperature: 77 K
Tabular data in the source: 0
pressure (bar)	uptake (ml/g)
0.00022	53.7676
0.000365	111.448
0.000802	223.532
0.00677433	281.213
0.00983316	284.49
0.0191553	289.734
0.0388192	294.322
0.0602309	296.289
0.082808	298.255
0.0924214	298.91
