Adsorption isotherm of Isobutane on CuBTC
DOI: 10.1021/La8008656
Adsorbate Isobutane: InChIKey NNPPMTNAJDCUHE-UHFFFAOYSA-N
Temperature: 308 K
Tabular data in the source: 0
pressure (bar)	uptake (Fractional Coverage)
0.000514	0.0455699
0.00228332	0.150444
0.00320097	0.272797
0.00372534	0.347082
0.00431526	0.495654
0.00516736	0.659519
0.00595391	0.74473
0.00785475	0.8212
0.0111321	0.878007
0.0264043	0.956662
