Adsorption isotherm of Isobutene on CuBTC
DOI: 10.1021/La8008656
Adsorbate Isobutene: InChIKey VQTUBCCKSQIDNK-UHFFFAOYSA-N
Temperature: 303 K
Tabular data in the source: 0
pressure (bar)	uptake (mol/g)
0.000186	0.000347
0.000382	0.00160557
0.000907	0.00303885
0.00103795	0.0034933
0.00221778	0.00443716
0.00359425	0.00539851
0.00497072	0.00583548
0.00667492	0.00616758
0.0100833	0.00646473
0.0247001	0.00677935
