Adsorption isotherm of Isobutene on CuBTC
DOI: 10.1021/La8008656
Adsorbate Isobutene: InChIKey VQTUBCCKSQIDNK-UHFFFAOYSA-N
Temperature: 303 K
Tabular data in the source: 0
pressure (bar)	uptake (mol/g)
0.000153	0.000724
0.000153	0.00164188
0.000459	0.00216187
0.00120205	0.00324266
0.00190121	0.00376266
0.00290625	0.00434384
0.00417348	0.00489442
0.00683902	0.00531246
0.0157096	0.00569991
0.0271584	0.00584266
