Adsorption isotherm of Nitrogen on CuBTC
DOI: 10.1021/La8008656
Adsorbate Nitrogen: InChIKey IJGRMHOSHXDMSA-UHFFFAOYSA-N
Temperature: 77 K
Tabular data in the source: 0
pressure (bar)	uptake (ml/g)
0.000511	62.9441
0.000802	254.994
0.00167629	317.919
0.00327854	344.137
0.00983316	361.179
0.0206119	364.457
0.0415867	369.045
0.0605222	370.356
0.0835362	370.356
0.087469	370.356
