Adsorption isotherm of Isobutene on CuBTC
DOI: 10.1021/La8008656
Adsorbate Isobutene: InChIKey VQTUBCCKSQIDNK-UHFFFAOYSA-N
Temperature: 318 K
Tabular data in the source: 0
pressure (bar)	uptake (Fractional Coverage)
0.000809	0.333601
0.00124575	0.402061
0.002076	0.47052
0.00325583	0.536066
0.00430457	0.603069
0.00570289	0.664245
0.00919869	0.785142
0.0118642	0.830296
0.0202105	0.892929
0.0255415	0.911865
