Adsorption isotherm of Isobutene on CuBTC
DOI: 10.1021/La8008656
Adsorbate Isobutene: InChIKey VQTUBCCKSQIDNK-UHFFFAOYSA-N
Temperature: 308 K
Tabular data in the source: 0
pressure (bar)	uptake (Fractional Coverage)
0.000372	0.343797
0.00128944	0.489456
0.0021197	0.568111
0.00294995	0.639484
0.00395499	0.718139
0.0054844	0.796794
0.00762558	0.855058
0.011471	0.900212
0.0216088	0.945366
0.0265903	0.957019
