Adsorption isotherm of Isobutane on CuBTC
DOI: 10.1021/La8008656
Adsorbate Isobutane: InChIKey NNPPMTNAJDCUHE-UHFFFAOYSA-N
Temperature: 303 K
Tabular data in the source: 0
pressure (bar)	uptake (mol/g)
0.000241	0.00052
0.00185751	0.00153991
0.00360541	0.00191717
0.00530961	0.00204972
0.00771297	0.00213129
0.0102474	0.00222305
0.0131752	0.00225364
0.0164088	0.00227403
0.0249735	0.00230462
0.0297802	0.0023658
