Adsorption isotherm of Isobutene on CuBTC
DOI: 10.1021/La8008656
Adsorbate Isobutene: InChIKey VQTUBCCKSQIDNK-UHFFFAOYSA-N
Temperature: 303 K
Tabular data in the source: 0
pressure (bar)	uptake (mol/g)
0.000503	0.00253913
0.000721	0.00307952
0.00115835	0.00359952
0.00163902	0.00404815
0.002076	0.00449678
0.00356171	0.00540423
0.00679532	0.00624031
0.00994154	0.0065156
0.0193365	0.00676031
0.0245365	0.00682148
