Adsorption isotherm of Isobutene on CuBTC
DOI: 10.1021/La8008656
Adsorbate Isobutene: InChIKey VQTUBCCKSQIDNK-UHFFFAOYSA-N
Temperature: 303 K
Tabular data in the source: 0
pressure (bar)	uptake (mol/g)
0.000241	0.00134619
0.00059	0.00203952
0.000721	0.00247795
0.00137684	0.00283482
0.00260037	0.00357913
0.00338692	0.00395638
0.00456675	0.00430305
0.00688272	0.00463952
0.0109029	0.00488423
0.0292121	0.00514933
