Adsorption isotherm of Methane on Carbon
DOI: 10.1039/C2ee22769j
Adsorbate Methane: InChIKey VNWKTOKETHGBQD-UHFFFAOYSA-N
Temperature: 298 K
Tabular data in the source: 0
pressure (bar)	uptake (wt%)
0.918367	2.45753
2.14286	3.77928
3.97959	4.97362
6.02041	5.59996
10	6.41141
15	7.22072
20	7.52553
30	7.75676
