Adsorption isotherm of Hydrogen on Carbon
DOI: 10.1039/C2ee22769j
Adsorbate Hydrogen: InChIKey UFHFLCQGNIYNRP-UHFFFAOYSA-N
Temperature: 298 K
Tabular data in the source: 0
pressure (bar)	uptake (g/l)
8.75	0.899765
18.75	1.64906
38.75	2.88474
58.75	3.85751
78.125	4.60505
97.5	5.23991
118.125	5.76185
137.5	6.17136
158.125	6.50552
178.75	6.727
195.625	7.0243
