Adsorption isotherm of Methane on Carbon
DOI: 10.1039/C2ee22769j
Adsorbate Methane: InChIKey VNWKTOKETHGBQD-UHFFFAOYSA-N
Temperature: 298 K
Tabular data in the source: 0
pressure (bar)	uptake (wt%)
0.996287	2.30574
1.99833	3.82733
3.96639	5.7774
5.98217	7.2285
7.95843	8.06175
9.97927	8.82375
11.9134	9.39557
14.9917	10.1346
19.9189	11.0415
30.0427	12.1901
