Adsorption isotherm of Hydrogen on Carbon
DOI: 10.1039/C2ee22769j
Adsorbate Hydrogen: InChIKey UFHFLCQGNIYNRP-UHFFFAOYSA-N
Temperature: 298 K
Tabular data in the source: 0
pressure (bar)	uptake (wt%)
12.0013	0.149871
36.2409	0.318897
64.4641	0.462166
80.7046	0.539135
101.465	0.609627
122.49	0.67583
138.723	0.718514
157.616	0.763311
178.369	0.799517
195.396	0.827192
