Adsorption isotherm of Methane on Carbon
DOI: 10.1039/C2ee22769j
Adsorbate Methane: InChIKey VNWKTOKETHGBQD-UHFFFAOYSA-N
Temperature: 298 K
Tabular data in the source: 0
pressure (bar)	uptake (wt%)
0.816327	2.33162
1.93878	3.90583
3.97959	5.8565
5.91837	6.98756
7.95918	7.80309
10	8.42943
12.0408	8.86658
15	9.55405
20	10.3003
30	11.0991
