Adsorption isotherm of Carbon Dioxide on Carbon
DOI: 10.1039/C2ee22769j
Adsorbate Carbon Dioxide: InChIKey CURLTUGMZLYLDI-UHFFFAOYSA-N
Temperature: 298 K
Tabular data in the source: 0
pressure (bar)	uptake (g/l)
0.115802	63.5675
0.539827	127.157
1.37351	184.419
3.95902	267.229
6.73913	297.086
9.2084	314.21
13.1152	327.197
18.2531	331.798
24.8294	336.499
29.35	336.819
