Adsorption isotherm of Hydrogen on Carbon
DOI: 10.1039/C2ee22769j
Adsorbate Hydrogen: InChIKey UFHFLCQGNIYNRP-UHFFFAOYSA-N
Temperature: 298 K
Tabular data in the source: 0
pressure (bar)	uptake (g/l)
9.375	0.974765
19.375	1.79918
38.75	3.11009
58.75	4.19554
78.125	5.35622
98.125	5.99096
119.375	6.66303
138.125	7.07265
160	7.51925
180	7.85352
196.875	8.03815
