Adsorption isotherm of Carbon Dioxide on Carbon
DOI: 10.1039/C2ee22769j
Adsorbate Carbon Dioxide: InChIKey CURLTUGMZLYLDI-UHFFFAOYSA-N
Temperature: 298 K
Tabular data in the source: 0
pressure (bar)	uptake (g/l)
0.216763	46.4481
0.650289	94.7177
1.25723	153.916
3.90173	265.938
6.5896	333.333
9.40751	367.031
10.8382	385.246
13.2225	401.639
15.9971	415.301
18.3382	424.408
24.7543	438.069
29.2197	443.534
