Adsorption isotherm of Carbon Dioxide on Carbon
DOI: 10.1039/C2ee22769j
Adsorbate Carbon Dioxide: InChIKey CURLTUGMZLYLDI-UHFFFAOYSA-N
Temperature: 298 K
Tabular data in the source: 0
pressure (bar)	uptake (g/l)
0.214189	42.388
0.534603	101.733
1.26555	158.988
3.96207	282.059
6.54235	339.445
9.42694	377.784
13.3372	407.722
18.4791	431.39
24.8507	440.314
29.3722	444.871
