Adsorption isotherm of Carbon Dioxide on Carbon
DOI: 10.1039/C2ee22769j
Adsorbate Carbon Dioxide: InChIKey CURLTUGMZLYLDI-UHFFFAOYSA-N
Temperature: 298 K
Tabular data in the source: 0
pressure (bar)	uptake (g/l)
0.17341	71.0383
1.43064	182.149
3.90173	284.153
6.63295	327.869
9.19075	348.816
10.7948	359.745
13.1358	369.763
15.9538	376.138
18.2514	383.424
24.6676	392.532
29.3931	395.264
