Adsorption isotherm of Carbon Dioxide on Carbon
DOI: 10.1039/C2ee22769j
Adsorbate Carbon Dioxide: InChIKey CURLTUGMZLYLDI-UHFFFAOYSA-N
Temperature: 298 K
Tabular data in the source: 0
pressure (bar)	uptake (wt%)
0.882447	10.4015
1.23538	14.5073
3.85993	19.6168
6.65652	21.7153
9.14656	22.8102
10.8933	22.8102
12.9897	23.1752
16.1775	23.2664
18.3173	23.3577
24.868	23.8139
29.2783	23.6314
