Adsorption isotherm of Methane on Carbon
DOI: 10.1039/C2ee22769j
Adsorbate Methane: InChIKey VNWKTOKETHGBQD-UHFFFAOYSA-N
Temperature: 298 K
Tabular data in the source: 0
pressure (bar)	uptake (wt%)
0.99524	2.44831
1.99781	3.89861
3.92269	5.72984
5.94091	6.84827
8.00493	7.72911
9.93853	8.37223
11.9172	8.87281
14.9966	9.4693
19.8808	10.2336
29.9617	11.2158
