Adsorption isotherm of Carbon Dioxide on Carbon
DOI: 10.1039/C2ee22769j
Adsorbate Carbon Dioxide: InChIKey CURLTUGMZLYLDI-UHFFFAOYSA-N
Temperature: 298 K
Tabular data in the source: 0
pressure (bar)	uptake (wt%)
0.970341	11.0401
1.41117	15.7847
3.95045	23.2664
6.61684	26.2774
9.36912	27.646
10.767	28.1934
13.2131	29.0146
15.9647	29.562
18.2794	29.927
24.874	30.7482
29.2847	30.9307
