Adsorption isotherm of Nitrogen on Carbon
DOI: 10.1039/C2ee22769j
Adsorbate Nitrogen: InChIKey IJGRMHOSHXDMSA-UHFFFAOYSA-N
Temperature: 77 K
Tabular data in the source: 0
pressure (bar)	uptake (cm3(STP)/g)
0.0061592	256.673
0.0189639	421.207
0.112549	585.74
0.190983	684.461
0.283305	780.987
0.421058	848.995
0.608014	866.545
0.82008	886.289
1.01404	906.033
