Adsorption isotherm of Nitrogen on Carbon
DOI: 10.1039/C2ee22769j
Adsorbate Nitrogen: InChIKey IJGRMHOSHXDMSA-UHFFFAOYSA-N
Temperature: 77 K
Tabular data in the source: 0
pressure (bar)	uptake (cm3(STP)/g)
0.000461163	12.682
0.0031952	87.8681
0.00736088	163.963
0.0188317	210.179
0.118633	223.947
0.247478	228.709
0.422446	232.649
0.590454	237.483
0.727427	235.013
0.895369	238.035
1.00886	243.675
