Adsorption isotherm of Hydrogen on Carbon
DOI: 10.1039/C2ee22769j
Adsorbate Hydrogen: InChIKey UFHFLCQGNIYNRP-UHFFFAOYSA-N
Temperature: 298 K
Tabular data in the source: 0
pressure (bar)	uptake (g/l)
9.375	0.411385
19.375	0.935329
28.75	1.23404
39.375	1.64519
58.75	2.31761
78.75	2.91479
99.375	3.43674
118.75	3.8838
139.375	4.25552
159.375	4.62735
178.125	4.84918
