Adsorption isotherm of Methane on Carbon
DOI: 10.1039/C2ee22769j
Adsorbate Methane: InChIKey VNWKTOKETHGBQD-UHFFFAOYSA-N
Temperature: 298 K
Tabular data in the source: 0
pressure (bar)	uptake (wt%)
1.9118	3.6134
3.92862	4.92192
5.94981	5.6364
8.06206	5.94698
9.99637	6.49505
12.0212	6.71051
15.0131	7.21189
29.9865	7.84157
