Adsorption isotherm of Hydrogen on Carbon
DOI: 10.1039/C2ee22769j
Adsorbate Hydrogen: InChIKey UFHFLCQGNIYNRP-UHFFFAOYSA-N
Temperature: 298 K
Tabular data in the source: 0
pressure (bar)	uptake (wt%)
9.86652	0.117751
37.309	0.338172
57.5526	0.477241
78.056	0.588449
98.8196	0.673941
120.912	0.75299
139.007	0.797796
158.701	0.857585
178.926	0.913083
196.754	0.953606
