Adsorption isotherm of Hydrogen on Carbon
DOI: 10.1039/C2ee22769j
Adsorbate Hydrogen: InChIKey UFHFLCQGNIYNRP-UHFFFAOYSA-N
Temperature: 298 K
Tabular data in the source: 0
pressure (bar)	uptake (wt%)
9.86652	0.117751
39.4433	0.368149
58.6202	0.494372
79.1264	0.618438
97.4945	0.695384
118.791	0.785156
138.486	0.847088
158.714	0.917585
178.937	0.964511
196.5	1.00932
