Adsorption isotherm of Carbon Dioxide on Carbon
DOI: 10.1039/C2ee22769j
Adsorbate Carbon Dioxide: InChIKey CURLTUGMZLYLDI-UHFFFAOYSA-N
Temperature: 298 K
Tabular data in the source: 0
pressure (bar)	uptake (g/l)
0.41706	29.6905
1.24421	55.1726
3.92855	118.922
6.60939	165.721
9.08171	197.675
13.2009	244.576
18.2444	289.424
24.8294	336.499
29.3561	366.48
