Adsorption isotherm of Nitrogen on Carbon
DOI: 10.1039/C2ee22769j
Adsorbate Nitrogen: InChIKey IJGRMHOSHXDMSA-UHFFFAOYSA-N
Temperature: 77 K
Tabular data in the source: 0
pressure (bar)	uptake (cm3(STP)/g)
0.00914077	342.23
0.0197303	537.477
0.0775998	653.748
0.155375	791.956
0.263506	914.808
0.406993	991.59
0.609595	1026.69
0.813223	1042.05
1.01415	1061.79
