Adsorption isotherm of Nitrogen on Carbon
DOI: 10.1039/C2ee22769j
Adsorbate Nitrogen: InChIKey IJGRMHOSHXDMSA-UHFFFAOYSA-N
Temperature: 77 K
Tabular data in the source: 0
pressure (bar)	uptake (cm3(STP)/g)
0.000461163	12.682
0.00736088	163.963
0.00736595	317.948
0.0384185	364.2
0.0936263	382.416
0.21421	390.787
0.361238	395.582
0.513893	401.293
0.669247	404.292
0.865097	405.553
1.01356	411.256
