Adsorption isotherm of Carbon Dioxide on Carbon
DOI: 10.1039/C2ee22769j
Adsorbate Carbon Dioxide: InChIKey CURLTUGMZLYLDI-UHFFFAOYSA-N
Temperature: 298 K
Tabular data in the source: 0
pressure (bar)	uptake (wt%)
1.45498	5.14959
3.534	11.7756
5.82183	17.676
8.52441	26.509
12.4755	37.5641
15.385	48.5939
18.3977	61.0873
21.8204	83.8191
24.9306	106.543
27.0049	120.475
30.8371	154.176
