Adsorption isotherm of Hydrogen on Carbon
DOI: 10.1039/C2ee22769j
Adsorbate Hydrogen: InChIKey UFHFLCQGNIYNRP-UHFFFAOYSA-N
Temperature: 298 K
Tabular data in the source: 0
pressure (bar)	uptake (wt%)
9.32701	0.0834715
27.7056	0.20756
59.3877	0.357221
77.7544	0.427738
98.2473	0.491804
118.47	0.538731
139.223	0.574937
158.114	0.60902
178.596	0.625944
194.824	0.647198
