Adsorption isotherm of Carbon Dioxide on Carbon
DOI: 10.1039/C2ee22769j
Adsorbate Carbon Dioxide: InChIKey CURLTUGMZLYLDI-UHFFFAOYSA-N
Temperature: 298 K
Tabular data in the source: 0
pressure (bar)	uptake (wt%)
0.2236	6.0219
1.32431	16.3321
3.90838	25.0912
6.66337	29.562
9.45973	31.3869
10.6394	32.1168
12.9984	33.1204
16.0123	34.1241
18.5017	34.4891
24.616	35.3102
29.3325	35.6752
