Adsorption isotherm of Carbon Dioxide on Carbon
DOI: 10.1039/C2ee22769j
Adsorbate Carbon Dioxide: InChIKey CURLTUGMZLYLDI-UHFFFAOYSA-N
Temperature: 298 K
Tabular data in the source: 0
pressure (bar)	uptake (wt%)
0.19872	5.6639
0.652055	10.7765
1.35912	14.6471
3.85502	19.7691
6.72967	21.5779
9.41195	22.6953
10.9442	22.9786
13.1788	23.4032
16.243	23.6936
18.2856	23.703
23.9666	23.8672
24.9241	23.8717
29.3285	24.0301
