Adsorption isotherm of Nitrogen on Carbon
DOI: 10.1039/C2ee22769j
Adsorbate Nitrogen: InChIKey IJGRMHOSHXDMSA-UHFFFAOYSA-N
Temperature: 77 K
Tabular data in the source: 0
pressure (bar)	uptake (cm3(STP)/g)
-0.000537243	46.0695
0.00921461	421.207
0.0330799	581.353
0.131006	754.662
0.259539	851.188
0.423144	886.289
0.6212	901.645
0.824869	919.196
1.01182	936.746
