Adsorption isotherm of Hydrogen on Carbon
DOI: 10.1039/C2ee22769j
Adsorbate Hydrogen: InChIKey UFHFLCQGNIYNRP-UHFFFAOYSA-N
Temperature: 298 K
Tabular data in the source: 0
pressure (bar)	uptake (g/l)
9.7035	0.876494
19.6765	1.61355
28.841	2.37052
38.814	3.06773
59.0296	4.14343
78.4367	5.33865
98.9218	5.9761
119.137	6.65339
138.814	7.09163
159.838	7.5498
178.976	7.86853
196.226	8.02789
