Adsorption isotherm of Carbon Dioxide on Carbon
DOI: 10.1039/C2ee22769j
Adsorbate Carbon Dioxide: InChIKey CURLTUGMZLYLDI-UHFFFAOYSA-N
Temperature: 298 K
Tabular data in the source: 0
pressure (bar)	uptake (wt%)
0.264559	2.91971
0.530552	7.48175
1.1898	12.3175
6.44439	28.8321
9.19836	32.1168
10.5541	34.3978
13.307	36.4964
15.7975	38.1387
18.5499	39.6898
24.666	42.5182
29.2958	43.7044
