Adsorption isotherm of Carbon Dioxide on Carbon
DOI: 10.1039/C2ee22769j
Adsorbate Carbon Dioxide: InChIKey CURLTUGMZLYLDI-UHFFFAOYSA-N
Temperature: 298 K
Tabular data in the source: 0
pressure (bar)	uptake (g/l)
0.520231	42.8051
1.47399	70.1275
3.94509	145.719
6.6763	204.007
9.19075	239.526
10.7514	261.384
13.1792	286.885
15.9538	316.029
18.2948	331.512
24.7543	371.585
29.263	388.889
