Adsorption isotherm of Carbon Dioxide on Carbon
DOI: 10.1039/C2ee22769j
Adsorbate Carbon Dioxide: InChIKey CURLTUGMZLYLDI-UHFFFAOYSA-N
Temperature: 298 K
Tabular data in the source: 0
pressure (bar)	uptake (g/l)
0.303468	20.0364
1.25723	52.8233
4.03179	112.933
6.71965	163.934
9.2341	198.543
10.578	223.133
13.0925	242.259
15.9538	272.313
18.3382	291.439
24.7977	337.887
29.3064	367.031
