Adsorption isotherm of Methane on Carbon
DOI: 10.1039/C2ee22769j
Adsorbate Methane: InChIKey VNWKTOKETHGBQD-UHFFFAOYSA-N
Temperature: 298 K
Tabular data in the source: 0
pressure (bar)	uptake (g/l)
0.693642	8.6281
1.95087	17.2522
3.90173	25.8712
5.93931	31.8997
9.9711	38.7772
14.8699	44.7851
19.9422	52.0867
30.0434	60.2155
