Adsorption isotherm of Methane on Carbon
DOI: 10.1039/C2ee22769j
Adsorbate Methane: InChIKey VNWKTOKETHGBQD-UHFFFAOYSA-N
Temperature: 298 K
Tabular data in the source: 0
pressure (bar)	uptake (wt%)
0.714286	0.503003
2.55102	1.50815
5.71429	2.88889
8.16327	4.145
11.2245	5.71514
16.3265	7.91163
21.1224	9.8565
25.8163	11.6755
30.6122	13.4942
