Adsorption isotherm of Carbon Dioxide on Carbon
DOI: 10.1039/C2ee22769j
Adsorbate Carbon Dioxide: InChIKey CURLTUGMZLYLDI-UHFFFAOYSA-N
Temperature: 298 K
Tabular data in the source: 0
pressure (bar)	uptake (wt%)
1.24142	13.1809
4.04864	21.2858
6.65182	22.8104
9.25547	23.6044
13.1096	23.6983
18.0049	24.5481
24.7756	24.713
29.2547	24.822
