Adsorption isotherm of Methane on Carbon
DOI: 10.1039/C2ee22769j
Adsorbate Methane: InChIKey VNWKTOKETHGBQD-UHFFFAOYSA-N
Temperature: 298 K
Tabular data in the source: 0
pressure (bar)	uptake (wt%)
0.991751	2.92356
1.99554	4.20752
5.98601	6.70573
7.91891	7.4439
9.98485	8.06335
11.8323	8.44502
14.8674	9.06524
20.0168	9.7109
29.9227	10.5267
