Adsorption isotherm of Methane on Carbon
DOI: 10.1039/C2ee22769j
Adsorbate Methane: InChIKey VNWKTOKETHGBQD-UHFFFAOYSA-N
Temperature: 298 K
Tabular data in the source: 0
pressure (bar)	uptake (wt%)
0.863257	2.42445
3.9718	5.04077
5.99177	5.92158
9.94778	7.11283
14.7854	8.23349
20.0192	9.37823
29.8771	10.7405
