Adsorption isotherm of Hydrogen on Carbon
DOI: 10.1039/C2ee22769j
Adsorbate Hydrogen: InChIKey UFHFLCQGNIYNRP-UHFFFAOYSA-N
Temperature: 298 K
Tabular data in the source: 0
pressure (bar)	uptake (wt%)
10.133	0.119891
40.2378	0.35314
59.685	0.498646
79.3962	0.635578
99.6317	0.738218
119.872	0.86443
139.839	0.952073
159.537	1.03115
179.764	1.09736
189.344	1.12083
