Adsorption isotherm of Methane on Carbon
DOI: 10.1039/C2ee22769j
Adsorbate Methane: InChIKey VNWKTOKETHGBQD-UHFFFAOYSA-N
Temperature: 298 K
Tabular data in the source: 0
pressure (bar)	uptake (g/l)
0.953757	27.4032
1.95087	42.2881
3.90173	54.7921
10.0145	74.3884
14.9566	84.0651
19.9422	88.7774
29.8699	91.9434
