Adsorption isotherm of Hydrogen on Carbon
DOI: 10.1039/C2ee22769j
Adsorbate Hydrogen: InChIKey UFHFLCQGNIYNRP-UHFFFAOYSA-N
Temperature: 298 K
Tabular data in the source: 0
pressure (bar)	uptake (g/l)
8.62534	0.836653
19.1375	1.67331
29.3801	2.31076
38.814	2.90837
58.4906	3.84462
78.4367	4.60159
97.8437	5.31873
118.329	5.79681
138.544	6.19522
159.03	6.53386
178.706	6.79283
195.687	6.97211
