Adsorption isotherm of Hydrogen on Carbon
DOI: 10.1039/C2ee22769j
Adsorbate Hydrogen: InChIKey UFHFLCQGNIYNRP-UHFFFAOYSA-N
Temperature: 298 K
Tabular data in the source: 0
pressure (bar)	uptake (wt%)
9.83607	0.109786
20.3279	0.214315
30.1639	0.287419
38.6885	0.391999
59.6721	0.548655
79.3443	0.684384
99.6721	0.804375
119.344	0.913904
139.672	1.00245
159.344	1.08578
179.672	1.14289
