Adsorption isotherm of Methane on Carbon
DOI: 10.1039/C2ee22769j
Adsorbate Methane: InChIKey VNWKTOKETHGBQD-UHFFFAOYSA-N
Temperature: 298 K
Tabular data in the source: 0
pressure (bar)	uptake (wt%)
0.918367	1.70077
2.04082	2.89661
3.97959	4.6583
5.91837	5.78936
10	7.7988
14.898	9.42814
19.898	10.4897
29.898	11.8561
