Adsorption isotherm of Carbon Dioxide on MOF-210
DOI: 10.1039/C2ee22769j
Adsorbate Carbon Dioxide: InChIKey CURLTUGMZLYLDI-UHFFFAOYSA-N
Temperature: 298 K
Tabular data in the source: 0
pressure (bar)	uptake (g/l)
1.13277	12.7919
3.49973	32.0268
5.65991	44.8912
8.64419	68.4071
12.1417	89.8405
15.2305	121.838
18.4216	151.725
21.6174	204.916
24.8151	266.583
27.0823	300.641
31.0039	385.664
