Adsorption isotherm of Methane on Carbon
DOI: 10.1039/C2ee22769j
Adsorbate Methane: InChIKey VNWKTOKETHGBQD-UHFFFAOYSA-N
Temperature: 298 K
Tabular data in the source: 0
pressure (bar)	uptake (wt%)
0.957817	1.54531
1.96161	2.82928
3.88718	4.56546
6.03704	5.75528
9.9866	7.82573
14.9967	9.44554
19.8785	10.5425
29.9128	11.8811
