Adsorption isotherm of Hydrogen on Carbon
DOI: 10.1039/C2ee22769j
Adsorbate Hydrogen: InChIKey UFHFLCQGNIYNRP-UHFFFAOYSA-N
Temperature: 298 K
Tabular data in the source: 0
pressure (bar)	uptake (wt%)
8.52459	0.0888596
19.6721	0.146209
28.8525	0.214091
40	0.271441
59.6721	0.360009
78.6885	0.427633
99.0164	0.495222
118.689	0.536628
138.361	0.578034
159.344	0.603685
178.361	0.629388
195.41	0.644662
