Adsorption isotherm of Carbon Dioxide on Carbon
DOI: 10.1039/C2ee22769j
Adsorbate Carbon Dioxide: InChIKey CURLTUGMZLYLDI-UHFFFAOYSA-N
Temperature: 298 K
Tabular data in the source: 0
pressure (bar)	uptake (wt%)
0.620234	7.32104
3.83984	22.0113
6.7517	29.3882
9.14607	31.6383
12.9968	36.8462
18.4106	41.3616
24.8669	44.4412
29.2404	46.7395
