Adsorption isotherm of Hydrogen on Carbon
DOI: 10.1039/C2ee22769j
Adsorbate Hydrogen: InChIKey UFHFLCQGNIYNRP-UHFFFAOYSA-N
Temperature: 298 K
Tabular data in the source: 0
pressure (bar)	uptake (g/l)
11.8598	1.49402
26.1456	2.49004
36.6577	3.22709
51.2129	3.98406
63.8814	4.66135
81.9407	5.41833
101.617	6.19522
123.45	6.85259
139.084	7.27092
158.221	7.72908
178.437	8.10757
195.687	8.38645
