Adsorption isotherm of Carbon Dioxide on Carbon
DOI: 10.1039/C2ee22769j
Adsorbate Carbon Dioxide: InChIKey CURLTUGMZLYLDI-UHFFFAOYSA-N
Temperature: 298 K
Tabular data in the source: 0
pressure (bar)	uptake (wt%)
0.178019	3.83212
1.18884	11.2226
3.90535	21.6241
6.66282	28.9234
9.19836	32.1168
10.5541	34.3978
13.0886	36.4964
15.9295	39.3248
18.4636	40.7847
24.8424	44.5255
29.3855	46.4416
