Adsorption isotherm of Hydrogen on Carbon
DOI: 10.1039/C2ee22769j
Adsorbate Hydrogen: InChIKey UFHFLCQGNIYNRP-UHFFFAOYSA-N
Temperature: 298 K
Tabular data in the source: 0
pressure (bar)	uptake (wt%)
19.7202	0.177646
39.6988	0.321003
59.1493	0.481509
77.7938	0.605595
98.5565	0.686801
119.318	0.761579
138.477	0.808516
158.964	0.844725
178.921	0.889512
196.213	0.915041
