Adsorption isotherm of Carbon Dioxide on Carbon
DOI: 10.1039/C2ee22769j
Adsorbate Carbon Dioxide: InChIKey CURLTUGMZLYLDI-UHFFFAOYSA-N
Temperature: 298 K
Tabular data in the source: 0
pressure (bar)	uptake (wt%)
0.825234	12.4402
4.04674	24.2081
6.44016	27.9194
9.45904	30.9153
13.208	32.4678
18.2075	33.3201
24.7689	34.9411
29.3522	35.0527
