Adsorption isotherm of Methane on Carbon
DOI: 10.1039/C2ee22769j
Adsorbate Methane: InChIKey VNWKTOKETHGBQD-UHFFFAOYSA-N
Temperature: 298 K
Tabular data in the source: 0
pressure (bar)	uptake (g/l)
0.99711	21.5756
1.82081	35.3826
3.98844	52.849
5.98266	64.2735
7.93353	72.0293
9.9711	79.7844
11.922	84.9502
15	91.1871
20.0289	98.9207
29.9566	109.209
