Adsorption isotherm of Carbon Dioxide on Carbon
DOI: 10.1039/C2ee22769j
Adsorbate Carbon Dioxide: InChIKey CURLTUGMZLYLDI-UHFFFAOYSA-N
Temperature: 298 K
Tabular data in the source: 0
pressure (bar)	uptake (g/l)
0.303468	61.9308
0.650289	113.843
3.90173	282.332
6.54624	328.78
9.32081	358.834
10.7081	368.852
13.3092	379.781
15.9104	390.71
18.2948	397.996
24.7543	410.747
29.3064	418.033
