Adsorption isotherm of Carbon Dioxide on Carbon
DOI: 10.1039/C2ee22769j
Adsorbate Carbon Dioxide: InChIKey CURLTUGMZLYLDI-UHFFFAOYSA-N
Temperature: 298 K
Tabular data in the source: 0
pressure (bar)	uptake (g/l)
0.281861	66.2537
0.628014	130.095
1.23133	184.288
3.92803	272.131
6.67255	306.961
9.41119	323.718
13.3855	338.017
18.401	352.273
24.9112	360.445
29.5982	365.076
