Adsorption isotherm of Methane on Carbon
DOI: 10.1039/C2ee22769j
Adsorbate Methane: InChIKey VNWKTOKETHGBQD-UHFFFAOYSA-N
Temperature: 298 K
Tabular data in the source: 0
pressure (bar)	uptake (g/l)
0.821918	27.3044
1.84932	41.562
3.90411	55.8399
5.85616	63.5904
9.96575	74.9428
14.8973	83.3454
20.0342	88.786
30	91.9492
