Adsorption isotherm of Carbon Dioxide on Carbon
DOI: 10.1039/C2ee22769j
Adsorbate Carbon Dioxide: InChIKey CURLTUGMZLYLDI-UHFFFAOYSA-N
Temperature: 298 K
Tabular data in the source: 0
pressure (bar)	uptake (g/l)
0.520231	127.505
1.30058	185.792
3.90173	266.849
6.63295	298.725
9.27746	312.386
10.7948	319.672
13.1358	324.226
16.2572	330.601
18.2514	332.423
24.6243	334.244
29.263	335.155
