Adsorption isotherm of Methane on Carbon
DOI: 10.1039/C2ee22769j
Adsorbate Methane: InChIKey VNWKTOKETHGBQD-UHFFFAOYSA-N
Temperature: 298 K
Tabular data in the source: 0
pressure (bar)	uptake (g/l)
0.953757	26.3241
1.90751	40.346
3.94509	57.5975
6.11272	66.8625
7.97688	74.403
10.0578	79.9996
11.922	84.3027
19.8988	96.7633
30	105.54
