Adsorption isotherm of Nitrogen on Carbon
DOI: 10.1039/C2ee22769j
Adsorbate Nitrogen: InChIKey IJGRMHOSHXDMSA-UHFFFAOYSA-N
Temperature: 77 K
Tabular data in the source: 0
pressure (bar)	uptake (cm3(STP)/g)
0.00278806	375.137
0.0525454	504.57
0.112549	585.74
0.188857	644.973
0.289788	680.073
0.422507	702.011
0.609218	706.399
0.822473	715.174
1.00927	723.949
