Adsorption isotherm of Methane on Carbon
DOI: 10.1039/C2ee22769j
Adsorbate Methane: InChIKey VNWKTOKETHGBQD-UHFFFAOYSA-N
Temperature: 298 K
Tabular data in the source: 0
pressure (bar)	uptake (g/l)
0.616438	2.38507
1.74658	4.18708
2.87671	7.17553
4.82877	11.3667
9.65753	22.1401
20.0342	39.5487
29.8973	53.3878
