Adsorption isotherm of Carbon Dioxide on Carbon
DOI: 10.1039/C2ee22769j
Adsorbate Carbon Dioxide: InChIKey CURLTUGMZLYLDI-UHFFFAOYSA-N
Temperature: 298 K
Tabular data in the source: 0
pressure (bar)	uptake (wt%)
0.489434	10.4015
1.32287	14.6898
3.94957	22.2628
6.65955	25.1825
9.23676	26.0949
10.7655	26.5511
13.1241	27.0985
15.8757	27.646
18.3212	27.8285
24.9156	28.3759
29.2825	28.4672
