Adsorption isotherm of Hydrogen on Carbon
DOI: 10.1039/C2ee22769j
Adsorbate Hydrogen: InChIKey UFHFLCQGNIYNRP-UHFFFAOYSA-N
Temperature: 298 K
Tabular data in the source: 0
pressure (bar)	uptake (g/l)
9.7035	0.876494
19.407	1.65339
30.7278	2.37052
39.3531	2.96813
58.7601	4.00398
79.5148	5.11952
98.9218	5.81673
119.137	6.53386
138.814	6.97211
159.838	7.29084
180.054	7.78884
196.765	8.12749
