Adsorption isotherm of Hydrogen on Carbon
DOI: 10.1039/C2ee22769j
Adsorbate Hydrogen: InChIKey UFHFLCQGNIYNRP-UHFFFAOYSA-N
Temperature: 298 K
Tabular data in the source: 0
pressure (bar)	uptake (wt%)
9.18033	0.109803
19.0164	0.203869
38.6885	0.365799
58.3607	0.480567
78.0328	0.616296
99.0164	0.678628
118.689	0.761956
138.361	0.808602
159.344	0.860454
179.016	0.89662
196.066	0.917134
