Adsorption isotherm of Carbon Dioxide on Carbon
DOI: 10.1039/C2ee22769j
Adsorbate Carbon Dioxide: InChIKey CURLTUGMZLYLDI-UHFFFAOYSA-N
Temperature: 298 K
Tabular data in the source: 0
pressure (bar)	uptake (g/l)
0.303468	57.377
0.650289	104.736
1.30058	167.577
3.90173	281.421
6.63295	348.816
9.32081	377.96
10.8382	394.353
13.2659	409.836
15.9971	422.587
18.4682	431.694
24.7977	439.891
29.2197	443.534
