Adsorption isotherm of Hydrogen on Carbon
DOI: 10.1039/C2ee22769j
Adsorbate Hydrogen: InChIKey UFHFLCQGNIYNRP-UHFFFAOYSA-N
Temperature: 298 K
Tabular data in the source: 0
pressure (bar)	uptake (g/l)
8.89488	1.11554
19.9461	1.95219
29.3801	2.749
38.814	3.42629
58.7601	4.64143
78.7062	5.55777
98.9218	6.29482
119.946	7.05179
139.084	7.47012
159.03	8.02789
180.054	8.60558
197.305	9.00398
