Adsorption isotherm of Hydrogen on Carbon
DOI: 10.1039/C2ee22769j
Adsorbate Hydrogen: InChIKey UFHFLCQGNIYNRP-UHFFFAOYSA-N
Temperature: 298 K
Tabular data in the source: 0
pressure (bar)	uptake (wt%)
9.33318	0.111329
19.9947	0.216214
39.7145	0.391717
59.6973	0.55436
79.6754	0.695575
99.3824	0.813221
119.085	0.913724
139.052	1.00351
159.284	1.08901
179.243	1.14451
