Adsorption isotherm of Methane on Carbon
DOI: 10.1039/C2ee22769j
Adsorbate Methane: InChIKey VNWKTOKETHGBQD-UHFFFAOYSA-N
Temperature: 298 K
Tabular data in the source: 0
pressure (bar)	uptake (wt%)
1.04046	19.6328
1.95087	31.4968
3.94509	48.7486
5.93931	60.8206
7.97688	69.439
10.0145	76.9783
11.922	81.9286
15.0434	89.2443
19.9855	98.2735
30	110.288
