Adsorption isotherm of Methane on Carbon
DOI: 10.1039/C2ee22769j
Adsorbate Methane: InChIKey VNWKTOKETHGBQD-UHFFFAOYSA-N
Temperature: 298 K
Tabular data in the source: 0
pressure (bar)	uptake (g/l)
0.924658	21.3742
1.95205	37.4115
3.90411	56.4331
5.85616	68.3361
7.91096	77.8683
9.96575	85.0276
11.9178	90.4052
15	98.178
19.9315	106.581
29.8973	117.456
