Adsorption isotherm of Carbon Dioxide on Carbon
DOI: 10.1039/C2ee22769j
Adsorbate Carbon Dioxide: InChIKey CURLTUGMZLYLDI-UHFFFAOYSA-N
Temperature: 298 K
Tabular data in the source: 0
pressure (bar)	uptake (wt%)
0.258495	2.48738
0.710419	6.49498
1.35454	11.056
3.98551	21.9797
6.67395	27.9313
9.16862	32.0864
10.6399	34.5794
13.1319	36.6627
16.1356	39.5771
18.4353	40.9689
23.9931	44.5856
24.8865	44.4516
29.3573	46.544
