Adsorption isotherm of Nitrogen on Carbon
DOI: 10.1039/C2ee22769j
Adsorbate Nitrogen: InChIKey IJGRMHOSHXDMSA-UHFFFAOYSA-N
Temperature: 77 K
Tabular data in the source: 0
pressure (bar)	uptake (cm3(STP)/g)
0.000461163	12.682
0.0031952	87.8681
0.00736088	163.963
0.0381499	202.968
0.114009	212.163
0.247082	217.839
0.422051	221.779
0.591359	223.897
0.724234	224.138
0.88928	224.437
1.0097	228.278
