Adsorption isotherm of Nitrogen on Carbon
DOI: 10.1039/C2ee22769j
Adsorbate Nitrogen: InChIKey IJGRMHOSHXDMSA-UHFFFAOYSA-N
Temperature: 77 K
Tabular data in the source: 0
pressure (bar)	uptake (cm3(STP)/g)
0.000461163	12.682
0.00683637	226.462
0.00736088	163.963
0.0183731	274.49
0.136786	300.067
0.299363	309.419
0.426776	313.273
0.5793	315.361
0.727627	317.441
0.876021	321.333
1.01452	322.49
