Adsorption isotherm of Hydrogen on MOF-210
DOI: 10.1039/C2ee22769j
Adsorbate Hydrogen: InChIKey UFHFLCQGNIYNRP-UHFFFAOYSA-N
Temperature: 298 K
Tabular data in the source: 0
pressure (bar)	uptake (g/l)
4.375	0.0742958
15	0.335211
26.875	0.595892
40	0.743662
53.75	1.00399
65	1.11455
73.125	1.15059
79.375	1.33721
