Adsorption isotherm of Hydrogen on Carbon
DOI: 10.1039/C2ee22769j
Adsorbate Hydrogen: InChIKey UFHFLCQGNIYNRP-UHFFFAOYSA-N
Temperature: 298 K
Tabular data in the source: 0
pressure (bar)	uptake (wt%)
9.06865	0.11776
39.1797	0.378866
59.154	0.502938
79.3962	0.635578
97.5017	0.727527
118.796	0.808727
137.692	0.866382
160.041	0.906857
178.937	0.964511
196.5	1.00932
