Adsorption isotherm of Hydrogen on Carbon
DOI: 10.1039/C2ee22769j
Adsorbate Hydrogen: InChIKey UFHFLCQGNIYNRP-UHFFFAOYSA-N
Temperature: 298 K
Tabular data in the source: 0
pressure (bar)	uptake (g/l)
9.97305	0.458167
19.9461	0.876494
29.1105	1.31474
39.8922	1.63347
59.2992	2.33068
79.7844	2.90837
100.27	3.42629
119.137	3.90438
138.814	4.20319
159.838	4.68127
178.706	4.84064
