Adsorption isotherm of Carbon Dioxide on Carbon
DOI: 10.1039/C2ee22769j
Adsorbate Carbon Dioxide: InChIKey CURLTUGMZLYLDI-UHFFFAOYSA-N
Temperature: 298 K
Tabular data in the source: 0
pressure (bar)	uptake (g/l)
0.199537	13.245
1.06002	57.7888
4.00996	123.935
6.49888	173.233
9.11482	212.887
13.0354	262.127
18.3896	317.334
24.8516	377.315
29.3532	412.074
