Adsorption isotherm of Methane on Carbon
DOI: 10.1039/C2ee22769j
Adsorbate Methane: InChIKey VNWKTOKETHGBQD-UHFFFAOYSA-N
Temperature: 298 K
Tabular data in the source: 0
pressure (bar)	uptake (wt%)
1.90953	3.9223
3.96901	5.42097
5.94422	6.39679
7.92275	6.92113
9.94516	7.46926
12.0565	7.89866
14.8728	8.32861
19.9341	8.97421
29.9734	9.62374
