Adsorption isotherm of Methane on Carbon
DOI: 10.1039/C2ee22769j
Adsorbate Methane: InChIKey VNWKTOKETHGBQD-UHFFFAOYSA-N
Temperature: 298 K
Tabular data in the source: 0
pressure (bar)	uptake (g/l)
0.953757	24.8133
2.12428	38.402
3.94509	51.986
8.02023	67.2804
10.0145	72.2301
11.7919	76.1022
14.8266	81.4761
19.9855	87.0505
29.9566	95.1802
