Adsorption isotherm of Methane on Carbon
DOI: 10.1039/C2ee22769j
Adsorbate Methane: InChIKey VNWKTOKETHGBQD-UHFFFAOYSA-N
Temperature: 298 K
Tabular data in the source: 0
pressure (bar)	uptake (g/l)
0.953757	7.33127
1.95087	12.504
3.90173	20.4755
5.89595	25.4252
10.0578	35.755
14.8699	43.706
19.9422	49.4968
29.8699	56.7635
