Adsorption isotherm of Methane on Carbon
DOI: 10.1039/C2ee22769j
Adsorbate Methane: InChIKey VNWKTOKETHGBQD-UHFFFAOYSA-N
Temperature: 298 K
Tabular data in the source: 0
pressure (bar)	uptake (g/l)
0.719178	6.53964
1.95205	12.4962
3.90411	21.4331
5.75342	27.4019
9.76027	39.3455
14.7945	48.3434
19.8288	55.5616
29.8973	64.659
