Adsorption isotherm of Nitrogen on Carbon
DOI: 10.1039/C2ee22769j
Adsorbate Nitrogen: InChIKey IJGRMHOSHXDMSA-UHFFFAOYSA-N
Temperature: 77 K
Tabular data in the source: 0
pressure (bar)	uptake (cm3(STP)/g)
0.000461163	12.682
0.00736088	163.963
0.00950453	299.836
0.0415934	336.126
0.113355	348.031
0.249259	354.618
0.397652	358.51
0.529228	361.466
0.67902	365.361
0.853824	364.771
1.00635	366.859
