Adsorption isotherm of Carbon Dioxide on Carbon
DOI: 10.1039/C2ee22769j
Adsorbate Carbon Dioxide: InChIKey CURLTUGMZLYLDI-UHFFFAOYSA-N
Temperature: 298 K
Tabular data in the source: 0
pressure (bar)	uptake (wt%)
0.664584	10.9489
1.4989	16.2409
3.90686	23.3577
6.4879	28.6496
9.41494	30.1095
10.7695	31.0219
13.2592	31.7518
15.9673	32.573
18.282	32.938
24.7017	33.4854
29.3308	33.7591
