Adsorption isotherm of Hydrogen on Carbon
DOI: 10.1039/C2ee22769j
Adsorbate Hydrogen: InChIKey UFHFLCQGNIYNRP-UHFFFAOYSA-N
Temperature: 298 K
Tabular data in the source: 0
pressure (bar)	uptake (g/l)
9.43396	0.537849
19.9461	1.05578
29.1105	1.31474
39.6226	1.75299
58.7601	2.50996
79.5148	3.18725
100	3.78486
119.946	4.36255
139.623	4.82072
159.03	5.1992
179.245	5.53785
189.218	5.69721
