Adsorption isotherm of Hydrogen on Carbon
DOI: 10.1039/C2ee22769j
Adsorbate Hydrogen: InChIKey UFHFLCQGNIYNRP-UHFFFAOYSA-N
Temperature: 298 K
Tabular data in the source: 0
pressure (bar)	uptake (wt%)
6.55738	0.0312692
20.3279	0.146192
30.1639	0.255978
44.5902	0.328963
59.0164	0.422908
69.5082	0.454074
79.3443	0.516698
