Adsorption isotherm of Nitrogen on Carbon
DOI: 10.1039/C2ee22769j
Adsorbate Nitrogen: InChIKey IJGRMHOSHXDMSA-UHFFFAOYSA-N
Temperature: 77 K
Tabular data in the source: 0
pressure (bar)	uptake (cm3(STP)/g)
0.000461163	12.682
0.00736088	163.963
0.0237246	383.195
0.0402302	414.022
0.0946323	448.541
0.216681	458.726
0.369336	464.437
0.524789	470.154
0.671783	474.043
0.842457	475.258
1.01479	483.722
