Adsorption isotherm of Hydrogen on Carbon
DOI: 10.1039/C2ee22769j
Adsorbate Hydrogen: InChIKey UFHFLCQGNIYNRP-UHFFFAOYSA-N
Temperature: 298 K
Tabular data in the source: 0
pressure (bar)	uptake (g/l)
8.89488	1.11554
19.407	1.99203
28.841	2.98805
38.814	3.7251
59.0296	5.07968
79.2453	6.1753
99.1914	6.99203
119.407	7.84861
139.084	8.54582
159.03	9.16335
180.593	9.8008
196.496	10.239
