Adsorption isotherm of Hydrogen on MCF-19
DOI: 10.1002/anie.200901964
Adsorbate Hydrogen: InChIKey UFHFLCQGNIYNRP-UHFFFAOYSA-N
Temperature: 77 K
Tabular data in the source: 0
pressure (bar)	uptake (cm3(STP)/g)
0.0389344	13.8205
0.122951	50.0681
0.178279	60.4784
0.229508	72.6009
0.270492	82.9865
0.405738	105.569
0.456967	112.533
0.506148	121.214
0.555328	124.737
0.604508	133.417
0.657787	140.386
0.709016	147.351
0.762295	150.881
0.788934	156.084
0.864754	164.81
0.915984	166.618
0.963115	171.856
1.0082	177.091
