Adsorption isotherm of Carbon Dioxide on MCF-19
DOI: 10.1002/anie.200901964
Adsorbate Carbon Dioxide: InChIKey CURLTUGMZLYLDI-UHFFFAOYSA-N
Temperature: 195 K
Tabular data in the source: 0
pressure (bar)	uptake (cm3(STP)/g)
0.00409836	18.9182
0.00819672	42.994
0.0368852	80.8657
0.045082	89.4758
0.057377	108.408
0.0655738	115.299
0.079918	134.235
0.0963115	154.893
0.112705	184.148
0.120902	239.176
0.127049	309.674
0.131148	264.982
0.133197	333.753
0.143443	369.874
0.157787	392.248
0.178279	406.037
0.204918	416.398
0.235656	428.485
0.260246	431.966
0.303279	444.074
0.329918	447.559
0.385246	454.531
0.45082	461.52
0.514344	466.787
0.594262	473.801
0.67623	475.661
0.743852	480.935
0.862705	484.578
0.946721	486.441
1.02664	488.298
