Adsorption isotherm of Methane on MCF-19
DOI: 10.1002/anie.200901964
Adsorbate Methane: InChIKey VNWKTOKETHGBQD-UHFFFAOYSA-N
Temperature: 195 K
Tabular data in the source: 0
pressure (bar)	uptake (cm3(STP)/cm3)
0.020229	2.65193
0.0384474	5.52486
0.0586708	7.9558
0.0869814	11.2707
0.147624	17.4586
0.198157	22.5414
0.252723	27.6243
0.307267	31.8232
0.35173	36.0221
0.402235	40
0.456773	43.9779
0.505252	47.5138
0.553741	51.4917
0.608252	54.3646
0.658735	57.4586
0.7173	61.2155
0.759724	64.5304
0.816262	67.8453
0.868756	70.7182
0.919239	73.8122
0.973755	76.9061
1.01213	79.558
