Adsorption isotherm of Nitrogen on MCF-19
DOI: 10.1002/anie.200901964
Adsorbate Nitrogen: InChIKey IJGRMHOSHXDMSA-UHFFFAOYSA-N
Temperature: 77 K
Tabular data in the source: 0
pressure (bar)	uptake (cm3(STP)/g)
0.00409836	0.00409836
0.0102459	259.616
0.0143443	294.007
0.0368852	319.834
0.0635246	331.914
0.0840164	342.265
0.10041	350.889
0.127049	354.373
0.17623	363.054
0.209016	368.268
0.270492	371.812
0.29918	375.299
0.331967	377.075
0.356557	378.836
0.389344	378.893
0.432377	382.405
0.473361	382.476
0.512295	382.543
0.557377	382.62
0.592213	387.838
0.639344	384.48
0.680328	384.551
0.721311	388.06
0.756148	388.119
0.80123	389.916
0.840164	391.702
0.883197	390.057
0.92418	393.566
0.961066	395.349
1.00205	397.138
