Adsorption isotherm of Nitrogen on MCF-19
DOI: 10.1002/anie.200901964
Adsorbate Nitrogen: InChIKey IJGRMHOSHXDMSA-UHFFFAOYSA-N
Temperature: 77 K
Tabular data in the source: 0
pressure (bar)	uptake (cm3(STP)/g)
0.00204918	0.00204918
0.00409836	34.391
0.00614754	385.111
0.0204918	520.952
0.0471311	550.224
0.0717213	564.02
0.0963115	572.658
0.116803	579.57
0.139344	584.767
0.17418	589.984
0.219262	595.219
0.272541	600.469
0.307377	600.528
0.358607	602.336
0.407787	604.139
0.456967	607.662
0.512295	606.038
0.563525	606.126
0.612705	609.649
0.67623	611.478
0.711066	609.818
0.766393	611.633
0.813525	613.433
0.864754	610.083
0.915984	615.328
0.965164	617.132
0.983607	615.445
1.0082	613.768
