Adsorption isotherm of Methane on MCF-19
DOI: 10.1002/anie.200901964
Adsorbate Methane: InChIKey VNWKTOKETHGBQD-UHFFFAOYSA-N
Temperature: 195 K
Tabular data in the source: 0
pressure (bar)	uptake (cm3(STP)/g)
0.0389344	8.59599
0.125	25.788
0.172131	30.9456
0.229508	39.5415
0.284836	48.1375
0.331967	53.2951
0.375	60.1719
0.434426	67.0487
0.489754	72.2063
0.530738	77.3639
0.586066	82.5215
0.629098	87.6791
0.686475	92.8367
0.727459	96.2751
0.772541	103.152
0.821721	106.59
0.887295	111.748
0.915984	116.905
0.934426	118.625
0.967213	120.344
1.01434	123.782
