Adsorption isotherm of Hydrogen on MCF-19
DOI: 10.1002/anie.200901964
Adsorbate Hydrogen: InChIKey UFHFLCQGNIYNRP-UHFFFAOYSA-N
Temperature: 77 K
Tabular data in the source: 0
pressure (bar)	uptake (wt%)
0.00824475	0.0528233
0.0225933	0.113792
0.045094	0.191035
0.0574457	0.264178
0.0758394	0.321101
0.143115	0.463489
0.196135	0.581457
0.247054	0.670991
0.298015	0.776769
0.350912	0.846006
0.40179	0.919296
0.45269	1.00071
0.503548	1.06588
0.552368	1.12698
0.60724	1.17592
0.658098	1.24108
0.708946	1.30219
0.763818	1.35113
0.86748	1.44899
0.969062	1.52653
1.0158	1.56732
