Adsorption isotherm of Hydrogen on IRMOF-1
DOI: 10.1021/Jp0713918
Adsorbate Hydrogen: InChIKey UFHFLCQGNIYNRP-UHFFFAOYSA-N
Temperature: 77 K
Tabular data in the source: 0
pressure (bar)	uptake (mmol/g)
0.0959596	0.76652
0.191919	1.58066
0.292929	2.20456
0.393939	2.92369
0.5	3.54783
0.59596	4.17148
0.69697	4.93824
0.79798	5.37165
0.89899	5.9003
1	6.38133
