Adsorption isotherm of Hydrogen on IRMOF-1
DOI: 10.1021/Jp0713918
Adsorbate Hydrogen: InChIKey UFHFLCQGNIYNRP-UHFFFAOYSA-N
Temperature: 77 K
Tabular data in the source: 0
pressure (bar)	uptake (wt%)
0.0990099	1.58025
0.19802	2.17284
0.29703	2.54321
0.40099	2.76543
0.5	2.98765
0.59901	3.1358
0.69802	3.23457
0.80198	3.35802
0.90099	3.40741
1	3.53086
