Adsorption isotherm of Hydrogen on IRMOF-1
DOI: 10.1021/Jp0713918
Adsorbate Hydrogen: InChIKey UFHFLCQGNIYNRP-UHFFFAOYSA-N
Temperature: 77 K
Tabular data in the source: 0
pressure (bar)	uptake (molecules/unitcell)
0.0994447	37.4552
0.198173	45.8204
0.301678	48.1192
0.400227	49.2118
0.498746	49.0924
0.602221	50.1791
0.70077	51.2718
0.79926	49.9403
0.902765	52.2391
1.00128	52.1197
