Adsorption isotherm of Hydrogen on IRMOF-1
DOI: 10.1021/Jp0713918
Adsorbate Hydrogen: InChIKey UFHFLCQGNIYNRP-UHFFFAOYSA-N
Temperature: 77 K
Tabular data in the source: 0
pressure (bar)	uptake (wt%)
0.0990099	0.17284
0.19802	0.296296
0.29703	0.444444
0.40099	0.592593
0.49505	0.716049
0.59901	0.839506
0.70297	0.987654
0.80198	1.08642
0.90099	1.16049
1	1.28395
