Adsorption isotherm of Hydrogen on IRMOF-1
DOI: 10.1021/Jp0713918
Adsorbate Hydrogen: InChIKey UFHFLCQGNIYNRP-UHFFFAOYSA-N
Temperature: 77 K
Tabular data in the source: 0
pressure (bar)	uptake (mmol/g)
0.020202	0.334315
0.0555556	0.812218
0.10101	1.19536
0.131313	1.53015
0.19697	2.15236
0.262626	2.67933
0.328283	3.11106
0.39899	3.59064
0.469697	4.07023
0.530303	4.35885
0.59596	4.79057
0.661616	5.12705
0.792929	5.75239
0.934343	6.37821
1.00505	6.61968
