Adsorption isotherm of Hydrogen on IRMOF-1
DOI: 10.1021/Jp0713918
Adsorbate Hydrogen: InChIKey UFHFLCQGNIYNRP-UHFFFAOYSA-N
Temperature: 77 K
Tabular data in the source: 0
pressure (bar)	uptake (mmol/g)
0.095	1.86023
0.195	3.10039
0.295	4.21653
0.395	5.20866
0.5	6.20078
0.595	6.94487
0.695	7.68897
0.8	8.43306
0.9	9.17716
1	9.79723
