Adsorption isotherm of Hydrogen on IRMOF-1
DOI: 10.1021/Jp0713918
Adsorbate Hydrogen: InChIKey UFHFLCQGNIYNRP-UHFFFAOYSA-N
Temperature: 77 K
Tabular data in the source: 0
pressure (bar)	uptake (wt%)
0.0940594	0.790123
0.19802	1.28395
0.30198	1.62963
0.39604	1.92593
0.5	2.14815
0.59901	2.39506
0.70297	2.5679
0.80198	2.74074
0.89604	2.88889
1	3.03704
