Adsorption isotherm of Hydrogen on IRMOF-1
DOI: 10.1021/Jp0713918
Adsorbate Hydrogen: InChIKey UFHFLCQGNIYNRP-UHFFFAOYSA-N
Temperature: 77 K
Tabular data in the source: 0
pressure (bar)	uptake (wt%)
0.0990099	0.271605
0.19802	0.518519
0.30198	0.740741
0.39604	0.888889
0.5	1.06173
0.59901	1.20988
0.69802	1.33333
0.79703	1.50617
0.90099	1.58025
1	1.7284
