Adsorption isotherm of Hydrogen on IRMOF-1
DOI: 10.1021/Jp0713918
Adsorbate Hydrogen: InChIKey UFHFLCQGNIYNRP-UHFFFAOYSA-N
Temperature: 77 K
Tabular data in the source: 0
pressure (bar)	uptake (molecules/unitcell)
0.0938918	12.0074
0.197486	17.9424
0.296185	25.0955
0.399749	29.8185
0.498418	35.7595
0.601952	39.2704
0.700591	43.9993
0.79926	49.9403
0.902794	53.4512
1.00137	55.7559
