Adsorption isotherm of Hydrogen on IRMOF-1
DOI: 10.1021/Jp0713918
Adsorbate Hydrogen: InChIKey UFHFLCQGNIYNRP-UHFFFAOYSA-N
Temperature: 77 K
Tabular data in the source: 0
pressure (bar)	uptake (wt%)
0.0990099	1.38272
0.19802	1.60494
0.29703	1.7284
0.39604	1.77778
0.5	1.80247
0.60396	1.85185
0.69802	1.87654
0.80198	1.90123
0.90099	1.90123
1	1.90123
