Adsorption isotherm of Hydrogen on IRMOF-1
DOI: 10.1021/Jp0713918
Adsorbate Hydrogen: InChIKey UFHFLCQGNIYNRP-UHFFFAOYSA-N
Temperature: 77 K
Tabular data in the source: 0
pressure (bar)	uptake (molecules/unitcell)
0.0992357	28.9706
0.198143	44.6083
0.301947	59.0279
0.405631	68.5992
0.608013	85.3236
0.706741	93.6888
0.800454	98.4237
0.904018	103.147
1.00761	109.082
