Adsorption isotherm of Hydrogen on IRMOF-1
DOI: 10.1021/Jp0713918
Adsorbate Hydrogen: InChIKey UFHFLCQGNIYNRP-UHFFFAOYSA-N
Temperature: 77 K
Tabular data in the source: 0
pressure (bar)	uptake (mmol/g)
0.095	5.45669
0.195	7.56495
0.295	9.5492
0.4	11.0374
0.5	12.5256
0.6	13.7657
0.695	15.0059
0.795	15.998
0.895	16.9901
1	17.8583
