Adsorption isotherm of Hydrogen on IRMOF-1
DOI: 10.1021/Jp0713918
Adsorbate Hydrogen: InChIKey UFHFLCQGNIYNRP-UHFFFAOYSA-N
Temperature: 77 K
Tabular data in the source: 0
pressure (bar)	uptake (molecules/unitcell)
0.0986386	4.72892
0.192381	10.6759
0.300812	12.9687
0.394495	16.4915
0.49803	20.0024
0.601594	24.7253
0.705159	29.4483
0.803708	30.541
0.902317	34.0578
1.0009	36.3626
