Adsorption isotherm of Hydrogen on IRMOF-1
DOI: 10.1021/Jp0713918
Adsorbate Hydrogen: InChIKey UFHFLCQGNIYNRP-UHFFFAOYSA-N
Temperature: 77 K
Tabular data in the source: 0
pressure (bar)	uptake (molecules/unitcell)
0.0952054	65.3391
0.199278	90.6675
0.298125	103.881
0.401869	115.877
0.500567	123.03
0.599236	128.971
0.7028	133.694
0.801439	138.422
0.904974	141.933
1.00851	145.444
