Adsorption isotherm of Hydrogen on IRMOF-1
DOI: 10.1021/Jp0713918
Adsorbate Hydrogen: InChIKey UFHFLCQGNIYNRP-UHFFFAOYSA-N
Temperature: 77 K
Tabular data in the source: 0
pressure (bar)	uptake (molecules/unitcell)
0.0971758	145.337
0.20089	156.12
0.299558	162.061
0.403093	165.572
0.501702	169.089
0.600281	171.394
0.703786	173.692
0.80729	175.991
0.910765	177.078
1.00442	179.389
