Adsorption isotherm of Hydrogen on IRMOF-1
DOI: 10.1021/Jp0713918
Adsorbate Hydrogen: InChIKey UFHFLCQGNIYNRP-UHFFFAOYSA-N
Temperature: 77 K
Tabular data in the source: 0
pressure (bar)	uptake (wt%)
0.0990099	2.93827
0.20297	3.16049
0.306931	3.28395
0.40099	3.38272
0.5	3.4321
0.59901	3.50617
0.70297	3.53086
0.80198	3.58025
0.90099	3.62963
1	3.65432
