Adsorption isotherm of Nitrogen on CuBTC
DOI: 10.1016/j.jallcom.2015.07.065
Article source: Figure 4
Adsorbate Nitrogen: InChIKey IJGRMHOSHXDMSA-UHFFFAOYSA-N
Kind: experiment
Temperature: 77 K
Tabular data in the source: 0
pressure (bar)	uptake (cm3(STP)/g)
0.010166	301.791
0.033888	309.352
0.064387	316.907
0.08472	320.679
0.105053	323.504
0.125386	325.38
0.142329	327.26
0.145719	332.944
0.162662	329.137
0.182995	331.014
0.203328	336.682
0.206716	331.939
0.250771	333.794
0.25416	338.53
0.298214	335.645
0.304991	339.43
0.355824	337.487
0.406656	338.387
0.454099	339.291
0.457487	342.131
0.504931	340.191
0.508319	343.032
0.555763	340.144
0.559151	343.932
0.606594	341.044
0.609984	343.884
0.657426	341.944
0.660815	344.785
0.687926	343.811
0.708259	341.897
0.762479	345.637
0.792979	344.661
0.813311	341.798
0.8167	345.587
0.830255	342.73
0.840421	344.617
0.860754	342.702
0.867531	345.539
0.884476	343.628
0.894642	345.514
0.911587	343.602
0.918364	345.492
0.938696	343.577
0.945474	345.466
0.965807	343.551
0.989529	346.373
1.00647	348.253
1.00986	352.989
