Adsorption isotherm of Nitrogen on H6P2W18O62@Cu3(BTC)2
DOI: 10.1016/j.jallcom.2015.07.065
Article source: Figure 4
Adsorbate Nitrogen: InChIKey IJGRMHOSHXDMSA-UHFFFAOYSA-N
Kind: experiment
Temperature: 77 K
Tabular data in the source: 0
pressure (bar)	uptake (cm3(STP)/g)
0.00897	407.627
0.026068	413.358
0.056865	424.815
0.084164	430.555
0.101213	433.428
0.121712	439.162
0.145578	442.994
0.169412	444.921
0.189846	446.845
0.203463	447.81
0.254499	449.763
0.305551	452.668
0.356586	454.621
0.404206	455.618
0.458642	457.574
0.509661	458.574
0.560681	459.575
0.608283	459.619
0.65932	461.572
0.713723	461.623
0.744324	461.652
0.761326	461.668
0.812346	462.668
0.842947	462.697
0.863349	462.716
0.89055	462.742
0.917752	462.767
0.94497	463.745
0.965388	464.717
0.989189	464.739
1.01301	465.714
