Adsorption isotherm of Nitrogen on TiO2 nanotube/reduced graphene oxide nanocomposite (5% rGO)
DOI: 10.1007/s10854-017-6683-2
Article source: Figure 5
Adsorbate Nitrogen: InChIKey IJGRMHOSHXDMSA-UHFFFAOYSA-N
Kind: experiment
Temperature: 77 K
Tabular data in the source: 0
pressure (bar)	uptake (cm3(STP)/g)
0.002634	4.643
0.018025	5.183
0.041826	5.801
0.0559	6.324
0.082021	6.784
0.089823	7.577
0.108051	8.084
0.12557	8.433
0.145307	8.576
0.175593	8.909
0.202119	9.132
0.230469	9.465
0.254878	9.735
0.288294	9.957
0.309258	10.132
0.33619	10.401
0.361916	10.608
0.37984	10.703
0.390367	11.226
0.404137	11.036
0.42044	11.671
0.433906	11.259
0.44576	12.131
0.464394	11.402
0.480798	12.939
0.494973	11.656
0.510668	13.558
0.525856	11.942
0.542868	14.018
0.560488	12.307
0.566558	14.256
0.588839	12.703
0.600379	15.255
0.624281	13.243
0.626511	15.604
0.651821	16.856
0.656381	13.972
0.679979	17.903
0.689999	14.718
0.699423	19.013
0.710254	19.868
0.725746	21.644
0.726658	16.018
0.74904	24.402
0.754096	16.937
0.760074	25.733
0.765242	27.08
0.779214	30.805
0.77962	18.491
0.790248	33.721
0.79957	19.727
0.802701	37.017
0.820321	43.151
0.826603	21.851
0.834101	48.206
0.843615	23.801
0.844629	51.598
0.856575	55.56
0.862249	25.972
0.868227	58.476
0.878754	28.508
0.880679	60.759
0.891004	62.423
0.89607	31.472
0.91136	34.531
0.920874	36.924
0.926548	66.861
0.929385	39.602
0.937684	42.249
0.942243	68.747
0.944878	45.688
0.950754	70.617
0.954189	50.078
0.960066	72.487
0.963511	54.643
0.96959	58.747
0.970198	74.643
0.975051	62.234
0.97951	76.434
0.982043	66.101
0.98569	78.145
0.98721	69.794
0.992368	80.649
0.994191	75.34
0.998751	83.122
1.00098	79.635
1.00644	84.374
1.00897	86.704
