Adsorption isotherm of Nitrogen on TiO2 nanotube/reduced graphene oxide nanocomposite (15% rGO)
DOI: 10.1007/s10854-017-6683-2
Article source: Figure 5
Adsorbate Nitrogen: InChIKey IJGRMHOSHXDMSA-UHFFFAOYSA-N
Kind: experiment
Temperature: 77 K
Tabular data in the source: 0
pressure (bar)	uptake (cm3(STP)/g)
0.003141	6.91
0.010933	7.29
0.040002	8.384
0.046882	8.527
0.06511	8.955
0.073317	9.114
0.095588	9.589
0.105822	9.732
0.123847	9.986
0.13559	10.43
0.152197	10.541
0.161104	10.716
0.181662	11.144
0.191896	11.271
0.210934	11.556
0.221664	11.715
0.236143	11.905
0.248191	12.08
0.266013	12.286
0.27645	12.429
0.293664	12.604
0.303483	12.731
0.321103	13.08
0.332846	13.238
0.352391	13.555
0.359585	13.587
0.376699	13.936
0.387429	14.063
0.403934	14.396
0.411533	14.476
0.427228	14.634
0.4335	14.666
0.456896	14.999
0.469044	15.269
0.49325	15.697
0.502055	15.982
0.527984	16.442
0.541956	16.569
0.568179	17.236
0.576791	17.41
0.589143	17.933
0.597147	17.775
0.608181	18.044
0.613653	18.726
0.624991	19.043
0.630766	18.647
0.641699	18.917
0.649805	20.121
0.659927	20.628
0.6655	19.614
0.676534	19.963
0.679067	21.484
0.690405	22.214
0.693546	20.645
0.706708	21.152
0.709139	24.227
0.716637	21.77
0.724429	25.859
0.732636	26.683
0.739719	27.571
0.746811	23.324
0.748939	28.585
0.756528	29.552
0.762	31.074
0.768981	32.738
0.771007	24.909
0.7781	25.527
0.78043	36.019
0.788222	26.494
0.795315	40.123
0.800786	41.724
0.802498	27.857
0.810604	28.539
0.810807	45.702
0.81719	49.125
0.8179	29.506
0.823665	30.266
0.823766	52.961
0.828224	30.821
0.831669	57.16
0.83481	58.904
0.837941	60.79
0.840474	62.517
0.84321	64.324
0.846655	34.039
0.850303	68.745
0.853028	70.806
0.85546	72.121
0.861033	76.86
0.864478	78.666
0.868024	80.473
0.870547	39.554
0.874296	83.69
0.878247	86.21
0.884327	88.271
0.887255	43.722
0.891105	45.275
0.89374	90.886
0.89992	92.058
0.904065	93.104
0.910043	51.995
0.911056	94.452
0.918452	55.72
0.920175	95.64
0.926852	59.143
0.929689	96.417
0.934654	63.026
0.937684	97.21
0.941736	66.671
0.946803	69.175
0.948221	70.696
0.951565	72.44
0.957938	76.005
0.959154	99.064
0.965031	80.348
0.96878	100.015
0.973532	84.928
0.97647	86.925
0.97951	89.096
0.982651	90.76
0.987008	93.787
0.989632	95.309
0.994191	103.835
0.997028	99.223
1.0026	101.188
1.00402	101.854
1.00604	107.575
1.00705	112.425
