Adsorption isotherm of Nitrogen on TiO2 nanotube
DOI: 10.1007/s10854-017-6683-2
Article source: Figure 5
Adsorbate Nitrogen: InChIKey IJGRMHOSHXDMSA-UHFFFAOYSA-N
Kind: experiment
Temperature: 77 K
Tabular data in the source: 0
pressure (bar)	uptake (cm3(STP)/g)
0.002938	4.58
0.017721	5.42
0.033619	5.928
0.054177	6.388
0.072203	6.626
0.092356	7.022
0.113107	7.07
0.130626	7.419
0.149056	7.784
0.174782	8.085
0.18997	8.402
0.21063	8.482
0.234117	8.783
0.259134	8.863
0.286572	9.054
0.308346	9.197
0.327385	9.387
0.345613	9.498
0.373659	9.736
0.399071	10.133
0.421554	10.466
0.452539	10.593
0.475833	10.61
0.49548	10.911
0.51846	11.292
0.548441	11.546
0.571725	11.831
0.575474	12.259
0.594715	12.212
0.596337	12.767
0.616084	13.417
0.621748	12.751
0.640686	14.115
0.652632	13.449
0.656583	14.796
0.672785	15.462
0.680789	14.21
0.686453	16.096
0.703465	16.905
0.70539	14.654
0.717742	18.331
0.723517	15.194
0.731522	19.821
0.739921	15.859
0.744177	21.121
0.756528	22.532
0.758757	16.747
0.766053	25.258
0.776377	27.984
0.778404	18.031
0.785689	30.472
0.795619	33.293
0.799672	19.093
0.805031	35.417
0.813036	37.746
0.815772	20.187
0.820625	41.281
0.82711	43.816
0.82792	21.36
0.835013	47.335
0.840981	22.739
0.842602	49.601
0.851417	52.517
0.852025	23.817
0.859412	54.99
0.86387	25.006
0.869838	57.098
0.880781	27.351
0.882604	59.142
0.893537	60.854
0.898502	29.792
0.912677	62.645
0.916831	33.247
0.928068	64.135
0.934451	36.924
0.943155	40.237
0.946701	65.958
0.954392	44.12
0.961282	46.845
0.965031	68.399
0.968577	50.918
0.977382	56.085
0.983157	70.982
0.984677	60.031
0.992165	64.326
0.996117	73.312
0.999258	69.128
1.00443	72.234
1.00715	75.436
