Adsorption isotherm of Nitrogen on TiO2 nanotube/reduced graphene oxide nanocomposite (1% rGO)
DOI: 10.1007/s10854-017-6683-2
Article source: Figure 5
Adsorbate Nitrogen: InChIKey IJGRMHOSHXDMSA-UHFFFAOYSA-N
Kind: experiment
Temperature: 77 K
Tabular data in the source: 0
pressure (bar)	uptake (cm3(STP)/g)
0.002938	4.406
0.011743	4.945
0.020761	5.23
0.031491	5.42
0.044552	5.738
0.064097	6.229
0.083946	6.531
0.104505	6.832
0.125468	7.149
0.14167	7.498
0.165866	7.721
0.187741	8.006
0.211532	8.228
0.234928	8.466
0.262264	8.657
0.285255	8.848
0.308447	9.07
0.334366	9.245
0.362422	9.53
0.389354	9.753
0.413955	9.848
0.433703	10.118
0.456997	10.34
0.469754	11.212
0.490008	10.594
0.50621	11.815
0.520283	11.054
0.523323	12.29
0.542159	12.671
0.548137	11.261
0.570307	13.495
0.57517	11.562
0.589548	14.415
0.602102	11.895
0.606256	15.002
0.62185	15.953
0.627625	12.403
0.634505	17.221
0.649906	18.441
0.662663	19.868
0.665297	13.132
0.677648	22.055
0.685339	13.735
0.691114	24.02
0.703567	14.227
0.705796	26.477
0.716131	29.013
0.725848	31.406
0.730407	15.178
0.73294	33.53
0.741543	35.669
0.750256	38.284
0.752171	16.034
0.760885	41.311
0.770501	43.942
0.774655	17.175
0.780025	46.335
0.786803	48.301
0.796834	51.344
0.796936	18.428
0.806754	54.228
0.819815	56.907
0.822753	20.171
0.830555	58.904
0.84169	60.615
0.847567	22.058
0.855967	62.153
0.867821	23.785
0.868125	63.136
0.879362	63.817
0.8823	25.323
0.893031	64.531
0.897995	27.082
0.903761	65.339
0.915413	29.301
0.918756	66.116
0.927967	31.789
0.93131	67.019
0.940926	35.118
0.943662	67.939
0.953389	39.856
0.954898	69.017
0.964017	43.961
0.965132	69.936
0.969489	48.652
0.974545	52.281
0.978496	71.331
0.981334	56.608
0.988315	61.632
0.989125	72.694
0.996015	67.068
0.999156	74.405
1.00311	71.173
1.00644	73.788
1.00837	75.769
