Adsorption isotherm of Nitrogen on TiO2 nanotube/reduced graphene oxide nanocomposite (10% rGO)
DOI: 10.1007/s10854-017-6683-2
Article source: Figure 5
Adsorbate Nitrogen: InChIKey IJGRMHOSHXDMSA-UHFFFAOYSA-N
Kind: experiment
Temperature: 77 K
Tabular data in the source: 0
pressure (bar)	uptake (cm3(STP)/g)
0.002837	5.341
0.014986	5.975
0.029769	6.641
0.046274	7.085
0.06511	7.671
0.088911	8.084
0.11108	8.56
0.132855	8.909
0.147536	9.4
0.160202	9.464
0.180041	9.686
0.206577	10.051
0.227338	10.194
0.24505	10.495
0.258627	10.575
0.279175	10.86
0.299126	11.035
0.318266	11.178
0.340952	11.511
0.359281	11.701
0.386719	12.05
0.39138	12.605
0.404238	12.146
0.415171	12.827
0.42662	12.431
0.429964	13.176
0.447382	13.478
0.452032	12.638
0.466106	14.175
0.471983	13.129
0.491224	14.921
0.495277	13.352
0.510465	15.365
0.51694	13.479
0.532027	15.824
0.541652	14.018
0.542058	16.047
0.559779	16.459
0.564845	14.272
0.573346	16.586
0.591169	14.748
0.595931	17.236
0.607168	17.458
0.614261	15.081
0.617087	17.743
0.633492	18.172
0.636227	15.573
0.647677	18.774
0.656684	16.032
0.663473	19.456
0.678661	16.698
0.691418	20.867
0.701439	21.596
0.706201	17.523
0.709443	22.388
0.716536	23.514
0.72605	24.829
0.728482	18.427
0.732028	26.002
0.740631	27.238
0.74671	28.268
0.748129	19.346
0.754096	29.505
0.761696	31.01
0.76666	32.532
0.768079	20.361
0.770399	33.958
0.773642	35.115
0.777087	36.462
0.782659	38.364
0.783774	21.55
0.785993	39.664
0.789843	41.122
0.795011	42.675
0.800887	44.624
0.80341	22.976
0.806754	46.605
0.812023	48.206
0.818507	50.663
0.819815	24.133
0.824678	52.755
0.830048	54.672
0.833189	25.734
0.835824	56.891
0.842298	58.682
0.845338	27.272
0.848479	59.918
0.856473	61.614
0.861641	29.538
0.861843	62.993
0.868632	64.134
0.871763	31.123
0.875917	65.085
0.88301	65.941
0.884226	33.199
0.890295	66.987
0.897793	67.779
0.899313	36.242
0.907003	68.651
0.909232	38.287
0.916426	40.268
0.918148	69.65
0.923711	42.186
0.929284	70.791
0.933033	44.816
0.938697	71.837
0.940217	46.94
0.946904	72.852
0.948626	50.506
0.953794	52.899
0.95429	74.135
0.963612	75.704
0.964524	57.559
0.971303	61.727
0.972012	77.115
0.980624	67.052
0.981637	80.015
0.985893	69.825
0.989125	82.234
0.990341	72.725
0.994293	75.927
0.997636	84.754
0.999764	86.862
1.00128	92.884
1.0027	99.604
1.00311	107.005
1.00392	111.87
1.00402	81.537
1.00482	84.152
1.00725	93.391
1.00796	100.19
1.00806	114.152
