Adsorption isotherm of Nitrogen on Zeolite 13X
DOI: 10.1134/S0036024407020173
Adsorbate Nitrogen: InChIKey IJGRMHOSHXDMSA-UHFFFAOYSA-N
Temperature: 253 K
Tabular data in the source: 0
pressure (bar)	uptake (mmol/g)
0.692821	0.544681
1.03923	0.953191
1.38564	1.46383
2.42487	2.24681
3.2909	2.62128
6.92821	3.71064
7.44782	3.88085
12.4708	4.66383
13.6832	4.83404
18.1865	5.2766
20.6114	5.51489
23.7291	5.78723
24.5951	5.71915
28.0592	6.12766
35.1606	6.57021
43.1281	7.11489
49.3635	7.35319
51.6151	7.59149
60.4486	8.06809
