Adsorption isotherm of Nitrogen on Zeolite 13X
DOI: 10.1134/S0036024407020173
Adsorbate Nitrogen: InChIKey IJGRMHOSHXDMSA-UHFFFAOYSA-N
Temperature: 304 K
Tabular data in the source: 0
pressure (bar)	uptake (mmol/g)
1.38564	0.408511
2.94449	1.02128
3.98372	1.29362
6.40859	1.90638
10.2191	2.55319
15.0688	3.16596
16.4545	3.33617
21.8238	3.84681
24.4219	4.15319
27.3664	4.3234
28.9253	4.42553
32.5626	4.66383
38.6247	5.07234
46.0726	5.51489
49.8831	5.75319
51.9615	5.82128
57.1577	6.12766
60.4486	6.26383
62.1806	6.33191
