Adsorption isotherm of Nitrogen on Zeolite 13X
DOI: 10.1134/S0036024407020173
Adsorbate Nitrogen: InChIKey IJGRMHOSHXDMSA-UHFFFAOYSA-N
Temperature: 273 K
Tabular data in the source: 0
pressure (bar)	uptake (mmol/g)
0.866026	0.646809
1.55885	1.1234
2.77128	1.70213
3.4641	1.90638
6.40859	2.82553
7.27462	3.06383
12.2976	3.88085
13.51	4.08511
19.9186	4.73191
24.7683	5.14043
25.9808	5.24255
28.7521	5.44681
35.3338	5.9234
42.2621	6.33191
48.8438	6.70638
49.8831	6.74043
57.1577	7.11489
60.9682	7.31915
