Adsorption isotherm of Oxygen on Zeolite 13X
DOI: 10.1134/S0036024407020173
Adsorbate Oxygen: InChIKey MYMOFIZGZYHOMD-UHFFFAOYSA-N
Temperature: 304 K
Tabular data in the source: 0
pressure (bar)	uptake (mmol/g)
2.94449	0.343536
4.84974	0.686488
5.71577	0.755351
8.48705	1.16717
11.7779	1.64765
17.1473	2.23187
22.3435	2.85017
26.154	3.22838
29.0985	3.50354
30.6573	3.64117
32.909	3.81338
36.5463	4.12312
43.9941	4.74269
46.5922	4.91509
49.3635	5.12178
50.2295	5.12226
55.9453	5.50155
56.6381	5.50194
61.1414	5.77797
