Adsorption isotherm of Oxygen on Zeolite 13X
DOI: 10.1134/S0036024407020173
Adsorbate Oxygen: InChIKey MYMOFIZGZYHOMD-UHFFFAOYSA-N
Temperature: 273 K
Tabular data in the source: 0
pressure (bar)	uptake (mmol/g)
2.59808	0.54847
5.19615	1.16532
6.23538	1.33684
7.96744	1.74807
11.4315	2.43378
12.2976	2.57102
14.5492	2.87998
16.2813	3.18864
21.6506	3.90961
22.5167	4.01266
27.7128	4.5284
28.4056	4.66555
29.6181	4.7346
32.7358	4.94149
34.641	5.21606
41.0496	5.73249
47.4582	6.21472
51.4419	6.45628
53.8668	6.66277
58.3701	7.00718
62.0074	7.18017
