Adsorption isotherm of Oxygen on Zeolite 13X
DOI: 10.1134/S0036024407020173
Adsorbate Oxygen: InChIKey MYMOFIZGZYHOMD-UHFFFAOYSA-N
Temperature: 253 K
Tabular data in the source: 0
pressure (bar)	uptake (mmol/g)
1.03923	0.274089
2.77128	0.856259
5.54256	1.67833
8.83346	2.60326
13.3368	3.52887
19.0526	4.45516
20.9578	4.66136
25.1147	5.00558
26.154	5.21129
28.4056	5.55444
31.6965	5.82979
34.1214	5.93372
37.9319	6.38031
44.8601	6.93121
49.1903	7.13877
50.9223	7.48163
57.5041	7.82721
63.7395	8.24097
