Adsorption isotherm of Methane on UiO-66
DOI: 10.1016/j.memsci.2012.04.003
Adsorbate Methane: InChIKey VNWKTOKETHGBQD-UHFFFAOYSA-N
Temperature: 308 K
Tabular data in the source: 0
pressure (bar)	uptake (cm3(STP)/g)
7.98165	2.61569
9.26606	3.01811
10.4587	3.42052
11.9266	3.82294
13.1193	3.82294
14.4037	4.02414
15.5046	4.02414
16.789	4.22535
18.0734	4.42656
19.1743	4.42656
20.5505	4.62777
21.8349	4.82897
23.0275	5.03018
24.3119	5.23139
25.4128	5.4326
26.8807	5.4326
28.0734	5.6338
29.4495	5.93561
30.5505	6.03622
31.7431	6.23742
33.0275	6.63984
34.3119	6.84105
35.5963	6.84105
36.789	7.14286
37.9817	7.24346
39.3578	7.44467
40.4587	7.64588
41.9266	7.84708
43.0275	8.04829
44.2202	8.4507
45.5046	8.65191
46.8807	8.85312
47.9817	9.05433
49.2661	9.45674
50	9.55734
