Adsorption isotherm of Carbon Dioxide on UiO-66
DOI: 10.1016/j.memsci.2012.04.003
Adsorbate Carbon Dioxide: InChIKey CURLTUGMZLYLDI-UHFFFAOYSA-N
Temperature: 308 K
Tabular data in the source: 0
pressure (bar)	uptake (cm3/m2)
6.21488	0.536235
8.8595	0.704633
10.5785	0.811789
12.562	1.01102
14.4132	1.13351
16.7934	1.27125
18.5124	1.40911
20.7603	1.51617
22.7438	1.65398
24.4628	1.77649
26.7107	1.8989
28.562	2.00603
30.5455	2.12849
32.6612	2.25093
34.6446	2.35803
36.8926	2.46509
38.7438	2.58757
40.595	2.67935
42.7107	2.77107
44.6942	2.87818
46.6777	2.98528
48.9256	3.06163
50.6446	3.16878
52.6281	3.24518
54.6116	3.33693
56.7273	3.42865
58.7107	3.5204
60.6942	3.5968
62.6777	3.68855
64.6612	3.7803
66.6446	3.84134
68.6281	3.91773
70.7438	3.9941
72.595	4.07052
74.7107	4.14689
76.8264	4.25397
78.6777	4.31503
79.8678	4.34551
