Adsorption isotherm of Methane on NH2-UiO-66
DOI: 10.1016/j.memsci.2012.04.003
Adsorbate Methane: InChIKey VNWKTOKETHGBQD-UHFFFAOYSA-N
Temperature: 308 K
Tabular data in the source: 0
pressure (bar)	uptake (cm3(STP)/g)
7.99632	3.10262
10.5699	3.80167
11.8566	4.10089
12.9596	4.50109
14.3382	5.00133
15.5331	5.40134
16.8199	5.59996
18.1066	5.99979
19.3015	6.19859
20.6801	6.59823
21.7831	6.99842
23.0699	7.19704
24.3566	7.39566
25.6434	7.49368
26.8382	7.79308
28.0331	7.99189
29.4118	8.08971
30.6066	8.28852
31.8934	8.48714
33.1801	8.58515
34.2831	8.78414
35.5699	9.08336
36.8566	9.28198
38.1434	9.37999
39.4301	9.77982
40.5331	9.97881
41.9118	9.97603
43.1066	10.2754
44.3934	10.5747
45.5882	10.7735
46.7831	11.1735
48.0699	11.3721
49.3566	11.5707
50.1838	11.7703
