Adsorption isotherm of Carbon Dioxide on CuBTC
DOI: 10.1016/j.memsci.2012.04.003
Adsorbate Carbon Dioxide: InChIKey CURLTUGMZLYLDI-UHFFFAOYSA-N
Temperature: 308 K
Tabular data in the source: 0
pressure (bar)	uptake (cm3/m2)
1.19008	0.246154
2.5124	0.4
3.04132	0.523077
3.70248	0.630769
5.42149	0.769231
7.80165	0.923077
11.7686	1.30769
12.8264	1.41538
13.7521	1.50769
15.7355	1.73846
18.1157	1.95385
19.1736	2.03077
22.0826	2.29231
23.405	2.44615
24.1983	2.47692
25.2562	2.56923
26.314	2.64615
27.3719	2.72308
28.0331	2.76923
28.9587	2.86154
29.7521	2.92308
30.8099	3.01538
31.0744	3.07692
32.2645	3.10769
33.3223	3.2
34.3802	3.27692
35.438	3.35385
36.4959	3.44615
37.4215	3.52308
38.6116	3.58462
39.0083	3.66154
40.1983	3.69231
41.124	3.78462
42.1818	3.84615
43.2397	3.92308
44.2975	4
45.3554	4.09231
46.4132	4.15385
46.8099	4.21538
48	4.24615
49.0579	4.30769
49.8512	4.36923
50.9091	4.44615
52.0992	4.50769
53.157	4.56923
54.2149	4.64615
54.7438	4.72308
55.9339	4.73846
56.8595	4.81538
58.0496	4.89231
58.5785	4.92308
59.7686	4.98462
60.9587	5.06154
62.1488	5.12308
62.8099	5.21538
64	5.23077
65.0579	5.30769
66.2479	5.36923
67.3058	5.44615
68.3636	5.52308
69.5537	5.56923
70.4793	5.66154
71.6694	5.69231
72.8595	5.75385
74.0496	5.81538
75.2397	5.89231
