Adsorption isotherm of Carbon Dioxide on UiO-67
DOI: 10.1016/j.memsci.2012.04.003
Adsorbate Carbon Dioxide: InChIKey CURLTUGMZLYLDI-UHFFFAOYSA-N
Temperature: 308 K
Tabular data in the source: 0
pressure (bar)	uptake (cm3/m2)
14.4132	0.31969
24.7273	0.486617
26.7107	0.563011
28.6942	0.593341
30.9421	0.62362
32.6612	0.68471
34.6446	0.699684
36.6281	0.745369
38.7438	0.775673
40.8595	0.836687
42.7107	0.851687
44.562	0.882042
46.6777	0.912346
48.5289	0.958056
50.7769	0.988335
52.4959	0.988005
54.7438	1.04899
56.8595	1.09465
58.843	1.12498
60.562	1.14001
62.5455	1.17034
64.6612	1.216
66.6446	1.24633
68.7603	1.27663
71.0083	1.32226
72.595	1.36802
74.5785	1.36764
76.6942	1.4133
79.0744	1.4282
79.7355	1.44343
