Adsorption isotherm of Carbon Dioxide on UiO-67
DOI: 10.1016/j.memsci.2012.04.003
Adsorbate Carbon Dioxide: InChIKey CURLTUGMZLYLDI-UHFFFAOYSA-N
Temperature: 308 K
Tabular data in the source: 0
pressure (bar)	uptake (cm3(STP)/g)
6.61765	3.11039
8.97059	4.01286
10.5882	4.81566
12.7941	5.71832
14.5588	6.42032
16.6176	7.42377
18.8235	8.02462
20.7353	8.92765
22.9412	9.6291
24.5588	10.3313
26.9118	11.2338
28.5294	11.936
30.7353	12.6374
32.7941	13.5402
34.8529	14.2419
36.9118	14.9435
38.5294	15.6457
40.7353	16.2466
42.7941	17.25
44.8529	17.7504
46.7647	18.4523
48.8235	19.2545
50.7353	19.8557
52.5	20.4571
54.7059	21.3598
56.9118	21.86
58.6765	22.4614
60.7353	23.1631
62.7941	23.8647
65.1471	24.4654
66.9118	25.0668
68.6765	25.97
70.7353	26.3698
72.9412	27.0713
74.8529	27.6725
76.9118	28.2735
78.9706	28.8745
80.4412	29.4763
