Adsorption isotherm of Carbon Dioxide on NH2-MOF-199
DOI: 10.1016/j.memsci.2012.04.003
Adsorbate Carbon Dioxide: InChIKey CURLTUGMZLYLDI-UHFFFAOYSA-N
Temperature: 308 K
Tabular data in the source: 0
pressure (bar)	uptake (cm3/m2)
3.57025	0.738462
4.89256	0.846154
6.7438	1.01538
7.80165	1.13846
11.7686	1.52308
15.6033	2
19.1736	2.33846
23.405	2.81538
27.2397	3.10769
31.3388	3.55385
35.5702	3.86154
39.405	4.21538
43.3719	4.55385
47.2066	4.89231
51.1736	5.16923
55.405	5.53846
59.1074	5.81538
62.9421	6.10769
67.0413	6.36923
70.7438	6.66154
75.1074	6.92308
78.9421	7.2
