Adsorption isotherm of Methane on NH2-MOF-199
DOI: 10.1016/j.memsci.2012.04.003
Adsorbate Methane: InChIKey VNWKTOKETHGBQD-UHFFFAOYSA-N
Temperature: 308 K
Tabular data in the source: 0
pressure (bar)	uptake (cm3(STP)/g)
4.77941	2.60608
5.88235	2.80507
7.99632	3.40443
9.74265	4.20575
14.7059	5.40301
18.4743	6.40146
19.4853	6.70124
20.2206	7.00157
21.0478	7.10051
23.5294	7.59853
24.3566	7.99928
25.0919	7.9978
27.4816	8.39541
28.9522	8.79486
30.5147	9.19414
32.261	9.39183
33.6397	9.79147
34.4669	10.1922
34.8346	10.1915
36.1213	10.3901
38.511	10.8883
40.1654	11.1868
41.9118	11.5857
43.6581	11.7834
44.8529	11.9822
46.4154	12.3815
48.0699	12.6799
49.4485	12.979
