Adsorption isotherm of Methane on NH2-MOF-199
DOI: 10.1016/j.memsci.2012.04.003
Adsorbate Methane: InChIKey VNWKTOKETHGBQD-UHFFFAOYSA-N
Temperature: 308 K
Tabular data in the source: 0
pressure (bar)	uptake (cm3/m2)
2.97521	0.290833
3.80165	0.351999
4.21488	0.382583
4.87603	0.397735
7.35537	0.535169
9.91736	0.611158
11.9008	0.718034
14.6281	0.840037
17.0248	0.931432
19.5868	1.02278
21.9008	1.1142
24.5455	1.20551
27.1901	1.28148
29.5041	1.38825
31.9008	1.44894
34.4628	1.54028
36.6942	1.63173
39.4215	1.72302
41.5702	1.75307
44.2149	1.82903
46.4463	1.92048
49.1736	1.99642
