Adsorption isotherm of Carbon Dioxide on NH2-UiO-66
DOI: 10.1016/j.memsci.2012.04.003
Adsorbate Carbon Dioxide: InChIKey CURLTUGMZLYLDI-UHFFFAOYSA-N
Temperature: 308 K
Tabular data in the source: 0
pressure (bar)	uptake (cm3(STP)/g)
8.38235	6.83051
10.5882	8.23618
12.5	9.44102
14.5588	10.9475
16.7647	12.2526
18.6765	13.558
20.4412	14.6624
22.6471	16.1687
24.7059	17.2728
26.7647	18.2762
28.6765	19.2798
30.7353	20.4845
32.7941	21.6891
34.8529	22.4914
36.4706	23.6966
38.6765	24.4986
40.7353	25.7033
42.7941	26.7067
44.5588	27.61
46.6176	28.5128
48.8235	29.5161
50.5882	30.4193
52.7941	31.3219
54.7059	32.1244
56.3235	33.1284
57.6471	33.5291
58.8235	33.8294
60.4412	34.6322
61.3235	35.2348
63.0882	35.6349
64.7059	36.5383
66.6176	37.039
68.6765	37.9418
70.5882	38.7442
72.9412	39.6467
74.8529	40.2479
76.6176	41.1511
78.9706	41.8524
79.5588	42.5559
