Adsorption isotherm of Methane on CuBTC
DOI: 10.1016/j.memsci.2012.04.003
Adsorbate Methane: InChIKey VNWKTOKETHGBQD-UHFFFAOYSA-N
Temperature: 308 K
Tabular data in the source: 0
pressure (bar)	uptake (cm3(STP)/g)
9.63303	2.7163
19.5413	4.42656
24.4954	5.4326
27.156	5.83501
29.633	6.13682
32.0183	6.53924
34.4037	7.14286
36.2385	7.34406
39.4495	7.84708
44.1284	8.4507
49.2661	9.35614
