Adsorption isotherm of Carbon Dioxide on NH2-UiO-66
DOI: 10.1016/j.memsci.2012.04.003
Adsorbate Carbon Dioxide: InChIKey CURLTUGMZLYLDI-UHFFFAOYSA-N
Temperature: 308 K
Tabular data in the source: 0
pressure (bar)	uptake (cm3/m2)
4.36364	0.47517
6.47934	0.659025
8.59504	0.81217
10.4463	0.98072
12.562	1.14922
14.4132	1.31777
16.5289	1.48627
18.6446	1.63942
20.3636	1.79264
22.876	1.94571
24.595	2.03751
26.5785	2.19068
28.8264	2.3438
30.6777	2.46628
32.6612	2.61945
34.7769	2.72653
36.6281	2.84902
38.7438	2.98681
40.7273	3.10927
42.5785	3.23175
44.562	3.33886
46.6777	3.46129
48.7934	3.56837
50.5124	3.69088
52.6281	3.7826
54.6116	3.88971
56.4628	4.0122
58.5785	4.08856
60.6942	4.211
62.6777	4.30275
64.6612	4.42521
66.6446	4.51696
68.4959	4.57802
70.7438	4.71579
72.8595	4.79216
74.7107	4.88393
76.562	4.97571
78.6777	5.06743
79.4711	5.1287
