Adsorption isotherm of Methane on CuBTC
DOI: 10.1016/j.memsci.2012.04.003
Adsorbate Methane: InChIKey VNWKTOKETHGBQD-UHFFFAOYSA-N
Temperature: 308 K
Tabular data in the source: 0
pressure (bar)	uptake (cm3/m2)
4.95868	0.198093
9.83471	0.319437
14.7107	0.425425
19.5868	0.562123
24.5455	0.652731
29.6694	0.743288
34.4628	0.849301
39.5041	0.939884
44.2975	1.0459
49.1736	1.13653
