Adsorption isotherm of Methane on NH2-UiO-66
DOI: 10.1016/j.memsci.2012.04.003
Adsorbate Methane: InChIKey VNWKTOKETHGBQD-UHFFFAOYSA-N
Temperature: 308 K
Tabular data in the source: 0
pressure (bar)	uptake (cm3/m2)
5.53719	0.228626
8.01653	0.350705
9.17355	0.44248
10.4959	0.442074
11.7355	0.503114
12.9752	0.533443
14.2149	0.594483
15.6198	0.609407
16.7769	0.655117
18.0992	0.700776
19.2562	0.746486
20.5785	0.77679
21.7355	0.837855
23.1405	0.852778
24.2975	0.883133
25.5372	0.898108
26.7769	0.928437
28.0992	0.928031
29.2562	0.958386
30.5785	0.98869
31.8182	1.01902
32.9752	1.03402
34.2975	1.07968
35.4545	1.09468
36.9421	1.10958
38.0992	1.13993
39.3388	1.17026
40.5785	1.18524
41.8182	1.20021
43.0579	1.23054
44.1322	1.26092
45.4545	1.29122
46.6116	1.33693
48.0165	1.35186
49.3388	1.39752
50	1.41267
