Adsorption isotherm of Methane on UiO-66
DOI: 10.1016/j.memsci.2012.04.003
Adsorbate Methane: InChIKey VNWKTOKETHGBQD-UHFFFAOYSA-N
Temperature: 308 K
Tabular data in the source: 0
pressure (bar)	uptake (cm3/m2)
3.05785	0.106547
4.46281	0.167535
5.70248	0.21322
6.8595	0.25893
8.18182	0.289234
9.42149	0.350274
10.4959	0.380654
13.0579	0.441287
14.2975	0.456262
16.8595	0.50154
18.0992	0.50116
19.4215	0.531464
20.6612	0.531083
22.9752	0.561082
25.5372	0.606361
28.0165	0.63631
29.3388	0.681969
31.9008	0.711892
33.0579	0.742247
35.4545	0.772221
36.9421	0.802475
37.5207	0.817652
37.9339	0.83288
39.2562	0.847829
40.5785	0.893488
41.8182	0.923818
43.0579	0.954147
44.2149	0.969147
45.3719	0.968792
46.7769	1.01443
48.0165	1.04476
49.3388	1.07506
49.8347	1.09026
