Adsorption isotherm of Methane on UiO-67
DOI: 10.1016/j.memsci.2012.04.003
Adsorbate Methane: InChIKey VNWKTOKETHGBQD-UHFFFAOYSA-N
Temperature: 308 K
Tabular data in the source: 0
pressure (bar)	uptake (cm3(STP)/g)
1.65138	0.603622
2.93578	1.00604
4.40367	1.00604
5.59633	1.50905
6.88073	1.81087
7.98165	2.21328
9.26606	2.21328
10.2752	2.7163
11.6514	2.8169
13.0275	3.31992
14.3119	3.42052
15.5963	3.62173
16.789	4.02414
18.0734	4.12475
19.1743	4.22535
20.5505	4.22535
21.7431	4.22535
23.0275	4.32596
24.3119	4.42656
25.4128	4.42656
26.6972	4.52716
27.9817	4.72837
29.2661	4.82897
30.4587	4.72837
31.8349	4.82897
33.1193	5.03018
34.2202	5.23139
35.5046	5.33199
36.789	5.6338
37.9817	5.6338
39.3578	5.83501
40.4587	6.13682
41.8349	6.13682
42.9358	6.33803
44.2202	6.33803
45.5046	6.63984
46.789	6.94165
48.1651	6.94165
49.1743	7.24346
50	7.44467
