Adsorption isotherm of Carbon Dioxide on UiO-66
DOI: 10.1016/j.memsci.2012.04.003
Adsorbate Carbon Dioxide: InChIKey CURLTUGMZLYLDI-UHFFFAOYSA-N
Temperature: 308 K
Tabular data in the source: 0
pressure (bar)	uptake (cm3(STP)/g)
4.55882	3.41479
6.61765	4.61944
8.52941	6.02549
10.7353	7.22996
12.6471	8.63601
14.5588	9.84085
16.6176	11.0455
18.5294	12.0491
20.7353	13.2536
22.7941	14.1564
24.7059	15.2607
26.6176	16.3649
28.5294	17.3685
30.7353	18.3718
32.7941	19.2747
34.8529	20.1775
36.7647	21.0805
38.9706	22.0838
40.8824	23.0874
42.7941	23.6886
44.8529	24.7927
46.6176	25.4947
55	28.7035
56.6176	29.5063
58.9706	30.3081
60.7353	31.0101
62.7941	31.8124
64.8529	32.4134
66.9118	32.9138
68.6765	33.7165
70.7353	34.5187
72.9412	35.0189
75.1471	35.7204
76.9118	36.3218
78.9706	36.8222
80.1471	37.525
