Adsorption isotherm of Carbon Dioxide on NH2-MOF-199
DOI: 10.1016/j.memsci.2012.04.003
Adsorbate Carbon Dioxide: InChIKey CURLTUGMZLYLDI-UHFFFAOYSA-N
Temperature: 308 K
Tabular data in the source: 0
pressure (bar)	uptake (cm3(STP)/g)
2.20588	3.11594
3.52941	4.62333
6.02941	6.22984
7.79412	7.53547
8.52941	7.83636
12.9412	10.7483
15.5882	13.1595
18.9706	15.2679
23.6765	18.2801
27.5	20.5892
31.6176	22.8979
34.8529	25.0065
39.5588	27.5156
42.5	29.3228
47.2059	31.7314
50.8824	33.5376
55.1471	35.8461
59.2647	37.7524
62.7941	39.5589
66.9118	41.1633
71.0294	43.0696
74.5588	44.5742
79.1176	46.5806
