Adsorption isotherm of Carbon Dioxide on CuBTC
DOI: 10.1016/j.memsci.2012.04.003
Adsorbate Carbon Dioxide: InChIKey CURLTUGMZLYLDI-UHFFFAOYSA-N
Temperature: 308 K
Tabular data in the source: 0
pressure (bar)	uptake (cm3(STP)/g)
6.02941	6.83346
7.79412	7.73668
11.9118	11.0514
15.4412	13.8639
18.6765	16.1737
23.5294	19.6887
26.9118	21.8977
31.6176	25.0105
34.8529	27.1191
39.2647	29.7293
43.2353	31.9376
47.3529	34.1457
51.0294	36.0525
55.1471	38.16
58.9706	39.9661
63.0882	42.1742
66.6176	43.6788
71.1765	45.5845
74.5588	47.1899
79.1176	49.1963
