Adsorption isotherm of Methane on UiO-67
DOI: 10.1016/j.memsci.2012.04.003
Adsorbate Methane: InChIKey VNWKTOKETHGBQD-UHFFFAOYSA-N
Temperature: 308 K
Tabular data in the source: 0
pressure (bar)	uptake (cm3/m2)
1.90083	0.0454815
3.1405	0.0451008
4.13223	0.0908615
5.70248	0.0750242
6.8595	0.105379
8.09917	0.104998
9.33884	0.104618
10.4959	0.134972
11.8182	0.149921
12.8099	0.180327
14.4628	0.164464
15.6198	0.194819
16.8595	0.194439
18.0992	0.194058
19.0909	0.193753
20.4959	0.208677
21.7355	0.208296
22.8926	0.223296
24.2975	0.222864
25.6198	0.222458
26.7769	0.252813
28.0165	0.221722
29.2562	0.221342
30.4132	0.220986
31.6529	0.251316
32.8926	0.23558
34.3802	0.250478
35.6198	0.265453
36.8595	0.265072
38.0992	0.264691
39.2562	0.279691
40.4959	0.31002
41.7355	0.294285
42.9752	0.324614
44.3802	0.308828
45.4545	0.339208
46.9421	0.338751
48.0992	0.353751
49.0909	0.338091
49.8347	0.353218
