Adsorption isotherm of Benzene on IRMOF-1
DOI: 10.1016/j.apt.2011.07.002
Adsorbate Benzene: InChIKey UHOVQNZJYSORNB-UHFFFAOYSA-N
Temperature: 303 K
Tabular data in the source: 0
pressure (bar)	uptake (mmol/g)
0.00832714	1.06007
0.00892193	1.30742
0.0101115	1.73145
0.0107063	2.22615
0.0113011	2.61484
0.0118959	3.28622
0.0124907	4.41696
0.0130855	4.73498
0.0136803	5.61837
0.0148699	6.11307
0.0154647	6.5371
0.0160595	7.27915
0.0172491	7.59717
0.0178439	7.98587
0.0196283	8.37456
0.0220074	8.48057
0.026171	8.76325
0.0309294	8.79859
0.0368773	8.79859
0.0434201	8.79859
