Adsorption isotherm of Nitrogen on IRMOF-1
DOI: 10.1016/j.apt.2011.07.002
Adsorbate Nitrogen: InChIKey IJGRMHOSHXDMSA-UHFFFAOYSA-N
Temperature: 77 K
Tabular data in the source: 0
pressure (bar)	uptake (cm3(STP)/g)
0.00444842	94.3396
0.00483191	188.679
0.00524607	290.566
0.00555286	366.038
0.00613575	509.434
0.00981721	415.094
0.0104615	573.585
0.0188061	626.415
0.0271047	667.925
0.0516017	694.34
0.0882475	709.434
0.137103	728.302
0.189978	735.849
0.250983	743.396
0.303904	762.264
0.356763	766.038
0.409638	773.585
0.446253	781.132
0.486903	781.132
0.535697	784.906
0.576347	784.906
0.645481	792.453
0.702421	800
0.763411	803.774
0.80814	807.547
0.865111	822.642
0.893627	837.736
0.930288	856.604
0.954708	864.151
0.96701	890.566
0.96724	947.17
