Adsorption isotherm of Benzene on IRMOF-1
DOI: 10.1016/j.apt.2011.07.002
Adsorbate Benzene: InChIKey UHOVQNZJYSORNB-UHFFFAOYSA-N
Temperature: 323 K
Tabular data in the source: 0
pressure (bar)	uptake (mmol/g)
0.00416357	0.388693
0.00773234	0.565371
0.0118959	0.848057
0.0148699	1.4841
0.0160595	2.36749
0.0172491	3.42756
0.0190335	4.31095
0.0196283	5.22968
0.023197	6.89046
0.0297398	7.70318
0.0368773	7.91519
0.0440149	8.0212
