Adsorption isotherm of Benzene on IRMOF-1
DOI: 10.1016/j.apt.2011.07.002
Adsorbate Benzene: InChIKey UHOVQNZJYSORNB-UHFFFAOYSA-N
Temperature: 343 K
Tabular data in the source: 0
pressure (bar)	uptake (mmol/g)
0.0136803	0.600707
0.020223	0.742049
0.0255762	0.812721
0.0333086	1.30742
0.0350929	1.55477
0.0356877	1.80212
0.0362825	2.19081
0.0380669	2.75618
0.0386617	3.10954
0.0392565	3.92226
0.0398513	4.31095
0.0410409	4.73498
0.0416357	5.053
0.0422305	5.51237
0.0434201	5.97173
0.0440149	6.32509
0.0457993	6.60777
0.0469888	6.96113
0.0487732	7.10247
0.052342	7.45583
0.0559108	7.49117
0.0618587	7.5265
0.0636431	7.56184
0.0707807	7.5265
0.075539	7.56184
0.0797026	7.59717
