Adsorption isotherm of Benzene on IRMOF-1
DOI: 10.1016/j.apt.2011.07.002
Adsorbate Benzene: InChIKey UHOVQNZJYSORNB-UHFFFAOYSA-N
Temperature: 323 K
Tabular data in the source: 0
pressure (bar)	uptake (mmol/g)
0.0113011	0.989399
0.0142751	1.30742
0.0148699	1.69611
0.0154647	2.57951
0.0166543	2.89753
0.0178439	3.60424
0.0184387	3.85159
0.0190335	4.48763
0.0196283	4.80565
0.020223	5.51237
0.0214126	5.86572
0.0226022	6.60777
0.0237918	7.0318
0.0255762	7.27915
0.0267658	7.59717
0.0309294	7.77385
0.0350929	7.87986
0.0386617	7.91519
0.0410409	7.95053
0.0487732	7.98587
0.0547212	7.98587
