Adsorption isotherm of Benzene on IRMOF-1
DOI: 10.1016/j.apt.2011.07.002
Adsorbate Benzene: InChIKey UHOVQNZJYSORNB-UHFFFAOYSA-N
Temperature: 303 K
Tabular data in the source: 0
pressure (bar)	uptake (mmol/g)
0.00178439	0.318021
0.00416357	0.565371
0.00713755	0.848057
0.00951673	1.55477
0.0107063	2.36749
0.0124907	3.49823
0.0136803	5.01767
0.0154647	6.81979
0.0184387	8.19788
0.0243866	8.58657
0.0344981	8.69258
