Adsorption isotherm of Benzene on IRMOF-1
DOI: 10.1016/j.apt.2011.07.002
Adsorbate Benzene: InChIKey UHOVQNZJYSORNB-UHFFFAOYSA-N
Temperature: 343 K
Tabular data in the source: 0
pressure (bar)	uptake (mmol/g)
0.00178439	0.141343
0.00654275	0.353357
0.0101115	0.530035
0.0172491	0.636042
0.0243866	0.777385
0.029145	0.954064
0.0333086	1.16608
0.0356877	2.01413
0.0386617	2.93286
0.0398513	4.13428
0.0422305	5.33569
0.0446097	6.81979
0.0505576	7.27915
0.0594796	7.49117
0.0678067	7.5265
