Adsorption isotherm of Carbon Dioxide on CALF-22
DOI: 10.1021/Ic302127y
Adsorbate Carbon Dioxide: InChIKey CURLTUGMZLYLDI-UHFFFAOYSA-N
Temperature: 195 K
Tabular data in the source: 0
pressure (bar)	uptake (mmol/g)
0.0112215	0.422628
0.0132237	1.29788
0.0152259	2.07015
0.0192303	3.21999
0.0212325	4.61009
0.0312435	6.05167
0.0392523	6.70382
0.0552699	7.21867
0.0792963	7.63055
0.113334	7.90514
0.153378	8.11108
0.229461	8.38566
0.309549	8.60877
0.409659	8.79755
0.541804	8.93484
0.677954	9.10646
0.744027	9.15794
