Adsorption isotherm of Nitrogen on CALF-22
DOI: 10.1021/Ic302127y
Adsorbate Nitrogen: InChIKey IJGRMHOSHXDMSA-UHFFFAOYSA-N
Temperature: 77 K
Tabular data in the source: 0
pressure (bar)	uptake (mmol/g)
0.00521485	2.25893
0.00721705	0.731539
0.00721705	1.48665
0.00721705	3.01405
0.00721705	6.03451
0.00721705	7.51042
0.00921925	4.50712
0.00921925	8.91768
0.0132237	9.60415
0.0252369	10.1362
0.0752919	10.5309
0.11934	10.6682
0.177404	10.754
0.333576	10.857
0.493752	10.9599
0.611881	10.9942
0.732014	10.9942
0.808097	11.0286
