Adsorption isotherm of Methane on CALF-22
DOI: 10.1021/Ic302127y
Adsorbate Methane: InChIKey VNWKTOKETHGBQD-UHFFFAOYSA-N
Temperature: 195 K
Tabular data in the source: 0
pressure (bar)	uptake (mmol/g)
0.0272391	0.199526
0.0652809	0.559922
0.0993183	0.868833
0.133356	1.16058
0.20143	1.74408
0.275512	2.3619
0.341585	2.80811
0.449703	3.37444
0.5378	3.73484
0.734016	4.30118
0.870165	4.61009
1.00231	4.79887
1.10442	4.93616
