Adsorption isotherm of Hydrogen on CALF-22
DOI: 10.1021/Ic302127y
Adsorbate Hydrogen: InChIKey UFHFLCQGNIYNRP-UHFFFAOYSA-N
Temperature: 77 K
Tabular data in the source: 0
pressure (bar)	uptake (mmol/g)
0.00721705	0.0793937
0.0292413	0.422628
0.0572721	0.851671
0.0933117	1.38368
0.13736	1.84705
0.221452	2.67081
0.341585	3.56322
0.457712	4.16388
0.567833	4.62725
0.683961	5.03913
0.800088	5.3652
0.858152	5.51966
0.914214	5.70844
1.02433	5.91438
1.13846	6.12032
