Adsorption isotherm of Carbon Dioxide on CALF-22
DOI: 10.1021/Ic302127y
Adsorbate Carbon Dioxide: InChIKey CURLTUGMZLYLDI-UHFFFAOYSA-N
Temperature: 273 K
Tabular data in the source: 0
pressure (bar)	uptake (mmol/g)
0.0592743	0.182364
0.125347	0.388305
0.191419	0.594245
0.25549	0.851671
0.365611	1.21207
0.469725	1.53814
0.579846	1.89854
0.685963	2.29326
0.790077	2.60217
0.834126	2.73946
0.910209	2.9454
0.972278	3.11702
1.00832	3.20283
1.10042	3.42593
