Adsorption isotherm of Methane on CALF-22
DOI: 10.1021/Ic302127y
Adsorbate Methane: InChIKey VNWKTOKETHGBQD-UHFFFAOYSA-N
Temperature: 273 K
Tabular data in the source: 0
pressure (bar)	uptake (mmol/g)
0.0292413	0.0279085
0.0833007	0.062232
0.157382	0.0793937
0.205435	0.113717
0.307547	0.199526
0.405655	0.268173
0.50176	0.319658
0.601871	0.353981
0.699978	0.422628
0.806095	0.474113
0.898196	0.559922
1.00031	0.594245
1.09842	0.64573
