Adsorption isotherm of Water on MIL-101-NH2
DOI: 10.1016/j.micromeso.2012.01.015
Adsorbate Water: InChIKey XLYOFNOQVPJJNP-UHFFFAOYSA-N
Temperature: 298 K
Tabular data in the source: 0
pressure (bar)	uptake (mmol/g)
0.00346637	2.29177
0.0056985	3.12514
0.0074492	3.54182
0.00876222	4.37519
0.0095938	5.00022
0.0105129	5.62525
0.0109943	6.25027
0.0113445	7.29198
0.0115196	8.75038
0.0116071	12.2922
0.0116509	10.8338
0.0116946	14.3756
0.0117384	20.0009
0.0117822	21.6676
0.0118259	25.2094
0.0119135	26.8762
0.012001	28.3346
0.0122198	29.793
0.0124824	30.418
0.012745	31.043
0.0130514	32.0847
0.0132702	32.5014
0.0135766	33.3348
0.0136642	36.0432
0.0137079	34.1682
0.0137517	37.2933
0.0137955	39.5851
0.0139268	42.5019
0.0140581	47.2937
0.0142331	48.9605
0.0148896	49.3772
0.0155899	50.0022
0.0161589	50.6272
0.0175157	51.2522
0.0186536	51.8773
