Adsorption isotherm of Nitrogen on MIL-101-NO2
DOI: 10.1016/j.micromeso.2012.01.015
Adsorbate Nitrogen: InChIKey IJGRMHOSHXDMSA-UHFFFAOYSA-N
Temperature: 77 K
Tabular data in the source: 0
pressure (bar)	uptake (cm3(STP)/g)
0.00595959	156.157
0.00633282	78.2596
0.0111727	268.108
0.0223695	331.191
0.0422228	387.56
0.0964852	462.305
0.113557	499.135
0.193789	553.739
0.325791	603.242
0.535725	587.298
0.676636	577.318
0.785919	568.502
0.875048	566.137
0.943963	582.787
