Adsorption isotherm of Water on MIL-101-SO3H
DOI: 10.1016/j.micromeso.2012.01.015
Adsorbate Water: InChIKey XLYOFNOQVPJJNP-UHFFFAOYSA-N
Temperature: 298 K
Tabular data in the source: 0
pressure (bar)	uptake (mmol/g)
0.00333507	5.62525
0.00386028	6.25027
0.00447302	6.8753
0.00486693	7.50033
0.00534837	7.91701
0.00574227	8.3337
0.00613618	9.16707
0.00653008	9.79209
0.00688022	10.0004
0.00740543	11.2505
0.00779934	12.2922
0.00814947	13.5423
0.00832454	14.7923
0.00863091	16.2507
0.00884975	17.2924
0.00906859	18.7508
0.00928742	19.7925
0.00963756	20.8342
0.00994393	21.2509
0.0103816	21.876
0.0108193	22.501
0.0111257	23.126
0.011432	23.751
0.0115196	24.5844
0.0116509	26.0428
0.0116946	27.9179
0.0117384	30.0013
0.0118259	31.668
0.0119135	33.1264
0.0120448	33.7515
0.0122198	34.5848
0.01257	34.7932
0.0134453	35.4182
0.0142769	36.0432
0.0151522	36.2516
0.0160714	37.085
0.0171218	37.2933
0.0182597	37.9183
