Adsorption isotherm of Nitrogen on MIL-101
DOI: 10.1016/j.micromeso.2012.01.015
Adsorbate Nitrogen: InChIKey IJGRMHOSHXDMSA-UHFFFAOYSA-N
Temperature: 77 K
Tabular data in the source: 0
pressure (bar)	uptake (cm3(STP)/g)
0.000446542	321.583
0.00953367	395.802
0.0215345	463.351
0.0393738	520.602
0.083749	602.936
0.119249	668.803
0.146008	754.678
0.216718	807.383
0.234557	864.634
0.355124	892.107
0.548979	874.429
0.684069	856.397
0.792735	843.677
0.889635	827.239
0.974846	828.36
