Adsorption isotherm of Nitrogen on MIL-101-SO3H
DOI: 10.1016/j.micromeso.2012.01.015
Adsorbate Nitrogen: InChIKey IJGRMHOSHXDMSA-UHFFFAOYSA-N
Temperature: 77 K
Tabular data in the source: 0
pressure (bar)	uptake (cm3(STP)/g)
0.00311838	178.794
0.00329573	143.465
0.00369476	63.9742
0.00431548	-59.6781
0.00861618	283.588
0.0202473	366.579
0.0410266	427.17
0.0588797	470.694
0.085748	518.314
0.100645	550.658
0.106601	564.185
0.193458	661.692
0.322819	691.958
0.515656	677.302
0.651283	659.268
0.756746	650.149
0.85918	644.571
0.946524	644.922
