Adsorption isotherm of Water on MIL-101
DOI: 10.1016/j.micromeso.2012.01.015
Adsorbate Water: InChIKey XLYOFNOQVPJJNP-UHFFFAOYSA-N
Temperature: 298 K
Tabular data in the source: 0
pressure (bar)	uptake (mmol/g)
9.03e-05	0.431732
0.000722286	1.72693
0.00135429	1.94279
0.00207657	2.80626
0.00288914	3.66972
0.00325029	3.88559
0.00406286	4.74905
0.00496571	5.61251
0.00613943	6.26012
0.00704229	6.69187
0.0119177	12.0885
0.0123691	14.2472
0.0130011	17.0534
0.013272	19.8597
0.0134526	23.3135
0.0136331	26.9832
0.0138137	30.4371
0.013904	33.2434
0.0141749	35.6179
0.0143554	38.8559
0.0147166	41.0145
0.0154389	42.7414
0.0158903	44.0366
0.016432	50.0809
0.0167931	54.8299
0.0171543	58.0679
0.0173349	60.6584
0.0176057	66.9187
0.0177863	69.9406
0.0181474	71.2356
0.0187794	71.4515
0.0194114	72.3152
0.020224	72.7471
0.0211269	73.1784
0.02212	73.3943
0.0229326	74.0421
0.024016	74.258
0.02528	74.9052
0.0257314	74.9052
0.0268149	75.553
