Adsorption isotherm of Water on MIL-101-NO2
DOI: 10.1016/j.micromeso.2012.01.015
Adsorbate Water: InChIKey XLYOFNOQVPJJNP-UHFFFAOYSA-N
Temperature: 298 K
Tabular data in the source: 0
pressure (bar)	uptake (mmol/g)
0.00425989	1.24671
0.00708818	2.28564
0.00928796	3.11678
0.0111735	4.15571
0.0125876	5.818
0.0131114	8.10361
0.0134256	10.597
0.013478	12.8827
0.0135304	15.3761
0.0135828	17.8695
0.0136351	22.6486
0.0138446	24.9342
0.0140018	27.2199
0.0142113	29.5055
0.0154683	31.7911
0.0158873	32.8301
0.0159397	37.6091
0.015992	35.1157
0.0162015	40.1026
0.0162539	42.3882
0.0164634	44.8816
0.0165682	47.1673
0.0169872	49.4529
0.0189775	52.1541
