Adsorption isotherm of Water on MIL-101-NH2
DOI: 10.1016/j.micromeso.2012.01.015
Adsorbate Water: InChIKey XLYOFNOQVPJJNP-UHFFFAOYSA-N
Temperature: 298 K
Tabular data in the source: 0
pressure (bar)	uptake (mmol/g)
0.000500452	0.878374
0.00135837	1.46396
0.00200181	1.75675
0.00343167	2.34233
0.00564796	3.22071
0.0073638	3.95268
0.00865068	4.68466
0.00958009	5.12385
0.010438	5.85583
0.01101	6.44141
0.0113674	7.31979
0.0114389	9.07653
0.0115819	13.9076
0.0116534	21.813
0.0117249	19.3242
0.0118679	25.912
0.0119394	28.5472
0.0122253	29.8647
0.0126543	31.1823
0.0132977	32.6462
0.0135837	34.1102
0.0137982	38.3557
0.0138697	45.9683
0.0140842	48.0178
0.0142271	48.8962
0.0147991	49.6281
0.016086	50.6529
0.0175158	51.3849
0.0185882	51.9705
0.0197321	52.5561
0.021162	53.1416
0.0222344	53.8736
0.0233783	54.4592
0.0245222	54.8984
0.0253086	55.484
0.026381	56.0696
0.0271674	56.8015
0.0277394	57.2407
0.0286688	58.2655
0.0288833	58.8511
0.0293837	59.7294
0.0297412	60.9006
0.0300986	62.6574
