Adsorption isotherm of Water on MIL-101-NO2
DOI: 10.1016/j.micromeso.2012.01.015
Adsorbate Water: InChIKey XLYOFNOQVPJJNP-UHFFFAOYSA-N
Temperature: 298 K
Tabular data in the source: 0
pressure (bar)	uptake (mmol/g)
0.000573243	0.292791
0.00243628	0.878374
0.00422766	1.46396
0.00702222	2.48873
0.00924354	3.3671
0.0112499	4.68466
0.012683	5.85583
0.0131846	8.49095
0.0134712	10.6869
0.0135429	13.1756
0.0136145	17.8603
0.0136862	20.349
0.0137578	22.6913
0.0139011	25.0337
0.0140444	27.376
0.0142594	29.7183
0.0155492	32.0607
0.0159075	33.0854
0.0159791	35.5742
0.0161224	37.9165
0.0161941	40.4052
0.0163374	42.7475
0.0164807	45.0899
0.016624	47.4322
0.017054	49.7745
0.0190603	52.1169
0.0225714	54.6056
0.0245778	56.0696
0.0256526	56.6551
0.0278023	57.9727
0.0289488	58.8511
