Adsorption isotherm of Nitrogen on MIL-101-NH2
DOI: 10.1016/j.micromeso.2012.01.015
Adsorbate Nitrogen: InChIKey IJGRMHOSHXDMSA-UHFFFAOYSA-N
Temperature: 77 K
Tabular data in the source: 0
pressure (bar)	uptake (cm3(STP)/g)
0.00291066	161.924
0.0145533	397.118
0.0407493	484.431
0.0698559	541.167
0.110605	600.598
0.2183	681.772
0.320173	679.099
0.518098	664.906
0.631614	652.428
0.733487	642.255
0.83245	637.659
0.919769	642.867
