Adsorption isotherm of Water on MIL-101-SO3H
DOI: 10.1016/j.micromeso.2012.01.015
Adsorbate Water: InChIKey XLYOFNOQVPJJNP-UHFFFAOYSA-N
Temperature: 298 K
Tabular data in the source: 0
pressure (bar)	uptake (mmol/g)
0.000143636	0.975971
0.000502727	1.95194
0.000646364	2.56192
0.00107727	3.04991
0.00150818	3.78189
0.00215455	4.39187
0.00272909	5.12385
0.00337545	5.73383
0.00452455	6.9538
0.00538636	8.05176
0.00617636	9.02774
0.00653545	9.63772
0.00718182	10.7357
0.00768455	11.9556
0.00804364	13.2976
0.00847455	14.8836
0.00869	16.7135
0.00904909	18.5435
0.00933636	20.2514
0.00962364	20.7394
0.00991091	21.3494
0.0104136	21.9594
0.0111318	23.0573
0.0114191	23.9113
0.0116345	25.4973
0.0117064	27.0832
0.0117782	29.1571
0.01185	33.305
0.0122091	34.525
0.0124964	35.013
0.0133582	35.501
0.0142918	36.1109
0.0152255	36.5989
0.0160873	37.0869
0.0171645	37.6969
0.0182418	38.0629
0.0192473	38.6729
0.0204682	39.1609
0.0214736	39.6488
0.0226227	40.1368
0.0236282	40.6248
0.0247773	41.1128
0.0255673	41.6008
0.0266445	41.9668
0.0275064	42.4548
0.0282245	42.9427
0.0287991	43.4307
