Adsorption isotherm of Nitrogen on Ni/Al-0.05La
DOI: 10.1016/j.mcat.2017.03.009
Article source: Figure 1
Adsorbate Nitrogen: InChIKey IJGRMHOSHXDMSA-UHFFFAOYSA-N
Kind: experiment
Temperature: 77 K
Tabular data in the source: 0
pressure (bar)	uptake (cm3(STP)/g)
0.002726	21.25
0.015138	23.81
0.026496	25.36
0.048797	31.23
0.060166	32.51
0.074472	33.86
0.08499	35.08
0.109824	36.23
0.11487	37.24
0.135074	37.98
0.146432	39.4
0.164954	39.94
0.177579	41.49
0.18684	41.29
0.206618	43.45
0.225971	44.46
0.236701	45.81
0.256904	46.08
0.269742	47.43
0.274575	47.84
0.299835	49.86
0.306147	49.8
0.329715	51.96
0.359798	54.18
0.392201	57.02
0.407774	57.22
0.423976	60.12
0.456805	63.09
0.486685	67.07
0.506676	70.18
0.522452	72.61
0.536971	75.31
0.551065	78.14
0.569374	82.39
0.583681	86.37
0.602193	92.17
0.611038	84.96
0.620705	98.71
0.626399	87.99
0.633532	105.73
0.641962	91.5
0.642368	114.84
0.655854	94.54
0.658985	120.97
0.666979	129.61
0.670789	98.45
0.678965	139.59
0.68464	147.68
0.685936	102.56
0.693049	157.8
0.694731	164.21
0.699402	107.22
0.707772	173.79
0.721703	114.37
0.72376	181.14
0.732849	118.48
0.734906	184.99
0.745433	186.2
0.750104	124.76
0.760156	186.67
0.764411	131.64
0.774047	187.55
0.780603	138.92
0.79193	188.02
0.794068	145.53
0.806876	188.3
0.814262	155.99
0.82793	163.54
0.83171	188.5
0.852126	175.62
0.856321	188.77
0.872533	181.62
0.88073	190.46
0.887893	185.4
0.906192	189.79
0.958799	191.48
0.965963	191.34
0.97879	192.35
0.988477	192.49
1.00847	193.03
