Adsorption isotherm of Nitrogen on Ni/Al-0.2La
DOI: 10.1016/j.mcat.2017.03.009
Article source: Figure 1
Adsorbate Nitrogen: InChIKey IJGRMHOSHXDMSA-UHFFFAOYSA-N
Kind: experiment
Temperature: 77 K
Tabular data in the source: 0
pressure (bar)	uptake (cm3(STP)/g)
0.023558	16.73
0.051117	18.55
0.059122	19.23
0.074685	20.1
0.087523	20.1
0.112144	21.19
0.121821	21.93
0.13403	22.54
0.146442	22.94
0.165805	23.75
0.177376	24.02
0.185168	24.5
0.206202	24.97
0.224512	25.37
0.235242	26.66
0.256499	26.93
0.273329	27.47
0.299632	28.68
0.307424	29.29
0.329938	29.97
0.357498	30.98
0.38907	32.47
0.406954	32.54
0.424422	33.68
0.457879	36.25
0.460817	37.8
0.485226	40.84
0.504801	38.95
0.505845	45.09
0.523941	49
0.524154	39.69
0.539312	41.38
0.539515	53.59
0.553193	43.4
0.55445	59.93
0.568979	44.22
0.569385	64.31
0.583499	46.37
0.584107	68.23
0.598859	48.26
0.600106	73.15
0.615041	76.59
0.615264	50.22
0.628314	51.71
0.63103	79.43
0.643462	53.53
0.646806	82.19
0.65714	55.69
0.660697	84.89
0.672288	58.93
0.676898	88.4
0.687862	61.56
0.689523	90.42
0.699645	64.73
0.705725	93.39
0.720457	95.15
0.72068	68.51
0.732677	71.74
0.734551	97.17
0.750125	99.26
0.751817	75.66
0.762537	100.75
0.762972	79.03
0.775577	101.56
0.779589	83.21
0.791373	85.98
0.791991	101.96
0.806308	102.5
0.810939	90.57
0.831132	103.18
0.832612	95.09
0.850921	97.52
0.856382	103.65
0.868804	100.89
0.881216	103.93
0.892159	102.38
0.908989	104.87
0.915301	103.93
0.959498	105.28
0.966024	106.16
0.979905	105.89
0.988538	106.7
1.00789	107.04
