Adsorption isotherm of Nitrogen on Ni/Al-0.1La
DOI: 10.1016/j.mcat.2017.03.009
Article source: Figure 1
Adsorbate Nitrogen: InChIKey IJGRMHOSHXDMSA-UHFFFAOYSA-N
Kind: experiment
Temperature: 77 K
Tabular data in the source: 0
pressure (bar)	uptake (cm3(STP)/g)
0.003141	21.58
0.025442	25.63
0.056589	28.8
0.07047	29.88
0.089407	31.03
0.115508	32.85
0.127708	33.8
0.147273	35.22
0.166849	36.23
0.177579	36.77
0.185999	37.44
0.208513	39
0.229557	40.48
0.24049	41.29
0.259853	42.17
0.272478	42.64
0.299835	44.74
0.306776	45.21
0.330343	47.03
0.360224	49.39
0.391583	50.54
0.409254	51.69
0.424402	53.72
0.455335	57.49
0.483949	61.81
0.500576	63.03
0.501417	61.27
0.510465	65.59
0.524357	63.1
0.524772	68.49
0.538663	65.66
0.550022	72
0.556334	67.42
0.568533	75.04
0.5698	70.05
0.584735	72.27
0.586002	79.02
0.595881	82.8
0.60199	75.58
0.614605	89
0.617351	77.47
0.63103	80.98
0.631232	97.5
0.637119	102.49
0.646806	84.22
0.647839	108.97
0.651	113.96
0.658802	87.45
0.661507	122.73
0.669715	126.91
0.673322	90.96
0.679178	142.63
0.687831	94.74
0.690739	151.46
0.702979	99.6
0.706313	158.68
0.71834	104.93
0.719353	161.92
0.732819	163.47
0.732859	109.65
0.745869	165.76
0.75053	117.14
0.761858	166.1
0.764837	121.86
0.775324	166.51
0.781666	129.01
0.791525	166.98
0.797442	136.56
0.805629	167.05
0.80796	142.9
0.828782	151.61
0.83172	167.59
0.850242	160.65
0.857395	168.67
0.874438	165.17
0.883273	168.61
0.893801	167.39
0.908948	169.08
0.916315	168.68
0.960289	170.1
0.967868	170.3
0.980705	170.77
0.988487	171.18
1.00742	171.99
