Adsorption isotherm of Nitrogen on Ni/Al-0.15La
DOI: 10.1016/j.mcat.2017.03.009
Article source: Figure 1
Adsorbate Nitrogen: InChIKey IJGRMHOSHXDMSA-UHFFFAOYSA-N
Kind: experiment
Temperature: 77 K
Tabular data in the source: 0
pressure (bar)	uptake (cm3(STP)/g)
0.002928	20.71
0.013871	23.07
0.024388	24.82
0.052374	27.79
0.060581	28.53
0.074685	29.82
0.083095	29.75
0.110878	31.23
0.118244	31.84
0.13634	32.92
0.147911	33.94
0.165167	34.48
0.177579	35.49
0.207459	36.77
0.226822	38.12
0.239659	38.93
0.25733	39.95
0.267847	40.22
0.281111	40.82
0.301304	42.11
0.309511	42.24
0.331397	43.59
0.357913	45.48
0.393265	48.32
0.405049	48.99
0.427776	50.55
0.457017	54.32
0.486898	58.71
0.506048	58.31
0.511093	62.96
0.522249	60.74
0.536556	69.1
0.541815	62.76
0.555493	64.18
0.556121	74.77
0.568949	77.8
0.57212	68.36
0.585373	69.44
0.585779	85.7
0.599893	73.15
0.603034	92.17
0.615031	95
0.616723	76.05
0.618597	99.66
0.627666	79.22
0.632478	108.56
0.643654	81.32
0.64405	115.51
0.659197	126.44
0.667394	130.62
0.668691	87.59
0.677283	139.52
0.693485	147.01
0.699615	95.48
0.706525	150.05
0.719363	152.75
0.721714	102.84
0.731805	107.63
0.732616	153.15
0.745869	153.69
0.749263	114.51
0.760601	154.16
0.765465	119.97
0.774493	154.91
0.778931	126.24
0.789641	155.38
0.794078	133.73
0.808365	156.26
0.808588	139.26
0.829835	156.6
0.830889	146.89
0.851093	152.28
0.85698	156.94
0.871925	155.79
0.883283	157.01
0.895695	156.8
0.908118	158.15
0.918635	158.02
0.960299	159.51
0.970826	159.44
0.981131	160.05
0.989125	160.32
1.00933	161.13
