Adsorption isotherm of Nitrogen on Ni/Al-0La
DOI: 10.1016/j.mcat.2017.03.009
Article source: Figure 1
Adsorbate Nitrogen: InChIKey IJGRMHOSHXDMSA-UHFFFAOYSA-N
Kind: experiment
Temperature: 77 K
Tabular data in the source: 0
pressure (bar)	uptake (cm3(STP)/g)
0.000831	21.92
0.029222	36.56
0.047743	39.59
0.060996	41.62
0.070257	42.5
0.087513	43.85
0.107919	45.4
0.117595	47.02
0.13022	47.49
0.14706	49.45
0.163262	50.53
0.177984	52.22
0.184722	52.15
0.207023	54.11
0.224491	55.59
0.238383	56.54
0.254371	57.62
0.270998	59.44
0.303189	62.07
0.329908	64.7
0.352847	66.12
0.363365	67.67
0.394724	70.37
0.403134	71.25
0.427755	74.49
0.454059	77.12
0.456582	78.54
0.48709	82.52
0.503292	82.92
0.506027	85.35
0.520334	86.5
0.522857	88.73
0.534641	88.32
0.53843	91.29
0.551896	91.09
0.555686	94.33
0.564521	93.72
0.570621	97.97
0.581776	96.49
0.58514	102.15
0.597978	98.98
0.600714	105.86
0.613754	102.15
0.613967	109.91
0.626592	105.12
0.630371	114.97
0.644688	109.1
0.647839	120.57
0.651628	112.14
0.66172	123.4
0.666979	127.18
0.672876	116.32
0.677709	136.22
0.686139	120.44
0.690537	142.9
0.70379	148.97
0.704438	125.77
0.719991	159.69
0.721268	131.84
0.732819	164.75
0.735149	137.1
0.737864	173.05
0.750094	142.83
0.750479	180.87
0.750895	191.39
0.755941	197.26
0.762081	148.5
0.762253	207.65
0.768981	217.7
0.774027	223.3
0.778434	234.16
0.783896	244.95
0.796368	165.23
0.79652	254.8
0.803674	257.23
0.806673	172.51
0.823715	182.43
0.828285	258.71
0.842855	197.67
0.849158	203.81
0.853748	259.66
0.860516	213.39
0.869139	218.99
0.88071	228.97
0.882371	260.13
0.88996	234.57
0.903629	244.69
0.904257	261.35
0.909313	248.13
0.952021	260.54
0.959387	261.89
0.967594	262.23
0.97727	263.58
0.987372	263.64
1.0082	265.06
