Adsorption isotherm of Nitrogen on Zeolite Na-P1
DOI: 10.1016/j.psep.2017.03.036
Article source: Figure 3
Adsorbate Nitrogen: InChIKey IJGRMHOSHXDMSA-UHFFFAOYSA-N
Kind: experiment
Temperature: 77 K
Tabular data in the source: 0
pressure (bar)	uptake (cm3(STP)/g)
0.001773	6.074
0.001783	2.027
0.002634	7.826
0.002645	4.075
0.003354	9.158
0.003486	10.392
0.00997	13.555
0.013608	14.022
0.017063	14.364
0.022524	14.861
0.027256	15.172
0.031805	15.483
0.036172	15.763
0.041451	16.105
0.05747	16.665
0.070754	17.194
0.09496	18.097
0.117707	19.03
0.141183	19.684
0.145733	19.777
0.162289	20.493
0.204146	21.427
0.21289	21.831
0.234178	22.267
0.242912	22.578
0.264939	23.232
0.275487	23.636
0.294049	23.885
0.325905	24.912
0.334275	25.13
0.349747	25.659
0.375037	26.313
0.38596	26.593
0.401067	26.935
0.407075	27.122
0.427451	27.371
0.437644	28.336
0.446926	29.02
0.451475	27.994
0.454748	29.549
0.461486	30.233
0.467302	30.855
0.471486	31.321
0.476228	28.865
0.477495	32.161
0.479126	32.503
0.482409	33.436
0.487131	35.394
0.492399	37.913
0.497314	40.089
0.503707	29.426
0.527366	30.359
0.527518	42.266
0.548117	30.95
0.558452	43.013
0.579233	31.853
0.589761	43.605
0.602892	32.662
0.6096	44.103
0.627828	33.316
0.640169	44.85
0.648396	34.093
0.659643	45.286
0.679148	35.525
0.679665	45.939
0.702442	36.489
0.713881	46.966
0.719363	37.329
0.73902	38.262
0.739901	47.775
0.758676	39.289
0.761017	48.553
0.769953	40.066
0.791221	49.953
0.801617	41.715
0.810351	42.461
0.810878	51.011
0.820726	43.363
0.831467	44.11
0.831801	52.379
0.841102	44.856
0.850566	45.696
0.852005	53.717
0.860942	46.66
0.862188	54.619
0.870942	47.748
0.880953	48.588
0.881297	56.858
0.891663	58.071
0.891875	49.956
0.900599	51.293
0.901309	59.594
0.908614	52.444
0.912069	53.097
0.915889	53.719
0.917682	62.579
0.926437	55.522
0.927865	64.88
0.936802	57.543
0.93896	67.896
0.945323	69.855
0.946448	59.782
0.952629	61.959
0.954412	73.337
0.958414	75.234
0.964443	66.871
0.974778	82.789
0.977352	72.872
0.980249	75.452
0.984799	77.97
0.986612	79.836
0.989855	90.344
0.990068	82.385
0.992064	84.53
0.992783	85.308
0.995509	87.422
1.00476	98.334
