Adsorption isotherm of O-Xylene, Benzene, P-Xylene, Water, Toluene on Zeolite Na-P1
DOI: 10.1016/j.psep.2017.03.036
Article source: Figure 7
Adsorbate O-Xylene: InChIKey CTQNGGLPUBDAKN-UHFFFAOYSA-N
Adsorbate Benzene: InChIKey UHOVQNZJYSORNB-UHFFFAOYSA-N
Adsorbate P-Xylene: InChIKey URLKBWYHVLBVBO-UHFFFAOYSA-N
Adsorbate Water: InChIKey XLYOFNOQVPJJNP-UHFFFAOYSA-N
Adsorbate Toluene: InChIKey YXFVVABEGXRONW-UHFFFAOYSA-N
Kind: experiment
Temperature: 293 K
Tabular data in the source: 0
pressure (bar)	O-Xylene fraction	O-Xylene uptake (mg/g)	Benzene fraction	Benzene uptake (mg/g)	P-Xylene fraction	P-Xylene uptake (mg/g)	Water fraction	Water uptake (mg/g)	Toluene fraction	Toluene uptake (mg/g)	total uptake (mg/g)
1.01325	0.1286	0.026992	0.9141	0.009668	0.1134	0.022994			0.612	0.016776	
1.01325	0.3553	0.050098	1.5184	0.022557	0.3402	0.043433			1.2163	0.033663	
1.01325	2.516	0.098094	5.0537	0.035015	2.1231	0.08654			4.9631	0.044345	
1.01325	7.3204	0.130998	11.4895	0.035937	6.4742	0.115443			11.6407	0.045713	
1.01325	13.4239	0.139471	19.2246	0.035088	11.8526	0.122579			18.2276	0.049301	
