Adsorption isotherm of Methane on Activated Carbon
DOI: 10.1016/j.carbon.2013.07.061
Adsorbate Methane: InChIKey VNWKTOKETHGBQD-UHFFFAOYSA-N
Temperature: 298 K
Tabular data in the source: 0
pressure (bar)	uptake (mmol/g)
0.511878	0.321285
1.0292	1.15663
4.10115	3.14859
8.53448	5.65462
12.4484	7.13253
17.5482	8.54618
21.9665	9.63855
25.1916	10.0884
30.1144	10.7952
40.1239	11.6948
50.2981	12.1446
