Adsorption isotherm of Methane on Activated Carbon Coronene-COOH
DOI: 10.1016/j.carbon.2013.07.061
Adsorbate Methane: InChIKey VNWKTOKETHGBQD-UHFFFAOYSA-N
Temperature: 298 K
Tabular data in the source: 0
pressure (bar)	uptake (mmol/g)
0.560897	0.220264
1.44231	0.528634
4.16667	1.71806
8.73397	3.34802
12.5801	4.53744
17.5481	5.85903
21.9551	6.69604
