Adsorption isotherm of Methane on Maxsorb MSC-30
DOI: 10.1016/j.carbon.2013.07.061
Adsorbate Methane: InChIKey VNWKTOKETHGBQD-UHFFFAOYSA-N
Temperature: 273 K
Tabular data in the source: 0
pressure (bar)	uptake (mmol/g)
0.39604	0.519007
1.18812	2.00147
3.56436	4.74514
7.52475	7.56485
11.8812	9.348
17.2277	10.762
21.9802	11.9531
