Adsorption isotherm of Hydrogen on Activated Carbon
DOI: 10.1016/j.carbon.2013.07.061
Adsorbate Hydrogen: InChIKey UFHFLCQGNIYNRP-UHFFFAOYSA-N
Temperature: 298 K
Tabular data in the source: 0
pressure (bar)	uptake (mmol/g)
0.0333333	0.048583
0.106667	0.0850202
0.213333	0.182186
0.506667	0.425101
0.826667	0.716599
1.02	0.874494
1.34	1.02024
1.67333	1.28745
