Adsorption isotherm of Carbon Dioxide on Activated Carbon Coronene Platelet
DOI: 10.1016/j.carbon.2013.07.061
Adsorbate Carbon Dioxide: InChIKey CURLTUGMZLYLDI-UHFFFAOYSA-N
Temperature: 298 K
Tabular data in the source: 0
pressure (bar)	uptake (mmol/g)
0.560224	1.25475
1.54062	3.42205
3.57143	6.84411
7.35294	11.1787
11.5546	14.8289
16.8067	18.1369
21.4986	20.6464
