Adsorption isotherm of Carbon Dioxide on Activated Carbon Coronene-(OH)2
DOI: 10.1016/j.carbon.2013.07.061
Adsorbate Carbon Dioxide: InChIKey CURLTUGMZLYLDI-UHFFFAOYSA-N
Temperature: 298 K
Tabular data in the source: 0
pressure (bar)	uptake (mmol/g)
0.376515	0.90712
1.50412	2.85261
3.60932	6.6135
7.44028	12.0643
11.6416	15.9654
16.888	18.708
21.5317	19.8959
