Adsorption isotherm of Nitrogen on Activated Carbon
DOI: 10.1016/j.carbon.2013.07.061
Adsorbate Nitrogen: InChIKey IJGRMHOSHXDMSA-UHFFFAOYSA-N
Temperature: 373 K
Tabular data in the source: 0
pressure (bar)	uptake (mmol/g)
0.0124958	0.00364752
0.068202	0.00730816
0.105165	0.00549752
0.1485	0.00854712
0.297075	0.0189161
0.495083	0.0305147
0.755045	0.0475977
1.00254	0.0616404
1.20034	0.0683807
1.51029	0.100054
