Adsorption isotherm of Carbon Dioxide on Maxsorb MSC-30
DOI: 10.1016/j.carbon.2013.07.061
Adsorbate Carbon Dioxide: InChIKey CURLTUGMZLYLDI-UHFFFAOYSA-N
Temperature: 273 K
Tabular data in the source: 0
pressure (bar)	uptake (mmol/g)
0.83776	3.6758
2.70804	9.42922
6.21657	16.1416
10.738	21.5753
16.0759	27.0091
20.7921	30.8447
