Adsorption isotherm of Carbon Dioxide on Maxsorb MSC-30
DOI: 10.1016/j.carbon.2013.07.061
Adsorbate Carbon Dioxide: InChIKey CURLTUGMZLYLDI-UHFFFAOYSA-N
Temperature: 298 K
Tabular data in the source: 0
pressure (bar)	uptake (mmol/g)
1.24592	3.6758
3.71354	6.87215
7.61532	11.0274
11.5152	14.863
17.0431	17.8995
21.751	20.2968
22.7742	20.7763
27.6824	22.5342
38.3114	25.411
46.6825	26.0502
