Adsorption isotherm of Methane on Activated Carbon Corannulene
DOI: 10.1016/j.carbon.2013.07.061
Adsorbate Methane: InChIKey VNWKTOKETHGBQD-UHFFFAOYSA-N
Temperature: 298 K
Tabular data in the source: 0
pressure (bar)	uptake (mmol/g)
0.548829	0.250127
1.33236	0.541703
3.99609	1.49959
8.61652	2.91445
12.5299	3.8284
17.6165	4.90775
21.9986	5.82092
