Adsorption isotherm of Carbon Dioxide on Activated Carbon Hexabenzocoronene
DOI: 10.1016/j.carbon.2013.07.061
Adsorbate Carbon Dioxide: InChIKey CURLTUGMZLYLDI-UHFFFAOYSA-N
Temperature: 298 K
Tabular data in the source: 0
pressure (bar)	uptake (mmol/g)
0.540974	0.967742
1.54591	2.66129
3.5564	5.80645
7.42649	10.4032
11.5308	14.5161
16.8015	17.9032
21.3775	19.7177
