Adsorption isotherm of Methane on Activated Carbon Coronene Platelet
DOI: 10.1016/j.carbon.2013.07.061
Adsorbate Methane: InChIKey VNWKTOKETHGBQD-UHFFFAOYSA-N
Temperature: 298 K
Tabular data in the source: 0
pressure (bar)	uptake (mmol/g)
0.696379	0.300836
1.39276	0.601671
4.10864	1.69191
8.70474	3.30762
12.6045	4.47154
17.5487	5.59615
22.0752	6.57045
