Adsorption isotherm of Methane on Activated Carbon
DOI: 10.1016/j.carbon.2013.07.061
Adsorbate Methane: InChIKey VNWKTOKETHGBQD-UHFFFAOYSA-N
Temperature: 273 K
Tabular data in the source: 0
pressure (bar)	uptake (mmol/g)
0.510218	0.325203
0.676579	0.780488
1.17984	1.7561
3.89033	4.4878
7.79458	7.6748
12.2237	9.82114
17.1713	11.5122
21.6143	12.3577
25.0327	12.9431
29.8224	13.3984
39.9174	14.1138
49.8476	14.2439
