Adsorption isotherm of Carbon Dioxide on Activated Carbon
DOI: 10.1016/j.carbon.2013.07.061
Adsorbate Carbon Dioxide: InChIKey CURLTUGMZLYLDI-UHFFFAOYSA-N
Temperature: 323 K
Tabular data in the source: 0
pressure (bar)	uptake (mmol/g)
1.02041	0.847724
3.40136	3.02817
6.80272	5.93489
14.966	11.5021
24.8299	14.7575
30.102	15.4734
40.1361	16.5422
50.1701	16.7607
