Adsorption isotherm of Carbon Dioxide on Activated Carbon
DOI: 10.1016/j.carbon.2013.07.061
Adsorbate Carbon Dioxide: InChIKey CURLTUGMZLYLDI-UHFFFAOYSA-N
Temperature: 273 K
Tabular data in the source: 0
pressure (bar)	uptake (mmol/g)
0.54366	1.44033
1.00791	3.45679
2.78871	10.6584
6.28729	18.2922
10.4993	21.3169
15.6523	22.7572
20.3389	23.1893
