Adsorption isotherm of Carbon Dioxide on Activated Carbon Circumcircumcoronene
DOI: 10.1016/j.carbon.2013.07.061
Adsorbate Carbon Dioxide: InChIKey CURLTUGMZLYLDI-UHFFFAOYSA-N
Temperature: 298 K
Tabular data in the source: 0
pressure (bar)	uptake (mmol/g)
0.540974	0.967742
1.54559	2.78226
3.71137	5.92742
7.42649	10.4032
11.6854	14.7581
16.8769	18.75
21.3735	21.2903
