Adsorption isotherm of Hydrogen on Maxsorb MSC-30
DOI: 10.1016/j.carbon.2013.07.061
Adsorbate Hydrogen: InChIKey UFHFLCQGNIYNRP-UHFFFAOYSA-N
Temperature: 298 K
Tabular data in the source: 0
pressure (bar)	uptake (mmol/g)
1.10769	0.0441176
2.95385	0.132353
6.46154	0.275735
14.9538	0.606618
25.1077	0.948529
29.9077	1.10294
40.2462	1.45588
50.2154	1.69853
