Adsorption isotherm of Methane on Activated Carbon Coronene Platelet
DOI: 10.1016/j.carbon.2013.07.061
Adsorbate Methane: InChIKey VNWKTOKETHGBQD-UHFFFAOYSA-N
Temperature: 298 K
Tabular data in the source: 0
pressure (bar)	uptake (mmol/g)
0.417827	0.301256
0.626741	0.716035
1.4624	1.54496
4.10864	3.5787
8.70474	5.83592
12.6741	7.22615
17.6184	8.61492
22.0752	9.47611
