Adsorption isotherm of Carbon Dioxide on Activated Carbon Corannulene
DOI: 10.1016/j.carbon.2013.07.061
Adsorbate Carbon Dioxide: InChIKey CURLTUGMZLYLDI-UHFFFAOYSA-N
Temperature: 298 K
Tabular data in the source: 0
pressure (bar)	uptake (mmol/g)
0.470069	0.506329
1.56646	1.51899
3.68012	3.16456
7.36023	6.32911
11.6667	10
16.9093	13.1646
21.4458	15.1899
