Adsorption isotherm of Nitrogen on Maxsorb MSC-30
DOI: 10.1016/j.carbon.2013.07.061
Adsorbate Nitrogen: InChIKey IJGRMHOSHXDMSA-UHFFFAOYSA-N
Temperature: 77 K
Tabular data in the source: 0
pressure (bar)	uptake (mmol/g)
6.74e-06	1.47963
1.57e-05	2.35317
2.57e-05	2.60275
3.41e-05	3.2267
4.68e-05	3.35149
6.89e-05	4.4746
0.000102	5.47292
0.000185	8.21831
0.000387	11.8372
0.00084	17.9519
0.00152805	22.4444
0.00225099	25.3146
0.00439504	28.1847
0.00647437	29.4326
0.00888883	30.1814
0.0113737	30.6805
0.0179774	31.0549
0.0222071	31.5541
0.0315815	32.3028
0.0499179	32.802
0.0761703	32.9268
0.104576	33.6755
0.159574	33.9251
0.226936	34.4243
0.44309	34.7986
