Adsorption isotherm of Methane on Activated Carbon Coronene-(OH)2
DOI: 10.1016/j.carbon.2013.07.061
Adsorbate Methane: InChIKey VNWKTOKETHGBQD-UHFFFAOYSA-N
Temperature: 298 K
Tabular data in the source: 0
pressure (bar)	uptake (mmol/g)
0.44892	0.27907
1.34468	0.604651
4.03364	1.76744
8.60133	3.34884
12.5399	4.46512
17.6404	5.72093
22.1125	6.60465
