Adsorption isotherm of Methane on Activated Carbon Coronene-(OH)3
DOI: 10.1016/j.carbon.2013.07.061
Adsorbate Methane: InChIKey VNWKTOKETHGBQD-UHFFFAOYSA-N
Temperature: 298 K
Tabular data in the source: 0
pressure (bar)	uptake (mmol/g)
0.538206	0.27907
1.3451	0.651163
4.12334	1.81395
8.69186	3.48837
12.6308	4.65116
17.5523	5.86047
21.9352	6.74419
