Adsorption isotherm of Methane on Activated Carbon Circumcircumcoronene
DOI: 10.1016/j.carbon.2013.07.061
Adsorbate Methane: InChIKey VNWKTOKETHGBQD-UHFFFAOYSA-N
Temperature: 298 K
Tabular data in the source: 0
pressure (bar)	uptake (mmol/g)
0.542981	0.37037
1.31808	0.823045
4.02917	2.18107
8.59562	3.99177
12.6175	5.22634
17.5662	6.58436
21.9717	7.53086
