Adsorption isotherm of Carbon Dioxide on Activated Carbon Coronene Platelet
DOI: 10.1016/j.carbon.2013.07.061
Adsorbate Carbon Dioxide: InChIKey CURLTUGMZLYLDI-UHFFFAOYSA-N
Temperature: 298 K
Tabular data in the source: 0
pressure (bar)	uptake (mmol/g)
0.420168	0.798479
1.47059	2.62357
3.64146	5.81749
7.42297	10.2662
11.6246	14.1445
16.8768	16.7681
21.4286	17.7947
