Adsorption isotherm of Hydrogen on Maxsorb MSC-30
DOI: 10.1016/j.carbon.2013.07.061
Adsorbate Hydrogen: InChIKey UFHFLCQGNIYNRP-UHFFFAOYSA-N
Temperature: 298 K
Tabular data in the source: 0
pressure (bar)	uptake (mmol/g)
0.738462	0.0551471
3.13846	0.0992647
6.46154	0.209559
14.9538	0.441176
24.9231	0.727941
29.9077	0.871324
40.0615	1.03676
49.8462	1.30147
