Adsorption isotherm of Nitrogen on Maxsorb MSC-30
DOI: 10.1016/j.carbon.2013.07.061
Adsorbate Nitrogen: InChIKey IJGRMHOSHXDMSA-UHFFFAOYSA-N
Temperature: 77 K
Tabular data in the source: 0
pressure (bar)	uptake (mmol/g)
6.98e-06	2.22838
1.57e-05	3.72586
2.66e-05	4.97376
3.66e-05	5.84729
4.68e-05	6.47124
7.14e-05	7.09519
8.51e-05	8.09352
0.000105	8.46789
0.0179774	23.0683
0.0351007	24.9402
0.0517071	26.5625
0.0685336	28.1847
0.104576	30.6805
0.133811	33.1763
0.171218	35.4226
0.204184	37.7936
0.226936	39.4159
0.270629	40.539
0.311566	42.6604
0.398666	45.1562
0.510115	46.0297
0.725453	47.0281
0.928257	48.1512
1.06867	50.7718
