Adsorption isotherm of Methane on Activated Carbon Hexabenzocoronene
DOI: 10.1016/j.carbon.2013.07.061
Adsorbate Methane: InChIKey VNWKTOKETHGBQD-UHFFFAOYSA-N
Temperature: 298 K
Tabular data in the source: 0
pressure (bar)	uptake (mmol/g)
0.542664	0.329218
1.31713	0.699588
4.02663	1.85185
8.6696	3.58025
12.6143	4.81481
17.5631	6.17284
22.0447	6.99588
