Adsorption isotherm of Carbon Dioxide on Activated Carbon Coronene
DOI: 10.1016/j.carbon.2013.07.061
Adsorbate Carbon Dioxide: InChIKey CURLTUGMZLYLDI-UHFFFAOYSA-N
Temperature: 298 K
Tabular data in the source: 0
pressure (bar)	uptake (mmol/g)
0.479233	0.853659
1.51757	2.43902
3.59425	5.85366
7.34824	10.3659
11.6613	14.1463
16.9329	16.7073
21.4856	17.8049
