Adsorption isotherm of Carbon Dioxide on Activated Carbon Corannulene
DOI: 10.1016/j.carbon.2013.07.061
Adsorbate Carbon Dioxide: InChIKey CURLTUGMZLYLDI-UHFFFAOYSA-N
Temperature: 298 K
Tabular data in the source: 0
pressure (bar)	uptake (mmol/g)
0.392603	0.759494
1.48932	1.89873
3.60661	4.93671
7.29002	9.36709
11.5981	13.6709
16.9185	16.7089
21.4531	17.9747
