Adsorption isotherm of Methane on Activated Carbon Corannulene
DOI: 10.1016/j.carbon.2013.07.061
Adsorbate Methane: InChIKey VNWKTOKETHGBQD-UHFFFAOYSA-N
Temperature: 298 K
Tabular data in the source: 0
pressure (bar)	uptake (mmol/g)
0.549156	0.291968
1.25554	0.709196
3.99936	1.91799
8.62273	3.70942
12.6175	5.04164
17.6276	6.33033
22.0104	7.32718
