Adsorption isotherm of Methane on Activated Carbon
DOI: 10.1016/j.carbon.2013.07.061
Adsorbate Methane: InChIKey VNWKTOKETHGBQD-UHFFFAOYSA-N
Temperature: 323 K
Tabular data in the source: 0
pressure (bar)	uptake (mmol/g)
1.03448	0.395062
3.10345	1.64609
6.89655	3.09465
15.3448	5.7284
25.1724	7.76955
30.1724	8.42798
40.1724	9.34979
50.1724	10.0741
