Adsorption isotherm of Carbon Dioxide on Activated Carbon Coronene-(OH)2
DOI: 10.1016/j.carbon.2013.07.061
Adsorbate Carbon Dioxide: InChIKey CURLTUGMZLYLDI-UHFFFAOYSA-N
Temperature: 298 K
Tabular data in the source: 0
pressure (bar)	uptake (mmol/g)
0.520833	0.958904
1.47569	3.15068
3.64583	6.84932
7.37847	12.3288
11.6319	16.1644
16.8403	18.7671
21.2674	19.863
