Adsorption isotherm of Methane on Maxsorb MSC-30
DOI: 10.1016/j.carbon.2013.07.061
Adsorbate Methane: InChIKey VNWKTOKETHGBQD-UHFFFAOYSA-N
Temperature: 298 K
Tabular data in the source: 0
pressure (bar)	uptake (mmol/g)
2.17822	2.44713
4.35644	3.04242
8.51485	5.56607
12.8713	6.97885
18.2178	8.54101
22.9703	9.65799
27.3267	10.256
38.0198	11.6025
48.1188	12.652
