Adsorption isotherm of Carbon Dioxide on Activated Carbon Coronene-(OH)3
DOI: 10.1016/j.carbon.2013.07.061
Adsorbate Carbon Dioxide: InChIKey CURLTUGMZLYLDI-UHFFFAOYSA-N
Temperature: 298 K
Tabular data in the source: 0
pressure (bar)	uptake (mmol/g)
0.520833	0.958904
1.5625	3.28767
3.64583	7.80822
7.46528	13.5616
11.6319	17.5342
16.8403	20
21.3542	20.9589
