Adsorption isotherm of Carbon Dioxide on Activated Carbon Coronene-COOH
DOI: 10.1016/j.carbon.2013.07.061
Adsorbate Carbon Dioxide: InChIKey CURLTUGMZLYLDI-UHFFFAOYSA-N
Temperature: 298 K
Tabular data in the source: 0
pressure (bar)	uptake (mmol/g)
0.480769	0.30837
1.52244	0.92511
3.60577	2.15859
7.45192	3.78855
11.6186	5.11013
16.8269	6.0793
21.3942	6.47577
