Adsorption isotherm of Hydrogen on Maxsorb MSC-30
DOI: 10.1016/j.carbon.2013.07.061
Adsorbate Hydrogen: InChIKey UFHFLCQGNIYNRP-UHFFFAOYSA-N
Temperature: 298 K
Tabular data in the source: 0
pressure (bar)	uptake (mmol/g)
1.10769	0.0441176
3.32308	0.165441
6.46154	0.330882
15.1385	0.705882
25.1077	1.13603
30.0923	1.32353
40.0615	1.6875
50.2154	2.02941
