Adsorption isotherm of Carbon Dioxide on Zn-MOF-74
DOI: 10.1021/acs.jpcc.7b08239
Article source: Figure 4
Adsorbate Carbon Dioxide: InChIKey CURLTUGMZLYLDI-UHFFFAOYSA-N
Kind: experiment
Temperature: 298 K
Tabular data in the source: 0
pressure (bar)	uptake (mmol/g)
1e-06	0.0697
3e-06	0.0697
1e-05	0.0567
3.2e-05	0.0872
0.0001	0.1003
0.000322	0.0959
0.000485	0.1003
0.000701	0.1133
0.00101	0.1133
0.002967	0.1133
0.004481	0.1133
0.01	0.17
0.031239	0.4446
0.100832	0.9983
0.316301	2.8858
