Adsorption isotherm of Carbon Dioxide on Mg-MOF-74
DOI: 10.1021/acs.jpcc.7b08239
Article source: Figure 4
Adsorbate Carbon Dioxide: InChIKey CURLTUGMZLYLDI-UHFFFAOYSA-N
Kind: experiment
Temperature: 298 K
Tabular data in the source: 0
pressure (bar)	uptake (mmol/g)
1e-06	0.0698
3e-06	0.0785
1e-05	0.1003
3.1e-05	0.1003
9.9e-05	0.1309
0.000197	0.1657
0.000783	0.2268
0.001038	0.2573
0.003162	0.6979
0.010127	2.1024
0.031514	4.4097
0.099152	5.8665
0.310742	7.0442
1.00647	8.1695
3.1886	10.4551
9.9954	13.0852
