Adsorption isotherm of Nitrogen on 3D-ETTA-TFPA
DOI: 10.1038/s41467-018-07720-x
Article source: Figure 5b
Adsorbate Nitrogen: InChIKey IJGRMHOSHXDMSA-UHFFFAOYSA-N
Kind: experiment
Temperature: 77 K
Tabular data in the source: 0
pressure (bar)	uptake (cm3(STP)/g)
0	0
0	12.1212
0	32.3232
0	42.4242
0	54.5455
0	77.7778
0	92.9293
0	101.01
0	112.121
0	151.515
0	161.616
0	173.737
0	185.859
0.001606	210.101
0.003212	219.192
0.006423	230.303
0.008029	239.394
0.022481	296.97
0.028904	305.051
0.051385	319.192
0.073866	329.293
0.099559	335.354
0.150944	345.455
0.200723	351.515
0.250502	357.576
0.301887	363.636
0.353273	365.657
0.404658	369.697
0.456043	373.737
0.507428	377.778
0.555601	381.818
0.606987	385.859
0.658372	387.879
0.708151	392.929
0.759536	396.97
0.810921	402.02
0.862306	410.101
0.91048	422.222
0.931355	430.303
0.942595	435.354
0.95223	441.414
0.963471	449.495
0.974711	457.576
0.984346	466.667
0.992375	476.768
0.028904	315.152
0.048174	327.273
0.073866	337.374
0.099559	341.414
0.150944	351.515
0.200723	358.586
0.253714	363.636
0.301887	368.687
0.353273	372.727
0.404658	375.758
0.456043	379.798
0.505822	384.848
0.557207	388.889
0.608592	392.929
0.658372	396.97
0.709757	400
0.761142	406.061
0.810921	415.152
0.8607	430.303
0.912086	448.485
0.934567	456.566
0.950624	462.626
0.966682	469.697
0.981134	476.768
0.995586	487.879
1.00362	496.97
