Adsorption isotherm of Nitrogen on 3D-ETTA-TFPB
DOI: 10.1038/s41467-018-07720-x
Article source: Figure 5a
Adsorbate Nitrogen: InChIKey IJGRMHOSHXDMSA-UHFFFAOYSA-N
Kind: experiment
Temperature: 77 K
Tabular data in the source: 0
pressure (bar)	uptake (cm3(STP)/g)
0	6.0241
0	14.0562
0	26.1044
0	36.1446
0	66.2651
0	80.3213
0	98.3936
0	130.522
0	142.57
0	154.618
0	162.651
0.003201	196.787
0.003201	208.835
0.006403	220.884
0.009604	229.92
0.025611	263.052
0.051223	297.189
0.075233	308.233
0.100845	316.265
0.152068	327.309
0.20169	335.341
0.252912	341.365
0.302534	346.386
0.353757	352.41
0.40498	356.426
0.456203	360.442
0.509026	365.462
0.558648	369.478
0.60827	372.49
0.661094	377.51
0.710716	381.526
0.761938	385.542
0.81156	389.558
0.861182	394.578
0.912405	400.602
0.934815	406.626
0.944419	411.647
0.954024	415.663
0.963628	421.687
0.973232	429.719
0.986038	442.771
0.994041	456.827
1.00365	482.932
0.049622	320.281
0.075233	332.329
0.099244	340.361
0.150467	350.402
0.20169	358.434
0.252912	363.454
0.302534	368.474
0.353757	372.49
0.406581	376.506
0.453001	379.518
0.505825	391.566
0.558648	395.582
0.60827	398.594
0.659493	401.606
0.710716	404.618
0.760338	407.631
0.813161	411.647
0.862783	416.667
0.912405	425.703
0.931614	431.727
0.938017	433.735
0.947621	439.759
0.960427	443.775
0.974833	450.803
0.984437	459.839
0.995642	471.888
1.00525	481.928
