Adsorption isotherm of Nitrogen on 2D-TTFB-TAPB
DOI: 10.1038/s41467-018-07720-x
Article source: Supplementary Figure 20a
Adsorbate Nitrogen: InChIKey IJGRMHOSHXDMSA-UHFFFAOYSA-N
Kind: experiment
Temperature: 77 K
Tabular data in the source: 0
pressure (bar)	uptake (cm3(STP)/g)
0	0
0	28.6299
0	53.1697
0	94.0695
0	118.609
0	163.599
0	208.589
0	253.579
0.007199	286.299
0.007199	302.658
0.010798	331.288
0.025196	351.738
0.050393	380.368
0.079188	400.818
0.102585	413.088
0.152977	431.493
0.20157	449.898
0.251963	462.168
0.302355	474.438
0.352748	486.708
0.40314	498.978
0.455333	509.202
0.507525	521.472
0.556118	529.652
0.60651	541.922
0.658702	548.057
0.709095	562.372
0.759488	572.597
0.80988	588.957
0.860273	607.362
0.912465	633.947
0.932262	652.352
0.94306	670.757
0.950259	687.117
0.959258	707.566
0.971856	736.196
0.980855	773.006
0.991653	822.086
1.00065	895.706
0.050393	441.718
0.075589	464.213
0.100785	480.573
0.151178	503.067
0.20337	517.382
0.251963	529.652
0.305955	539.877
0.354548	550.102
0.40494	558.282
0.453533	566.462
0.507525	586.912
0.557917	593.047
0.60831	601.227
0.658702	607.362
0.707295	615.542
0.759488	625.767
0.80988	635.992
0.858473	656.442
0.908865	697.341
0.932262	723.926
0.941261	738.241
0.952059	752.556
0.962857	775.051
0.971856	793.456
0.980855	824.131
0.991653	862.986
1.00065	895.706
