Adsorption isotherm of Nitrogen on 2D-TTFB-TAPA
DOI: 10.1038/s41467-018-07720-x
Article source: Supplementary Figure 20b
Adsorbate Nitrogen: InChIKey IJGRMHOSHXDMSA-UHFFFAOYSA-N
Kind: experiment
Temperature: 77 K
Tabular data in the source: 0
pressure (bar)	uptake (cm3(STP)/g)
0	14.2045
0	53.9773
0.003619	105.114
0.003619	144.886
0.003619	184.659
0.003619	258.523
0.007238	292.614
0.010856	321.023
0.027141	386.364
0.050662	508.523
0.075994	539.773
0.103134	556.818
0.153797	579.545
0.20265	593.75
0.253312	605.114
0.302166	619.318
0.354637	630.682
0.4053	639.205
0.455962	653.409
0.506625	661.932
0.557288	670.455
0.60795	678.977
0.658613	696.023
0.709275	710.227
0.759937	730.114
0.8106	752.841
0.861262	786.932
0.911925	849.432
0.930019	883.523
0.940875	906.25
0.951731	934.659
0.962587	968.75
0.969825	1008.52
0.982491	1059.66
0.991538	1127.84
1.00058	1267.05
0.050662	519.886
0.072375	548.295
0.094088	565.341
0.151987	582.386
0.199031	599.432
0.253312	610.795
0.303975	627.841
0.356447	639.205
0.4053	650.568
0.455962	661.932
0.506625	676.136
0.557288	687.5
0.60795	701.705
0.658613	713.068
0.707466	732.955
0.759937	755.682
0.8106	786.932
0.863072	838.068
0.911925	911.932
0.930019	951.705
0.940875	974.432
0.951731	1002.84
0.962587	1034.09
0.971634	1073.86
0.9843	1133.52
0.991538	1213.07
1.00239	1264.2
