Adsorption isotherm of Nitrogen on Zn-MOF-74
DOI: 10.1021/acs.accounts.5b00349
Article source: Figure 2
Adsorbate Nitrogen: InChIKey IJGRMHOSHXDMSA-UHFFFAOYSA-N
Kind: experiment
Temperature: 77 K
Tabular data in the source: 0
pressure (bar)	uptake (cm3(STP)/g)
0.00304	183.616
0.004357	191.906
0.007397	197.22
0.008207	206.502
0.009525	194.669
0.010234	210.233
0.011551	212.241
0.023305	215.997
0.026344	206.291
0.032221	207.992
0.045596	210.332
0.05198	219.685
0.060998	212.317
0.076602	222.805
0.077818	214.444
0.101933	216.006
0.102946	224.012
0.121083	217.637
0.127264	224.794
0.135472	219.127
0.144895	219.695
0.150569	225.647
0.159486	219.98
0.179751	227.209
0.181574	221.115
0.200624	221.195
0.226461	221.825
0.251894	222.093
0.252603	229.145
0.277124	223.256
0.303164	223.527
0.30357	228.883
0.327685	224.511
0.329002	229.719
0.336399	229.69
0.353827	225.05
0.385136	230.231
0.403172	225.858
0.436103	230.057
0.449376	225.506
0.478659	225.777
0.485752	230.42
0.50551	226.583
0.524458	230.067
0.542291	230.515
0.55516	226.856
0.565191	230.607
0.574817	226.68
0.586773	230.877
0.603492	226.593
0.606734	230.254
0.625783	230.434
0.627404	226.685
0.646757	226.777
0.668644	230.528
0.67219	226.779
0.691948	230.709
0.708667	227.229
0.726095	230.177
0.731263	227.321
0.747373	230.358
0.75325	227.234
0.784458	230.451
0.788005	227.952
0.811917	229.383
0.820023	227.598
0.839376	229.921
0.859033	227.334
0.872611	228.675
0.880818	230.967
0.893889	228.588
0.909696	231.111
0.917093	229.037
0.93067	228.949
0.939181	231.256
0.954178	229.487
0.972213	231.118
0.975456	229.132
0.989641	229.044
0.995518	231.9
