Adsorption isotherm of Nitrogen on Zn-MOF-74/24
DOI: 10.1021/acs.accounts.5b00349
Article source: Figure 2
Adsorbate Nitrogen: InChIKey IJGRMHOSHXDMSA-UHFFFAOYSA-N
Kind: experiment
Temperature: 77 K
Tabular data in the source: 0
pressure (bar)	uptake (cm3(STP)/g)
0.01528	62.721
0.01528	62.723
0.025524	65.839
0.033204	61.164
0.047288	63.359
0.052669	71.151
0.057532	65.484
0.071363	66.759
0.07956	73.902
0.079824	73.913
0.099025	70.866
0.103899	76.533
0.120283	72.069
0.124387	73.203
0.127973	79.223
0.139241	74.406
0.150245	75.681
0.151532	81.206
0.162546	77.097
0.17509	78.159
0.179447	83.401
0.184827	78.796
0.200188	80.85
0.203785	86.092
0.227079	83.187
0.228113	88.145
0.253971	85.665
0.254235	85.655
0.279586	87.369
0.280103	87.435
0.305708	93.88
0.305971	93.899
0.316468	94.871
0.329782	92.179
0.34029	97.137
0.355904	94.657
0.402189	98.792
0.405655	103.121
0.428828	102.165
0.454027	104.525
0.45424	104.689
0.481476	108.01
0.505054	111.382
0.511124	125.961
0.524438	129.714
0.530872	115.261
0.55365	144.163
0.554653	142.574
0.574908	159.038
0.580268	124.198
0.589519	168.104
0.607312	176.614
0.607616	178.398
0.627465	192.766
0.62784	191.37
0.644913	140.669
0.651358	208.115
0.658136	144.018
0.665553	213.871
0.667863	146.922
0.677094	150.109
0.681704	152.517
0.686568	154.288
0.689111	221.59
0.691695	156.342
0.697329	158.184
0.701939	160.238
0.709366	162.575
0.712193	229.71
0.713206	164.912
0.717057	166.612
0.722427	168.454
0.726784	170.72
0.732033	231.138
0.733958	173.624
0.737545	175.82
0.744718	178.653
0.748052	181.203
0.749298	231.628
0.754192	183.469
0.758549	186.232
0.764446	188.64
0.769827	191.686
0.770749	231.716
0.775967	194.094
0.781094	196.006
0.785451	198.981
0.789808	201.106
0.791723	231.716
0.795442	203.585
0.801592	206.135
0.805432	208.755
0.809789	210.526
0.811411	231.67
0.815676	212.722
0.81824	214.917
0.823874	216.971
0.831301	218.813
0.835658	220.584
0.837056	231.535
0.842831	222.779
0.850775	225.116
0.858709	226.533
0.863198	231.044
0.874648	229.125
0.8932	232.783
0.894011	232.426
0.910952	232.381
0.91918	232.514
0.944511	232.424
0.964351	233.048
0.981941	233.405
0.993715	233.36
