Adsorption isotherm of Nitrogen on mesoCuHCF
DOI: 10.1021/acs.accounts.5b00349
Article source: Figure 7
Adsorbate Nitrogen: InChIKey IJGRMHOSHXDMSA-UHFFFAOYSA-N
Kind: experiment
Temperature: 77 K
Tabular data in the source: 0
pressure (bar)	uptake (cm3(STP)/g)
0.000486	7.07
0.010659	17.32
0.02292	21.59
0.030367	24.07
0.048393	27.18
0.058809	30.04
0.076267	32.65
0.099339	34.74
0.120323	37.92
0.125045	37.92
0.140031	38.87
0.151805	40.84
0.162211	42.11
0.17663	42.61
0.181118	43.69
0.201758	43.4
0.226492	44.27
0.252421	46.11
0.277043	47.79
0.302141	49
0.326804	50.11
0.353249	52.52
0.401784	56.92
0.42821	58.32
0.454807	60.98
0.479318	62.63
0.487971	64.15
0.50703	66.44
0.528339	69.11
0.548685	71.78
0.555727	71.52
0.569274	76.2
0.580977	75.29
0.591525	79.74
0.60793	78.52
0.614668	85.19
0.628144	82.32
0.634953	92.51
0.650729	85.05
0.660507	101.48
0.665067	87.85
0.676841	90.96
0.680934	115.77
0.684146	95.23
0.686619	93.89
0.693823	97.84
0.701362	100.51
0.70507	141.91
0.707127	101.91
0.713693	105.35
0.717857	107.64
0.724909	109.67
0.729722	200.67
0.729773	200.77
0.73565	115.4
0.739976	117.7
0.745266	121.13
0.750393	123.3
0.75247	121.64
0.753189	231.84
0.756959	126.61
0.762248	127.62
0.771134	237.82
0.774903	126.75
0.776828	137.43
0.789008	144.69
0.791156	239.98
0.79606	151.69
0.802626	155.38
0.806314	160.1
0.811289	166.34
0.81214	240.87
0.815778	170.03
0.816102	173.09
0.820905	174.23
0.823793	178.18
0.830845	181.23
0.834533	186.46
0.835688	240.47
0.837096	190.53
0.841261	195.63
0.847675	202.89
0.852478	205.81
0.856004	210.4
0.861941	216.77
0.8626	241.61
0.868355	223.14
0.87252	224.54
0.885175	232.17
0.887262	236.64
0.889988	234.85
0.91001	241.85
0.911449	242.22
0.916424	241.46
0.942687	242.22
0.951665	241.58
0.980178	241.06
0.998274	243.34
1.005	243.47
