Adsorption isotherm of Nitrogen on Zn-MOF-74/240
DOI: 10.1021/acs.accounts.5b00349
Article source: Figure 2
Adsorbate Nitrogen: InChIKey IJGRMHOSHXDMSA-UHFFFAOYSA-N
Kind: experiment
Temperature: 77 K
Tabular data in the source: 0
pressure (bar)	uptake (cm3(STP)/g)
0.003192	37.489
0.005776	46.048
0.005796	46.052
0.011916	50.609
0.013233	52.114
0.027094	48.09
0.028726	49.671
0.036447	49.512
0.047744	51.645
0.052598	57.531
0.059032	53.065
0.073552	53.859
0.076794	56.409
0.079358	55.55
0.101305	58.301
0.10325	62.137
0.123556	59.893
0.125187	63.996
0.142909	60.683
0.149039	62.017
0.153578	66.475
0.162272	62.276
0.179062	68.064
0.182274	64.493
0.200978	66.176
0.202934	70.279
0.226137	67.676
0.228093	72.136
0.253566	70.245
0.254539	73.635
0.279039	73.991
0.279698	74.421
0.301422	73.838
0.302941	73.27
0.3288	74.952
0.33035	78.492
0.352864	76.565
0.354668	80.034
0.40151	79.648
0.406131	83.045
0.428909	81.542
0.453227	83.58
0.459124	86.833
0.479095	85.687
0.505206	87.653
0.50624	90.201
0.529798	92.452
0.531065	92.09
0.548999	94.493
0.556923	92.15
0.568717	95.683
0.581768	94.117
0.587918	98.503
0.605579	97.111
0.609814	100.755
0.626189	99.646
0.628894	103.504
0.64693	101.899
0.650537	106.57
0.656282	103.521
0.665888	105.32
0.670255	109.991
0.681593	106.646
0.688098	107.935
0.690155	114.847
0.69359	109.111
0.704158	110.959
0.708029	112.024
0.711524	119.95
0.71424	113.256
0.720856	114.68
0.725538	116.059
0.729895	116.77
0.732478	117.795
0.733958	126.537
0.735549	119.22
0.743614	120.152
0.748295	122.022
0.754425	123.446
0.755763	136.873
0.75782	124.916
0.764923	126.651
0.769665	143.957
0.770415	128.565
0.773961	130.035
0.777193	131.728
0.78462	133.82
0.788572	157.595
0.78995	136.092
0.792382	138.41
0.79916	140.591
0.804652	143.443
0.806598	145.806
0.813194	190.055
0.813538	149.013
0.821452	151.729
0.824036	154.85
0.830176	157.746
0.834381	161.312
0.836326	164.879
0.840268	166.063
0.841484	280.048
0.845973	170.106
0.850056	174.15
0.857392	181.565
0.862742	317.13
0.870432	191.673
0.878609	205.832
0.887941	318.912
0.890849	220.662
0.896068	319.356
0.910486	257.295
0.919636	319.565
0.933386	299.997
0.944025	320.224
0.974909	322.451
0.99034	321.092
