Adsorption isotherm of Nitrogen on Zn-MOF-74/1
DOI: 10.1021/acs.accounts.5b00349
Article source: Figure 2
Adsorbate Nitrogen: InChIKey IJGRMHOSHXDMSA-UHFFFAOYSA-N
Kind: experiment
Temperature: 77 K
Tabular data in the source: 0
pressure (bar)	uptake (cm3(STP)/g)
0.000426	82.313
0.002888	92.221
0.004306	89.97
0.006758	95.712
0.007387	107.815
0.00839	101.961
0.01146	111.531
0.023234	102.247
0.023467	102.398
0.031583	105.289
0.0497	120.043
0.060055	109.745
0.074312	122.809
0.079793	113.073
0.100352	115.002
0.100535	114.824
0.123728	117.196
0.126383	127.61
0.144469	119.397
0.151815	129.42
0.163387	120.36
0.176214	131.735
0.182709	122.28
0.201019	123.806
0.202863	133.601
0.227454	135.566
0.22788	135.636
0.253698	128.945
0.254326	129.079
0.276678	130.078
0.278522	139.479
0.304016	141.434
0.304188	141.461
0.329043	134.633
0.331475	143.346
0.354871	136.249
0.36021	145.499
0.401683	140.106
0.402017	149.265
0.42897	142.974
0.454524	145.462
0.456844	156.527
0.479642	147.952
0.50475	150.939
0.509138	168.033
0.530122	153.997
0.532716	157.041
0.541694	175.844
0.555757	157.48
0.563742	184.007
0.586307	196.709
0.606754	165.794
0.613817	225.653
0.625216	237.703
0.626239	170.765
0.644549	246.87
0.645633	175.255
0.656941	178.565
0.667276	181.294
0.670184	256.169
0.677611	184.603
0.683427	186.571
0.689881	188.539
0.692506	271.566
0.695373	190.551
0.699254	192.205
0.705222	193.905
0.710916	284.789
0.712011	196.364
0.717898	199.061
0.721961	201.032
0.729297	204.919
0.729418	207.67
0.734181	207.622
0.740483	210.27
0.744556	212.804
0.750261	215.902
0.755753	219
0.761245	222.097
0.764994	225.02
0.76855	227.88
0.7701	287.454
0.778409	232.53
0.785522	238.385
0.791338	241.202
0.794408	244.732
0.799738	248.04
0.805554	251.437
0.810407	254.968
0.812556	287.361
0.815251	257.829
0.819456	260.601
0.825434	263.998
0.830348	267.247
0.835992	270.121
0.840734	272.818
0.840967	287.548
0.845476	274.663
0.850735	277.147
0.860087	280.519
0.868244	287.914
0.869571	282.721
0.878417	284.745
0.890211	285.883
0.893423	287.609
0.910689	287.213
0.918136	287.771
0.953792	287.36
0.963104	288.211
0.983004	287.816
0.994495	287.937
