Adsorption isotherm of Nitrogen on Zn-MOF-74/0.25
DOI: 10.1021/acs.accounts.5b00349
Article source: Figure 2
Adsorbate Nitrogen: InChIKey IJGRMHOSHXDMSA-UHFFFAOYSA-N
Kind: experiment
Temperature: 77 K
Tabular data in the source: 0
pressure (bar)	uptake (cm3(STP)/g)
0.005066	140.374
0.006282	160.185
0.006282	160.167
0.006687	157.146
0.007093	166.038
0.007498	151.511
0.007903	152.419
0.01074	163.45
0.013578	170.992
0.020468	165.364
0.025331	176.058
0.031005	168.292
0.049751	171.784
0.050561	172.886
0.058667	173.36
0.0765	185.125
0.080148	176.289
0.101325	178.318
0.102136	179.285
0.117942	179.895
0.126048	189.239
0.128075	180.346
0.140335	181.473
0.151278	182.262
0.151684	190.986
0.160195	183.164
0.176407	183.841
0.177927	186.025
0.182588	184.855
0.203663	186.095
0.205892	194.42
0.228488	187.899
0.229096	187.946
0.251894	197.261
0.253211	189.365
0.278846	190.831
0.280366	198.186
0.302354	192.019
0.30286	192.017
0.314107	199.962
0.329205	193.653
0.340756	201.383
0.35403	195.074
0.396485	205.147
0.402362	197.915
0.430023	199.336
0.449984	209.691
0.454341	201.182
0.478659	202.816
0.503788	204.591
0.509563	242.915
0.527397	246.856
0.529322	206.721
0.54756	250.291
0.554653	208.922
0.568636	253.614
0.580491	211.548
0.590218	256.374
0.605923	214.545
0.610686	258.909
0.625175	216.915
0.629735	261.828
0.646048	219.687
0.653952	266.227
0.656586	221.207
0.666516	222.771
0.671987	270.696
0.67604	224.336
0.682829	225.453
0.689618	226.66
0.691442	276.123
0.695697	228.671
0.702182	230.19
0.710086	232.29
0.717685	290.212
0.722346	234.525
0.728121	236.357
0.732681	237.921
0.733593	301.974
0.735822	239.262
0.739875	240.602
0.747981	242.747
0.752338	244.579
0.754365	310.733
0.756695	246.232
0.759735	311.868
0.763079	247.931
0.768955	249.897
0.772603	252.041
0.777163	254.23
0.780709	256.241
0.788207	258.788
0.79378	261.379
0.794489	313.152
0.800164	264.669
0.803913	266.752
0.810803	269.286
0.815869	271.762
0.819517	274.813
0.819517	274.521
0.825191	277.448
0.830662	280.656
0.83735	283.64
0.84424	287.637
0.844747	313.158
0.850117	289.663
0.851941	292.478
0.860959	297.319
0.869166	312.803
0.870584	301.323
0.882034	305.21
0.893686	308.076
0.893788	308.026
0.913141	310.708
0.920842	312.808
0.935432	311.559
0.948503	312.99
0.983764	312.904
1.00646	313.532
