Adsorption isotherm of Nitrogen on mesoNiHCF
DOI: 10.1021/acs.accounts.5b00349
Article source: Figure 7
Adsorbate Nitrogen: InChIKey IJGRMHOSHXDMSA-UHFFFAOYSA-N
Kind: experiment
Temperature: 77 K
Tabular data in the source: 0
pressure (bar)	uptake (cm3(STP)/g)
0.000861	25.33
0.010781	34.75
0.027753	42.64
0.042161	47.99
0.059772	52.06
0.086998	57.15
0.100129	57.66
0.124143	59.95
0.147843	62.49
0.171219	64.53
0.193956	67.07
0.205163	67.58
0.227262	68.85
0.250962	69.61
0.274337	73.94
0.30509	74.45
0.327503	75.46
0.355043	78.26
0.38237	101.09
0.400751	82.8
0.405168	105.74
0.423528	108.14
0.428584	84.08
0.444107	110.06
0.455223	86.17
0.465487	109.58
0.478619	90.33
0.501822	93.54
0.504224	113.27
0.525411	116.47
0.527235	95.78
0.54599	118.88
0.557095	97.71
0.566072	122.42
0.578252	104.34
0.585284	125.86
0.603552	103.96
0.605782	128.78
0.623716	131.84
0.62709	110.07
0.645491	134.25
0.651429	113.12
0.666941	141.89
0.669201	117.7
0.683934	116.18
0.689365	140.62
0.700591	119.74
0.704411	142.91
0.709559	121.27
0.715942	147.49
0.726845	125.08
0.728111	151.56
0.737737	128.39
0.74252	157.67
0.75022	155.79
0.751477	163.78
0.767284	169.87
0.768793	159.32
0.777163	174.84
0.780962	143.67
0.787447	181.09
0.792807	149.52
0.797934	188.47
0.808219	195.84
0.809131	156.39
0.820337	166.83
0.82052	209.15
0.82898	174.21
0.834837	222.79
0.836347	178.03
0.842102	181.85
0.842294	232.25
0.847867	185.16
0.852032	189.49
0.852164	251.65
0.857149	194.83
0.863552	199.67
0.866673	285.65
0.867707	204.51
0.870493	299.29
0.873796	212.4
0.877312	218
0.881122	337.62
0.883068	225.38
0.889147	231.24
0.893788	399.66
0.895865	246
0.899381	266.62
0.905775	279.86
0.911206	297.17
0.91309	613.14
0.91536	312.19
0.917589	334.09
0.921987	619
0.925898	354.71
0.93142	384.7
0.935473	412.99
0.939273	435.42
0.944835	472.6
0.946092	497.86
0.949304	627.69
0.95205	525.58
0.95587	555.57
0.959274	584.92
0.964067	607.78
0.977016	626.77
0.985274	636.78
0.992266	637.08
1.00738	645.57
