Adsorption isotherm of Nitrogen on mesoCoHCF
DOI: 10.1021/acs.accounts.5b00349
Article source: Figure 7
Adsorbate Nitrogen: InChIKey IJGRMHOSHXDMSA-UHFFFAOYSA-N
Kind: experiment
Temperature: 77 K
Tabular data in the source: 0
pressure (bar)	uptake (cm3(STP)/g)
0.002594	34.38
0.005117	42.32
0.014996	50.58
0.025078	52.98
0.047268	56.11
0.073886	60.75
0.098599	63.72
0.123616	66.36
0.150306	68.71
0.175444	70.48
0.19962	73.92
0.227951	76.59
0.252289	77.98
0.274064	80.02
0.304806	82.43
0.328496	85.1
0.354577	88.22
0.401176	88.53
0.405209	90.49
0.429821	91.57
0.455436	94.46
0.460269	101.51
0.480047	96.38
0.503808	101.18
0.507618	107.44
0.526424	111.07
0.533294	104.4
0.548026	114.1
0.557176	107.23
0.569882	117.73
0.580815	108.64
0.587675	120.56
0.603938	114.7
0.609784	126.42
0.62402	118.94
0.63164	132.07
0.648926	122.17
0.649169	122.36
0.670022	126
0.674075	143.58
0.693387	147.82
0.697714	131.66
0.71346	158.32
0.719316	141.15
0.728456	162.36
0.739895	146.2
0.74103	173.47
0.748032	152.86
0.75859	161.12
0.762612	188.54
0.778966	168.82
0.788937	175.28
0.78992	228.01
0.794783	178.92
0.7991	181.95
0.802909	184.57
0.811299	188.01
0.813022	284.98
0.819679	193.26
0.822222	197.1
0.829588	203.16
0.832638	204.98
0.83815	347.6
0.840005	213.86
0.845588	221.74
0.849651	227.2
0.861333	242.55
0.863299	376.29
0.870483	251.84
0.880889	269.21
0.885915	380.14
0.888255	287.8
0.910344	328.2
0.914124	384.56
0.923273	385.57
0.938786	370.02
0.944876	386.18
0.966732	388.32
0.966985	388.4
0.999014	388.39
1.01324	398.09
