Adsorption isotherm of Nitrogen on Zn-MOF-74/18
DOI: 10.1021/acs.accounts.5b00349
Article source: Figure 2
Adsorbate Nitrogen: InChIKey IJGRMHOSHXDMSA-UHFFFAOYSA-N
Kind: experiment
Temperature: 77 K
Tabular data in the source: 0
pressure (bar)	uptake (cm3(STP)/g)
0.009423	66.753
0.023436	70.805
0.036852	69.344
0.049862	75.646
0.067361	73.467
0.076835	78.713
0.096289	77.794
0.101153	82.047
0.118824	80.561
0.125998	84.956
0.139565	82.902
0.152362	86.873
0.166193	85.386
0.178991	89.286
0.186671	87.444
0.203572	91.77
0.216369	89.787
0.2302	93.049
0.245561	91.775
0.253242	95.32
0.270143	94.188
0.27833	97.307
0.299841	96.318
0.306498	98.87
0.315719	100.147
0.329539	99.723
0.355144	101.428
0.357708	103.412
0.398673	106.394
0.405837	108.096
0.428372	108.099
0.454463	111.924
0.460563	117.212
0.480473	113.84
0.504457	116.88
0.508925	132.519
0.528835	120.146
0.529656	137.696
0.555666	123.749
0.569072	152.341
0.581271	128.14
0.588789	162.018
0.607687	131.969
0.609014	170.773
0.630039	136.697
0.632288	182.579
0.647112	140.411
0.654063	191.199
0.656049	142.325
0.664185	143.339
0.671501	145.365
0.672616	198.122
0.678006	147.503
0.683285	149.979
0.687298	200.043
0.692637	151.33
0.703611	153.469
0.708079	155.27
0.709072	200.716
0.7158	157.633
0.719863	159.546
0.725153	160.897
0.730026	162.36
0.735316	163.936
0.738973	164.386
0.742631	165.849
0.74791	167.312
0.75097	201.57
0.751973	169.45
0.758884	170.576
0.762136	171.814
0.767425	173.277
0.77312	201.572
0.77393	175.416
0.779615	176.879
0.783678	178.567
0.790994	180.706
0.794651	181.606
0.797904	183.182
0.805625	184.87
0.813356	187.234
0.813964	201.915
0.819446	188.866
0.824937	190.216
0.829811	191.905
0.835303	193.03
0.836114	202.199
0.840785	194.212
0.844443	195.113
0.850948	196.239
0.856642	202.371
0.858466	198.321
0.870665	201.191
0.892197	201.982
0.911307	201.534
0.918623	202.491
0.95357	202.046
0.963125	202.553
0.980188	202.443
0.992185	203.063
