Adsorption isotherm of Nitrogen on UPC-5
DOI: 10.1039/c5ta04989j
Article source: Figure 2
Adsorbate Nitrogen: InChIKey IJGRMHOSHXDMSA-UHFFFAOYSA-N
Kind: experiment
Temperature: 77 K
Tabular data in the source: 0
pressure (bar)	uptake (cm3(STP)/g)
0	0
0.001487	79.7746
0.002609	19.9437
0.00298	39.8873
0.003358	60.169
0.006276	96.6761
0.019822	103.437
0.035505	104.789
0.057916	107.155
0.069106	107.493
0.082539	108.169
0.100459	109.521
0.122832	109.859
0.145207	110.197
0.158633	110.535
0.178771	110.873
0.194434	111.211
0.219044	111.549
0.254832	111.549
0.288384	111.549
0.326408	111.549
0.342072	111.887
0.38011	112.563
0.400241	112.563
0.415904	112.901
0.438271	112.901
0.474053	112.563
0.498658	112.563
0.534452	112.901
0.56576	112.563
0.583654	112.563
0.614969	112.563
0.644053	112.901
0.664177	112.563
0.699965	112.563
0.729044	112.563
0.753648	112.563
0.784963	112.563
0.805099	112.901
0.827467	112.901
0.845354	112.563
0.863256	112.901
0.899044	112.901
0.916938	112.901
0.934832	112.901
0.946015	112.901
0.961679	113.239
0.990775	114.254
1.00867	114.592
