Adsorption isotherm of Nitrogen on Li-UPC-5
DOI: 10.1039/c5ta04989j
Article source: Figure 2
Adsorbate Nitrogen: InChIKey IJGRMHOSHXDMSA-UHFFFAOYSA-N
Kind: experiment
Temperature: 77 K
Tabular data in the source: 0
pressure (bar)	uptake (cm3(STP)/g)
0	0
0.002597	19.3229
0.00297	39.323
0.003343	59.3232
0.003728	80.0012
0.008498	95.935
0.017597	104.074
0.031075	107.129
0.057954	109.172
0.07588	110.873
0.100572	115.627
0.109462	112.579
0.120716	116.312
0.138547	112.928
0.140847	116.318
0.160978	116.325
0.176585	113.618
0.178884	117.009
0.196721	113.964
0.199009	116.677
0.212436	117.02
0.228037	113.975
0.230324	116.687
0.24818	114.659
0.254935	117.034
0.275066	117.041
0.290691	115.351
0.306387	117.391
0.337664	115.367
0.339938	117.402
0.364498	115.037
0.366767	116.733
0.382424	116.738
0.393577	115.047
0.393614	117.081
0.420449	116.751
0.424897	115.396
0.43387	116.755
0.449502	115.405
0.456238	116.763
0.471895	116.768
0.494231	115.081
0.496506	117.115
0.507696	117.458
0.525545	115.091
0.52782	117.126
0.552438	117.812
0.559097	115.102
0.565851	117.477
0.583708	115.45
0.592693	117.486
0.603877	117.49
0.615061	117.494
0.644145	117.843
0.655329	117.846
0.677697	117.854
0.693342	117.181
0.715709	117.189
0.731367	117.194
0.755971	117.202
0.769385	116.868
0.787279	116.874
0.807404	116.541
0.823062	116.547
0.845429	116.554
0.85885	116.559
0.885691	116.567
0.894638	116.57
0.921473	116.24
0.934893	116.245
0.957268	116.591
0.972932	116.936
0.997561	118.3
1.00874	118.304
