Adsorption isotherm of Hydrogen on Carbon
DOI: 10.1134/s0033173208020070
Adsorbate Hydrogen: InChIKey UFHFLCQGNIYNRP-UHFFFAOYSA-N
Temperature: 33 K
Tabular data in the source: 0
pressure (bar)	uptake (mmol/g)
2.82e-31	0.000915
7.95e-28	0.169929
8.76e-24	0.338943
4.02e-21	0.676971
3.77e-19	1.26852
5.75e-18	1.69106
1.03e-14	4.98683
1.47e-11	9.88824
1.1e-09	15.0432
3.31e-08	20.0291
3.00473e-05	30.2544
0.000721253	35.4094
0.0137968	40.2263
5.04845	48.3389
152.066	52.2263
1847.3	53.5784
5747.73	54.5925
173000	55.015
