Adsorption isotherm of Hydrogen on Carbon
DOI: 10.1134/s0033173208020070
Adsorbate Hydrogen: InChIKey UFHFLCQGNIYNRP-UHFFFAOYSA-N
Temperature: 20 K
Tabular data in the source: 0
pressure (bar)	uptake (mmol/g)
0	0.0854218
5.21283e-43	0.338943
2.91e-39	0.507957
1.38e-37	0.930492
1.03e-35	1.35303
9.66e-34	2.11359
8.21e-29	4.98683
4.43e-24	10.2263
6.34e-21	14.7896
3.65e-18	20.1981
7.95e-14	29.8319
5.94e-12	34.9868
1.73e-09	40.1418
1.62e-07	45.3812
4.89e-06	48.0009
7.45027e-05	50.1981
0.00113572	52.2263
0.00224412	53.4094
0.0217251	54.1699
0.106439	54.7615
2.55496	56.5361
38.9477	56.7896
121.182	56.7896
300.473	57.0432
