Adsorption isotherm of Hydrogen on Carbon
DOI: 10.1134/s0033173208020070
Adsorbate Hydrogen: InChIKey UFHFLCQGNIYNRP-UHFFFAOYSA-N
Temperature: 300 K
Tabular data in the source: 0
pressure (bar)	uptake (mmol/g)
1.75675	0.0854218
11.968	0.000915
16.8976	0.507957
32.0384	4.6488
52.461	9.80373
72.1793	14.9587
95.4187	19.8601
118.306	25.184
145.771	30.0854
173.588	35.0713
206.686	39.5502
247.884	42.677
