Adsorption isotherm of Hydrogen on Carbon
DOI: 10.1134/s0033173208020070
Adsorbate Hydrogen: InChIKey UFHFLCQGNIYNRP-UHFFFAOYSA-N
Temperature: 77 K
Tabular data in the source: 0
pressure (bar)	uptake (mmol/g)
-0.00381129	8.78965
0.348301	4.47979
0.700414	0.845985
0.700414	2.36711
1.05253	14.7896
1.40464	21.4657
1.75675	29.9164
5.27788	37.9446
11.968	43.6065
20.0666	47.8319
36.968	50.0291
59.5032	52.1418
115.489	52.6488
196.475	53.0713
233.799	53.0713
