Adsorption isotherm of Hydrogen on Carbon
DOI: 10.1134/s0033173208020070
Adsorbate Hydrogen: InChIKey UFHFLCQGNIYNRP-UHFFFAOYSA-N
Temperature: 200 K
Tabular data in the source: 0
pressure (bar)	uptake (mmol/g)
2.81309	0.676971
4.57365	1.52204
7.74267	3.63472
12.6722	6.59246
20.4187	10.3953
28.1652	15.3812
43.6582	23.3249
60.2075	29.5784
110.56	39.5502
190.489	45.4657
236.968	47.1558
