Adsorption isotherm of Hydrogen on Carbon
DOI: 10.1134/s0033173208020070
Adsorbate Hydrogen: InChIKey UFHFLCQGNIYNRP-UHFFFAOYSA-N
Temperature: 400 K
Tabular data in the source: 0
pressure (bar)	uptake (mmol/g)
17.9539	0.0854218
36.6159	0.761478
48.9398	2.1981
61.968	4.73331
81.3342	8.70514
102.813	14.7051
130.278	20.6206
158.447	25.353
182.038	29.5784
224.996	33.9727
