Adsorption isotherm of Methane on CMS-T3A
DOI: 10.1002/adma.200601983
Adsorbate Methane: InChIKey VNWKTOKETHGBQD-UHFFFAOYSA-N
Temperature: 196 K
Tabular data in the source: 0
pressure (bar)	uptake (ml/g)
0.0255771	38.2831
0.069261	59.1647
0.174748	87.007
0.311082	103.248
0.461956	120.65
0.609167	129.93
0.743676	143.852
0.879972	149.652
1.02354	156.613
