Adsorption isotherm of Nitrogen on CMS-T3A
DOI: 10.1002/adma.200601983
Adsorbate Nitrogen: InChIKey IJGRMHOSHXDMSA-UHFFFAOYSA-N
Temperature: 87 K
Tabular data in the source: 0
pressure (bar)	uptake (ml/g)
0.00222171	111.369
0.020729	204.176
0.117152	237.819
0.226235	255.22
0.353468	266.821
0.486142	276.102
0.627898	284.223
0.780547	290.023
0.893214	293.503
0.976808	296.984
