Adsorption isotherm of Argon on CMS-T3A
DOI: 10.1002/adma.200601983
Adsorbate Argon: InChIKey XKRFYHLGVUSROY-UHFFFAOYSA-N
Temperature: 87 K
Tabular data in the source: 0
pressure (bar)	uptake (ml/g)
0.00815753	244.78
0.020944	263.341
0.0938305	320.186
0.14477	337.587
0.239334	359.629
0.381098	370.07
0.486501	374.71
0.573721	375.87
0.70637	378.19
0.857194	381.671
1.00256	383.991
