Adsorption isotherm of Nitrogen on Zeolite 4A
DOI: 10.1002/adma.200601983
Adsorbate Nitrogen: InChIKey IJGRMHOSHXDMSA-UHFFFAOYSA-N
Temperature: 87 K
Tabular data in the source: 0
pressure (bar)	uptake (ml/g)
0.00685903	1.10132
0.0720198	12.1145
0.21263	11.5639
0.35324	12.1145
0.480132	12.6652
0.622457	13.2159
0.763067	12.6652
0.895103	12.6652
1.01685	13.2159
