Adsorption isotherm of Carbon Dioxide on Zeolite 4A
DOI: 10.1002/adma.200601983
Adsorbate Carbon Dioxide: InChIKey CURLTUGMZLYLDI-UHFFFAOYSA-N
Temperature: 196 K
Tabular data in the source: 0
pressure (bar)	uptake (ml/g)
0.00685903	114.537
0.0428689	154.185
0.214345	162.445
0.38925	162.445
0.507568	162.996
0.627601	164.097
0.756208	163.546
0.898533	162.996
0.99113	164.097
