Adsorption isotherm of Argon on Zeolite 4A
DOI: 10.1002/adma.200601983
Adsorbate Argon: InChIKey XKRFYHLGVUSROY-UHFFFAOYSA-N
Temperature: 87 K
Tabular data in the source: 0
pressure (bar)	uptake (ml/g)
0.00685903	1.10132
0.063446	18.1718
0.214345	22.0264
0.361814	26.4317
0.469843	31.3877
0.610454	35.793
0.776785	41.2996
0.900248	44.6035
1.01171	47.3568
