Adsorption isotherm of Oxygen on CUK-1
DOI: 10.1002/adma.200601983
Adsorbate Oxygen: InChIKey MYMOFIZGZYHOMD-UHFFFAOYSA-N
Temperature: 87 K
Tabular data in the source: 0
pressure (bar)	uptake (ml/g)
0	103.448
0.0332362	121.839
0.096687	131.034
0.214524	133.333
0.347469	134.866
0.4925	136.398
0.631487	139.464
