Adsorption isotherm of Methane on Zeolite 4A
DOI: 10.1002/adma.200601983
Adsorbate Methane: InChIKey VNWKTOKETHGBQD-UHFFFAOYSA-N
Temperature: 196 K
Tabular data in the source: 0
pressure (bar)	uptake (ml/g)
0.00685903	1.10132
0.063446	25.3304
0.171476	59.4714
0.346381	78.1938
0.476702	84.2511
0.627601	88.1057
0.766496	92.511
0.900248	94.7137
1.02885	98.0176
