Adsorption isotherm of Oxygen on CMS-T3A
DOI: 10.1002/adma.200601983
Adsorbate Oxygen: InChIKey MYMOFIZGZYHOMD-UHFFFAOYSA-N
Temperature: 87 K
Tabular data in the source: 0
pressure (bar)	uptake (ml/g)
0.000784135	215.777
0.0136844	265.661
0.0574779	316.705
0.13391	349.188
0.24304	379.35
0.386642	395.592
0.490219	397.912
0.590154	397.912
0.655587	403.712
0.711956	415.313
