Adsorption isotherm of Methane on CUK-1
DOI: 10.1002/adma.200601983
Adsorbate Methane: InChIKey VNWKTOKETHGBQD-UHFFFAOYSA-N
Temperature: 298 K
Tabular data in the source: 0
pressure (bar)	uptake (ml/g)
0.0440475	0.753246
0.113265	1.1462
0.333503	3.43641
0.588349	5.0006
0.849488	6.56696
1.02253	7.36483
