Adsorption isotherm of Carbon Dioxide on CMS-T3A
DOI: 10.1002/adma.200601983
Adsorbate Carbon Dioxide: InChIKey CURLTUGMZLYLDI-UHFFFAOYSA-N
Temperature: 196 K
Tabular data in the source: 0
pressure (bar)	uptake (ml/g)
0.00381528	49.884
0.0185494	104.408
0.0623471	156.613
0.120634	196.056
0.209756	220.418
0.3498	257.541
0.487947	272.622
0.60609	283.063
0.84598	295.824
0.945936	301.624
