Adsorption isotherm of Nitrogen on CUK-1
DOI: 10.1002/adma.200601983
Adsorbate Nitrogen: InChIKey IJGRMHOSHXDMSA-UHFFFAOYSA-N
Temperature: 87 K
Tabular data in the source: 0
pressure (bar)	uptake (ml/g)
0.0302147	7.66284
0.0815797	8.42912
0.217546	9.1954
0.504586	9.96169
0.758389	9.96169
0.894355	9.96169
0.991042	9.96169
