Adsorption isotherm of Oxygen on CUK-1
DOI: 10.1002/adma.200601983
Adsorbate Oxygen: InChIKey MYMOFIZGZYHOMD-UHFFFAOYSA-N
Temperature: 196 K
Tabular data in the source: 0
pressure (bar)	uptake (ml/g)
0.102494	7.39336
0.221003	15.6398
0.365135	24.455
0.477238	30.9953
0.592544	37.2512
0.720661	42.9384
0.851982	48.91
0.976897	53.7441
1.08259	57.7251
