Adsorption isotherm of Carbon Dioxide on CMS-T3A
DOI: 10.1002/adma.200601983
Adsorbate Carbon Dioxide: InChIKey CURLTUGMZLYLDI-UHFFFAOYSA-N
Temperature: 298 K
Tabular data in the source: 0
pressure (bar)	uptake (ml/g)
0.00848082	0.433761
0.090245	9.74942
0.229363	17.3393
0.359861	22.4391
0.510679	28.0821
0.629213	31.2327
0.747769	34.7079
0.901814	38.0785
1.04909	41.3402
