Adsorption isotherm of Methane on CMS-T3A
DOI: 10.1002/adma.200601983
Adsorbate Methane: InChIKey VNWKTOKETHGBQD-UHFFFAOYSA-N
Temperature: 298 K
Tabular data in the source: 0
pressure (bar)	uptake (ml/g)
0.00848082	0.433761
0.0983161	4.12253
0.233768	7.49125
0.365802	10.3185
0.5029	13.038
0.629827	15.3236
0.768594	17.7187
0.893823	19.8959
1.03257	21.9662
