Adsorption isotherm of Oxygen on Zeolite 4A
DOI: 10.1002/adma.200601983
Adsorbate Oxygen: InChIKey MYMOFIZGZYHOMD-UHFFFAOYSA-N
Temperature: 87 K
Tabular data in the source: 0
pressure (bar)	uptake (ml/g)
0.00514427	171.256
0.0720198	186.123
0.224633	186.674
0.351525	186.674
0.486991	186.674
0.615598	188.326
0.704765	187.225
