Adsorption isotherm of Carbon Dioxide on CUK-1
DOI: 10.1002/adma.200601983
Adsorbate Carbon Dioxide: InChIKey CURLTUGMZLYLDI-UHFFFAOYSA-N
Temperature: 298 K
Tabular data in the source: 0
pressure (bar)	uptake (ml/g)
0.02517	5.91277
0.135289	22.925
0.239115	36.6141
0.364965	50.3108
0.509693	62.169
0.667005	72.9245
0.833756	81.4693
0.997361	87.7989
