Adsorption isotherm of Methane on CUK-1
DOI: 10.1002/adma.200601983
Adsorbate Methane: InChIKey VNWKTOKETHGBQD-UHFFFAOYSA-N
Temperature: 196 K
Tabular data in the source: 0
pressure (bar)	uptake (ml/g)
0.0873289	3.06513
0.225924	3.06513
0.352456	3.83142
0.488026	4.5977
0.765216	4.5977
0.897774	5.36398
1.01829	5.36398
