Adsorption isotherm of Carbon Dioxide on CUK-1
DOI: 10.1002/adma.200601983
Adsorbate Carbon Dioxide: InChIKey CURLTUGMZLYLDI-UHFFFAOYSA-N
Temperature: 196 K
Tabular data in the source: 0
pressure (bar)	uptake (ml/g)
0.00302147	40.613
0.00604294	73.5632
0.0120859	126.437
0.0241718	146.36
0.0997085	151.724
0.208481	152.49
0.362576	154.023
0.501564	154.789
0.63753	155.556
0.770475	156.322
0.909463	157.088
1.02428	157.088
