Adsorption isotherm of Argon on CUK-1
DOI: 10.1002/adma.200601983
Adsorbate Argon: InChIKey XKRFYHLGVUSROY-UHFFFAOYSA-N
Temperature: 87 K
Tabular data in the source: 0
pressure (bar)	uptake (ml/g)
0.0181288	9.96169
0.0664723	9.1954
0.214524	9.1954
0.359555	9.96169
0.489478	9.96169
0.622423	9.96169
0.764432	9.96169
0.888312	9.96169
0.991042	11.4943
