Adsorption isotherm of Oxygen on NA-ETS-10
DOI: 10.1021/acs.iecr.6b01560
Article source: Figure 2D
Adsorbate Oxygen: InChIKey MYMOFIZGZYHOMD-UHFFFAOYSA-N
Kind: experiment
Temperature: 303 K
Tabular data in the source: 0
pressure (bar)	uptake (mmol/kg)
0.00861	0.00148
0.01687	0.00328
0.03459	0.00646
0.06529	0.01302
0.13211	0.02403
0.26253	0.04816
0.39566	0.07134
0.52997	0.09197
0.66057	0.11239
0.79083	0.131
0.92127	0.15004
0.99078	0.16009
1.00293	0.16178
1.0571	0.1678
1.12173	0.17552
