Adsorption isotherm of Nitrogen on NA-ETS-10
DOI: 10.1021/acs.iecr.6b01560
Article source: Figure 2D
Adsorbate Nitrogen: InChIKey IJGRMHOSHXDMSA-UHFFFAOYSA-N
Kind: experiment
Temperature: 303 K
Tabular data in the source: 0
pressure (bar)	uptake (mmol/kg)
0.00807	0.01592
0.01413	0.03025
0.03448	0.06909
0.06714	0.12045
0.12678	0.1839
0.26621	0.27077
0.38934	0.31773
0.52346	0.35163
0.6586	0.37757
0.79089	0.39788
0.92352	0.41586
0.94921	0.3944
0.99085	0.42304
1.00502	0.42526
1.05666	0.43107
1.12179	0.4373
