Adsorption isotherm of Nitrogen on NA-ETS-10
DOI: 10.1021/acs.iecr.6b01560
Article source: Figure 2A
Adsorbate Nitrogen: InChIKey IJGRMHOSHXDMSA-UHFFFAOYSA-N
Kind: experiment
Temperature: 303 K
Tabular data in the source: 0
pressure (bar)	uptake (mmol/kg)
0.00832	0.02154
0.01111	0.03065
0.03339	0.06907
0.06759	0.11981
0.12803	0.18462
0.2706	0.27258
0.39715	0.31874
0.53262	0.35413
0.67	0.37967
0.8041	0.40086
0.93816	0.41855
1.00425	0.42713
1.0186	0.42961
1.0727	0.43424
1.13689	0.44058
