Adsorption isotherm of Nitrogen on NA-ETS-10
DOI: 10.1021/acs.iecr.6b01560
Article source: Figure 2A
Adsorbate Nitrogen: InChIKey IJGRMHOSHXDMSA-UHFFFAOYSA-N
Kind: experiment
Temperature: 343 K
Tabular data in the source: 0
pressure (bar)	uptake (mmol/kg)
0.011	0.00713
0.03365	0.01939
0.06643	0.03739
0.13024	0.06969
0.26235	0.12372
0.39977	0.16663
0.53505	0.20096
0.66922	0.22819
0.80147	0.25212
0.93726	0.27152
1.00952	0.28298
1.01789	0.2848
1.07526	0.29176
1.14304	0.29929
