Adsorption isotherm of Argon on NA-ETS-10
DOI: 10.1021/acs.iecr.6b01560
Article source: Figure 2B
Adsorbate Argon: InChIKey XKRFYHLGVUSROY-UHFFFAOYSA-N
Kind: experiment
Temperature: 343 K
Tabular data in the source: 0
pressure (bar)	uptake (mmol/kg)
0.03215	0.00592
0.07194	0.01231
0.13368	0.01732
0.26712	0.03072
0.40057	0.04441
0.531	0.0578
0.67277	0.07124
0.80667	0.08449
0.94057	0.09645
1.00602	0.10234
1.02059	0.10486
1.06638	0.10866
1.13991	0.1127
