Adsorption isotherm of Argon on NA-ETS-10
DOI: 10.1021/acs.iecr.6b01560
Article source: Figure 2D
Adsorbate Argon: InChIKey XKRFYHLGVUSROY-UHFFFAOYSA-N
Kind: experiment
Temperature: 303 K
Tabular data in the source: 0
pressure (bar)	uptake (mmol/kg)
0.00843	0.00307
0.03509	0.00985
0.06377	0.01854
0.1326	0.03443
0.26116	0.0644
0.39512	0.09289
0.52807	0.11978
0.65832	0.14328
0.7901	0.16752
0.92289	0.18783
0.95577	0.20469
0.99089	0.19894
1.00371	0.20212
1.05619	0.20963
1.12166	0.21777
