Adsorption isotherm of Argon on NA-ETS-10
DOI: 10.1021/acs.iecr.6b01560
Article source: Figure 2B
Adsorbate Argon: InChIKey XKRFYHLGVUSROY-UHFFFAOYSA-N
Kind: experiment
Temperature: 323 K
Tabular data in the source: 0
pressure (bar)	uptake (mmol/kg)
0.01504	0.00426
0.04048	0.00798
0.06778	0.01302
0.13185	0.0237
0.26461	0.04494
0.39668	0.06399
0.53245	0.08277
0.66474	0.10023
0.79889	0.11901
0.93118	0.13487
0.99917	0.14238
1.01212	0.14373
1.06509	0.15074
1.12984	0.15649
