Adsorption isotherm of Oxygen on NA-ETS-10
DOI: 10.1021/acs.iecr.6b01560
Article source: Figure 2C
Adsorbate Oxygen: InChIKey MYMOFIZGZYHOMD-UHFFFAOYSA-N
Kind: experiment
Temperature: 303 K
Tabular data in the source: 0
pressure (bar)	uptake (mmol/kg)
0.0109	0.00464
0.03509	0.00813
0.06784	0.01423
0.13465	0.02412
0.2645	0.04882
0.39705	0.07149
0.53234	0.09329
0.66371	0.11452
0.7971	0.13357
0.9302	0.15017
0.99862	0.16006
1.01041	0.16354
1.06358	0.16879
1.12854	0.1781
