Adsorption isotherm of Nitrogen on NA-ETS-10
DOI: 10.1021/acs.iecr.6b01560
Article source: Figure 2A
Adsorbate Nitrogen: InChIKey IJGRMHOSHXDMSA-UHFFFAOYSA-N
Kind: experiment
Temperature: 323 K
Tabular data in the source: 0
pressure (bar)	uptake (mmol/kg)
0.0098	0.0066
0.03352	0.03739
0.06852	0.06929
0.12978	0.1162
0.27048	0.1909
0.40028	0.23792
0.53508	0.27511
0.66894	0.30509
0.80341	0.32882
0.93664	0.34832
1.00154	0.35731
1.01845	0.36055
1.07139	0.36739
1.14412	0.37482
