Adsorption isotherm of Oxygen on NA-ETS-10
DOI: 10.1021/acs.iecr.6b01560
Article source: Figure 2C
Adsorbate Oxygen: InChIKey MYMOFIZGZYHOMD-UHFFFAOYSA-N
Kind: experiment
Temperature: 343 K
Tabular data in the source: 0
pressure (bar)	uptake (mmol/kg)
0.00807	0.00131
0.03479	0.00495
0.0665	0.00613
0.13784	0.01283
0.27219	0.02408
0.40747	0.03546
0.54042	0.04511
0.67153	0.05519
0.80473	0.06614
0.93674	0.07521
1.00232	0.08119
1.0152	0.08192
1.06902	0.08572
1.13593	0.08953
