Adsorption isotherm of Oxygen on NA-ETS-10
DOI: 10.1021/acs.iecr.6b01560
Article source: Figure 2C
Adsorbate Oxygen: InChIKey MYMOFIZGZYHOMD-UHFFFAOYSA-N
Kind: experiment
Temperature: 323 K
Tabular data in the source: 0
pressure (bar)	uptake (mmol/kg)
0.01272	0.00377
0.03646	0.00799
0.06895	0.01293
0.13614	0.01906
0.26548	0.0316
0.39972	0.04776
0.5321	0.06305
0.66581	0.07602
0.7984	0.09016
0.92867	0.10371
0.9952	0.111
1.00763	0.11216
1.06284	0.11669
1.13485	0.12282
