Adsorption isotherm of Argon on NA-ETS-10
DOI: 10.1021/acs.iecr.6b01560
Article source: Figure 2B
Adsorbate Argon: InChIKey XKRFYHLGVUSROY-UHFFFAOYSA-N
Kind: experiment
Temperature: 303 K
Tabular data in the source: 0
pressure (bar)	uptake (mmol/kg)
0.01504	0.00557
0.03286	0.01115
0.0664	0.01911
0.13396	0.03561
0.26212	0.06626
0.39768	0.09636
0.53023	0.1234
0.66416	0.14871
0.79785	0.1714
0.93016	0.19336
0.99816	0.20493
1.0125	0.20788
1.06431	0.21504
1.13069	0.22486
