Adsorption isotherm of Argon on Carbon
DOI: 10.1016/j.seppur.2009.01.015
Adsorbate Argon: InChIKey XKRFYHLGVUSROY-UHFFFAOYSA-N
Temperature: 77 K
Tabular data in the source: 0
pressure (bar)	uptake (cm3(STP)/g)
0.00421011	304.244
0.00561856	28.7507
0.00561856	214.666
0.00984391	402.272
0.0197031	469.877
0.0464636	552.694
0.078858	621.99
0.146464	748.751
0.247872	880.582
0.347872	954.948
0.447872	998.892
0.550689	1027.62
0.647872	1052.98
0.747872	1078.33
0.850689	1105.37
0.945055	1130.72
0.992943	1189.88
