Adsorption isotherm of Nitrogen on Carbon
DOI: 10.1016/j.seppur.2009.01.015
Adsorbate Nitrogen: InChIKey IJGRMHOSHXDMSA-UHFFFAOYSA-N
Temperature: 77 K
Tabular data in the source: 0
pressure (bar)	uptake (cm3(STP)/g)
0.000865	6.2232
0.00229475	195.002
0.00229475	268.797
0.0108756	330.58
0.0266072	387.213
0.0566402	445.563
0.102405	512.494
0.205375	636.058
0.296904	730.448
0.401305	804.243
0.501415	848.863
0.605815	879.755
0.704495	908.929
0.804605	934.672
0.900425	960.415
0.95048	991.306
0.993384	1159.49
