Adsorption isotherm of Hydrogen on Carbon
DOI: 10.1016/j.seppur.2009.01.015
Adsorbate Hydrogen: InChIKey UFHFLCQGNIYNRP-UHFFFAOYSA-N
Temperature: 303 K
Tabular data in the source: 0
pressure (bar)	uptake (mmol/g)
0.703463	0.11292
3.59079	0.293202
7.88656	0.541089
11.6894	0.834047
15.4218	1.17207
20.9147	1.60024
32.464	2.43405
41.8302	3.15517
51.1964	4.05658
