Adsorption isotherm of Hydrogen on Carbon
DOI: 10.1016/j.seppur.2009.01.015
Adsorbate Hydrogen: InChIKey UFHFLCQGNIYNRP-UHFFFAOYSA-N
Temperature: 77 K
Tabular data in the source: 0
pressure (bar)	uptake (mmol/g)
0.210505	0.270666
0.210505	3.29038
0.35135	5.54391
0.492195	7.57207
0.562618	8.87912
0.703463	9.78053
5.21051	11.8763
21.4781	14.7383
37.1119	15.3918
49.5063	15.9777
