Adsorption isotherm of Hydrogen on Carbon
DOI: 10.1016/j.seppur.2009.01.015
Adsorbate Hydrogen: InChIKey UFHFLCQGNIYNRP-UHFFFAOYSA-N
Temperature: 195 K
Tabular data in the source: 0
pressure (bar)	uptake (mmol/g)
0.633041	0.225596
2.67529	0.496019
5.42177	0.924188
8.66121	1.30729
11.7598	1.64531
17.2528	2.14109
23.6612	2.81715
30.4922	3.44813
40.9147	4.327
51.1964	5.45376
