Adsorption isotherm of Carbon Dioxide on Carbon
DOI: 10.1016/j.seppur.2009.01.015
Adsorbate Carbon Dioxide: InChIKey CURLTUGMZLYLDI-UHFFFAOYSA-N
Temperature: 273 K
Tabular data in the source: 0
pressure (bar)	uptake (cm3(STP)/g)
0.00421011	0.21203
0.0182946	2.81766
0.0394214	5.91625
0.107027	12.536
0.211252	19.6486
0.309844	25.4233
0.412661	30.4937
0.512661	35.2825
0.609844	39.7191
0.715478	44.0148
0.811252	47.8881
0.912661	51.2684
