Adsorption isotherm of Nitrogen on Activated C4-SHz COF
DOI: 10.1021/acscatal.9b05470
Article source: Figure S4A
Adsorbate Nitrogen: InChIKey IJGRMHOSHXDMSA-UHFFFAOYSA-N
Kind: experiment
Temperature: 77 K
Tabular data in the source: 0
pressure (bar)	uptake (cm3(STP)/g)
0.013597	19.0635
0.013012	35.2916
0.011827	60.5887
0.017439	83.4953
0.026754	102.581
0.035451	121.668
0.054682	151.726
0.076382	179.396
0.10303	207.54
0.131528	233.297
0.152601	256.672
0.179231	276.225
0.207719	296.732
0.230629	311.515
0.258494	329.635
0.283264	346.803
0.309891	364.925
0.33219	383.048
0.357575	398.307
0.384207	418.815
0.408361	436.938
0.434993	456.968
0.459763	474.136
0.487004	489.871
0.511151	504.652
0.535304	522.298
0.559452	537.557
0.586078	554.724
0.613313	567.595
0.641793	584.76
0.665314	595.724
0.689458	608.597
0.712358	618.607
0.740215	633.386
0.768066	644.825
0.790349	655.312
0.812633	666.277
0.839868	679.148
0.863385	688.202
0.889996	698.21
0.915379	712.514
0.943233	725.861
0.97109	740.164
0.996496	765.922
1.01325	795.982
1.01326	796.459
0.981683	779.295
0.945789	765.952
0.90804	752.133
0.856675	733.071
0.809649	718.78
0.758289	702.105
0.705696	686.863
0.654946	665.892
0.633227	629.153
0.588023	598.633
0.516827	558.583
0.457388	521.866
0.399187	486.104
0.352741	453.198
0.297625	414.093
0.248085	380.234
0.201026	349.715
0.145292	311.087
0.095731	266.728
