Adsorption isotherm of Nitrogen on C4-SHz COF (As-synthesized)
DOI: 10.1021/acscatal.9b05470
Article source: Figure S4A
Adsorbate Nitrogen: InChIKey IJGRMHOSHXDMSA-UHFFFAOYSA-N
Kind: experiment
Temperature: 77 K
Tabular data in the source: 0
pressure (bar)	uptake (cm3(STP)/g)
0.012915	18.9112
0.020672	30.9658
0.029127	47.4039
0.053143	59.4584
0.077874	66.5816
0.103309	75.8965
0.127332	83.5676
0.178211	96.1701
0.2298	107.129
0.278555	121.375
0.328727	133.978
0.378906	142.745
0.431907	154.799
0.481378	163.566
0.506814	172.333
0.534374	178.36
0.56052	184.936
0.581016	188.223
0.609989	195.346
0.636844	200.826
0.660872	205.757
0.686308	213.976
0.711749	219.456
0.735068	225.483
0.76263	230.962
0.785237	240.277
0.810675	247.4
0.837526	255.071
0.860137	261.647
0.887688	273.701
0.914534	284.112
0.938549	296.714
0.966806	309.317
0.985864	326.851
1.00668	348.22
1.00986	350.96
0.962561	310.961
0.911	283.564
0.859424	265.482
0.812791	250.14
0.760501	235.894
0.710334	220.003
0.66016	208.497
0.610695	195.894
0.564763	184.388
0.505401	171.237
0.455934	159.731
0.409292	150.416
0.354172	137.265
0.304702	127.402
0.253116	114.8
0.201529	102.745
0.151358	89.5949
0.100479	76.9924
0.051728	60.0064
