Adsorption isotherm of Nitrogen on C4-SHz COF
DOI: 10.1021/acscatal.9b05470
Article source: Figure 2A
Adsorbate Nitrogen: InChIKey IJGRMHOSHXDMSA-UHFFFAOYSA-N
Kind: experiment
Temperature: 77 K
Tabular data in the source: 0
pressure (bar)	uptake (cm3(STP)/g)
0.017643	28.3731
0.019394	48.0333
0.02027	68.42
0.024648	83.7166
0.029027	97.5572
0.037784	118.686
0.059677	151.487
0.083321	179.923
0.106965	208.358
0.131484	236.068
0.156004	255.769
0.184902	276.205
0.207671	298.087
0.233942	312.695
0.259337	328.029
0.283857	345.546
0.306625	365.244
0.337275	383.5
0.359167	402.468
0.383687	418.528
0.408207	436.045
0.437981	452.843
0.457246	475.447
0.48702	489.333
0.508037	507.572
0.53606	522.182
0.561455	541.157
0.587726	555.765
0.613122	568.187
0.639393	584.979
0.663912	596.671
0.687556	608.362
0.712076	621.51
0.740099	637.577
0.764618	645.63
0.789138	658.05
0.813658	669.015
0.839929	682.166
0.865324	691.676
0.887217	702.636
0.913488	715.788
0.941511	729.67
0.96603	743.547
0.987923	771.252
1.01069	798.958
0.982669	783.619
0.944138	770.445
0.906482	757.273
0.85394	738.978
0.806652	724.333
0.756737	706.043
0.704195	691.388
0.65428	668.73
0.632387	630.833
0.585099	600.17
0.51767	559.28
0.458998	522.409
0.396823	484.804
0.357416	451.971
0.296992	416.189
0.247953	381.884
0.199789	349.036
0.143744	305.981
0.097332	265.856
