Adsorption isotherm of Nitrogen on C4-SHz COF
DOI: 10.1021/acscatal.9b05470
Article source: Figure S7A
Adsorbate Nitrogen: InChIKey IJGRMHOSHXDMSA-UHFFFAOYSA-N
Kind: experiment
Temperature: 77 K
Tabular data in the source: 0
pressure (bar)	uptake (cm3(STP)/g)
-0.001125	3.74096
-0.002348	25.1722
3.7e-05	43.8357
-0.000581	61.1187
-0.001199	77.7104
0.001791	93.6083
0.002972	114.347
0.001749	135.778
0.00233	155.825
0.004704	185.55
0.004675	215.276
0.008853	244.307
0.012423	280.944
0.016583	327.95
0.021949	371.498
0.031532	405.365
0.0441	459.278
0.06264	551.208
0.087864	571.238
0.128125	579.505
0.178003	587.765
0.256132	593.241
0.358305	596.625
0.506148	608.272
0.714706	610.89
1.01162	612.754
