Adsorption isotherm of Methylene blue on [Cu(Hbib)2(Î³-Mo8O26)] (Compound 1)
DOI: 10.1002/ejic.201700441
Article source: Figure 7
Adsorbate Methylene blue: InChIKey CXKWCBBOMKCUKX-UHFFFAOYSA-M
Kind: experiment
Temperature: 298 K
Tabular data in the source: 0
pressure (bar)	uptake (mg/g)
1.01325	1.19
1.01325	51.4
1.01325	99.98
1.01325	151.71
1.01325	200.83
1.01325	250.17
1.01325	299.3
1.01325	350.1
1.01325	400.79
1.01325	451.07
1.01325	502.3
1.01325	551.9
1.01325	550.12
1.01325	551.62
