Adsorption isotherm of Ammonia on MOF-205
DOI: 10.1021/Ic302010e
Adsorbate Ammonia: InChIKey QGZKDVFQNNGYKY-UHFFFAOYSA-N
Temperature: 298 K
Tabular data in the source: 0
pressure (bar)	uptake (mmol/g)
0.00148993	4.73701
0.00218523	5.61427
0.00935015	6.0829
0.0164686	6.49303
0.0212763	6.84444
0.0307521	7.37179
0.0470223	7.89989
0.0699009	8.1948
0.0814098	8.42998
0.0929188	8.66516
0.127399	9.31222
0.159336	9.60812
0.180089	10.0782
0.209763	10.3739
0.234859	10.6105
0.264578	10.9647
0.287318	11.0841
0.310197	11.379
0.337606	11.6744
0.358173	11.9106
0.383178	12.0303
0.403652	12.1495
0.440258	12.6214
0.456157	12.6816
0.483427	12.8015
0.508477	12.9797
0.544851	13.1592
0.565372	13.3369
0.592734	13.5738
0.61552	13.7517
0.64279	13.8717
0.665621	14.1081
0.690673	14.2863
0.717942	14.4062
0.743086	14.7014
0.765825	14.8208
0.793187	15.0577
0.820455	15.1777
0.843241	15.3556
0.863717	15.4748
0.897918	15.771
0.91844	15.9487
0.945709	16.0686
0.972979	16.1886
0.995718	16.308
1.01629	16.5442
