Adsorption isotherm of Nitrogen on MOF-205
DOI: 10.1021/Ic302010e
Adsorbate Nitrogen: InChIKey IJGRMHOSHXDMSA-UHFFFAOYSA-N
Temperature: 77 K
Tabular data in the source: 0
pressure (bar)	uptake (cm3(STP)/g)
0.00984762	189.975
0.0136542	280.605
0.0146473	332.342
0.0148955	237.584
0.0177919	388.481
0.0241638	612.764
0.027143	660.28
0.0424523	811.728
0.0542032	885.48
0.0782015	951.16
0.0892077	986.109
0.109316	1064.54
0.114199	1103.53
0.151604	1221.49
0.17916	1257.17
0.191656	1262.04
0.241638	1281.48
0.347645	1312.03
0.376609	1313.31
0.39738	1318.54
0.422289	1323.95
0.44728	1333.68
0.467969	1334.6
0.48667	1339.73
0.505372	1344.87
0.523992	1345.7
0.550887	1346.89
0.569423	1343.4
0.592345	1353.03
0.615103	1354.04
0.642163	1363.86
0.667154	1373.58
0.685691	1370.1
0.714572	1367.07
0.737494	1376.7
0.764389	1377.89
0.787146	1378.9
0.816027	1375.87
0.843087	1385.69
0.863775	1386.61
0.888767	1396.33
0.911606	1401.65
0.936433	1402.75
0.957039	1399.36
0.979797	1400.37
0.998412	1401.19
