Adsorption isotherm of Carbon Dioxide on MOF-205
DOI: 10.1021/Ic302010e
Adsorbate Carbon Dioxide: InChIKey CURLTUGMZLYLDI-UHFFFAOYSA-N
Temperature: 195 K
Tabular data in the source: 0
pressure (bar)	uptake (cm3(STP)/g)
0.00959796	12.9329
0.0152743	16.2916
0.0417251	29.8698
0.0699896	40.3761
0.0888914	50.5239
0.102117	57.313
0.139862	74.465
0.158763	84.6128
0.183282	94.9757
0.213654	118.128
0.226821	121.774
0.264742	148.356
0.283762	164.792
0.31437	200.518
0.337252	223.384
0.358203	243.034
0.386879	275.546
0.419359	311.345
0.440781	356.144
0.466604	536.19
0.490428	609.354
0.519573	667.014
0.553427	976.164
0.574847	1020.96
0.595622	1031.18
0.627691	1044.98
0.657827	1055.55
0.68422	1065.99
0.702945	1066.71
0.721729	1070.57
0.757424	1078.22
0.783758	1085.51
0.812023	1096.01
0.832621	1096.8
0.862757	1107.38
0.877737	1107.95
0.905825	1109.03
0.930286	1116.25
0.95457	1114.04
0.98658	1124.69
1.01467	1125.76
1.04094	1129.91
