Adsorption isotherm of Hydrogen on MOF-205
DOI: 10.1021/Ic302010e
Adsorbate Hydrogen: InChIKey UFHFLCQGNIYNRP-UHFFFAOYSA-N
Temperature: 77 K
Tabular data in the source: 0
pressure (bar)	uptake (mg/g)
0.0642518	1.48936
0.105373	2.29787
0.146495	3.14894
0.205606	4.04255
0.249297	4.97872
0.308408	5.74468
0.35724	6.46809
0.408641	7.19149
0.460042	7.87234
0.508874	8.51064
0.562846	9.10638
0.616817	9.70213
0.665648	10.2553
0.71448	10.8085
0.765881	11.3191
0.814712	11.8723
0.866114	12.3404
0.914945	12.8085
0.968916	13.2766
1.01518	13.7021
