Adsorption isotherm of Ammonia on DUT-6
DOI: 10.1021/Ic302010e
Adsorbate Ammonia: InChIKey QGZKDVFQNNGYKY-UHFFFAOYSA-N
Temperature: 298 K
Tabular data in the source: 0
pressure (bar)	uptake (mmol/g)
0.000695302	0.877269
0.00476778	3.15842
0.0080986	4.50381
0.00851578	5.03017
0.0110586	5.38133
0.0202565	5.55778
0.0571869	6.43902
0.0778936	6.85065
0.107706	7.32175
0.135114	7.61716
0.155635	7.79484
0.180778	8.09
0.203565	8.26794
0.230926	8.50486
0.258241	8.68329
0.28565	8.97869
0.310654	9.09839
0.331082	9.15911
0.358399	9.33755
0.38576	9.57447
0.4085	9.69392
0.435768	9.81387
0.46313	10.0508
0.485869	10.1702
0.510874	10.2899
0.540454	10.4686
0.563194	10.5881
0.581358	10.6485
0.610938	10.8272
0.640518	11.0059
0.667741	11.0674
0.695056	11.2458
0.717842	11.4237
0.742847	11.5434
0.767758	11.5462
0.797432	11.8418
0.822435	11.9615
0.847393	12.0227
0.872398	12.1424
0.895092	12.2034
0.917831	12.3229
0.94963	12.4433
0.970058	12.504
0.995156	12.7407
1.00874	12.7422
