Adsorption isotherm of Nitrogen on IRMOF-9
DOI: 10.1021/Ic302010e
Adsorbate Nitrogen: InChIKey IJGRMHOSHXDMSA-UHFFFAOYSA-N
Temperature: 77 K
Tabular data in the source: 0
pressure (bar)	uptake (cm3(STP)/g)
0.00224375	8.70798
0.00290668	43.099
0.00955507	64.924
0.0105494	116.511
0.013539	163.908
0.0289967	211.968
0.0665668	222.549
0.083191	223.431
0.116522	229.494
0.135307	234.785
0.1644	236.328
0.176868	236.989
0.205877	234.234
0.233057	244.264
0.253838	245.367
0.280769	242.501
0.30587	252.421
0.326651	253.523
0.357821	255.177
0.376607	260.468
0.403621	261.901
0.422406	267.192
0.451415	264.436
0.474356	269.947
0.50137	271.38
0.51999	268.073
0.553321	274.136
0.574184	279.537
0.601115	276.671
0.621896	277.773
0.644754	278.986
0.667612	280.198
0.696788	286.04
0.719563	282.954
0.74666	288.686
0.761206	289.458
0.794455	291.221
0.817313	292.434
0.836015	293.426
0.863196	303.456
0.890127	300.591
0.915228	310.511
0.937921	303.126
0.960862	308.637
0.977485	309.519
