Adsorption isotherm of Nitrogen on MOF-205
DOI: 10.1021/Ic302010e
Adsorbate Nitrogen: InChIKey IJGRMHOSHXDMSA-UHFFFAOYSA-N
Temperature: 77 K
Tabular data in the source: 0
pressure (bar)	uptake (cm3(STP)/g)
0.00018633	74.6667
0.000321901	90.6667
0.000538037	101.333
0.000751937	117.333
0.000899294	112
0.00121594	122.667
0.00156842	133.333
0.00184957	133.333
0.00220197	138.667
0.00252477	149.333
0.00642158	197.333
0.0132127	245.333
0.0252157	304
0.0409941	352
0.0804974	426.667
0.33173	613.333
0.371499	624
0.570716	666.667
3.03136	810.667
6.23717	858.667
10.0441	901.333
21.5646	960
30.2874	992
73.8825	1082.67
101.855	1130.67
