Adsorption isotherm of Hydrogen on IRMOF-8
DOI: 10.1021/Ic302010e
Adsorbate Hydrogen: InChIKey UFHFLCQGNIYNRP-UHFFFAOYSA-N
Temperature: 77 K
Tabular data in the source: 0
pressure (bar)	uptake (mg/g)
0.0334109	0.595745
0.0873824	1.40426
0.113083	1.74468
0.136214	2.04255
0.156774	2.38298
0.187615	2.68085
0.210745	3.02128
0.239016	3.2766
0.264717	3.57447
0.290417	3.78723
0.313549	4.08511
0.339249	4.34043
0.36238	4.51064
0.385511	4.7234
0.413781	5.02128
0.442052	5.19149
0.465183	5.44681
0.493453	5.65957
0.516584	5.82979
0.539714	6.04255
0.567985	6.25532
0.596256	6.51064
0.616817	6.6383
0.645087	6.85106
0.670789	7.02128
0.693919	7.19149
0.719619	7.40426
0.74789	7.65957
0.768451	7.82979
0.799292	8.04255
0.824992	8.12766
0.848124	8.34043
0.876393	8.51064
0.899525	8.68085
0.922655	8.85106
0.943216	9.02128
0.974056	9.23404
0.997187	9.40426
1.01004	9.44681
