Adsorption isotherm of Nitrogen on IRMOF-8
DOI: 10.1021/Ic302010e
Adsorbate Nitrogen: InChIKey IJGRMHOSHXDMSA-UHFFFAOYSA-N
Temperature: 77 K
Tabular data in the source: 0
pressure (bar)	uptake (cm3(STP)/g)
0.0364941	393.618
0.082753	434.438
0.132818	458.197
0.190911	469.388
0.217806	470.581
0.23659	480.029
0.263569	485.533
0.282188	486.358
0.311152	487.643
0.329771	488.468
0.362871	489.936
0.381492	490.761
0.404414	500.393
0.431391	505.897
0.456217	506.998
0.480961	503.787
0.507855	504.98
0.530777	514.611
0.553534	515.62
0.57836	516.721
0.603187	517.822
0.628012	518.923
0.652838	520.024
0.675679	525.344
0.702573	526.536
0.727316	523.326
0.752059	520.115
0.774899	525.436
0.797738	530.756
0.822565	531.857
0.849377	528.738
0.86601	533.783
0.884547	530.297
0.919882	540.48
0.94057	541.397
0.957121	542.131
0.977806	543.048
