Adsorption isotherm of Hydrogen on IRMOF-9M (mixed ligand)
DOI: 10.1021/Ic302010e
Adsorbate Hydrogen: InChIKey UFHFLCQGNIYNRP-UHFFFAOYSA-N
Temperature: 77 K
Tabular data in the source: 0
pressure (bar)	uptake (mg/g)
0.0282707	1.23404
0.0462613	1.82979
0.074532	2.34043
0.102803	2.80851
0.131074	3.2766
0.156774	3.65957
0.190186	4.04255
0.205606	4.25532
0.231306	4.59574
0.259577	4.80851
0.290417	5.10638
0.313549	5.31915
0.331539	5.61702
0.35981	5.87234
0.390651	6.04255
0.413781	6.21277
0.434342	6.29787
0.465183	6.68085
0.490884	6.89362
0.516584	7.02128
0.542285	7.14894
0.560275	7.40426
0.588546	7.61702
0.616817	7.74468
0.645087	7.91489
0.665648	8.08511
0.691348	8.25532
0.719619	8.38298
0.74789	8.59574
0.773591	8.68085
0.791582	8.89362
0.819853	9.02128
0.848124	9.14894
0.873824	9.31915
0.896954	9.44681
0.917515	9.61702
0.948355	9.82979
0.971487	9.95745
0.999758	10.0426
1.01518	10.1702
