Adsorption isotherm of Hydrogen on IRMOF-9
DOI: 10.1021/Ic302010e
Adsorbate Hydrogen: InChIKey UFHFLCQGNIYNRP-UHFFFAOYSA-N
Temperature: 77 K
Tabular data in the source: 0
pressure (bar)	uptake (mg/g)
0.0591115	0.978723
0.100233	1.48936
0.154205	2
0.208176	2.42553
0.257007	2.80851
0.310978	3.23404
0.36238	3.57447
0.411212	3.82979
0.462613	4.17021
0.514014	4.42553
0.562846	4.6383
0.614247	4.93617
0.665648	5.14894
0.717049	5.31915
0.768451	5.57447
0.819853	5.78723
0.871254	5.91489
0.922655	6.08511
0.971487	6.29787
1.01518	6.46809
