Adsorption isotherm of Nitrogen on IRMOF-9M (mixed ligand)
DOI: 10.1021/Ic302010e
Adsorbate Nitrogen: InChIKey IJGRMHOSHXDMSA-UHFFFAOYSA-N
Temperature: 77 K
Tabular data in the source: 0
pressure (bar)	uptake (cm3(STP)/g)
-0.00480934	64.6936
-0.00422757	90.7388
-0.00126698	129.946
0.00674214	208.501
0.0265031	253.167
0.0370397	258.206
0.0603947	277.107
0.0770982	278.225
0.0981711	288.304
0.125509	298.802
0.148475	300.339
0.175716	306.496
0.202955	312.653
0.230293	323.151
0.25525	320.487
0.278218	322.024
0.303467	332.383
0.328425	329.719
0.353577	335.736
0.378923	350.435
0.399706	347.492
0.430927	345.247
0.45608	351.265
0.468704	356.444
0.500023	358.54
0.525369	373.239
0.55023	366.234
0.573488	380.794
0.600437	373.928
0.623502	379.806
0.642293	381.064
0.671815	396.042
0.69687	397.719
0.721732	390.714
0.740523	391.972
0.770044	406.95
0.7951	408.627
0.81797	405.823
0.843219	416.182
0.86609	413.378
0.893232	415.194
0.920375	417.011
0.941351	422.749
0.958249	432.548
0.983305	434.225
