Adsorption isotherm of Carbon Dioxide on IRMOF-8
DOI: 10.1021/Ic302010e
Adsorbate Carbon Dioxide: InChIKey CURLTUGMZLYLDI-UHFFFAOYSA-N
Temperature: 195 K
Tabular data in the source: 0
pressure (bar)	uptake (cm3(STP)/g)
0.124999	80.1787
0.153498	103.259
0.182057	129.484
0.197214	139.488
0.23537	178.645
0.258664	223.516
0.281841	262.1
0.310458	291.468
0.33884	308.262
0.361605	324.84
0.393614	335.49
0.418075	342.709
0.44429	343.713
0.468751	350.932
0.493153	355.008
0.517555	359.083
0.540084	363.087
0.573966	373.809
0.596554	380.956
0.622827	385.104
0.648984	382.964
0.675318	390.255
0.699778	397.474
0.731612	398.693
0.754082	399.553
0.776493	397.27
0.806512	401.561
0.828982	402.421
0.855375	412.856
0.883405	410.788
0.909796	421.222
0.928521	421.939
0.956609	423.015
0.975334	423.732
1.00717	424.95
1.02396	422.452
