Adsorption isotherm of Argon on MOF-205
DOI: 10.1021/Ic302010e
Adsorbate Argon: InChIKey XKRFYHLGVUSROY-UHFFFAOYSA-N
Temperature: 87 K
Tabular data in the source: 0
pressure (bar)	uptake (cm3(STP)/g)
0.000555976	48
0.000640377	48
0.000916297	64
0.000951407	58.6667
0.00103554	53.3333
0.00133572	64
0.00140016	64
0.00354369	96
0.00584031	112
0.00855591	128
0.0118445	138.667
0.0150649	154.667
0.0189796	165.333
0.0241399	181.333
0.0297048	192
0.0357023	202.667
0.168562	346.667
1.20101	602.667
4.78845	784
16.7204	917.333
25.6866	960
44.1923	1013.33
59.2115	1045.33
