Adsorption isotherm of Methane on ZJU-25a
DOI: 10.1039/C3cc38765h
Adsorbate Methane: InChIKey VNWKTOKETHGBQD-UHFFFAOYSA-N
Temperature: 300 K
Tabular data in the source: 0
pressure (bar)	uptake (cm3(STP)/cm3)
0.360853	10.3244
1.8625	25.341
3.8647	45.8635
8.16943	76.8976
12.6744	103.927
19.4819	135.462
28.2915	165.495
35.099	183.515
43.6084	201.034
54.0198	219.054
60.6271	227.063
63.33	230.566
