Adsorption isotherm of Methane on ZJU-25a
DOI: 10.1039/C3cc38765h
Adsorbate Methane: InChIKey VNWKTOKETHGBQD-UHFFFAOYSA-N
Temperature: 270 K
Tabular data in the source: 0
pressure (bar)	uptake (cm3(STP)/cm3)
0.761293	20.836
1.8625	38.8558
3.56437	64.8844
5.26624	86.4081
9.07042	124.95
13.7756	159.989
21.2838	194.527
28.8922	216.051
35.3994	229.065
44.3091	243.08
55.0209	257.096
60.8273	262.101
63.2299	264.103
