Adsorption isotherm of Methane on ZJU-25a
DOI: 10.1039/C3cc38765h
Adsorbate Methane: InChIKey VNWKTOKETHGBQD-UHFFFAOYSA-N
Temperature: 240 K
Tabular data in the source: 0
pressure (bar)	uptake (cm3(STP)/cm3)
0.460963	26.3421
0.961513	43.8613
1.66228	63.3828
2.46316	80.902
3.36415	103.927
4.96591	137.464
8.77009	186.018
13.0748	219.554
20.0825	246.584
28.5919	263.603
35.2992	276.117
43.8086	286.628
54.4203	296.139
60.7272	300.643
63.2299	301.645
