Adsorption isotherm of Carbon Dioxide on C-MOF-177
DOI: 10.1039/B925088c
Adsorbate Carbon Dioxide: InChIKey CURLTUGMZLYLDI-UHFFFAOYSA-N
Temperature: 298 K
Tabular data in the source: 0
pressure (bar)	uptake (mg/g)
2.02114	76.0331
4.11862	149.445
5.75727	232.033
7.98585	345.21
10.1489	488.974
11.9186	608.268
13.885	797.915
15.9825	938.621
18.0144	1039.56
20.1774	1122.15
22.2094	1174.15
24.3724	1216.97
25.8144	1247.56
28.043	1259.8
29.9438	1265.92
