Adsorption isotherm of Carbon Dioxide on S-MOF-177
DOI: 10.1039/B925088c
Adsorbate Carbon Dioxide: InChIKey CURLTUGMZLYLDI-UHFFFAOYSA-N
Temperature: 298 K
Tabular data in the source: 0
pressure (bar)	uptake (mg/g)
0.0547527	8.73899
2.08669	106.621
4.18416	216.739
6.28164	342.151
10.0833	608.268
12.3774	804.033
14.2127	941.68
16.1136	1082.39
18.0144	1174.15
20.1774	1256.74
22.0127	1268.97
24.1758	1293.44
27.9774	1327.09
29.9438	1333.21
