Adsorption isotherm of Nitrogen on S-MOF-177
DOI: 10.1039/B925088c
Adsorbate Nitrogen: InChIKey IJGRMHOSHXDMSA-UHFFFAOYSA-N
Temperature: 77 K
Tabular data in the source: 0
pressure (bar)	uptake (cm3(STP)/g)
0.00400996	8.73899
0.0105646	908.033
0.0149343	1005.92
0.0345982	1137.44
0.0651864	1174.15
0.111069	1198.62
0.248716	1229.21
0.379808	1241.44
0.548044	1253.68
0.685691	1256.74
0.843002	1262.86
0.941321	1272.03
1.01779	1272.03
