Adsorption isotherm of Nitrogen on M-MOF-177
DOI: 10.1039/B925088c
Adsorbate Nitrogen: InChIKey IJGRMHOSHXDMSA-UHFFFAOYSA-N
Temperature: 77 K
Tabular data in the source: 0
pressure (bar)	uptake (cm3(STP)/g)
0.00619484	60.739
0.0193041	895.798
0.0455226	975.327
0.0673713	999.798
0.113254	1027.33
0.172245	1039.56
0.26838	1054.86
0.406027	1070.15
0.572077	1076.27
0.725018	1085.44
0.875775	1085.44
0.976279	1088.5
1.00687	1091.56
