Adsorption isotherm of Carbon Dioxide on M-MOF-177
DOI: 10.1039/B925088c
Adsorbate Carbon Dioxide: InChIKey CURLTUGMZLYLDI-UHFFFAOYSA-N
Temperature: 298 K
Tabular data in the source: 0
pressure (bar)	uptake (mg/g)
2.34887	54.6213
4.05307	131.092
6.28164	232.033
8.05139	332.974
10.1489	452.268
12.1808	565.445
14.1472	745.915
16.1136	880.504
18.1455	981.445
20.1774	1060.97
24.3069	1155.8
26.1421	1180.27
28.1741	1204.74
30.0094	1220.03
