Adsorption isotherm of Nitrogen on C-MOF-177
DOI: 10.1039/B925088c
Adsorbate Nitrogen: InChIKey IJGRMHOSHXDMSA-UHFFFAOYSA-N
Temperature: 77 K
Tabular data in the source: 0
pressure (bar)	uptake (cm3(STP)/g)
0.0105646	669.445
0.0302285	1060.97
0.0455226	1100.74
0.0826654	1140.5
0.141657	1161.92
0.202833	1177.21
0.274934	1183.33
0.445354	1195.56
0.545859	1198.62
0.679136	1198.62
0.786195	1201.68
0.899808	1204.74
0.9588	1204.74
0.995943	1220.03
