Adsorption isotherm of Ethanol on Carbon
DOI: 10.1016/j.jcis.2008.05.027
Adsorbate Ethanol: InChIKey LFQSCWFLJHTTHZ-UHFFFAOYSA-N
Temperature: 293 K
Tabular data in the source: 0
pressure (bar)	uptake (micromoles/m2)
0.00183091	0.327197
0.00297502	0.498814
0.00383311	0.713336
0.00419065	1.27109
0.0047627	1.3998
0.00547777	2.21499
0.00590682	2.60112
0.00655038	2.98726
0.0067649	3.28759
0.00726545	3.67373
0.00755148	4.3602
