Adsorption isotherm of Argon on Carbon
DOI: 10.1016/j.jcis.2008.05.027
Adsorbate Argon: InChIKey XKRFYHLGVUSROY-UHFFFAOYSA-N
Temperature: 87 K
Tabular data in the source: 0
pressure (bar)	uptake (micromoles/m2)
0.000129	0.202912
0.000247	0.401187
0.000356	0.595613
0.000452	0.793207
0.000613	1.20111
0.000762	1.59958
0.00102528	2.4705
0.00124926	3.52567
0.00152217	4.88456
0.0018184	5.8931
0.00225985	7.25174
0.00283634	8.0842
0.00438064	9.37548
0.00663339	10.1465
0.00994588	10.6603
0.0150606	10.981
0.0244384	11.537
0.0408484	12.1212
0.0565925	12.3631
0.0955326	12.8614
