Adsorption isotherm of Xenon on Carbon
DOI: 10.1016/j.jcis.2008.05.027
Adsorbate Xenon: InChIKey FHNFHKCVQCLJFQ-UHFFFAOYSA-N
Temperature: 161 K
Tabular data in the source: 0
pressure (bar)	uptake (micromoles/m2)
0.000305	1.19e-07
0.000506	2.03e-07
0.000691	3.09e-07
0.000993	4.74e-07
0.00139188	7.14e-07
0.00178091	1.08e-06
0.00246314	1.98e-06
0.00349624	4.03e-06
0.00496265	5.4e-06
0.00713609	6.19e-06
0.0108079	6.69e-06
0.0212178	7.09e-06
0.0955478	7.97e-06
0.137394	8.37e-06
0.192507	8.96e-06
0.240005	9.59e-06
0.299223	1.14e-05
0.398051	1.44e-05
0.515959	1.72e-05
0.62679	2.05e-05
0.741928	2.8e-05
0.855723	4.25e-05
