Adsorption isotherm of Xenon on Carbon
DOI: 10.1016/j.jcis.2008.05.027
Adsorbate Xenon: InChIKey FHNFHKCVQCLJFQ-UHFFFAOYSA-N
Temperature: 110 K
Tabular data in the source: 0
pressure (bar)	uptake (micromoles/m2)
1.96e-07	0.0566429
4.99e-07	0.0284739
1.01e-06	0.0848119
1.54e-06	0.169319
1.95e-06	0.225657
2.88e-06	0.479178
3.43e-06	6.64819
3.5e-06	0.929882
5.8e-06	7.15523
9.81e-06	7.46509
1.98e-05	7.71861
2.97e-05	7.83129
4.74e-05	8.31016
9.93e-05	8.42284
0.00029	8.47918
0.000737	8.84538
0.00145643	8.76087
0.00251136	9.0989
0.00329776	9.80312
0.00342862	17.6059
0.0043304	18.1693
0.0052606	17.8031
