Adsorption isotherm of Methanol on Carbon
DOI: 10.1016/j.jcis.2008.05.027
Adsorbate Methanol: InChIKey OKKJLVBELUTLKV-UHFFFAOYSA-N
Temperature: 273 K
Tabular data in the source: 0
pressure (bar)	uptake (micromoles/m2)
0.00541192	0.498814
0.00752853	0.927857
0.00838662	1.91466
0.00867265	3.07307
0.00901588	4.01697
0.0092447	5.00376
0.00953073	5.90475
0.00998838	6.97736
0.0107321	8.00706
0.0137068	9.80904
0.0178828	11.9972
0.022688	14.0137
0.0273789	15.9873
