Adsorption isotherm of Xenon on Carbon
DOI: 10.1016/j.jcis.2008.05.027
Adsorbate Xenon: InChIKey FHNFHKCVQCLJFQ-UHFFFAOYSA-N
Temperature: 110 K
Tabular data in the source: 0
pressure (bar)	uptake (mol/m2)
2.01e-07	1.99e-08
4.9e-07	5.13e-08
1.02e-06	1.13e-07
1.52e-06	1.9e-07
2.01e-06	2.6e-07
2.56e-06	4.19e-07
2.96e-06	5.37e-07
3.16e-06	8.13e-07
3.37e-06	1.64e-06
3.54e-06	6.82e-06
5.23e-06	7.18e-06
9.68e-06	7.47e-06
2.01e-05	7.77e-06
4.1e-05	8.07e-06
6.89e-05	8.29e-06
0.000148	8.73e-06
0.000296	8.73e-06
0.000678	9.07e-06
0.00142841	8.96e-06
0.0024392	9.07e-06
0.0029155	9.81e-06
0.00311087	1.8e-05
0.00466593	1.83e-05
0.0056682	2.63e-05
0.00624739	3.59e-05
