Adsorption isotherm of Xenon on Carbon
DOI: 10.1016/j.jcis.2008.05.027
Adsorbate Xenon: InChIKey FHNFHKCVQCLJFQ-UHFFFAOYSA-N
Temperature: 110 K
Tabular data in the source: 0
pressure (bar)	uptake (mol/m2)
2.01e-07	1.98e-08
4.98e-07	5.49e-08
1.02e-06	1.15e-07
1.5e-06	1.82e-07
2.01e-06	2.43e-07
2.52e-06	3.07e-07
3.01e-06	6.25e-07
3.48e-06	7.45e-07
3.6e-06	6.33e-06
4.23e-06	6.91e-06
9.68e-06	7.54e-06
2.01e-05	7.77e-06
4.98e-05	8.48e-06
9.84e-05	8.39e-06
0.000198	8.48e-06
0.000498	8.39e-06
0.00101617	8.56e-06
0.00152413	8.56e-06
0.00200789	8.64e-06
0.00316172	8.81e-06
