Adsorption isotherm of Xenon on Carbon
DOI: 10.1016/j.jcis.2008.05.027
Adsorbate Xenon: InChIKey FHNFHKCVQCLJFQ-UHFFFAOYSA-N
Temperature: 161 K
Tabular data in the source: 0
pressure (bar)	uptake (micromoles/m2)
0.00139321	0.338638
0.00421011	4.00061
0.00984391	6.87385
0.0295622	7.60624
0.0985763	8.22596
0.160548	8.78934
0.216886	9.40906
0.260548	10.1415
0.301393	11.3246
0.361957	13.5781
0.421112	15.0992
0.464773	15.6626
0.523928	17.1274
0.580266	18.7612
0.602802	19.4936
0.619703	20.902
0.643647	21.1274
0.660548	23.2119
0.702802	24.6203
0.721112	26.3105
0.74083	27.1555
0.781675	31.5499
0.799985	33.5217
0.819703	35.5499
0.842238	39.1555
