Adsorption isotherm of Xenon on Carbon
DOI: 10.1016/j.jcis.2008.05.027
Adsorbate Xenon: InChIKey FHNFHKCVQCLJFQ-UHFFFAOYSA-N
Temperature: 90 K
Tabular data in the source: 0
pressure (bar)	uptake (mol/m2)
5.14e-09	2.24e-08
7.35e-09	3.21e-08
1.05e-08	5.13e-08
2.01e-08	1.09e-07
2.6e-08	1.54e-07
3.37e-08	2.22e-07
3.66e-08	3.36e-07
3.9e-08	2.35e-06
3.9e-08	3.26e-06
4.03e-08	7.47e-06
7.11e-08	7.87e-06
1.45e-07	8.07e-06
3.06e-07	7.97e-06
6.89e-07	8.07e-06
2.04e-06	8.18e-06
5.06e-06	8.29e-06
1e-05	8.18e-06
2.01e-05	8.29e-06
5.14e-05	8.18e-06
0.000128	8.29e-06
0.00013	1.19e-05
0.00013	1.69e-05
0.000198	1.69e-05
