Adsorption isotherm of Xenon on Carbon
DOI: 10.1016/j.jcis.2008.05.027
Adsorbate Xenon: InChIKey FHNFHKCVQCLJFQ-UHFFFAOYSA-N
Temperature: 110 K
Tabular data in the source: 0
pressure (bar)	uptake (mol/m2)
1.07e-07	1.03e-08
1.94e-07	1.9e-08
4.82e-07	4.88e-08
9.68e-07	1.03e-07
1.43e-06	1.65e-07
2.01e-06	2.53e-07
2.65e-06	4.11e-07
3.37e-06	6.56e-07
3.66e-06	5.97e-06
4.52e-06	6.58e-06
1.43e-05	7.54e-06
4.74e-05	8.23e-06
0.000171	8.39e-06
0.000444	8.73e-06
0.000907	8.81e-06
0.00140544	8.81e-06
0.00221307	8.9e-06
0.00296316	9.16e-06
