Adsorption isotherm of Ammonia on Carbon
DOI: 10.1016/j.jcis.2008.05.027
Adsorbate Ammonia: InChIKey QGZKDVFQNNGYKY-UHFFFAOYSA-N
Temperature: 195 K
Tabular data in the source: 0
pressure (bar)	uptake (micromoles/m2)
0.0132664	0.241388
0.0211608	0.541719
0.0272532	1.09947
0.0293984	2.04337
0.0299133	2.94436
0.0301707	5.00376
0.0301707	5.94766
0.0302565	7.92126
0.0303423	6.93446
0.0304281	8.99386
0.0305997	9.93776
0.030943	11.9114
0.0318869	14.8288
0.034976	19.7628
0.0393522	24.7826
