Adsorption isotherm of Ammonia on Carbon
DOI: 10.1016/j.jcis.2008.05.027
Adsorbate Ammonia: InChIKey QGZKDVFQNNGYKY-UHFFFAOYSA-N
Temperature: 197 K
Tabular data in the source: 0
pressure (bar)	uptake (micromoles/m2)
0.219706	0.394976
0.352664	0.733004
0.447312	1.18371
0.485622	2.14145
0.496889	3.15554
0.502523	4.90202
0.50703	7.0992
0.508157	8.84568
0.508157	9.9161
0.512664	12.0569
0.531819	14.9865
0.58365	20.226
0.655762	25.071
