Adsorption isotherm of Argon on Carbon
DOI: 10.1016/j.jcis.2008.05.027
Adsorbate Argon: InChIKey XKRFYHLGVUSROY-UHFFFAOYSA-N
Temperature: 87 K
Tabular data in the source: 0
pressure (bar)	uptake (micromoles/m2)
0.000101	0.146461
0.000133	0.185649
0.000193	0.278356
0.000307	0.469887
0.000524	0.938261
0.000976	2.28277
0.00133871	3.89175
0.00171375	5.39175
0.00239785	7.10987
0.00345595	8.41006
0.00619017	9.56257
0.0108707	10.349
0.0194712	10.7661
0.0400492	11.3113
0.0993833	12.1212
