Adsorption isotherm of Xenon on Carbon
DOI: 10.1016/j.jcis.2008.05.027
Adsorbate Xenon: InChIKey FHNFHKCVQCLJFQ-UHFFFAOYSA-N
Temperature: 90 K
Tabular data in the source: 0
pressure (bar)	uptake (micromoles/m2)
2.79e-07	5.71861
5.6e-07	0.225657
5.6e-07	2.42284
5.6e-07	8.56369
6.19e-06	8.67636
2e-05	8.67636
4.96e-05	8.62002
7.04e-05	8.70453
0.000104	8.76087
0.000126	8.76087
0.000127	16.8454
0.000128	17.8031
0.00015	17.775
0.0002	17.6623
