Adsorption isotherm of Water on Carbon
DOI: 10.1016/j.jcis.2008.05.027
Adsorbate Water: InChIKey XLYOFNOQVPJJNP-UHFFFAOYSA-N
Temperature: 302 K
Tabular data in the source: 0
pressure (bar)	uptake (micromoles/m2)
0.0154278	0.498814
0.0194994	1.01367
0.021842	1.48561
0.0259694	2.12918
0.0277542	2.30079
0.0299294	2.85855
0.0319373	3.97406
