Adsorption isotherm of Argon on Carbon
DOI: 10.1016/j.jcis.2008.05.027
Adsorbate Argon: InChIKey XKRFYHLGVUSROY-UHFFFAOYSA-N
Temperature: 87 K
Tabular data in the source: 0
pressure (bar)	uptake (micromoles/m2)
0.00562161	0.338638
0.00900189	10.5358
0.0157625	11.4372
0.046185	12.2823
0.0822413	12.902
0.0991427	13.1274
0.158861	13.8598
0.196044	14.6485
0.236608	15.6062
0.298579	17.5781
0.359424	20.6203
0.402241	22.7048
0.458579	24.902
0.499143	25.9161
0.540833	27.4936
0.561115	27.6626
0.617453	30.1415
0.660269	32.5077
0.70196	35.4936
0.740269	38.7612
