Adsorption isotherm of Xenon on Carbon
DOI: 10.1016/j.jcis.2008.05.027
Adsorbate Xenon: InChIKey FHNFHKCVQCLJFQ-UHFFFAOYSA-N
Temperature: 110 K
Tabular data in the source: 0
pressure (bar)	uptake (micromoles/m2)
1.94e-06	2.71e-07
2.52e-06	3.88e-07
2.82e-06	4.71e-07
2.92e-06	5.73e-07
3.11e-06	7.37e-07
3.43e-06	1.07e-06
3.43e-06	1.91e-06
3.48e-06	1.35e-06
3.48e-06	2.42e-06
3.54e-06	4.46e-06
3.72e-06	6.71e-06
1.5e-05	7.62e-06
2.92e-05	8e-06
3.9e-05	8e-06
