Adsorption isotherm of Carbon Dioxide on UFZ-700
DOI: 10.1016/j.jct.2018.06.009
Article source: Figure 2a
Adsorbate Carbon Dioxide: InChIKey CURLTUGMZLYLDI-UHFFFAOYSA-N
Kind: experiment
Temperature: 348 K
Tabular data in the source: 0
pressure (bar)	uptake (mmol/g)
0.00736	0.0288
0.0239	0.0508
0.0516	0.0893
0.0774	0.128
0.104	0.162
0.13	0.195
0.155	0.225
0.201	0.279
0.258	0.337
0.31	0.386
0.35	0.423
0.41	0.474
0.451	0.508
0.51	0.555
0.552	0.585
0.601	0.618
0.652	0.654
0.701	0.684
0.751	0.717
0.802	0.746
0.852	0.779
0.903	0.806
0.949	0.831
0.995	0.854
