Adsorption isotherm of Carbon Dioxide on UFZ-700
DOI: 10.1016/j.jct.2018.06.009
Article source: Figure 2a
Adsorbate Carbon Dioxide: InChIKey CURLTUGMZLYLDI-UHFFFAOYSA-N
Kind: experiment
Temperature: 373 K
Tabular data in the source: 0
pressure (bar)	uptake (mmol/g)
0.0252	0.0234
0.0497	0.044
0.0761	0.0659
0.101	0.0879
0.127	0.104
0.152	0.124
0.202	0.159
0.251	0.191
0.301	0.223
0.351	0.251
0.4	0.28
0.451	0.31
0.502	0.337
0.551	0.364
0.601	0.387
0.651	0.413
0.701	0.438
0.751	0.462
0.801	0.484
0.851	0.505
0.902	0.527
0.946	0.547
0.991	0.565
