Adsorption isotherm of Nitrogen on UFZ-700
DOI: 10.1016/j.jct.2018.06.009
Article source: Figure 2b
Adsorbate Nitrogen: InChIKey IJGRMHOSHXDMSA-UHFFFAOYSA-N
Kind: experiment
Temperature: 348 K
Tabular data in the source: 0
pressure (bar)	uptake (mmol/g)
0.0232	0.00322
0.0495	0.00491
0.077	0.00721
0.104	0.00905
0.125	0.011
0.152	0.013
0.2	0.017
0.249	0.0215
0.3	0.0259
0.35	0.0299
0.4	0.034
0.45	0.0382
0.5	0.0425
0.549	0.0466
0.599	0.0511
0.65	0.0549
0.7	0.0589
0.75	0.0629
0.8	0.0669
0.85	0.071
0.9	0.0748
0.946	0.0785
0.991	0.082
