Adsorption isotherm of Nitrogen on UFZ-700
DOI: 10.1016/j.jct.2018.06.009
Article source: Figure 2b
Adsorbate Nitrogen: InChIKey IJGRMHOSHXDMSA-UHFFFAOYSA-N
Kind: experiment
Temperature: 373 K
Tabular data in the source: 0
pressure (bar)	uptake (mmol/g)
0.0244	0.000918
0.0507	0.00291
0.0764	0.0046
0.101	0.00613
0.126	0.00736
0.152	0.00889
0.201	0.0116
0.251	0.0146
0.301	0.0175
0.351	0.0204
0.4	0.0234
0.452	0.0264
0.501	0.029
0.55	0.0319
0.601	0.0345
0.651	0.0374
0.701	0.04
0.75	0.0427
0.801	0.0455
0.851	0.0484
0.901	0.0513
0.946	0.0536
0.991	0.0564
