Adsorption isotherm of Nitrogen on UFZ-700
DOI: 10.1016/j.jct.2018.06.009
Article source: Figure 2b
Adsorbate Nitrogen: InChIKey IJGRMHOSHXDMSA-UHFFFAOYSA-N
Kind: experiment
Temperature: 323 K
Tabular data in the source: 0
pressure (bar)	uptake (mmol/g)
0.0257	0.00399
0.0501	0.00737
0.0745	0.0109
0.101	0.0147
0.125	0.018
0.15	0.0216
0.199	0.0282
0.252	0.0358
0.299	0.0422
0.352	0.0494
0.4	0.0556
0.452	0.0632
0.499	0.0695
0.549	0.0761
0.602	0.083
0.65	0.089
0.7	0.0955
0.75	0.102
0.799	0.108
0.851	0.115
0.902	0.121
0.945	0.126
0.992	0.132
