Adsorption isotherm of Carbon Dioxide, Nitrogen on UFZ-700
DOI: 10.1016/j.jct.2018.06.009
Article source: Table 5, Figure 4
Adsorbate Carbon Dioxide: InChIKey CURLTUGMZLYLDI-UHFFFAOYSA-N
Adsorbate Nitrogen: InChIKey IJGRMHOSHXDMSA-UHFFFAOYSA-N
Kind: experiment
Temperature: 373 K
Tabular data in the source: 0
pressure (bar)	Carbon Dioxide fraction	Carbon Dioxide uptake (mmol/g)	Nitrogen fraction	Nitrogen uptake (mmol/g)	total uptake (mmol/g)
1	0.05	0.19	0.95	0.0312	
1	0.075	0.25	0.925	0.0249	
1	0.1	0.31	0.9	0.0121	
1	0.125	0.37	0.875	0.00636	
