Adsorption isotherm of Carbon Dioxide on UFZ-700
DOI: 10.1016/j.jct.2018.06.009
Article source: Figure 2a
Adsorbate Carbon Dioxide: InChIKey CURLTUGMZLYLDI-UHFFFAOYSA-N
Kind: experiment
Temperature: 323 K
Tabular data in the source: 0
pressure (bar)	uptake (mmol/g)
0.0252	0.104
0.0522	0.183
0.0785	0.251
0.1	0.304
0.125	0.36
0.15	0.409
0.202	0.505
0.254	0.584
0.304	0.658
0.354	0.728
0.406	0.791
0.457	0.852
0.509	0.907
0.558	0.957
0.609	1.01
0.659	1.05
0.7	1.09
0.759	1.13
0.801	1.17
0.859	1.21
0.902	1.24
0.955	1.28
0.993	1.3
