Adsorption isotherm of Carbon Dioxide, Nitrogen on UFZ-700
DOI: 10.1016/j.jct.2018.06.009
Article source: Table 5, Figure 4
Adsorbate Carbon Dioxide: InChIKey CURLTUGMZLYLDI-UHFFFAOYSA-N
Adsorbate Nitrogen: InChIKey IJGRMHOSHXDMSA-UHFFFAOYSA-N
Kind: experiment
Temperature: 323 K
Tabular data in the source: 0
pressure (bar)	Carbon Dioxide fraction	Carbon Dioxide uptake (mmol/g)	Nitrogen fraction	Nitrogen uptake (mmol/g)	total uptake (mmol/g)
1	0.05	0.29	0.95	0.12	
1	0.075	0.37	0.925	0.104	
1	0.1	0.48	0.9	0.0885	
1	0.125	0.59	0.875	0.0719	
