Adsorption isotherm of Carbon Dioxide on UFZ-700
DOI: 10.1016/j.jct.2018.06.009
Article source: Figure 2a
Adsorbate Carbon Dioxide: InChIKey CURLTUGMZLYLDI-UHFFFAOYSA-N
Kind: experiment
Temperature: 303 K
Tabular data in the source: 0
pressure (bar)	uptake (mmol/g)
0.0104	0.0825
0.0257	0.175
0.0515	0.3
0.0772	0.402
0.101	0.484
0.126	0.567
0.153	0.641
0.204	0.766
0.25	0.867
0.301	0.962
0.352	1.05
0.403	1.13
0.455	1.2
0.505	1.27
0.556	1.33
0.607	1.38
0.658	1.44
0.708	1.49
0.759	1.54
0.809	1.58
0.85	1.61
0.909	1.66
0.947	1.69
0.991	1.72
