Adsorption isotherm of Nitrogen on UFZ-700
DOI: 10.1016/j.jct.2018.06.009
Article source: Figure 2b
Adsorbate Nitrogen: InChIKey IJGRMHOSHXDMSA-UHFFFAOYSA-N
Kind: experiment
Temperature: 303 K
Tabular data in the source: 0
pressure (bar)	uptake (mmol/g)
0.0251	0.00553
0.0514	0.0111
0.0758	0.0161
0.099	0.0209
0.125	0.0259
0.149	0.0313
0.2	0.0418
0.251	0.0517
0.301	0.0614
0.351	0.0712
0.402	0.0809
0.451	0.0901
0.502	0.0995
0.551	0.109
0.602	0.118
0.652	0.127
0.702	0.135
0.751	0.144
0.802	0.153
0.851	0.161
0.902	0.17
0.947	0.177
0.991	0.184
