Adsorption isotherm of Nitrogen on chitin fibers
DOI: 10.1002/anie.201504572
Article source: Figure 3- chitin fibers
Adsorbate Nitrogen: InChIKey IJGRMHOSHXDMSA-UHFFFAOYSA-N
Kind: experiment
Temperature: 77 K
Tabular data in the source: 0
pressure (bar)	uptake (cm3(STP)/g)
0.007344	13.33
0.01418	14.91
0.030319	14.27
0.054623	14.27
0.080194	13.31
0.105511	14.25
0.131208	13.29
0.155638	13.28
0.181335	14.23
0.20621	13.27
0.231527	13.89
0.25678	15.16
0.281844	14.83
0.307288	16.41
0.330959	15.13
0.339946	15.13
0.356213	15.76
0.374694	14.17
0.39153	15.11
0.39748	16.06
0.401594	16.38
0.41286	16.38
0.418746	14.15
0.430202	12.56
0.436214	12.88
0.446215	15.41
0.458303	14.14
0.477418	16.67
0.482861	14.77
0.492609	15.72
0.506976	16.35
0.533369	15.7
0.55837	16.97
0.58356	17.28
0.607864	17.59
0.63451	18.53
0.659955	22.65
0.683879	18.2
0.689133	19.78
0.710145	21.36
0.71312	22
0.734829	18.82
0.737931	20.4
0.758058	18.81
0.764134	21.66
0.784514	20.7
0.789071	22.93
0.806858	31.49
0.809579	22.6
0.832048	30.21
0.836794	19.42
0.861541	22.27
0.865215	39.09
0.884394	19.27
0.884959	18.13
0.908189	29.55
0.913511	58.76
0.934457	36.53
0.940541	85.09
0.948066	42.24
0.956049	93.98
0.958889	47
0.965418	99.69
0.969334	53.98
0.974468	102.23
0.979462	62.54
0.983203	106.67
0.988331	113.65
0.989655	90.48
0.990732	86.35
1.00036	107.61
