Adsorption isotherm of Nitrogen on CuBTC
DOI: 10.1002/anie.201504572
Article source: Figure 3- Cu3BTC2
Adsorbate Nitrogen: InChIKey IJGRMHOSHXDMSA-UHFFFAOYSA-N
Kind: experiment
Temperature: 77 K
Tabular data in the source: 0
pressure (bar)	uptake (cm3(STP)/g)
0.004791	395.15
0.008463	401.17
0.015173	415.12
0.02144	409.71
0.045813	428.05
0.052648	422.31
0.070501	436.23
0.078032	427.64
0.096581	441.23
0.106139	432.64
0.118357	446.57
0.133548	437.32
0.146083	449.03
0.15564	443.29
0.166972	450.88
0.182607	444.48
0.187545	455.9
0.207674	446.63
0.217044	459.62
0.227677	448.17
0.237173	462.1
0.255656	452.21
0.265216	464.56
0.281356	454.36
0.285472	468.95
0.306869	457.77
0.307056	457.46
0.328072	457.4
0.334973	470.08
0.357254	477.31
0.357826	478.59
0.380488	481.06
0.3846	462.01
0.40992	462.89
0.411504	477.17
0.427963	481.25
0.432076	467.9
0.453599	467.53
0.45898	481.79
0.482654	467.76
0.485377	488.07
0.504874	488.65
0.5081	469.91
0.528675	489.21
0.533231	472.7
0.554312	491.36
0.559374	472.94
0.573809	492.9
0.584694	475.41
0.597546	492.51
0.605204	477.25
0.625462	496.88
0.634322	479.08
0.644073	500.95
0.670406	494.85
0.682179	488.78
0.69484	502.71
0.700917	498.25
0.706168	476.97
0.708322	483.95
0.716551	493.45
0.733071	483.56
0.754847	485.72
0.765166	494.58
0.779661	490.09
0.790296	496.41
0.806754	491.6
0.817706	502.37
0.830682	490.9
0.838595	501.99
0.853596	493.38
0.861194	502.24
0.878095	497.75
0.887336	504.71
0.905314	497.99
0.914176	504.31
0.929051	499.19
0.935382	504.26
0.957727	501.02
0.966273	507.34
0.981528	503.81
0.986022	504.43
0.99615	505.04
1.00558	509.77
