Adsorption isotherm of Nitrogen on Cu3BTC2/Chitin Composite
DOI: 10.1002/anie.201504572
Article source: Figure 3- Composite Material
Adsorbate Nitrogen: InChIKey IJGRMHOSHXDMSA-UHFFFAOYSA-N
Kind: experiment
Temperature: 77 K
Tabular data in the source: 0
pressure (bar)	uptake (cm3(STP)/g)
0.003225	151.12
0.01139	176.52
0.019174	188.9
0.04601	210.48
0.069617	225.71
0.076074	227.93
0.094554	237.77
0.101138	237.45
0.11791	246.97
0.128859	252.36
0.143923	256.17
0.14829	257.75
0.16886	265.69
0.173797	267.59
0.192404	274.57
0.199114	277.11
0.217152	283.77
0.227278	284.72
0.243101	293.28
0.254874	295.5
0.270697	305.97
0.278862	305.02
0.288101	314.22
0.302153	307.55
0.307343	318.66
0.324622	318.34
0.331647	327.86
0.354305	329.13
0.359306	337.06
0.376964	334.83
0.38266	346.9
0.401522	340.86
0.404813	356.1
0.427092	351.64
0.427535	359.9
0.452345	364.02
0.465636	380.84
0.478295	369.32
0.478928	369.09
0.504245	379.24
0.513358	399.24
0.526523	399.5
0.528169	404.32
0.549561	416.69
0.555195	400.18
0.572537	423.67
0.578739	404.62
0.59779	440.49
0.605575	419.85
0.62317	450
0.626841	429.37
0.648424	440.15
0.652981	461.74
0.674563	474.75
0.675956	454.75
0.696525	473.16
0.700259	495.7
0.722285	488.27
0.723552	489.34
0.748108	536.32
0.749248	506.8
0.777285	563.93
0.778045	565.04
0.800387	556.63
0.803804	597.58
0.822981	657.58
0.828298	595.35
0.843485	776
0.868361	662.65
0.871329	1045.54
0.891842	717.56
0.894805	928.78
0.901145	752.8
0.920872	1894.49
0.929372	867.41
0.9439	2465.96
0.954115	1132.18
0.967812	3194.27
0.978213	1985.27
0.992308	3037.42
0.992741	3641.61
1.00293	3688.59
