Adsorption isotherm of Nitrogen on TPA-COF
DOI: 10.1021/jacs.7b04096
Article source: Figure S3
Adsorbate Nitrogen: InChIKey IJGRMHOSHXDMSA-UHFFFAOYSA-N
Kind: experiment
Temperature: 77 K
Tabular data in the source: 0
pressure (bar)	uptake (cm3(STP)/g)
0.007255	16.5327
0.007255	27.5545
0.007255	44.0873
0.007255	55.1091
0.007255	70.2641
0.007255	85.4191
0.007255	97.8186
0.007255	112.974
0.007255	133.639
0.007255	155.683
0.009058	170.838
0.009058	184.615
0.012686	208.037
0.012686	225.947
0.032627	279.679
0.069783	300.344
0.081567	305.166
0.104223	309.989
0.123262	314.811
0.143192	318.944
0.163133	321.699
0.184888	325.144
0.203917	326.521
0.253768	332.721
0.305424	334.788
0.356178	341.676
0.406931	345.809
0.455871	350.631
0.505723	354.076
0.556467	357.52
0.60722	361.653
0.657974	366.475
0.708728	369.231
0.752237	376.119
0.780334	378.186
0.811147	380.941
0.830176	383.008
0.85193	387.141
0.871871	392.652
0.886371	395.408
0.901772	400.23
0.917184	405.052
0.92987	409.185
0.940742	416.073
0.947997	420.207
0.957055	429.851
0.96431	438.117
0.971565	446.383
0.975182	458.783
0.984251	468.427
0.986065	479.449
0.987878	489.093
0.989682	500.115
0.995123	515.27
0.99875	529.047
0.99875	540.069
0.996937	552.468
1.00056	575.89
0.143192	355.453
0.203917	364.409
0.253768	369.231
0.304522	373.364
0.336237	375.431
0.399676	378.875
0.460401	382.319
0.507527	396.785
0.55828	399.541
0.609034	402.296
0.6607	405.741
0.712355	409.185
0.752237	411.94
0.782138	415.385
0.812049	418.829
0.833803	421.584
0.85193	424.34
0.872773	427.095
0.887273	430.54
0.911743	437.428
0.930771	445.006
0.947997	456.028
0.966124	475.316
0.97881	498.737
0.987878	530.425
0.995123	566.935
1.00419	604.822
