Adsorption isotherm of Nitrogen on ZIF-8
DOI: 10.1021/Ja202154j
Adsorbate Nitrogen: InChIKey IJGRMHOSHXDMSA-UHFFFAOYSA-N
Temperature: 77 K
Tabular data in the source: 0
pressure (bar)	uptake (molecules/unitcell)
1.19261e-05	0.505621
3.98902e-05	1.02999
0.000121873	3.12747
0.000340113	9.94428
0.000622025	19.7762
0.00140526	26.4619
0.00337229	31.3123
0.00717227	34.7207
0.0167	38.3913
0.027898	47.3056
0.13006	51.6317
0.521398	52.0249
0.621707	52.0249
0.988766	53.0737
