Adsorption isotherm of Nitrogen on ZIF-8HP
DOI: 10.1021/Ja202154j
Adsorbate Nitrogen: InChIKey IJGRMHOSHXDMSA-UHFFFAOYSA-N
Temperature: 77 K
Tabular data in the source: 0
pressure (bar)	uptake (molecules/unitcell)
1.02554e-05	1.55436
2.31686e-05	2.86528
0.000114733	6.66697
0.000372349	13.3527
0.00117247	26.3308
0.00249364	32.0989
0.0177392	41.0132
0.0400759	44.946
0.0991198	48.0922
0.175993	51.7628
0.435024	51.1073
0.647925	52.9426
0.962547	54.1224
