Adsorption isotherm of Nitrogen on ZIF-8
DOI: 10.1021/Ja202154j
Adsorbate Nitrogen: InChIKey IJGRMHOSHXDMSA-UHFFFAOYSA-N
Temperature: 77 K
Tabular data in the source: 0
pressure (bar)	uptake (molecules/unitcell)
1.1e-05	0.145631
2.2e-05	0.291262
5e-05	1.60194
7.1e-05	2.3301
0.000101	4.2233
0.0002	9.17476
0.000511	20.2427
0.000955	25.7767
0.000996	25.9223
0.003008	31.0194
0.003072	31.0194
0.004965	32.6214
0.006789	34.0777
0.010095	34.8058
0.019279	36.8447
0.020104	36.5534
0.029276	37.2816
0.040043	37.8641
0.050388	38.0097
0.059547	38.4466
0.067496	38.5922
0.092327	39.0291
0.116179	39.1748
0.13731	39.3204
0.187776	40.4854
0.285201	40.3398
0.470837	40.7767
0.671468	41.5049
0.881034	41.5049
