Adsorption isotherm of Nitrogen on ZIF-8-90 30%
DOI: 10.1007/s10904-014-0131-z
Article source: Figure 4
Adsorbate Nitrogen: InChIKey IJGRMHOSHXDMSA-UHFFFAOYSA-N
Kind: experiment
Temperature: 77 K
Tabular data in the source: 0
pressure (bar)	uptake (cm3(STP)/g)
0.000259	20.4921
0.004671	202.874
0.014301	298.17
0.024847	299.205
0.056524	305.385
0.090436	321.813
0.101047	327.971
0.139147	342.354
0.181369	349.569
0.227764	353.714
0.265722	356.826
0.303641	356.864
0.347918	359.983
0.390049	360.026
0.425874	361.086
0.474299	359.086
0.510162	363.221
0.558614	363.27
0.596545	364.333
0.63657	364.373
0.678714	365.44
0.720872	367.532
0.763029	369.624
0.82412	369.686
0.845212	371.756
0.878956	374.864
0.914742	372.851
0.931594	372.868
0.954806	375.965
0.967432	374.954
1.01386	381.148
