Adsorption isotherm of Carbon Dioxide on ZIF-8-90 70%
DOI: 10.1007/s10904-014-0131-z
Article source: Figure 5a
Adsorbate Carbon Dioxide: InChIKey CURLTUGMZLYLDI-UHFFFAOYSA-N
Kind: experiment
Temperature: 273 K
Tabular data in the source: 0
pressure (bar)	uptake (mmol/g)
0	0
0.036263	0.229167
0.093193	0.474702
0.13207	0.769345
0.137181	0.654762
0.176026	0.883929
0.17608	0.998512
0.217438	1.08036
0.217523	1.26042
0.258881	1.34226
0.258936	1.45685
0.300371	1.70238
0.302876	1.53869
0.341737	1.8006
0.341807	1.94792
0.380659	2.19345
0.385755	2.04613
0.427184	2.2753
0.427261	2.43899
0.468619	2.52083
0.468672	2.63542
0.507502	2.83185
0.512622	2.73363
0.554049	2.9628
0.554096	3.06101
0.592941	3.29018
0.598044	3.15923
0.636905	3.42113
0.639449	3.33929
0.675688	3.51935
0.675727	3.60119
0.722298	3.78125
0.724842	3.6994
0.763641	3.83036
0.763687	3.92857
0.805084	4.09226
0.807628	4.01042
0.849017	4.15774
0.849048	4.22321
0.874904	4.28869
0.887816	4.28869
0.913704	4.41964
0.931781	4.41964
0.95766	4.53423
0.978328	4.5506
1.01454	4.66518
