Adsorption isotherm of Carbon Dioxide on ZIF-8-90 0%
DOI: 10.1007/s10904-014-0131-z
Article source: Figure 5b
Adsorbate Carbon Dioxide: InChIKey CURLTUGMZLYLDI-UHFFFAOYSA-N
Kind: experiment
Temperature: 298 K
Tabular data in the source: 0
pressure (bar)	uptake (mmol/g)
0.042574	0.019184
0.047902	0.028636
0.061209	0.038157
0.090592	0.179482
0.09848	0.076103
0.133091	0.114026
0.135834	0.208094
0.17037	0.161377
0.175774	0.255468
0.215621	0.199393
0.218371	0.302866
0.258295	0.331431
0.260879	0.246814
0.298142	0.275356
0.298225	0.369401
0.3434	0.322777
0.343476	0.407417
0.385991	0.36077
0.386074	0.454815
0.425913	0.389335
0.428647	0.473999
0.468579	0.511969
0.471172	0.436756
0.508442	0.474703
0.513836	0.55939
0.548448	0.597312
0.556353	0.512743
0.593698	0.635329
0.596283	0.550712
0.63628	0.663918
0.638882	0.59811
0.67882	0.645484
0.678879	0.711315
0.716084	0.674026
0.721461	0.739904
0.758732	0.77785
0.764001	0.72147
0.803933	0.75944
0.806626	0.797081
0.843905	0.844432
0.86254	0.863405
0.894449	0.854282
0.910433	0.882636
0.929061	0.892204
0.955684	0.920652
0.971643	0.920793
1.01692	0.987023
