Adsorption isotherm of Carbon Dioxide on ZIF-8-90 30%
DOI: 10.1007/s10904-014-0131-z
Article source: Figure 5a
Adsorbate Carbon Dioxide: InChIKey CURLTUGMZLYLDI-UHFFFAOYSA-N
Kind: experiment
Temperature: 273 K
Tabular data in the source: 0
pressure (bar)	uptake (mmol/g)
0	0
0.059312	0.182053
0.092777	0.413109
0.139177	0.594963
0.183001	0.76031
0.219033	1.02434
0.219071	0.942005
0.260252	1.23905
0.260307	1.12378
0.301534	1.32202
0.304062	1.43733
0.342776	1.48733
0.345313	1.58617
0.386547	1.76794
0.391758	1.66922
0.427782	1.94972
0.430411	1.85096
0.469087	1.98329
0.471631	2.06566
0.51285	2.28037
0.515487	2.16514
0.551525	2.41271
0.551564	2.33037
0.592761	2.59448
0.597964	2.51223
0.636624	2.67749
0.639175	2.7434
0.677859	2.85927
0.721685	3.02462
0.762951	3.14052
0.765501	3.20643
0.806783	3.2894
0.845442	3.45467
0.868654	3.5209
0.889299	3.55415
0.909913	3.65327
0.927974	3.68648
0.953746	3.80215
0.971823	3.80243
1.01566	3.93484
