Adsorption isotherm of Carbon Dioxide on ZIF-8-90 50%
DOI: 10.1007/s10904-014-0131-z
Article source: Figure 5b
Adsorbate Carbon Dioxide: InChIKey CURLTUGMZLYLDI-UHFFFAOYSA-N
Kind: experiment
Temperature: 298 K
Tabular data in the source: 0
pressure (bar)	uptake (mmol/g)
0.056012	0.176708
0.058722	0.233039
0.066651	0.176333
0.093348	0.288244
0.133311	0.362069
0.167954	0.436083
0.168021	0.511315
0.218605	0.565958
0.226676	0.669121
0.271999	0.78978
0.274584	0.705049
0.319924	0.844516
0.327986	0.938275
0.37858	1.00232
0.378656	1.08696
0.429223	1.12279
0.429314	1.22624
0.482584	1.309
0.482634	1.36542
0.538546	1.42928
0.538646	1.54213
0.583912	1.59696
0.586638	1.6721
0.642608	1.80179
0.64521	1.73586
0.695877	1.88455
0.69592	1.93157
0.749256	2.08956
0.751849	2.01424
0.799841	2.1442
0.79989	2.20063
0.842571	2.34019
0.853184	2.3116
0.893164	2.40424
0.911806	2.43179
0.946525	2.59044
0.967803	2.58969
1.01845	2.71957
