Adsorption isotherm of Carbon Dioxide on ZIF-8-90 100%
DOI: 10.1007/s10904-014-0131-z
Article source: Figure 5b
Adsorbate Carbon Dioxide: InChIKey CURLTUGMZLYLDI-UHFFFAOYSA-N
Kind: experiment
Temperature: 298 K
Tabular data in the source: 0
pressure (bar)	uptake (mmol/g)
0.010714	0.084734
0.050703	0.188535
0.058608	0.103965
0.090692	0.292336
0.101257	0.207789
0.135901	0.28333
0.138645	0.377398
0.175948	0.452962
0.178533	0.368345
0.215854	0.462718
0.218606	0.566191
0.258577	0.651183
0.261145	0.547757
0.301126	0.642154
0.303878	0.745626
0.346418	0.727192
0.34651	0.830642
0.383739	0.821565
0.383823	0.91561
0.42638	0.915985
0.426454	1.00063
0.466378	1.02919
0.46646	1.12324
0.509118	1.23646
0.514338	1.12366
0.554318	1.21805
0.554393	1.30269
0.589046	1.38764
0.599627	1.3219
0.634288	1.41625
0.642359	1.51977
0.679604	1.5295
0.68234	1.61417
0.722337	1.72737
0.724914	1.63335
0.762259	1.75594
0.762309	1.81236
0.804942	1.89738
0.807559	1.85038
0.847573	1.98239
0.852869	1.95423
0.874229	2.04846
0.89018	2.0392
0.911542	2.13343
0.932838	2.15243
0.956851	2.23728
0.975469	2.23744
1.01812	2.34127
