Adsorption isotherm of Carbon Dioxide on ZIF-8-90 100%
DOI: 10.1007/s10904-014-0131-z
Article source: Figure 5a
Adsorbate Carbon Dioxide: InChIKey CURLTUGMZLYLDI-UHFFFAOYSA-N
Kind: experiment
Temperature: 273 K
Tabular data in the source: 0
pressure (bar)	uptake (mmol/g)
0	0
0.007575	0.163829
0.043553	0.260675
0.051159	0.391667
0.053843	0.276618
0.097303	0.635805
0.097411	0.520875
0.135749	0.847463
0.138449	0.715995
0.171573	1.10849
0.176893	0.927652
0.21767	1.40189
0.220415	1.22116
0.258692	1.61343
0.258861	1.43282
0.297093	1.87434
0.302399	1.70992
0.34319	2.16773
0.343374	1.97071
0.38159	2.42865
0.381806	2.19879
0.425158	2.6729
0.425342	2.47588
0.463742	2.73679
0.466134	2.9337
0.504718	2.99759
0.509718	3.16154
0.545726	3.22555
0.550709	3.40591
0.584187	3.42078
0.591701	3.65029
0.630162	3.84553
0.632861	3.71406
0.673899	3.90918
0.678944	4.02387
0.71739	4.23553
0.717497	4.1206
0.75849	4.36497
0.758582	4.26646
0.799526	4.56009
0.80221	4.44504
0.840642	4.67312
0.866282	4.80328
0.886878	4.81875
0.904804	4.93284
0.920248	4.94855
0.953634	5.06193
0.966499	5.07776
1.00761	5.19078
