Adsorption isotherm of Nitrogen on ZIF-8-90 70%
DOI: 10.1007/s10904-014-0131-z
Article source: Figure 4
Adsorbate Nitrogen: InChIKey IJGRMHOSHXDMSA-UHFFFAOYSA-N
Kind: experiment
Temperature: 77 K
Tabular data in the source: 0
pressure (bar)	uptake (cm3(STP)/g)
0	0
0.011845	270.504
0.066668	274.658
0.108825	276.749
0.123559	275.74
0.157263	275.774
0.174142	277.84
0.224713	278.916
0.275284	279.991
0.281577	277.949
0.323761	282.09
0.328207	300.537
0.37481	321.076
0.385461	330.308
0.436069	334.457
0.459256	335.505
0.482466	338.603
0.511959	338.632
0.539331	337.636
0.560396	337.657
0.592009	338.713
0.646805	340.818
0.69315	340.865
0.745802	339.893
0.815357	343.038
0.832196	342.03
0.855395	344.103
0.891194	343.114
0.908059	344.156
0.941764	344.19
1.01335	341.189
