Adsorption isotherm of Nitrogen on ZIF-8-90 50%
DOI: 10.1007/s10904-014-0131-z
Article source: Figure 4
Adsorbate Nitrogen: InChIKey IJGRMHOSHXDMSA-UHFFFAOYSA-N
Kind: experiment
Temperature: 77 K
Tabular data in the source: 0
pressure (bar)	uptake (cm3(STP)/g)
0	2.04711
0.003186	254.598
0.005228	238.236
0.02221	260.714
0.05178	264.774
0.083444	264.742
0.117228	266.753
0.151003	266.719
0.182667	266.687
0.201669	267.69
0.216437	265.63
0.237564	269.699
0.256562	269.68
0.288226	269.648
0.32412	271.657
0.360023	275.71
0.364348	300.246
0.389689	302.265
0.398193	316.572
0.429882	322.675
0.442531	318.572
0.45944	323.667
0.47422	324.675
0.503778	325.667
0.527002	326.667
0.55656	327.659
0.594557	327.621
0.634682	331.67
0.668452	330.614
0.700116	330.582
0.731792	333.617
0.761342	332.565
0.790898	333.558
0.826785	333.521
0.847894	333.5
0.869008	334.501
0.88801	335.505
0.915456	336.5
0.93446	337.503
0.959808	341.567
0.974588	342.575
1.0105	348.674
