Adsorption isotherm of Carbon Dioxide on ZIF-8-90 70%
DOI: 10.1007/s10904-014-0131-z
Article source: Figure 5b
Adsorbate Carbon Dioxide: InChIKey CURLTUGMZLYLDI-UHFFFAOYSA-N
Kind: experiment
Temperature: 298 K
Tabular data in the source: 0
pressure (bar)	uptake (mmol/g)
0	0
0.045104	0.102577
0.047757	0.187412
0.079595	0.271473
0.084902	0.224162
0.114087	0.279992
0.11674	0.374261
0.148578	0.467756
0.156538	0.363771
0.185722	0.56111
0.214908	0.541467
0.217561	0.664038
0.249399	0.738665
0.252053	0.634821
0.286543	0.850887
0.323688	0.934807
0.355527	1
0.384711	1.14074
0.424509	1.22458
0.459001	1.2048
0.461654	1.32737
0.490838	1.2983
0.493491	1.41143
0.52533	1.49549
0.527983	1.40108
0.559821	1.60779
0.594312	1.71064
0.602272	1.60666
0.631457	1.79456
0.636764	1.71895
0.665948	1.80308
0.70044	1.98141
0.703093	1.89644
0.734932	2.05597
0.769422	2.15883
0.77473	2.07378
0.801261	2.16742
0.803914	2.25225
0.841059	2.27957
0.875549	2.41073
0.891469	2.46691
0.915347	2.48515
0.923307	2.56041
0.944533	2.56928
0.965758	2.64418
0.979023	2.6627
1.01617	2.75605
