Adsorption isotherm of Nitrogen on ZIF-8-90 0%
DOI: 10.1007/s10904-014-0131-z
Article source: Figure 4
Adsorbate Nitrogen: InChIKey IJGRMHOSHXDMSA-UHFFFAOYSA-N
Kind: experiment
Temperature: 77 K
Tabular data in the source: 0
pressure (bar)	uptake (cm3(STP)/g)
0.00022	17.4183
0.008202	315.582
0.020069	421.127
0.072837	429.377
0.127621	430.457
0.176071	430.506
0.228736	430.559
0.273	432.653
0.329891	433.735
0.382555	433.788
0.435232	434.866
0.487897	434.92
0.538454	434.971
0.593239	436.051
0.64589	435.079
0.698567	436.157
0.747032	437.231
0.78495	437.269
0.80391	437.288
0.839734	438.349
0.858706	439.393
0.892437	441.476
0.902944	439.438
0.947221	442.556
0.959848	441.544
1.00632	451.837
