Adsorption isotherm of Carbon Dioxide on ZIF-8-90 30%
DOI: 10.1007/s10904-014-0131-z
Article source: Figure 5b
Adsorbate Carbon Dioxide: InChIKey CURLTUGMZLYLDI-UHFFFAOYSA-N
Kind: experiment
Temperature: 298 K
Tabular data in the source: 0
pressure (bar)	uptake (mmol/g)
0.050643	0.120471
0.101269	0.222134
0.133269	0.315049
0.135987	0.380784
0.178617	0.46392
0.181228	0.407401
0.218563	0.518937
0.218614	0.575362
0.263862	0.611383
0.263929	0.686616
0.303866	0.73223
0.303916	0.788654
0.338533	0.834455
0.346513	0.834174
0.381157	0.908187
0.386518	0.95502
0.426513	1.06646
0.429114	1.00054
0.466451	1.11208
0.469144	1.1496
0.509065	1.1764
0.511791	1.25154
0.554388	1.29706
0.557098	1.35339
0.594359	1.38029
0.597086	1.45543
0.639715	1.53857
0.679695	1.6312
0.719674	1.72383
0.762312	1.81637
0.807603	1.89942
0.844905	1.97334
0.874204	2.01932
0.890187	2.04697
0.916834	2.10246
0.930166	2.13961
0.951486	2.18588
0.972813	2.24155
1.01543	2.30588
