Adsorption isotherm of Carbon Dioxide on ZIF-8-90 0%
DOI: 10.1007/s10904-014-0131-z
Article source: Figure 5a
Adsorbate Carbon Dioxide: InChIKey CURLTUGMZLYLDI-UHFFFAOYSA-N
Kind: experiment
Temperature: 273 K
Tabular data in the source: 0
pressure (bar)	uptake (mmol/g)
0	0
0.038738	0.065868
0.06198	0.164671
0.069728	0.082335
0.118796	0.230539
0.167864	0.345808
0.170446	0.247006
0.222096	0.428144
0.273747	0.494012
0.276329	0.411677
0.32798	0.576347
0.37963	0.658683
0.384795	0.55988
0.431281	0.741018
0.433863	0.642216
0.485513	0.806886
0.488096	0.724551
0.537164	0.872754
0.539746	0.823353
0.588813	0.95509
0.593979	0.872754
0.64563	1.00449
0.648212	0.988024
0.702445	1.11976
0.751512	1.2021
0.803162	1.26796
0.836735	1.3503
0.854812	1.33383
0.890968	1.43263
0.909045	1.43263
0.942618	1.51497
0.963278	1.51497
1.01751	1.63024
