Adsorption isotherm of Carbon Dioxide on ZIF-8-90 50%
DOI: 10.1007/s10904-014-0131-z
Article source: Figure 5a
Adsorbate Carbon Dioxide: InChIKey CURLTUGMZLYLDI-UHFFFAOYSA-N
Kind: experiment
Temperature: 273 K
Tabular data in the source: 0
pressure (bar)	uptake (mmol/g)
0	0
0.051459	0.408436
0.064379	0.391869
0.108151	0.669471
0.113355	0.587546
0.157074	0.979732
0.167442	0.897728
0.213736	1.30624
0.267815	1.63279
0.267891	1.4691
0.319319	1.94302
0.321979	1.77928
0.370832	2.23687
0.378641	2.1058
0.424934	2.51431
0.430146	2.41602
0.473841	2.85731
0.484234	2.7262
0.535692	3.13464
0.535745	3.02005
0.582047	3.4122
0.589847	3.2975
0.641337	3.64045
0.643958	3.55857
0.69029	3.88524
0.690343	3.77066
0.747021	4.06443
0.747036	4.03169
0.798557	4.30917
0.79858	4.26007
0.839808	4.45586
0.852713	4.47203
0.886202	4.65158
0.901697	4.65134
0.940365	4.79807
0.958443	4.79779
1.01001	4.97706
