Adsorption isotherm of Nitrogen on ZIF-8-90 100%
DOI: 10.1007/s10904-014-0131-z
Article source: Figure 4
Adsorbate Nitrogen: InChIKey IJGRMHOSHXDMSA-UHFFFAOYSA-N
Kind: experiment
Temperature: 77 K
Tabular data in the source: 0
pressure (bar)	uptake (cm3(STP)/g)
0.002301	15.3712
0.003609	118.856
0.004373	179.308
0.007058	58.4088
0.007477	258.204
0.014185	288.949
0.016175	279.729
0.052155	293.086
0.08166	294.14
0.121698	295.205
0.155416	296.264
0.195454	297.329
0.231253	296.34
0.283956	299.467
0.31129	295.397
0.321862	298.481
0.330391	306.687
0.35766	297.493
0.360207	332.331
0.394068	344.661
0.406591	335.452
0.425744	350.84
0.46162	356
0.488954	351.929
0.493245	358.081
0.522738	358.111
0.569121	361.231
0.579628	359.193
0.600733	362.288
0.613333	359.227
0.630237	363.342
0.655478	360.294
0.666062	364.403
0.7019	366.488
0.710274	362.399
0.735631	368.572
0.758739	363.472
0.769336	368.606
0.807254	368.644
0.84096	368.678
0.861961	363.577
0.876784	369.739
0.921023	369.784
0.954701	367.769
1.0095	369.873
