Adsorption isotherm of N-propane on Cu(hfipbb)(H2hfipbb)0.5
DOI: 10.1002/anie.200503503
Adsorbate N-propane: InChIKey ATUOYWHBWRKTHZ-UHFFFAOYSA-N
Temperature: 378 K
Tabular data in the source: 0
pressure (bar)	uptake (mmol/g)
0.011735	0.0248301
0.068454	0.131259
0.162334	0.234226
0.252302	0.299979
0.348138	0.355115
0.434194	0.381881
0.53003	0.401582
0.621954	0.424818
0.70801	0.442726
0.799934	0.458875
0.8723	0.466122
