Adsorption isotherm of N-propane on Cu(hfipbb)(H2hfipbb)0.5
DOI: 10.1002/anie.200503503
Adsorbate N-propane: InChIKey ATUOYWHBWRKTHZ-UHFFFAOYSA-N
Temperature: 318 K
Tabular data in the source: 0
pressure (bar)	uptake (mmol/g)
0.00977915	0.0478581
0.0664982	0.292481
0.162334	0.427344
0.252302	0.484238
0.346182	0.528739
0.432238	0.548418
0.528074	0.557489
0.62391	0.571875
0.700187	0.570273
0.792111	0.581106
0.874256	0.57243
