Adsorption isotherm of N-Butane on Cu(hfipbb)(H2hfipbb)0.5
DOI: 10.1002/anie.200503503
Adsorbate N-Butane: InChIKey IJDNQMDRQITEOD-UHFFFAOYSA-N
Temperature: 333 K
Tabular data in the source: 0
pressure (bar)	uptake (mmol/g)
0.00780424	0.0260077
0.0838955	0.330098
0.179497	0.458136
0.271197	0.508151
0.362897	0.566169
0.450695	0.602179
0.528737	0.614183
0.622388	0.646192
0.708234	0.642191
0.796032	0.660197
0.872123	0.656195
