Adsorption isotherm of N-Butane on Cu(hfipbb)(H2hfipbb)0.5
DOI: 10.1002/anie.200503503
Adsorbate N-Butane: InChIKey IJDNQMDRQITEOD-UHFFFAOYSA-N
Temperature: 378 K
Tabular data in the source: 0
pressure (bar)	uptake (mmol/g)
0.0838955	0.0600179
0.177546	0.110033
0.273148	0.152045
0.355093	0.192057
0.450695	0.240072
0.526786	0.27008
0.622388	0.298089
0.712137	0.342102
0.803836	0.36811
0.872123	0.36811
