Adsorption isotherm of N-propane on Cu(hfipbb)(H2hfipbb)0.5
DOI: 10.1002/anie.200503503
Adsorbate N-propane: InChIKey ATUOYWHBWRKTHZ-UHFFFAOYSA-N
Temperature: 393 K
Tabular data in the source: 0
pressure (bar)	uptake (mmol/g)
0.0664982	0.0727877
0.162334	0.161586
0.256214	0.214945
0.34227	0.266516
0.432238	0.307465
0.522206	0.337783
0.612175	0.348613
0.711922	0.373638
0.797978	0.377372
0.8723	0.382852
