Adsorption isotherm of N-propane on Cu(hfipbb)(H2hfipbb)0.5
DOI: 10.1002/anie.200503503
Adsorbate N-propane: InChIKey ATUOYWHBWRKTHZ-UHFFFAOYSA-N
Temperature: 408 K
Tabular data in the source: 0
pressure (bar)	uptake (mmol/g)
0.068454	0.0320426
0.168201	0.101361
0.254258	0.122812
0.344226	0.176163
0.438106	0.201175
0.531986	0.231502
0.621954	0.265364
0.706054	0.269093
0.794067	0.287005
0.870344	0.294261
