Adsorption isotherm of N-Butane on Cu(hfipbb)(H2hfipbb)0.5
DOI: 10.1002/anie.200503503
Adsorbate N-Butane: InChIKey IJDNQMDRQITEOD-UHFFFAOYSA-N
Temperature: 348 K
Tabular data in the source: 0
pressure (bar)	uptake (mmol/g)
0.0858466	0.216064
0.177546	0.3341
0.263393	0.418125
0.34924	0.47014
0.448744	0.508151
0.524835	0.546163
0.622388	0.57217
0.708234	0.592176
0.803836	0.608181
0.870172	0.606181
