Adsorption isotherm of N-Butane on Cu(hfipbb)(H2hfipbb)0.5
DOI: 10.1002/anie.200503503
Adsorbate N-Butane: InChIKey IJDNQMDRQITEOD-UHFFFAOYSA-N
Temperature: 363 K
Tabular data in the source: 0
pressure (bar)	uptake (mmol/g)
0.0799934	0.128038
0.173644	0.204061
0.261442	0.26808
0.347289	0.324097
0.437037	0.376112
0.526786	0.416124
0.624339	0.450134
0.712137	0.466139
0.797983	0.488145
0.874074	0.50415
