Adsorption isotherm of N-Butane on Cu(hfipbb)(H2hfipbb)0.5
DOI: 10.1002/anie.200503503
Adsorbate N-Butane: InChIKey IJDNQMDRQITEOD-UHFFFAOYSA-N
Temperature: 408 K
Tabular data in the source: 0
pressure (bar)	uptake (mmol/g)
0.0838955	0.0240072
0.181448	0.0380113
0.263393	0.0620185
0.355093	0.0760226
0.438988	0.10203
0.530688	0.106032
0.616535	0.118035
0.716039	0.132039
0.797983	0.150045
0.874074	0.158047
