Adsorption isotherm of N-propane on Cu(hfipbb)(H2hfipbb)0.5
DOI: 10.1002/anie.200503503
Adsorbate N-propane: InChIKey ATUOYWHBWRKTHZ-UHFFFAOYSA-N
Temperature: 348 K
Tabular data in the source: 0
pressure (bar)	uptake (mmol/g)
0	0.0708687
0.068454	0.267681
0.170157	0.402557
0.252302	0.457662
0.344226	0.502159
0.43615	0.500591
0.524162	0.527361
0.612175	0.522241
0.706054	0.518906
0.799934	0.542146
0.870344	0.535215
