Adsorption isotherm of N-Butane on Cu(hfipbb)(H2hfipbb)0.5
DOI: 10.1002/anie.200503503
Adsorbate N-Butane: InChIKey IJDNQMDRQITEOD-UHFFFAOYSA-N
Temperature: 393 K
Tabular data in the source: 0
pressure (bar)	uptake (mmol/g)
0.0838955	0.0380113
0.175595	0.0700209
0.273148	0.0980292
0.358995	0.118035
0.438988	0.142042
0.524835	0.178053
0.616535	0.194058
0.710185	0.226067
0.796032	0.242072
0.872123	0.262078
