Adsorption isotherm of N-propane on Cu(hfipbb)(H2hfipbb)0.5
DOI: 10.1002/anie.200503503
Adsorbate N-propane: InChIKey ATUOYWHBWRKTHZ-UHFFFAOYSA-N
Temperature: 363 K
Tabular data in the source: 0
pressure (bar)	uptake (mmol/g)
0.00782332	0.0425386
0.068454	0.202128
0.162334	0.326356
0.252302	0.397424
0.354005	0.433083
0.442017	0.463398
0.53003	0.48131
0.610219	0.495661
0.700187	0.504719
0.796023	0.512018
0.8723	0.517502
