Adsorption isotherm of Nitrogen on SALI-PPA
DOI: 10.1021/ic502639v
Article source: Figure 4b
Adsorbate Nitrogen: InChIKey IJGRMHOSHXDMSA-UHFFFAOYSA-N
Kind: experiment
Temperature: 77 K
Tabular data in the source: 0
pressure (bar)	uptake (cm3(STP)/g)
0	0
0.001919	191.301
0.003838	301.442
0.009595	322.687
0.01919	363.248
0.028786	382.554
0.047976	405.706
0.080599	436.561
0.105547	453.905
0.149684	486.671
0.195742	525.231
0.222608	596.677
0.234123	658.491
0.249474	673.92
0.303207	698.939
0.364616	706.551
0.41835	710.313
0.452892	712.18
0.504706	715.946
0.529653	717.83
0.556519	717.779
0.606415	719.616
0.656309	721.454
0.708124	723.287
0.733071	725.172
0.759938	725.121
0.807913	726.962
0.859727	728.795
0.909622	730.632
0.940326	732.506
0.999816	743.987
