Adsorption isotherm of Nitrogen on SALI-PPA
DOI: 10.1021/ic502639v
Article source: Figure 3a
Adsorbate Nitrogen: InChIKey IJGRMHOSHXDMSA-UHFFFAOYSA-N
Kind: experiment
Temperature: 77 K
Tabular data in the source: 0
pressure (bar)	uptake (mmol/g)
0.0001	72.1155
0.000156	112.5
0.000303	217.789
0.002289	152.881
0.002768	191.831
0.002853	252.408
0.00412	263.948
0.004144	281.256
0.006662	292.798
0.006678	304.336
0.011699	317.324
0.019247	347.624
0.029285	369.272
0.049334	393.82
0.084402	424.159
0.098178	435.717
0.14701	468.959
0.194598	506.527
0.199613	515.188
0.215942	562.807
0.222254	604.643
0.223529	621.953
0.249855	662.375
0.308672	679.766
0.367472	684.177
0.420017	688.579
0.456296	690.073
0.506337	693.028
0.532607	693.066
0.556377	694.542
0.607668	697.5
0.657708	699.013
0.707747	700.527
0.736518	700.568
0.759035	700.6
0.809076	703.556
0.860368	706.513
0.910409	709.469
0.940432	709.512
1.00049	722.578
