Adsorption isotherm of Nitrogen on SALI-PPA@2
DOI: 10.1021/ic502639v
Article source: Figure 3a
Adsorbate Nitrogen: InChIKey IJGRMHOSHXDMSA-UHFFFAOYSA-N
Kind: experiment
Temperature: 77 K
Tabular data in the source: 0
pressure (bar)	uptake (mmol/g)
0.000159	114.125
0.000325	234.029
0.000956	212.358
0.00101	173.353
0.001046	147.35
0.001147	75.1188
0.001203	34.6692
0.001249	1.44284
0.00163	273.036
0.001655	290.372
0.002948	320.71
0.00546	327.937
0.005474	338.05
0.007987	346.721
0.010507	359.726
0.020569	398.745
0.030607	420.429
0.051906	445.018
0.081967	472.509
0.0995	486.98
0.147081	520.274
0.194669	557.902
0.202185	565.136
0.228504	601.289
0.233572	647.524
0.244883	685.1
0.252411	701.002
0.260008	767.465
0.31006	777.649
0.371363	783.515
0.420157	789.363
0.455185	790.858
0.505225	792.374
0.531498	795.3
0.556516	795.336
0.60656	799.741
0.657845	798.37
0.707887	801.33
0.732907	802.811
0.76043	804.294
0.810469	805.81
0.859257	807.325
0.910549	810.287
0.940574	811.774
1.00313	819.087
