Adsorption isotherm of Nitrogen on NU-1000
DOI: 10.1021/ic502639v
Article source: Figure 3a
Adsorbate Nitrogen: InChIKey IJGRMHOSHXDMSA-UHFFFAOYSA-N
Kind: experiment
Temperature: 77 K
Tabular data in the source: 0
pressure (bar)	uptake (mmol/g)
0	18.75
0.001252	76.4423
0.001252	236.538
0.002505	340.385
0.003757	360.577
0.00501	377.885
0.007515	387.981
0.008767	403.846
0.01503	432.692
0.016282	448.558
0.027554	468.75
0.047594	494.712
0.077653	519.231
0.105208	536.538
0.11147	542.308
0.120237	550.962
0.150296	572.596
0.160316	581.25
0.170336	587.019
0.179103	597.115
0.191628	602.885
0.204153	612.981
0.207911	620.192
0.21793	631.731
0.229202	640.385
0.242979	651.923
0.250495	662.019
0.259261	676.442
0.261767	708.173
0.263019	773.077
0.264272	837.981
0.280554	884.135
0.325642	891.346
0.35946	897.115
0.400791	901.442
0.452143	907.212
0.502242	911.538
0.529796	912.981
0.554846	915.865
0.604944	918.75
0.656295	921.635
0.706394	925.962
0.733949	925.962
0.758998	927.404
0.806592	930.288
0.857943	930.288
0.909295	934.615
0.940607	936.058
1.00198	943.269
