Adsorption isotherm of Nitrogen on SALI-BA (pH 0.5)
DOI: 10.1021/ic502639v
Article source: Figure 4a
Adsorbate Nitrogen: InChIKey IJGRMHOSHXDMSA-UHFFFAOYSA-N
Kind: experiment
Temperature: 77 K
Tabular data in the source: 0
pressure (bar)	uptake (cm3(STP)/g)
0	0
0.001919	69.7373
0.003838	251.823
0.005757	290.568
0.007676	300.257
0.009595	308.009
0.011514	313.823
0.021109	342.897
0.028786	358.409
0.051814	383.634
0.084437	412.752
0.09979	424.404
0.143927	463.229
0.153523	469.059
0.193823	505.94
0.197661	519.506
0.207255	581.51
0.21877	629.958
0.232203	643.543
0.268665	649.424
0.310883	653.379
0.351183	657.33
0.404916	661.307
0.454811	663.339
0.506625	667.312
0.531572	669.297
0.558439	671.285
0.606415	673.314
0.658228	675.35
0.710043	677.386
0.73499	677.434
0.759938	679.419
0.809832	681.451
0.859727	683.484
0.909622	685.516
0.942245	687.516
1.00173	699.252
