Adsorption isotherm of Nitrogen on SALI-PPA (pH 2)
DOI: 10.1021/ic502639v
Article source: Figure 4b
Adsorbate Nitrogen: InChIKey IJGRMHOSHXDMSA-UHFFFAOYSA-N
Kind: experiment
Temperature: 77 K
Tabular data in the source: 0
pressure (bar)	uptake (cm3(STP)/g)
0	0
0.001915	171.977
0.003831	222.215
0.005746	251.197
0.007662	276.314
0.009577	289.837
0.011492	299.495
0.013408	311.086
0.02107	340.056
0.030646	355.497
0.051716	382.51
0.078532	405.647
0.097686	421.07
0.147487	455.757
0.195372	498.178
0.214525	540.654
0.224103	573.486
0.229849	623.716
0.250918	654.594
0.317958	667.993
0.375419	671.748
0.421389	675.525
0.453951	677.395
0.503751	681.165
0.530567	681.114
0.557384	682.995
0.603353	684.84
0.656984	686.67
0.706785	686.575
0.733601	690.388
0.758501	690.341
0.804471	690.253
0.856187	694.019
0.907902	697.785
0.938549	699.659
0.996012	709.212
