Adsorption isotherm of Nitrogen on SALI-PPA (pH 0.5)
DOI: 10.1021/ic502639v
Article source: Figure 4b
Adsorbate Nitrogen: InChIKey IJGRMHOSHXDMSA-UHFFFAOYSA-N
Kind: experiment
Temperature: 77 K
Tabular data in the source: 0
pressure (bar)	uptake (cm3(STP)/g)
0	0
0.001919	230.508
0.005757	286.683
0.007676	306.053
0.009595	311.864
0.011514	323.487
0.017271	352.542
0.028786	373.85
0.047976	399.031
0.082518	428.087
0.095952	439.709
0.145846	474.576
0.189984	517.191
0.197661	526.877
0.214932	573.366
0.222608	614.044
0.232203	666.344
0.255232	677.966
0.320479	689.588
0.355022	691.525
0.402997	695.4
0.454811	699.274
0.504706	703.148
0.531572	703.148
0.556519	705.085
0.604496	707.022
0.656309	708.959
0.708124	710.896
0.73499	712.833
0.758018	714.77
0.809832	716.707
0.859727	718.644
0.909622	720.581
0.940326	722.518
0.999816	734.14
