Adsorption isotherm of Nitrogen on SALI-BA (pH 4)
DOI: 10.1021/ic502639v
Article source: Figure 4a
Adsorbate Nitrogen: InChIKey IJGRMHOSHXDMSA-UHFFFAOYSA-N
Kind: experiment
Temperature: 77 K
Tabular data in the source: 0
pressure (bar)	uptake (cm3(STP)/g)
0	0
0.001915	170.045
0.003831	239.606
0.005746	258.926
0.007662	278.246
0.009577	295.634
0.013408	307.221
0.019154	326.534
0.032562	343.899
0.049801	365.122
0.082362	390.181
0.101517	403.671
0.149402	438.362
0.195372	478.854
0.218356	525.187
0.222187	567.692
0.229849	619.852
0.256664	627.53
0.325619	640.925
0.358181	642.795
0.406066	644.636
0.453951	648.41
0.503751	650.247
0.532483	650.192
0.555468	652.081
0.605268	655.851
0.656984	655.752
0.7087	657.586
0.735516	659.467
0.758501	659.423
0.808302	661.26
0.858102	663.098
0.909818	664.932
0.938549	664.877
1.00176	676.35
