Adsorption isotherm of Nitrogen on SALI-PPA (pH 4)
DOI: 10.1021/ic502639v
Article source: Figure 4b
Adsorbate Nitrogen: InChIKey IJGRMHOSHXDMSA-UHFFFAOYSA-N
Kind: experiment
Temperature: 77 K
Tabular data in the source: 0
pressure (bar)	uptake (cm3(STP)/g)
0	0
0.001593	133.33
0.001686	94.6828
0.003196	262.796
0.003297	220.284
0.003316	212.554
0.00508	274.386
0.006945	293.707
0.006959	287.909
0.008829	305.297
0.008843	299.5
0.010727	311.091
0.01263	314.952
0.027804	365.164
0.046858	392.181
0.100291	432.659
0.146091	467.354
0.188054	507.854
0.199497	519.426
0.214671	569.639
0.222222	610.204
0.233572	660.424
0.267957	671.953
0.321474	677.648
0.348239	677.597
0.401756	683.292
0.451453	687.062
0.501155	688.899
0.529827	690.777
0.558504	690.722
0.608202	694.492
0.655997	694.401
0.705699	696.239
0.730553	696.191
0.757313	698.073
0.803196	697.985
0.856722	699.815
0.904513	701.657
0.937004	705.459
0.994326	718.877
