Adsorption isotherm of Nitrogen on SALI-BA (pH 2)
DOI: 10.1021/ic502639v
Article source: Figure 4a
Adsorbate Nitrogen: InChIKey IJGRMHOSHXDMSA-UHFFFAOYSA-N
Kind: experiment
Temperature: 77 K
Tabular data in the source: 0
pressure (bar)	uptake (cm3(STP)/g)
0	0
0.001915	62.1396
0.003831	178.648
0.005746	266.03
0.007662	279.626
0.009577	291.28
0.011492	300.993
0.019154	330.134
0.0249	339.854
0.032562	349.577
0.047885	370.966
0.084278	396.278
0.097686	407.954
0.147487	437.176
0.199202	476.11
0.222187	497.513
0.237511	551.911
0.241341	600.462
0.245172	641.247
0.252833	660.679
0.319873	668.574
0.363927	674.484
0.404151	676.503
0.453951	680.482
0.503751	684.461
0.530567	686.454
0.557384	688.447
0.607184	690.484
0.6589	692.525
0.706785	694.558
0.733601	694.61
0.758501	696.599
0.806386	698.633
0.858102	700.674
0.907902	702.711
0.940464	704.715
0.999842	716.479
