Adsorption isotherm of Nitrogen on SALI-BA (hot water)
DOI: 10.1021/ic502639v
Article source: Figure 4a
Adsorbate Nitrogen: InChIKey IJGRMHOSHXDMSA-UHFFFAOYSA-N
Kind: experiment
Temperature: 77 K
Tabular data in the source: 0
pressure (bar)	uptake (cm3(STP)/g)
0	0
0.001915	283.499
0.003831	291.269
0.005746	306.807
0.007662	312.636
0.009577	324.29
0.011492	334.003
0.019154	363.144
0.030646	380.641
0.053631	405.928
0.082362	431.226
0.099601	446.793
0.145571	483.774
0.189626	524.635
0.195372	532.413
0.203033	588.739
0.210695	635.355
0.239426	658.711
0.268157	664.592
0.331365	674.421
0.352435	678.345
0.402235	680.382
0.453951	682.423
0.505667	686.406
0.530567	686.454
0.555468	686.501
0.603353	690.477
0.655069	692.517
0.7087	694.562
0.731685	696.548
0.758501	696.599
0.806386	698.633
0.858102	702.615
0.907902	704.652
0.938549	706.653
0.999842	718.421
