Adsorption isotherm of Nitrogen on SALI-PPA (hot water)
DOI: 10.1021/ic502639v
Article source: Figure 4b
Adsorbate Nitrogen: InChIKey IJGRMHOSHXDMSA-UHFFFAOYSA-N
Kind: experiment
Temperature: 77 K
Tabular data in the source: 0
pressure (bar)	uptake (cm3(STP)/g)
0	0
0.001919	0
0.005757	267.312
0.007676	282.809
0.011514	311.864
0.01919	329.298
0.030705	348.668
0.053733	373.85
0.080599	397.094
0.09979	412.591
0.149684	447.458
0.195742	484.262
0.201499	492.01
0.214932	534.625
0.224527	588.862
0.241798	627.603
0.260989	637.288
0.324317	646.973
0.351183	648.91
0.402997	654.722
0.452892	658.596
0.504706	662.47
0.531572	662.47
0.558439	664.407
0.606415	668.281
0.658228	670.218
0.708124	674.092
0.73499	674.092
0.759938	676.029
0.809832	677.966
0.859727	679.903
0.911541	681.84
0.940326	683.777
0.999816	695.4
