Adsorption isotherm of Nitrogen on SALI-BA
DOI: 10.1021/ic502639v
Article source: Figure 3a
Adsorbate Nitrogen: InChIKey IJGRMHOSHXDMSA-UHFFFAOYSA-N
Kind: experiment
Temperature: 77 K
Tabular data in the source: 0
pressure (bar)	uptake (mmol/g)
0	269.712
0.001249	31.729
0.001249	243.752
0.003748	297.121
0.004998	344.719
0.006247	353.374
0.009995	369.245
0.011244	372.131
0.018741	405.315
0.029985	426.966
0.051225	455.842
0.082459	486.175
0.099951	502.065
0.108696	509.289
0.12119	517.961
0.146178	543.958
0.158672	555.514
0.168667	565.625
0.179912	577.179
0.189906	587.29
0.197402	616.146
0.20115	646.44
0.2024	682.5
0.206149	712.793
0.214894	718.575
0.231135	724.367
0.247378	727.275
0.257373	727.289
0.267368	728.746
0.274864	731.641
0.28361	731.654
0.292356	731.666
0.294855	733.112
0.307348	733.13
0.354825	738.967
0.403551	743.363
0.452277	747.759
0.503501	750.717
0.529738	752.196
0.555975	755.118
0.603452	756.628
0.655926	761.03
0.705902	762.543
0.732139	762.581
0.758376	764.06
0.805852	767.012
0.859575	768.531
0.907052	771.483
0.939536	772.972
1.00326	784.601
