Adsorption isotherm of Carbon Dioxide on [Co(L-RR)(H2O)*H2O]
DOI: 10.1039/C2jm16236a
Adsorbate Carbon Dioxide: InChIKey CURLTUGMZLYLDI-UHFFFAOYSA-N
Temperature: 273 K
Tabular data in the source: 0
pressure (bar)	uptake (cm3(STP)/g)
0.00533325	0.0218475
0.0925097	0.1442
0.194216	0.289495
0.301733	0.480671
0.403439	0.702436
0.519674	0.970083
0.62138	1.25302
0.728898	1.5742
0.850945	1.95655
0.961369	2.37714
1.06889	2.75949
1.15897	3.10361
1.2258	3.37891
