Adsorption isotherm of Carbon Dioxide on MIL-53(Al)
DOI: 10.1016/j.micromeso.2013.03.015
Adsorbate Carbon Dioxide: InChIKey CURLTUGMZLYLDI-UHFFFAOYSA-N
Temperature: 318 K
Tabular data in the source: 0
pressure (bar)	uptake (mmol/g)
11.1886	4.63604
15.5527	5.31449
22.5638	5.87986
33.9577	6.78445
39.2239	7.06714
43.6128	7.29329
50.6426	7.51943
99.87	8.76325
124.54	8.36749
149.188	8.36749
174.716	8.36749
200.244	8.36749
224.889	8.42403
