Adsorption isotherm of Carbon Dioxide on Fe-BTC
DOI: 10.1016/j.micromeso.2013.03.015
Adsorbate Carbon Dioxide: InChIKey CURLTUGMZLYLDI-UHFFFAOYSA-N
Temperature: 318 K
Tabular data in the source: 0
pressure (bar)	uptake (mmol/g)
1.74825	0.565371
5.24476	2.14841
10.4895	3.36396
15.7343	4.18375
20.1049	4.80565
25.3497	5.28622
30.5944	5.68198
34.965	5.96466
40.2098	6.21908
45.4545	6.41696
50.6993	6.5583
76.049	7.0106
99.6503	7.26502
125	7.23675
150.35	7.23675
175.699	7.23675
199.301	7.26502
224.65	7.20848
