Adsorption isotherm of Carbon Dioxide on CuBTC
DOI: 10.1016/j.micromeso.2013.03.015
Adsorbate Carbon Dioxide: InChIKey CURLTUGMZLYLDI-UHFFFAOYSA-N
Temperature: 338 K
Tabular data in the source: 0
pressure (bar)	uptake (mmol/g)
0	0
4.24028	6.57244
9.54064	9.46996
14.841	11.0247
19.0813	11.8728
25.4417	12.5088
30.742	12.9329
34.9823	13.2862
40.2827	13.5689
45.583	13.7809
50.8834	13.9929
74.2049	14.629
99.6466	14.9823
125.088	15.265
149.47	15.4064
174.912	15.3357
200.353	15.265
224.735	15.265
