Adsorption isotherm of Carbon Dioxide on CuBTC
DOI: 10.1016/j.micromeso.2013.03.015
Adsorbate Carbon Dioxide: InChIKey CURLTUGMZLYLDI-UHFFFAOYSA-N
Temperature: 318 K
Tabular data in the source: 0
pressure (bar)	uptake (mmol/g)
0	2.40283
4.24028	8.69258
9.54064	11.4488
13.7809	12.6502
19.0813	13.4276
23.3216	13.8516
28.6219	14.2049
32.8622	14.4876
38.1625	14.7703
43.4629	14.841
48.7633	15.053
75.265	15.5477
99.6466	16.1837
125.088	16.1837
149.47	16.2544
174.912	16.3251
200.353	16.3958
224.735	16.3958
