Adsorption isotherm of Carbon Dioxide on Fe-BTC
DOI: 10.1016/j.micromeso.2013.03.015
Adsorbate Carbon Dioxide: InChIKey CURLTUGMZLYLDI-UHFFFAOYSA-N
Temperature: 338 K
Tabular data in the source: 0
pressure (bar)	uptake (mmol/g)
-1.42109e-14	1.77636e-15
0.914388	0.339223
4.55644	1.55477
9.93119	2.57244
15.2749	3.30742
20.6032	3.90106
25.0418	4.38163
30.3484	4.77739
34.7716	5.11661
40.0595	5.34276
45.3475	5.5689
50.6323	5.76678
75.2557	6.33216
100.725	6.61484
125.308	6.81272
149.87	6.81272
175.299	6.72792
199.861	6.72792
225.293	6.67138
