Adsorption isotherm of Carbon Dioxide on MIL-53(Al)
DOI: 10.1016/j.micromeso.2013.03.015
Adsorbate Carbon Dioxide: InChIKey CURLTUGMZLYLDI-UHFFFAOYSA-N
Temperature: 328 K
Tabular data in the source: 0
pressure (bar)	uptake (mmol/g)
10.327	4.29682
16.4485	5.0318
19.951	5.37102
24.3275	5.82332
34.8442	6.67138
75.247	8.31095
100.676	10.1201
125.327	10.0636
149.993	9.72438
174.632	9.89399
200.157	9.95053
225.679	10.0636
