Adsorption isotherm of Carbon Dioxide on CuBTC
DOI: 10.1016/j.micromeso.2013.03.015
Adsorbate Carbon Dioxide: InChIKey CURLTUGMZLYLDI-UHFFFAOYSA-N
Temperature: 328 K
Tabular data in the source: 0
pressure (bar)	uptake (mmol/g)
0	1.90813
4.24028	7.56184
9.54064	10.4594
15.9011	11.8728
19.0813	12.7208
24.3816	13.3569
28.6219	13.6396
33.9223	14.0636
41.3428	14.417
46.6431	14.4876
50.8834	14.629
74.2049	15.1237
99.6466	15.5477
125.088	15.8304
149.47	15.7597
174.912	15.7597
200.353	15.7597
224.735	15.8304
