Adsorption isotherm of Carbon Dioxide on MIL-53(Al)
DOI: 10.1016/j.micromeso.2013.03.015
Adsorbate Carbon Dioxide: InChIKey CURLTUGMZLYLDI-UHFFFAOYSA-N
Temperature: 338 K
Tabular data in the source: 0
pressure (bar)	uptake (mmol/g)
0	-0.0567376
0.883392	0.964739
5.30035	3.0083
9.71731	4.20079
14.1343	4.88264
19.4346	5.33774
24.735	5.79285
30.9187	6.13468
35.3357	6.53284
38.8693	6.81733
45.053	7.15916
49.47	7.38711
75.0883	8.98158
99.8233	11.9943
125.442	13.6455
150.177	13.6511
174.912	13.6
199.647	13.6623
225.265	13.6681
