Adsorption isotherm of Carbon Dioxide on Fe-BTC
DOI: 10.1016/j.micromeso.2013.03.015
Adsorbate Carbon Dioxide: InChIKey CURLTUGMZLYLDI-UHFFFAOYSA-N
Temperature: 328 K
Tabular data in the source: 0
pressure (bar)	uptake (mmol/g)
1.74825	0.480565
4.37063	1.86572
11.3636	2.9682
15.7343	3.75972
20.979	4.38163
25.3497	4.86219
30.5944	5.22968
35.8392	5.54064
41.0839	5.82332
45.4545	6.0212
50.6993	6.19081
75.1748	6.69965
100.524	6.98233
125.874	7.03887
150.35	6.95406
174.825	6.95406
200.175	6.98233
225.524	6.95406
