Adsorption isotherm of Methane on Carbon
DOI: 10.1016/j.jpowsour.2009.02.019
Adsorbate Methane: InChIKey VNWKTOKETHGBQD-UHFFFAOYSA-N
Temperature: 290 K
Tabular data in the source: 0
pressure (bar)	uptake (wt%)
0.271879	1.85241
0.808119	3.84702
0.934348	2.56421
1.60559	5.27125
1.87339	6.1973
2.66867	7.12272
3.4652	8.33318
5.05387	9.75647
7.30189	11.179
10.2086	12.4582
14.3009	13.4509
19.844	14.5132
25.1206	14.9345
30.2653	15.356
36.8653	16.8446
43.1952	16.9083
49.5252	16.9721
55.0648	17.2505
57.7022	17.2474
