Adsorption isotherm of Methane on Carbon
DOI: 10.1016/j.jpowsour.2009.02.019
Adsorbate Methane: InChIKey VNWKTOKETHGBQD-UHFFFAOYSA-N
Temperature: 280 K
Tabular data in the source: 0
pressure (bar)	uptake (wt%)
0.275951	2.77877
0.411577	3.63372
0.810625	4.41709
1.07749	5.12936
1.47748	6.12651
2.00965	7.19476
2.5415	8.19176
3.46927	9.25954
4.26486	10.2562
5.85322	11.6083
8.36528	13.1017
11.5364	14.5231
16.2889	15.7289
21.5677	16.649
27.1093	17.355
33.4417	17.9888
40.1669	17.9808
46.3647	17.9734
52.5619	17.8236
56.3879	18.2466
58.1012	18.0308
