Adsorption isotherm of Methane on Carbon
DOI: 10.1016/j.jpowsour.2009.02.019
Adsorbate Methane: InChIKey VNWKTOKETHGBQD-UHFFFAOYSA-N
Temperature: 298 K
Tabular data in the source: 0
pressure (bar)	uptake (wt%)
2.51928	3.13423
3.95887	4.34566
4.67866	5.27166
5.9383	6.12703
8.45758	7.48191
9.35733	8.05222
10.2571	8.62253
11.5167	9.1932
12.9563	9.69289
14.5758	10.2639
15.8355	10.7634
17.2751	11.1919
19.6144	12.0484
21.054	12.3346
22.6735	12.7633
24.653	13.05
26.6324	13.479
28.7918	13.8371
30.4113	14.1946
32.3907	14.5525
34.7301	14.7684
41.928	15.701
43.5476	15.9873
44.9871	16.06
46.9666	16.4179
49.8458	16.7055
52.0051	16.9212
54.1645	17.1369
55.964	17.2099
58.6632	17.0703
59.9229	17.2851
