Adsorption isotherm of Methane on Carbon
DOI: 10.1016/j.jpowsour.2009.02.019
Adsorbate Methane: InChIKey VNWKTOKETHGBQD-UHFFFAOYSA-N
Temperature: 298 K
Tabular data in the source: 0
pressure (bar)	uptake (wt%)
0.359897	0.925633
0.899743	1.49558
1.61954	2.70627
2.69923	3.91734
3.77892	4.8437
4.67866	5.62753
7.01799	6.98222
7.73779	7.41
8.63753	7.90914
9.17738	8.33673
9.89717	8.62216
12.0566	9.40728
13.856	10.3344
16.0154	11.0483
18.3548	11.6913
19.9743	12.1911
21.7738	12.6912
24.1131	13.263
25.9126	13.6207
27.7121	14.0495
29.8715	14.4788
31.8509	14.7655
33.8303	15.0522
35.9897	15.4103
37.9692	15.6258
39.7686	15.9123
41.7481	16.0567
43.9075	16.4148
46.0668	16.4881
47.6864	16.8456
49.8458	16.919
51.8252	17.0634
53.8046	17.2789
55.6041	17.3519
57.7635	17.4965
59.7429	17.5696
61.9023	17.9277
