Adsorption isotherm of Methane on Carbon
DOI: 10.1016/j.jpowsour.2009.02.019
Adsorbate Methane: InChIKey VNWKTOKETHGBQD-UHFFFAOYSA-N
Temperature: 298 K
Tabular data in the source: 0
pressure (bar)	uptake (wt%)
1.97422	3.36842
2.86798	4.49123
3.93603	5.33333
5.71239	6.31579
6.60243	7.01754
8.02091	7.50877
9.43815	7.85965
10.8566	8.35088
12.2733	8.63158
13.5125	8.84211
14.9297	9.19298
16.6993	9.40351
17.4076	9.54386
18.823	9.68421
20.239	9.89474
21.4788	10.1754
23.2484	10.386
25.194	10.5263
26.9636	10.7368
29.0848	10.7368
31.2072	10.8772
32.7988	10.9474
34.9212	11.0877
36.5128	11.1579
38.6346	11.2281
40.2255	11.2281
42.1706	11.2982
45.353	11.3684
47.1213	11.4386
50.3031	11.4386
52.4243	11.4386
54.37	11.5789
56.4925	11.7193
58.6137	11.7193
60.3807	11.6491
62.327	11.8596
