Adsorption isotherm of Methane on Carbon
DOI: 10.1016/j.jpowsour.2009.02.019
Adsorbate Methane: InChIKey VNWKTOKETHGBQD-UHFFFAOYSA-N
Temperature: 240 K
Tabular data in the source: 0
pressure (bar)	uptake (wt%)
0.0175406	3.99048
0.145023	2.9927
0.284408	4.70275
0.28754	5.41534
0.4216	5.91399
0.425672	6.84035
0.560985	7.62404
0.696924	8.55024
1.0966	9.47613
1.23348	10.6161
1.6344	11.827
2.29875	12.9664
2.96404	14.3195
4.02399	15.4584
5.4808	16.8819
7.86036	18.2329
10.8983	19.3695
15.1222	20.2908
20.4009	21.2109
25.6778	21.7035
31.0844	21.697
37.5459	21.6894
43.8755	21.6819
49.9405	21.4609
55.083	21.3835
57.3251	21.4521
