Adsorption isotherm of Methane on Carbon
DOI: 10.1016/j.jpowsour.2009.02.019
Adsorbate Methane: InChIKey VNWKTOKETHGBQD-UHFFFAOYSA-N
Temperature: 298 K
Tabular data in the source: 0
pressure (bar)	uptake (wt%)
4.04441	5.68493
5.09433	6.57534
5.79566	7.32877
6.84439	8.08219
8.41183	8.56164
9.63306	9.17808
10.5057	9.65753
12.0743	10.274
13.2944	10.7534
14.8618	11.2329
16.0813	11.6438
17.6481	12.0548
19.0401	12.3288
19.7372	12.6027
21.4766	12.8767
23.0423	13.1507
24.9559	13.4932
26.8684	13.6986
28.9551	13.9726
30.8681	14.2466
32.7806	14.4521
34.8668	14.6575
36.4324	14.9315
38.5186	15.137
40.2567	15.274
42.3417	15.3425
44.2541	15.5479
46.6871	15.6849
48.2521	15.8904
50.6845	15.9589
52.7695	16.0274
54.507	16.0959
56.4183	16.1644
58.5027	16.1644
61.8035	16.2329
