Adsorption isotherm of Methane on Carbon
DOI: 10.1016/j.jpowsour.2009.02.019
Adsorbate Methane: InChIKey VNWKTOKETHGBQD-UHFFFAOYSA-N
Temperature: 200 K
Tabular data in the source: 0
pressure (bar)	uptake (wt%)
0.175719	9.97604
0.316043	11.8999
0.453549	13.1824
0.45856	14.3225
0.857921	15.1771
0.861993	16.1035
0.998559	17.1722
1.39917	18.3119
1.79916	19.309
2.33133	20.3773
2.99505	21.3741
4.05406	22.2992
5.64086	23.295
7.88699	24.2899
10.9231	24.9989
15.2772	25.5638
20.6847	25.7712
