Adsorption isotherm of Methane on Carbon
DOI: 10.1016/j.jpowsour.2009.02.019
Adsorbate Methane: InChIKey VNWKTOKETHGBQD-UHFFFAOYSA-N
Temperature: 298 K
Tabular data in the source: 0
pressure (bar)	uptake (wt%)
5.72417	7.64912
7.50053	8.63158
9.09826	9.40351
10.162	9.75439
10.8703	9.89474
12.1132	10.5263
13.5317	11.0175
14.9514	11.6491
16.3693	12.0702
17.7865	12.4211
18.8503	12.7719
20.0901	13.0526
21.5074	13.4035
23.2794	13.8947
25.2263	14.1754
27.1745	14.5965
29.122	14.9474
31.0702	15.3684
32.8403	15.6491
34.9628	15.7895
36.5562	16.0702
38.6792	16.2807
40.2714	16.4211
41.8648	16.7018
43.2789	16.7018
44.8717	16.9123
46.4626	16.9123
48.9386	17.0526
50.5301	17.1228
51.9449	17.193
54.0655	17.1228
56.0118	17.3333
57.2498	17.4035
59.1942	17.4035
61.1387	17.4035
