Adsorption isotherm of Methane on Carbon
DOI: 10.1016/j.jpowsour.2009.02.019
Adsorbate Methane: InChIKey VNWKTOKETHGBQD-UHFFFAOYSA-N
Temperature: 298 K
Tabular data in the source: 0
pressure (bar)	uptake (wt%)
0.13406	0.498653
0.268746	1.13982
0.537493	2.27965
0.673746	3.27711
1.20685	4.55914
1.73714	5.19984
2.53242	6.12526
3.06396	7.05099
4.12329	8.04736
5.71165	9.39939
8.09058	10.608
11.2604	11.7443
15.8805	12.8077
21.158	13.4428
26.5667	13.9352
31.7121	14.4992
38.1777	15.4178
44.6423	16.1228
50.7098	16.4718
55.5901	16.7511
57.5688	16.8912
