Adsorption isotherm of Methane on Carbon
DOI: 10.1016/j.jpowsour.2009.02.019
Adsorbate Methane: InChIKey VNWKTOKETHGBQD-UHFFFAOYSA-N
Temperature: 298 K
Tabular data in the source: 0
pressure (bar)	uptake (wt%)
0.24291	2.83235
1.14673	3.77708
2.5894	5.1418
2.95068	5.5092
3.49692	6.24388
4.39581	6.97882
5.28977	7.50396
6.35882	7.97679
7.60789	8.6071
9.02836	9.02774
10.8052	9.606
12.0469	9.92161
13.4661	10.2898
15.0617	10.6581
16.3033	10.9738
17.7189	11.1846
18.9593	11.4478
20.0222	11.6584
21.0863	11.9214
23.2072	12.1328
25.1517	12.344
27.0937	12.4504
29.2133	12.6093
30.9815	12.8204
32.9248	12.9792
34.8668	13.0856
36.4575	13.2441
38.3995	13.3504
40.1652	13.4567
42.8138	13.616
44.2256	13.6695
46.5203	13.7761
48.2848	13.8299
50.4007	13.8315
52.3416	13.8854
54.4599	13.9919
56.402	14.0982
58.3391	13.9948
59.7522	14.1007
