Adsorption isotherm of Methane on Carbon
DOI: 10.1016/j.jpowsour.2009.02.019
Adsorbate Methane: InChIKey VNWKTOKETHGBQD-UHFFFAOYSA-N
Temperature: 298 K
Tabular data in the source: 0
pressure (bar)	uptake (wt%)
7.49619	8.14035
8.73791	8.63158
10.8672	9.54386
12.1083	9.96491
13.3494	10.386
14.9446	10.8772
16.3619	11.2281
17.6017	11.5088
19.0177	11.7193
20.2576	12
21.4974	12.2807
23.0908	12.5614
25.0371	12.7719
26.9841	13.0526
29.1077	13.3333
31.054	13.5439
32.9997	13.6842
34.946	13.8947
36.5382	14.0351
38.4839	14.1754
40.2522	14.2456
41.8443	14.386
43.2585	14.386
44.4977	14.5965
46.4421	14.5965
47.8563	14.5965
49.6246	14.6667
51.2161	14.7368
53.3386	14.8772
54.9301	14.9474
57.2281	14.9474
59.1725	14.9474
60.9408	15.0175
