Adsorption isotherm of Methane on Carbon
DOI: 10.1016/j.jpowsour.2009.02.019
Adsorbate Methane: InChIKey VNWKTOKETHGBQD-UHFFFAOYSA-N
Temperature: 298 K
Tabular data in the source: 0
pressure (bar)	uptake (wt%)
0.197236	2.31579
1.08852	3.15789
1.80365	4.07018
3.4082	5.61404
4.47625	6.45614
5.36505	7.01754
6.25323	7.50877
7.14079	7.92982
8.20388	8.21053
8.91281	8.42105
10.8604	8.77193
12.1015	9.19298
13.3419	9.54386
15.1127	9.89474
16.3532	10.2456
17.5924	10.4561
19.1846	10.5965
20.0709	10.8772
21.3101	11.0877
23.2552	11.1579
25.2015	11.3684
27.1484	11.6491
29.0935	11.7193
31.0392	11.8596
33.1616	12
34.9305	12.1404
36.6982	12.1404
38.6439	12.2807
40.2348	12.2807
42.1792	12.2807
44.3011	12.3509
46.4229	12.4211
48.368	12.4912
51.1969	12.5614
54.3793	12.6316
56.3231	12.5614
58.2682	12.6316
60.2127	12.6316
62.1577	12.7018
