Adsorption isotherm of Methane on Carbon
DOI: 10.1016/j.jpowsour.2009.02.019
Adsorbate Methane: InChIKey VNWKTOKETHGBQD-UHFFFAOYSA-N
Temperature: 298 K
Tabular data in the source: 0
pressure (bar)	uptake (wt%)
0.179949	1.63719
0.899743	2.84789
1.79949	3.98759
2.33933	4.69989
3.23907	5.55489
4.31877	6.41009
5.9383	7.40817
7.19794	8.1212
8.45758	8.83422
10.437	9.61915
11.5167	10.1185
12.9563	10.6182
14.5758	11.2604
16.0154	11.5465
17.2751	12.046
18.5347	12.4032
19.6144	12.5466
21.054	12.904
22.8535	13.3328
24.8329	13.6196
26.6324	13.9061
28.6118	14.264
30.5913	14.5507
32.7506	14.6952
34.7301	14.9819
36.1697	15.1969
38.329	15.3415
40.1285	15.4856
41.928	15.5586
43.9075	15.703
46.2468	15.8477
48.2262	15.9921
49.6658	16.0647
52.365	16.2098
53.9846	16.2826
55.2442	16.3551
56.3239	16.3562
57.7635	16.5
59.7429	16.5732
60.8226	16.6455
