Adsorption isotherm of Methane on Carbon
DOI: 10.1016/j.jpowsour.2009.02.019
Adsorbate Methane: InChIKey VNWKTOKETHGBQD-UHFFFAOYSA-N
Temperature: 270 K
Tabular data in the source: 0
pressure (bar)	uptake (wt%)
0.546263	4.27489
0.682203	5.20109
1.08156	6.05572
1.34906	6.91051
1.88154	8.05002
2.41371	9.11827
3.34148	10.1861
4.13738	11.254
5.59419	12.6774
8.10625	14.1709
11.0133	15.5214
15.5018	16.6562
20.9121	17.5049
26.3218	18.211
31.4653	18.3474
37.9286	18.7673
44.2586	18.831
50.7204	18.8946
55.4686	19.1028
57.71	19.0288
