Adsorption isotherm of Methane on Carbon
DOI: 10.1016/j.jpowsour.2009.02.019
Adsorbate Methane: InChIKey VNWKTOKETHGBQD-UHFFFAOYSA-N
Temperature: 298 K
Tabular data in the source: 0
pressure (bar)	uptake (wt%)
0.179051	0.616438
0.710255	1.78082
1.06657	2.80822
1.76909	3.69863
2.46983	4.38356
3.17116	5.13699
3.69821	5.82192
4.57323	6.57534
5.27338	7.19178
6.67069	8.08219
7.89371	8.90411
8.76576	9.31507
9.63841	9.79452
10.8579	10.2055
11.9036	10.6164
13.4728	11.3014
14.866	11.7123
16.2597	12.1918
17.4786	12.5342
18.8711	12.8767
20.09	13.2192
21.4814	13.4247
23.0488	13.9041
25.1367	14.3151
27.0492	14.5205
28.9622	14.7945
30.701	15
32.9614	15.274
35.047	15.411
36.7858	15.6164
38.5233	15.6849
40.2615	15.8219
42.1733	15.9589
44.6063	16.0959
46.8661	16.3014
48.6043	16.4384
50.5162	16.5753
52.6029	16.8493
54.8616	16.9178
56.7716	16.8493
58.6823	16.8493
60.9428	17.1233
