Adsorption isotherm of Methane on Carbon
DOI: 10.1016/j.jpowsour.2009.02.019
Adsorbate Methane: InChIKey VNWKTOKETHGBQD-UHFFFAOYSA-N
Temperature: 298 K
Tabular data in the source: 0
pressure (bar)	uptake (wt%)
5.81381	7.29457
7.77065	8.0303
9.19359	8.55584
10.6153	9.02893
12.0345	9.39713
13.1023	9.81751
14.873	10.1335
16.291	10.4493
17.5302	10.66
18.7694	10.8707
19.8323	11.0813
21.4242	11.2923
23.0185	11.6082
24.7855	11.7668
26.9051	11.9258
28.8496	12.137
31.1443	12.2436
32.91	12.3498
35.0284	12.4563
36.4414	12.5623
38.7361	12.6689
40.148	12.7224
42.7965	12.8817
45.0888	12.8834
46.6794	13.042
48.2676	13.0956
50.3847	13.1496
52.6782	13.2038
54.6165	13.1528
56.7324	13.1544
58.3181	13.1031
59.9075	13.2092
