Adsorption isotherm of Methane on Carbon
DOI: 10.1016/j.jpowsour.2009.02.019
Adsorbate Methane: InChIKey VNWKTOKETHGBQD-UHFFFAOYSA-N
Temperature: 298 K
Tabular data in the source: 0
pressure (bar)	uptake (wt%)
11.1568	9.69106
13.856	10.6902
14.2159	10.6906
16.9152	11.9745
18.7147	12.4745
19.7943	12.7603
20.874	13.1885
21.7738	13.4029
23.0334	13.6889
23.9332	13.9745
25.0129	13.9756
26.0925	14.2614
26.9923	14.4758
27.892	14.6903
29.1517	14.8339
30.0514	15.1195
31.1311	15.1918
32.0308	15.4062
33.2905	15.621
34.91	15.9074
36.1697	16.1934
38.1491	16.3377
39.9486	16.6242
41.5681	16.8394
43.5476	16.9838
45.347	17.2703
47.1465	17.4145
49.6658	17.6306
51.1054	17.7032
53.2648	17.8478
56.3239	18.0644
58.4833	18.2089
60.1028	18.3529
