Adsorption isotherm of Methane on Carbon
DOI: 10.1016/j.jpowsour.2009.02.019
Adsorbate Methane: InChIKey VNWKTOKETHGBQD-UHFFFAOYSA-N
Temperature: 298 K
Tabular data in the source: 0
pressure (bar)	uptake (wt%)
0.18619	0.41972
0.203453	1.154
0.569667	1.7312
0.937115	2.36084
1.12947	3.0428
1.66954	3.51524
2.56967	4.30262
3.11467	4.98485
3.65721	5.56218
5.26634	6.50744
7.22688	7.40052
8.47472	7.97838
10.2503	8.50418
10.9618	8.76695
11.6732	9.02973
13.4451	9.39819
15.0407	9.76651
16.2824	10.0821
17.5228	10.3453
18.9383	10.5561
20.1776	10.7669
21.4143	10.8727
23.1825	11.0838
25.1258	11.2426
26.894	11.4537
29.0136	11.6126
31.1319	11.7191
32.8989	11.8778
35.0173	11.9843
36.6067	12.0904
38.725	12.1968
40.3144	12.3029
42.6091	12.4095
44.9063	12.6211
46.8483	12.7274
48.4365	12.781
50.3785	12.8874
52.8471	12.8892
54.963	12.8908
56.9014	12.8398
58.8385	12.7364
60.0727	12.7373
