Adsorption isotherm of Nitrogen on IRMOF-61
DOI: 10.1021/Jp302356q
Adsorbate Nitrogen: InChIKey IJGRMHOSHXDMSA-UHFFFAOYSA-N
Temperature: 77 K
Tabular data in the source: 0
pressure (bar)	uptake (cm3(STP)/g)
0.00677137	138.641
0.0133419	166.391
0.0266121	293.178
0.0701382	325.038
0.0984145	337.035
0.148425	349.12
0.194082	357.227
0.244078	361.391
0.291915	373.467
0.339817	421.187
0.357326	488.585
0.366085	524.265
0.377016	559.953
0.398909	647.171
0.40984	682.859
0.427335	742.336
0.438267	778.024
0.44917	797.871
0.464434	825.656
0.488436	877.239
0.501491	885.213
0.516755	912.998
0.529846	940.774
0.549421	948.774
0.569011	964.696
0.588586	972.696
0.605995	984.649
0.625577	996.61
0.645146	1000.65
0.666894	1008.66
0.684303	1020.61
0.706045	1024.66
0.729974	1036.64
0.782151	1044.77
0.827808	1052.88
0.873471	1064.95
0.925663	1081
0.96916	1097.02
