Adsorption isotherm of Hydrogen on IRMOF-62
DOI: 10.1021/Jp302356q
Adsorbate Hydrogen: InChIKey UFHFLCQGNIYNRP-UHFFFAOYSA-N
Temperature: 77 K
Tabular data in the source: 0
pressure (bar)	uptake (g/l)
0.958084	10.9311
1.67665	14.5759
2.39521	18.6493
4.31138	21.6544
5.98802	24.016
7.90419	27.4497
10.5389	30.0282
13.6527	32.3937
17.485	34.7611
21.5569	36.9149
25.3892	37.9966
33.2934	40.1606
38.8024	41.4611
45.988	42.766
52.2156	43.8541
58.9222	44.7293
65.8683	45.8193
72.5749	46.4801
75.9281	47.132
