Adsorption isotherm of Argon on IRMOF-62
DOI: 10.1021/Jp302356q
Adsorbate Argon: InChIKey XKRFYHLGVUSROY-UHFFFAOYSA-N
Temperature: 87 K
Tabular data in the source: 0
pressure (bar)	uptake (cm3(STP)/g)
0.00021736	118.813
0.00231127	63.3757
0.00251414	174.268
0.00477468	209.92
0.00486163	257.445
0.00937548	324.79
0.011665	376.285
0.0184322	475.322
0.0274454	602.091
0.0384728	629.858
0.0692583	657.705
0.0890308	665.706
0.148341	685.747
0.196646	689.903
0.247153	698.027
0.299849	702.2
0.345958	706.347
0.394256	706.542
0.444763	714.666
0.488677	718.804
0.541372	722.977
0.594061	723.19
0.637967	723.367
0.688475	731.491
0.736772	731.686
0.837765	736.054
0.932172	740.396
0.978296	752.463
