Adsorption isotherm of Hydrogen on IRMOF-62
DOI: 10.1021/Jp302356q
Adsorbate Hydrogen: InChIKey UFHFLCQGNIYNRP-UHFFFAOYSA-N
Temperature: 298 K
Tabular data in the source: 0
pressure (bar)	uptake (mmol/g)
2.38806	0.102759
6.68657	0.308909
10.2687	0.516007
12.8955	0.512529
19.5821	0.821438
23.6418	0.921983
25.791	0.919137
32.7164	1.12181
39.6418	1.21856
42.7463	1.32037
47.0448	1.52652
52.0597	1.6258
58.7463	1.82879
65.194	1.82025
71.8806	2.02324
