Adsorption isotherm of Hydrogen on IRMOF-61
DOI: 10.1021/Jp302356q
Adsorbate Hydrogen: InChIKey UFHFLCQGNIYNRP-UHFFFAOYSA-N
Temperature: 77 K
Tabular data in the source: 0
pressure (bar)	uptake (mmol/g)
0.0347444	1.36329
0.0551061	1.75908
0.0813224	2.1109
0.104658	2.28681
0.133807	2.59465
0.157132	2.81453
0.180488	2.90249
0.22716	3.2543
0.265085	3.51817
0.291364	3.60612
0.340999	3.78203
0.364345	3.91396
0.390613	4.04589
0.449024	4.17782
0.478225	4.26578
0.504514	4.30975
0.554159	4.44168
0.58337	4.48566
0.612581	4.52964
0.662236	4.61759
0.691437	4.70555
0.717726	4.74952
0.746947	4.74952
0.77908	4.7935
0.808281	4.88145
0.83458	4.88145
0.881314	4.96941
0.910525	5.01339
0.936824	5.01339
0.966035	5.05736
1.00108	5.14532
1.0303	5.14532
1.05659	5.18929
1.0858	5.23327
