Adsorption isotherm of Hydrogen on MOF-324
DOI: 10.1021/Jp302356q
Adsorbate Hydrogen: InChIKey UFHFLCQGNIYNRP-UHFFFAOYSA-N
Temperature: 77 K
Tabular data in the source: 0
pressure (bar)	uptake (g/l)
7.11e-15	0.428571
0.239521	10.0721
1.1976	19.9318
2.39521	22.935
6.70659	27.018
10.2994	29.3847
13.4132	30.6788
19.8802	32.4104
26.3473	34.142
33.0539	35.2314
40	36.5357
46.2275	37.4095
52.9341	38.2846
58.9222	38.9435
66.1078	40.0342
72.3353	41.1223
78.8024	41.7825
