Adsorption isotherm of Hydrogen on IRMOF-62
DOI: 10.1021/Jp302356q
Adsorbate Hydrogen: InChIKey UFHFLCQGNIYNRP-UHFFFAOYSA-N
Temperature: 87 K
Tabular data in the source: 0
pressure (bar)	uptake (cm3(STP)/g)
0.0149462	4.43925
0.029813	12.043
0.0472052	19.0154
0.0746039	27.2595
0.0970311	33.6019
0.114519	36.7768
0.161962	46.2986
0.214441	55.1905
0.27197	62.8196
0.327021	69.1814
0.379563	75.5417
0.434647	80.6377
0.482201	85.7292
0.534791	90.1908
0.592384	95.2882
0.644973	99.7498
0.695069	103.577
0.747659	108.039
0.805284	111.87
0.855396	115.065
0.91302	118.896
0.965657	121.459
1.02076	125.922
1.07088	128.484
