Adsorption isotherm of Hydrogen on IRMOF-62
DOI: 10.1021/Jp302356q
Adsorbate Hydrogen: InChIKey UFHFLCQGNIYNRP-UHFFFAOYSA-N
Temperature: 77 K
Tabular data in the source: 0
pressure (bar)	uptake (mmol/g)
0.0115746	0.483748
0.0230973	1.18738
0.0376147	1.58317
0.0608882	2.02294
0.0958087	2.63862
0.122015	3.03442
0.165733	3.51817
0.215285	4.04589
0.270702	4.48566
0.323196	4.92543
0.375712	5.27725
0.43116	5.58509
0.486598	5.9369
0.536222	6.15679
0.594582	6.50861
0.647128	6.72849
0.702576	7.03633
0.749289	7.21224
0.80767	7.4761
0.860216	7.69599
0.909841	7.91587
0.96532	8.09178
1.02079	8.31166
1.06751	8.4436
