Adsorption isotherm of Argon on MOF-324
DOI: 10.1021/Jp302356q
Adsorbate Argon: InChIKey XKRFYHLGVUSROY-UHFFFAOYSA-N
Temperature: 87 K
Tabular data in the source: 0
pressure (bar)	uptake (cm3(STP)/g)
0.000369513	201.982
0.000550646	300.992
0.000644836	352.478
0.00728882	384.188
0.0293074	419.92
0.0468919	431.872
0.0732505	439.9
0.093023	447.9
0.150109	452.091
0.194023	456.229
0.248921	464.371
0.290633	464.539
0.336742	468.686
0.38504	468.881
0.411384	468.987
0.43993	473.063
0.464072	469.2
0.492618	473.275
0.543111	473.479
0.593611	477.643
0.639714	477.829
0.694604	482.011
0.738511	482.188
0.79559	482.419
0.843895	486.574
0.892192	486.769
0.938294	486.955
0.977825	495.035
