Adsorption isotherm of Hydrogen on MOF-324
DOI: 10.1021/Jp302356q
Adsorbate Hydrogen: InChIKey UFHFLCQGNIYNRP-UHFFFAOYSA-N
Temperature: 87 K
Tabular data in the source: 0
pressure (bar)	uptake (cm3(STP)/g)
0.0101772	5.14286
0.0228734	8.57143
0.0508208	18
0.0736797	24.8571
0.0965241	30
0.111761	34.2857
0.162531	46.2857
0.218368	58.2857
0.271657	68.5714
0.330021	79.7143
0.375688	87.4286
0.436563	96
0.48983	103.714
0.538016	109.714
0.593817	117.429
0.649603	123.429
0.705397	130.286
0.753576	135.429
0.814422	140.571
0.923439	150
0.979219	155.143
1.035	160.286
1.08316	163.714
