Adsorption isotherm of Hydrogen on IRMOF-62
DOI: 10.1021/Jp302356q
Adsorbate Hydrogen: InChIKey UFHFLCQGNIYNRP-UHFFFAOYSA-N
Temperature: 77 K
Tabular data in the source: 0
pressure (bar)	uptake (g/l)
0.718563	11.1448
1.43713	14.7896
2.39521	18.435
5.7485	23.5868
7.66467	26.3777
10.2994	28.099
13.4132	29.8216
17.485	31.3325
22.2754	32.4168
26.1078	33.0699
33.0539	33.3028
39.0419	33.3189
46.2275	33.3381
52.2156	33.1399
58.9222	32.7293
66.1078	32.5342
72.3353	31.6938
76.1677	31.9183
