Adsorption isotherm of Nitrogen on MOF-326
DOI: 10.1021/Jp302356q
Adsorbate Nitrogen: InChIKey IJGRMHOSHXDMSA-UHFFFAOYSA-N
Temperature: 77 K
Tabular data in the source: 0
pressure (bar)	uptake (cm3(STP)/g)
0.00457642	126.751
0.0111541	158.461
0.0112617	217.868
0.0244243	285.248
0.0396671	301.152
0.0592567	317.073
0.0788248	321.113
0.0984073	333.074
0.144042	329.3
0.1984	341.403
0.248396	345.567
0.289699	349.696
0.339688	349.9
0.387511	354.055
0.439673	354.268
0.489662	354.471
0.537485	358.627
0.585301	358.822
0.633123	362.977
0.687452	359.238
0.730935	367.336
0.783091	363.588
0.828733	363.774
0.878729	367.939
0.922205	372.076
0.967847	372.262
