Adsorption isotherm of Hydrogen on MOF-324
DOI: 10.1021/Jp302356q
Adsorbate Hydrogen: InChIKey UFHFLCQGNIYNRP-UHFFFAOYSA-N
Temperature: 77 K
Tabular data in the source: 0
pressure (bar)	uptake (mmol/g)
0.0187523	2.33023
0.281285	5.18973
1.04843	11.2262
1.7738	12.0726
2.73699	12.7068
6.58463	14.6083
9.70518	15.4516
13.3014	15.8705
19.7718	16.2856
26.48	16.4885
32.7075	16.4803
39.8922	16.3649
46.5978	16.2501
52.5849	16.1362
58.8116	16.0221
65.9963	15.9066
71.9834	15.7928
78.9286	15.6777
