Adsorption isotherm of Hydrogen on MOF-326
DOI: 10.1021/Jp302356q
Adsorbate Hydrogen: InChIKey UFHFLCQGNIYNRP-UHFFFAOYSA-N
Temperature: 77 K
Tabular data in the source: 0
pressure (bar)	uptake (mmol/g)
0.0203513	0.439771
0.0377909	0.835564
0.0698618	1.1434
0.0902649	1.36329
0.14277	1.75908
0.169017	1.97897
0.236154	2.28681
0.25949	2.46272
0.285758	2.59465
0.314948	2.72658
0.449252	3.21033
0.478453	3.29828
0.504742	3.34226
0.53101	3.47419
0.568977	3.56214
0.598177	3.6501
0.621534	3.73805
0.674101	3.86998
0.703312	3.91396
0.729591	4.00191
0.788002	4.13384
0.817213	4.17782
0.846424	4.2218
0.890235	4.30975
0.919436	4.39771
0.948657	4.39771
1.0129	4.57361
1.0392	4.57361
1.0684	4.66157
1.09469	4.70555
