Adsorption isotherm of Hydrogen on MOF-324
DOI: 10.1021/Jp302356q
Adsorbate Hydrogen: InChIKey UFHFLCQGNIYNRP-UHFFFAOYSA-N
Temperature: 77 K
Tabular data in the source: 0
pressure (bar)	uptake (g/l)
0.239521	0.429213
1.1976	19.9318
4.31138	23.7973
6.94611	26.1615
13.1737	28.5353
20.1198	29.1967
26.1078	29.4271
32.5749	29.4444
34.9701	29.6651
37.3653	29.4572
40	29.4643
46.4671	29.053
53.1737	28.8567
58.4431	28.8708
66.1078	28.4628
71.6168	28.4775
72.5749	28.2658
78.5629	28.2819
