Adsorption isotherm of Hydrogen on IRMOF-62
DOI: 10.1021/Jp302356q
Adsorbate Hydrogen: InChIKey UFHFLCQGNIYNRP-UHFFFAOYSA-N
Temperature: 77 K
Tabular data in the source: 0
pressure (bar)	uptake (mmol/g)
0.0434713	5.40189
0.54467	8.15516
1.04246	10.4848
2.50003	13.0249
3.95589	15.3532
5.40664	17.0461
7.81546	18.7376
10.2226	20.2173
13.5852	21.378
17.1874	22.5383
21.7433	23.1678
26.0564	23.3739
28.6945	23.7941
33.2453	23.7881
38.756	23.9927
45.9398	23.7713
52.1656	23.5512
58.3913	23.3311
65.813	22.8976
72.2792	22.7831
75.8711	22.6725
