Adsorption isotherm of Hydrogen on MOF-324
DOI: 10.1021/Jp302356q
Adsorbate Hydrogen: InChIKey UFHFLCQGNIYNRP-UHFFFAOYSA-N
Temperature: 77 K
Tabular data in the source: 0
pressure (bar)	uptake (mmol/g)
0.00879049	0.396156
0.017581	0.880266
0.0263715	1.27642
0.0410223	1.54089
0.0615334	2.24537
0.0761842	2.50983
0.090835	2.86225
0.102556	3.03865
0.134787	3.74361
0.161159	4.3164
0.193391	4.7575
0.216832	5.15426
0.249064	5.55138
0.281296	6.03646
0.304737	6.30128
0.328178	6.47816
0.35748	6.83118
0.380921	7.05204
0.410223	7.27313
0.433664	7.53796
0.468826	7.75929
0.492267	7.98015
0.55087	8.42233
0.594823	8.64403
0.647566	8.95404
0.706169	9.22032
0.753052	9.48612
0.814585	9.75252
0.867328	9.9306
0.925931	10.1969
0.981604	10.3751
1.03728	10.5973
1.08416	10.7311
