Adsorption isotherm of Hydrogen on IRMOF-61
DOI: 10.1021/Jp302356q
Adsorbate Hydrogen: InChIKey UFHFLCQGNIYNRP-UHFFFAOYSA-N
Temperature: 87 K
Tabular data in the source: 0
pressure (bar)	uptake (cm3(STP)/g)
0.0099346	3.18182
0.0248365	7.95455
0.0422363	12.7273
0.0621197	18.2955
0.077057	21.0795
0.0920015	23.4659
0.10943	26.6477
0.161742	34.6023
0.216574	41.3636
0.271428	46.9318
0.326302	51.3068
0.383674	55.6818
0.436065	59.2614
0.490954	62.8409
0.538363	65.625
0.598248	69.2045
0.643166	71.5909
0.698076	73.9773
0.760458	77.5568
0.805384	79.5455
0.860294	81.9318
0.912713	83.9205
0.970128	85.9091
1.02005	87.8977
1.07248	89.4886
