Adsorption isotherm of Hydrogen on MOF-326
DOI: 10.1021/Jp302356q
Adsorbate Hydrogen: InChIKey UFHFLCQGNIYNRP-UHFFFAOYSA-N
Temperature: 87 K
Tabular data in the source: 0
pressure (bar)	uptake (cm3(STP)/g)
0.0176502	4.01146
0.0378219	7.62178
0.0504293	11.6332
0.0781654	14.4413
0.100859	18.0516
0.115987	19.255
0.168938	25.2722
0.22441	30.4871
0.282404	35.3009
0.337876	39.3123
0.393348	42.9226
0.441256	46.1318
0.504293	49.341
0.549679	51.7479
0.605151	54.957
0.658102	57.765
0.718617	60.9742
0.766525	63.3811
0.829561	65.3868
0.882512	67.7937
0.937984	70.2006
0.988414	71.8052
1.05145	74.6132
1.10188	75.8166
