Adsorption isotherm of Hydrogen on MOF-324
DOI: 10.1021/Jp302356q
Adsorbate Hydrogen: InChIKey UFHFLCQGNIYNRP-UHFFFAOYSA-N
Temperature: 298 K
Tabular data in the source: 0
pressure (bar)	uptake (mmol/g)
4.77612	0.311438
9.55224	0.199194
12.6567	0.301004
14.5672	0.404395
19.8209	0.60928
23.6418	0.710142
26.0299	0.70698
32.4776	0.910284
33.9104	0.908387
38.9254	1.00767
42.5075	1.10885
46.5672	1.20939
51.8209	1.30836
54.209	1.41111
59.9403	1.50945
61.8507	1.401
66.3881	1.60683
69.7313	1.49648
72.3582	1.59893
78.5672	1.80255
