Adsorption isotherm of Nitrogen on CuPcF8-CoNPc-COF after 50-h usage in electrocatalytic CO2RR
DOI: 10.1021/jacs.1c06238
Article source: Figure S42
Adsorbate Nitrogen: InChIKey IJGRMHOSHXDMSA-UHFFFAOYSA-N
Kind: experiment
Temperature: 77 K
Tabular data in the source: 0
pressure (bar)	uptake (cm3(STP)/g)
0.010304	14.6297
0.0154	24.0099
0.012392	36.5068
0.012114	46.9232
0.009106	59.4201
0.008772	71.9197
0.008466	83.3778
0.013451	96.9246
0.023949	104.227
0.044975	117.79
0.058091	127.179
0.071263	134.484
0.092428	142.839
0.121584	152.244
0.158817	159.574
0.209556	161.71
0.236235	163.82
0.284273	166.995
0.318971	169.114
0.367037	171.246
0.401847	169.199
0.452586	171.334
0.495249	175.545
0.548606	179.766
0.591353	180.852
0.666097	185.096
0.711461	188.267
0.762228	189.361
0.807509	195.658
0.852762	202.996
0.919207	217.647
0.942683	239.547
0.971088	277.076
0.967551	309.364
0.982589	346.879
0.995455	365.642
0.997878	375.02
0.997627	384.395
0.002673	100.033
0.002423	109.413
0.015428	122.968
0.02058	130.265
0.041716	139.662
0.057395	153.22
0.091759	167.838
0.121027	173.077
0.153053	175.193
0.185078	177.309
0.222422	180.473
0.265169	181.558
0.307971	180.561
0.37748	180.632
0.414852	182.754
0.460216	185.926
0.505609	188.056
0.55373	188.105
0.604413	192.324
0.649694	198.62
0.708565	196.598
0.785982	200.844
0.81798	204.002
0.852567	210.287
0.889577	225.95
0.926169	257.238
0.959587	307.272
0.969334	342.699
1.0008	365.648
1.01383	378.161
