Adsorption isotherm of Carbon Dioxide on CuPcF8-CoPc-COF
DOI: 10.1021/jacs.1c06238
Article source: Figure S19
Adsorbate Carbon Dioxide: InChIKey CURLTUGMZLYLDI-UHFFFAOYSA-N
Kind: experiment
Temperature: 298 K
Tabular data in the source: 0
pressure (bar)	uptake (mg/g)
1.61374	0.829305
3.90773	2.19361
5.67234	3.24307
7.08768	4.18845
9.73093	5.65684
11.3227	6.70716
13.08	7.54502
14.6645	8.38374
16.0762	9.22331
17.4769	9.74548
19.4033	10.4767
21.5209	11.736
23.4546	12.6788
24.5097	13.2027
27.4949	14.5636
29.98	16.4561
32.9725	18.0285
34.5899	19.8195
37.9171	21.0728
40.5567	22.4354
43.7147	23.7955
46.5234	25.0514
49.6924	26.7288
53.3798	28.4037
56.1885	29.6596
59.523	31.1246
63.3722	32.4812
64.4346	33.2167
