Adsorption isotherm of Nitrogen on CuPcF8-CoPc-COF (boiling water treatment)
DOI: 10.1021/jacs.1c06238
Article source: Figure S22
Adsorbate Nitrogen: InChIKey IJGRMHOSHXDMSA-UHFFFAOYSA-N
Kind: experiment
Temperature: 77 K
Tabular data in the source: 0
pressure (bar)	uptake (cm3(STP)/g)
0.009672	64.3699
0.025438	74.261
0.021383	81.2379
0.019545	85.6435
0.020451	90.0462
0.021963	97.384
0.025463	101.05
0.037805	107.642
0.044504	113.506
0.062412	120.459
0.076894	124.113
0.116386	129.208
0.149859	131.74
0.199955	134.989
0.241739	137.879
0.27491	138.944
0.321807	139.994
0.368477	139.943
0.417818	139.523
0.478366	140.191
0.519848	141.614
0.539216	142.327
0.594274	143.001
0.66268	141.826
0.737484	145.047
0.798183	146.449
0.851175	150.428
0.884573	152.594
0.948546	156.561
0.982019	159.093
1.0103	163.099
1.03133	171.884
1.03269	178.488
1.02887	186.565
0.02705	108.755
0.023297	117.199
0.032516	121.96
0.04997	126.711
0.070094	131.093
0.10402	135.827
0.132002	138.365
0.165248	139.797
0.190409	141.972
0.237609	144.489
0.282063	147.01
0.356186	146.929
0.408876	149.441
0.463783	149.381
0.505114	150.07
0.560247	151.111
0.626361	152.14
0.670211	151.726
0.72275	153.503
0.767128	155.657
0.794733	156.361
0.830724	157.79
0.864046	159.588
0.894697	161.757
0.939378	165.378
0.950888	167.934
0.982749	175.973
1.01126	181.08
1.02864	185.465
