Adsorption isotherm of Nitrogen on CuPcF8-CoNPc-COF (THF treatment)
DOI: 10.1021/jacs.1c06238
Article source: Figure S23
Adsorbate Nitrogen: InChIKey IJGRMHOSHXDMSA-UHFFFAOYSA-N
Kind: experiment
Temperature: 77 K
Tabular data in the source: 0
pressure (bar)	uptake (cm3(STP)/g)
0.010808	24.8556
0.018914	36.2806
0.02702	50.8306
0.02702	67.4972
0.024318	77.925
0.021616	91.4778
0.024318	102.925
0.032424	122.683
0.032424	132.058
0.045934	146.586
0.064848	155.883
0.097272	164.083
0.145908	176.383
0.183736	181.436
0.237776	188.506
0.289114	189.336
0.335048	188.106
0.35126	189.081
0.397194	190.975
0.443128	188.703
0.478254	187.517
0.556612	191.361
0.599844	197.433
0.64848	198.275
0.694414	198.086
0.751156	202.019
0.791686	204.978
0.826812	206.917
0.875448	214.008
0.913276	227.394
0.934892	241.889
0.9457	254.344
0.967316	296.964
0.983528	315.647
0.988932	328.125
1.00244	385.361
1.01055	367.619
0.018914	136.281
0.035126	148.714
0.064848	161.092
0.089166	169.325
0.129696	180.617
0.164822	187.764
0.20265	189.692
0.267498	195.675
0.29722	197.636
0.33775	198.511
0.367472	198.389
0.413406	198.2
0.467446	197.978
0.510678	199.883
0.58093	204.803
0.637672	208.736
0.678202	211.694
0.713328	214.675
0.77007	214.442
0.813302	218.431
0.853832	224.514
0.872746	229.644
0.894362	239.972
0.913276	248.228
0.934892	261.681
0.9457	279.344
0.9457	294.969
0.970018	312.578
0.978124	321.919
0.991634	335.406
0.997038	344.758
