Adsorption isotherm of Carbon Dioxide on CuPcF8-CoNPc-COF
DOI: 10.1021/jacs.1c06238
Article source: Figure S19
Adsorbate Carbon Dioxide: InChIKey CURLTUGMZLYLDI-UHFFFAOYSA-N
Kind: experiment
Temperature: 298 K
Tabular data in the source: 0
pressure (bar)	uptake (mg/g)
1.42631	0.406953
2.66519	1.24738
4.77906	2.40093
7.05476	3.23623
9.154	3.96658
10.904	4.59283
12.9996	5.21738
14.393	5.52794
16.1466	6.26
18.073	6.9912
19.9885	7.405
21.7348	7.92545
24.8709	8.65067
26.7973	9.38187
31.1503	10.3127
34.29	11.1437
37.9518	12.078
41.4298	12.6957
44.5586	13.2093
47.3381	13.6188
49.9411	13.9234
52.7206	14.3329
54.6397	14.8525
58.114	15.3644
60.0368	15.9898
62.8199	16.5051
64.9009	16.7064
