Adsorption isotherm of Nitrogen on CuPcF8-CoNPc-COF (boiling water treatment)
DOI: 10.1021/jacs.1c06238
Article source: Figure S23
Adsorbate Nitrogen: InChIKey IJGRMHOSHXDMSA-UHFFFAOYSA-N
Kind: experiment
Temperature: 77 K
Tabular data in the source: 0
pressure (bar)	uptake (cm3(STP)/g)
0.010808	15.4806
0.010808	27.9806
0.008106	35.2833
0.005404	48.8361
0.005404	58.2111
0.008106	68.6167
0.018914	85.2389
0.024318	96.675
0.032424	110.183
0.043232	119.514
0.056742	127.792
0.06755	136.081
0.09457	145.344
0.12159	152.525
0.151312	156.569
0.18914	160.581
0.213458	161.522
0.251286	161.367
0.289114	168.503
0.33775	171.428
0.37828	171.261
0.413406	175.283
0.456638	178.231
0.497168	178.064
0.521486	176.922
0.589036	174.561
0.64848	179.525
0.699818	180.356
0.75656	184.289
0.794388	190.383
0.840322	204.778
0.859236	208.867
0.93219	241.9
0.934892	246.056
0.980826	277.117
0.975422	306.306
0.997038	323.925
0.99974	347.872
1.00244	361.403
0.045934	150.753
0.078358	168.328
0.10808	178.622
0.140504	182.656
0.181034	185.614
0.224266	185.436
0.267498	187.342
0.302624	188.239
0.353962	191.153
0.402598	191.994
0.45934	191.761
0.532294	193.544
0.586334	194.364
0.624162	196.292
0.667394	199.239
0.745752	199.958
0.78358	199.803
0.848428	208.911
0.875448	215.05
0.910574	226.364
0.926786	234.631
0.9457	271.011
0.953806	293.894
0.98623	328.136
