Adsorption isotherm of Nitrogen on CuPcF8-CoPc-COF after 50-h usage in electrocatalytic CO2RR.
DOI: 10.1021/jacs.1c06238
Article source: Figure S41
Adsorbate Nitrogen: InChIKey IJGRMHOSHXDMSA-UHFFFAOYSA-N
Kind: experiment
Temperature: 77 K
Tabular data in the source: 0
pressure (bar)	uptake (cm3(STP)/g)
0.008354	53.2713
0.008574	59.0246
0.011493	65.2561
0.017056	70.5275
0.022711	78.196
0.031009	84.9044
0.028586	91.6179
0.028843	98.3301
0.029063	104.083
0.029339	111.275
0.032221	116.548
0.061982	123.725
0.09167	128.985
0.124019	133.765
0.16968	136.14
0.201938	138.522
0.24758	140.418
0.271741	141.366
0.303925	141.83
0.357536	141.805
0.405821	142.741
0.432645	143.208
0.494333	144.137
0.547962	144.591
0.614974	144.56
0.679398	146.926
0.727703	148.342
0.781349	149.275
0.82701	151.651
0.86999	154.028
0.926427	157.837
0.964175	163.572
0.991292	171.71
1.00508	181.772
1.0161	189.438
1.02452	199.503
0.030036	129.494
0.056897	130.92
0.081131	133.785
0.113371	135.687
0.142948	138.071
0.175169	139.494
0.226319	145.223
0.269281	147.12
0.320174	146.137
0.352377	147.081
0.406023	148.015
0.440925	149.436
0.481169	150.376
0.542839	150.827
0.577704	151.29
0.631333	151.744
0.701063	152.67
0.746668	153.607
0.787096	159.341
0.840706	159.316
0.899732	160.726
0.945485	165.499
0.973097	186.582
0.997681	198.557
1.01138	206.221
