Adsorption isotherm of Nitrogen on CuPcF8-CoPc-COF
DOI: 10.1021/jacs.1c06238
Article source: Figure 2c
Adsorbate Nitrogen: InChIKey IJGRMHOSHXDMSA-UHFFFAOYSA-N
Kind: experiment
Temperature: 77 K
Tabular data in the source: 0
pressure (bar)	uptake (cm3(STP)/g)
0	50.4057
0	56.638
0.002646	62.8688
0.002646	67.968
0.005291	75.3319
0.005291	82.1308
0.005291	87.2299
0.005291	94.0288
0.007937	101.393
0.010582	109.89
0.010582	116.689
0.018519	123.483
0.029101	129.71
0.055557	134.227
0.082012	136.479
0.105822	138.732
0.164025	143.232
0.193126	144.915
0.248683	147.15
0.283075	148.831
0.314822	148.813
0.380961	149.343
0.428581	150.449
0.484138	151.551
0.526467	153.227
0.571441	153.769
0.619061	154.875
0.645517	155.427
0.706365	157.659
0.751339	159.334
0.825415	160.426
0.867744	164.368
0.920655	167.738
0.96563	173.945
0.981503	179.602
0.997377	188.658
1.00796	194.885
1.0106	202.249
1.01325	207.346
0	118.961
0.005291	125.757
0.018519	134.815
0.039683	142.168
0.068785	148.951
0.09524	151.769
0.145506	154.007
0.187835	155.117
0.230164	155.093
0.269847	157.337
0.32805	159.571
0.383606	160.106
0.417999	160.654
0.486783	162.315
0.555568	163.41
0.597897	162.253
0.653454	164.488
0.714302	165.02
0.753985	166.698
0.79896	168.373
0.838643	168.35
0.891554	170.02
0.947111	174.522
0.994731	185.26
0.997377	190.924
1.00267	199.987
