Adsorption isotherm of Nitrogen on CuPcF8-CoNPc-COF (HCI solution treatment)
DOI: 10.1021/jacs.1c06238
Article source: Figure S23
Adsorbate Nitrogen: InChIKey IJGRMHOSHXDMSA-UHFFFAOYSA-N
Kind: experiment
Temperature: 77 K
Tabular data in the source: 0
pressure (bar)	uptake (cm3(STP)/g)
0.008106	42.575
0.016212	61.2917
0.018914	68.5722
0.018914	82.1139
0.01351	92.5528
0.016212	115.458
0.021616	125.853
0.035126	137.256
0.059444	146.531
0.09457	152.636
0.124292	156.681
0.164822	161.722
0.199948	163.661
0.24318	170.775
0.278306	174.797
0.316134	177.767
0.35126	179.706
0.413406	177.367
0.470148	184.425
0.52689	184.192
0.562016	184.047
0.613354	184.878
0.664692	193
0.70252	197.011
0.737646	197.908
0.772772	197.764
0.818706	201.742
0.845726	209.964
0.86464	214.053
0.899766	225.367
0.90517	226.386
0.915978	230.508
0.934892	253.347
0.951104	274.114
0.961912	281.361
0.975422	295.889
0.99974	315.581
1.00514	336.392
1.00785	344.714
1.01865	357.169
0.029722	123.736
0.037828	140.369
0.056742	153.833
0.078358	170.411
0.102676	179.686
0.1351	184.761
0.170226	187.742
0.221564	187.531
0.2702	182.122
0.321538	183.994
0.386386	184.769
0.421512	185.667
0.475552	185.444
0.532294	185.211
0.591738	188.092
0.640374	191.017
0.678202	190.861
0.753858	193.675
0.79709	202.872
0.829514	210.031
0.867342	224.458
0.883554	229.6
0.913276	238.853
0.924084	248.183
0.9457	273.094
0.964614	291.767
0.975422	306.306
0.99974	341.622
1.00244	350.986
