Adsorption isotherm of Nitrogen on CuPcF8-CoPc-COF (water treatment)
DOI: 10.1021/jacs.1c06238
Article source: Figure S22
Adsorbate Nitrogen: InChIKey IJGRMHOSHXDMSA-UHFFFAOYSA-N
Kind: experiment
Temperature: 77 K
Tabular data in the source: 0
pressure (bar)	uptake (cm3(STP)/g)
0.015993	68.3997
0.017127	73.9031
0.029317	79.7614
0.027856	86.0015
0.028687	90.0373
0.026622	93.3423
0.022794	101.42
0.020577	103.991
0.013853	111.338
0.006901	117.584
0.007808	121.987
0.028007	126.735
0.053697	131.478
0.087548	135.845
0.109813	137.289
0.14321	139.454
0.184919	141.978
0.212523	142.682
0.245618	143.38
0.28443	145.172
0.325761	145.861
0.389055	146.526
0.433055	146.846
0.491236	149.351
0.535237	149.67
0.581983	149.987
0.636889	149.927
0.694843	151.332
0.730986	153.494
0.775515	156.382
0.82546	158.896
0.850621	161.071
0.895302	164.692
0.94303	169.778
0.976805	173.778
1.00776	177.414
1.03642	183.254
1.04267	186.917
1.04876	189.846
1.05753	192.406
1.05828	196.075
1.06697	198.267
0.023373	117.566
0.029468	120.495
0.032667	122.694
0.050574	129.647
0.062387	133.67
0.08785	137.312
0.121474	140.579
0.149456	143.117
0.191316	146.374
0.238742	149.993
0.302338	152.125
0.354575	152.436
0.396057	153.858
0.45119	154.899
0.497936	155.216
0.597598	159.144
0.625127	159.481
0.688421	160.146
0.757583	162.64
0.818282	164.042
0.849009	166.577
0.87684	168.382
0.935172	171.621
0.976956	174.512
1.00501	177.417
1.02589	185.468
1.0303	193.536
1.03708	199.767
