Adsorption isotherm of Nitrogen on CuPcF8-CoPc-COF (THF treatment)
DOI: 10.1021/jacs.1c06238
Article source: Figure S22
Adsorbate Nitrogen: InChIKey IJGRMHOSHXDMSA-UHFFFAOYSA-N
Kind: experiment
Temperature: 77 K
Tabular data in the source: 0
pressure (bar)	uptake (cm3(STP)/g)
0.01486	62.8963
0.013475	69.5034
0.023146	76.4653
0.027781	85.6346
0.028461	88.9366
0.035387	95.9016
0.03652	101.405
0.037503	106.174
0.0304	111.687
0.03375	114.619
0.061959	118.258
0.087195	120.799
0.115404	124.438
0.154519	127.699
0.193407	129.858
0.234964	131.648
0.301079	132.677
0.342636	134.467
0.375731	135.165
0.43361	136.203
0.483176	136.883
0.541206	138.655
0.582764	140.444
0.643312	141.113
0.681973	142.172
0.748012	142.834
0.772871	143.541
0.809089	146.07
0.84508	147.499
0.884044	150.025
0.925526	151.448
0.970358	155.803
0.993529	161.65
0.99703	165.315
1.00907	170.44
1.01577	176.304
1.01927	179.97
1.02597	185.834
0.028713	116.826
0.02161	122.339
0.038762	125.623
0.053244	129.277
0.078556	132.185
0.109208	134.353
0.123086	135.072
0.167616	137.96
0.222673	138.634
0.25874	140.43
0.297326	141.122
0.38296	143.597
0.424366	144.653
0.492772	143.478
0.558736	143.773
0.619284	144.441
0.669002	145.855
0.724286	147.63
0.782542	150.503
0.81594	152.668
0.862988	154.452
0.9018	156.245
0.929782	158.783
0.966	161.312
0.997332	166.783
1.0234	173.36
1.02995	178.491
1.03375	183.624
