Adsorption isotherm of Nitrogen on CuPcF8-CoNPc-COF
DOI: 10.1021/jacs.1c06238
Article source: Figure 2d
Adsorbate Nitrogen: InChIKey IJGRMHOSHXDMSA-UHFFFAOYSA-N
Kind: experiment
Temperature: 77 K
Tabular data in the source: 0
pressure (bar)	uptake (cm3(STP)/g)
0.009621	16.5376
0.012497	27.5043
0.012745	37.094
0.013065	49.4236
0.010792	61.7463
0.011147	75.4458
0.016757	91.8994
0.024922	106.99
0.027762	116.587
0.035999	134.417
0.041466	145.391
0.083393	163.312
0.106931	171.595
0.132953	175.775
0.174455	177.257
0.208323	184.198
0.249931	189.79
0.291432	191.272
0.343194	188.672
0.397617	188.82
0.426054	186.157
0.478028	191.777
0.532523	194.664
0.573989	194.776
0.623265	196.279
0.677831	201.906
0.734882	203.43
0.776455	207.652
0.836239	214.663
0.872699	221.611
0.904189	236.765
0.972423	269.826
0.988825	302.747
1.00004	335.654
1.01868	354.882
1.02951	372.72
1.03501	385.064
0.044625	167.317
0.068447	186.56
0.107499	193.515
0.151592	195.004
0.208714	199.268
0.265836	203.532
0.317668	203.672
0.374683	203.826
0.423924	203.959
0.468053	206.818
0.525104	208.342
0.576936	208.483
0.636578	210.014
0.691109	214.271
0.750822	218.542
0.815826	226.937
0.854842	232.522
0.888782	242.202
0.938484	260.145
0.962767	297.197
0.984352	330.132
0.990351	361.655
