Adsorption isotherm of Nitrogen on CuPcF8-CoNPc-COF (water treatment)
DOI: 10.1021/jacs.1c06238
Article source: Figure S23
Adsorbate Nitrogen: InChIKey IJGRMHOSHXDMSA-UHFFFAOYSA-N
Kind: experiment
Temperature: 77 K
Tabular data in the source: 0
pressure (bar)	uptake (cm3(STP)/g)
0.005404	19.6694
0.002702	31.1389
0.008106	49.8667
0.010808	62.3556
0.016212	74.8333
0.021616	87.3111
0.02702	102.914
0.02702	115.414
0.029722	126.861
0.043232	142.431
0.062146	154.853
0.075656	163.131
0.099974	172.406
0.129696	181.658
0.17563	187.719
0.199948	188.661
0.245882	190.556
0.28371	192.483
0.321538	193.369
0.36477	193.192
0.402598	193.036
0.456638	190.731
0.524188	192.536
0.58093	195.428
0.624162	195.25
0.680904	191.892
0.72954	192.733
0.791686	206.019
0.834918	212.092
0.883554	221.267
0.913276	231.561
0.9457	246.011
0.956508	261.592
0.95921	275.122
0.97272	293.817
0.988932	310.417
0.991634	326.031
0.99974	341.622
1.00244	357.236
1.00514	372.85
1.00514	383.267
0.002702	108.222
0.008106	121.742
0.01351	138.386
0.029722	151.861
0.05404	164.261
0.08106	181.858
0.10808	190.081
0.1351	196.219
0.156716	198.214
0.191842	200.153
0.240478	200.994
0.278306	201.881
0.329644	205.836
0.386386	209.769
0.45934	207.386
0.516082	209.236
0.575526	208.992
0.659288	209.689
0.707924	208.447
0.778176	214.408
0.821408	223.606
0.845726	228.714
0.886256	241.047
0.924084	258.6
0.9457	283.511
0.964614	317.808
0.978124	332.336
0.994336	351.019
1.01055	386.369
