Adsorption isotherm of Nitrogen on CuPcF8-CoPc-COF (HCI solution treatment)
DOI: 10.1021/jacs.1c06238
Article source: Figure S22
Adsorbate Nitrogen: InChIKey IJGRMHOSHXDMSA-UHFFFAOYSA-N
Kind: experiment
Temperature: 77 K
Tabular data in the source: 0
pressure (bar)	uptake (cm3(STP)/g)
0.007682	68.0418
0.017127	73.9031
0.021232	80.5041
0.024809	84.5369
0.02564	88.5727
0.035311	95.5347
0.038963	99.9344
0.052136	110.562
0.072638	116.779
0.112206	122.24
0.153914	124.764
0.206453	126.541
0.27836	129.032
0.336239	130.07
0.44925	132.149
0.482345	132.847
0.54846	133.876
0.587121	134.935
0.636688	135.615
0.689	136.292
0.738793	138.073
0.766624	139.878
0.849286	141.256
0.871627	143.066
0.949478	147.752
0.984084	155.788
1.0065	157.966
1.02388	162.35
1.02531	169.321
1.02934	175.556
1.03871	181.05
1.04252	186.183
0.055083	124.871
0.089462	131.806
0.106085	132.522
0.150464	134.676
0.208342	135.714
0.246852	136.039
0.274305	136.009
0.324099	137.79
0.384798	139.192
0.439705	139.132
0.494838	140.173
0.555764	142.676
0.605406	143.723
0.666257	145.858
0.738013	147.615
0.817854	148.629
0.840194	150.44
0.890214	153.321
0.918196	155.86
0.954792	160.224
0.98887	165.691
1.03728	174.079
