Adsorption isotherm of Acetylene on [C22H20N2O8Zn2].0.81(C22H18)
DOI: 10.1038/Nmat3104
Adsorbate Acetylene: InChIKey HSFWRNGVRCDJHI-UHFFFAOYSA-N
Temperature: 195 K
Tabular data in the source: 0
pressure (bar)	uptake (molecules/unitcell)
0.00165563	8.88e-16
0.00168266	0.122449
0.00170969	0.244898
0.00175362	0.443878
0.00184147	0.841837
0.00477767	0.642857
0.0048047	0.765306
0.00486552	1.04082
0.00488917	1.14796
0.0108494	1.14796
0.0378362	1.89796
0.0706548	2.06633
0.0915225	2.09694
0.10644	2.17347
0.154136	2.23469
0.207781	2.25
0.25548	2.32653
0.285289	2.35714
0.312117	2.38776
0.335961	2.40306
0.359812	2.44898
0.392594	2.44898
0.413455	2.44898
0.440279	2.46429
0.46412	2.46429
0.487968	2.4949
0.514789	2.4949
0.538634	2.5102
0.565455	2.5102
0.592279	2.52551
0.619104	2.54082
0.642945	2.54082
0.696587	2.54082
0.741296	2.57143
0.797919	2.57143
0.845604	2.58673
0.896273	2.61735
0.946935	2.61735
0.97376	2.63265
