Adsorption isotherm of Oxygen on [C22H20N2O8Zn2].0.81(C22H18)
DOI: 10.1038/Nmat3104
Adsorbate Oxygen: InChIKey MYMOFIZGZYHOMD-UHFFFAOYSA-N
Temperature: 195 K
Tabular data in the source: 0
pressure (bar)	uptake (molecules/unitcell)
0.0271392	0.0517075
0.0518093	0.103447
0.0740156	0.142204
0.101165	0.167881
0.125846	0.19359
0.150527	0.219299
0.175213	0.231993
0.197425	0.257734
0.224575	0.283411
0.249261	0.296105
0.273942	0.321814
0.296159	0.33454
0.347995	0.372911
0.397367	0.398299
0.449208	0.423655
0.498581	0.449042
0.545478	0.487478
0.59732	0.512833
0.646697	0.525206
0.693601	0.550626
0.745442	0.575981
0.79482	0.588354
0.844176	0.652787
0.893548	0.678175
0.94292	0.703563
