Adsorption isotherm of Nitrogen on [C22H20N2O8Zn2].0.81(C22H18)
DOI: 10.1038/Nmat3104
Adsorbate Nitrogen: InChIKey IJGRMHOSHXDMSA-UHFFFAOYSA-N
Temperature: 77 K
Tabular data in the source: 0
pressure (bar)	uptake (molecules/unitcell)
0.00492759	0.0259662
0.0197478	0.0127582
0.0394957	0.0255163
0.0592489	0.0252592
0.088884	0.0118583
0.11357	0.0245522
0.135787	0.0372783
0.158009	0.036989
0.185175	0.0236203
0.212336	0.0232668
0.237028	0.0229454
0.259245	0.0356714
0.283936	0.0353501
0.308633	0.0220135
0.335777	0.0607057
0.358	0.0604165
0.385155	0.0730782
0.409852	0.0597416
0.434543	0.0594203
0.456766	0.059131
0.483926	0.0587775
0.506143	0.0715036
0.53084	0.0581669
0.562934	0.0707644
0.580218	0.0705395
0.60492	0.0441876
0.632075	0.0568493
0.654303	0.0435449
0.681432	0.121283
0.706123	0.120962
0.730815	0.12064
0.755511	0.107304
0.780198	0.119997
0.80242	0.119708
0.829581	0.119355
0.854267	0.132049
0.878958	0.131727
0.906108	0.157404
0.928314	0.196161
