Adsorption isotherm of Oxygen on [C22H20N2O8Zn2].0.81(C22H18)
DOI: 10.1038/Nmat3104
Adsorbate Oxygen: InChIKey MYMOFIZGZYHOMD-UHFFFAOYSA-N
Temperature: 77 K
Tabular data in the source: 0
pressure (bar)	uptake (molecules/unitcell)
0.0148095	0.0128224
0.044434	0.0254521
0.0691255	0.0251307
0.0888733	0.0378889
0.120972	0.0374711
0.143195	0.0371818
0.162942	0.04994
0.185149	0.0886965
