Adsorption isotherm of Nitrogen on [C22H20N2O8Zn2].0.81(C22H18)
DOI: 10.1038/Nmat3104
Adsorbate Nitrogen: InChIKey IJGRMHOSHXDMSA-UHFFFAOYSA-N
Temperature: 195 K
Tabular data in the source: 0
pressure (bar)	uptake (molecules/unitcell)
0.0592274	0.0773203
0.0913157	0.102933
0.16042	0.180125
0.197441	0.218688
0.22706	0.244333
0.259154	0.256931
0.293711	0.282511
0.330737	0.30806
0.360357	0.333705
0.394925	0.333255
0.427013	0.358868
0.461581	0.358418
0.496144	0.370983
0.530696	0.409579
0.562784	0.435192
0.599816	0.447725
0.631915	0.447307
0.664008	0.459904
0.698566	0.485485
0.733128	0.49805
0.765233	0.484617
0.799795	0.497183
0.831884	0.522795
0.866441	0.548376
0.900993	0.586972
0.933081	0.612585
0.970124	0.599087
