Adsorption isotherm of Carbon Dioxide on [C22H20N2O8Zn2].0.81(C22H18)
DOI: 10.1038/Nmat3104
Adsorbate Carbon Dioxide: InChIKey CURLTUGMZLYLDI-UHFFFAOYSA-N
Temperature: 195 K
Tabular data in the source: 0
pressure (bar)	uptake (molecules/unitcell)
0.00232989	0.338364
0.00450446	1.05417
0.0116709	1.63976
0.0510862	1.86051
0.100405	2.01605
0.120137	2.06785
0.139858	2.14569
0.16697	2.26247
0.201511	2.3271
0.228629	2.43086
0.253294	2.49562
0.277943	2.59942
0.287792	2.66437
0.297632	2.75535
0.304959	2.95048
0.314723	3.22367
0.324519	3.41877
0.334337	3.56181
0.346634	3.67879
0.356468	3.78278
0.366318	3.84773
0.373698	3.91271
0.383559	3.95162
0.398347	4.01651
0.420537	4.09431
0.447671	4.15903
0.469861	4.23683
0.494531	4.28857
0.519202	4.34031
0.546346	4.37901
0.568547	4.43078
0.595697	4.45646
0.620372	4.49518
0.645042	4.54692
0.667249	4.58568
0.689455	4.62443
0.716594	4.67614
0.741275	4.70185
0.76842	4.74054
0.793095	4.77927
0.815301	4.81802
0.842446	4.85671
0.867121	4.89544
0.891791	4.94718
0.916467	4.9859
0.941153	4.9986
