Adsorption isotherm of Argon on [C22H20N2O8Zn2].0.81(C22H18)
DOI: 10.1038/Nmat3104
Adsorbate Argon: InChIKey XKRFYHLGVUSROY-UHFFFAOYSA-N
Temperature: 77 K
Tabular data in the source: 0
pressure (bar)	uptake (molecules/unitcell)
0.0123404	0.0128546
0.0444393	0.0124368
0.116045	0.0115048
0.192588	0.0105086
0.207398	0.023331
0.249379	0.00976947
