Adsorption isotherm of Nitrogen on ZIF-67
DOI: 10.1016/j.cej.2015.03.127
Article source: Figure 4
Adsorbate Nitrogen: InChIKey IJGRMHOSHXDMSA-UHFFFAOYSA-N
Kind: experiment
Temperature: 77 K
Tabular data in the source: 0
pressure (bar)	uptake (cm3(STP)/g)
0	0
0	105.257
0	131.575
0.000326	181.82
0.000463	21.5333
0.000788	203.353
0.001816	251.205
0.002227	270.345
0.004831	224.903
0.006219	289.503
0.006579	306.251
0.007196	334.962
0.014871	358.922
0.022701	390.059
0.049668	478.703
0.064042	481.164
0.085527	481.265
0.103431	481.35
0.117754	481.417
0.135657	481.502
0.157194	483.996
0.182258	484.114
0.192949	481.772
0.214486	484.266
0.264565	482.111
0.318276	482.364
0.343341	482.483
0.361245	482.567
0.389942	485.095
0.411427	485.196
0.465137	485.45
0.483042	485.535
0.515268	485.687
0.533172	485.771
0.561819	485.907
0.583303	486.008
0.615529	486.16
0.637014	486.262
0.66924	486.414
0.687145	486.498
0.719371	486.651
0.769502	486.887
0.798096	484.63
0.823265	489.533
0.848329	489.652
0.876976	489.787
0.902041	489.905
0.930687	490.041
0.955804	492.552
0.973759	495.029
0.984553	497.472
1.00251	499.949
1.02057	507.212
