Adsorption isotherm of Nitrogen on 2D-PN-2-OMe in 12 M NaOH
DOI: 10.1002/anie.202107915
Article source: Figure S17
Adsorbate Nitrogen: InChIKey IJGRMHOSHXDMSA-UHFFFAOYSA-N
Kind: experiment
Temperature: 77 K
Tabular data in the source: 0
pressure (bar)	uptake (cm3(STP)/g)
0	149.027
0.004483	157.543
0.008967	166.058
0.008967	172.019
0.047076	194.161
0.089668	202.676
0.121052	206.934
0.156919	208.637
0.192787	212.044
0.228654	213.747
0.264521	215.45
0.295905	217.153
0.331772	218.856
0.367639	219.708
0.403507	222.263
0.439374	223.114
0.477483	224.818
0.511108	225.669
0.544734	227.372
0.580601	229.075
0.616468	229.927
0.652336	231.63
0.685961	232.482
0.721829	234.185
0.759937	237.591
0.793563	239.294
0.82943	242.701
0.865298	247.81
0.901165	254.623
0.937032	263.139
0.975141	274.209
1.00204	295.499
0.959449	286.983
0.925824	277.616
0.885473	270.803
0.867539	268.248
0.82943	263.139
0.795805	258.029
0.757696	252.068
0.721829	248.662
0.688203	246.107
0.652336	242.701
0.616468	241.849
0.582843	240.998
0.544734	239.294
0.511108	238.443
0.475241	235.888
0.439374	232.482
0.401265	229.927
0.349706	228.224
0.31608	227.372
0.298147	226.521
0.262279	224.818
0.226412	223.114
0.190545	222.263
0.154678	219.708
0.121052	217.153
0.085185	212.895
0.051559	206.934
