Adsorption isotherm of Nitrogen on poly(EtVCP)@COFs
DOI: 10.1002/anie.202107915
Article source: Figure S17
Adsorbate Nitrogen: InChIKey IJGRMHOSHXDMSA-UHFFFAOYSA-N
Kind: experiment
Temperature: 77 K
Tabular data in the source: 0
pressure (bar)	uptake (cm3(STP)/g)
0.002724	2.53165
0.012257	3.79747
0.065371	3.79747
0.087161	3.79747
0.117123	3.79747
0.149808	3.79747
0.190665	3.79747
0.247865	3.79747
0.283274	2.53165
0.321407	2.53165
0.354093	3.79747
0.392226	3.79747
0.422188	3.79747
0.460321	3.79747
0.531139	2.53165
0.563825	3.79747
0.599234	5.06329
0.634643	5.06329
0.678224	5.06329
0.705462	2.53165
0.740871	3.79747
0.787175	5.06329
0.868889	3.79747
0.907022	5.06329
0.939708	6.32911
0.975117	7.59494
1.00508	15.1899
0.95605	11.3924
0.919279	9.49367
0.885232	7.59494
0.848461	7.59494
0.830756	6.32911
0.793985	6.32911
0.759937	5.06329
0.724528	3.79747
0.689119	5.06329
0.65371	3.79747
0.615577	3.79747
0.581529	4.43038
0.547482	3.16456
0.493006	2.53165
0.47394	2.53165
0.43853	2.53165
0.384054	2.53165
0.351369	2.53165
0.313236	3.16456
0.279189	2.53165
0.242417	3.16456
0.205646	3.16456
0.174323	3.79747
0.13619	3.79747
0.10078	3.79747
0.073542	3.79747
0.051752	2.53165
