Adsorption isotherm of Nitrogen on Pristine 2D-Pn-3
DOI: 10.1002/anie.202107915
Article source: Figure S17
Adsorbate Nitrogen: InChIKey IJGRMHOSHXDMSA-UHFFFAOYSA-N
Kind: experiment
Temperature: 77 K
Tabular data in the source: 0
pressure (bar)	uptake (cm3(STP)/g)
0.004444	209.239
0.048885	315.217
0.088882	334.239
0.124434	347.826
0.155543	355.978
0.195539	361.413
0.235536	364.13
0.266645	369.565
0.306641	372.283
0.33775	375
0.364414	375
0.408855	380.435
0.439964	383.152
0.479961	385.87
0.511069	391.304
0.546622	391.304
0.57773	394.022
0.617727	396.739
0.651058	398.098
0.688832	402.174
0.719941	404.891
0.759937	407.609
0.791046	413.043
0.826599	418.478
0.862151	421.196
0.897704	432.065
0.933257	442.935
0.968809	461.957
1.00436	502.717
0.964365	491.848
0.937701	478.261
0.897704	464.674
0.866595	453.804
0.831043	445.652
0.799934	437.5
0.755493	432.065
0.719941	426.63
0.688832	421.196
0.65328	418.478
0.622171	413.043
0.57773	413.043
0.546622	410.326
0.515513	407.609
0.479961	402.174
0.43552	394.022
0.404411	391.304
0.351082	388.587
0.328862	385.87
0.302197	383.152
0.266645	380.435
0.231092	377.717
0.191095	372.283
0.155543	364.13
0.11999	358.696
0.088882	347.826
0.044441	323.37
