Adsorption isotherm of Nitrogen on 2D-PN-2-OMe
DOI: 10.1002/anie.202107915
Article source: Figure 3b
Adsorbate Nitrogen: InChIKey IJGRMHOSHXDMSA-UHFFFAOYSA-N
Kind: experiment
Temperature: 77 K
Tabular data in the source: 0
pressure (bar)	uptake (cm3(STP)/g)
0.003333	151.982
0.003333	160.793
0.006666	169.604
0.009999	178.414
0.011666	185.022
0.049996	207.048
0.088326	215.859
0.126656	221.366
0.159987	223.568
0.198317	227.974
0.264978	231.278
0.231648	229.075
0.301642	234.581
0.338306	235.683
0.36997	237.885
0.404967	240.088
0.439964	242.291
0.476627	244.493
0.511625	245.595
0.548288	247.797
0.581619	250
0.616616	252.203
0.654946	254.405
0.689943	256.608
0.72494	259.912
0.759937	263.216
0.794935	267.621
0.829932	272.026
0.864929	277.533
0.899926	285.242
0.93659	295.154
0.96992	310.573
0.999918	333.7
0.961588	325.991
0.929924	316.079
0.894926	306.167
0.864929	298.458
0.829932	290.749
0.794935	285.242
0.761604	280.837
0.72494	276.432
0.688277	273.128
0.65328	270.925
0.618282	267.621
0.581619	265.418
0.546622	264.317
0.511625	262.115
0.478294	257.709
0.443297	248.899
0.398301	245.595
0.353304	243.392
0.334972	242.291
0.298309	240.088
0.263312	238.987
0.229981	236.784
0.194984	234.581
0.15832	231.278
0.121657	227.974
0.088326	223.568
0.051662	216.96
