Adsorption isotherm of Nitrogen on 2D-Pn-4 in 12 M NaOH
DOI: 10.1002/anie.202107915
Article source: Figure S17
Adsorbate Nitrogen: InChIKey IJGRMHOSHXDMSA-UHFFFAOYSA-N
Kind: experiment
Temperature: 77 K
Tabular data in the source: 0
pressure (bar)	uptake (cm3(STP)/g)
-0.002252	131.868
0.006755	148.352
0.006755	159.341
0.05404	210.165
0.08106	218.407
0.123842	226.648
0.16212	230.769
0.198147	232.143
0.22967	234.89
0.265697	237.637
0.303975	239.011
0.335498	239.011
0.367022	241.758
0.398545	241.758
0.443578	244.505
0.475102	244.505
0.515632	244.505
0.547155	247.253
0.578678	247.253
0.619208	250
0.657487	250
0.682255	255.495
0.718282	252.747
0.758812	255.495
0.799342	258.242
0.835368	258.242
0.871395	258.242
0.907422	260.989
0.934442	266.484
0.970468	280.22
1.00199	332.418
0.970468	315.934
0.934442	296.703
0.893912	282.967
0.848878	271.978
