Adsorption isotherm of Nitrogen on 2D-PN-2-H
DOI: 10.1002/anie.202107915
Article source: Figure 3b
Adsorbate Nitrogen: InChIKey IJGRMHOSHXDMSA-UHFFFAOYSA-N
Kind: experiment
Temperature: 77 K
Tabular data in the source: 0
pressure (bar)	uptake (cm3(STP)/g)
0.003333	226.872
0.003333	235.683
0.006666	248.899
0.009999	257.709
0.011666	261.013
0.049996	301.762
0.083326	314.978
0.128323	323.789
0.16332	330.396
0.20165	334.802
0.234981	340.308
0.269978	343.612
0.303308	346.916
0.338306	350.22
0.36997	352.423
0.404967	356.828
0.44163	359.031
0.476627	362.335
0.511625	365.639
0.546622	367.841
0.581619	371.145
0.618282	374.449
0.65328	378.855
0.688277	381.057
0.723274	386.564
0.759937	390.969
0.794935	396.476
0.828265	404.185
0.864929	412.996
0.899926	425.11
0.934923	440.529
0.968254	463.656
1.00158	498.899
0.961588	491.189
0.929924	481.278
0.896593	469.163
0.863262	457.048
0.829932	443.833
0.793268	431.718
0.758271	419.604
0.721607	410.793
0.688277	404.185
0.65328	398.678
0.618282	393.172
0.583285	388.767
0.546622	384.361
0.511625	379.956
0.478294	374.449
0.438297	367.841
0.399967	363.436
0.353304	357.93
0.334972	356.828
0.299975	353.524
0.263312	350.22
0.228315	345.815
0.194984	343.612
0.15832	337.004
0.123323	330.396
0.088326	322.687
0.051662	309.471
