Adsorption isotherm of Nitrogen on Pristi2D-Pn-4 in boiling water
DOI: 10.1002/anie.202107915
Article source: Figure S17
Adsorbate Nitrogen: InChIKey IJGRMHOSHXDMSA-UHFFFAOYSA-N
Kind: experiment
Temperature: 77 K
Tabular data in the source: 0
pressure (bar)	uptake (cm3(STP)/g)
0.002252	120.879
0.002252	137.363
0.006755	151.099
0.009007	160.714
0.049537	215.659
0.078808	225.275
0.123842	233.516
0.157617	237.637
0.195895	241.758
0.231922	243.132
0.265697	245.879
0.299472	248.626
0.335498	250
0.369273	251.374
0.4053	252.747
0.441327	254.121
0.475102	255.495
0.508877	256.868
0.547155	258.242
0.58093	258.242
0.616957	259.615
0.652983	260.989
0.686758	262.363
0.725037	263.736
0.758812	266.484
0.79709	267.857
0.828613	270.604
0.866892	273.352
0.900667	278.846
0.936693	282.967
0.970468	293.956
1.00649	332.418
0.965965	324.176
0.934442	313.187
0.898415	302.198
0.862388	291.209
0.830865	288.462
0.799342	282.967
0.758812	282.967
0.722785	280.22
0.686758	277.473
0.650732	277.473
0.619208	274.725
0.583182	274.725
0.547155	274.725
0.511128	271.978
0.479605	267.857
0.436823	265.11
0.385035	263.736
0.349008	260.989
0.335498	260.989
0.294968	260.989
0.254438	255.495
0.231922	255.495
0.200398	255.495
0.146358	247.253
0.114835	247.253
0.078808	239.011
0.047285	225.275
1.00649	332.418
0.965965	324.176
0.934442	313.187
0.898415	302.198
0.862388	291.209
0.830865	288.462
0.799342	282.967
0.758812	282.967
0.722785	280.22
0.686758	277.473
0.650732	277.473
0.619208	274.725
0.583182	274.725
0.547155	274.725
0.511128	271.978
0.479605	267.857
0.436823	265.11
0.385035	263.736
0.349008	260.989
0.335498	260.989
0.294968	260.989
0.254438	255.495
0.231922	255.495
0.200398	255.495
0.146358	247.253
0.114835	247.253
0.078808	239.011
0.047285	225.275
