Adsorption isotherm of Nitrogen on 2D-PhenN-2 in boiling water
DOI: 10.1002/anie.202107915
Article source: Figure S17
Adsorbate Nitrogen: InChIKey IJGRMHOSHXDMSA-UHFFFAOYSA-N
Kind: experiment
Temperature: 77 K
Tabular data in the source: 0
pressure (bar)	uptake (cm3(STP)/g)
0.008927	224.719
0.026782	256.18
0.060259	287.64
0.104896	303.371
0.136142	312.36
0.174083	319.101
0.20756	319.101
0.243269	325.843
0.276747	328.09
0.312456	332.584
0.345933	337.079
0.383874	341.573
0.41512	346.067
0.453061	348.315
0.48877	350.562
0.526711	352.809
0.560189	359.551
0.595898	364.045
0.631607	368.539
0.662853	375.281
0.700794	379.775
0.752126	388.764
0.790067	400
0.825776	408.989
0.857022	424.719
0.894963	456.18
0.926209	505.618
0.961918	582.022
0.999859	710.112
0.968613	683.146
0.928441	626.966
0.901659	591.011
0.865949	530.337
0.821313	462.921
0.792299	431.461
