Adsorption isotherm of Nitrogen on 2D-PN-2-OMe in 0.01 M HCl
DOI: 10.1002/anie.202107915
Article source: Figure S17
Adsorbate Nitrogen: InChIKey IJGRMHOSHXDMSA-UHFFFAOYSA-N
Kind: experiment
Temperature: 77 K
Tabular data in the source: 0
pressure (bar)	uptake (cm3(STP)/g)
0	126.886
0.004483	135.401
0.008967	141.363
0.049317	160.949
0.085185	166.058
0.121052	171.168
0.156919	172.871
0.195028	176.277
0.230895	177.129
0.262279	178.832
0.295905	180.535
0.334014	182.238
0.372123	183.09
0.403507	183.942
0.439374	184.793
0.475241	185.645
0.511108	187.348
0.546976	188.2
0.582843	189.051
0.614227	189.903
0.650094	191.606
0.685961	193.309
0.726312	195.012
0.759937	196.715
0.798046	200.122
0.82943	201.825
0.865298	206.083
0.901165	212.044
0.939274	219.708
0.970658	230.779
1.00428	253.771
0.963933	246.107
0.928065	237.591
0.889956	229.927
0.867539	226.521
0.82943	218.856
0.798046	215.45
0.762179	212.044
0.726312	208.637
0.690445	208.637
0.650094	206.934
0.61871	206.934
0.582843	205.231
0.542492	203.528
0.511108	201.825
0.475241	200.122
0.439374	195.012
0.399023	191.606
0.349706	191.606
0.309355	189.903
0.295905	189.903
0.260038	189.903
0.228654	186.496
0.190545	186.496
0.156919	184.793
0.116569	183.09
0.085185	181.387
0.049317	176.277
