Adsorption isotherm of Nitrogen on 3D-PN-1
DOI: 10.1002/anie.202107915
Article source: Figure 3c
Adsorbate Nitrogen: InChIKey IJGRMHOSHXDMSA-UHFFFAOYSA-N
Kind: experiment
Temperature: 77 K
Tabular data in the source: 0
pressure (bar)	uptake (cm3(STP)/g)
0	102.283
0.003344	105.023
0.006688	108.676
0.011704	111.872
0.050161	121.461
0.093634	125.571
0.125402	127.397
0.158843	129.68
0.195627	130.594
0.229068	131.963
0.267525	132.877
0.300965	133.79
0.334406	134.247
0.369519	135.616
0.406303	136.073
0.441416	136.986
0.476528	137.443
0.511641	138.356
0.546754	138.813
0.583538	139.726
0.618651	140.183
0.653764	141.096
0.688876	141.553
0.725661	142.466
0.760774	143.836
0.794214	145.205
0.830999	147.032
0.866111	149.315
0.901224	152.968
0.936337	158.447
0.969777	167.58
1.00823	201.826
0.973121	187.671
0.936337	173.973
0.896208	164.84
0.869455	159.817
0.830999	155.251
0.797558	152.511
0.760774	150.228
0.723989	148.402
0.690548	147.032
0.653764	146.119
0.618651	145.662
0.583538	144.749
0.548426	143.836
0.513313	143.379
0.476528	142.466
0.441416	141.553
0.406303	140.639
0.371191	139.726
0.334406	139.269
0.299293	138.356
0.262509	137.443
0.227396	136.53
0.157171	134.247
0.122058	132.42
0.085274	130.137
0.051833	127.397
