Adsorption isotherm of Nitrogen on 3D-Pn-1 in 1 M HCl
DOI: 10.1002/anie.202107915
Article source: Figure S17
Adsorbate Nitrogen: InChIKey IJGRMHOSHXDMSA-UHFFFAOYSA-N
Kind: experiment
Temperature: 77 K
Tabular data in the source: 0
pressure (bar)	uptake (cm3(STP)/g)
0	98.2143
0.003227	103.175
0.003227	108.135
0.009681	112.103
0.050017	120.536
0.091967	124.504
0.12585	126.984
0.159732	128.472
0.193615	129.96
0.230724	130.952
0.264607	131.944
0.298489	133.433
0.333985	134.425
0.369481	134.921
0.404977	135.417
0.440473	135.913
0.475969	137.401
0.509852	137.401
0.546961	138.393
0.582457	138.889
0.617953	139.881
0.651836	140.873
0.687332	141.865
0.724441	142.857
0.759937	143.849
0.79382	145.337
0.827703	146.825
0.864812	149.802
0.898695	153.274
0.932577	157.738
0.968073	167.659
1.00841	201.885
0.9713	187.5
0.934191	174.603
0.893854	164.683
0.869652	160.714
0.83093	155.754
0.795434	152.778
0.764778	149.802
0.729282	148.81
0.690559	146.825
0.655063	146.825
0.61634	145.833
0.580844	144.841
0.545348	143.849
0.509852	142.857
0.477583	142.857
0.43886	141.865
0.403364	140.873
0.371095	139.881
0.332372	138.889
0.300103	137.897
0.267834	137.897
0.229111	135.913
0.193615	134.921
0.158119	134.921
0.119396	133.929
0.090354	130.952
0.048404	127.976
1.00841	201.885
0.9713	187.5
0.934191	174.603
0.893854	164.683
0.869652	160.714
0.83093	155.754
0.795434	152.778
0.764778	149.802
0.729282	148.81
0.690559	146.825
0.655063	146.825
0.61634	145.833
0.580844	144.841
0.545348	143.849
0.509852	142.857
0.477583	142.857
0.43886	141.865
0.403364	140.873
0.371095	139.881
0.332372	138.889
0.300103	137.897
0.267834	137.897
0.229111	135.913
0.193615	134.921
0.158119	134.921
0.119396	133.929
0.090354	130.952
0.048404	127.976
