Adsorption isotherm of Nitrogen on 2D-PN-4
DOI: 10.1002/anie.202107915
Article source: Figure 3a
Adsorbate Nitrogen: InChIKey IJGRMHOSHXDMSA-UHFFFAOYSA-N
Kind: experiment
Temperature: 77 K
Tabular data in the source: 0
pressure (bar)	uptake (cm3(STP)/g)
0.003355	186.842
0.003355	202.632
0.003355	221.053
0.00671	231.579
0.00671	244.737
0.010065	257.895
0.046972	347.368
0.090589	371.053
0.12414	380.263
0.161046	386.842
0.19963	392.105
0.234859	397.368
0.301962	402.632
0.369065	406.579
0.404293	409.211
0.4412	411.842
0.476429	413.158
0.511658	417.105
0.548564	417.105
0.582115	419.737
0.619022	419.737
0.652573	422.368
0.68948	425
0.726386	426.316
0.761615	428.947
0.796844	428.947
0.832073	434.211
0.865624	436.842
0.902531	442.105
0.936082	448.684
0.969633	460.526
1.00822	507.895
0.966278	494.737
0.934404	478.947
0.897498	464.474
0.867302	456.579
0.832073	450
0.796844	444.737
0.761615	442.105
0.724709	439.474
0.68948	436.842
0.654251	434.211
0.617344	432.895
0.582115	430.263
0.546887	428.947
0.511658	427.632
0.476429	423.684
0.439522	421.053
0.402616	418.421
0.369065	415.789
0.333836	413.158
0.298607	411.842
0.2617	407.895
0.226471	403.947
0.191243	400
0.156014	394.737
0.119107	386.842
0.087233	377.632
0.050327	357.895
