Adsorption isotherm of Nitrogen on 2D-PN-1
DOI: 10.1002/anie.202107915
Article source: Figure 3a
Adsorbate Nitrogen: InChIKey IJGRMHOSHXDMSA-UHFFFAOYSA-N
Kind: experiment
Temperature: 77 K
Tabular data in the source: 0
pressure (bar)	uptake (cm3(STP)/g)
0.008388	230.263
0.048649	271.053
0.087233	285.526
0.122462	293.421
0.157691	300
0.196275	306.579
0.231504	311.842
0.266733	317.105
0.301962	321.053
0.337191	326.316
0.369065	331.579
0.405971	335.526
0.439522	340.789
0.476429	346.053
0.511658	351.316
0.546887	356.579
0.582115	363.158
0.617344	369.737
0.652573	377.632
0.68948	385.526
0.724709	396.053
0.759937	407.895
0.796844	422.368
0.867302	452.632
0.902531	469.737
0.936082	485.526
0.971311	509.211
1.00822	586.842
0.967956	568.421
0.932727	547.368
0.899175	526.316
0.865624	510.526
0.830395	497.368
0.796844	488.158
0.761615	478.947
0.724709	467.105
0.68948	457.895
0.654251	446.053
0.545209	398.684
0.511658	384.211
0.476429	369.737
0.4412	351.316
0.397583	343.421
0.353966	336.842
0.335513	334.211
0.298607	328.947
0.263378	323.684
0.226471	318.421
0.191243	313.158
0.156014	306.579
0.120785	300
0.087233	290.789
0.050327	277.632
