Adsorption isotherm of Nitrogen on 2D-Pn-3 in 0.1 M HCl
DOI: 10.1002/anie.202107915
Article source: Figure S17
Adsorbate Nitrogen: InChIKey IJGRMHOSHXDMSA-UHFFFAOYSA-N
Kind: experiment
Temperature: 77 K
Tabular data in the source: 0
pressure (bar)	uptake (cm3(STP)/g)
0.004444	76.087
0.004444	89.6739
0.008888	103.261
0.008888	114.13
0.051107	168.478
0.084437	176.63
0.124434	182.065
0.159987	184.783
0.195539	187.5
0.22887	188.859
0.262201	190.217
0.297753	190.217
0.335528	191.576
0.366637	191.576
0.404411	192.935
0.439964	192.935
0.475516	192.935
0.511069	194.293
0.546622	195.652
0.579952	195.652
0.617727	197.011
0.651058	197.011
0.688832	198.37
0.722163	198.37
0.759937	201.087
0.793268	203.804
0.828821	206.522
0.864373	213.315
0.899926	220.109
0.933257	233.696
0.964365	264.946
1.00658	366.848
0.968809	346.467
0.939923	317.935
0.899926	275.815
0.853263	248.641
0.819933	236.413
0.779936	228.261
0.742161	225.543
0.704387	221.467
0.673278	220.109
0.631059	220.109
0.617727	217.391
0.57773	217.391
0.524401	217.391
0.511069	217.391
0.477738	210.598
0.43552	203.804
0.404411	203.804
0.34886	202.446
0.311086	201.087
0.297753	201.087
0.262201	199.728
0.226648	198.37
0.191095	198.37
0.155543	195.652
0.11999	192.935
0.08666	187.5
0.051107	179.348
