Adsorption isotherm of Nitrogen on Pristine 2D-PhenN-6 after one run of RROP
DOI: 10.1002/anie.202107915
Article source: Figure S34B
Adsorbate Nitrogen: InChIKey IJGRMHOSHXDMSA-UHFFFAOYSA-N
Kind: experiment
Temperature: 77 K
Tabular data in the source: 0
pressure (bar)	uptake (cm3(STP)/g)
0	93.7322
0.008716	107.194
0.047939	124.145
0.092609	132.123
0.122026	134.615
0.15798	137.607
0.193934	139.601
0.230977	140.598
0.263663	141.595
0.299617	143.59
0.334481	144.587
0.369346	146.581
0.4053	147.578
0.441254	149.074
0.476119	150.57
0.510983	151.567
0.548027	152.066
0.582891	154.558
0.618845	155.556
0.654799	156.553
0.688574	158.048
0.723439	159.544
0.760482	162.536
0.795347	164.53
0.830211	168.02
0.865076	172.009
0.90103	177.493
0.935894	185.969
0.971848	196.937
1.00562	215.385
0.960953	207.407
0.92391	200.427
0.889045	194.444
0.869434	192.949
0.829122	186.467
0.797526	182.479
0.758303	178.49
0.725618	176.496
0.687485	172.507
0.65371	170.014
0.618845	166.524
0.58507	167.521
0.548027	165.527
0.510983	163.034
0.476119	161.04
0.441254	158.547
0.4053	155.057
0.350824	154.06
0.317049	152.564
0.280006	147.578
0.246231	147.578
0.210277	145.584
0.173233	142.593
0.137279	140.598
