Adsorption isotherm of Nitrogen on 3D-PN-1
DOI: 10.1002/anie.202107915
Article source: Figure S17
Adsorbate Nitrogen: InChIKey IJGRMHOSHXDMSA-UHFFFAOYSA-N
Kind: experiment
Temperature: 77 K
Tabular data in the source: 0
pressure (bar)	uptake (cm3(STP)/g)
0.003227	129.482
0.003227	134.462
0.003227	140.438
0.006454	143.426
0.009681	148.406
0.04195	161.355
0.096807	165.339
0.122623	166.335
0.158119	167.331
0.200068	170.319
0.222657	170.319
0.258153	171.315
0.300103	171.315
0.335599	171.315
0.374322	172.311
0.406591	172.311
0.43886	171.315
0.487264	172.311
0.52276	172.311
0.551802	172.311
0.580844	172.311
0.638928	170.319
0.674424	170.319
0.693786	170.319
0.722828	171.315
0.777686	171.315
0.790593	172.311
0.829316	173.307
0.861585	173.307
0.897081	175.299
0.932577	180.279
1.0068	239.044
0.9713	213.147
0.926123	192.231
0.8874	183.267
0.851904	179.283
0.813182	176.295
0.777686	175.299
0.738963	175.299
0.703467	173.307
0.667971	174.303
0.635701	174.303
0.596979	173.307
0.564709	174.303
0.525986	174.303
0.493717	174.303
0.454994	173.307
0.442087	173.307
0.403364	173.307
0.351733	173.307
0.338826	173.307
0.300103	172.311
0.225884	172.311
0.190388	171.315
0.158119	170.319
0.122623	170.319
0.087127	168.327
0.051631	163.347
