Adsorption isotherm of Nitrogen on Pristine 2D-PhenN-6
DOI: 10.1002/anie.202107915
Article source: Figure S34B
Adsorbate Nitrogen: InChIKey IJGRMHOSHXDMSA-UHFFFAOYSA-N
Kind: experiment
Temperature: 77 K
Tabular data in the source: 0
pressure (bar)	uptake (cm3(STP)/g)
0	164.53
0.006537	172.507
0.006537	178.49
0.009806	182.977
0.049028	208.405
0.088251	216.88
0.125294	220.869
0.159069	224.359
0.198292	228.348
0.230977	230.84
0.265842	231.838
0.299617	234.33
0.335571	236.823
0.370435	237.322
0.4053	240.313
0.441254	241.809
0.476119	244.302
0.512073	246.296
0.545848	247.792
0.582891	250.285
0.616666	252.279
0.65371	254.273
0.689664	257.265
0.724528	259.758
0.760482	262.749
0.796436	266.738
0.830211	272.222
0.866165	278.205
0.90103	284.687
0.936984	295.157
0.969669	310.114
1.00127	334.544
0.962043	327.066
0.930447	317.593
0.895582	306.624
0.863986	299.145
0.830211	292.165
0.797526	284.687
0.758303	281.695
0.726707	277.208
0.689664	272.721
0.655889	271.225
0.618845	269.231
0.583981	266.239
0.546937	265.242
0.512073	262.251
0.481566	257.764
0.441254	249.786
0.398763	245.299
0.353003	244.801
0.334481	243.305
0.298527	240.812
0.264752	239.316
0.227709	238.319
0.192844	234.33
0.15689	231.838
0.122026	228.348
0.087161	223.86
0.052297	217.379
