Adsorption isotherm of Nitrogen on 3D-Pn-1 in 12 M NaOH
DOI: 10.1002/anie.202107915
Article source: Figure S17
Adsorbate Nitrogen: InChIKey IJGRMHOSHXDMSA-UHFFFAOYSA-N
Kind: experiment
Temperature: 77 K
Tabular data in the source: 0
pressure (bar)	uptake (cm3(STP)/g)
0	109.127
0.003227	115.079
0.006454	121.032
0.011294	125.992
0.048404	133.929
0.098421	138.889
0.12585	140.377
0.154892	141.865
0.190388	143.849
0.227497	144.345
0.271061	143.849
0.306557	143.849
0.364641	143.849
0.425952	143.849
0.467902	140.873
0.52276	141.865
0.571163	140.873
0.606659	141.865
0.648609	141.865
0.713147	141.865
0.758324	140.873
0.792207	140.873
0.827703	141.369
0.88256	143.849
0.901922	144.345
0.937418	146.825
0.969687	149.306
1.00196	163.69
0.956779	155.754
0.91967	150.794
0.88256	149.802
0.847064	146.825
0.811568	145.833
0.774459	144.841
0.74703	145.337
0.717988	145.833
0.684105	145.833
0.661517	146.825
0.626021	146.825
0.593752	145.833
0.561482	146.825
0.52276	146.825
0.488877	145.833
0.454994	145.833
0.440473	145.337
0.404977	146.329
0.348506	145.833
0.31301	145.833
0.298489	145.833
0.262993	145.337
0.206522	145.833
0.159732	144.841
0.124236	142.857
0.085513	141.865
0.051631	138.889
1.00196	163.69
0.956779	155.754
0.91967	150.794
0.88256	149.802
0.847064	146.825
0.811568	145.833
0.774459	144.841
0.74703	145.337
0.717988	145.833
0.684105	145.833
0.661517	146.825
0.626021	146.825
0.593752	145.833
0.561482	146.825
0.52276	146.825
0.488877	145.833
0.454994	145.833
0.440473	145.337
0.404977	146.329
0.348506	145.833
0.31301	145.833
0.298489	145.833
0.262993	145.337
0.206522	145.833
0.159732	144.841
0.124236	142.857
0.085513	141.865
0.051631	138.889
