Adsorption isotherm of Nitrogen on 2D-PN-2-Me in boiling water
DOI: 10.1002/anie.202107915
Article source: Figure S17
Adsorbate Nitrogen: InChIKey IJGRMHOSHXDMSA-UHFFFAOYSA-N
Kind: experiment
Temperature: 77 K
Tabular data in the source: 0
pressure (bar)	uptake (cm3(STP)/g)
0.004523	189.189
0.009047	205.405
0.047496	239.189
0.09273	252.703
0.122133	256.757
0.15832	260.811
0.192246	263.514
0.228434	266.216
0.262359	270.27
0.298547	270.27
0.334734	272.973
0.370922	278.378
0.404848	277.027
0.441035	279.73
0.472699	281.081
0.511148	283.784
0.545074	286.486
0.581262	287.838
0.615187	289.189
0.653637	291.892
0.687563	294.595
0.72375	297.297
0.757676	301.351
0.793863	306.757
0.866238	318.919
0.900164	327.027
0.936352	339.189
0.972539	341.892
1.00646	354.054
0.949922	348.649
0.900164	337.838
0.850406	335.135
0.818742	329.73
0.787078	329.73
0.746367	332.432
0.71018	329.73
0.664945	329.73
0.633281	327.027
0.597094	321.622
0.560906	321.622
0.542812	316.216
0.515672	313.514
0.479484	302.703
0.441035	291.892
0.398063	286.486
0.352828	283.784
0.314379	282.432
0.298547	281.081
0.262359	278.378
0.226172	275.676
0.189984	272.973
0.15832	268.919
0.119871	264.865
0.085945	259.459
0.049758	248.649
