Adsorption isotherm of Nitrogen on 3D-Pn-1 in boiling water
DOI: 10.1002/anie.202107915
Article source: Figure S17
Adsorbate Nitrogen: InChIKey IJGRMHOSHXDMSA-UHFFFAOYSA-N
Kind: experiment
Temperature: 77 K
Tabular data in the source: 0
pressure (bar)	uptake (cm3(STP)/g)
0	89.2857
0.006454	96.2302
0.009681	101.687
0.050017	108.135
0.087127	111.111
0.122623	113.095
0.158119	114.087
0.192001	115.079
0.230724	115.575
0.26622	116.567
0.300103	116.071
0.333985	117.063
0.371095	118.056
0.404977	118.552
0.440473	118.552
0.474356	118.552
0.509852	119.048
0.545348	119.048
0.580844	119.048
0.651836	120.04
0.617953	119.048
0.687332	119.544
0.722828	120.04
0.758324	120.04
0.797047	120.04
0.83093	121.032
0.866426	122.52
0.901922	124.008
0.935804	126.488
0.9713	132.937
1.00034	149.802
0.958393	141.865
0.926123	133.929
0.885787	128.968
0.850291	125.992
0.813182	125
0.777686	123.016
0.738963	123.016
0.706693	122.024
0.667971	122.024
0.635701	123.016
0.596979	122.024
0.580844	122.024
0.546961	122.024
0.492104	121.528
0.474356	121.032
0.43886	121.032
0.385616	121.032
0.35012	121.032
0.335599	120.04
0.298489	121.032
0.262993	121.032
0.225884	120.04
0.193615	119.048
0.158119	118.056
0.119396	117.063
0.087127	115.575
0.051631	113.095
