Adsorption isotherm of Nitrogen on 2D-PN-1 in 0.01M HCl
DOI: 10.1002/anie.202107915
Article source: Figure S17
Adsorbate Nitrogen: InChIKey IJGRMHOSHXDMSA-UHFFFAOYSA-N
Kind: experiment
Temperature: 77 K
Tabular data in the source: 0
pressure (bar)	uptake (cm3(STP)/g)
0	139.314
0.004444	155.145
0.008888	166.227
0.048885	189.974
0.088882	199.472
0.11999	202.639
0.159987	208.971
0.195539	212.137
0.231092	212.137
0.266645	218.47
0.299975	220.053
0.333306	223.219
0.366637	226.385
0.404411	229.551
0.437742	229.551
0.477738	234.301
0.511069	234.301
0.548844	239.05
0.579952	240.633
0.615505	243.799
0.651058	246.966
0.68661	251.715
0.722163	254.881
0.759937	259.631
0.791046	267.546
0.826599	273.879
0.868817	281.794
0.902148	291.293
0.935479	302.375
0.968809	318.206
0.999918	345.119
0.957699	335.62
0.919924	326.121
0.884372	318.206
0.866595	313.456
0.828821	307.124
0.793268	302.375
0.755493	297.625
0.719941	288.127
0.688832	283.377
0.65328	275.462
0.617727	269.129
0.582174	262.797
0.546622	259.631
0.511069	254.881
0.479961	246.966
0.439964	237.467
0.399967	234.301
0.351082	227.968
0.31553	224.802
0.302197	224.802
0.264423	223.219
0.22887	218.47
0.191095	216.887
0.157765	213.72
0.11999	208.971
0.084437	204.222
0.051107	196.306
