Adsorption isotherm of Nitrogen on 2D-PN-2-Me in 0.01 M HCl
DOI: 10.1002/anie.202107915
Article source: Figure S17
Adsorbate Nitrogen: InChIKey IJGRMHOSHXDMSA-UHFFFAOYSA-N
Kind: experiment
Temperature: 77 K
Tabular data in the source: 0
pressure (bar)	uptake (cm3(STP)/g)
0.002262	114.865
0.004523	128.378
0.006785	141.892
0.047496	171.622
0.094992	183.784
0.119871	187.838
0.15832	191.892
0.192246	194.595
0.226172	198.649
0.264621	200
0.298547	202.703
0.334734	208.108
0.370922	210.811
0.402586	210.811
0.438773	213.514
0.477223	214.865
0.511148	217.568
0.545074	218.919
0.581262	222.973
0.619711	224.324
0.653637	228.378
0.687563	233.784
0.72375	237.838
0.759937	244.595
0.793863	250
0.830051	260.811
0.866238	275.676
0.902426	291.892
0.936352	320.27
0.972539	354.054
1.00646	466.216
0.963492	429.73
0.931828	391.892
0.893379	354.054
0.866238	331.081
0.830051	306.757
0.796125	287.838
0.759937	275.676
0.72375	264.865
0.687563	256.757
0.653637	250
0.617449	243.243
0.583523	240.541
0.547336	235.135
0.51341	232.432
0.474961	228.378
0.441035	221.622
0.402586	218.919
0.350566	214.865
0.316641	212.162
0.296285	212.162
0.262359	210.811
0.226172	208.108
0.189984	205.405
0.156059	201.351
0.122133	195.946
0.085945	190.541
0.049758	181.081
