Adsorption isotherm of Nitrogen on 2D-Pn-3 in boiling water
DOI: 10.1002/anie.202107915
Article source: Figure S17
Adsorbate Nitrogen: InChIKey IJGRMHOSHXDMSA-UHFFFAOYSA-N
Kind: experiment
Temperature: 77 K
Tabular data in the source: 0
pressure (bar)	uptake (cm3(STP)/g)
0.004444	149.457
0.008888	163.043
0.048885	244.565
0.088882	260.87
0.124434	266.304
0.159987	271.739
0.191095	274.457
0.231092	282.609
0.271089	282.609
0.302197	285.326
0.333306	288.043
0.364414	290.761
0.404411	290.761
0.439964	293.478
0.471072	296.196
0.511069	301.63
0.551066	301.63
0.57773	304.348
0.613283	304.348
0.657724	307.065
0.693276	309.783
0.728829	309.783
0.764382	309.783
0.79549	312.5
0.822155	315.217
0.862151	323.37
0.897704	331.522
0.933257	347.826
0.968809	377.717
1.00436	472.826
0.973253	442.935
0.937701	408.967
0.902148	375
0.862151	353.261
0.831043	345.109
0.79549	334.239
0.764382	328.804
0.719941	326.087
0.688832	323.37
0.65328	323.37
0.617727	317.935
0.582174	317.935
0.546622	315.217
0.508847	312.5
0.475516	309.783
0.439964	307.065
0.402189	304.348
0.351082	301.63
