Adsorption isotherm of Nitrogen on Pristine 2D-PhenN-2
DOI: 10.1002/anie.202107915
Article source: Figure S17
Adsorbate Nitrogen: InChIKey IJGRMHOSHXDMSA-UHFFFAOYSA-N
Kind: experiment
Temperature: 77 K
Tabular data in the source: 0
pressure (bar)	uptake (cm3(STP)/g)
0	224.719
0.008927	247.191
0.013391	260.674
0.053564	307.865
0.089273	323.596
0.124982	330.337
0.15846	339.326
0.194169	343.82
0.229878	346.067
0.265588	348.315
0.299065	350.562
0.330311	355.056
0.36602	359.551
0.859254	420.225
0.899427	424.719
0.932904	440.449
0.968613	465.169
0.999859	498.876
0.957454	492.135
0.926209	483.146
