Adsorption isotherm of Nitrogen on Pristine 2D-PN-1
DOI: 10.1002/anie.202107915
Article source: Figure S17
Adsorbate Nitrogen: InChIKey IJGRMHOSHXDMSA-UHFFFAOYSA-N
Kind: experiment
Temperature: 77 K
Tabular data in the source: 0
pressure (bar)	uptake (cm3(STP)/g)
0	205.805
0.004444	218.47
0.008888	234.301
0.048885	269.129
0.088882	284.96
0.124434	291.293
0.159987	300.792
0.195539	305.541
0.231092	313.456
0.266645	316.623
0.299975	322.955
0.333306	326.121
0.368859	332.454
0.404411	337.203
0.437742	340.369
0.477738	345.119
0.511069	353.034
0.5444	356.201
0.582174	364.116
0.617727	373.615
0.65328	376.781
0.688832	386.28
0.724385	395.778
0.759937	408.443
0.791046	421.108
0.831043	436.939
0.866595	455.937
0.897704	465.435
0.933257	481.266
0.971031	509.763
1.00881	588.918
0.964365	573.087
0.933257	550.923
0.902148	525.594
0.866595	512.929
0.826599	500.264
0.791046	490.765
0.759937	481.266
0.719941	471.768
0.688832	462.269
0.65328	449.604
0.619949	433.773
0.582174	416.359
0.546622	398.945
0.511069	386.28
0.475516	373.615
0.444408	351.451
0.399967	345.119
0.35997	335.62
0.335528	337.203
0.297753	329.288
0.262201	324.538
0.22887	319.789
0.191095	313.456
0.155543	308.707
0.122212	300.792
0.08666	292.876
0.051107	280.211
