Adsorption isotherm of Nitrogen on Pristine 2D-Pn-2-OMe
DOI: 10.1002/anie.202107915
Article source: Figure S17
Adsorbate Nitrogen: InChIKey IJGRMHOSHXDMSA-UHFFFAOYSA-N
Kind: experiment
Temperature: 77 K
Tabular data in the source: 0
pressure (bar)	uptake (cm3(STP)/g)
0	170.886
0.005448	175.949
0.008171	182.278
0.047666	207.595
0.087161	216.456
0.123932	220.886
0.160704	224.051
0.198837	226.582
0.234246	229.114
0.266931	231.646
0.302341	232.911
0.33775	236.709
0.367712	237.975
0.403121	239.241
0.441254	243.038
0.476663	245.57
0.509349	246.835
0.544758	248.101
0.582891	249.367
0.615577	252.532
0.65371	254.43
0.686395	256.962
0.721804	259.494
0.759937	262.025
0.792623	267.089
0.828032	272.152
0.868889	277.215
0.896127	282.278
0.93426	294.937
0.966946	311.392
0.999631	332.911
0.961498	326.582
0.930174	317.089
0.894765	305.696
0.864803	298.101
0.829394	290.506
0.793985	284.177
0.757214	279.747
0.724528	275.949
0.687757	272.785
0.652348	270.253
0.615577	267.722
0.581529	265.823
0.544758	263.291
0.510711	260.759
0.476663	256.962
0.442616	248.734
0.39495	245.57
0.351369	243.671
0.333664	243.038
0.296893	240.506
0.261484	239.241
0.226075	236.709
0.190665	234.177
0.156618	231.013
0.121209	229.114
0.087161	224.051
0.05039	217.089
