Adsorption isotherm of Nitrogen on 2D-PN-2-Me
DOI: 10.1002/anie.202107915
Article source: Figure 3b
Adsorbate Nitrogen: InChIKey IJGRMHOSHXDMSA-UHFFFAOYSA-N
Kind: experiment
Temperature: 77 K
Tabular data in the source: 0
pressure (bar)	uptake (cm3(STP)/g)
0.006666	224.67
0.009999	231.278
0.011666	238.987
0.053329	272.026
0.088326	280.837
0.126656	288.546
0.164986	292.952
0.20165	297.357
0.233314	298.458
0.269978	301.762
0.301642	303.965
0.336639	305.066
0.36997	307.269
0.4033	308.37
0.44163	310.573
0.476627	311.674
0.511625	312.775
0.546622	313.877
0.583285	316.079
0.618282	316.079
0.65328	316.079
0.689943	317.181
0.72494	319.383
0.759937	320.485
0.794935	321.586
0.831598	322.687
0.866595	322.687
0.901593	324.89
0.971587	329.295
1.00658	332.599
0.956588	332.599
0.919924	330.396
0.884927	328.194
0.866595	327.092
0.829932	327.092
0.778269	325.991
0.759937	324.89
0.723274	324.89
0.671611	323.789
0.654946	322.687
0.616616	322.687
0.563287	321.586
0.549955	320.485
0.511625	320.485
0.478294	318.282
0.44163	316.079
0.4033	313.877
0.36997	312.775
0.334972	310.573
0.298309	308.37
0.263312	306.167
0.226648	303.965
0.193317	300.661
0.15832	297.357
0.121657	291.85
0.089993	286.344
0.053329	275.33
