Adsorption isotherm of Nitrogen on 2D-PN-1 in boiling water
DOI: 10.1002/anie.202107915
Article source: Figure S17
Adsorbate Nitrogen: InChIKey IJGRMHOSHXDMSA-UHFFFAOYSA-N
Kind: experiment
Temperature: 77 K
Tabular data in the source: 0
pressure (bar)	uptake (cm3(STP)/g)
0	158.311
0.004444	170.976
0.004444	186.807
0.008888	199.472
0.008888	208.971
0.048885	239.05
0.09777	250.132
0.124434	256.464
0.157765	261.214
0.195539	265.963
0.22887	265.963
0.264423	272.296
0.299975	272.296
0.335528	277.045
0.368859	278.628
0.406633	278.628
0.439964	281.794
0.475516	283.377
0.511069	284.96
0.548844	286.544
0.582174	288.127
0.617727	291.293
0.65328	294.459
0.688832	297.625
0.719941	300.792
0.755493	303.958
0.791046	310.29
0.831043	316.623
0.862151	322.955
0.897704	329.288
0.948811	335.62
1.00436	356.201
0.953255	351.451
0.917702	348.285
0.879928	348.285
0.864373	345.119
0.828821	340.369
0.793268	340.369
0.759937	335.62
0.724385	332.454
0.688832	330.871
0.65328	326.121
0.617727	322.955
0.582174	319.789
0.546622	315.04
0.511069	313.456
0.477738	303.958
0.439964	289.71
0.402189	286.544
0.351082	283.377
0.31553	281.794
0.299975	280.211
0.264423	280.211
0.22887	277.045
0.191095	273.879
0.155543	269.129
0.122212	265.963
0.08666	259.631
0.053329	251.715
