Adsorption isotherm of Nitrogen on Pristine 2D-PhenN-6 after 5 runs of RROP
DOI: 10.1002/anie.202107915
Article source: Figure S34B
Adsorbate Nitrogen: InChIKey IJGRMHOSHXDMSA-UHFFFAOYSA-N
Kind: experiment
Temperature: 77 K
Tabular data in the source: 0
pressure (bar)	uptake (cm3(STP)/g)
0	88.7464
0.004358	97.7208
0.010895	100.712
0.047939	117.664
0.092609	126.638
0.119847	129.63
0.15689	133.618
0.191755	138.604
0.229888	140.598
0.265842	143.59
0.298527	145.584
0.335571	148.576
0.368256	151.567
0.403121	153.561
0.440165	155.556
0.475029	158.547
0.512073	160.541
0.548027	163.533
0.581802	166.026
0.616666	168.519
0.65262	171.51
0.688574	174.501
0.723439	177.493
0.758303	180.983
0.794257	185.47
0.830211	190.456
0.863986	195.94
0.902119	203.419
0.935894	212.892
0.969669	228.348
1.00235	257.764
0.960953	246.296
0.927178	231.339
0.890135	220.869
0.868344	215.385
0.830211	208.405
0.795347	202.422
0.760482	198.433
0.725618	194.444
0.688574	189.459
0.65371	186.467
0.618845	184.473
0.581802	181.481
0.549116	178.49
0.512073	177.493
0.477208	174.501
0.440165	167.521
0.398763	164.53
0.374794	162.536
0.331213	161.538
0.302885	159.544
0.259305	157.55
0.22444	153.561
0.189576	152.564
0.159069	149.573
0.122026	145.584
0.08934	142.593
0.050118	136.61
