Adsorption isotherm of Nitrogen on 2D-PN-3
DOI: 10.1002/anie.202107915
Article source: Figure 3a
Adsorbate Nitrogen: InChIKey IJGRMHOSHXDMSA-UHFFFAOYSA-N
Kind: experiment
Temperature: 77 K
Tabular data in the source: 0
pressure (bar)	uptake (cm3(STP)/g)
0.003355	184.211
0.003355	197.368
0.00671	213.158
0.048649	314.474
0.087233	335.526
0.122462	347.368
0.161046	355.263
0.201308	360.526
0.236537	365.789
0.270088	368.421
0.303639	372.368
0.337191	375
0.369065	377.632
0.404293	378.947
0.439522	382.895
0.474751	385.526
0.50998	388.158
0.546887	390.789
0.582115	393.421
0.619022	396.053
0.652573	398.684
0.687802	401.316
0.724709	403.947
0.759937	407.895
0.795166	411.842
0.830395	415.789
0.865624	422.368
0.902531	430.263
0.93776	443.421
0.971311	463.158
1.00486	500
0.967956	490.789
0.936082	477.632
0.902531	464.474
0.867302	455.263
0.832073	444.737
0.798522	438.158
0.691157	421.053
0.654251	417.105
0.619022	414.474
0.582115	410.526
0.548564	407.895
0.511658	405.263
0.479784	401.316
0.437845	394.737
0.404293	390.789
0.355644	388.158
0.333836	385.526
0.298607	382.895
0.263378	378.947
0.228149	375
0.156014	365.789
0.120785	359.211
0.087233	347.368
