Adsorption isotherm of Nitrogen on 2D-PhenN-2 in 0.01 M HCl
DOI: 10.1002/anie.202107915
Article source: Figure S17
Adsorbate Nitrogen: InChIKey IJGRMHOSHXDMSA-UHFFFAOYSA-N
Kind: experiment
Temperature: 77 K
Tabular data in the source: 0
pressure (bar)	uptake (cm3(STP)/g)
0.004464	166.292
0.008927	193.258
0.008927	215.73
0.051332	256.18
0.093737	267.416
0.124982	274.157
0.160692	283.146
0.198633	285.393
0.234342	292.135
0.267819	296.629
0.299065	298.876
0.334774	301.124
0.370483	307.865
0.406193	310.112
0.441902	312.36
0.477611	316.854
0.51332	319.101
0.544566	321.348
0.582507	325.843
0.615985	330.337
0.651694	337.079
0.687403	339.326
0.723112	346.067
0.758822	355.056
0.792299	359.551
0.825776	373.034
0.861486	384.27
0.897195	406.742
0.928441	447.191
0.96415	568.539
0.999859	813.483
0.973077	775.281
0.935136	651.685
0.899427	530.337
0.857022	440.449
0.821313	400
0.785604	382.022
0.745431	368.539
0.723112	364.045
0.687403	355.056
0.656157	350.562
0.618216	346.067
0.582507	339.326
0.546798	337.079
0.511089	332.584
0.477611	328.09
0.441902	323.596
0.406193	321.348
0.370483	319.101
0.334774	312.36
0.299065	310.112
0.263356	305.618
0.229878	303.371
0.194169	298.876
0.15846	292.135
0.124982	285.393
0.091505	280.899
0.053564	265.169
