Adsorption isotherm of Nitrogen on 2D-PN-2-Me in 12 M NaOH
DOI: 10.1002/anie.202107915
Article source: Figure S17
Adsorbate Nitrogen: InChIKey IJGRMHOSHXDMSA-UHFFFAOYSA-N
Kind: experiment
Temperature: 77 K
Tabular data in the source: 0
pressure (bar)	uptake (cm3(STP)/g)
0.004523	210.811
0.004523	224.324
0.009047	239.189
0.049758	272.973
0.088207	283.784
0.124395	290.541
0.160582	294.595
0.19677	300
0.232957	302.703
0.266883	304.054
0.300809	308.108
0.334734	308.108
0.36866	310.811
0.404848	312.162
0.438773	313.514
0.472699	314.865
0.511148	316.216
0.547336	317.568
0.579	318.919
0.617449	320.27
0.651375	321.622
0.687563	324.324
0.72375	325.676
0.759937	328.378
0.791602	329.73
0.830051	333.784
0.897902	341.892
0.936352	345.946
0.972539	348.649
1.00646	356.757
0.956707	352.703
0.918258	351.351
0.866238	347.297
0.830051	347.297
0.796125	344.595
0.757676	343.243
0.72375	340.541
0.687563	337.838
0.651375	337.838
0.615187	335.135
0.583523	332.432
0.547336	329.73
0.511148	328.378
0.477223	324.324
0.438773	318.919
0.402586	316.216
0.350566	313.514
0.334734	313.514
0.298547	310.811
0.264621	309.459
0.226172	305.405
0.192246	302.703
0.156059	298.649
0.122133	294.595
0.088207	287.838
0.05202	278.378
