Adsorption isotherm of Nitrogen on Pristine 2D-Pn-4
DOI: 10.1002/anie.202107915
Article source: Figure S17
Adsorbate Nitrogen: InChIKey IJGRMHOSHXDMSA-UHFFFAOYSA-N
Kind: experiment
Temperature: 77 K
Tabular data in the source: 0
pressure (bar)	uptake (cm3(STP)/g)
0.002252	214.286
0.002252	233.516
0.006755	247.253
0.009007	258.242
0.047285	348.901
0.092318	370.879
0.123842	380.495
0.159868	387.363
0.200398	391.484
0.234173	395.604
0.267948	398.352
0.301723	402.473
0.335498	403.846
0.369273	406.593
0.403048	409.341
0.441327	410.714
0.475102	412.088
0.51338	414.835
0.547155	416.209
0.583182	418.956
0.619208	420.33
0.652983	423.077
0.68901	424.451
0.725037	425.824
0.758812	428.571
0.79709	429.945
0.830865	432.692
0.86464	436.813
0.902918	442.308
0.936693	449.176
0.970468	460.165
1.00649	508.242
0.965965	495.879
0.934442	479.396
0.898415	464.286
0.866892	456.044
0.830865	450.549
0.79709	445.055
0.758812	442.308
0.722785	439.56
0.68901	436.813
0.652983	435.44
0.616957	434.066
0.583182	431.319
0.544903	428.571
0.511128	427.198
0.477353	424.451
0.439075	421.703
0.403048	418.956
0.369273	417.582
0.333247	414.835
0.29722	412.088
0.261193	409.341
0.227418	403.846
0.191392	401.099
0.157617	394.231
0.119338	387.363
0.085563	379.121
0.049537	358.516
