Adsorption isotherm of Nitrogen on 2D-Pn-3 in 12 M NaOH
DOI: 10.1002/anie.202107915
Article source: Figure S17
Adsorbate Nitrogen: InChIKey IJGRMHOSHXDMSA-UHFFFAOYSA-N
Kind: experiment
Temperature: 77 K
Tabular data in the source: 0
pressure (bar)	uptake (cm3(STP)/g)
0	125
0.004444	138.587
0.004444	149.457
0.008888	163.043
0.048885	245.924
0.084437	262.228
0.122212	270.38
0.162209	275.815
0.197762	279.891
0.233314	282.609
0.264423	285.326
0.299975	286.685
0.335528	289.402
0.366637	290.761
0.404411	292.12
0.437742	293.478
0.473294	294.837
0.508847	296.196
0.546622	298.913
0.582174	298.913
0.615505	300.272
0.651058	301.63
0.68661	302.989
0.722163	304.348
0.757715	305.707
0.793268	308.424
0.826599	311.141
0.864373	313.859
0.897704	317.935
0.935479	327.446
0.968809	336.957
0.997696	361.413
0.957699	355.978
0.924368	345.109
0.888816	336.957
0.862151	332.88
0.826599	327.446
0.79549	323.37
0.755493	320.652
0.724385	317.935
0.68661	317.935
0.65328	316.576
0.615505	315.217
0.579952	313.859
0.5444	312.5
0.511069	312.5
0.475516	307.065
0.43552	304.348
0.406633	304.348
0.368859	301.63
0.333306	301.63
0.295531	298.913
0.262201	296.196
0.22887	293.478
0.191095	290.761
0.157765	285.326
0.122212	282.609
0.088882	274.457
0.048885	256.793
