Adsorption isotherm of Nitrogen on 2D-PN-2-Me
DOI: 10.1002/anie.202107915
Article source: Figure S17
Adsorbate Nitrogen: InChIKey IJGRMHOSHXDMSA-UHFFFAOYSA-N
Kind: experiment
Temperature: 77 K
Tabular data in the source: 0
pressure (bar)	uptake (cm3(STP)/g)
0.004523	208.108
0.009047	229.73
0.054281	272.973
0.090469	281.081
0.126656	289.189
0.165105	293.243
0.201293	297.297
0.232957	298.649
0.266883	302.703
0.300809	305.405
0.334734	305.405
0.370922	310.811
0.404848	308.108
0.443297	310.811
0.481746	314.865
0.511148	316.216
0.549598	320.27
0.581262	316.216
0.619711	314.865
0.653637	316.216
0.685301	317.568
0.72375	320.27
0.762199	320.27
0.793863	321.622
0.827789	324.324
0.863977	324.324
0.900164	324.324
0.974801	328.378
1.0042	332.432
0.958969	331.081
