Adsorption isotherm of Nitrogen on 2D-PN-2-OMe in boiling water
DOI: 10.1002/anie.202107915
Article source: Figure S17
Adsorbate Nitrogen: InChIKey IJGRMHOSHXDMSA-UHFFFAOYSA-N
Kind: experiment
Temperature: 77 K
Tabular data in the source: 0
pressure (bar)	uptake (cm3(STP)/g)
0.004483	113.26
0.008967	119.221
0.049317	140.511
0.085185	144.769
0.121052	149.027
0.156919	152.433
0.192787	155.839
0.228654	158.394
0.264521	159.246
0.298147	160.949
0.331772	162.652
0.367639	164.355
0.403507	166.058
0.439374	166.91
0.475241	169.465
0.511108	170.316
0.544734	172.019
0.582843	173.723
0.616468	175.426
0.652336	177.981
0.688203	179.684
0.721829	182.238
0.757696	183.942
0.795805	188.2
0.82943	191.606
0.867539	196.715
0.903407	204.38
0.937032	214.599
0.972899	228.224
0.9998	255.474
0.963933	244.404
0.930307	234.185
0.89444	226.521
0.867539	221.411
0.82943	213.747
0.793563	208.637
0.757696	205.231
0.72407	200.122
0.654577	195.012
0.61871	193.309
0.580601	191.606
0.546976	189.903
0.511108	189.051
0.475241	182.238
0.437132	177.981
0.399023	176.277
0.351947	174.574
0.313838	172.871
0.298147	172.019
0.260038	171.168
0.22417	169.465
0.190545	167.762
0.154678	166.058
0.11881	163.504
0.080701	160.097
0.049317	155.839
