Adsorption isotherm of Nitrogen on 2D-PN-1 in 12 M NaOH
DOI: 10.1002/anie.202107915
Article source: Figure S17
Adsorbate Nitrogen: InChIKey IJGRMHOSHXDMSA-UHFFFAOYSA-N
Kind: experiment
Temperature: 77 K
Tabular data in the source: 0
pressure (bar)	uptake (cm3(STP)/g)
0	139.314
0.006666	158.311
0.053329	180.475
0.08666	189.974
0.122212	194.723
0.159987	199.472
0.195539	202.639
0.231092	205.805
0.262201	208.971
0.299975	207.388
0.333306	210.554
0.371081	213.72
0.404411	215.303
0.439964	216.887
0.475516	220.053
0.511069	221.636
0.546622	224.802
0.582174	227.968
0.617727	229.551
0.65328	231.135
0.68661	235.884
0.722163	240.633
0.759937	243.799
0.79549	250.132
0.831043	253.298
0.866595	262.797
0.897704	269.129
0.937701	281.794
0.973253	294.459
1.00436	315.04
0.957699	307.124
0.924368	303.958
0.884372	294.459
0.868817	292.876
0.828821	288.127
0.79549	280.211
0.759937	275.462
0.722163	269.129
0.688832	262.797
0.65328	254.881
0.615505	250.132
0.582174	246.966
0.546622	243.799
0.511069	239.05
