Adsorption isotherm of Nitrogen on 2D-Pn-4 in 0.01 M HCl
DOI: 10.1002/anie.202107915
Article source: Figure S17
Adsorbate Nitrogen: InChIKey IJGRMHOSHXDMSA-UHFFFAOYSA-N
Kind: experiment
Temperature: 77 K
Tabular data in the source: 0
pressure (bar)	uptake (cm3(STP)/g)
0.002252	79.6703
0.002252	104.396
0.006755	126.374
0.047285	153.846
0.092318	162.088
0.123842	167.582
0.159868	173.077
0.191392	173.077
0.227418	175.824
0.267948	175.824
0.299472	178.571
0.330995	178.571
0.371525	181.319
0.412055	178.571
0.443578	181.319
0.475102	181.319
0.515632	184.066
0.547155	184.066
0.578678	184.066
0.610202	184.066
0.650732	184.066
0.686758	186.813
0.727288	186.813
0.758812	186.813
0.794838	189.56
0.830865	189.56
0.871395	195.055
0.907422	197.802
0.938945	203.297
0.970468	219.78
1.00649	282.967
0.970468	260.989
0.938945	236.264
0.893912	217.033
0.871395	208.791
0.835368	206.044
0.799342	203.297
0.763315	200.549
0.722785	197.802
0.691262	197.802
0.650732	197.802
0.623712	197.802
0.583182	197.802
0.547155	197.802
0.511128	197.802
0.475102	195.055
0.443578	192.308
0.407552	192.308
0.353512	192.308
0.333247	192.308
0.29722	192.308
0.263445	189.56
0.227418	189.56
0.191392	186.813
0.157617	185.44
0.119338	184.066
0.087815	178.571
0.051788	173.077
