Adsorption isotherm of Carbon Dioxide on Activated carbon: AP 3-60
DOI: 10.1007/s10450-011-9382-y
Article source: Table S1
Adsorbate Carbon Dioxide: InChIKey CURLTUGMZLYLDI-UHFFFAOYSA-N
Kind: experiment
Temperature: 298 K
Tabular data in the source: 0
pressure (bar)	uptake (mmol/g)
71.4	2.948
62.6	7.701
61.9	7.83
49	8.144
39.8	8.116
30.2	7.818
25	7.496
19.9	7.048
17.6	6.784
15.3	6.541
15.1	6.456
12.6	6.049
9.9	5.512
7.5	4.916
5.1	4.098
2.8	2.924
2.7	2.934
2.6	2.791
2.2	2.584
1.89	2.34
1.67	2.173
1.36	1.92
1.2	1.77
1.05	1.64
0.72	1.293
0.6	1.158
0.43	0.922
0.3	0.646
0.1	0.376
