Adsorption isotherm of Carbon Dioxide, Nitrogen on Activated carbon: AP 3-60
DOI: 10.1007/s10450-011-9382-y
Article source: Table S17
Adsorbate Carbon Dioxide: InChIKey CURLTUGMZLYLDI-UHFFFAOYSA-N
Adsorbate Nitrogen: InChIKey IJGRMHOSHXDMSA-UHFFFAOYSA-N
Kind: experiment
Temperature: 298 K
Tabular data in the source: 0
pressure (bar)	Carbon Dioxide fraction	Carbon Dioxide uptake (mmol/g)	Nitrogen fraction	Nitrogen uptake (mmol/g)	total uptake (mmol/g)
9.7	0.241	2.33	0.759	0.64	
19.2	0.287	3.59	0.713	0.81	
28.4	0.311	4.47	0.689	0.8	
37.8	0.335	5.15	0.665	0.84	
59.3	0.373	6.23	0.627	0.86	
