Adsorption isotherm of Carbon Dioxide, Hydrogen on Activated carbon: AP 3-60
DOI: 10.1007/s10450-011-9382-y
Article source: Table S16
Adsorbate Carbon Dioxide: InChIKey CURLTUGMZLYLDI-UHFFFAOYSA-N
Adsorbate Hydrogen: InChIKey UFHFLCQGNIYNRP-UHFFFAOYSA-N
Kind: experiment
Temperature: 298 K
Tabular data in the source: 0
pressure (bar)	Carbon Dioxide fraction	Carbon Dioxide uptake (mmol/g)	Hydrogen fraction	Hydrogen uptake (mmol/g)	total uptake (mmol/g)
17	0.226	3.4	0.774	0.28	
20.1	0.243	3.78	0.757	0.32	
34.6	0.289	5.17	0.711	0.25	
58.2	0.342	6.49	0.658	0.22	
59	0.342	6.54	0.658	0.18	
77.9	0.367	0.48	0.633	-0.007	
79.2	0.37	7.15	0.63	0.012	
102.1	0.392	0.707	0.608	-0.007	
