Adsorption isotherm of Carbon Dioxide, Nitrogen on Activated carbon: AP 3-60
DOI: 10.1007/s10450-011-9382-y
Article source: Table S15
Adsorbate Carbon Dioxide: InChIKey CURLTUGMZLYLDI-UHFFFAOYSA-N
Adsorbate Nitrogen: InChIKey IJGRMHOSHXDMSA-UHFFFAOYSA-N
Kind: experiment
Temperature: 298 K
Tabular data in the source: 0
pressure (bar)	Carbon Dioxide fraction	Carbon Dioxide uptake (mmol/g)	Nitrogen fraction	Nitrogen uptake (mmol/g)	total uptake (mmol/g)
9.7	0.241	2.31	0.759	0.6	
19.2	0.287	3.55	0.713	0.7	
28.4	0.311	4.39	0.689	0.62	
37.8	0.335	5.02	0.665	0.57	
59.3	0.373	5.94	0.627	0.37	
