Adsorption isotherm of Carbon Dioxide, Hydrogen on Activated carbon: AP 3-60
DOI: 10.1007/s10450-011-9382-y
Article source: Table S18
Adsorbate Carbon Dioxide: InChIKey CURLTUGMZLYLDI-UHFFFAOYSA-N
Adsorbate Hydrogen: InChIKey UFHFLCQGNIYNRP-UHFFFAOYSA-N
Kind: experiment
Temperature: 298 K
Tabular data in the source: 0
pressure (bar)	Carbon Dioxide fraction	Carbon Dioxide uptake (mmol/g)	Hydrogen fraction	Hydrogen uptake (mmol/g)	total uptake (mmol/g)
17	0.226	3.43	0.774	0.36	
20.1	0.243	3.81	0.757	0.43	
34.6	0.289	5.26	0.711	0.49	
58.2	0.342	6.74	0.658	0.7	
59	0.342	6.79	0.658	0.68	
77.9	0.367	7.54	0.633	0.6	
79.2	0.37	7.57	0.63	0.73	
102.1	0.392	8.17	0.608	0.73	
