Adsorption isotherm of Carbon Dioxide, Hydrogen on Activated carbon: AP 3-60
DOI: 10.1007/s10450-011-9382-y
Article source: Table S16
Adsorbate Carbon Dioxide: InChIKey CURLTUGMZLYLDI-UHFFFAOYSA-N
Adsorbate Hydrogen: InChIKey UFHFLCQGNIYNRP-UHFFFAOYSA-N
Kind: experiment
Temperature: 298 K
Tabular data in the source: 0
pressure (bar)	Carbon Dioxide fraction	Carbon Dioxide uptake (mmol/g)	Hydrogen fraction	Hydrogen uptake (mmol/g)	total uptake (mmol/g)
12	0.062	1.26	0.938	0.6	
19.1	0.072	1.82	0.928	0.82	
22.5	0.074	2.03	0.926	0.75	
29.3	0.081	2.45	0.919	0.69	
30.7	0.084	2.56	0.916	0.9	
35.2	0.088	2.81	0.912	0.84	
47.7	0.099	3.48	0.901	0.79	
49.9	0.102	3.58	0.898	0.86	
73.9	0.12	4.53	0.88	0.87	
79.1	0.123	4.69	0.877	0.79	
99.2	0.136	5.23	0.864	0.94	
99.6	0.132	5.27	0.868	0.19	
101.5	0.136	5.29	0.864	0.7	
118.6	0.143	5.65	0.857	0.34	
