Adsorption isotherm of Nitrogen on Activated carbon: AP 3-60
DOI: 10.1007/s10450-011-9382-y
Article source: Table S9
Adsorbate Nitrogen: InChIKey IJGRMHOSHXDMSA-UHFFFAOYSA-N
Kind: experiment
Temperature: 298 K
Tabular data in the source: 0
pressure (bar)	uptake (mmol/g)
198.7	3.381
176.4	3.442
154.5	3.487
130.5	3.506
110.8	3.482
90.5	3.406
70.4	3.251
50.3	2.966
30.2	2.456
10.1	1.411
5	0.931
2.6	0.521
2.3	0.472
2	0.422
1.68	0.366
1.38	0.311
1.07	0.253
0.76	0.189
0.45	0.123
0.15	0.051
0.06	0.028
