Adsorption isotherm of Carbon Dioxide, Hydrogen on Activated carbon: AP 3-60
DOI: 10.1007/s10450-011-9382-y
Article source: Table S18
Adsorbate Carbon Dioxide: InChIKey CURLTUGMZLYLDI-UHFFFAOYSA-N
Adsorbate Hydrogen: InChIKey UFHFLCQGNIYNRP-UHFFFAOYSA-N
Kind: experiment
Temperature: 298 K
Tabular data in the source: 0
pressure (bar)	Carbon Dioxide fraction	Carbon Dioxide uptake (mmol/g)	Hydrogen fraction	Hydrogen uptake (mmol/g)	total uptake (mmol/g)
4	0.393	2.02	0.607	0.06	
5	0.42	2.5	0.58	0.1	
13.3	0.507	4.62	0.493	0.1	
19	0.551	5.59	0.449	0.17	
29.1	0.588	6.74	0.412	0.09	
53.2	0.647	8.3	0.353	0.13	
82.9	0.683	9.12	0.317	0.07	
105.2	0.701	9.41	0.299	0.13	
108.1	0.702	9.43	0.298	0.13	
