Adsorption isotherm of Carbon Dioxide, Hydrogen on Activated carbon: AP 3-60
DOI: 10.1007/s10450-011-9382-y
Article source: Table S18
Adsorbate Carbon Dioxide: InChIKey CURLTUGMZLYLDI-UHFFFAOYSA-N
Adsorbate Hydrogen: InChIKey UFHFLCQGNIYNRP-UHFFFAOYSA-N
Kind: experiment
Temperature: 298 K
Tabular data in the source: 0
pressure (bar)	Carbon Dioxide fraction	Carbon Dioxide uptake (mmol/g)	Hydrogen fraction	Hydrogen uptake (mmol/g)	total uptake (mmol/g)
12	0.062	1.26	0.938	0.64	
19.1	0.072	1.82	0.928	0.89	
22.5	0.074	2.03	0.926	0.85	
29.3	0.081	2.46	0.919	0.83	
30.7	0.084	2.58	0.916	1.05	
35.2	0.088	2.83	0.912	1.03	
47.7	0.099	3.52	0.901	1.1	
49.9	0.102	3.62	0.898	1.2	
73.9	0.12	4.61	0.88	1.48	
79.1	0.123	4.78	0.877	1.46	
99.2	0.136	5.38	0.864	1.88	
99.6	0.132	5.4	0.868	1.09	
101.5	0.136	5.44	0.864	1.7	
117.4	0.144	5.82	0.856	1.88	
118.6	0.143	5.84	0.857	1.51	
