Adsorption isotherm of Carbon Dioxide, Hydrogen on Activated carbon: AP 3-60
DOI: 10.1007/s10450-011-9382-y
Article source: Table S16
Adsorbate Carbon Dioxide: InChIKey CURLTUGMZLYLDI-UHFFFAOYSA-N
Adsorbate Hydrogen: InChIKey UFHFLCQGNIYNRP-UHFFFAOYSA-N
Kind: experiment
Temperature: 298 K
Tabular data in the source: 0
pressure (bar)	Carbon Dioxide fraction	Carbon Dioxide uptake (mmol/g)	Hydrogen fraction	Hydrogen uptake (mmol/g)	total uptake (mmol/g)
4	0.393	2.01	0.607	0.054	
5	0.42	2.49	0.58	0.086	
13.3	0.507	4.56	0.493	0.045	
19	0.551	5.48	0.449	0.081	
29.1	0.588	0.652	0.412	-0.009	
53.2	0.647	0.585	0.353	-0.012	
82.9	0.683	0.615	0.317	-0.012	
105.2	0.701	0.696	0.299	-0.013	
108.1	0.702	0	0.298	0.296	
