Adsorption isotherm of Carbon Dioxide, Nitrogen on Activated carbon: AP 3-60
DOI: 10.1007/s10450-011-9382-y
Article source: Table S15
Adsorbate Carbon Dioxide: InChIKey CURLTUGMZLYLDI-UHFFFAOYSA-N
Adsorbate Nitrogen: InChIKey IJGRMHOSHXDMSA-UHFFFAOYSA-N
Kind: experiment
Temperature: 298 K
Tabular data in the source: 0
pressure (bar)	Carbon Dioxide fraction	Carbon Dioxide uptake (mmol/g)	Nitrogen fraction	Nitrogen uptake (mmol/g)	total uptake (mmol/g)
9.6	0.082	1.06	0.918	0.97	
20.5	0.106	1.8	0.894	1.37	
27.6	0.113	2.2	0.887	1.4	
39.3	0.127	2.71	0.873	1.47	
59.7	0.146	3.37	0.854	1.4	
