Adsorption isotherm of Carbon Dioxide, Nitrogen on Activated carbon: AP 3-60
DOI: 10.1007/s10450-011-9382-y
Article source: Table S17
Adsorbate Carbon Dioxide: InChIKey CURLTUGMZLYLDI-UHFFFAOYSA-N
Adsorbate Nitrogen: InChIKey IJGRMHOSHXDMSA-UHFFFAOYSA-N
Kind: experiment
Temperature: 298 K
Tabular data in the source: 0
pressure (bar)	Carbon Dioxide fraction	Carbon Dioxide uptake (mmol/g)	Nitrogen fraction	Nitrogen uptake (mmol/g)	total uptake (mmol/g)
8.3	0.51	3.48	0.49	0.27	
18.3	0.572	5.37	0.428	0.28	
27.4	0.613	6.38	0.387	0.34	
40	0.642	7.36	0.358	0.32	
61.4	0.677	8.3	0.323	0.34	
