Adsorption isotherm of Carbon Dioxide, Nitrogen on Activated carbon: AP 3-60
DOI: 10.1007/s10450-011-9382-y
Article source: Table S17
Adsorbate Carbon Dioxide: InChIKey CURLTUGMZLYLDI-UHFFFAOYSA-N
Adsorbate Nitrogen: InChIKey IJGRMHOSHXDMSA-UHFFFAOYSA-N
Kind: experiment
Temperature: 298 K
Tabular data in the source: 0
pressure (bar)	Carbon Dioxide fraction	Carbon Dioxide uptake (mmol/g)	Nitrogen fraction	Nitrogen uptake (mmol/g)	total uptake (mmol/g)
9.6	0.082	1.06	0.918	0.99	
20.5	0.106	1.81	0.894	1.46	
27.6	0.113	2.21	0.887	1.55	
39.3	0.127	2.75	0.873	1.72	
59.7	0.146	3.45	0.854	1.86	
