Adsorption isotherm of Hydrogen on Activated carbon: AP 3-60
DOI: 10.1007/s10450-011-9382-y
Article source: Table S6
Adsorbate Hydrogen: InChIKey UFHFLCQGNIYNRP-UHFFFAOYSA-N
Kind: experiment
Temperature: 298 K
Tabular data in the source: 0
pressure (bar)	uptake (mmol/g)
141.1	1.975
133.1	1.916
125.3	1.871
99.8	1.638
98	1.62
75.1	1.389
74.8	1.365
49.9	1.039
49.8	1.027
29.9	0.694
25.1	0.627
15.1	0.402
14.9	0.384
10.2	0.273
10	0.29
7.2	0.194
5	0.156
3	0.103
2.32	0.063
1.29	0.047
1.01	0.03
0.77	0.039
0.64	0.029
0.42	0.022
