Adsorption isotherm of Methane on Zn2(bdc)2(dabco)
DOI: 10.1002/asia.200900020
Adsorbate Methane: InChIKey VNWKTOKETHGBQD-UHFFFAOYSA-N
Temperature: 198 K
Tabular data in the source: 0
pressure (bar)	uptake (cm3(STP)/cm3)
1.058	94.4177
2.81682	158.871
5.7227	188.913
8.24623	198.745
11.0756	206.939
14.1345	216.771
17.5756	220.048
