Adsorption isotherm of Methane on Zn2(bdc)2(dabco)
DOI: 10.1002/asia.200900020
Adsorbate Methane: InChIKey VNWKTOKETHGBQD-UHFFFAOYSA-N
Temperature: 296 K
Tabular data in the source: 0
pressure (bar)	uptake (cm3(STP)/cm3)
3.35211	28.3252
6.86976	55.0899
10.5403	72.5689
14.058	90.5941
18.4168	104.796
22.3933	111.35
26.8286	121.729
30.3462	126.098
34.3992	135.93
