Adsorption isotherm of Methane on Zn2(bdc)2(dabco)
DOI: 10.1002/asia.200900020
Adsorbate Methane: InChIKey VNWKTOKETHGBQD-UHFFFAOYSA-N
Temperature: 273 K
Tabular data in the source: 0
pressure (bar)	uptake (cm3(STP)/cm3)
3.1227	38.1572
5.79917	63.2832
9.31682	88.9555
12.758	105.342
16.1227	121.182
19.9462	129.376
23.3109	142.485
26.9051	152.317
30.3462	158.871
34.2462	165.426
