Adsorption isotherm of Methane on Zn2(bdc)2(dabco)
DOI: 10.1002/asia.200900020
Adsorbate Methane: InChIKey VNWKTOKETHGBQD-UHFFFAOYSA-N
Temperature: 223 K
Tabular data in the source: 0
pressure (bar)	uptake (cm3(STP)/cm3)
2.96976	96.6026
7.25211	141.392
11.7639	159.964
16.3521	172.527
20.7874	177.989
25.6051	181.266
30.0403	185.636
34.3227	194.922
