Adsorption isotherm of Hydrogen on DUT-23(Cu)
DOI: 10.1002/chem.201101383
Adsorbate Hydrogen: InChIKey UFHFLCQGNIYNRP-UHFFFAOYSA-N
Temperature: 77 K
Tabular data in the source: 0
pressure (bar)	uptake (mmol/g)
0.0171097	0.227856
0.0456122	0.645592
0.0770074	0.987376
0.114106	1.40511
0.156921	1.86082
0.211198	2.31653
0.256865	2.81022
0.311156	3.22796
0.348281	3.56974
0.411168	3.98748
0.459741	4.36724
0.514018	4.82295
0.562619	5.12676
0.614072	5.46854
0.67412	5.81033
0.714139	6.07616
0.754171	6.30401
0.814206	6.68377
0.862834	6.91163
0.917166	7.21544
0.965767	7.51924
1.00868	7.70912
