Adsorption isotherm of Hydrogen on DUT-23(Co)
DOI: 10.1002/chem.201101383
Adsorbate Hydrogen: InChIKey UFHFLCQGNIYNRP-UHFFFAOYSA-N
Temperature: 77 K
Tabular data in the source: 0
pressure (bar)	uptake (mmol/g)
0.483092	5.43465
1.93237	12.2251
4.34783	20.0315
7.24638	25.458
9.66184	27.8281
11.1111	28.8425
14.4928	31.8889
16.4251	32.9017
18.3575	33.2349
20.5314	34.2468
22.7053	34.5792
24.8792	35.2513
27.2947	35.5829
29.4686	36.2551
31.8841	36.5866
34.2995	36.9182
36.4734	36.571
38.8889	36.9026
41.3043	36.8944
43.7198	36.8862
46.1353	36.878
48.5507	36.8698
50.7246	36.5226
52.657	36.8558
55.0725	36.5078
57.4879	36.4996
59.6618	36.1525
62.0773	35.8045
64.4928	35.7963
66.6667	35.4491
69.0821	35.4409
71.256	35.0938
73.43	34.7466
75.8454	34.7384
78.2609	34.3904
80.6763	34.0425
82.8502	34.0351
85.2657	33.6871
87.6812	33.6789
89.6135	33.6723
92.029	33.3243
94.4444	32.9764
96.8599	32.9682
99.2754	32.6202
