Adsorption isotherm of Hydrogen on DUT-23(Co)
DOI: 10.1002/chem.201101383
Adsorbate Hydrogen: InChIKey UFHFLCQGNIYNRP-UHFFFAOYSA-N
Temperature: 77 K
Tabular data in the source: 0
pressure (bar)	uptake (mmol/g)
0.483092	8.15279
2.17391	16.981
4.83092	23.4276
7.48792	28.5151
10.8696	32.9206
12.8019	34.2731
14.9758	36.6441
16.9082	37.9966
19.5652	39.6864
23.913	42.3898
26.57	43.7398
27.2947	44.0771
32.1256	46.4391
34.5411	47.1104
36.4734	47.1038
36.9565	48.1215
39.372	48.7928
41.3043	48.7863
42.029	49.4633
44.4444	50.1347
47.1014	50.8052
49.5169	51.4765
51.4493	51.8097
55.7971	52.4745
57.7295	53.4872
60.1449	53.8188
62.5604	54.4901
64.9758	54.8216
67.1498	55.154
67.8744	55.1516
70.2899	55.8229
73.1884	56.4926
75.6039	56.8241
78.744	57.493
81.1594	57.8246
82.6087	57.8196
84.5411	58.4926
86.715	58.825
88.8889	58.8176
89.6135	59.4947
92.029	59.8263
94.9275	60.4959
97.343	60.8275
