Adsorption isotherm of Nitrogen on DUT-24
DOI: 10.1002/chem.201101383
Adsorbate Nitrogen: InChIKey IJGRMHOSHXDMSA-UHFFFAOYSA-N
Temperature: 77 K
Tabular data in the source: 0
pressure (bar)	uptake (cm3(STP)/g)
0.00449438	0.00449438
0.00898876	397.849
0.0247191	473.118
0.0494382	553.763
0.0741573	580.645
0.0988764	591.398
0.14382	612.903
0.173034	618.28
0.2	623.656
0.226966	634.409
0.249438	634.409
0.276404	639.785
0.301124	645.161
0.32809	650.538
0.350562	655.914
0.382022	655.914
0.404494	661.29
0.429213	672.043
0.451685	666.667
0.505618	672.043
0.555056	682.796
0.606742	682.796
0.653933	693.548
0.703371	693.548
0.732584	698.925
0.782022	704.301
0.829213	715.054
0.853933	715.054
0.905618	725.806
0.925843	736.559
0.991011	736.559
