Adsorption isotherm of Methane on DUT-23(Co)
DOI: 10.1002/chem.201101383
Adsorbate Methane: InChIKey VNWKTOKETHGBQD-UHFFFAOYSA-N
Temperature: 298 K
Tabular data in the source: 0
pressure (bar)	uptake (mmol/g)
0.931264	0.205796
2.79379	0.754891
3.72506	1.44195
5.27716	2.1287
8.6918	3.43329
11.4856	4.11943
12.4169	4.73774
13.969	5.35573
15.5211	5.90498
17.3836	6.45408
19.2461	7.00317
21.7295	7.82697
23.592	8.37606
25.1441	8.99406
27.0067	9.54315
28.2483	10.0926
31.663	10.5721
32.9047	11.1903
36.6297	11.8072
38.4922	12.3563
41.9069	12.7671
43.7694	13.2475
46.2528	13.6588
48.7361	14.0013
51.8404	14.2748
54.0133	14.6862
56.8071	14.9599
62.0843	15.301
64.5676	15.6436
67.3614	15.7797
71.7073	15.9838
74.1907	16.1889
77.2949	16.3248
80.3991	16.5296
81.9512	16.46
85.0554	16.596
88.1596	16.5945
91.8847	16.6614
94.9889	16.6599
98.0931	16.6584
100.576	16.6572
101.818	16.6565
104.922	16.655
108.027	16.5847
111.752	16.5829
114.856	16.5126
117.96	16.4424
121.685	16.3718
124.479	16.2329
127.583	16.1626
131.308	16.0233
135.344	15.8838
