Adsorption isotherm of Nitrogen on DUT-6
DOI: 10.1002/chem.201101383
Adsorbate Nitrogen: InChIKey IJGRMHOSHXDMSA-UHFFFAOYSA-N
Temperature: 77 K
Tabular data in the source: 0
pressure (bar)	uptake (cm3(STP)/g)
0.00244715	112.033
0.00489431	261.411
0.00734146	367.22
0.0122358	603.734
0.0244715	815.353
0.0489431	946.058
0.0734146	1064.32
0.0978861	1269.71
0.117463	1313.28
0.149276	1331.95
0.171301	1338.17
0.195772	1356.85
0.217797	1363.07
0.244715	1369.29
0.269187	1381.74
0.293658	1375.52
0.342602	1394.19
0.364626	1400.41
0.391545	1400.41
0.416016	1406.64
0.438041	1412.86
0.457618	1406.64
0.486984	1419.09
0.511455	1412.86
0.557951	1425.31
0.582423	1431.54
0.606894	1431.54
0.633813	1431.54
0.660731	1437.76
0.707227	1437.76
0.729252	1437.76
0.75617	1443.98
0.778195	1443.98
0.807561	1450.21
0.876081	1450.21
0.898105	1456.43
0.917683	1462.66
0.932366	1462.66
0.947048	1481.33
0.956837	1493.78
