Adsorption isotherm of Hydrogen on DUT-23(Co)
DOI: 10.1002/chem.201101383
Adsorbate Hydrogen: InChIKey UFHFLCQGNIYNRP-UHFFFAOYSA-N
Temperature: 124 K
Tabular data in the source: 0
pressure (bar)	uptake (mmol/g)
0.166205	0.670431
0.747922	2.0099
1.74515	2.84352
2.82548	3.84452
3.57341	4.5117
4.65374	5.17701
5.56787	5.84326
6.7313	6.67595
7.64543	7.3422
8.64266	7.84014
9.72299	8.33762
10.554	8.83649
11.6343	9.50181
12.7147	9.99928
13.795	10.6646
14.626	10.9956
15.6233	11.4936
16.5374	11.8241
17.867	12.3202
18.6981	12.8191
19.7784	13.1487
20.8587	13.6462
22.0222	13.9754
22.8532	14.4742
23.6011	14.8057
24.1828	14.9703
25.4294	15.299
26.3435	15.6296
