Adsorption isotherm of Hydrogen on DUT-23(Co)
DOI: 10.1002/chem.201101383
Adsorbate Hydrogen: InChIKey UFHFLCQGNIYNRP-UHFFFAOYSA-N
Temperature: 77 K
Tabular data in the source: 0
pressure (bar)	uptake (mmol/g)
0.166205	3.52372
0.415512	6.03993
0.831025	8.05168
1.16343	10.3996
1.57895	12.2435
2.07756	14.2548
2.57618	16.0983
3.07479	17.9417
3.73961	19.4486
4.40443	21.1232
4.81994	22.4636
5.65097	23.9695
6.31579	25.1407
6.98061	26.3119
7.72853	27.4826
8.55956	28.6528
9.39058	29.6552
10.1385	30.4902
10.8864	31.3252
11.8006	32.1593
12.6316	32.9939
13.4626	33.6606
14.3767	34.3268
15.2909	34.9931
16.0388	35.6602
16.9529	36.4943
17.9501	36.8244
18.8643	37.3228
19.7784	37.8212
20.6925	38.1518
21.5235	38.6507
22.5208	38.9808
23.2687	39.3123
24.349	39.8098
25.2632	40.1403
26.2604	40.4704
