Adsorption isotherm of Hydrogen on DUT-23(Co)
DOI: 10.1002/chem.201101383
Adsorbate Hydrogen: InChIKey UFHFLCQGNIYNRP-UHFFFAOYSA-N
Temperature: 77 K
Tabular data in the source: 0
pressure (bar)	uptake (mmol/g)
0	5.43629
0.483092	10.1914
2.41546	17.9995
5.7971	26.4822
7.24638	30.5545
9.17874	33.2661
12.3188	38.3519
14.0097	39.7053
15.7005	41.0586
16.9082	43.0931
18.3575	44.787
20.2899	45.46
21.7391	47.4937
23.1884	49.1876
25.1208	50.2003
27.0531	51.213
28.5024	53.2467
30.1932	54.6001
32.3671	55.2722
34.2995	56.9645
36.2319	57.9772
38.1643	59.3297
40.3382	60.6814
42.5121	61.6933
44.686	62.7053
46.6184	63.718
48.5507	64.7307
50.2415	66.0841
52.4155	66.7562
54.5894	67.7681
56.7633	68.78
58.6957	69.7928
60.628	71.1453
63.0435	71.8166
65.2174	72.8285
67.3913	73.5007
69.5652	74.8524
71.7391	75.8643
73.913	76.8762
76.087	77.8881
78.2609	78.2205
80.4348	79.5722
82.6087	80.5841
84.7826	81.2563
86.9565	82.2682
89.372	82.9395
91.3043	84.292
93.2367	85.6445
95.4106	86.3167
97.8261	87.3278
