Adsorption isotherm of Hydrogen on DUT-23(Co)
DOI: 10.1002/chem.201101383
Adsorbate Hydrogen: InChIKey UFHFLCQGNIYNRP-UHFFFAOYSA-N
Temperature: 98 K
Tabular data in the source: 0
pressure (bar)	uptake (mmol/g)
0.581717	2.51435
1.08033	4.02212
1.82825	5.69634
2.49307	6.8675
3.241	8.20604
3.98892	9.2089
4.73684	10.3796
5.40166	11.5508
6.39889	12.7201
7.22992	13.7225
8.14404	14.7244
8.89197	15.5594
9.80609	16.5613
10.6371	17.3959
11.6343	18.0617
12.6316	19.0631
13.6288	19.7289
14.4598	20.3956
15.5402	21.0609
16.3712	21.7276
16.9529	22.0601
18.0332	22.7254
19.0305	23.3912
20.0277	24.057
21.0249	24.5549
22.1884	25.0519
23.0194	25.3829
24.0997	26.0483
25.097	26.3784
26.1773	26.8758
