Adsorption isotherm of Hydrogen on DUT-23(Co)
DOI: 10.1002/chem.201101383
Adsorbate Hydrogen: InChIKey UFHFLCQGNIYNRP-UHFFFAOYSA-N
Temperature: 104 K
Tabular data in the source: 0
pressure (bar)	uptake (mmol/g)
0.498615	2.34697
1.24654	3.51767
1.91136	4.52099
2.57618	5.52432
3.241	6.52764
3.98892	7.5305
4.81994	8.53289
5.40166	9.36884
6.31579	10.0351
7.06371	10.8701
7.89474	11.8725
8.64266	12.5397
9.55679	13.3738
10.3047	14.0409
11.2188	14.5393
12.0499	15.3739
12.964	16.0401
13.795	16.539
14.8753	17.2043
15.5402	17.872
16.4543	18.3704
17.4515	19.0362
18.3657	19.5346
19.2798	19.8651
20.3601	20.5304
21.108	20.8619
22.1053	21.5277
23.1025	21.8578
24.0997	22.3558
24.8476	22.6873
25.928	23.0169
26.9252	23.347
