Adsorption isotherm of Nitrogen on DUT-23(Cu)
DOI: 10.1002/chem.201101383
Adsorbate Nitrogen: InChIKey IJGRMHOSHXDMSA-UHFFFAOYSA-N
Temperature: 77 K
Tabular data in the source: 0
pressure (bar)	uptake (cm3(STP)/g)
0.00224719	0.00218319
0.00449438	650.538
0.00898876	747.312
0.0247191	833.333
0.0314607	956.989
0.0404494	1010.75
0.0539326	1091.4
0.0786517	1161.29
0.103371	1177.42
0.155056	1215.05
0.177528	1220.43
0.206742	1231.18
0.235955	1236.56
0.260674	1236.56
0.283146	1241.94
0.31236	1252.69
0.334831	1258.06
0.361798	1258.06
0.38427	1258.06
0.431461	1268.82
0.462921	1263.44
0.48764	1284.95
0.51236	1268.82
0.561798	1274.19
0.606742	1279.57
0.65618	1284.95
0.705618	1284.95
0.757303	1279.57
0.808989	1279.57
0.85618	1284.95
0.910112	1290.32
0.955056	1290.32
0.986517	1301.08
