Adsorption isotherm of Hydrogen on DUT-23(Co)
DOI: 10.1002/chem.201101383
Adsorbate Hydrogen: InChIKey UFHFLCQGNIYNRP-UHFFFAOYSA-N
Temperature: 20 K
Tabular data in the source: 0
pressure (bar)	uptake (cm3(STP)/g)
0.00254694	97.9811
0.00297605	417.75
0.0030591	479.64
0.00363354	907.718
0.00380657	1036.66
0.00568909	639.512
0.0135722	1113.97
0.0184792	1170.68
0.0282517	1253.15
0.0428274	1314.97
0.0573754	1356.15
0.062234	1376.76
0.0791767	1402.46
0.0961125	1423
0.115464	1443.53
0.132399	1464.07
0.154138	1463.96
0.175898	1479.32
0.200066	1489.51
0.221819	1499.72
0.245988	1509.91
0.26774	1520.11
0.291902	1525.14
0.316063	1530.18
0.337816	1540.38
0.361977	1545.41
0.386139	1550.44
0.4103	1555.48
0.432046	1560.52
0.4562	1560.4
0.480362	1565.43
0.502107	1570.48
0.526276	1580.67
0.548008	1575.4
0.572169	1580.43
0.59633	1585.46
0.620485	1585.34
0.644646	1590.37
0.668808	1595.4
0.692962	1595.28
0.714708	1600.33
0.738869	1605.36
0.763031	1610.39
0.787185	1610.27
0.811346	1615.3
0.833092	1620.35
0.857247	1620.22
0.881408	1625.25
0.905562	1625.13
0.929724	1630.16
0.953878	1630.04
0.975631	1640.24
0.997398	1660.76
1.00952	1691.64
