Adsorption isotherm of Nitrogen on DUT-23(Co)
DOI: 10.1002/chem.201101383
Adsorbate Nitrogen: InChIKey IJGRMHOSHXDMSA-UHFFFAOYSA-N
Temperature: 77 K
Tabular data in the source: 0
pressure (bar)	uptake (cm3(STP)/g)
0.00674157	779.57
0.0134831	827.957
0.0269663	940.86
0.0404494	1069.89
0.0539326	1139.78
0.0651685	1182.8
0.0808989	1198.92
0.0921348	1215.05
0.150562	1236.56
0.170787	1241.94
0.197753	1258.06
0.242697	1258.06
0.27191	1263.44
0.289888	1263.44
0.319101	1268.82
0.341573	1268.82
0.366292	1274.19
0.393258	1274.19
0.422472	1279.57
0.496629	1301.08
0.541573	1301.08
0.591011	1306.45
0.640449	1311.83
0.68764	1311.83
0.739326	1311.83
0.788764	1317.2
0.840449	1322.58
0.892135	1327.96
0.946067	1322.58
0.988764	1338.71
