Adsorption isotherm of Nitrogen on DUT-23(Zn)
DOI: 10.1002/chem.201101383
Adsorbate Nitrogen: InChIKey IJGRMHOSHXDMSA-UHFFFAOYSA-N
Temperature: 77 K
Tabular data in the source: 0
pressure (bar)	uptake (cm3(STP)/g)
0.00654957	575.269
0.010916	666.667
0.0218319	806.452
0.0305647	887.097
0.0523966	1026.88
0.0829613	1080.65
0.111343	1096.77
0.133175	1102.15
0.148457	1112.9
0.168106	1118.28
0.194304	1123.66
0.203037	1123.66
0.224869	1129.03
0.416989	1150.54
0.438821	1155.91
0.497768	1155.91
0.519599	1161.29
0.545798	1161.29
0.56763	1161.29
0.60911	1172.04
0.637492	1172.04
0.659324	1172.04
0.687705	1172.04
0.709537	1177.42
0.731369	1177.42
0.753201	1177.42
0.775033	1182.8
0.796865	1182.8
0.818697	1182.8
0.838345	1182.8
0.860177	1193.55
0.882009	1193.55
0.903841	1193.55
0.927856	1193.55
0.947505	1198.92
