Adsorption isotherm of Hydrogen on DUT-23(Co)
DOI: 10.1002/chem.201101383
Adsorbate Hydrogen: InChIKey UFHFLCQGNIYNRP-UHFFFAOYSA-N
Temperature: 83 K
Tabular data in the source: 0
pressure (bar)	uptake (mmol/g)
0.249307	3.69109
0.747922	6.37375
1.41274	8.88763
2.07756	11.2337
2.82548	13.5793
3.65651	15.253
4.48753	17.2624
5.31856	18.9362
6.31579	20.609
7.22992	22.1145
8.31025	23.4511
9.22438	24.7888
10.4709	26.1245
11.6343	26.9572
12.7978	28.1256
13.795	28.9592
14.9584	30.1276
16.205	30.9598
17.2022	31.6256
18.3657	32.4583
19.446	32.9557
21.5235	34.119
22.6039	34.7843
23.6011	35.2823
24.7645	35.6114
25.6787	36.2777
