Adsorption isotherm of Hydrogen on DUT-23(Co)
DOI: 10.1002/chem.201101383
Adsorbate Hydrogen: InChIKey UFHFLCQGNIYNRP-UHFFFAOYSA-N
Temperature: 91 K
Tabular data in the source: 0
pressure (bar)	uptake (mmol/g)
0.66482	4.19229
1.41274	6.53787
2.40997	9.04989
3.3241	11.0589
4.40443	13.2347
5.56787	15.2423
6.7313	16.9142
7.81163	18.5866
9.39058	20.0883
10.7202	21.4236
11.9668	22.7593
13.2133	23.5916
14.1274	24.5935
15.374	25.4257
16.6205	26.0901
17.6177	27.0916
18.6981	27.589
20.0277	28.4208
21.108	29.0861
22.5208	29.7496
23.518	30.4154
24.4321	30.7459
25.4294	31.2439
26.1773	31.5754
