Adsorption isotherm of Hydrogen on DUT-23(Co)
DOI: 10.1002/chem.201101383
Adsorbate Hydrogen: InChIKey UFHFLCQGNIYNRP-UHFFFAOYSA-N
Temperature: 87 K
Tabular data in the source: 0
pressure (bar)	uptake (mmol/g)
0.415512	3.52232
0.831025	5.03056
1.41274	7.04139
1.99446	8.88438
2.57618	10.5595
3.241	11.8985
3.82271	13.7415
4.48753	14.9127
5.40166	16.4181
5.98338	17.4219
6.8144	18.76
7.64543	19.9302
8.47645	21.1005
9.39058	21.9345
10.2216	22.9369
11.0526	23.7715
12.0499	24.7729
12.8809	25.6075
13.795	26.2737
14.7091	27.1078
15.7064	27.7736
16.6205	28.6077
17.6177	29.1056
18.5319	29.604
19.6953	30.2689
20.5263	30.9356
21.6066	31.2653
22.7701	31.9301
23.8504	32.2597
24.8476	32.5898
25.5956	32.9213
26.2604	33.2533
