Adsorption isotherm of Hydrogen on DUT-23(Zn)
DOI: 10.1002/chem.201101383
Adsorbate Hydrogen: InChIKey UFHFLCQGNIYNRP-UHFFFAOYSA-N
Temperature: 77 K
Tabular data in the source: 0
pressure (bar)	uptake (mmol/g)
0.0171234	0.18988
0.0456808	0.455712
0.0856446	0.873448
0.148504	1.36714
0.185643	1.67094
0.228472	2.08868
0.271343	2.39249
0.311361	2.65832
0.337081	2.8482
0.374234	3.11403
0.408522	3.37986
0.442837	3.56974
0.485721	3.83557
0.540039	4.17736
0.580072	4.40521
0.642972	4.78497
0.685883	4.97485
0.714468	5.16473
0.771678	5.43057
0.817428	5.6964
0.857488	5.8483
0.91755	6.15211
0.960461	6.34199
0.997642	6.53187
