Adsorption isotherm of Nitrogen on TiO2/P-BNNSs
DOI: 10.1016/j.jphotochem.2016.10.024
Article source: Figure 3
Adsorbate Nitrogen: InChIKey IJGRMHOSHXDMSA-UHFFFAOYSA-N
Kind: experiment
Temperature: 77 K
Tabular data in the source: 0
pressure (bar)	uptake (cm3(STP)/g)
0.047642	39.652
0.050692	39.028
0.092052	44.847
0.100178	45.628
0.118821	48.284
0.126623	48.538
0.161195	52.463
0.172036	52.327
0.201187	56.349
0.212718	55.823
0.242881	59.943
0.251018	59.221
0.285934	63.458
0.288304	62.463
0.318468	64.318
0.333717	66.642
0.369312	68.459
0.370325	69.845
0.404228	73.185
0.413378	72.56
0.448293	77.403
0.449307	76.075
0.487272	79.688
0.495763	96.243
0.532918	97.597
0.533709	82.891
0.568959	86.485
0.57135	98.14
0.608505	89.654
0.613632	98.78
0.643948	92.878
0.649075	98.88
0.685379	95.216
0.695623	99.545
0.729789	97.751
0.732778	99.62
0.768616	98.968
0.776681	99.898
0.800087	100.069
0.814617	100.349
0.837485	100.287
0.854437	100.846
0.87461	100.552
0.891288	100.955
0.918199	101.034
0.937562	101.592
0.956398	102.057
0.970391	102.244
1.00966	107.25
