Adsorption isotherm of Carbon Dioxide on MOF-74-Co
DOI: 10.1021/acs.jpcc.5b03700
Article source: Figure 8
Adsorbate Carbon Dioxide: InChIKey CURLTUGMZLYLDI-UHFFFAOYSA-N
Kind: experiment
Temperature: 298 K
Tabular data in the source: 0
pressure (bar)	uptake (mmol/g)
0.01	0.19917
0.020024	0.473029
0.030435	0.647303
0.040923	0.921162
0.050711	1.17012
0.060942	1.44398
0.07103	1.64315
0.081113	1.89212
0.091687	2.14108
0.151217	3.361
0.203331	4.0332
0.299722	4.95436
0.403016	5.55187
0.504524	5.95021
0.600165	6.32365
0.807	6.87137
1	7.29461
