Adsorption isotherm of Carbon Dioxide on MOF-74-Ni
DOI: 10.1021/acs.jpcc.5b03700
Article source: Figure 8
Adsorbate Carbon Dioxide: InChIKey CURLTUGMZLYLDI-UHFFFAOYSA-N
Kind: experiment
Temperature: 298 K
Tabular data in the source: 0
pressure (bar)	uptake (mmol/g)
0.010103	0.39834
0.020024	0.79668
0.030435	1.21992
0.040508	1.71784
0.051231	2.09129
0.0622	2.53942
0.07103	2.83817
0.079473	3.16183
0.091687	3.51037
0.101543	3.68465
0.151217	4.45643
0.203331	5.00415
0.302798	5.62656
0.411331	6.17427
0.509703	6.42324
0.600165	6.72199
0.807	7.19502
1.01026	7.64315
