Adsorption isotherm of Carbon Dioxide on Mn-MOF-74
DOI: 10.1021/acs.jpcc.5b03700
Article source: Figure 8
Adsorbate Carbon Dioxide: InChIKey CURLTUGMZLYLDI-UHFFFAOYSA-N
Kind: experiment
Temperature: 298 K
Tabular data in the source: 0
pressure (bar)	uptake (mmol/g)
0.01	0.19917
0.019821	0.323651
0.030435	0.497925
0.040508	0.647303
0.050711	0.821577
0.060324	0.970954
0.07103	1.14523
0.081113	1.3195
0.090755	1.51867
0.09949	1.64315
0.152769	2.46473
0.203331	3.11203
0.299722	4.05809
0.407151	4.75519
0.509703	5.27801
0.606324	5.62656
0.798802	6.22407
