Adsorption isotherm of Carbon Dioxide on Mn-MOF-74 with residual MeOH
DOI: 10.1021/acs.jpcc.5b03700
Article source: Figure 8
Adsorbate Carbon Dioxide: InChIKey CURLTUGMZLYLDI-UHFFFAOYSA-N
Kind: experiment
Temperature: 298 K
Tabular data in the source: 0
pressure (bar)	uptake (mmol/g)
0.01	0.248963
0.019821	0.448133
0.029819	0.622407
0.09848	1.84232
0.201265	3.03734
0.296677	3.83402
0.403016	4.40664
0.504524	4.80498
0.600165	5.25311
0.706682	5.55187
0.807	5.82573
