Adsorption isotherm of Carbon Dioxide on Co-MOF-74 with residual MeOH
DOI: 10.1021/acs.jpcc.5b03700
Article source: Figure 8
Adsorbate Carbon Dioxide: InChIKey CURLTUGMZLYLDI-UHFFFAOYSA-N
Kind: experiment
Temperature: 298 K
Tabular data in the source: 0
pressure (bar)	uptake (mmol/g)
0.01	0.248963
0.019821	0.572614
0.029517	0.846473
0.100512	2.48963
0.197197	3.88382
0.299722	4.6556
0.398921	5.17842
0.499399	5.62656
0.600165	5.95021
0.699502	6.32365
0.798802	6.52282
