Adsorption isotherm of Carbon Dioxide on Cu-MOF-74
DOI: 10.1021/acs.jpcc.5b03700
Article source: Figure 8
Adsorbate Carbon Dioxide: InChIKey CURLTUGMZLYLDI-UHFFFAOYSA-N
Kind: experiment
Temperature: 298 K
Tabular data in the source: 0
pressure (bar)	uptake (mmol/g)
0.01	0.074689
0.019821	0.049793
0.030126	0.099585
0.09949	0.298755
0.201265	0.622407
0.299722	0.970954
0.398921	1.29461
0.499399	1.64315
0.600165	2.04149
0.699502	2.36515
0.798802	2.73859
1.01026	3.3112
