Adsorption isotherm of Carbon Dioxide on Ni-MOF-74 with residual MeOH
DOI: 10.1021/acs.jpcc.5b03700
Article source: Figure 8
Adsorbate Carbon Dioxide: InChIKey CURLTUGMZLYLDI-UHFFFAOYSA-N
Kind: experiment
Temperature: 298 K
Tabular data in the source: 0
pressure (bar)	uptake (mmol/g)
0.01	0.547718
0.020024	1.07054
0.030126	1.56846
0.09949	3.68465
0.302798	5.42739
0.398921	5.87552
0.499399	6.24896
0.600165	6.52282
0.699502	6.79668
0.807	7.02075
