Adsorption isotherm of Nitrogen on C40H54N4Ni2O21
DOI: 10.1021/Ja203053y
Adsorbate Nitrogen: InChIKey IJGRMHOSHXDMSA-UHFFFAOYSA-N
Temperature: 77 K
Tabular data in the source: 0
pressure (bar)	uptake (ml/g)
0.00127329	0.00127329
0.00381987	230.432
0.0127329	231.776
0.0496583	235.812
0.0904036	238.51
0.115869	240.755
0.148975	242.557
0.18208	243.911
0.216459	245.267
0.253385	247.517
0.289037	247.533
0.320869	248.441
0.355248	248.903
0.389627	249.366
0.422732	249.827
0.458384	251.184
0.488943	251.198
0.524595	251.661
0.590806	252.584
0.629005	253.048
0.662111	253.064
0.695216	253.079
0.729595	253.541
0.7627	254.003
0.797079	254.019
0.832731	254.928
0.864564	255.836
0.898942	255.852
0.934595	255.868
0.9677	257.67
