Adsorption isotherm of Nitrogen on CuBTC
DOI: 10.1021/Cm1012119
Adsorbate Nitrogen: InChIKey IJGRMHOSHXDMSA-UHFFFAOYSA-N
Temperature: 77 K
Tabular data in the source: 0
pressure (bar)	uptake (cm3(STP)/g)
0.000603774	130.51
0.00538692	164.416
0.0332076	178.024
0.0841285	184.893
0.100321	184.921
0.148905	186.7
0.287718	192.027
0.389497	192.205
0.440402	195.684
0.486666	195.764
0.537563	197.548
0.583826	197.629
0.634716	197.717
0.680987	199.493
0.731876	199.582
0.75039	201.309
0.782774	201.366
0.801295	204.788
0.831358	203.145
0.852184	204.877
0.891524	208.335
0.912381	216.846
0.926292	223.65
0.933302	238.916
0.94497	260.971
0.963561	279.647
0.975182	291.532
