Adsorption isotherm of Nitrogen on MOF-14
DOI: 10.1021/Cm1012119
Adsorbate Nitrogen: InChIKey IJGRMHOSHXDMSA-UHFFFAOYSA-N
Temperature: 77 K
Tabular data in the source: 0
pressure (bar)	uptake (cm3(STP)/g)
0.00251884	81.9012
0.00262053	97.3196
0.00501421	110.244
0.014323	121.618
0.0282548	133.935
0.0375244	139.379
0.0490938	143.515
0.0652785	147.408
0.12534	153.735
0.178462	158.055
0.215415	160.854
0.254661	161.159
0.390889	165.846
0.427842	168.645
0.45555	169.558
0.487872	170.228
0.524825	173.027
0.554856	176.19
0.582579	179.475
0.610278	179.202
0.633378	181.544
0.65647	182.701
0.679577	186.229
0.704977	187.264
0.7304	191.856
0.753508	195.385
0.776639	202.471
0.804385	209.314
0.825208	216.522
0.852947	222.179
0.892208	224.857
0.922231	226.834
0.949977	233.677
0.95697	243.987
0.963963	254.296
0.966451	281.454
