Adsorption isotherm of Nitrogen on CuBTC
DOI: 10.1021/Cm1012119
Adsorbate Nitrogen: InChIKey IJGRMHOSHXDMSA-UHFFFAOYSA-N
Temperature: 77 K
Tabular data in the source: 0
pressure (bar)	uptake (cm3(STP)/g)
0.00348935	254.243
0.0081784	267.811
0.0383122	281.423
0.0753463	286.572
0.126275	295.136
0.181799	296.927
0.223459	302.085
0.265096	302.157
0.39003	307.46
0.427049	309.22
0.491833	312.722
0.521904	312.775
0.556609	314.53
0.635265	316.363
0.660717	318.102
0.686178	321.536
0.732457	325.007
0.778743	330.172
0.806525	335.305
0.829672	338.736
0.852851	348.946
0.880672	362.553
0.908445	365.992
0.950121	374.539
0.973276	379.664
0.977965	393.232
