Adsorption isotherm of Nitrogen on CuBTC
DOI: 10.1021/Cm1012119
Adsorbate Nitrogen: InChIKey IJGRMHOSHXDMSA-UHFFFAOYSA-N
Temperature: 77 K
Tabular data in the source: 0
pressure (bar)	uptake (cm3(STP)/g)
0.00877433	396.625
0.0342583	405.145
0.0736369	417.078
0.126887	427.34
0.18241	429.132
0.219437	432.586
0.25415	436.037
0.286526	434.398
0.328187	439.556
0.392963	441.364
0.473932	443.2
0.529447	443.297
0.575718	445.072
0.59885	445.113
0.624303	446.852
0.652061	446.9
0.696011	446.977
0.735342	448.741
0.788537	447.138
0.846366	447.239
0.892637	449.015
0.922716	450.762
0.969019	459.318
