Adsorption isotherm of Nitrogen on CuBTC
DOI: 10.1021/Cm1012119
Adsorbate Nitrogen: InChIKey IJGRMHOSHXDMSA-UHFFFAOYSA-N
Temperature: 77 K
Tabular data in the source: 0
pressure (bar)	uptake (cm3(STP)/g)
0.00133301	288.138
0.00157609	340.681
0.00181132	391.529
0.00656311	418.656
0.0297339	427.171
0.0482941	439.067
0.103873	452.724
0.145549	461.271
0.189507	463.042
0.224228	468.188
0.261246	469.947
0.289012	471.691
0.305204	471.719
0.328336	471.759
0.356101	473.503
0.379241	475.238
0.504167	478.846
0.527299	478.886
0.552752	480.625
0.575891	482.361
0.601336	482.405
0.624475	484.14
0.64992	484.185
0.668425	484.217
0.698489	482.575
0.721628	484.31
0.742454	486.041
0.765578	484.386
0.830362	487.889
0.848875	489.617
0.88587	486.291
0.90901	488.027
0.932157	491.457
0.976123	494.923
