Adsorption isotherm of Nitrogen on MOF-14
DOI: 10.1021/Cm1012119
Adsorbate Nitrogen: InChIKey IJGRMHOSHXDMSA-UHFFFAOYSA-N
Temperature: 77 K
Tabular data in the source: 0
pressure (bar)	uptake (cm3(STP)/g)
0.00240932	65.2968
0.00711063	78.0999
0.0140961	87.2234
0.0279732	91.238
0.0695496	94.9797
0.129564	94.1906
0.17804	94.0095
0.217285	94.3146
0.251915	94.863
0.286522	91.8532
0.34192	91.3073
0.390396	91.1261
0.427318	89.1808
0.457325	88.7863
0.485025	88.5133
0.52657	87.5109
0.554261	86.0519
0.579661	87.0865
0.605045	85.7491
0.632736	84.2902
0.653521	85.568
0.67892	86.6026
0.706628	87.5157
0.727428	91.1656
0.755127	90.8926
0.775903	90.9844
0.801287	89.647
0.824379	90.8032
0.849779	91.8379
0.872871	92.9941
0.932893	93.3911
0.949085	98.4702
0.958386	108.658
0.967718	123.59
0.967812	137.822
0.970214	151.933
0.970268	160.235
