Adsorption isotherm of Carbon Dioxide on Ammonium ZSM-5
DOI: 10.1007/s10450-022-00355-x
Article source: Figure 4
Adsorbate Carbon Dioxide: InChIKey CURLTUGMZLYLDI-UHFFFAOYSA-N
Kind: experiment
Isotherm type: excess
Temperature: 298 K
Tabular data in the source: 0
pressure (bar)	uptake (mmol/g)
0.010176	0
0.431749	1.40169
0.631986	1.6637
0.829327	1.85209
1.42107	2.20094
2.41412	2.49652
3.40966	2.6622
4.40574	2.77309
5.4032	2.85608
6.4008	2.9201
7.39978	2.97235
8.39766	3.01739
9.39719	3.05552
10.3968	3.08806
11.3974	3.11704
12.3961	3.14264
13.3957	3.16601
14.3946	3.18702
15.393	3.20585
16.394	3.22263
17.3929	3.23798
18.3927	3.25189
19.3918	3.26697
