Adsorption isotherm of Carbon Dioxide on Ammonium ZSM-5
DOI: 10.1007/s10450-022-00355-x
Article source: Figure 5
Adsorbate Carbon Dioxide: InChIKey CURLTUGMZLYLDI-UHFFFAOYSA-N
Kind: experiment
Isotherm type: excess
Temperature: 308 K
Tabular data in the source: 0
pressure (bar)	uptake (mmol/g)
0.0099	0
0.436852	1.18187
0.635158	1.43046
0.832637	1.61968
1.42576	1.99
2.41978	2.31384
3.41214	2.49978
4.40698	2.62575
5.4061	2.71807
6.40287	2.78784
7.40226	2.84608
8.40138	2.89484
9.39677	2.93413
10.398	2.97298
11.3964	2.9995
12.3945	3.02745
13.3935	3.05531
14.3914	3.07543
15.3912	3.09712
16.3929	3.11559
17.4013	3.13169
18.5247	3.15349
19.4045	3.16311
