Adsorption isotherm of Carbon Dioxide on Ammonium ZSM-5
DOI: 10.1007/s10450-022-00355-x
Article source: Figure 4
Adsorbate Carbon Dioxide: InChIKey CURLTUGMZLYLDI-UHFFFAOYSA-N
Kind: experiment
Isotherm type: excess
Temperature: 298 K
Tabular data in the source: 0
pressure (bar)	uptake (mmol/g)
0.000561	0
0.402828	1.17057
0.674293	1.72921
0.934514	1.95196
1.31619	2.23916
1.83067	2.42024
3.32396	2.68798
6.70862	2.97459
9.94578	3.10558
13.2367	3.18494
16.5427	3.24754
19.8431	3.29471
23.1889	3.32942
26.5499	3.35874
29.9576	3.38108
33.2835	3.39822
36.2274	3.41009
40.1007	3.42038
43.9868	3.4277
