Adsorption isotherm of Carbon Dioxide on Ammonium ZSM-5
DOI: 10.1007/s10450-022-00355-x
Article source: Figure 5
Adsorbate Carbon Dioxide: InChIKey CURLTUGMZLYLDI-UHFFFAOYSA-N
Kind: experiment
Isotherm type: excess
Temperature: 308 K
Tabular data in the source: 0
pressure (bar)	uptake (mmol/g)
2.46834	2.31213
4.9905	2.66626
7.49501	2.83563
9.99103	2.94181
12.4898	3.01775
14.9858	3.0739
17.4838	3.11869
19.979	3.15439
22.473	3.18305
24.973	3.20695
27.4704	3.22701
29.9672	3.243
32.4644	3.25606
34.9611	3.26689
37.4568	3.27526
39.9551	3.28095
39.9942	3.28141
40.0013	3.28141
