Adsorption isotherm of Carbon Dioxide on Ammonium ZSM-5
DOI: 10.1007/s10450-022-00355-x
Article source: Figure 3
Adsorbate Carbon Dioxide: InChIKey CURLTUGMZLYLDI-UHFFFAOYSA-N
Kind: experiment
Isotherm type: excess
Temperature: 288 K
Tabular data in the source: 0
pressure (bar)	uptake (mmol/g)
0.00083	-0.000121
0.084229	0.706115
0.213362	1.21099
0.331459	1.50737
0.704778	2.0359
1.46241	2.4256
2.96176	2.82155
4.01894	2.94617
5.05134	3.03218
6.09667	3.09913
7.11525	3.15314
8.13645	3.19618
9.11186	3.23187
10.1262	3.26666
12.3609	3.32157
14.2704	3.36129
16.4619	3.40461
18.5636	3.44546
20.3771	3.47419
22.3898	3.48187
24.3646	3.50164
26.5268	3.51428
28.2713	3.53014
30.4406	3.55428
33.0786	3.5669
35.3031	3.59584
37.9078	3.60951
40.4279	3.62706
42.8253	3.63875
45.4305	3.70136
