Adsorption isotherm of Carbon Dioxide on Ammonium ZSM-5
DOI: 10.1007/s10450-022-00355-x
Article source: Figure 5
Adsorbate Carbon Dioxide: InChIKey CURLTUGMZLYLDI-UHFFFAOYSA-N
Kind: experiment
Isotherm type: excess
Temperature: 308 K
Tabular data in the source: 0
pressure (bar)	uptake (mmol/g)
0.001077	0
0.404538	1.14251
0.671508	1.47802
0.930334	1.70182
1.32474	1.94092
1.94842	2.24727
3.33304	2.5131
6.6801	2.81014
9.91045	2.95182
13.2065	3.04473
16.5004	3.11043
19.8881	3.15815
23.246	3.19752
26.6561	3.2255
30.0023	3.24431
33.4764	3.26146
36.0784	3.26936
39.9832	3.27945
43.9212	3.28472
