Adsorption isotherm of Carbon Dioxide on Ammonium ZSM-5
DOI: 10.1007/s10450-022-00355-x
Article source: Figure 3
Adsorbate Carbon Dioxide: InChIKey CURLTUGMZLYLDI-UHFFFAOYSA-N
Kind: experiment
Isotherm type: excess
Temperature: 288 K
Tabular data in the source: 0
pressure (bar)	uptake (mmol/g)
0.000741	-0.00012
0.088892	0.729059
0.216013	1.21537
0.334517	1.5104
0.767276	2.08856
1.75019	2.5703
3.00568	2.82304
4.0212	2.94243
5.05282	3.0278
6.07891	3.09244
7.153	3.149
8.1733	3.19455
9.18364	3.22789
10.1649	3.26272
12.1982	3.31389
14.2796	3.35531
16.3304	3.3924
18.2764	3.43274
20.4072	3.46648
22.4041	3.47078
24.3252	3.49488
26.2922	3.51288
28.2466	3.52883
30.4081	3.56568
33.031	3.56838
35.7464	3.58706
37.7614	3.59106
40.7159	3.60006
43.3251	3.63572
45.7807	3.66711
