Adsorption isotherm of Carbon Dioxide on Ammonium ZSM-5
DOI: 10.1007/s10450-022-00355-x
Article source: Figure 4
Adsorbate Carbon Dioxide: InChIKey CURLTUGMZLYLDI-UHFFFAOYSA-N
Kind: experiment
Isotherm type: excess
Temperature: 298 K
Tabular data in the source: 0
pressure (bar)	uptake (mmol/g)
0.259151	1.06049
1.43075	2.1985
2.69749	2.55263
3.93205	2.72879
5.1349	2.8455
6.2861	2.91583
7.38381	2.98145
9.35778	3.05329
11.8385	3.12062
14.3457	3.17603
16.8531	3.21741
19.3382	3.26366
21.8228	3.29101
24.3162	3.31722
26.7858	3.34485
29.2501	3.36704
31.7191	3.38543
34.2102	3.39957
36.6822	3.41615
39.1429	3.40709
41.6009	3.41611
43.256	3.41266
44.0814	3.41763
