Adsorption isotherm of Carbon Dioxide on Ammonium ZSM-5
DOI: 10.1007/s10450-022-00355-x
Article source: Figure 4
Adsorbate Carbon Dioxide: InChIKey CURLTUGMZLYLDI-UHFFFAOYSA-N
Kind: experiment
Isotherm type: excess
Temperature: 298 K
Tabular data in the source: 0
pressure (bar)	uptake (mmol/g)
0.000291	-0.000724
0.315072	1.22104
0.707835	1.77083
1.73682	2.3505
2.93377	2.62628
3.99076	2.76647
5.04188	2.86266
7.73217	3.02401
10.2264	3.11374
12.7741	3.17833
15.3185	3.23235
17.8296	3.27107
20.3408	3.31878
23.0006	3.33081
25.3043	3.35216
28.2381	3.36698
30.5392	3.3801
33.0252	3.3934
35.5191	3.4184
38.035	3.42424
41.2406	3.41976
43.2809	3.42315
45.6796	3.39417
