Adsorption isotherm of Carbon Dioxide on Ammonium ZSM-5
DOI: 10.1007/s10450-022-00355-x
Article source: Figure 5
Adsorbate Carbon Dioxide: InChIKey CURLTUGMZLYLDI-UHFFFAOYSA-N
Kind: experiment
Isotherm type: excess
Temperature: 308 K
Tabular data in the source: 0
pressure (bar)	uptake (mmol/g)
0.0099	0
0.440437	1.17006
0.641088	1.41978
0.837739	1.60532
1.42894	1.97059
2.42047	2.29377
3.41462	2.47853
4.41056	2.60337
5.40734	2.69418
6.4048	2.76485
7.40212	2.82243
8.40138	2.87073
9.40063	2.91204
10.3984	2.94698
11.3997	2.97497
12.3972	3.00324
13.3981	3.02675
14.3955	3.05234
15.3973	3.07193
16.403	3.0878
17.406	3.10563
18.3928	3.11682
19.3867	3.13049
