Adsorption isotherm of Carbon Dioxide on Ammonium ZSM-5
DOI: 10.1007/s10450-022-00355-x
Article source: Figure 3
Adsorbate Carbon Dioxide: InChIKey CURLTUGMZLYLDI-UHFFFAOYSA-N
Kind: experiment
Isotherm type: excess
Temperature: 288 K
Tabular data in the source: 0
pressure (bar)	uptake (mmol/g)
2.47229	2.70665
4.9955	2.99018
7.49257	3.13078
9.98972	3.22267
12.486	3.28964
14.9814	3.34025
17.481	3.38193
19.9726	3.41531
22.4679	3.44393
24.9655	3.46887
27.4631	3.48984
29.9534	3.51018
32.4527	3.52731
34.9494	3.5439
37.443	3.56329
39.9416	3.5804
39.9883	3.58032
39.9967	3.58122
