Adsorption isotherm of Carbon Dioxide on Ammonium ZSM-5
DOI: 10.1007/s10450-022-00355-x
Article source: Figure 5
Adsorbate Carbon Dioxide: InChIKey CURLTUGMZLYLDI-UHFFFAOYSA-N
Kind: experiment
Isotherm type: excess
Temperature: 308 K
Tabular data in the source: 0
pressure (bar)	uptake (mmol/g)
0.010038	0
0.470776	1.20753
0.665497	1.43894
0.864769	1.62094
1.45321	1.97651
2.44515	2.29325
3.43462	2.47917
4.42753	2.60194
5.42154	2.69268
6.41762	2.76308
7.40543	2.81952
8.40965	2.86917
9.40767	2.90917
10.4088	2.94809
11.4047	2.97419
12.4086	3.00113
13.4035	3.02634
14.4053	3.0499
15.3996	3.06928
16.4047	3.08823
17.4013	3.10233
18.4037	3.11434
19.3993	3.13108
