Adsorption isotherm of Carbon Dioxide on Ammonium ZSM-5
DOI: 10.1007/s10450-022-00355-x
Article source: Figure 3
Adsorbate Carbon Dioxide: InChIKey CURLTUGMZLYLDI-UHFFFAOYSA-N
Kind: experiment
Isotherm type: excess
Temperature: 288 K
Tabular data in the source: 0
pressure (bar)	uptake (mmol/g)
2.46333	2.71983
4.99296	3.00291
7.49323	3.1426
9.98865	3.23404
12.4852	3.30078
14.9817	3.35184
17.4755	3.39307
19.9705	3.42712
22.4712	3.4562
24.9678	3.48114
27.465	3.5037
29.9542	3.52336
32.4546	3.54299
34.9451	3.56163
37.442	3.58056
39.9372	3.59745
39.9935	3.60281
39.9981	3.60371
