Adsorption isotherm of Carbon Dioxide on Ammonium ZSM-5
DOI: 10.1007/s10450-022-00355-x
Article source: Figure 3
Adsorbate Carbon Dioxide: InChIKey CURLTUGMZLYLDI-UHFFFAOYSA-N
Kind: experiment
Isotherm type: excess
Temperature: 288 K
Tabular data in the source: 0
pressure (bar)	uptake (mmol/g)
0.010176	0
0.443333	1.69494
0.643019	1.95741
0.840773	2.13672
1.43349	2.45529
2.42585	2.71796
3.41903	2.86395
4.41581	2.9644
5.41216	3.03915
6.41032	3.09833
7.4075	3.14708
8.40262	3.18874
9.40436	3.2245
10.402	3.25493
11.4019	3.28264
12.3998	3.30768
13.3979	3.32998
14.398	3.3506
15.3949	3.3687
16.3957	3.3859
17.3936	3.40183
18.3943	3.41646
19.3932	3.43057
