Adsorption isotherm of Carbon Dioxide on Ammonium ZSM-5
DOI: 10.1007/s10450-022-00355-x
Article source: Figure 3
Adsorbate Carbon Dioxide: InChIKey CURLTUGMZLYLDI-UHFFFAOYSA-N
Kind: experiment
Isotherm type: excess
Temperature: 288 K
Tabular data in the source: 0
pressure (bar)	uptake (mmol/g)
0.000245	-0.001761
0.07179	0.620001
0.215614	1.16351
0.273302	1.31871
0.804686	2.09369
1.58433	2.50985
2.59662	2.75639
3.95544	2.93427
4.99779	3.02351
7.62002	3.17143
9.09898	3.22726
15.5561	3.39798
18.6532	3.46439
19.4505	3.47515
21.1407	3.50845
24.6813	3.54237
27.7838	3.54559
29.7202	3.56867
30.5784	3.57438
32.7034	3.59179
35.1926	3.60947
37.9436	3.62057
40.5651	3.62982
42.9676	3.64406
45.4245	3.67103
