Adsorption isotherm of Carbon Dioxide on Ammonium ZSM-5
DOI: 10.1007/s10450-022-00355-x
Article source: Figure 3
Adsorbate Carbon Dioxide: InChIKey CURLTUGMZLYLDI-UHFFFAOYSA-N
Kind: experiment
Temperature: 288 K
Tabular data in the source: 0
pressure (bar)	uptake (mmol/g)
0.1	0.791324
0.109	0.833824
0.118	0.874136
0.127	0.912474
0.136	0.949019
0.145	0.983929
0.154	1.01734
0.163	1.04937
0.172	1.08013
0.181	1.10971
0.19	1.13819
0.199	1.16565
0.208	1.19215
0.217	1.21776
0.226	1.24253
0.235	1.26651
0.244	1.28974
0.253	1.31228
0.262	1.33415
0.271	1.35539
0.28	1.37603
0.289	1.39611
0.298	1.41565
0.307	1.43468
0.316	1.45322
0.325	1.47129
0.334	1.48892
0.343	1.50612
0.352	1.52292
0.361	1.53932
0.37	1.55536
0.379	1.57103
0.388	1.58635
0.397	1.60135
0.406	1.61603
0.415	1.6304
0.424	1.64447
0.433	1.65826
0.442	1.67178
0.451	1.68503
0.46	1.69802
0.469	1.71077
0.478	1.72328
0.487	1.73556
0.496	1.74761
0.505	1.75945
0.514	1.77107
0.523	1.7825
0.532	1.79372
0.541	1.80476
0.55	1.81561
0.559	1.82628
0.568	1.83678
0.577	1.8471
0.586	1.85726
0.595	1.86726
0.604	1.87711
0.613	1.8868
0.622	1.89635
0.631	1.90575
0.64	1.91501
0.649	1.92413
0.658	1.93313
0.667	1.94199
0.676	1.95072
0.685	1.95934
0.694	1.96783
0.703	1.9762
0.712	1.98446
0.721	1.99261
0.73	2.00065
0.739	2.00858
0.748	2.01641
0.757	2.02414
0.766	2.03177
0.775	2.0393
0.784	2.04673
0.793	2.05407
0.802	2.06132
0.811	2.06848
0.82	2.07556
0.829	2.08254
0.838	2.08945
0.847	2.09627
0.856	2.10301
0.865	2.10968
0.874	2.11626
0.883	2.12277
0.892	2.12921
0.901	2.13557
0.91	2.14187
0.919	2.14809
0.928	2.15424
0.937	2.16033
0.946	2.16635
0.955	2.17231
0.964	2.1782
0.973	2.18403
0.982	2.1898
0.991	2.19551
1	2.20115
1.1	2.26024
1.2	2.31337
1.3	2.36151
1.4	2.40541
1.5	2.44566
1.6	2.48276
1.7	2.51711
1.8	2.54903
1.9	2.5788
2	2.60665
2.1	2.63279
2.2	2.65738
2.3	2.68058
2.4	2.70251
2.5	2.72328
2.6	2.743
2.7	2.76175
2.8	2.7796
2.9	2.79663
3	2.81291
3.1	2.82847
3.2	2.84338
3.3	2.85768
3.4	2.8714
3.5	2.88459
3.6	2.89729
3.7	2.90951
3.8	2.9213
3.9	2.93267
4	2.94365
4.1	2.95426
4.2	2.96452
4.3	2.97445
4.4	2.98407
4.5	2.99339
4.6	3.00243
4.7	3.0112
4.8	3.01972
4.9	3.02799
5	3.03603
5	3.03603
6	3.10575
7	3.16075
8	3.20556
9	3.24296
10	3.27478
11	3.30228
12	3.32633
13	3.34761
14	3.36659
15	3.38367
16	3.39913
17	3.41321
18	3.42611
19	3.43798
20	3.44894
21	3.45911
22	3.46858
23	3.47741
24	3.48569
25	3.49345
26	3.50076
27	3.50766
28	3.51418
29	3.52035
30	3.52621
31	3.53178
32	3.53708
33	3.54213
34	3.54695
35	3.55156
36	3.55598
37	3.56021
38	3.56427
39	3.56817
40	3.57191
41	3.57552
42	3.57899
43	3.58234
44	3.58557
45	3.58869
