Adsorption isotherm of Carbon Dioxide on Ammonium ZSM-5
DOI: 10.1007/s10450-022-00355-x
Article source: Figure 4
Adsorbate Carbon Dioxide: InChIKey CURLTUGMZLYLDI-UHFFFAOYSA-N
Kind: experiment
Isotherm type: excess
Temperature: 298 K
Tabular data in the source: 0
pressure (bar)	uptake (mmol/g)
0.009348	0
0.440299	1.41396
0.636399	1.67192
0.833189	1.85834
1.42507	2.20749
2.41826	2.5015
3.41283	2.66485
4.40891	2.77614
5.40568	2.85765
6.40301	2.92207
7.40212	2.97433
8.39959	3.01898
9.39912	3.05577
10.3985	3.08801
11.3994	3.11649
12.3973	3.14235
13.3966	3.16506
14.3944	3.18524
15.3938	3.20381
16.3916	3.22096
17.392	3.23691
18.389	3.25028
19.3917	3.26531
