Adsorption isotherm of Carbon Dioxide on Ammonium ZSM-5
DOI: 10.1007/s10450-022-00355-x
Article source: Figure 5
Adsorbate Carbon Dioxide: InChIKey CURLTUGMZLYLDI-UHFFFAOYSA-N
Kind: experiment
Isotherm type: excess
Temperature: 308 K
Tabular data in the source: 0
pressure (bar)	uptake (mmol/g)
0.292959	0.946497
1.46371	1.99083
2.72216	2.35489
3.97451	2.5508
5.16704	2.67196
6.33675	2.75508
7.45167	2.82679
9.94307	2.92986
12.4396	3.00206
14.9636	3.06513
17.4435	3.10939
19.9217	3.14473
22.4208	3.17526
24.9024	3.19768
27.372	3.21327
29.8296	3.22462
32.2988	3.22597
34.775	3.22794
37.2293	3.22423
39.6886	3.21473
42.1422	3.21769
43.5357	3.20759
44.2264	3.20455
