Adsorption isotherm of Carbon Dioxide on Ammonium ZSM-5
DOI: 10.1007/s10450-022-00355-x
Article source: Figure 4
Adsorbate Carbon Dioxide: InChIKey CURLTUGMZLYLDI-UHFFFAOYSA-N
Kind: experiment
Isotherm type: excess
Temperature: 298 K
Tabular data in the source: 0
pressure (bar)	uptake (mmol/g)
0.000583	0
0.401017	1.1591
0.675001	1.71206
0.931587	1.92919
1.31527	2.21472
1.83813	2.39121
3.37431	2.66773
6.70198	2.93737
10.0627	3.07304
13.2151	3.15469
16.5686	3.21907
19.7986	3.26422
23.2198	3.30026
26.5047	3.32667
29.7746	3.34908
33.0239	3.3687
36.2441	3.38145
40.1274	3.39532
44.0291	3.40588
