Adsorption isotherm of Carbon Dioxide on Ammonium ZSM-5
DOI: 10.1007/s10450-022-00355-x
Article source: Figure 5
Adsorbate Carbon Dioxide: InChIKey CURLTUGMZLYLDI-UHFFFAOYSA-N
Kind: experiment
Isotherm type: excess
Temperature: 308 K
Tabular data in the source: 0
pressure (bar)	uptake (mmol/g)
0.201729	0.756197
1.35626	1.94182
2.63903	2.34409
3.85631	2.53856
5.04858	2.66317
6.21274	2.7455
7.33297	2.82046
9.83142	2.9285
12.3395	3.0069
14.8092	3.06391
17.3071	3.11114
19.801	3.15004
22.2794	3.17948
24.7561	3.20046
27.2209	3.21895
29.6955	3.22971
32.1613	3.24209
34.6163	3.24621
37.0707	3.25297
39.5323	3.25765
41.9974	3.25065
43.4543	3.24597
44.189	3.25992
