Adsorption isotherm of Carbon Dioxide on Ammonium ZSM-5
DOI: 10.1007/s10450-022-00355-x
Article source: Figure 4
Adsorbate Carbon Dioxide: InChIKey CURLTUGMZLYLDI-UHFFFAOYSA-N
Kind: experiment
Isotherm type: excess
Temperature: 298 K
Tabular data in the source: 0
pressure (bar)	uptake (mmol/g)
2.4663	2.51901
4.99139	2.83578
7.49516	2.98895
9.99056	3.08642
12.4866	3.15638
14.9832	3.20904
17.4811	3.25122
19.9815	3.28519
22.4737	3.31298
24.9703	3.33596
27.4684	3.35549
29.9617	3.37133
32.4591	3.3853
34.954	3.39649
37.4518	3.4058
39.9485	3.41414
39.9932	3.41413
39.9997	3.41481
