Adsorption isotherm of Carbon Dioxide on Ammonium ZSM-5
DOI: 10.1007/s10450-022-00355-x
Article source: Figure 3
Adsorbate Carbon Dioxide: InChIKey CURLTUGMZLYLDI-UHFFFAOYSA-N
Kind: experiment
Isotherm type: excess
Temperature: 288 K
Tabular data in the source: 0
pressure (bar)	uptake (mmol/g)
0.000945	0
0.400889	1.62223
0.668217	1.97125
0.935086	2.18721
1.32566	2.39067
1.93194	2.63165
3.33637	2.84445
6.5961	3.08337
9.91204	3.20917
13.2293	3.29265
16.5604	3.35374
19.8839	3.40141
23.2973	3.43872
26.6433	3.47046
30.2119	3.50352
33.4571	3.52671
36.0529	3.54695
39.9682	3.57746
43.9643	3.61137
