Adsorption isotherm of Carbon Dioxide on Ammonium ZSM-5
DOI: 10.1007/s10450-022-00355-x
Article source: Figure 5
Adsorbate Carbon Dioxide: InChIKey CURLTUGMZLYLDI-UHFFFAOYSA-N
Kind: experiment
Isotherm type: excess
Temperature: 308 K
Tabular data in the source: 0
pressure (bar)	uptake (mmol/g)
0.001112	0
0.403008	1.14055
0.665897	1.46846
0.930516	1.69848
1.3292	1.94051
2.02006	2.25913
3.32536	2.51255
6.671	2.81187
9.90882	2.95501
13.2027	3.0483
16.5388	3.11423
19.8497	3.16116
23.3711	3.20209
26.5796	3.22601
29.9128	3.24758
33.4743	3.26299
36.0786	3.27387
39.9782	3.28473
43.9297	3.2908
