Adsorption isotherm of Carbon Dioxide on Ammonium ZSM-5
DOI: 10.1007/s10450-022-00355-x
Article source: Figure 4
Adsorbate Carbon Dioxide: InChIKey CURLTUGMZLYLDI-UHFFFAOYSA-N
Kind: experiment
Isotherm type: excess
Temperature: 298 K
Tabular data in the source: 0
pressure (bar)	uptake (mmol/g)
0.000632	-0.00066
0.266337	1.11284
0.635543	1.69349
1.65281	2.32295
2.9269	2.62795
4.00235	2.77155
5.34272	2.89195
7.76443	3.03267
10.1945	3.12569
12.9176	3.19974
15.3498	3.2545
17.8971	3.29031
20.3819	3.33811
23.2141	3.3637
25.7474	3.37589
28.0041	3.37968
30.7788	3.40436
33.073	3.41671
35.7285	3.4274
38.2353	3.44872
40.8329	3.45005
43.4732	3.48312
45.6446	3.45559
