Adsorption isotherm of Carbon Dioxide on Ammonium ZSM-5
DOI: 10.1007/s10450-022-00355-x
Article source: Figure 3
Adsorbate Carbon Dioxide: InChIKey CURLTUGMZLYLDI-UHFFFAOYSA-N
Kind: experiment
Isotherm type: excess
Temperature: 288 K
Tabular data in the source: 0
pressure (bar)	uptake (mmol/g)
0.000162	-0.001761
0.089639	0.333088
0.224551	0.91966
0.290716	1.12813
0.769606	1.95882
1.67795	2.49678
2.8942	2.7805
3.9643	2.91747
5.04637	3.01231
6.72093	3.11581
10.344	3.2582
13.4642	3.33388
15.1879	3.36728
18.1598	3.41234
20.3023	3.44954
22.1958	3.46285
24.6168	3.48059
26.6777	3.5154
26.7285	3.52014
31.7868	3.55441
35.4932	3.57204
35.4932	3.57204
39.6942	3.6021
43.4161	3.61507
45.7123	3.56869
