Adsorption isotherm of Carbon Dioxide on Ammonium ZSM-5
DOI: 10.1007/s10450-022-00355-x
Article source: Figure 5
Adsorbate Carbon Dioxide: InChIKey CURLTUGMZLYLDI-UHFFFAOYSA-N
Kind: experiment
Isotherm type: excess
Temperature: 308 K
Tabular data in the source: 0
pressure (bar)	uptake (mmol/g)
0.000401	-0.009284
0.14156	0.601791
0.291483	0.946129
0.667243	1.46829
1.75008	2.12734
2.88755	2.42499
3.9785	2.59224
5.02026	2.7034
6.06939	2.78629
7.09485	2.8495
8.08979	2.90143
9.14738	2.94677
10.1583	2.98451
12.301	3.04163
14.24	3.08625
16.5063	3.13162
18.4043	3.16557
20.4014	3.19466
22.3714	3.19834
24.4113	3.22112
27.2399	3.25518
28.7746	3.27838
30.4457	3.29037
33.0188	3.2867
35.5902	3.28957
37.945	3.29981
41.0342	3.31088
43.1158	3.32862
46.312	3.30458
48.2068	3.28847
50.8044	3.26343
