Adsorption isotherm of Carbon Dioxide on Ammonium ZSM-5
DOI: 10.1007/s10450-022-00355-x
Article source: Figure 3
Adsorbate Carbon Dioxide: InChIKey CURLTUGMZLYLDI-UHFFFAOYSA-N
Kind: experiment
Isotherm type: excess
Temperature: 288 K
Tabular data in the source: 0
pressure (bar)	uptake (mmol/g)
0.232429	1.21235
1.37059	2.40329
2.64387	2.73914
3.90081	2.90605
5.08945	3.01406
6.22337	3.07564
7.32682	3.13335
9.29735	3.19646
11.7843	3.26212
14.2609	3.30701
16.7231	3.3404
19.1894	3.38388
21.6626	3.42065
24.1145	3.45068
26.5795	3.49326
29.0247	3.51994
31.4702	3.54206
33.9166	3.56227
36.3308	3.56212
38.7492	3.56585
41.1592	3.58192
43.0006	3.61683
43.9335	3.64734
