Adsorption isotherm of Carbon Dioxide on Ammonium ZSM-5
DOI: 10.1007/s10450-022-00355-x
Article source: Figure 3
Adsorbate Carbon Dioxide: InChIKey CURLTUGMZLYLDI-UHFFFAOYSA-N
Kind: experiment
Isotherm type: excess
Temperature: 288 K
Tabular data in the source: 0
pressure (bar)	uptake (mmol/g)
0.011417	0
0.433404	1.67659
0.6324	1.94706
0.830431	2.13
1.42425	2.45458
2.41743	2.71813
3.41269	2.86618
4.40919	2.96675
5.40734	3.0413
6.40287	3.10139
7.40268	3.15007
8.39986	3.19225
9.39898	3.2286
10.3967	3.25971
11.3968	3.28749
12.3961	3.31186
13.3939	3.33555
14.3931	3.35521
15.3924	3.37395
16.3935	3.39083
17.3933	3.40656
18.3923	3.42166
19.3911	3.43501
