Adsorption isotherm of Carbon Dioxide on Ammonium ZSM-5
DOI: 10.1007/s10450-022-00355-x
Article source: Figure 3
Adsorbate Carbon Dioxide: InChIKey CURLTUGMZLYLDI-UHFFFAOYSA-N
Kind: experiment
Isotherm type: excess
Temperature: 288 K
Tabular data in the source: 0
pressure (bar)	uptake (mmol/g)
0.221942	1.19443
1.38096	2.41597
2.63634	2.74157
3.89199	2.91345
5.09451	3.02096
6.23087	3.08744
7.32082	3.14525
9.28646	3.21257
11.1884	3.25538
13.669	3.30401
16.1488	3.34503
18.6349	3.38072
21.1025	3.41353
23.542	3.46373
26.0022	3.48979
28.4425	3.5252
30.8885	3.549
33.3123	3.56656
35.7406	3.58426
38.1526	3.58646
40.5762	3.5991
42.7026	3.62348
43.768	3.66489
