Adsorption isotherm of Carbon Dioxide on Ammonium ZSM-5
DOI: 10.1007/s10450-022-00355-x
Article source: Figure 5
Adsorbate Carbon Dioxide: InChIKey CURLTUGMZLYLDI-UHFFFAOYSA-N
Kind: experiment
Isotherm type: excess
Temperature: 308 K
Tabular data in the source: 0
pressure (bar)	uptake (mmol/g)
0.01183	0
0.427612	1.16639
0.625918	1.41922
0.824087	1.61206
1.41721	1.98647
2.41013	2.31433
3.40731	2.50186
4.40546	2.62973
5.40279	2.72106
6.40163	2.79251
7.39881	2.84798
8.39807	2.89774
9.39939	2.93861
10.3973	2.97796
11.3971	3.00419
12.3969	3.03483
13.3956	3.05891
14.3957	3.08312
15.4009	3.10716
16.4033	3.12024
17.3977	3.1406
18.3983	3.15131
19.3867	3.16501
