Adsorption isotherm of Carbon Dioxide on Ammonium ZSM-5
DOI: 10.1007/s10450-022-00355-x
Article source: Figure 3
Adsorbate Carbon Dioxide: InChIKey CURLTUGMZLYLDI-UHFFFAOYSA-N
Kind: experiment
Isotherm type: excess
Temperature: 288 K
Tabular data in the source: 0
pressure (bar)	uptake (mmol/g)
0.007142	0
0.448849	1.70577
0.646604	1.96183
0.844359	2.13782
1.43735	2.45422
2.42488	2.71262
3.41834	2.85941
4.4125	2.95918
5.40844	3.03386
6.40342	3.09302
7.40364	3.14227
8.40069	3.18402
9.39981	3.22
10.3982	3.25115
11.399	3.27883
12.3974	3.30342
13.3956	3.32598
14.3941	3.34612
15.3935	3.36468
16.3934	3.38182
17.3929	3.39686
18.3916	3.41188
19.3885	3.42577
