Adsorption isotherm of Carbon Dioxide on Ammonium ZSM-5
DOI: 10.1007/s10450-022-00355-x
Article source: Figure 3
Adsorbate Carbon Dioxide: InChIKey CURLTUGMZLYLDI-UHFFFAOYSA-N
Kind: experiment
Isotherm type: excess
Temperature: 288 K
Tabular data in the source: 0
pressure (bar)	uptake (mmol/g)
0.246905	1.25801
1.4151	2.42712
2.68101	2.75343
3.93076	2.92375
5.13825	3.03201
6.29561	3.09729
7.39048	3.15262
9.88251	3.23114
12.3686	3.28457
14.8611	3.33093
17.3417	3.37104
19.8006	3.40762
22.282	3.45201
24.7274	3.48407
27.173	3.52117
29.6188	3.55065
32.0562	3.57207
34.48	3.58453
36.9011	3.59557
39.3137	3.615
41.726	3.63439
43.2663	3.68281
44.0583	3.71666
