Adsorption isotherm of Carbon Dioxide on Ammonium ZSM-5
DOI: 10.1007/s10450-022-00355-x
Article source: Figure 5
Adsorbate Carbon Dioxide: InChIKey CURLTUGMZLYLDI-UHFFFAOYSA-N
Kind: experiment
Isotherm type: excess
Temperature: 308 K
Tabular data in the source: 0
pressure (bar)	uptake (mmol/g)
2e-06	-0.009291
0.124114	0.553802
0.272235	0.90729
0.658682	1.45668
1.83794	2.15499
2.916	2.42885
3.99404	2.59241
5.04255	2.70322
6.05019	2.78257
7.07129	2.84856
8.10918	2.90289
9.1326	2.94352
10.1648	2.98438
12.3502	3.04763
14.2867	3.09102
16.2623	3.12863
18.3576	3.17372
20.3658	3.20124
22.3723	3.21966
24.3215	3.23394
26.3725	3.24823
28.4232	3.27391
30.6123	3.25637
32.9772	3.2908
35.7271	3.29095
38.0997	3.30225
40.8805	3.29214
43.0499	3.31873
45.8044	3.27576
48.2057	3.30814
50.7892	3.2706
