Adsorption isotherm of Carbon Dioxide on Ammonium ZSM-5
DOI: 10.1007/s10450-022-00355-x
Article source: Figure 4
Adsorbate Carbon Dioxide: InChIKey CURLTUGMZLYLDI-UHFFFAOYSA-N
Kind: experiment
Isotherm type: excess
Temperature: 298 K
Tabular data in the source: 0
pressure (bar)	uptake (mmol/g)
0.000561	0
0.402968	1.16673
0.6728	1.72192
0.934225	1.9447
1.31402	2.23088
1.82924	2.40315
3.31389	2.67498
6.72149	2.96222
9.96521	3.0934
13.2345	3.17681
16.5161	3.2338
19.8621	3.28191
23.152	3.31335
26.5674	3.3385
29.9841	3.3637
33.2831	3.38206
36.2279	3.39019
40.105	3.40299
44.0003	3.40819
