Adsorption isotherm of Carbon Dioxide on Ammonium ZSM-5
DOI: 10.1007/s10450-022-00355-x
Article source: Figure 5
Adsorbate Carbon Dioxide: InChIKey CURLTUGMZLYLDI-UHFFFAOYSA-N
Kind: experiment
Isotherm type: excess
Temperature: 308 K
Tabular data in the source: 0
pressure (bar)	uptake (mmol/g)
0.000153	-0.010361
0.13801	0.593449
0.290819	0.947233
0.794752	1.5925
1.74694	2.12342
2.90794	2.42621
3.99034	2.59127
5.03611	2.70067
6.0664	2.78042
7.18757	2.84789
8.13399	2.8966
9.12235	2.93676
10.0887	2.97249
12.256	3.03518
14.3118	3.07315
16.3549	3.10743
18.3031	3.14237
20.2924	3.17524
22.302	3.18986
24.4431	3.21349
26.4757	3.22719
28.5277	3.24876
30.6194	3.26435
33.1351	3.27901
35.4507	3.28883
38.4102	3.29819
40.7427	3.29257
43.317	3.32618
45.8059	3.29068
48.9583	3.29504
50.9941	3.28546
