Adsorption isotherm of Carbon Dioxide on Ammonium ZSM-5
DOI: 10.1007/s10450-022-00355-x
Article source: Figure 4
Adsorbate Carbon Dioxide: InChIKey CURLTUGMZLYLDI-UHFFFAOYSA-N
Kind: experiment
Isotherm type: excess
Temperature: 298 K
Tabular data in the source: 0
pressure (bar)	uptake (mmol/g)
0.011555	0
0.434645	1.41615
0.633503	1.68191
0.830982	1.87225
1.42411	2.22715
2.41978	2.52473
3.41297	2.68899
4.40588	2.80096
5.40761	2.88408
6.40397	2.94904
7.40199	3.00125
8.4	3.04609
9.39939	3.08339
10.3982	3.11562
11.398	3.14438
12.3969	3.1702
13.3954	3.19266
14.395	3.21358
15.3933	3.23204
16.3947	3.2492
17.3941	3.26506
18.3939	3.27882
19.3919	3.2926
