Adsorption isotherm of Carbon Dioxide on Ammonium ZSM-5
DOI: 10.1007/s10450-022-00355-x
Article source: Figure 4
Adsorbate Carbon Dioxide: InChIKey CURLTUGMZLYLDI-UHFFFAOYSA-N
Kind: experiment
Isotherm type: excess
Temperature: 298 K
Tabular data in the source: 0
pressure (bar)	uptake (mmol/g)
0.279444	1.13245
1.46117	2.22255
2.75469	2.56176
4.01398	2.73236
5.22022	2.84084
6.37229	2.90598
7.47457	2.96454
9.96338	3.06321
12.4566	3.133
14.9651	3.19175
17.4406	3.23799
19.922	3.27653
22.3876	3.30902
24.8798	3.33632
27.3573	3.35408
29.8381	3.36027
32.3109	3.36871
34.7856	3.37861
37.2456	3.37137
39.7043	3.37548
42.1631	3.36871
43.5322	3.37576
44.2213	3.38654
