Adsorption isotherm of Carbon Dioxide on Ammonium ZSM-5
DOI: 10.1007/s10450-022-00355-x
Article source: Figure 3
Adsorbate Carbon Dioxide: InChIKey CURLTUGMZLYLDI-UHFFFAOYSA-N
Kind: experiment
Isotherm type: excess
Temperature: 288 K
Tabular data in the source: 0
pressure (bar)	uptake (mmol/g)
0.000937	0
0.401343	1.63936
0.665467	1.99073
0.939636	2.21322
1.32434	2.41595
1.8603	2.64606
3.34162	2.87563
6.62628	3.11665
9.9613	3.24799
13.2556	3.33016
16.6018	3.39035
19.9291	3.43809
23.294	3.47776
26.6744	3.50941
29.9999	3.53671
33.4524	3.56486
36.0529	3.58219
39.9499	3.61572
43.9154	3.66545
