Adsorption isotherm of Carbon Dioxide on Ammonium ZSM-5
DOI: 10.1007/s10450-022-00355-x
Article source: Figure 4
Adsorbate Carbon Dioxide: InChIKey CURLTUGMZLYLDI-UHFFFAOYSA-N
Kind: experiment
Isotherm type: excess
Temperature: 298 K
Tabular data in the source: 0
pressure (bar)	uptake (mmol/g)
2.46315	2.51855
4.99255	2.83624
7.49091	2.98986
9.9929	3.08756
12.4869	3.15752
14.9862	3.21086
17.4816	3.25281
19.9789	3.28655
22.4723	3.3148
24.9685	3.33846
27.4648	3.35798
29.9621	3.37405
32.458	3.38802
34.9548	3.40011
37.4544	3.40942
39.9518	3.41775
39.995	3.41819
40.0003	3.41751
