Adsorption isotherm of Carbon Dioxide on Ammonium ZSM-5
DOI: 10.1007/s10450-022-00355-x
Article source: Figure 4
Adsorbate Carbon Dioxide: InChIKey CURLTUGMZLYLDI-UHFFFAOYSA-N
Kind: experiment
Isotherm type: excess
Temperature: 298 K
Tabular data in the source: 0
pressure (bar)	uptake (mmol/g)
0.262909	1.0728
1.4299	2.19671
2.72032	2.55717
3.95041	2.72904
5.13053	2.8479
6.27592	2.92298
7.38244	2.98386
9.34902	3.05486
11.8495	3.12742
14.3371	3.18571
16.8433	3.22425
19.3493	3.26224
21.8224	3.28998
24.2996	3.32338
26.7743	3.34202
29.2371	3.36803
31.7171	3.38859
34.1773	3.40242
36.6497	3.41012
39.1077	3.4096
41.5689	3.42041
43.2362	3.40652
44.0638	3.40441
