Adsorption isotherm of Carbon Dioxide on Ammonium ZSM-5
DOI: 10.1007/s10450-022-00355-x
Article source: Figure 5
Adsorbate Carbon Dioxide: InChIKey CURLTUGMZLYLDI-UHFFFAOYSA-N
Kind: experiment
Isotherm type: excess
Temperature: 308 K
Tabular data in the source: 0
pressure (bar)	uptake (mmol/g)
0.000798	-0.010351
0.16035	0.650725
0.311626	0.983528
0.730945	1.53035
1.8046	2.14226
2.91264	2.42421
4.02855	2.59237
5.28723	2.71961
6.49378	2.80832
7.20089	2.84631
8.10467	2.8925
9.12686	2.9323
10.149	2.97275
12.2629	3.03248
14.2755	3.07544
16.376	3.11082
18.4281	3.15362
20.1576	3.18339
22.2985	3.19934
24.4049	3.22443
26.425	3.24246
28.5123	3.24477
30.5017	3.26202
33.2226	3.26845
35.6382	3.26826
38.2449	3.2849
40.7976	3.28379
43.4331	3.28929
45.6769	3.26698
48.2344	3.29703
50.9714	3.25566
