Adsorption isotherm of Carbon Dioxide on Ammonium ZSM-5
DOI: 10.1007/s10450-022-00355-x
Article source: Figure 4
Adsorbate Carbon Dioxide: InChIKey CURLTUGMZLYLDI-UHFFFAOYSA-N
Kind: experiment
Isotherm type: excess
Temperature: 298 K
Tabular data in the source: 0
pressure (bar)	uptake (mmol/g)
0.28184	1.13848
1.48037	2.22783
2.75635	2.5634
4.00716	2.73075
5.20746	2.84033
6.37257	2.90841
7.87291	2.98827
10.3546	3.07786
12.8747	3.15041
15.3737	3.20296
17.8551	3.2511
20.3396	3.28606
22.8078	3.32346
25.298	3.34644
27.7726	3.36245
30.2606	3.38069
32.7402	3.37253
35.2043	3.38323
37.678	3.38697
40.1406	3.37612
42.5341	3.38133
43.7122	3.39043
44.316	3.38526
