Adsorption isotherm of Carbon Dioxide on Ammonium ZSM-5
DOI: 10.1007/s10450-022-00355-x
Article source: Figure 3
Adsorbate Carbon Dioxide: InChIKey CURLTUGMZLYLDI-UHFFFAOYSA-N
Kind: experiment
Isotherm type: excess
Temperature: 288 K
Tabular data in the source: 0
pressure (bar)	uptake (mmol/g)
0.008934	0
0.451469	1.69561
0.652258	1.95931
0.848634	2.13317
1.43955	2.44847
2.42998	2.70865
3.42413	2.85415
4.41981	2.95465
5.41492	3.02911
6.4128	3.08879
7.40999	3.13755
8.40759	3.17906
9.40601	3.21445
10.4026	3.24598
11.4026	3.27373
12.4005	3.2984
13.3979	3.32073
14.3973	3.34188
15.3959	3.36044
16.3962	3.37767
17.3937	3.39284
18.3942	3.40802
19.3929	3.42198
