Adsorption isotherm of Carbon Dioxide on Ammonium ZSM-5
DOI: 10.1007/s10450-022-00355-x
Article source: Figure 3
Adsorbate Carbon Dioxide: InChIKey CURLTUGMZLYLDI-UHFFFAOYSA-N
Kind: experiment
Isotherm type: excess
Temperature: 288 K
Tabular data in the source: 0
pressure (bar)	uptake (mmol/g)
0.244491	1.24689
1.41267	2.42328
2.71983	2.75466
3.95527	2.9174
5.13954	3.02434
6.27524	3.08877
7.39182	3.148
9.87402	3.22671
12.359	3.28253
14.846	3.32765
17.3285	3.36647
19.8228	3.40136
22.2665	3.44417
24.7367	3.48213
27.1806	3.509
29.6263	3.54543
32.0741	3.57272
34.5034	3.57466
36.9403	3.59409
39.3619	3.60851
41.781	3.64529
43.301	3.68872
44.0766	3.71912
