Adsorption isotherm of Carbon Dioxide on Ammonium ZSM-5
DOI: 10.1007/s10450-022-00355-x
Article source: Figure 4
Adsorbate Carbon Dioxide: InChIKey CURLTUGMZLYLDI-UHFFFAOYSA-N
Kind: experiment
Isotherm type: excess
Temperature: 298 K
Tabular data in the source: 0
pressure (bar)	uptake (mmol/g)
0.012658	0
0.429543	1.40555
0.627573	1.67431
0.825052	1.86666
1.41901	2.22538
2.41316	2.52583
3.40966	2.69374
4.40588	2.80618
5.40417	2.88946
6.40163	2.95412
7.39937	3.00642
8.39738	3.05193
9.39788	3.08974
10.3973	3.12298
11.3968	3.15168
12.3956	3.17744
13.3952	3.20122
14.394	3.22148
15.3924	3.24076
16.3932	3.25784
17.3937	3.27407
18.392	3.28762
19.3888	3.29973
