Adsorption isotherm of Carbon Dioxide on Ammonium ZSM-5
DOI: 10.1007/s10450-022-00355-x
Article source: Figure 4
Adsorbate Carbon Dioxide: InChIKey CURLTUGMZLYLDI-UHFFFAOYSA-N
Kind: experiment
Isotherm type: excess
Temperature: 298 K
Tabular data in the source: 0
pressure (bar)	uptake (mmol/g)
0.001271	-0.000728
0.368533	1.32026
0.721759	1.7853
1.72598	2.35018
2.93545	2.63039
4.01169	2.77288
5.0596	2.86938
7.74921	3.03103
10.2241	3.12504
12.7882	3.18735
15.358	3.24551
17.8796	3.28639
20.3579	3.3326
22.8557	3.35097
25.3038	3.38684
27.841	3.40168
30.2973	3.42155
33.0885	3.42765
35.6309	3.42467
37.9135	3.43561
41.146	3.42935
43.204	3.42806
45.6476	3.40416
