Adsorption isotherm of Carbon Dioxide on Ammonium ZSM-5
DOI: 10.1007/s10450-022-00355-x
Article source: Figure 4
Adsorbate Carbon Dioxide: InChIKey CURLTUGMZLYLDI-UHFFFAOYSA-N
Kind: experiment
Isotherm type: excess
Temperature: 298 K
Tabular data in the source: 0
pressure (bar)	uptake (mmol/g)
0.000495	-0.000656
0.281146	1.14348
0.653848	1.71182
1.64579	2.31801
2.89439	2.62186
3.99588	2.77046
5.03162	2.86707
7.68548	3.03038
10.3325	3.13022
12.7361	3.19356
15.3704	3.2494
17.8624	3.29017
20.4716	3.32307
22.9327	3.34628
25.5297	3.36779
28.095	3.39203
30.6497	3.40093
33.099	3.42872
35.5908	3.43233
38.2161	3.44353
41.4751	3.45553
43.1292	3.4544
45.745	3.44452
