Adsorption isotherm of Carbon Dioxide on Ammonium ZSM-5
DOI: 10.1007/s10450-022-00355-x
Article source: Figure 5
Adsorbate Carbon Dioxide: InChIKey CURLTUGMZLYLDI-UHFFFAOYSA-N
Kind: experiment
Isotherm type: excess
Temperature: 308 K
Tabular data in the source: 0
pressure (bar)	uptake (mmol/g)
0.271004	0.905796
1.44862	1.98353
2.70512	2.35874
3.94841	2.5484
5.13112	2.67333
6.61931	2.7765
8.60419	2.88334
11.0863	2.9774
13.5677	3.04683
16.068	3.09766
18.5552	3.14708
21.0393	3.17517
23.5223	3.2241
26.0124	3.24116
28.4806	3.2549
30.9418	3.26587
33.4053	3.27946
35.8564	3.28687
38.3088	3.28825
40.7621	3.28971
42.843	3.30512
43.8868	3.30683
44.409	3.30725
