Adsorption isotherm of Carbon Dioxide on Ammonium ZSM-5
DOI: 10.1007/s10450-022-00355-x
Article source: Figure 5
Adsorbate Carbon Dioxide: InChIKey CURLTUGMZLYLDI-UHFFFAOYSA-N
Kind: experiment
Isotherm type: excess
Temperature: 308 K
Tabular data in the source: 0
pressure (bar)	uptake (mmol/g)
0.001075	0
0.400823	1.14096
0.665066	1.47069
0.926823	1.69802
1.31266	2.0278
1.93181	2.2399
3.3025	2.50603
6.64048	2.80507
9.91704	2.95091
13.2524	3.04423
16.5069	3.10718
19.8137	3.15522
23.2402	3.19296
26.6514	3.22035
29.9416	3.24089
33.4775	3.25728
36.0897	3.26619
39.9815	3.27436
43.9181	3.27804
