Adsorption isotherm of Carbon Dioxide on Ammonium ZSM-5
DOI: 10.1007/s10450-022-00355-x
Article source: Figure 3
Adsorbate Carbon Dioxide: InChIKey CURLTUGMZLYLDI-UHFFFAOYSA-N
Kind: experiment
Isotherm type: excess
Temperature: 288 K
Tabular data in the source: 0
pressure (bar)	uptake (mmol/g)
0.000967	0
0.400913	1.62869
0.668923	1.9789
0.939259	2.19569
1.31464	2.46805
1.85544	2.6225
3.33523	2.85819
6.62721	3.08883
9.91107	3.2145
13.2276	3.29665
16.64	3.35813
19.9324	3.40303
23.3928	3.44438
26.6112	3.47482
29.8496	3.50344
33.4659	3.52831
36.049	3.54468
39.9645	3.57966
43.9134	3.62833
