Adsorption isotherm of Carbon Dioxide on Ammonium ZSM-5
DOI: 10.1007/s10450-022-00355-x
Article source: Figure 3
Adsorbate Carbon Dioxide: InChIKey CURLTUGMZLYLDI-UHFFFAOYSA-N
Kind: experiment
Isotherm type: excess
Temperature: 288 K
Tabular data in the source: 0
pressure (bar)	uptake (mmol/g)
2.46773	2.72233
4.99326	3.00339
7.48964	3.14309
9.98548	3.23362
12.4858	3.30014
14.9838	3.35143
17.4801	3.39267
19.9726	3.4265
22.4676	3.45583
24.9641	3.48058
27.4601	3.50297
29.955	3.52451
32.4538	3.54309
34.948	3.56229
37.4407	3.58069
39.9373	3.60366
39.99	3.60494
39.9976	3.60288
