Adsorption isotherm of Carbon Dioxide on Ammonium ZSM-5
DOI: 10.1007/s10450-022-00355-x
Article source: Figure 5
Adsorbate Carbon Dioxide: InChIKey CURLTUGMZLYLDI-UHFFFAOYSA-N
Kind: experiment
Isotherm type: excess
Temperature: 308 K
Tabular data in the source: 0
pressure (bar)	uptake (mmol/g)
2.46884	2.31258
4.9933	2.66603
7.49447	2.83449
9.99329	2.9409
12.49	3.01593
14.9838	3.07231
17.4834	3.11642
19.9806	3.15189
22.4748	3.18078
24.9744	3.20445
27.4731	3.22428
29.9648	3.23981
32.4626	3.2531
34.9637	3.26347
37.4556	3.27207
39.9576	3.27753
40.0003	3.27776
39.5384	3.27703
