Adsorption isotherm of Carbon Dioxide on Ammonium ZSM-5
DOI: 10.1007/s10450-022-00355-x
Article source: Figure 4
Adsorbate Carbon Dioxide: InChIKey CURLTUGMZLYLDI-UHFFFAOYSA-N
Kind: experiment
Isotherm type: excess
Temperature: 298 K
Tabular data in the source: 0
pressure (bar)	uptake (mmol/g)
0.000565	0
0.402299	1.15731
0.668911	1.70126
0.937918	1.92793
1.31583	2.2059
1.84955	2.39568
3.33851	2.65268
6.65383	2.92428
9.946	3.05672
13.2553	3.1448
16.5054	3.20604
19.8859	3.25206
23.138	3.28488
26.5601	3.31094
29.9299	3.33558
33.1347	3.35223
35.9061	3.36436
40.1119	3.37652
44.0008	3.38424
