Adsorption isotherm of Carbon Dioxide on Ammonium ZSM-5
DOI: 10.1007/s10450-022-00355-x
Article source: Figure 5
Adsorbate Carbon Dioxide: InChIKey CURLTUGMZLYLDI-UHFFFAOYSA-N
Kind: experiment
Isotherm type: excess
Temperature: 308 K
Tabular data in the source: 0
pressure (bar)	uptake (mmol/g)
0.291992	0.94013
1.47199	1.99088
2.73236	2.36101
3.97923	2.54936
5.17697	2.67784
6.32402	2.74736
7.4309	2.82339
9.92027	2.92603
12.418	2.99821
14.8916	3.05558
17.3892	3.10584
19.8983	3.1385
22.4085	3.16979
24.8905	3.18698
27.3718	3.20425
29.8547	3.20908
32.3177	3.2175
34.7742	3.21375
37.255	3.20742
39.7106	3.20213
42.1721	3.19565
43.5507	3.18876
44.2422	3.19606
