Adsorption isotherm of Carbon Dioxide on Ammonium ZSM-5
DOI: 10.1007/s10450-022-00355-x
Article source: Figure 5
Adsorbate Carbon Dioxide: InChIKey CURLTUGMZLYLDI-UHFFFAOYSA-N
Kind: experiment
Isotherm type: excess
Temperature: 308 K
Tabular data in the source: 0
pressure (bar)	uptake (mmol/g)
2.46565	2.31326
4.98906	2.66717
7.49203	2.83517
9.98864	2.94135
12.4856	3.01683
14.9874	3.07345
17.4822	3.11733
19.9787	3.15303
22.4742	3.18192
24.9734	3.20559
27.4709	3.22496
29.9663	3.24095
32.4631	3.25424
34.9605	3.26484
37.4634	3.27298
39.9579	3.27844
39.9985	3.2789
39.9987	3.27958
