Adsorption isotherm of Carbon Dioxide on Ammonium ZSM-5
DOI: 10.1007/s10450-022-00355-x
Article source: Figure 4
Adsorbate Carbon Dioxide: InChIKey CURLTUGMZLYLDI-UHFFFAOYSA-N
Kind: experiment
Isotherm type: excess
Temperature: 298 K
Tabular data in the source: 0
pressure (bar)	uptake (mmol/g)
2.46617	2.51969
4.99229	2.83624
7.492	2.9894
9.99011	3.08642
12.4861	3.1557
14.9855	3.20904
17.4816	3.25077
19.9767	3.28473
22.4723	3.31253
24.9699	3.33551
27.4684	3.35504
29.9612	3.37111
32.4574	3.38462
34.9538	3.39581
37.4481	3.40558
39.9531	3.41368
39.9953	3.41435
40.0008	3.41322
