Adsorption isotherm of Carbon Dioxide on Ammonium ZSM-5
DOI: 10.1007/s10450-022-00355-x
Article source: Figure 5
Adsorbate Carbon Dioxide: InChIKey CURLTUGMZLYLDI-UHFFFAOYSA-N
Kind: experiment
Isotherm type: excess
Temperature: 308 K
Tabular data in the source: 0
pressure (bar)	uptake (mmol/g)
0.000977	0
0.401155	1.13706
0.666719	1.46602
0.92921	1.69179
1.32722	1.9338
1.8285	2.21075
3.30767	2.50339
6.63968	2.80194
9.96252	2.95035
13.2022	3.04115
16.4912	3.10733
19.9103	3.155
23.3154	3.19548
26.5724	3.2191
29.9551	3.23964
33.4762	3.25879
36.0842	3.26928
39.9808	3.27551
43.9228	3.28481
