Adsorption isotherm of Carbon Dioxide on Ammonium ZSM-5
DOI: 10.1007/s10450-022-00355-x
Article source: Figure 3
Adsorbate Carbon Dioxide: InChIKey CURLTUGMZLYLDI-UHFFFAOYSA-N
Kind: experiment
Isotherm type: excess
Temperature: 288 K
Tabular data in the source: 0
pressure (bar)	uptake (mmol/g)
0.000949	0
0.404279	1.64555
0.665455	1.98847
0.939589	2.21004
1.32271	2.41086
1.83297	2.64412
3.29624	2.86408
6.62163	3.11121
9.94704	3.23801
13.2404	3.32016
16.528	3.3784
19.9679	3.43073
23.3504	3.46778
26.608	3.49504
30.2066	3.52957
33.4548	3.55462
36.0575	3.57258
39.953	3.60807
43.911	3.65225
