Adsorption isotherm of Carbon Dioxide on ZIF-78
DOI: 10.1016/j.micromeso.2013.01.031
Adsorbate Carbon Dioxide: InChIKey CURLTUGMZLYLDI-UHFFFAOYSA-N
Temperature: 273 K
Tabular data in the source: 0
pressure (bar)	uptake (cm3(STP)/g)
0.0115958	2.05839
0.0325713	4.89484
0.0621276	8.09836
0.0783359	9.36642
0.0945441	10.4009
0.130774	12.6033
0.188934	15.3063
0.267115	17.9759
0.347203	20.245
0.49117	23.7155
0.631324	26.0848
0.704738	26.9858
0.831545	28.9212
0.907819	29.889
0.968838	30.3895
0.998395	30.7566
