Adsorption isotherm of Carbon Dioxide on ZIF-78
DOI: 10.1016/j.micromeso.2013.01.031
Adsorbate Carbon Dioxide: InChIKey CURLTUGMZLYLDI-UHFFFAOYSA-N
Temperature: 273 K
Tabular data in the source: 0
pressure (bar)	uptake (cm3(STP)/g)
0.00229475	0.18151
0.0180263	2.58415
0.0466292	6.33828
0.0909636	9.94224
0.129577	12.3449
0.191074	15.0478
0.265441	17.8009
0.344099	20.3537
0.491404	23.6573
0.632988	26.2101
0.763131	28.5126
0.874682	29.5638
0.910436	30.0643
0.940469	30.665
0.970502	31.4158
0.996244	31.7162
