Adsorption isotherm of Carbon Dioxide on ZIF-78
DOI: 10.1016/j.micromeso.2013.01.031
Adsorbate Carbon Dioxide: InChIKey CURLTUGMZLYLDI-UHFFFAOYSA-N
Temperature: 273 K
Tabular data in the source: 0
pressure (bar)	uptake (cm3(STP)/g)
0.00206155	0.0895618
0.0201767	2.65905
0.0487796	5.89594
0.0773824	8.63228
0.135542	11.8358
0.19084	14.6389
0.270928	17.0749
0.353877	19.4108
0.420617	21.146
0.492124	22.9814
0.559817	24.2161
0.632278	25.4508
0.762898	27.5197
0.873495	29.0214
0.938329	30.1226
0.969792	30.523
0.994581	30.523
