Adsorption isotherm of Methane on MOF-1
DOI: 10.5012/bkcs.2011.32.8.2705
Adsorbate Methane: InChIKey VNWKTOKETHGBQD-UHFFFAOYSA-N
Temperature: 253 K
Tabular data in the source: 0
pressure (bar)	uptake (cm3(STP)/g)
0.0519905	0.761942
0.21717	2.96854
0.336458	4.6132
0.449634	6.1377
0.55055	7.66138
0.674442	9.26643
0.778441	10.6706
0.897754	12.1555
1.01245	13.76
1.12257	15.2044
