Adsorption isotherm of Carbon Dioxide on MOF-1
DOI: 10.5012/bkcs.2011.32.8.2705
Adsorbate Carbon Dioxide: InChIKey CURLTUGMZLYLDI-UHFFFAOYSA-N
Temperature: 298 K
Tabular data in the source: 0
pressure (bar)	uptake (cm3(STP)/g)
-0.0041278	0.134892
0.0814355	1.97842
0.201514	4.81115
0.329857	7.55396
0.436124	9.89209
0.535486	12.0054
0.687288	15.1978
0.79079	17.4011
0.888774	19.5144
0.993653	21.6727
