Adsorption isotherm of Methane on MOF-1
DOI: 10.5012/bkcs.2011.32.8.2705
Adsorbate Methane: InChIKey VNWKTOKETHGBQD-UHFFFAOYSA-N
Temperature: 273 K
Tabular data in the source: 0
pressure (bar)	uptake (cm3(STP)/g)
0.0257542	0.343415
0.127455	1.29213
0.237283	2.39962
0.32272	3.11046
0.424413	4.13887
0.512552	4.98234
0.630531	6.00952
0.717313	6.85309
0.827159	7.77462
0.924793	8.67051
1.0143	9.38104
