Adsorption isotherm of Methane on MOF-1
DOI: 10.5012/bkcs.2011.32.8.2705
Adsorbate Methane: InChIKey VNWKTOKETHGBQD-UHFFFAOYSA-N
Temperature: 273 K
Tabular data in the source: 0
pressure (bar)	uptake (cm3(STP)/g)
0.132809	2.06212
0.177539	2.66976
0.22905	3.33003
0.288691	4.12251
0.386281	5.47001
0.486589	6.79074
0.588248	8.1645
0.688553	9.5118
0.790215	10.859
0.88781	12.1534
0.992182	13.5535
