Adsorption isotherm of Nitrogen on MOF-1
DOI: 10.5012/bkcs.2011.32.8.2705
Adsorbate Nitrogen: InChIKey IJGRMHOSHXDMSA-UHFFFAOYSA-N
Temperature: 77 K
Tabular data in the source: 0
pressure (bar)	uptake (cm3(STP)/g)
0.0331278	677.633
0.0463626	789.481
0.0876959	852.324
0.194334	978.944
0.223857	1163.79
0.273547	1176.86
0.35567	1191.2
0.398394	1206.78
0.450652	1211.6
0.572173	1224.68
0.672375	1231.37
0.779544	1235.54
0.874189	1244.8
0.949177	1256.07
1.01122	1258.49
1.05212	1260.08
