Adsorption isotherm of Methane on MOF-1
DOI: 10.5012/bkcs.2011.32.8.2705
Adsorbate Methane: InChIKey VNWKTOKETHGBQD-UHFFFAOYSA-N
Temperature: 253 K
Tabular data in the source: 0
pressure (bar)	uptake (cm3(STP)/g)
0.0611063	1.28151
0.162034	2.72535
0.258353	4.24873
0.379118	6.25277
0.49227	7.93694
0.66198	10.583
0.776646	12.387
0.88824	14.2308
1.00448	15.7555
1.12067	17.6394
