Adsorption isotherm of Carbon Dioxide on MOF-1
DOI: 10.5012/bkcs.2011.32.8.2705
Adsorbate Carbon Dioxide: InChIKey CURLTUGMZLYLDI-UHFFFAOYSA-N
Temperature: 253 K
Tabular data in the source: 0
pressure (bar)	uptake (cm3(STP)/g)
0.0977403	6.31364
0.187221	10.6813
0.378571	20.3883
0.536883	28.4776
0.64013	33.4923
0.736494	39.3193
0.83974	44.8207
0.940234	50.8094
0.988416	54.0475
