Adsorption isotherm of Methane on MOF-1
DOI: 10.5012/bkcs.2011.32.8.2705
Adsorbate Methane: InChIKey VNWKTOKETHGBQD-UHFFFAOYSA-N
Temperature: 298 K
Tabular data in the source: 0
pressure (bar)	uptake (cm3(STP)/g)
0.0243639	0.206851
0.181432	1.20811
0.320911	2.01828
0.326317	2.11392
0.469849	3.00381
0.621501	3.97329
0.824599	5.30849
0.930204	6.03984
1.00736	6.66027
