Adsorption isotherm of Carbon Dioxide on MOF-1
DOI: 10.5012/bkcs.2011.32.8.2705
Adsorbate Carbon Dioxide: InChIKey CURLTUGMZLYLDI-UHFFFAOYSA-N
Temperature: 298 K
Tabular data in the source: 0
pressure (bar)	uptake (cm3(STP)/g)
0.0717519	1.34892
0.12971	2.51799
0.253888	4.72122
0.402901	7.32914
0.556061	10.1619
0.706449	12.7248
0.803035	14.4784
0.856853	15.5576
0.953436	17.2662
1.00863	18.3004
