Adsorption isotherm of Carbon Dioxide on MOF-1
DOI: 10.5012/bkcs.2011.32.8.2705
Adsorbate Carbon Dioxide: InChIKey CURLTUGMZLYLDI-UHFFFAOYSA-N
Temperature: 273 K
Tabular data in the source: 0
pressure (bar)	uptake (cm3(STP)/g)
0.051273	2.50961
0.0831484	4.12331
0.220239	9.04052
0.329635	12.9744
0.430749	17.0916
0.487505	18.787
0.534582	20.3956
0.632908	24.0624
0.736761	27.7274
0.83783	31.0323
0.940316	34.9686
0.994318	36.8455
