Adsorption isotherm of Carbon Dioxide on MOF-1
DOI: 10.5012/bkcs.2011.32.8.2705
Adsorbate Carbon Dioxide: InChIKey CURLTUGMZLYLDI-UHFFFAOYSA-N
Temperature: 273 K
Tabular data in the source: 0
pressure (bar)	uptake (cm3(STP)/g)
0.0664599	2.23368
0.123226	4.10966
0.227069	7.59415
0.293519	9.64733
0.350295	11.7038
0.44858	14.6487
0.545484	17.594
0.652086	20.9873
0.754527	24.1113
0.854224	27.5972
0.952515	30.6323
1.00789	32.3282
