Adsorption isotherm of Methane on MOF-1
DOI: 10.5012/bkcs.2011.32.8.2705
Adsorbate Methane: InChIKey VNWKTOKETHGBQD-UHFFFAOYSA-N
Temperature: 273 K
Tabular data in the source: 0
pressure (bar)	uptake (cm3(STP)/g)
0.0637003	0.925002
0.197923	2.40258
0.252151	3.03607
0.351122	4.14438
0.45145	5.25259
0.55313	6.41382
0.650743	7.52223
0.753788	8.60367
0.854114	9.73844
0.955804	10.7934
1.03172	11.6909
