Adsorption isotherm of Carbon Dioxide on MOF-1
DOI: 10.5012/bkcs.2011.32.8.2705
Adsorbate Carbon Dioxide: InChIKey CURLTUGMZLYLDI-UHFFFAOYSA-N
Temperature: 253 K
Tabular data in the source: 0
pressure (bar)	uptake (cm3(STP)/g)
0.0261558	2.75462
0.20374	14.7355
0.373065	24.4459
0.523117	33.5102
0.619481	39.3372
0.715844	45.002
0.820468	50.99
0.925091	57.1403
1.01044	62.32
