Adsorption isotherm of Carbon Dioxide on MOF-1
DOI: 10.5012/bkcs.2011.32.8.2705
Adsorbate Carbon Dioxide: InChIKey CURLTUGMZLYLDI-UHFFFAOYSA-N
Temperature: 253 K
Tabular data in the source: 0
pressure (bar)	uptake (cm3(STP)/g)
0.072961	6.4797
0.202364	14.5735
0.355169	24.1241
0.53	34.4828
0.622234	40.635
0.724104	47.4348
0.824597	54.0725
0.923714	60.7105
1.00494	67.5135
