Adsorption isotherm of Methane on MOF-1
DOI: 10.5012/bkcs.2011.32.8.2705
Adsorbate Methane: InChIKey VNWKTOKETHGBQD-UHFFFAOYSA-N
Temperature: 253 K
Tabular data in the source: 0
pressure (bar)	uptake (cm3(STP)/g)
-1.84e-05	0.119759
0.140585	2.684
0.256734	4.8075
0.434027	7.97299
0.547124	10.0164
0.661772	11.9402
0.774875	13.9438
0.891036	15.9874
1.00416	17.8313
1.12033	19.8749
