Adsorption isotherm of Nitrogen on MOF-1
DOI: 10.5012/bkcs.2011.32.8.2705
Adsorbate Nitrogen: InChIKey IJGRMHOSHXDMSA-UHFFFAOYSA-N
Temperature: 77 K
Tabular data in the source: 0
pressure (bar)	uptake (cm3(STP)/g)
-0.00166241	-8.41468
0.0475008	733.859
0.110743	822.605
0.201702	943.048
0.214704	1093.85
0.277337	1115.78
0.342455	1126.66
0.409066	1140.39
0.457178	1147.83
0.552981	1148.78
0.694329	1165.43
0.790468	1177.52
0.89067	1184.21
0.930237	1188.53
1.00224	1194.12
1.04454	1195.77
