Adsorption isotherm of Methane on MOF-1
DOI: 10.5012/bkcs.2011.32.8.2705
Adsorbate Methane: InChIKey VNWKTOKETHGBQD-UHFFFAOYSA-N
Temperature: 298 K
Tabular data in the source: 0
pressure (bar)	uptake (cm3(STP)/g)
0.0933703	0.939303
0.18947	1.76675
0.286932	2.56221
0.393868	3.43724
0.494026	4.31246
0.595546	5.15571
0.699771	6.03081
0.851371	7.30369
1.00163	8.46483
