Adsorption isotherm of Methane on MOF-1
DOI: 10.5012/bkcs.2011.32.8.2705
Adsorbate Methane: InChIKey VNWKTOKETHGBQD-UHFFFAOYSA-N
Temperature: 253 K
Tabular data in the source: 0
pressure (bar)	uptake (cm3(STP)/g)
0.0962632	1.88265
0.186408	3.68506
0.287275	5.5281
0.432458	8.21241
0.547081	10.2959
0.660184	12.2994
0.776346	14.3431
0.889449	16.3466
1.00256	18.3102
1.11413	20.2737
