Adsorption isotherm of Methane on MOF-1
DOI: 10.5012/bkcs.2011.32.8.2705
Adsorbate Methane: InChIKey VNWKTOKETHGBQD-UHFFFAOYSA-N
Temperature: 298 K
Tabular data in the source: 0
pressure (bar)	uptake (cm3(STP)/g)
0.134006	1.11373
0.268041	2.0518
0.415591	3.229
0.569935	4.31017
0.722912	5.45527
0.870489	6.47278
1.02349	7.50609
