Adsorption isotherm of Nitrogen on MOF-1
DOI: 10.5012/bkcs.2011.32.8.2705
Adsorbate Nitrogen: InChIKey IJGRMHOSHXDMSA-UHFFFAOYSA-N
Temperature: 77 K
Tabular data in the source: 0
pressure (bar)	uptake (cm3(STP)/g)
0.00420844	49.8204
0.0296504	605.552
0.206419	748.501
0.214982	903.372
0.267377	918.626
0.363035	924.029
0.413636	925.426
0.468764	937.993
0.525065	942.309
0.581444	949.389
0.666011	960.008
0.817815	964.2
0.967039	976.605
1.0306	989.405
