Adsorption isotherm of Carbon Dioxide on MOF-1
DOI: 10.5012/bkcs.2011.32.8.2705
Adsorbate Carbon Dioxide: InChIKey CURLTUGMZLYLDI-UHFFFAOYSA-N
Temperature: 253 K
Tabular data in the source: 0
pressure (bar)	uptake (cm3(STP)/g)
0.0468052	5.18553
0.192727	17.6581
0.342779	30.2924
0.494208	41.4659
0.593325	49.5643
0.693818	57.1757
0.794312	64.7871
0.894805	72.7231
0.996675	80.6588
