Adsorption isotherm of Carbon Dioxide on MOF-1
DOI: 10.5012/bkcs.2011.32.8.2705
Adsorbate Carbon Dioxide: InChIKey CURLTUGMZLYLDI-UHFFFAOYSA-N
Temperature: 298 K
Tabular data in the source: 0
pressure (bar)	uptake (cm3(STP)/g)
0.0759293	2.11331
0.1615	4.09173
0.255336	5.98022
0.37956	8.99281
0.481686	11.241
0.585201	13.6691
0.684566	15.8273
0.789454	18.1655
0.888819	20.3237
0.990943	22.527
