Adsorption isotherm of Carbon Dioxide on MOF-1
DOI: 10.5012/bkcs.2011.32.8.2705
Adsorbate Carbon Dioxide: InChIKey CURLTUGMZLYLDI-UHFFFAOYSA-N
Temperature: 273 K
Tabular data in the source: 0
pressure (bar)	uptake (cm3(STP)/g)
0.0166686	1.52862
0.0969932	4.56985
0.232687	9.21678
0.313021	12.4385
0.419609	15.5611
0.470837	17.2584
0.570514	20.3833
0.667442	23.7799
0.774045	27.1732
0.877888	30.6577
0.942936	32.3503
0.995586	34.7692
