Adsorption isotherm of Carbon Dioxide on MOF-1
DOI: 10.5012/bkcs.2011.32.8.2705
Adsorbate Carbon Dioxide: InChIKey CURLTUGMZLYLDI-UHFFFAOYSA-N
Temperature: 298 K
Tabular data in the source: 0
pressure (bar)	uptake (cm3(STP)/g)
0.0552159	1.43885
0.183565	4.27158
0.287062	6.38489
0.440237	9.48741
0.538206	11.3309
0.643089	13.5791
0.742447	15.6025
0.84319	17.7608
0.937029	19.6942
0.996367	20.9083
