Adsorption isotherm of Methane on MOF-1
DOI: 10.5012/bkcs.2011.32.8.2705
Adsorbate Methane: InChIKey VNWKTOKETHGBQD-UHFFFAOYSA-N
Temperature: 273 K
Tabular data in the source: 0
pressure (bar)	uptake (cm3(STP)/g)
0.0582868	0.766016
0.1803	2.19138
0.225037	2.71932
0.336213	3.93298
0.435186	5.01472
0.535514	6.12293
0.646687	7.36314
0.737522	8.39237
0.840567	9.4738
0.942252	10.5819
0.996488	11.1357
