Adsorption isotherm of Carbon Dioxide on MOF-1
DOI: 10.5012/bkcs.2011.32.8.2705
Adsorbate Carbon Dioxide: InChIKey CURLTUGMZLYLDI-UHFFFAOYSA-N
Temperature: 253 K
Tabular data in the source: 0
pressure (bar)	uptake (cm3(STP)/g)
0	0.486815
0.202364	17.1698
0.340026	27.8587
0.496961	39.356
0.600208	46.4801
0.693818	53.4435
0.794312	60.7303
0.896182	68.017
0.998052	75.7904
