Adsorption isotherm of Carbon Dioxide on MOF-1
DOI: 10.5012/bkcs.2011.32.8.2705
Adsorbate Carbon Dioxide: InChIKey CURLTUGMZLYLDI-UHFFFAOYSA-N
Temperature: 298 K
Tabular data in the source: 0
pressure (bar)	uptake (cm3(STP)/g)
0.0207159	0.719424
0.158708	3.46223
0.274622	5.7554
0.419509	8.54317
0.52023	10.2968
0.626467	12.0953
0.720295	13.8489
0.822382	15.3777
0.928627	17.3112
1.00451	18.5252
