Adsorption isotherm of Carbon Dioxide on MOF-1
DOI: 10.5012/bkcs.2011.32.8.2705
Adsorbate Carbon Dioxide: InChIKey CURLTUGMZLYLDI-UHFFFAOYSA-N
Temperature: 273 K
Tabular data in the source: 0
pressure (bar)	uptake (cm3(STP)/g)
1.5e-05	0.270753
0.145482	6.71941
0.228576	9.84995
0.321408	14.1505
0.376822	16.5684
0.425286	18.2667
0.52642	22.7449
0.626148	26.7723
0.72587	30.7095
0.835281	34.9141
0.929465	38.6726
1.01949	42.2521
