Adsorption isotherm of Methane on MOF-1
DOI: 10.5012/bkcs.2011.32.8.2705
Adsorbate Methane: InChIKey VNWKTOKETHGBQD-UHFFFAOYSA-N
Temperature: 298 K
Tabular data in the source: 0
pressure (bar)	uptake (cm3(STP)/g)
-0.00543284	0.0640359
0.098795	0.923171
0.20302	1.79827
0.343779	3.05551
0.441243	3.83501
0.545465	4.72608
0.646996	5.50546
0.744454	6.31689
0.847334	7.12816
1.00031	8.30519
