Adsorption isotherm of Nitrogen on MOF-1
DOI: 10.5012/bkcs.2011.32.8.2705
Adsorbate Nitrogen: InChIKey IJGRMHOSHXDMSA-UHFFFAOYSA-N
Temperature: 77 K
Tabular data in the source: 0
pressure (bar)	uptake (cm3(STP)/g)
0.00987513	251.555
0.0219155	630.191
0.0960677	820.01
0.202643	914.077
0.214871	1099.42
0.299439	1110.04
0.364329	1120.12
0.436247	1130.39
0.530732	1144.04
0.636228	1149.72
0.740552	1163.64
0.843159	1166.48
0.945922	1174.84
1.02635	1188.1
