Adsorption isotherm of Methane on MOF-1
DOI: 10.5012/bkcs.2011.32.8.2705
Adsorbate Methane: InChIKey VNWKTOKETHGBQD-UHFFFAOYSA-N
Temperature: 253 K
Tabular data in the source: 0
pressure (bar)	uptake (cm3(STP)/g)
0.0764257	1.32245
0.221657	3.6874
0.281268	4.72929
0.400531	6.53363
0.454042	7.37552
0.631402	10.1019
0.738442	11.6659
0.798046	12.7477
0.970833	15.3141
1.14055	17.9202
