Adsorption isotherm of Carbon Dioxide on MOF-1
DOI: 10.5012/bkcs.2011.32.8.2705
Adsorbate Carbon Dioxide: InChIKey CURLTUGMZLYLDI-UHFFFAOYSA-N
Temperature: 273 K
Tabular data in the source: 0
pressure (bar)	uptake (cm3(STP)/g)
0.0984201	5.38164
0.167684	8.33639
0.246646	11.7391
0.320046	14.5119
0.369917	16.661
0.425316	18.8082
0.529209	23.1952
0.63169	27.0412
0.729991	30.2568
0.832477	34.193
0.92942	37.8604
1.01804	40.989
