Adsorption isotherm of Nitrogen on MOF-1
DOI: 10.5012/bkcs.2011.32.8.2705
Adsorbate Nitrogen: InChIKey IJGRMHOSHXDMSA-UHFFFAOYSA-N
Temperature: 77 K
Tabular data in the source: 0
pressure (bar)	uptake (cm3(STP)/g)
0.0238065	602.12
0.0380505	747.407
0.0664798	896.03
0.189134	1039.97
0.234549	1144.73
0.241218	1225.7
0.278658	1299.53
0.325612	1315.27
0.383847	1331.46
0.528014	1348.21
0.602834	1353.91
0.703288	1368.96
0.800586	1372.75
0.903776	1385.12
0.999664	1388.85
1.06918	1405.48
