Adsorption isotherm of Methane on MOF-1
DOI: 10.5012/bkcs.2011.32.8.2705
Adsorbate Methane: InChIKey VNWKTOKETHGBQD-UHFFFAOYSA-N
Temperature: 273 K
Tabular data in the source: 0
pressure (bar)	uptake (cm3(STP)/g)
-0.00407946	0.0800031
0.0894416	1.40124
0.18433	2.61612
0.288704	3.98968
0.387654	5.31051
0.487956	6.68438
0.592341	7.95167
0.69265	9.24584
0.794315	10.5665
0.890563	11.7547
0.99494	13.1017
