Adsorption isotherm of Methane on CAU-1
DOI: 10.1016/j.ijhydene.2013.02.074
Adsorbate Methane: InChIKey VNWKTOKETHGBQD-UHFFFAOYSA-N
Temperature: 273 K
Tabular data in the source: 0
pressure (bar)	uptake (cm3(STP)/g)
0.00420256	-0.0652235
0.0396576	1.00144
0.0936842	2.33478
0.162906	4.06811
0.235504	5.66811
0.326674	7.40144
0.417844	9.26811
0.480313	10.2014
0.556288	11.6681
0.633951	13.1348
0.711614	14.4681
0.784213	15.5348
0.863564	16.8681
0.932786	17.9348
0.961488	18.7348
