Adsorption isotherm of Hydrogen on CAU-1
DOI: 10.1016/j.ijhydene.2013.02.074
Adsorbate Hydrogen: InChIKey UFHFLCQGNIYNRP-UHFFFAOYSA-N
Temperature: 273 K
Tabular data in the source: 0
pressure (bar)	uptake (cm3(STP)/g)
0.00420256	-0.0652235
0.0464109	-0.0652235
0.119009	-0.0652235
0.203426	0.0681099
0.306414	0.0681099
0.368883	0.46811
0.451611	0.734777
0.507326	0.734777
0.573171	0.86811
0.657588	1.00144
0.752134	1.13478
0.831486	1.26811
0.899019	1.40144
0.959799	1.40144
1.01045	1.66811
