Adsorption isotherm of Carbon Dioxide on CAU-1
DOI: 10.1016/j.ijhydene.2013.02.074
Adsorbate Carbon Dioxide: InChIKey CURLTUGMZLYLDI-UHFFFAOYSA-N
Temperature: 273 K
Tabular data in the source: 0
pressure (bar)	uptake (cm3(STP)/g)
0.00420256	0.601443
0.00926756	2.60144
0.0210859	5.26811
0.0514759	9.40144
0.0987492	13.6681
0.151088	19.0014
0.193296	22.6014
0.243946	26.6014
0.296284	30.7348
0.346934	34.7348
0.404338	38.7348
0.451611	42.0681
0.509014	45.9348
0.557976	48.8681
0.605249	51.9348
0.669406	55.9348
0.753823	61.2681
0.828109	65.6681
0.904084	70.0681
0.963176	72.8681
0.998631	74.6014
