Adsorption isotherm of Carbon Dioxide on CAU-1
DOI: 10.1016/j.ijhydene.2013.02.074
Adsorbate Carbon Dioxide: InChIKey CURLTUGMZLYLDI-UHFFFAOYSA-N
Temperature: 298 K
Tabular data in the source: 0
pressure (bar)	uptake (cm3(STP)/g)
0.00589089	-0.0326117
0.0329042	1.56739
0.0616059	3.03405
0.102126	5.03405
0.149399	7.43405
0.203426	9.83405
0.255764	11.8341
0.304726	13.9007
0.351999	15.7674
0.407714	17.9007
0.453299	19.7007
0.502261	21.3007
0.554599	23.2341
0.605249	24.9007
0.657588	26.6341
0.706549	28.1007
0.760576	29.9007
0.812914	31.5007
0.863564	33.1007
0.910838	34.4341
0.966553	35.9674
1.01045	37.3674
