Adsorption isotherm of Methane on CAU-1
DOI: 10.1016/j.ijhydene.2013.02.074
Adsorbate Methane: InChIKey VNWKTOKETHGBQD-UHFFFAOYSA-N
Temperature: 298 K
Tabular data in the source: 0
pressure (bar)	uptake (cm3(STP)/g)
0.00251422	0.0340549
0.0447226	0.500722
0.110568	1.43405
0.193296	2.50072
0.281089	3.76739
0.365506	4.90072
0.448234	6.03405
0.490443	6.56739
0.539404	7.16739
0.598496	7.83405
0.650834	8.50072
0.706549	9.16739
0.762264	9.90072
0.828109	10.7674
0.888889	11.5674
0.937851	12.1007
0.968241	12.5674
