Adsorption isotherm of Hydrogen on CAU-1
DOI: 10.1016/j.ijhydene.2013.02.074
Adsorbate Hydrogen: InChIKey UFHFLCQGNIYNRP-UHFFFAOYSA-N
Temperature: 298 K
Tabular data in the source: 0
pressure (bar)	uptake (cm3(STP)/g)
0.00757923	-0.699278
0.0582292	-0.499278
0.100438	-0.432612
0.161218	-0.432612
0.218621	-0.432612
0.284466	-0.365945
0.355376	-0.232612
0.402649	-0.0326117
0.461741	0.0340549
0.509014	0.100722
0.561353	0.234055
0.628886	0.300722
0.693043	0.300722
0.745381	0.367388
0.802784	0.434055
0.856811	0.434055
0.917591	0.500722
0.963176	0.434055
1.00538	0.434055
