Adsorption isotherm of Nitrogen on CAU-1
DOI: 10.1016/j.ijhydene.2013.02.074
Adsorbate Nitrogen: InChIKey IJGRMHOSHXDMSA-UHFFFAOYSA-N
Temperature: 273 K
Tabular data in the source: 0
pressure (bar)	uptake (cm3(STP)/g)
0.00420256	-0.0652235
0.0565409	0.0681099
0.0852426	0.201443
0.147711	0.46811
0.227063	0.86811
0.296284	1.26811
0.362129	1.80144
0.451611	2.33478
0.505638	2.46811
0.556288	2.46811
0.610314	3.00144
0.657588	3.00144
0.711614	3.40144
0.760576	3.40144
0.812914	3.66811
0.858499	3.80144
0.909149	4.20144
0.963176	4.46811
