Adsorption isotherm of Nitrogen on CAU-1
DOI: 10.1016/j.ijhydene.2013.02.074
Adsorbate Nitrogen: InChIKey IJGRMHOSHXDMSA-UHFFFAOYSA-N
Temperature: 298 K
Tabular data in the source: 0
pressure (bar)	uptake (cm3(STP)/g)
0.00251422	0.0340549
0.0548526	0.167388
0.127451	0.300722
0.176413	0.367388
0.235504	0.634055
0.297973	0.767388
0.367194	0.967388
0.460053	1.16739
0.510703	1.23405
0.559664	1.43405
0.612003	1.56739
0.666029	1.76739
0.711614	1.96739
0.763953	2.10072
0.824733	2.23406
0.863564	2.43405
0.915903	2.50072
0.968241	2.70072
