Adsorption isotherm of Hydrogen on IRMOF-1
DOI: 10.3390/Polym3042133
Adsorbate Hydrogen: InChIKey UFHFLCQGNIYNRP-UHFFFAOYSA-N
Temperature: 293 K
Tabular data in the source: 0
pressure (bar)	uptake (g/l)
1.93041	0.193514
4.98923	0.193514
8.04806	0.477547
11.3254	0.717884
17.006	1.00192
27.0565	1.46074
39.7287	1.96326
52.401	2.35654
65.5102	2.94646
76.8716	3.36158
85.3926	3.71116
