Adsorption isotherm of Hydrogen on IRMOF-1
DOI: 10.3390/Polym3042133
Adsorbate Hydrogen: InChIKey UFHFLCQGNIYNRP-UHFFFAOYSA-N
Temperature: 293 K
Tabular data in the source: 0
pressure (bar)	uptake (wt%)
4.98923	0.0272482
9.57747	0.101971
15.4766	0.147198
19.8464	0.184559
27.0565	0.235685
34.2665	0.280912
41.4766	0.324173
50.8716	0.379231
61.1405	0.442156
70.5355	0.50508
78.1825	0.556206
84.3002	0.599467
