Adsorption isotherm of Hydrogen on Cu2(PDC)2
DOI: 10.3390/Polym3042133
Adsorbate Hydrogen: InChIKey UFHFLCQGNIYNRP-UHFFFAOYSA-N
Temperature: 293 K
Tabular data in the source: 0
pressure (bar)	uptake (g/l)
1.27495	0.324606
10.0144	1.19856
15.0397	1.76662
19.6279	2.40024
28.1489	3.33973
37.5439	4.25738
41.6951	4.62881
49.3422	5.26242
55.8968	6.00528
67.0396	6.94477
78.6195	8.14645
89.7623	9.19519
