Adsorption isotherm of Hydrogen on Cu2(PDC)2
DOI: 10.3390/Polym3042133
Adsorbate Hydrogen: InChIKey UFHFLCQGNIYNRP-UHFFFAOYSA-N
Temperature: 293 K
Tabular data in the source: 0
pressure (bar)	uptake (wt%)
2.58587	0.0233154
6.95562	0.0705087
12.6363	0.123601
17.443	0.166862
20.7203	0.210122
27.7119	0.273046
35.796	0.34187
42.5691	0.39103
52.401	0.463786
58.3002	0.520811
63.9808	0.550307
73.1573	0.632895
83.8632	0.71745
89.9808	0.76071
