Adsorption isotherm of Carbon Dioxide on NJU-Bai16
DOI: 10.1039/c5ce00612k
Article source: Figure 4b
Adsorbate Carbon Dioxide: InChIKey CURLTUGMZLYLDI-UHFFFAOYSA-N
Kind: experiment
Temperature: 273 K
Tabular data in the source: 0
pressure (bar)	uptake (wt%)
0	0
0.01168	0.920554
0.02116	1.91126
0.030603	2.83134
0.060789	4.88576
0.08176	6.44388
0.104626	7.3668
0.107205	8.00294
0.127721	8.7135
0.134736	9.27996
0.152939	9.84879
0.162268	10.557
0.180356	10.9139
0.187334	11.4097
0.205423	11.7667
0.212438	12.3331
0.230489	12.6195
0.237467	13.1153
0.257755	13.4021
0.26022	13.8263
0.28047	14.0425
0.289685	14.5388
0.307622	14.6132
0.312325	15.0379
0.3303	15.183
0.337239	15.6082
0.359651	15.6835
0.364353	16.1083
0.38229	16.1827
0.386917	16.4662
0.411566	16.542
0.416231	16.8961
0.434168	16.9705
0.441107	17.3957
0.458969	17.3289
0.465908	17.7541
0.483769	17.6872
0.490671	18.0418
0.51077	17.9754
0.515472	18.4002
0.537846	18.4049
0.54251	18.759
0.562571	18.622
0.567235	18.9761
0.585097	18.9093
0.589761	19.2634
0.612097	19.1975
0.618999	19.552
0.63686	19.4852
0.641487	19.7687
0.661585	19.7023
0.66625	20.0564
0.690975	20.2735
0.717937	20.4911
0.7449	20.7087
0.767349	20.8547
0.792074	21.0718
0.816799	21.2889
0.843762	21.5064
0.868449	21.6529
0.895411	21.8705
0.917861	22.0165
0.944786	22.1634
0.969473	22.3099
0.998673	22.528
1.0099	22.601
