Adsorption isotherm of Carbon Dioxide on NJU-Bai16
DOI: 10.1039/c5ce00612k
Article source: Figure 4b
Adsorbate Carbon Dioxide: InChIKey CURLTUGMZLYLDI-UHFFFAOYSA-N
Kind: experiment
Temperature: 298 K
Tabular data in the source: 0
pressure (bar)	uptake (wt%)
0	0
0.006743	0.353107
0.015723	0.706215
0.026947	1.12994
0.044888	1.62429
0.053874	2.04802
0.071803	2.40113
0.078553	2.82486
0.096481	3.17797
0.105468	3.60169
0.123384	3.81356
0.127896	4.23729
0.148049	4.44915
0.154805	4.9435
0.172727	5.22599
0.177233	5.5791
0.19738	5.72034
0.206366	6.14407
0.226513	6.28531
0.228782	6.63842
0.248935	6.85028
0.251204	7.20339
0.271344	7.27401
0.278094	7.69774
0.298241	7.83898
0.30274	8.12147
0.325124	8.26271
0.327387	8.5452
0.349771	8.68644
0.352039	9.03955
0.374411	9.03955
0.38116	9.46328
0.39682	9.46328
0.403563	9.81638
0.425934	9.81638
0.430447	10.2401
0.450574	10.1695
0.457317	10.5226
0.472977	10.5226
0.481958	10.8757
0.499855	10.8757
0.506591	11.1582
0.528988	11.4407
0.553622	11.7232
0.580499	12.0763
0.605126	12.2881
0.62976	12.5706
0.652151	12.7825
0.681259	13.065
0.703649	13.2768
0.730514	13.4887
0.755135	13.6299
0.781999	13.8418
0.80439	14.0537
0.824536	14.1949
0.849151	14.2655
0.86035	14.4068
0.878259	14.548
0.8984	14.6186
0.907367	14.8305
0.929751	14.9718
0.95661	15.113
0.978994	15.2542
0.996897	15.3249
