Adsorption isotherm of Methane on NJU-Bai16
DOI: 10.1039/c5ce00612k
Article source: Figure 4c
Adsorbate Methane: InChIKey VNWKTOKETHGBQD-UHFFFAOYSA-N
Kind: experiment
Temperature: 273 K
Tabular data in the source: 0
pressure (bar)	uptake (cm3(STP)/g)
0	0
0.014279	1.40842
0.026153	2.50374
0.052155	4.53728
0.078055	6.25736
0.104057	8.2909
0.130008	10.1677
0.155858	11.7311
0.181809	13.6079
0.205405	15.3283
0.233559	16.8913
0.259409	18.4546
0.282955	20.0183
0.308805	21.5817
0.334605	22.9883
0.3581	24.3953
0.383849	25.6452
0.411902	26.8947
0.437701	28.3013
0.461146	29.5515
0.486844	30.6447
0.510289	31.8949
0.538291	32.9877
0.561736	34.238
0.587333	35.0177
0.615386	36.2672
0.638729	37.204
0.664428	38.2971
0.69243	39.3899
0.720382	40.326
0.739067	41.1067
0.769322	42.0424
0.790312	42.8228
0.818314	43.9156
0.843911	44.6953
0.867255	45.6321
0.892852	46.4118
0.918499	47.3482
0.946401	48.1275
0.969694	48.9076
0.992936	49.5309
1.00927	50.1553
