Adsorption isotherm of Hydrogen on NJU-Bai16
DOI: 10.1039/c5ce00612k
Article source: Figure 4a
Adsorbate Hydrogen: InChIKey UFHFLCQGNIYNRP-UHFFFAOYSA-N
Kind: experiment
Temperature: 77 K
Tabular data in the source: 0
pressure (bar)	uptake (wt%)
0	0
0.009905	0.205765
0.019454	0.339529
0.026451	0.406422
0.03115	0.457874
0.052065	0.643125
0.058909	0.67916
0.079621	0.823267
0.109069	0.936561
0.133946	1.02412
0.156525	1.09623
0.183497	1.15809
0.210418	1.20965
0.235066	1.25092
0.259715	1.29219
0.28656	1.32833
0.311183	1.36446
0.335755	1.3903
0.360352	1.42128
0.389343	1.442
0.409445	1.46268
0.438462	1.48854
0.460761	1.50408
0.48753	1.52479
0.512076	1.54549
0.536598	1.56105
0.565589	1.58177
0.587863	1.59217
0.610162	1.60771
0.634657	1.61812
0.663572	1.62341
0.690341	1.64412
0.712615	1.65452
0.737136	1.67008
0.761657	1.68563
0.788325	1.68577
0.812846	1.70132
0.855146	1.71697
0.890753	1.72744
0.919693	1.73787
0.941992	1.75342
0.966488	1.76383
0.986514	1.76907
1.00207	1.76915
