Adsorption isotherm of Methane on NJU-Bai16
DOI: 10.1039/c5ce00612k
Article source: Figure 4c
Adsorbate Methane: InChIKey VNWKTOKETHGBQD-UHFFFAOYSA-N
Kind: experiment
Temperature: 298 K
Tabular data in the source: 0
pressure (bar)	uptake (cm3(STP)/g)
0	0
0.027887	0.936007
0.053464	1.87166
0.076731	2.80695
0.104618	3.74295
0.127885	4.67824
0.155743	5.45897
0.176672	6.23861
0.202192	6.86369
0.227798	7.95463
0.253346	8.73499
0.281204	9.51571
0.304443	10.2957
0.3323	11.0764
0.357849	11.8568
0.381059	12.4815
0.406607	13.2619
0.429817	13.8866
0.455366	14.667
0.483166	15.1371
0.506405	15.9171
0.531925	16.5422
0.555163	17.3222
0.583021	18.103
0.608512	18.5728
0.634032	19.1978
0.659552	19.8229
0.682762	20.4476
0.708253	20.9174
0.731491	21.6974
0.759349	22.4782
0.784812	22.7927
0.808022	23.4174
0.833541	24.0425
0.856694	24.3566
0.882214	24.9817
0.912324	25.4522
0.935505	25.9217
0.951758	26.39
0.970292	26.7035
0.988854	27.1722
1.00502	27.1747
