Adsorption isotherm of Nitrogen on NJU-Bai16
DOI: 10.1039/c5ce00612k
Article source: Figure 3
Adsorbate Nitrogen: InChIKey IJGRMHOSHXDMSA-UHFFFAOYSA-N
Kind: experiment
Temperature: 77 K
Tabular data in the source: 0
pressure (bar)	uptake (cm3(STP)/g)
0	0
0.000136	6.06948
0.001164	52.0241
0.001855	182.95
0.001978	88.441
0.002166	196.823
0.00236	205.493
0.002618	117.054
0.003032	35.5517
0.003161	141.332
0.003724	166.477
0.003879	173.414
0.005127	129.195
0.007027	214.168
0.013912	221.977
0.034179	228.064
0.056625	231.551
0.079031	233.305
0.105912	235.062
0.132792	236.819
0.155198	238.572
0.182079	240.329
0.206703	241.217
0.233564	242.107
0.258228	244.73
0.285107	246.487
0.309752	248.242
0.336632	249.999
0.361197	248.286
0.361256	250.887
0.385821	249.174
0.388137	252.644
0.410562	255.265
0.412741	252.665
0.437326	251.819
0.437559	262.224
0.462009	255.309
0.464594	270.918
0.484377	255.328
0.489335	277.008
0.511277	257.952
0.51394	277.029
0.538118	257.975
0.538564	277.918
0.563189	278.806
0.567236	259.734
0.587405	261.485
0.587793	278.827
0.614712	282.318
0.616541	264.111
0.63891	264.131
0.641553	282.341
0.66581	266.755
0.668434	284.098
0.692709	269.379
0.693077	285.853
0.715058	268.531
0.717702	286.741
0.74007	286.76
0.741996	272.889
0.768896	275.513
0.769167	287.652
0.791341	279.001
0.793811	289.408
0.818261	282.492
0.820633	288.563
0.845199	286.85
0.845316	292.053
0.869921	292.074
0.894545	292.962
0.921444	295.586
0.948306	296.476
0.97291	296.497
1.00203	298.256
1.01773	300.004
