Adsorption isotherm of Hydrogen on NJU-Bai16
DOI: 10.1039/c5ce00612k
Article source: Figure 4a
Adsorbate Hydrogen: InChIKey UFHFLCQGNIYNRP-UHFFFAOYSA-N
Kind: experiment
Temperature: 87 K
Tabular data in the source: 0
pressure (bar)	uptake (wt%)
0	0
0.009067	0.072206
0.018096	0.12894
0.027061	0.159885
0.029347	0.185673
0.049577	0.27851
0.05632	0.309456
0.074276	0.381662
0.083228	0.40745
0.098937	0.469341
0.103419	0.484814
0.132499	0.562178
0.154862	0.618911
0.181668	0.675645
0.204018	0.727221
0.233021	0.773639
0.25758	0.820057
0.279879	0.851003
0.306635	0.887106
0.331156	0.918052
0.355664	0.94384
0.382394	0.969628
0.40468	0.995415
0.431423	1.02636
0.455906	1.04183
0.480401	1.06246
0.509354	1.08825
0.531614	1.10372
0.55611	1.12436
0.582814	1.13983
0.609519	1.1553
0.631792	1.17593
0.658485	1.18625
0.682967	1.20172
0.70745	1.21719
0.734155	1.23266
0.758625	1.24298
0.780872	1.2533
0.809799	1.26877
0.834282	1.28424
0.858752	1.29456
0.883222	1.30487
0.907692	1.31519
0.929927	1.32034
0.956619	1.33066
0.983311	1.34097
0.998892	1.35129
