Adsorption isotherm of Nitrogen on DUT-8(Ni)
DOI: 10.1039/c5cp02180d
Article source: Figure 2
Adsorbate Nitrogen: InChIKey IJGRMHOSHXDMSA-UHFFFAOYSA-N
Kind: experiment
Temperature: 77 K
Tabular data in the source: 0
pressure (bar)	uptake (cm3(STP)/g)
0.009665	3.84615
0.018402	319.231
0.019664	111.538
0.019868	175
0.020239	290.385
0.022083	263.462
0.022356	348.077
0.022436	373.077
0.023939	240.385
0.032194	405.769
0.054066	3.84615
0.102329	3.84615
0.103696	428.846
0.150604	7.69231
0.184821	442.308
0.20472	26.9231
0.259046	111.538
0.29989	205.769
0.300682	451.923
0.315421	232.692
0.35809	294.231
0.404539	330.769
0.431975	457.692
0.466427	365.385
0.486029	457.692
0.50896	384.615
0.553417	401.923
0.605744	465.385
0.624901	419.231
0.646149	423.077
0.651947	425
0.700339	465.385
0.706007	426.923
0.754307	438.462
0.800756	475
0.80453	448.077
0.856673	453.846
0.901099	461.538
0.903079	476.923
0.949411	476.923
0.955215	480.769
