Adsorption isotherm of N-Butane on DUT-8(Ni)
DOI: 10.1039/c5cp02180d
Article source: Figure 4
Adsorbate N-Butane: InChIKey IJDNQMDRQITEOD-UHFFFAOYSA-N
Kind: experiment
Temperature: 273 K
Tabular data in the source: 0
pressure (bar)	uptake (cm3(STP)/g)
0.012518	6.57598
0.0517	151.873
0.060192	7.56467
0.093164	153.371
0.109925	7.53967
0.192643	154.334
0.209385	6.98334
0.225982	8.49398
0.236403	13.0457
0.246868	21.1417
0.26997	44.9276
0.29512	66.6871
0.299362	74.2799
0.306635	155.795
0.309821	81.8696
0.339115	103.627
0.357902	114.25
0.368361	121.84
0.395766	157.776
0.405851	136.505
0.495258	159.751
0.507626	154.681
0.596796	159.7
0.600941	159.698
0.694203	160.664
0.706637	160.657
0.78538	160.618
0.814397	161.11
0.899364	161.573
0.911798	161.567
0.965708	164.071
