Adsorption isotherm of Ethane on DUT-8(Ni)
DOI: 10.1039/c5cp02180d
Article source: Figure 5
Adsorbate Ethane: InChIKey OTMSDBZUPAUEDD-UHFFFAOYSA-N
Kind: experiment
Temperature: 185 K
Tabular data in the source: 0
pressure (bar)	uptake (cm3(STP)/g)
0.00903	5.2459
0.029348	299.016
0.051924	7.86885
0.094817	308.197
0.106105	7.86885
0.158029	10.4918
0.164801	314.754
0.21221	11.8033
0.230271	318.689
0.259619	55.082
0.266391	320
0.309285	93.1148
0.329603	321.311
0.358951	144.262
0.363467	326.557
0.413133	203.279
0.431193	329.18
0.462799	251.803
0.474087	338.361
0.510207	278.033
0.532783	342.295
0.564389	295.082
0.573419	343.607
0.620828	308.197
0.636631	348.852
0.663721	316.066
0.672751	350.164
0.722418	320
0.733705	352.787
0.774341	326.557
0.824008	329.18
0.837553	356.721
0.875931	335.738
0.878189	358.033
0.907537	359.344
0.927855	340.984
0.939143	359.344
0.954946	359.344
0.973007	347.541
1.00687	355.41
