Adsorption isotherm of Nitrogen on MIL-101-pyz
DOI: 10.1134/S0036023615070086
Article source: Figure 4
Adsorbate Nitrogen: InChIKey IJGRMHOSHXDMSA-UHFFFAOYSA-N
Kind: experiment
Temperature: 77 K
Tabular data in the source: 0
pressure (bar)	uptake (ml/g)
0	0
0.008792	344.027
0.021979	458.703
0.030771	503.754
0.048355	540.614
0.050553	585.666
0.052751	565.188
0.070334	614.334
0.076928	643.003
0.08572	647.099
0.092313	663.481
0.103303	696.246
0.11649	720.819
0.120887	733.106
0.136272	753.584
0.149459	741.297
0.151658	761.775
0.160449	769.966
0.173638	810.922
0.184627	798.635
0.195617	806.826
0.204408	839.59
0.221992	876.451
0.230784	880.546
0.241774	880.546
0.254961	884.642
0.281336	888.737
0.301118	892.833
0.327493	896.928
0.353868	901.024
0.38464	905.119
0.408817	905.119
0.430796	909.215
0.454974	913.311
0.483546	913.311
0.505526	917.406
0.536297	921.502
0.560474	921.502
0.584652	921.502
0.604433	921.502
0.633007	925.597
0.661579	933.788
0.685757	929.693
0.707737	937.884
0.738507	933.788
0.762684	937.884
0.786863	937.884
0.808842	937.884
0.837415	933.788
0.861592	941.98
0.887968	946.075
0.914343	946.075
0.940718	950.171
0.962697	954.266
0.989073	995.222
1.00666	1093.52
1.00885	1175.43
