Adsorption isotherm of Nitrogen on MIL-101
DOI: 10.1134/S0036023615070086
Article source: Figure 4
Adsorbate Nitrogen: InChIKey IJGRMHOSHXDMSA-UHFFFAOYSA-N
Kind: experiment
Temperature: 77 K
Tabular data in the source: 0
pressure (bar)	uptake (ml/g)
0	0
0.01099	352.218
0.028573	470.99
0.048355	544.71
0.072532	610.239
0.098907	663.481
0.120887	745.392
0.140668	753.584
0.151658	790.444
0.178033	815.017
0.20221	843.686
0.226387	917.406
0.257159	933.788
0.27694	933.788
0.307712	941.98
0.329691	946.075
0.358264	950.171
0.380243	954.266
0.408817	958.362
0.430796	962.457
0.452776	966.553
0.481348	966.553
0.509922	970.648
0.534099	970.648
0.560474	974.744
0.584652	978.84
0.60883	978.84
0.635204	978.84
0.663778	982.935
0.685757	982.935
0.707737	987.031
0.73631	987.031
0.764883	991.126
0.78906	995.222
0.81104	995.222
0.841811	999.317
0.865988	1003.41
0.88577	1007.51
0.914343	1007.51
0.93852	1011.6
0.960499	1015.7
0.967093	1023.89
