Adsorption isotherm of Carbon Dioxide on Cr-MIL-101-bipy
DOI: 10.1134/S0036023615070086
Article source: Figure 6
Adsorbate Carbon Dioxide: InChIKey CURLTUGMZLYLDI-UHFFFAOYSA-N
Kind: experiment
Temperature: 300 K
Tabular data in the source: 0
pressure (bar)	uptake (ml/g)
0	0
1.35163	1.10294
2.25272	1.47059
4.05489	2.94118
5.85707	4.41176
6.45779	7.35294
7.05849	5.51471
8.86069	7.35294
9.91196	10.2941
10.5127	8.45588
12.6152	10.2941
13.3661	13.2353
14.117	11.3971
15.769	12.8676
16.5199	15.4412
17.8715	13.9706
19.073	15.0735
20.1243	18.3824
20.8752	16.1765
24.1792	19.1176
26.7322	22.7941
27.4832	21.3235
30.7871	23.8971
33.4904	27.9412
34.3915	26.1029
37.6955	28.6765
40.0984	32.3529
41.2999	30.8824
44.3034	33.4559
47.0067	36.7647
48.058	35.6618
51.2118	37.8676
53.6147	40.8088
54.3656	40.0735
58.1201	42.6471
60.3729	44.4853
61.274	44.4853
63.5267	46.6912
64.7281	46.6912
66.2299	47.7941
