Adsorption isotherm of Nitrogen on MIL-101-dabco
DOI: 10.1134/S0036023615070086
Article source: Figure 4
Adsorbate Nitrogen: InChIKey IJGRMHOSHXDMSA-UHFFFAOYSA-N
Kind: experiment
Temperature: 77 K
Tabular data in the source: 0
pressure (bar)	uptake (ml/g)
0	0
0.008792	401.365
0.026375	503.754
0.054948	593.857
0.07473	610.239
0.103303	683.959
0.129679	708.532
0.153856	733.106
0.180231	774.061
0.20221	802.73
0.232982	802.73
0.254961	815.017
0.283534	810.922
0.307712	819.113
0.331889	823.208
0.358264	827.304
0.386838	823.208
0.411015	827.304
0.432994	831.399
0.461567	835.495
0.485745	831.399
0.509922	839.59
0.536297	843.686
0.558276	847.782
0.589048	839.59
0.611027	847.782
0.637402	847.782
0.661579	847.782
0.685757	847.782
0.712132	855.973
0.738507	855.973
0.762684	855.973
0.791258	855.973
0.813237	860.068
0.841811	860.068
0.865988	864.164
0.894561	864.164
0.920937	872.355
0.942916	868.259
0.964896	872.355
1.00666	987.031
