Adsorption isotherm of Carbon Dioxide on Cr-MIL-101-bipy
DOI: 10.1134/S0036023615070086
Article source: Figure 6
Adsorbate Carbon Dioxide: InChIKey CURLTUGMZLYLDI-UHFFFAOYSA-N
Kind: experiment
Temperature: 273 K
Tabular data in the source: 0
pressure (bar)	uptake (ml/g)
0	0
0.382249	2.20588
0.764498	2.57353
0.993847	3.67647
1.22319	5.14706
1.83479	6.98529
1.98769	9.55882
2.29349	9.19118
2.90509	11.3971
3.21089	12.8676
3.51667	16.1765
3.6696	14.3382
4.12827	15.8088
4.43408	16.5441
4.89279	18.3824
5.12212	19.1176
5.27501	21.3235
5.58083	20.5882
5.88664	21.6912
6.34531	22.7941
6.80402	24.2647
7.03338	27.2059
7.10983	25.7353
7.41561	26.4706
7.79787	27.5735
8.10365	28.6765
8.33302	30.1471
8.71528	30.5147
9.02106	31.6176
9.32687	32.3529
9.63265	33.4559
9.86202	34.1912
10.2442	35.6618
10.4736	36.0294
12.0791	41.5441
13.8374	46.3235
13.9903	48.5294
15.5957	50.7353
17.2776	55.5147
17.4305	58.0882
19.036	60.6618
20.565	64.7059
20.7179	66.9118
22.4762	69.8529
24.0816	74.2647
24.1581	75.7353
25.7635	79.0441
27.6748	84.5588
29.3567	88.2353
30.7328	92.2794
31.115	92.6471
32.4911	96.3235
32.7969	96.3235
33.7907	99.2647
