Adsorption isotherm of Nitrogen on MIL-101-bipy
DOI: 10.1134/S0036023615070086
Article source: Figure 4
Adsorbate Nitrogen: InChIKey IJGRMHOSHXDMSA-UHFFFAOYSA-N
Kind: experiment
Temperature: 77 K
Tabular data in the source: 0
pressure (bar)	uptake (ml/g)
0	0
0.006594	266.212
0.008792	290.785
0.01099	348.123
0.021979	376.792
0.026375	384.983
0.039563	397.27
0.046157	405.461
0.072532	413.652
0.087918	417.747
0.109897	425.939
0.134074	434.13
0.147262	434.13
0.162648	430.034
0.180231	434.13
0.189023	438.225
0.206607	438.225
0.22419	438.225
0.237377	438.225
0.257159	434.13
0.274743	442.321
0.283534	442.321
0.292326	442.321
0.305513	446.416
0.356066	450.512
0.411015	450.512
0.457171	454.608
0.509922	458.703
0.562673	458.703
0.60883	462.799
0.661579	462.799
0.712132	462.799
0.762684	466.894
0.815435	466.894
0.863791	470.99
0.918739	479.181
0.958301	483.276
0.969291	491.468
0.982479	499.659
0.997865	569.283
