Adsorption isotherm of Hydrogen on IRMOF-1
DOI: 10.1021/Ja8099079
Adsorbate Hydrogen: InChIKey UFHFLCQGNIYNRP-UHFFFAOYSA-N
Temperature: 77 K
Tabular data in the source: 0
pressure (bar)	uptake (Site Occupancy)
0.546075	0.612245
0.819113	1.14286
1.50171	1.91837
2.04778	2.28571
2.86689	3.10204
3.54949	3.42857
4.23208	3.79592
4.91468	4.12245
6.5529	4.77551
7.64505	5.02041
9.82935	5.5102
11.058	5.71429
12.2867	5.87755
13.5154	6.04082
15.9727	6.28571
17.3379	6.40816
19.9317	6.57143
21.2969	6.61224
22.5256	6.69388
23.8908	6.77551
26.6212	6.85714
27.9863	6.89796
30.7167	6.97959
32.0819	7.02041
33.4471	7.06122
34.6758	7.10204
37.4061	7.14286
38.7713	7.18367
