Adsorption isotherm of Hydrogen on IRMOF-1
DOI: 10.1021/Ja8099079
Adsorbate Hydrogen: InChIKey UFHFLCQGNIYNRP-UHFFFAOYSA-N
Temperature: 60 K
Tabular data in the source: 0
pressure (bar)	uptake (wt%)
0.551724	3.42908
1.10345	4.42498
1.93103	4.97874
3.31034	5.56987
5.24138	5.94031
7.31034	6.16342
10.069	6.35029
13.3793	6.46394
17.6552	6.54162
20.5517	6.54429
24.8276	6.58509
28.5517	6.66226
32.6897	6.66607
38.069	6.7079
40	6.74654
