Adsorption isotherm of Hydrogen on IRMOF-1
DOI: 10.1021/Ja8099079
Adsorbate Hydrogen: InChIKey UFHFLCQGNIYNRP-UHFFFAOYSA-N
Temperature: 55 K
Tabular data in the source: 0
pressure (bar)	uptake (wt%)
0.275862	3.35509
0.551724	4.27701
0.965517	4.97785
1.51724	5.67882
2.75862	6.08549
4.82759	6.38233
8	6.49585
11.3103	6.57264
14.4828	6.64929
18.4828	6.68985
22.4828	6.69353
28.1379	6.73561
32.8276	6.70307
37.5172	6.74426
39.7241	6.74629
