Adsorption isotherm of Hydrogen on IRMOF-1
DOI: 10.1021/Ja8099079
Adsorbate Hydrogen: InChIKey UFHFLCQGNIYNRP-UHFFFAOYSA-N
Temperature: 70 K
Tabular data in the source: 0
pressure (bar)	uptake (wt%)
0.689655	1.73335
1.24138	2.54492
1.65517	3.24577
2.75862	3.83664
4.13793	4.42778
5.65517	4.79784
8	5.2424
10.2069	5.53936
12.5517	5.72585
15.3103	5.839
18.4828	5.98939
20.5517	6.10189
23.5862	6.14155
26.2069	6.2177
28.5517	6.25673
30.6207	6.2955
32.9655	6.33453
36	6.33733
38.069	6.3761
39.7241	6.34076
