Adsorption isotherm of Hydrogen on IRMOF-1
DOI: 10.1021/Ja8099079
Adsorbate Hydrogen: InChIKey UFHFLCQGNIYNRP-UHFFFAOYSA-N
Temperature: 77 K
Tabular data in the source: 0
pressure (bar)	uptake (wt%)
0.133779	0.235294
0.401338	0.840336
0.668896	1.44538
1.33779	1.98319
2.00669	2.35294
3.34448	3.02521
4.01338	3.36134
4.94983	3.63025
5.75251	3.96639
6.82274	4.13445
7.7592	4.30252
8.82943	4.47059
10.0334	4.67227
11.505	4.84034
13.5117	5.0084
14.9833	5.17647
16.7224	5.2437
18.7291	5.34454
20.2007	5.47899
22.6087	5.54622
24.6154	5.68067
26.6221	5.71429
28.495	5.7479
30.5017	5.81513
32.3746	5.88235
33.9799	5.88235
35.8528	5.94958
37.8595	5.98319
39.8662	6.01681
