Adsorption isotherm of Hydrogen on IRMOF-1
DOI: 10.1021/Ja8099079
Adsorbate Hydrogen: InChIKey UFHFLCQGNIYNRP-UHFFFAOYSA-N
Temperature: 77 K
Tabular data in the source: 0
pressure (bar)	uptake (Site Occupancy)
1.36519	1.10204
1.63823	1.46939
2.1843	1.87755
2.73038	2.28571
3.54949	2.61224
3.95904	2.93878
4.91468	3.22449
5.59727	3.59184
6.68942	3.87755
7.50853	4.20408
8.46416	4.40816
9.69283	4.65306
10.9215	4.85714
12.0137	5.10204
13.2423	5.22449
14.471	5.38776
15.6997	5.5102
17.0648	5.67347
18.2935	5.7551
19.6587	5.91837
21.0239	5.95918
22.2526	6.08163
23.6177	6.16327
24.9829	6.2449
26.3481	6.28571
27.5768	6.40816
28.8055	6.44898
30.3072	6.4898
31.6724	6.53061
33.0375	6.61224
34.4027	6.61224
35.6314	6.69388
36.9966	6.73469
38.3618	6.77551
39.727	6.77551
