Adsorption isotherm of Hydrogen on IRMOF-1
DOI: 10.1021/Ja8099079
Adsorbate Hydrogen: InChIKey UFHFLCQGNIYNRP-UHFFFAOYSA-N
Temperature: 77 K
Tabular data in the source: 0
pressure (bar)	uptake (Site Occupancy)
0.136519	0.136519
0.273038	2.36735
0.409556	4.89796
0.682594	5.26531
1.09215	6.44898
1.63823	6.81633
2.45734	7.14286
4.50512	7.55102
5.87031	7.63265
7.09898	7.71429
9.96587	7.79592
11.3311	7.79592
12.6962	7.83673
15.2901	7.83673
16.6553	7.83673
18.0205	7.83673
20.6143	7.87755
21.9795	7.87755
23.3447	7.87755
26.2116	7.91837
27.5768	7.91837
28.942	7.91837
31.5358	7.91837
32.901	7.91837
34.2662	7.91837
36.8601	7.91837
38.2253	7.91837
39.5904	7.91837
