Adsorption isotherm of Hydrogen on IRMOF-1
DOI: 10.1021/Ja8099079
Adsorbate Hydrogen: InChIKey UFHFLCQGNIYNRP-UHFFFAOYSA-N
Temperature: 65 K
Tabular data in the source: 0
pressure (bar)	uptake (wt%)
0.551724	2.61802
0.965517	3.24513
1.51724	3.9461
2.62069	4.57384
3.72414	5.09099
4.82759	5.31321
6.62069	5.64666
9.7931	5.94451
11.8621	6.09388
14.069	6.20652
16.4138	6.28241
19.1724	6.35868
21.931	6.39809
24.6897	6.4375
27.7241	6.47717
31.5862	6.48072
35.4483	6.52115
38.4828	6.52395
39.5862	6.56183
