Adsorption isotherm of Hydrogen on IRMOF-1
DOI: 10.1021/Ja8099079
Adsorbate Hydrogen: InChIKey UFHFLCQGNIYNRP-UHFFFAOYSA-N
Temperature: 77 K
Tabular data in the source: 0
pressure (bar)	uptake (Site Occupancy)
0.546075	0.408163
0.955631	0.816327
1.77474	1.10204
2.32082	1.46939
3.00341	1.83673
3.82253	2.16327
4.64164	2.4898
5.46075	2.81633
6.41638	3.14286
7.37201	3.38776
8.32765	3.67347
9.4198	3.91837
10.6485	4.12245
11.7406	4.32653
12.9693	4.53061
14.198	4.69388
15.4266	4.85714
16.6553	5.02041
18.0205	5.14286
19.2491	5.26531
20.6143	5.38776
21.843	5.5102
23.2082	5.59184
24.4369	5.67347
25.802	5.79592
27.0307	5.83673
28.3959	5.91837
29.7611	6
30.9898	6.08163
32.3549	6.12245
33.7201	6.16327
34.9488	6.2449
36.314	6.28571
37.6792	6.32653
38.9078	6.36735
