Adsorption isotherm of Hydrogen on IRMOF-1
DOI: 10.1021/Ja8099079
Adsorbate Hydrogen: InChIKey UFHFLCQGNIYNRP-UHFFFAOYSA-N
Temperature: 87 K
Tabular data in the source: 0
pressure (bar)	uptake (wt%)
0.551724	0.369172
1.37931	1.0704
2.2069	1.47669
3.58621	1.92036
4.68966	2.3269
6.2069	2.69696
7.86207	3.03029
9.7931	3.36386
11.5862	3.66045
13.6552	3.92042
15.4483	4.06954
17.1034	4.21853
19.1724	4.44163
21.2414	4.59101
23.5862	4.6669
25.6552	4.77941
27.7241	4.92878
30.4828	5.00505
32.8276	5.15468
35.5862	5.19409
37.6552	5.30659
39.8621	5.34549
