Adsorption isotherm of Hydrogen on IRMOF-1
DOI: 10.1021/Ja8099079
Adsorbate Hydrogen: InChIKey UFHFLCQGNIYNRP-UHFFFAOYSA-N
Temperature: 77 K
Tabular data in the source: 0
pressure (bar)	uptake (wt%)
0.802676	0.201681
1.87291	0.403361
2.94314	0.605042
4.01338	0.806723
5.61873	1.07563
6.82274	1.21008
8.02676	1.37815
9.23077	1.51261
10.4348	1.64706
11.9064	1.84874
13.1104	1.94958
14.4482	2.08403
15.6522	2.18487
16.8562	2.28571
18.5953	2.42017
19.7993	2.52101
21.1371	2.62185
22.3411	2.72269
23.6789	2.78992
25.4181	2.92437
26.7559	2.9916
27.9599	3.05882
29.2977	3.12605
30.5017	3.19328
32.2408	3.29412
33.5786	3.36134
34.7826	3.39496
36.1204	3.46218
37.3244	3.52941
39.0635	3.56303
40	3.66387
