Adsorption isotherm of Carbon Dioxide on K2[Cr3O-(OOCH)6(4-etpy)3]2[alpha-SiW12O40]*2H2O
DOI: 10.1021/Jp305890s
Adsorbate Carbon Dioxide: InChIKey CURLTUGMZLYLDI-UHFFFAOYSA-N
Temperature: 278 K
Tabular data in the source: 0
pressure (bar)	uptake (mol/mol)
0.0126775	0.222232
0.0493834	0.458199
0.0887111	0.646098
0.162123	0.882064
0.327299	1.15299
0.440039	1.2666
0.552778	1.38022
0.770392	1.52005
0.990627	1.62929
1.10337	1.69921
