Adsorption isotherm of Carbon Dioxide on K2[Cr3O-(OOCH)6(4-etpy)3]2[alpha-SiW12O40]*2H2O
DOI: 10.1021/Jp305890s
Adsorbate Carbon Dioxide: InChIKey CURLTUGMZLYLDI-UHFFFAOYSA-N
Temperature: 283 K
Tabular data in the source: 0
pressure (bar)	uptake (mol/mol)
0.020543	0.187274
0.0493834	0.357694
0.0834674	0.528114
0.107064	0.61551
0.162123	0.746602
0.219804	0.851476
0.332543	1.01753
0.434795	1.15736
0.552778	1.25786
0.775635	1.40206
0.985383	1.53316
1.10337	1.59433
