Adsorption isotherm of Carbon Dioxide on K2[Cr3O-(OOCH)6(4-etpy)3]2[alpha-SiW12O40]*2H2O
DOI: 10.1021/Jp305890s
Adsorbate Carbon Dioxide: InChIKey CURLTUGMZLYLDI-UHFFFAOYSA-N
Temperature: 195 K
Tabular data in the source: 0
pressure (bar)	uptake (mol/mol)
0.00219011	0.523432
0.00481196	0.897046
0.00743381	1.21822
0.0257867	1.55906
0.0834674	1.7557
0.141148	1.86713
0.225047	1.97856
0.287972	2.05721
0.453148	2.18175
0.565888	2.25385
0.631434	2.29318
0.741551	2.36528
0.841182	2.42427
0.925081	2.4636
1.00636	2.58814
