Adsorption isotherm of Carbon Dioxide on K2[Cr3O-(OOCH)6(4-etpy)3]2[alpha-SiW12O40]*2H2O
DOI: 10.1021/Jp305890s
Adsorbate Carbon Dioxide: InChIKey CURLTUGMZLYLDI-UHFFFAOYSA-N
Temperature: 303 K
Tabular data in the source: 0
pressure (bar)	uptake (mol/mol)
0.0179212	0.0824002
0.0887111	0.239711
0.164745	0.423241
0.217182	0.536854
0.329921	0.707274
0.437417	0.816518
0.547535	0.895173
0.770392	1.06122
0.990627	1.18795
1.09812	1.24475
