Adsorption isotherm of Methane on K2[Cr3O-(OOCH)6(4-etpy)3]2[alpha-SiW12O40]*2H2O
DOI: 10.1021/Jp305890s
Adsorbate Methane: InChIKey VNWKTOKETHGBQD-UHFFFAOYSA-N
Temperature: 195 K
Tabular data in the source: 0
pressure (bar)	uptake (mol/mol)
0.00481196	0.00561717
0.0808456	0.0187264
0.156879	0.0187264
0.211938	0.0318357
0.316812	0.025281
0.421686	0.0383903
0.531804	0.025281
0.634056	0.025281
0.736308	0.0187264
0.83856	0.025281
0.948677	0.00561717
