Adsorption isotherm of Carbon Dioxide on K2[Cr3O-(OOCH)6(4-etpy)3]2[alpha-SiW12O40]*2H2O
DOI: 10.1021/Jp305890s
Adsorbate Carbon Dioxide: InChIKey CURLTUGMZLYLDI-UHFFFAOYSA-N
Temperature: 298 K
Tabular data in the source: 0
pressure (bar)	uptake (mol/mol)
0.0152994	0.121728
0.107064	0.340215
0.159501	0.493157
0.21456	0.632988
0.327299	0.820888
0.434795	0.94761
0.550156	1.05248
0.76777	1.20543
0.990627	1.354
1.10599	1.4108
