Adsorption isotherm of Nitrogen on TP-DTP COF
DOI: 10.1021/jacs.7b11255
Article source: Figure 2(a)
Adsorbate Nitrogen: InChIKey IJGRMHOSHXDMSA-UHFFFAOYSA-N
Kind: experiment
Temperature: 77 K
Tabular data in the source: 0
pressure (bar)	uptake (cm3(STP)/g)
0	0
0	8.98876
0	17.9775
0	32.3596
0	39.5506
0	50.3371
0	66.5169
0	79.1011
0	89.8876
0	102.472
0.001844	127.64
0.003688	140.225
0.005532	149.213
0.009231	161.798
0.02676	189.663
0.051676	216.629
0.079358	237.303
0.101507	253.483
0.128267	267.865
0.153183	285.843
0.177177	296.629
0.203015	305.618
0.228863	311.011
0.253779	314.607
0.278694	320
0.304532	323.596
0.329448	328.09
0.354364	332.584
0.380202	336.18
0.405118	337.978
0.431878	341.573
0.455871	345.169
0.481709	346.966
0.507547	348.764
0.533385	352.36
0.558301	355.955
0.583217	357.753
0.609054	363.146
0.634892	366.742
0.658886	368.539
0.68288	373.933
0.710572	375.73
0.735488	381.124
0.760404	384.719
0.784387	388.315
0.809303	394.607
0.836073	400.899
0.861911	408.09
0.885905	415.281
0.909899	427.865
0.93758	445.843
0.961574	469.213
0.985568	521.348
1.00586	747.865
0.023994	197.753
0.050754	228.315
0.073825	246.292
0.101507	262.472
0.125501	276.854
0.151339	291.236
0.177177	305.618
0.203015	314.607
0.225164	321.798
0.254701	327.191
0.277762	330.787
0.304532	334.382
0.329448	337.978
0.354364	341.573
0.380202	344.27
0.40604	346.966
0.430955	350.562
0.455871	354.157
0.479865	359.551
0.507547	381.124
0.531541	391.011
0.556457	394.607
0.582295	397.303
0.608132	400
0.633048	402.697
0.658886	406.292
0.683802	408.989
0.708718	411.685
0.734556	415.281
0.760404	420.674
0.786241	424.27
0.810235	427.865
0.836073	435.056
0.861911	440.449
0.885905	449.438
0.913587	461.124
0.936658	477.303
0.963418	506.966
0.989256	573.483
1.00679	746.966
