Adsorption isotherm of Nitrogen on TP-EDDA
DOI: 10.1021/jacs.7b11255
Article source: Figure 2(a)
Adsorbate Nitrogen: InChIKey IJGRMHOSHXDMSA-UHFFFAOYSA-N
Kind: experiment
Temperature: 77 K
Tabular data in the source: 0
pressure (bar)	uptake (cm3(STP)/g)
0	3.10238
0	15.5119
0.001702	26.6805
0.001702	35.3671
0.001702	51.4995
0.003415	65.1499
0.003415	81.2823
0.006819	89.969
0.011936	97.4147
0.028999	106.101
0.051179	117.27
0.076764	124.095
0.100646	129.679
0.127933	133.402
0.151815	138.366
0.175698	140.848
0.202133	144.571
0.228579	146.432
0.253312	148.914
0.278897	150.776
0.30363	152.017
0.330076	154.498
0.35481	156.98
0.378692	156.98
0.405979	159.462
0.429861	161.944
0.456307	163.185
0.48104	165.667
0.506625	166.908
0.53221	168.149
0.557804	170.631
0.58424	172.492
0.608973	174.974
0.633707	176.836
0.65844	178.077
0.684886	179.317
0.708758	181.179
0.734353	184.281
0.759937	186.763
0.784671	189.245
0.810255	192.968
0.834138	195.45
0.861435	197.932
0.887019	204.137
0.910902	210.341
0.935635	222.13
0.96122	240.124
0.985953	277.353
1.00728	395.243
0.02218	116.029
0.048616	128.438
0.075051	135.884
0.098934	142.089
0.124528	147.053
0.150964	150.776
0.173995	154.498
0.201282	156.98
0.226016	158.842
0.25161	160.703
0.278046	163.185
0.301928	164.426
0.329225	166.908
0.35481	168.149
0.380394	170.631
0.405128	171.251
0.430712	173.113
0.455446	173.733
0.479328	176.836
0.506625	179.317
0.53221	180.558
0.557804	181.799
0.581676	183.04
0.60641	184.902
0.632856	186.763
0.656738	188.004
0.682323	189.866
0.707907	192.347
0.733502	194.209
0.759937	196.691
0.784671	199.173
0.811117	201.655
0.834989	204.757
0.861435	209.1
0.887019	215.305
0.912604	222.751
0.938199	233.919
0.963783	255.016
0.989368	304.654
1.00728	394.623
