Adsorption isotherm of Nitrogen on TP-BDDA COF
DOI: 10.1021/jacs.7b11255
Article source: Figure 2(a)
Adsorbate Nitrogen: InChIKey IJGRMHOSHXDMSA-UHFFFAOYSA-N
Kind: experiment
Temperature: 77 K
Tabular data in the source: 0
pressure (bar)	uptake (cm3(STP)/g)
0	102.378
0.003415	124.716
0.006819	134.643
0.010234	147.053
0.028999	159.462
0.049467	171.872
0.076764	183.04
0.101497	190.486
0.124528	195.45
0.150113	201.655
0.1774	205.377
0.202995	209.1
0.228579	213.444
0.252461	217.787
0.278046	219.028
0.30363	221.51
0.329225	223.992
0.35481	226.474
0.380394	228.956
0.405128	230.196
0.431574	232.678
0.456307	235.16
0.48104	237.022
0.506625	239.504
0.53221	240.745
0.557804	242.606
0.583389	245.088
0.608973	246.949
0.634558	249.431
0.660153	251.293
0.684025	252.534
0.70962	255.016
0.735204	257.497
0.759937	259.979
0.78382	262.461
0.811968	264.943
0.83585	269.907
0.862286	274.25
0.887019	279.835
0.912604	287.28
0.938199	299.69
0.962071	320.786
0.987665	371.665
1.00643	560.29
0.023882	165.667
0.049467	183.04
0.075051	192.968
0.098934	200.414
0.126231	206.618
0.150113	212.823
0.175698	217.787
0.201282	221.51
0.228579	225.233
0.252461	228.956
0.277195	231.437
0.302779	233.919
0.328364	235.16
0.353097	237.642
0.378692	239.504
0.404277	241.365
0.429861	243.226
0.455446	245.088
0.480189	247.57
0.505774	251.293
0.530507	253.775
0.556092	255.016
0.581676	256.877
0.60641	258.738
0.632005	260.6
0.657589	262.461
0.682323	264.943
0.708758	266.805
0.733502	268.666
0.760789	271.768
0.785522	274.25
0.809404	277.353
0.83585	281.076
0.861435	286.039
0.88787	291.003
0.909199	299.069
0.935635	312.099
0.963783	340.021
0.989368	422.544
1.00728	561.531
