Adsorption isotherm of Carbon Dioxide on ZIF-70
DOI: 10.1021/Ja809459e
Adsorbate Carbon Dioxide: InChIKey CURLTUGMZLYLDI-UHFFFAOYSA-N
Temperature: 298 K
Tabular data in the source: 0
pressure (bar)	uptake (cm3(STP)/cm3)
0.069765	3.64084
0.271531	9.1438
0.375376	11.718
0.486645	14.7622
0.59345	17.1002
0.704704	19.4374
0.812987	21.5394
0.912376	23.7609
1.02214	25.8626
1.06961	26.6791
