Adsorption isotherm of Carbon Dioxide on ZIF-69
DOI: 10.1021/Ja809459e
Adsorbate Carbon Dioxide: InChIKey CURLTUGMZLYLDI-UHFFFAOYSA-N
Temperature: 298 K
Tabular data in the source: 0
pressure (bar)	uptake (cm3(STP)/cm3)
0.157397	10.8139
0.207875	13.8689
0.261305	16.3342
0.369658	21.7358
0.473555	26.7848
0.586341	31.4786
0.693194	36.0556
0.80448	39.9248
0.912803	43.9123
1.0226	47.5461
