Adsorption isotherm of Methane on ZIF-78
DOI: 10.1021/Ja809459e
Adsorbate Methane: InChIKey VNWKTOKETHGBQD-UHFFFAOYSA-N
Temperature: 298 K
Tabular data in the source: 0
pressure (bar)	uptake (cm3(STP)/cm3)
0.0741782	1.99022
0.17059	3.62297
0.332258	6.06907
0.492448	8.75112
0.602202	10.2637
0.663008	10.9599
0.821706	13.1709
0.879552	14.1034
0.992266	15.3797
1.09312	16.8938
