Adsorption isotherm of Carbon Dioxide on ZIF-79
DOI: 10.1021/Ja809459e
Adsorbate Carbon Dioxide: InChIKey CURLTUGMZLYLDI-UHFFFAOYSA-N
Temperature: 298 K
Tabular data in the source: 0
pressure (bar)	uptake (cm3(STP)/cm3)
0.0831543	5.75967
0.161818	9.51678
0.271636	14.0933
0.368095	17.9651
0.476403	21.2455
0.587677	24.5255
0.688559	27.218
0.801312	30.3799
0.911083	32.7173
1.06684	36.1072
