Adsorption isotherm of Carbon Dioxide on ZIF-78
DOI: 10.1021/Ja809459e
Adsorbate Carbon Dioxide: InChIKey CURLTUGMZLYLDI-UHFFFAOYSA-N
Temperature: 298 K
Tabular data in the source: 0
pressure (bar)	uptake (cm3(STP)/cm3)
1.75e-05	0.824913
0.0283089	6.47646
0.0729176	12.4787
0.157627	21.6556
0.268998	29.5315
0.378854	35.8756
0.487202	41.0416
0.586633	45.2664
0.694951	49.0183
0.803269	52.7701
0.908607	55.8154
1.01988	58.8597
1.06884	60.383
