Adsorption isotherm of Oxygen on ZIF-78
DOI: 10.1021/Ja809459e
Adsorbate Oxygen: InChIKey MYMOFIZGZYHOMD-UHFFFAOYSA-N
Temperature: 298 K
Tabular data in the source: 0
pressure (bar)	uptake (cm3(STP)/cm3)
0.0682149	0.459292
0.222427	0.903344
0.333643	1.47286
0.441896	2.16075
0.55014	2.37726
0.60501	2.83891
0.768124	3.51708
0.880817	3.85064
0.987583	4.3031
1.08841	4.40308
