Adsorption isotherm of Carbon Dioxide on Carbon
DOI: 10.1021/Ja809459e
Adsorbate Carbon Dioxide: InChIKey CURLTUGMZLYLDI-UHFFFAOYSA-N
Temperature: 298 K
Tabular data in the source: 0
pressure (bar)	uptake (cm3(STP)/cm3)
0.149891	6.45492
0.270049	9.14406
0.366475	11.4839
0.479206	13.5851
0.587489	15.6871
0.695763	17.3178
0.804038	19.0663
0.909343	20.5796
1.01613	22.0927
1.06656	22.6729
