Adsorption isotherm of Carbon Dioxide on ZIF-68
DOI: 10.1021/Ja809459e
Adsorbate Carbon Dioxide: InChIKey CURLTUGMZLYLDI-UHFFFAOYSA-N
Temperature: 298 K
Tabular data in the source: 0
pressure (bar)	uptake (cm3(STP)/cm3)
0.100954	6.11006
0.160318	8.69213
0.262713	12.7986
0.378472	17.8454
0.476408	21.4812
0.596593	25.4667
0.694524	28.8668
0.801347	32.0297
0.914104	35.3094
1.06989	40.1134
