Adsorption isotherm of Carbon Dioxide on ZIF-81
DOI: 10.1021/Ja809459e
Adsorbate Carbon Dioxide: InChIKey CURLTUGMZLYLDI-UHFFFAOYSA-N
Temperature: 298 K
Tabular data in the source: 0
pressure (bar)	uptake (cm3(STP)/cm3)
0.15594	11.9926
0.212353	15.2822
0.261342	18.1018
0.314782	21.0385
0.544828	31.6038
0.757028	39.6975
0.865346	43.4493
0.921714	44.6178
1.02706	48.0166
1.06564	49.3061
