Adsorption isotherm of Carbon Dioxide on ZIF-82
DOI: 10.1021/Ja809459e
Adsorbate Carbon Dioxide: InChIKey CURLTUGMZLYLDI-UHFFFAOYSA-N
Temperature: 298 K
Tabular data in the source: 0
pressure (bar)	uptake (cm3(STP)/cm3)
0.01783	1.76452
0.0683397	6.35153
0.15596	12.9353
0.262847	19.1622
0.374158	24.2098
0.483982	29.022
0.593797	33.4806
0.697667	37.2333
0.810436	41.1022
0.909843	44.1485
1.01964	47.5466
1.07453	49.0688
