Adsorption isotherm of Nitrogen on ZIF-78
DOI: 10.1021/Ja809459e
Adsorbate Nitrogen: InChIKey IJGRMHOSHXDMSA-UHFFFAOYSA-N
Temperature: 298 K
Tabular data in the source: 0
pressure (bar)	uptake (cm3(STP)/cm3)
0.0711853	0.694456
0.225405	1.49204
0.333658	2.17993
0.441904	2.51428
0.551635	2.96622
0.60502	3.31029
0.771094	3.75224
0.879342	4.20444
0.987593	4.77448
1.08991	5.22773
