Adsorption isotherm of Carbon Dioxide on CuBTC
DOI: 10.1007/s10450-019-00124-3
Article source: Figure 3
Adsorbate Carbon Dioxide: InChIKey CURLTUGMZLYLDI-UHFFFAOYSA-N
Kind: experiment
Temperature: 297 K
Tabular data in the source: 0
pressure (bar)	uptake (mmol/g)
0.289	1.65
0.611	3.05
0.973	4.46
1.09	4.91
1.95	6.62
2.63	7.92
3.13	8.17
4.93	9.56
5.57	10.1
8.4	10.7
9.2	11
13.8	11.6
15	11.7
