Adsorption isotherm of Nitrogen, Hydrogen on CuBTC
DOI: 10.1007/s10450-019-00124-3
Article source: Figure 9
Adsorbate Nitrogen: InChIKey IJGRMHOSHXDMSA-UHFFFAOYSA-N
Adsorbate Hydrogen: InChIKey UFHFLCQGNIYNRP-UHFFFAOYSA-N
Kind: experiment
Isotherm type: absolute
Temperature: 297 K
Tabular data in the source: 0
pressure (bar)	Nitrogen fraction	Nitrogen uptake (mmol/g)	Hydrogen fraction	Hydrogen uptake (mmol/g)	total uptake (mmol/g)
10	1	2.31694	0	0	
10	0.80155	1.89618	0.19845	0.121481	
10	0.750388	1.77049	0.249612	0.146667	
10	0.500775	1.25137	0.499225	0.311111	
10	0.249612	0.655738	0.750388	0.457778	
10	0	0	1	0.657778	
