Adsorption isotherm of Hydrogen on CuBTC
DOI: 10.1007/s10450-019-00124-3
Article source: Figure 3
Adsorbate Hydrogen: InChIKey UFHFLCQGNIYNRP-UHFFFAOYSA-N
Kind: experiment
Temperature: 297 K
Tabular data in the source: 0
pressure (bar)	uptake (mmol/g)
0.899	0.00626
3.09	0.0941
4.44	0.165
5.45	0.201
8.08	0.301
9.15	0.335
10.7	0.383
13.3	0.479
14.8	0.538
20.8	0.732
26.3	0.918
28	0.958
32.4	1.1
38.6	1.28
51	1.59
60	1.82
