Adsorption isotherm of Nitrogen, Hydrogen on CuBTC
DOI: 10.1007/s10450-019-00124-3
Article source: Figure 7
Adsorbate Nitrogen: InChIKey IJGRMHOSHXDMSA-UHFFFAOYSA-N
Adsorbate Hydrogen: InChIKey UFHFLCQGNIYNRP-UHFFFAOYSA-N
Kind: experiment
Temperature: 297 K
Tabular data in the source: 0
pressure (bar)	Nitrogen fraction	Nitrogen uptake (mmol/g)	Hydrogen fraction	Hydrogen uptake (mmol/g)	total uptake (mmol/g)
0	0.25	0.001705	0.75	0	
0.997442	0.25	0.068182	0.75	0.032386	
5.01279	0.25	0.296591	0.75	0.129545	
10.0384	0.25	0.58125	0.75	0.247159	
