Adsorption isotherm of Carbon Dioxide, Hydrogen on CuBTC
DOI: 10.1007/s10450-019-00124-3
Article source: Figure 8
Adsorbate Carbon Dioxide: InChIKey CURLTUGMZLYLDI-UHFFFAOYSA-N
Adsorbate Hydrogen: InChIKey UFHFLCQGNIYNRP-UHFFFAOYSA-N
Kind: experiment
Temperature: 297 K
Tabular data in the source: 0
pressure (bar)	Carbon Dioxide fraction	Carbon Dioxide uptake (mmol/g)	Hydrogen fraction	Hydrogen uptake (mmol/g)	total uptake (mmol/g)
10	1	11.2346	0	0	
10	0.748823	10.4691	0.251177	0	
10	0.500785	9.4321	0.499215	0.024691	
10	0.350078	8.34568	0.649922	0.074074	
10	0.010989	0.716049	0.989011	0.320988	
