Adsorption isotherm of Carbon Dioxide, Hydrogen on CuBTC
DOI: 10.1007/s10450-019-00124-3
Article source: Figure 8
Adsorbate Carbon Dioxide: InChIKey CURLTUGMZLYLDI-UHFFFAOYSA-N
Adsorbate Hydrogen: InChIKey UFHFLCQGNIYNRP-UHFFFAOYSA-N
Kind: experiment
Temperature: 297 K
Tabular data in the source: 0
pressure (bar)	Carbon Dioxide fraction	Carbon Dioxide uptake (mmol/g)	Hydrogen fraction	Hydrogen uptake (mmol/g)	total uptake (mmol/g)
10	0.75	10.5	0.25	0	
10	0.5	9.47	0.5	0.0874	
10	0.348	8.39	0.652	0.146	
10	0.013	0.757	0.987	0.379	
