Adsorption isotherm of Nitrogen, Hydrogen on CuBTC
DOI: 10.1007/s10450-019-00124-3
Article source: Figure 7
Adsorbate Nitrogen: InChIKey IJGRMHOSHXDMSA-UHFFFAOYSA-N
Adsorbate Hydrogen: InChIKey UFHFLCQGNIYNRP-UHFFFAOYSA-N
Kind: experiment
Temperature: 297 K
Tabular data in the source: 0
pressure (bar)	Nitrogen fraction	Nitrogen uptake (mmol/g)	Hydrogen fraction	Hydrogen uptake (mmol/g)	total uptake (mmol/g)
0.96	0.25	0.0702	0.75	0.0311	
4.98	0.25	0.297	0.75	0.13	
10	0.25	0.582	0.75	0.246	
