Adsorption isotherm of Nitrogen, Hydrogen on CuBTC
DOI: 10.1007/s10450-019-00124-3
Article source: Figure 7
Adsorbate Nitrogen: InChIKey IJGRMHOSHXDMSA-UHFFFAOYSA-N
Adsorbate Hydrogen: InChIKey UFHFLCQGNIYNRP-UHFFFAOYSA-N
Kind: experiment
Temperature: 297 K
Tabular data in the source: 0
pressure (bar)	Nitrogen fraction	Nitrogen uptake (mmol/g)	Hydrogen fraction	Hydrogen uptake (mmol/g)	total uptake (mmol/g)
10	0.804	1.67	0.196	0.0701	
10	0.751	1.54	0.249	0.0738	
10	0.499	1.1	0.501	0.171	
10	0.252	0.584	0.748	0.249	
