Adsorption isotherm of Nitrogen, Hydrogen on CuBTC
DOI: 10.1007/s10450-019-00124-3
Article source: Figure 7
Adsorbate Nitrogen: InChIKey IJGRMHOSHXDMSA-UHFFFAOYSA-N
Adsorbate Hydrogen: InChIKey UFHFLCQGNIYNRP-UHFFFAOYSA-N
Kind: experiment
Temperature: 297 K
Tabular data in the source: 0
pressure (bar)	Nitrogen fraction	Nitrogen uptake (mmol/g)	Hydrogen fraction	Hydrogen uptake (mmol/g)	total uptake (mmol/g)
10	1	2	0	0	
10	0.804009	1.65979	0.195991	0.061856	
10	0.750557	1.54639	0.249443	0.072165	
10	0.498886	1.09794	0.501114	0.170103	
10	0.25167	0.587629	0.74833	0.252577	
10	0.002227	0	0.997773	0.376289	
