Adsorption isotherm of Nitrogen on CuBTC
DOI: 10.1007/s10450-019-00124-3
Article source: Figure 3
Adsorbate Nitrogen: InChIKey IJGRMHOSHXDMSA-UHFFFAOYSA-N
Kind: experiment
Temperature: 297 K
Tabular data in the source: 0
pressure (bar)	uptake (mmol/g)
0.484	0.126
1.57	0.536
2.9	0.736
4.47	1.04
6.77	1.51
9.92	2.01
15.3	2.69
16.1	2.87
19.6	3.17
23.5	3.49
23	3.58
30.1	4
31.3	4.25
40.5	4.67
56.6	5.33
71.8	5.84
86.9	6.25
