Adsorption isotherm of Hydrogen on C52H73N4O26.5Zn5
DOI: 10.1021/Ic100558x
Adsorbate Hydrogen: InChIKey UFHFLCQGNIYNRP-UHFFFAOYSA-N
Temperature: 77 K
Tabular data in the source: 0
pressure (bar)	uptake (wt%)
0.12987	0.141593
0.25974	0.297345
0.454545	0.467257
1.03896	0.722124
2.01299	1.00531
2.98701	1.18938
3.96104	1.30265
5	1.40177
5.97403	1.47257
7.07792	1.5292
8.05195	1.58584
9.02597	1.61416
10	1.6708
