Adsorption isotherm of Nitrogen on C52H73N4O26.5Zn5
DOI: 10.1021/Ic100558x
Adsorbate Nitrogen: InChIKey IJGRMHOSHXDMSA-UHFFFAOYSA-N
Temperature: 77 K
Tabular data in the source: 0
pressure (bar)	uptake (cm3(STP)/g)
0.0270702	330
0.0511326	341.475
0.0691794	346.066
0.0962497	350.656
0.12332	354.098
0.147382	356.393
0.174453	357.541
0.198515	358.689
0.21957	360.984
0.249648	360.984
0.27371	362.131
0.297772	363.279
0.321835	363.279
0.372967	364.426
0.421092	365.574
0.445155	365.574
0.469217	366.721
0.499295	367.869
0.541404	369.016
0.589529	371.311
0.640662	372.459
0.664724	373.607
0.688787	373.607
0.712849	373.607
0.736911	374.754
0.857224	379.344
0.884294	380.492
0.905348	381.639
0.950465	386.23
0.97152	389.672
