Adsorption isotherm of Nitrogen on C52H73N4O26.5Zn5
DOI: 10.1021/Ic100558x
Adsorbate Nitrogen: InChIKey IJGRMHOSHXDMSA-UHFFFAOYSA-N
Temperature: 77 K
Tabular data in the source: 0
pressure (bar)	uptake (cm3(STP)/g)
0.0241371	283.65
0.0482743	296.354
0.0965486	306.781
0.123703	309.118
0.150857	312.607
0.174994	313.788
0.202149	314.972
0.223269	316.15
0.25344	317.338
0.27456	317.363
0.29568	318.54
0.346971	319.753
0.398263	320.966
0.446537	322.176
0.470674	323.357
0.494811	322.233
0.518949	323.414
0.543086	323.442
0.59136	323.5
0.639634	325.862
0.666789	327.046
0.715063	328.256
0.76032	329.461
0.814629	330.678
0.853851	334.181
0.884023	335.369
0.905143	335.395
0.932297	336.579
0.956434	338.912
0.974537	349.304
