Adsorption isotherm of Isobutanol on ZIF-8
DOI: 10.1039/C3cc45308a
Adsorbate Isobutanol: InChIKey ZXEKIIBDNHEJCQ-UHFFFAOYSA-N
Temperature: 313 K
Tabular data in the source: 0
pressure (bar)	uptake (mg/g)
0.000664	2.64646
0.0022084	11.7994
0.0041534	18.6641
0.00627001	41.5463
0.00838662	114.77
0.0101028	226.321
0.0147365	310.985
0.0181116	325.287
0.0222304	335.012
0.0258916	341.304
0.0298388	347.025
0.0350445	356.75
