Adsorption isotherm of Isobutanol on ZIF-8
DOI: 10.1039/C3cc45308a
Adsorbate Isobutanol: InChIKey ZXEKIIBDNHEJCQ-UHFFFAOYSA-N
Temperature: 313 K
Tabular data in the source: 0
pressure (bar)	uptake (mg/g)
0.000149	0.358227
0.000721	19.2361
0.00100708	53.5595
0.0022084	154.814
0.0041534	245.199
0.00592677	256.068
0.0081578	261.788
0.0100456	265.793
0.014336	273.802
0.0180544	278.95
0.0216011	286.387
0.0260632	294.968
0.029896	306.981
0.0355593	338.444
