Adsorption isotherm of Methane on AlPO4-11
DOI: 10.1016/j.theochem.2006.09.032
Adsorbate Methane: InChIKey VNWKTOKETHGBQD-UHFFFAOYSA-N
Temperature: 673 K
Tabular data in the source: 0
pressure (bar)	uptake (mmol/g)
0.306087	0.00274864
2.5361	0.00274864
12.3853	0.0350334
32.074	0.0888414
108.19	0.298692
193.521	0.476259
328.328	0.653825
688.209	0.863676
996.385	1.03586
1980.99	1.22419
3543.4	1.39637
10199.6	1.52551
36272.3	1.61699
80157.8	1.66541
168019	1.74613
352185	1.8645
629956	2.07974
1187970	2.20887
1813310	2.34339
2767810	2.52096
5801610	2.70929
9336220	2.85995
15000000	2.99447
48100000	3.08594
235000000	3.14513
978000000	3.1828
5040000000	3.19356
11700000000	3.19894
