Adsorption isotherm of Methane on AlPO4-11
DOI: 10.1016/j.theochem.2006.09.032
Adsorbate Methane: InChIKey VNWKTOKETHGBQD-UHFFFAOYSA-N
Temperature: 333 K
Tabular data in the source: 0
pressure (bar)	uptake (mmol/g)
0.0101032	2.0402
0.0120058	2.44957
0.0149098	3.0637
0.0183149	3.67858
0.0201175	4.02005
0.0223205	4.49762
0.0254249	5.11205
0.0280285	5.65798
0.0301318	5.9999
0.0320342	6.47702
0.0357394	7.22785
0.0380426	7.70557
0.0400462	7.91184
0.042149	8.38926
0.0452532	9.07144
0.0477565	9.61722
0.0500603	9.95944
