Adsorption isotherm of Methane on AlPO4-11
DOI: 10.1016/j.theochem.2006.09.032
Adsorbate Methane: InChIKey VNWKTOKETHGBQD-UHFFFAOYSA-N
Temperature: 313 K
Tabular data in the source: 0
pressure (bar)	uptake (mmol/g)
0.100152	0.03
0.154779	0.04625
0.200303	0.06
0.245821	0.0725
0.302721	0.08875
0.35279	0.1025
0.380101	0.11
0.402866	0.1175
0.439268	0.125
0.480234	0.13625
0.514369	0.145
0.566705	0.1575
0.603119	0.1675
0.632702	0.175
0.675934	0.185
0.714615	0.19375
0.744192	0.2
0.771496	0.20625
0.803352	0.21375
0.839766	0.22375
0.880713	0.23125
0.917121	0.24
0.946705	0.2475
0.983112	0.25625
1.00359	0.26125
