Adsorption isotherm of Methane on AlPO4-11
DOI: 10.1016/j.theochem.2006.09.032
Adsorbate Methane: InChIKey VNWKTOKETHGBQD-UHFFFAOYSA-N
Temperature: 313 K
Tabular data in the source: 0
pressure (bar)	uptake (mmol/g)
0.00154895	0.00274864
0.0075645	-0.00263216
0.056388	0.00812943
0.153953	0.0404142
0.290326	0.0834606
0.547498	0.126507
0.88106	0.234123
1.66151	0.374023
2.28166	0.513924
2.97194	0.637682
4.78259	0.799106
6.56767	0.906722
8.11416	1.0251
13.0577	1.17038
17.9314	1.29414
33.8152	1.41252
67.2305	1.49861
165.14	1.56856
528.36	1.59546
2201.9	1.59546
7044.9	1.60623
21379.3	1.62237
76030.5	1.69232
177140	1.78917
243257	1.90217
371304	2.02593
597519	2.19811
961556	2.33263
1467710	2.48868
1911740	2.61781
3419540	2.79
6448590	2.90838
11500000	2.99447
28300000	3.11285
86000000	3.17204
492000000	3.18818
835000000	3.19356
2820000000	3.20432
10600000000	3.20432
