Adsorption isotherm of Methane on AlPO4-11
DOI: 10.1016/j.theochem.2006.09.032
Adsorbate Methane: InChIKey VNWKTOKETHGBQD-UHFFFAOYSA-N
Temperature: 296 K
Tabular data in the source: 0
pressure (bar)	uptake (mmol/g)
0.100215	0.0425
0.150316	0.0625
0.182197	0.075
0.200423	0.08375
0.24142	0.10125
0.284684	0.1175
0.323396	0.1325
0.3644	0.15125
0.400833	0.165
0.446364	0.18
0.485069	0.19375
0.532891	0.2125
0.564773	0.225
0.601199	0.2375
0.633068	0.2475
0.664949	0.26
0.703649	0.2725
0.733251	0.28375
0.769678	0.29625
0.801559	0.30875
0.842525	0.32
0.892607	0.33625
0.935859	0.35
0.967727	0.36
0.999609	0.3725
