Adsorption isotherm of Methane on AlPO4-11
DOI: 10.1016/j.theochem.2006.09.032
Adsorbate Methane: InChIKey VNWKTOKETHGBQD-UHFFFAOYSA-N
Temperature: 296 K
Tabular data in the source: 0
pressure (bar)	uptake (mmol/g)
0.0389475	0.0135102
0.100861	0.0404142
0.261198	0.0942222
0.467206	0.185696
0.88106	0.320216
1.41784	0.519305
2.5361	0.745298
3.87107	0.939007
5.90875	1.11119
10.0248	1.27262
16.1324	1.39637
39.6265	1.50937
148.572	1.57394
806.482	1.60084
3938.55	1.60623
14006.5	1.62237
52514.8	1.66003
143379	1.78917
243257	1.9506
371304	2.10664
597519	2.28421
1126800	2.44025
1911740	2.64472
3076460	2.80076
5502880	2.9299
9843030	3.04828
21800000	3.11285
38900000	3.15051
146000000	3.17742
792000000	3.19894
4530000000	3.20432
10600000000	3.21508
