Adsorption isotherm of Methane on AlPO4-11
DOI: 10.1016/j.theochem.2006.09.032
Adsorbate Methane: InChIKey VNWKTOKETHGBQD-UHFFFAOYSA-N
Temperature: 373 K
Tabular data in the source: 0
pressure (bar)	uptake (mmol/g)
0.00680556	0.00812943
0.162311	0.00274864
0.420332	0.0296526
1.08852	0.072699
2.28166	0.153411
3.67175	0.234123
5.60451	0.3525
10.569	0.562351
14.5138	0.723775
25.961	0.917484
41.7776	1.10581
70.8801	1.26724
108.19	1.36409
226.778	1.48785
528.36	1.53089
1107.5	1.5847
2201.9	1.59546
10753.2	1.60623
32633.1	1.63851
76030.5	1.71384
135996	1.77841
300536	1.93445
483637	2.07974
778291	2.21964
1252460	2.36492
2015520	2.54786
2918060	2.70391
6448590	2.87071
12800000	3.01061
33200000	3.11823
112000000	3.17204
577000000	3.1828
1950000000	3.19356
10000000000	3.2097
