Adsorption isotherm of Methane on AlPO4-11
DOI: 10.1016/j.theochem.2006.09.032
Adsorbate Methane: InChIKey VNWKTOKETHGBQD-UHFFFAOYSA-N
Temperature: 573 K
Tabular data in the source: 0
pressure (bar)	uptake (mmol/g)
0.0315245	0.00274864
0.420332	0.00274864
2.97194	0.0242718
9.50863	0.0619374
33.8152	0.201838
63.7688	0.357881
97.3358	0.492401
193.521	0.723775
328.328	0.928245
619.162	1.11119
996.385	1.26724
2088.53	1.40714
3187.9	1.48785
10199.6	1.57394
34404.6	1.63851
93933.4	1.71922
196894	1.81608
435115	1.96136
664153	2.09588
1187970	2.2573
1911740	2.42411
2918060	2.57477
4950790	2.72543
8855500	2.87609
13500000	2.98371
35000000	3.08056
95600000	3.15589
398000000	3.18818
1570000000	3.2097
11100000000	3.20432
