Adsorption isotherm of Methane on AlPO4-11
DOI: 10.1016/j.theochem.2006.09.032
Adsorbate Methane: InChIKey VNWKTOKETHGBQD-UHFFFAOYSA-N
Temperature: 313 K
Tabular data in the source: 0
pressure (bar)	uptake (mmol/g)
0.100152	0.03
0.154779	0.04625
0.200303	0.06
0.245821	0.0725
0.316389	0.095
0.350543	0.1075
0.375574	0.11375
0.400612	0.12125
0.434747	0.13
0.477986	0.14125
0.530328	0.155
0.573567	0.16625
0.600884	0.175
0.632746	0.18375
0.682809	0.19625
0.728321	0.2075
0.769287	0.21875
0.823908	0.23375
0.858043	0.2425
0.889905	0.25125
0.921761	0.25875
0.962721	0.26875
1.00368	0.27875
