Adsorption isotherm of Methane on AlPO4-11
DOI: 10.1016/j.theochem.2006.09.032
Adsorbate Methane: InChIKey VNWKTOKETHGBQD-UHFFFAOYSA-N
Temperature: 473 K
Tabular data in the source: 0
pressure (bar)	uptake (mmol/g)
1.03247	0.00274864
2.97194	0.0404142
6.9242	0.115745
16.1324	0.239504
24.6242	0.363262
37.5861	0.524686
74.7278	0.734537
102.62	0.874437
239.089	1.17038
557.043	1.36947
1050.47	1.46632
2321.43	1.53628
4377.77	1.57932
13285.3	1.60623
36272.3	1.62775
104409	1.6977
207583	1.80531
391460	1.96136
537571	2.06897
1013750	2.2304
1467710	2.34878
2124930	2.47791
3076460	2.61243
4950790	2.73619
6798650	2.85995
11500000	2.9568
26900000	3.04828
81600000	3.13975
378000000	3.18818
1090000000	3.20432
11100000000	3.21508
