Adsorption isotherm of Methane on AlPO4-11
DOI: 10.1016/j.theochem.2006.09.032
Adsorbate Methane: InChIKey VNWKTOKETHGBQD-UHFFFAOYSA-N
Temperature: 303 K
Tabular data in the source: 0
pressure (bar)	uptake (mmol/g)
0.00999399	4.27581
0.0109938	4.88707
0.0129958	5.49984
0.0154964	6.72312
0.0181986	7.6757
0.0199016	7.88151
0.0213006	8.89988
0.027204	11.3478
0.0299056	12.4359
0.0328072	13.6598
0.0374103	15.4282
0.0400123	16.3806
0.0441138	18.2838
0.0468154	19.3719
0.0499172	20.6638
