Adsorption isotherm of Methane on AlPO4-11
DOI: 10.1016/j.theochem.2006.09.032
Adsorbate Methane: InChIKey VNWKTOKETHGBQD-UHFFFAOYSA-N
Temperature: 323 K
Tabular data in the source: 0
pressure (bar)	uptake (mmol/g)
0.0101018	2.37895
0.0133057	3.19679
0.0164093	4.01447
0.0200135	4.9684
0.022116	5.51357
0.0248193	6.19515
0.0283238	7.01344
0.0301256	7.55815
0.0325288	8.10378
0.0357323	8.98936
0.0383357	9.60303
0.039937	10.1475
0.0420401	10.5571
0.0449433	11.3745
0.0473459	12.0556
0.0499492	12.6693
