Adsorption isotherm of Methane on AlPO4-11
DOI: 10.1016/j.theochem.2006.09.032
Adsorbate Methane: InChIKey VNWKTOKETHGBQD-UHFFFAOYSA-N
Temperature: 296 K
Tabular data in the source: 0
pressure (bar)	uptake (mmol/g)
0.100234	0.04625
0.154905	0.07125
0.200473	0.09375
0.261957	0.1175
0.346225	0.1525
0.40089	0.17625
0.446427	0.1925
0.487412	0.2075
0.535227	0.225
0.564836	0.2375
0.601269	0.25125
0.642247	0.265
0.701446	0.28625
0.76065	0.30875
0.801629	0.3225
0.840328	0.335
0.897241	0.35375
0.940499	0.36875
0.976926	0.38125
1.00197	0.39
