Adsorption isotherm of Krypton on MOF-74-Ni
DOI: 10.1039/C3cc47777k
Adsorbate Krypton: InChIKey DNNSSWSSYDEUBZ-UHFFFAOYSA-N
Temperature: 77 K
Tabular data in the source: 0
pressure (bar)	uptake (mmol/g)
0.0130209	0.0130899
0.0477336	0.0258921
0.0954729	0.0650468
0.195296	0.156561
0.299457	0.248018
0.399285	0.352795
0.499102	0.431046
0.598919	0.509298
0.700917	0.614046
0.798571	0.705589
0.898388	0.783841
0.996036	0.862122
