Adsorption isotherm of Xenon on MOF-74Ni-Ag
DOI: 10.1039/C3cc47777k
Adsorbate Xenon: InChIKey FHNFHKCVQCLJFQ-UHFFFAOYSA-N
Temperature: 77 K
Tabular data in the source: 0
pressure (bar)	uptake (mmol/g)
0.019609	0.198679
0.0501272	0.543102
0.102406	1.04639
0.198265	2.00002
0.30055	2.7679
0.398399	3.31037
0.500535	3.73341
0.598281	4.03716
0.702517	4.30103
0.80238	4.48538
0.904406	4.65644
0.997745	4.80109
