Adsorption isotherm of Krypton on MOF-74Ni-Ag
DOI: 10.1039/C3cc47777k
Adsorbate Krypton: InChIKey DNNSSWSSYDEUBZ-UHFFFAOYSA-N
Temperature: 77 K
Tabular data in the source: 0
pressure (bar)	uptake (mmol/g)
0.0477451	0.0524172
0.0976651	0.118068
0.199663	0.222816
0.299486	0.31433
0.397145	0.419136
0.496973	0.523913
0.59896	0.602136
0.698788	0.706913
0.796436	0.785193
0.898434	0.889941
0.998257	0.981455
