Adsorption isotherm of Xenon on MOF-74-Ni
DOI: 10.1039/C3cc47777k
Adsorbate Xenon: InChIKey FHNFHKCVQCLJFQ-UHFFFAOYSA-N
Temperature: 77 K
Tabular data in the source: 0
pressure (bar)	uptake (mmol/g)
0.0174225	0.15892
0.0479004	0.410505
0.100145	0.834216
0.200261	1.60212
0.302466	2.18432
0.400246	2.56764
0.500161	2.87135
0.600041	3.09549
0.699899	3.26658
0.79975	3.42441
0.899585	3.54245
0.997227	3.60746
