Adsorption isotherm of Copper(II) Ion, Water on Fe3O4-tea composite
DOI: 10.1016/j.jece.2017.07.022
Article source: Figure 7
Adsorbate Copper(II) Ion: InChIKey JPVYNHNXODAKFH-UHFFFAOYSA-N
Adsorbate Water: InChIKey XLYOFNOQVPJJNP-UHFFFAOYSA-N
Kind: experiment
Temperature: 298 K
Tabular data in the source: 0
pressure (bar)	Copper(II) Ion fraction	Copper(II) Ion uptake (mg/g)	Water fraction	Water uptake (mg/g)	total uptake (mg/g)
1.01325	0.544	20.27			
1.01325	2.74	34.134			
1.01325	10.002	59.719			
1.01325	22.634	74.74			
1.01325	38.852	82.072			
1.01325	56.11	88.095			
1.01325	74.557	89.94			
1.01325	99.735	93.432			
