Adsorption isotherm of Copper(II) Ion, Zn(II), Water on Fe3O4-tea composite
DOI: 10.1016/j.jece.2017.07.022
Article source: Figure 7
Adsorbate Copper(II) Ion: InChIKey JPVYNHNXODAKFH-UHFFFAOYSA-N
Adsorbate Zn(II): InChIKey PTFCDOFLOPIGGS-UHFFFAOYSA-N
Adsorbate Water: InChIKey XLYOFNOQVPJJNP-UHFFFAOYSA-N
Kind: experiment
Temperature: 298 K
Tabular data in the source: 0
pressure (bar)	Copper(II) Ion fraction	Copper(II) Ion uptake (mg/g)	Zn(II) fraction	Zn(II) uptake (mg/g)	Water fraction	Water uptake (mg/g)	total uptake (mg/g)
1.01325	0.204	20.39	3.933	11.626			
1.01325	3.026	34.253	9.559	20.389			
1.01325	12.538	53.791	25.556	29.241			
1.01325	24.538	71.231	43.333	33.226			
1.01325	41.622	75.864	63.038	33.847			
1.01325	59.314	80.341	80.963	38.009			
1.01325	79.052	82.246	99.778	40.578			
1.01325	105.423	82.266	125.556	42.881			
