Adsorption isotherm of Copper(II) Ion, Water on Fe3O4
DOI: 10.1016/j.jece.2017.07.022
Article source: Figure 7
Adsorbate Copper(II) Ion: InChIKey JPVYNHNXODAKFH-UHFFFAOYSA-N
Adsorbate Water: InChIKey XLYOFNOQVPJJNP-UHFFFAOYSA-N
Kind: experiment
Temperature: 298 K
Tabular data in the source: 0
pressure (bar)	Copper(II) Ion fraction	Copper(II) Ion uptake (mg/g)	Water fraction	Water uptake (mg/g)	total uptake (mg/g)
1.01325	2.153	15.573			
1.01325	6.719	26.215			
1.01325	18.677	42.302			
1.01325	33.724	52.777			
1.01325	51.901	55.853			
1.01325	69.165	60.883			
1.01325	89.168	61.632			
1.01325	115.521	62.214			
