Adsorption isotherm of Zn(II), Water on Fe3O4
DOI: 10.1016/j.jece.2017.07.022
Article source: Figure 7
Adsorbate Zn(II): InChIKey PTFCDOFLOPIGGS-UHFFFAOYSA-N
Adsorbate Water: InChIKey XLYOFNOQVPJJNP-UHFFFAOYSA-N
Kind: experiment
Temperature: 298 K
Tabular data in the source: 0
pressure (bar)	Zn(II) fraction	Zn(II) uptake (mg/g)	Water fraction	Water uptake (mg/g)	total uptake (mg/g)
1.01325	4.079	11.279			
1.01325	10.041	19.145			
1.01325	24.911	29.782			
1.01325	41.65	36.392			
1.01325	60.119	39.935			
1.01325	77.728	44.094			
1.01325	97.214	45.972			
1.01325	123.902	46.605			
