Adsorption isotherm of Zn(II), Water on Fe3O4-tea composite
DOI: 10.1016/j.jece.2017.07.022
Article source: Figure 7
Adsorbate Zn(II): InChIKey PTFCDOFLOPIGGS-UHFFFAOYSA-N
Adsorbate Water: InChIKey XLYOFNOQVPJJNP-UHFFFAOYSA-N
Kind: experiment
Temperature: 298 K
Tabular data in the source: 0
pressure (bar)	Zn(II) fraction	Zn(II) uptake (mg/g)	Water fraction	Water uptake (mg/g)	total uptake (mg/g)
1.01325	2.77	13.573			
1.01325	7.425	24.665			
1.01325	20.098	38.983			
1.01325	35.902	47.3			
1.01325	53.109	53.91			
1.01325	71.219	57.798			
1.01325	89.857	59.869			
1.01325	116.675	60.711			
