Adsorption isotherm of Nitrogen on CuP-COF
DOI: 10.1002/anie.201106203
Article source: Figure 4c
Adsorbate Nitrogen: InChIKey IJGRMHOSHXDMSA-UHFFFAOYSA-N
Kind: experiment
Temperature: 77 K
Tabular data in the source: 0
pressure (bar)	uptake (cm3(STP)/g)
0.006284	245.283
0.025135	298.113
0.037702	328.302
0.043986	373.585
0.062837	403.774
0.10054	426.415
0.125674	449.057
0.163377	456.604
0.188512	464.151
0.245065	479.245
0.263916	479.245
0.301619	486.792
0.326753	486.792
0.351888	494.34
0.446144	494.34
0.521549	501.887
0.552967	509.434
0.653507	509.434
0.716344	509.434
0.8106	532.076
0.873437	554.717
0.936274	569.811
0.973977	607.547
0.992828	645.283
0.992828	766.038
0.999112	796.226
0.973977	683.019
0.961409	645.283
0.917423	607.547
0.854586	584.906
0.829451	577.359
0.766614	562.264
0.722628	547.17
0.628372	532.076
0.571819	532.076
0.515265	516.981
0.446144	516.981
0.377023	494.34
0.333037	471.698
0.087972	441.509
