Adsorption isotherm of Nitrogen on H2P-COF
DOI: 10.1002/anie.201106203
Article source: Figure 4a
Adsorbate Nitrogen: InChIKey IJGRMHOSHXDMSA-UHFFFAOYSA-N
Kind: experiment
Temperature: 77 K
Tabular data in the source: 0
pressure (bar)	uptake (cm3(STP)/g)
0.006284	250.549
0.018851	276.923
0.037702	316.484
0.043986	356.044
0.056553	375.824
0.069121	421.978
0.119391	448.352
0.144526	468.132
0.188512	481.319
0.238781	481.319
0.276484	487.912
0.307902	487.912
0.377023	487.912
0.414726	494.505
0.458712	507.692
0.515265	507.692
0.578102	507.692
0.622088	514.286
0.678642	520.879
0.722628	520.879
0.779181	520.879
0.823167	540.659
0.873437	540.659
0.917423	560.44
0.955126	586.813
0.98026	632.967
0.992828	712.088
0.992828	646.154
0.923707	580.22
0.879721	560.44
0.804316	540.659
0.741479	540.659
0.697493	534.066
0.653507	520.879
0.59067	520.879
0.521549	520.879
0.49013	520.879
0.301619	507.692
0.163377	481.319
0.062837	441.758
