Adsorption isotherm of Nitrogen on ZnP-COF
DOI: 10.1002/anie.201106203
Article source: Figure 4b
Adsorbate Nitrogen: InChIKey IJGRMHOSHXDMSA-UHFFFAOYSA-N
Kind: experiment
Temperature: 77 K
Tabular data in the source: 0
pressure (bar)	uptake (cm3(STP)/g)
0.012471	266.667
0.031177	298.99
0.043648	331.313
0.062354	404.04
0.08106	428.283
0.093531	468.687
0.130943	484.848
0.174591	492.929
0.218238	501.01
0.24318	509.091
0.286828	509.091
0.311769	517.172
0.374123	533.333
0.430242	533.333
0.461418	533.333
0.530008	541.414
0.561185	557.576
0.623538	557.576
0.660951	565.657
0.723305	565.657
0.748246	573.737
0.798129	589.899
0.854248	597.98
0.910366	614.141
0.978955	654.545
0.985191	727.273
1.0039	856.566
0.978955	791.919
0.991426	743.434
0.941543	662.626
0.89166	630.303
0.835542	606.061
0.785658	606.061
0.72954	589.899
0.685892	581.818
0.636009	581.818
0.573655	573.737
0.561185	573.737
0.473889	557.576
0.342946	541.414
0.280592	525.253
0.193297	525.253
0.099766	476.768
0.068589	460.606
0.056118	371.717
