Adsorption isotherm of Carbon Dioxide on Co-MOF
DOI: 10.1021/Sc300036p
Adsorbate Carbon Dioxide: InChIKey CURLTUGMZLYLDI-UHFFFAOYSA-N
Temperature: 298 K
Tabular data in the source: 0
pressure (bar)	uptake (mmol/g)
0.120616	-0.103804
0.195448	-0.0215191
0.270203	0.0814202
0.360141	0.142984
0.510194	0.204282
0.675275	0.265514
0.855384	0.326679
1.02054	0.367256
1.17067	0.407899
1.29075	0.448676
1.42584	0.489386
1.53074	0.571538
1.66592	0.591594
1.81605	0.632237
1.9211	0.67308
2.02629	0.672615
2.17658	0.671949
2.31168	0.71266
2.40186	0.71226
2.55206	0.73225
2.65726	0.731784
2.76245	0.731318
2.89748	0.792683
3.00261	0.812872
3.13786	0.812273
3.28814	0.811608
3.43836	0.831597
3.57353	0.851653
3.72367	0.892296
3.82878	0.912485
3.96405	0.911886
4.15918	0.972985
4.27949	0.951798
4.38453	0.992641
4.53489	0.971322
4.62499	0.991577
4.77535	0.970257
4.92541	1.03156
5.0306	1.03109
5.15052	1.11318
5.28594	1.07127
5.39113	1.0708
5.52631	1.09086
5.64654	1.09033
5.78179	1.08973
5.88692	1.10992
6.03728	1.0886
6.11235	1.10892
6.24769	1.08766
6.44282	1.14876
6.57815	1.12751
6.6832	1.16835
6.77336	1.16795
6.96867	1.18774
7.08882	1.20787
7.19401	1.2074
7.37443	1.18595
7.53967	1.20587
7.68987	1.22586
7.97534	1.24525
8.11044	1.28596
8.32085	1.28503
8.48608	1.30495
8.72631	1.36585
8.90664	1.36505
9.10201	1.36419
9.25231	1.36352
9.40259	1.36286
9.58277	1.40337
9.73305	1.4027
9.88327	1.42269
