Adsorption isotherm of Nitrogen on Cu-MOF-SDS
DOI: 10.1021/Sc300036p
Adsorbate Nitrogen: InChIKey IJGRMHOSHXDMSA-UHFFFAOYSA-N
Temperature: 393 K
Tabular data in the source: 0
pressure (bar)	uptake (cm3(STP)/g)
0.0102209	86.0432
0.049445	91.5028
0.14746	96.0119
0.259168	95.1737
0.404206	96.5568
0.513948	94.6392
0.635482	99.1982
0.747232	106.962
0.835501	122.203
0.900383	164.277
0.93201	219.182
0.949885	267.607
0.979542	320.359
0.997455	376.311
1.00162	426.857
1.0096	455.906
