Adsorption isotherm of Carbon Dioxide on In-MOF
DOI: 10.1021/Sc300036p
Adsorbate Carbon Dioxide: InChIKey CURLTUGMZLYLDI-UHFFFAOYSA-N
Temperature: 298 K
Tabular data in the source: 0
pressure (bar)	uptake (mmol/g)
0.000686502	0.0749084
0.0318366	0.140545
0.0782612	0.206228
0.201402	0.309595
0.323943	0.347417
0.462187	0.432103
0.554178	0.469833
0.691908	0.498337
0.829724	0.536205
1.01345	0.583575
1.10527	0.602578
1.28899	0.649947
1.38081	0.66895
1.51854	0.697455
1.595	0.707048
1.6869	0.735414
1.77872	0.754417
1.88574	0.764103
1.97746	0.773742
2.14566	0.792975
2.22203	0.793205
2.35967	0.812346
2.46677	0.831395
2.60441	0.850536
2.75725	0.860359
2.86426	0.870044
2.98671	0.898503
3.12418	0.898917
3.26174	0.908694
3.39947	0.937198
3.49113	0.937474
3.64403	0.956661
3.73577	0.9663
3.88869	0.985487
3.99562	0.985809
4.13326	1.00495
4.24036	1.024
4.39319	1.03382
4.51547	1.04355
4.62247	1.05324
4.75994	1.05365
4.86704	1.0727
5.00468	1.09184
5.12697	1.10157
5.27989	1.12076
5.35635	1.13035
5.50917	1.14018
5.63138	1.14055
5.75374	1.15964
5.84548	1.16928
5.99831	1.1791
6.1054	1.19815
6.24287	1.19857
6.39579	1.21775
6.48753	1.22739
6.60972	1.22776
6.74728	1.23754
6.85429	1.24722
6.97657	1.25695
7.12949	1.27614
7.23642	1.27646
7.37415	1.30497
7.49634	1.30533
7.63391	1.31511
7.74083	1.31543
7.87838	1.32521
7.9854	1.3349
8.12287	1.33531
8.21459	1.34495
8.35225	1.36409
8.47453	1.37382
