Adsorption isotherm of Carbon Dioxide on Cu-MOF-CTAB
DOI: 10.1021/Sc300036p
Adsorbate Carbon Dioxide: InChIKey CURLTUGMZLYLDI-UHFFFAOYSA-N
Temperature: 298 K
Tabular data in the source: 0
pressure (bar)	uptake (mmol/g)
3.9528	0.0418316
8.90103	0.181737
15.8239	0.321531
23.7434	0.573418
34.1346	0.86722
39.5754	0.993079
50.4556	1.23078
62.3267	1.51048
74.199	1.8042
86.0678	2.05586
100.407	2.33542
112.276	2.58708
124.639	2.83872
136.502	3.02028
149.359	3.28591
160.734	3.5376
173.09	3.70512
185.446	3.88666
198.299	4.09621
203.24	4.15201
205.712	4.19392
211.149	4.27773
217.08	4.3615
222.023	4.43132
227.461	4.52914
232.897	4.59892
237.839	4.65472
243.768	4.72447
