Adsorption isotherm of Carbon Dioxide on Cu-MOF
DOI: 10.1021/Sc300036p
Adsorbate Carbon Dioxide: InChIKey CURLTUGMZLYLDI-UHFFFAOYSA-N
Temperature: 298 K
Tabular data in the source: 0
pressure (bar)	uptake (mmol/g)
0.626691	1.71537
1.36802	2.60711
2.15226	3.18064
2.90433	3.57616
3.65554	3.87804
4.40605	4.10502
4.80397	4.19049
5.18644	4.25718
5.53836	4.32379
5.92082	4.39048
6.31839	4.43849
6.67022	4.49573
7.02189	4.53424
7.32756	4.55389
7.52629	4.57322
7.7555	4.58327
8.00016	4.61209
8.0918	4.61237
8.29054	4.6317
8.39755	4.64138
8.85596	4.66149
9.02415	4.68072
9.49793	4.71024
9.69659	4.7202
9.95617	4.71161
