Adsorption isotherm of Nitrogen on Cu-MOF-P123
DOI: 10.1021/Sc300036p
Adsorbate Nitrogen: InChIKey IJGRMHOSHXDMSA-UHFFFAOYSA-N
Temperature: 393 K
Tabular data in the source: 0
pressure (bar)	uptake (cm3(STP)/g)
0.0139721	51.6426
0.0590705	56.0394
0.145321	59.4482
0.247235	59.6645
0.349155	60.9561
0.454989	61.1807
0.574541	61.4345
0.654907	63.7556
0.790192	74.7954
0.898117	101.906
0.957114	142.892
0.986876	217.148
1.00086	270.941
1.0149	337.638
