Adsorption isotherm of Nitrogen on Cu-MOF
DOI: 10.1021/Sc300036p
Adsorbate Nitrogen: InChIKey IJGRMHOSHXDMSA-UHFFFAOYSA-N
Temperature: 393 K
Tabular data in the source: 0
pressure (bar)	uptake (cm3(STP)/g)
0.119685	27.1357
0.184371	29.4236
0.319603	29.7106
0.441133	33.1943
0.627353	40.0412
0.79987	50.0848
0.841059	56.6238
0.909771	80.4255
0.960886	112.792
0.988546	158.012
0.994605	194.584
1.01054	246.231
