Adsorption isotherm of Carbon Dioxide on Cu-MOF
DOI: 10.1021/Sc300036p
Adsorbate Carbon Dioxide: InChIKey CURLTUGMZLYLDI-UHFFFAOYSA-N
Temperature: 298 K
Tabular data in the source: 0
pressure (bar)	uptake (mmol/g)
1.99513	0.0825688
7.57276	0.247706
15.5387	0.46789
23.1151	0.743119
28.3086	1.00459
33.8826	1.1422
38.2696	1.30734
45.0361	1.45872
49.0319	1.66514
61.383	2.0367
74.1311	2.40826
86.8791	2.77982
99.2323	3.16514
112.374	3.50917
124.723	3.86697
137.467	4.21101
149.808	4.5
162.945	4.81651
175.287	5.11927
185.64	5.38073
196.782	5.61468
204.352	5.83486
211.114	5.95872
215.893	6.08257
219.464	6.08257
223.451	6.22018
229.021	6.33028
235.389	6.46789
242.15	6.57798
246.528	6.67431
