Adsorption isotherm of Carbon Dioxide on Cu-MOF-CTAB
DOI: 10.1021/Sc300036p
Adsorbate Carbon Dioxide: InChIKey CURLTUGMZLYLDI-UHFFFAOYSA-N
Temperature: 298 K
Tabular data in the source: 0
pressure (bar)	uptake (mmol/g)
1.97813	0.0419437
8.90794	0.265849
15.8343	0.447699
26.7239	0.797548
37.6133	1.1474
44.5454	1.39934
50.9759	1.55318
61.8584	1.81892
75.2211	2.2247
86.596	2.47639
99.4603	2.82613
110.842	3.16193
124.194	3.44154
135.574	3.74931
148.431	4.01493
160.794	4.26657
174.146	4.54618
185.519	4.76984
198.376	5.03546
204.312	5.17531
209.254	5.24513
218.148	5.34275
224.083	5.46858
229.524	5.59444
233.479	5.66431
238.917	5.76213
243.365	5.81795
245.836	5.85987
