Adsorption isotherm of Carbon Dioxide on Co-MOF
DOI: 10.1021/Sc300036p
Adsorbate Carbon Dioxide: InChIKey CURLTUGMZLYLDI-UHFFFAOYSA-N
Temperature: 298 K
Tabular data in the source: 0
pressure (bar)	uptake (mmol/g)
0.629151	0.644286
1.40732	0.71969
2.15454	0.720437
2.87155	0.767796
3.63419	0.796543
4.35096	0.806588
4.76281	0.825656
5.1288	0.826022
5.49496	0.854373
5.86105	0.873396
6.27279	0.873807
6.63872	0.864845
6.92846	0.865134
7.2487	0.865454
7.50788	0.856385
7.70601	0.837926
7.9348	0.847483
8.01105	0.84756
8.25497	0.838475
8.34654	0.847895
8.75816	0.82965
8.95628	0.811191
9.42884	0.783678
9.62702	0.774548
9.90135	0.746837
