Adsorption isotherm of Carbon Dioxide on Cu-MOF
DOI: 10.1021/Sc300036p
Adsorbate Carbon Dioxide: InChIKey CURLTUGMZLYLDI-UHFFFAOYSA-N
Temperature: 298 K
Tabular data in the source: 0
pressure (bar)	uptake (mmol/g)
0.191258	1.09382
0.309081	1.73357
0.590433	2.84764
0.634121	3.21922
0.827164	3.83799
1.04949	4.66317
1.3028	5.24036
1.43604	5.77678
1.54078	5.90024
1.79432	6.41547
2.01789	6.91017
2.25679	7.3222
2.51103	7.65154
2.78038	7.96015
3.04982	8.24812
3.27408	8.55694
3.4985	8.82445
3.73825	9.00927
3.97809	9.17344
4.26293	9.35807
4.50262	9.56355
4.75756	9.707
4.96748	9.82999
5.20748	9.95285
5.4625	10.0756
5.68753	10.1779
5.94263	10.2801
6.16768	10.3823
6.42284	10.4638
6.64804	10.5248
6.97813	10.6679
7.17326	10.729
7.44339	10.8311
7.68362	10.892
7.9089	10.9323
8.13401	11.0139
8.37431	11.0542
8.65946	11.1562
8.86971	11.1965
9.09483	11.2782
9.39524	11.3181
9.62052	11.3585
9.87561	11.4606
