Adsorption isotherm of Carbon Dioxide on Cu-MOF-P123
DOI: 10.1021/Sc300036p
Adsorbate Carbon Dioxide: InChIKey CURLTUGMZLYLDI-UHFFFAOYSA-N
Temperature: 298 K
Tabular data in the source: 0
pressure (bar)	uptake (mmol/g)
4.17579	0.10096
15.7752	0.490642
34.3343	0.995579
44.0776	1.21188
50.1096	1.37056
62.6367	1.70236
74.7003	2.03418
86.7636	2.30817
99.7548	2.63994
111.354	2.91396
123.882	3.17347
134.089	3.46203
148.936	3.70694
158.68	3.92324
173.063	4.22601
184.199	4.41331
196.262	4.61501
203.222	4.73027
210.181	4.88889
216.677	4.98972
223.173	5.09054
230.132	5.19134
235.7	5.2633
243.588	5.39296
