Adsorption isotherm of Nitrogen on Cu-MOF-CTAB
DOI: 10.1021/Sc300036p
Adsorbate Nitrogen: InChIKey IJGRMHOSHXDMSA-UHFFFAOYSA-N
Temperature: 393 K
Tabular data in the source: 0
pressure (bar)	uptake (cm3(STP)/g)
0.0103737	117.226
0.100565	124.945
0.249537	129.562
0.39459	134.171
0.569051	140.993
0.716075	147.756
0.841581	163.077
0.935892	211.664
0.97932	275.197
1.00117	334.383
1.00728	380.632
1.01147	436.555
