Adsorption isotherm of Carbon Dioxide on Cu-MOF-P123
DOI: 10.1021/Sc300036p
Adsorbate Carbon Dioxide: InChIKey CURLTUGMZLYLDI-UHFFFAOYSA-N
Temperature: 298 K
Tabular data in the source: 0
pressure (bar)	uptake (mmol/g)
8.35158	0.230836
14.8472	0.360576
21.8069	0.54812
25.5186	0.620192
31.0864	0.79336
35.7262	0.894293
40.366	0.96631
42.2219	1.03849
50.1096	1.15369
61.7088	1.42771
74.2362	1.62939
86.7636	1.83106
97.8991	2.0039
111.354	2.17661
123.882	2.34937
135.945	2.49324
148.008	2.62266
161.928	2.75196
173.063	2.88143
184.662	3.01087
196.726	3.11137
203.686	3.18325
210.645	3.24067
216.213	3.28372
223.173	3.34115
228.74	3.38419
232.916	3.42732
240.34	3.47026
246.371	3.49882
