Adsorption isotherm of Carbon Dioxide on Cu-MOF
DOI: 10.1021/Sc300036p
Adsorbate Carbon Dioxide: InChIKey CURLTUGMZLYLDI-UHFFFAOYSA-N
Temperature: 298 K
Tabular data in the source: 0
pressure (bar)	uptake (mmol/g)
1.40583	5.81822
2.1062	7.40548
2.91377	8.45526
3.66218	9.25746
4.38145	9.81193
4.75632	10.0375
5.14635	10.2216
5.47636	10.3854
5.83651	10.5284
6.25653	10.7331
6.61683	10.8347
6.96217	10.9158
7.26212	11.0797
7.45733	11.1202
7.69779	11.1191
8.02795	11.2416
8.28321	11.3024
8.85383	11.4238
8.95902	11.4233
9.4397	11.4832
9.63507	11.4823
9.89056	11.4812
