Adsorption isotherm of Carbon Dioxide on Cu-MOF-CTAB
DOI: 10.1021/Sc300036p
Adsorbate Carbon Dioxide: InChIKey CURLTUGMZLYLDI-UHFFFAOYSA-N
Temperature: 298 K
Tabular data in the source: 0
pressure (bar)	uptake (mmol/g)
13.366	0.447839
22.2762	0.741726
24.7492	0.79766
29.6975	0.937566
35.6364	1.11947
41.5708	1.2453
47.0172	1.44125
49.4949	1.55326
61.8666	1.91705
73.2486	2.25285
87.1003	2.60253
98.9758	2.9383
109.865	3.28815
123.714	3.59578
135.586	3.8895
147.949	4.15515
160.806	4.40676
173.172	4.70045
185.038	4.92407
197.894	5.17568
201.85	5.25956
204.816	5.30145
211.242	5.39922
217.177	5.53907
223.109	5.63686
229.535	5.73463
233.985	5.81849
238.928	5.90232
244.859	5.98609
