Adsorption isotherm of Carbon Dioxide on Cu-MOF-P123 (1st wash)
DOI: 10.1021/Sc300036p
Adsorbate Carbon Dioxide: InChIKey CURLTUGMZLYLDI-UHFFFAOYSA-N
Temperature: 298 K
Tabular data in the source: 0
pressure (bar)	uptake (mmol/g)
6.49567	0.0285352
15.3112	0.0858502
19.487	0.0856056
24.1268	0.0997916
29.2305	0.142866
34.7981	0.171456
38.9741	0.171211
43.6138	0.185397
49.6455	0.199502
60.781	0.256681
74.2362	0.313724
86.7636	0.385279
98.3629	0.427974
111.354	0.456128
123.882	0.48431
135.481	0.512546
147.081	0.540783
160.536	0.56891
172.599	0.582661
186.054	0.625247
196.726	0.653537
204.15	0.653103
210.645	0.652722
216.677	0.695742
223.173	0.695362
227.812	0.69509
232.916	0.709249
236.628	0.723489
240.34	0.752188
243.588	0.751997
