Adsorption isotherm of Carbon Dioxide on Cu-MOF
DOI: 10.1021/Sc300036p
Adsorbate Carbon Dioxide: InChIKey CURLTUGMZLYLDI-UHFFFAOYSA-N
Temperature: 298 K
Tabular data in the source: 0
pressure (bar)	uptake (mmol/g)
-0.028919	0.177816
0.172483	0.487411
0.297256	0.768685
0.515478	1.24687
0.793768	1.61288
1.05635	1.93202
1.28796	2.20425
1.53415	2.40162
1.76533	2.62704
2.02647	2.787
2.25713	2.95623
2.53337	3.09751
2.76343	3.2012
3.02412	3.31435
3.3001	3.42754
3.53008	3.52186
3.7598	3.5881
4.02015	3.66379
4.26516	3.73007
4.51015	3.79635
4.74004	3.88131
5.00014	3.92891
5.22994	4.00451
5.52051	4.04283
5.75014	4.0997
6.01032	4.15667
6.20916	4.18536
6.46925	4.23295
6.74462	4.2806
6.98936	4.31879
7.23402	4.34762
7.43284	4.3763
7.72348	4.424
7.9835	4.46223
8.21297	4.50038
8.45753	4.51984
8.71763	4.56744
8.93156	4.57744
9.26804	4.62527
9.48214	4.65401
9.69632	4.69211
9.91035	4.71148
