Adsorption isotherm of Carbon Dioxide on Cu-MOF-CTAB
DOI: 10.1021/Sc300036p
Adsorbate Carbon Dioxide: InChIKey CURLTUGMZLYLDI-UHFFFAOYSA-N
Temperature: 298 K
Tabular data in the source: 0
pressure (bar)	uptake (mmol/g)
13.3648	0.43382
20.7848	0.615642
33.152	0.923351
47.504	1.35712
62.8354	1.69269
73.7238	2.02852
87.573	2.35017
97.9608	2.60191
109.83	2.85358
125.161	3.18915
137.036	3.51091
151.371	3.73439
160.768	3.94414
175.108	4.23772
188.454	4.44724
198.839	4.65693
204.276	4.74073
210.704	4.86654
218.121	5.0063
224.053	5.1041
232.949	5.22976
238.88	5.31354
243.825	5.41139
