Adsorption isotherm of Nitrogen on Cu-MOF-SDS
DOI: 10.1021/Sc300036p
Adsorbate Nitrogen: InChIKey IJGRMHOSHXDMSA-UHFFFAOYSA-N
Temperature: 393 K
Tabular data in the source: 0
pressure (bar)	uptake (cm3(STP)/g)
0.235592	83.2957
0.351225	83.5411
0.480562	80.5898
0.625604	83.0482
0.762806	85.49
0.89817	112.659
0.988503	149.41
1.01037	212.897
1.01157	456.986
1.01538	433.338
1.01653	270.975
1.01704	374.202
1.02074	327.973
