Adsorption isotherm of Carbon Dioxide on In-MOF
DOI: 10.1021/Sc300036p
Adsorbate Carbon Dioxide: InChIKey CURLTUGMZLYLDI-UHFFFAOYSA-N
Temperature: 298 K
Tabular data in the source: 0
pressure (bar)	uptake (mmol/g)
0.164305	0.267775
0.373773	0.514697
0.538466	0.6792
0.808515	0.801929
1.06369	0.883416
1.19887	0.903472
1.39401	0.96457
1.61936	0.984226
1.84464	1.02454
2.14497	1.08517
2.32532	1.08437
2.62557	1.16566
2.76075	1.18571
2.97108	1.20544
3.1212	1.24608
3.39164	1.26554
3.57183	1.30605
3.82731	1.30492
3.99255	1.32484
4.18776	1.36528
4.39816	1.36435
4.59353	1.36349
4.77387	1.36269
5.0292	1.40287
5.13432	1.42306
5.35984	1.40141
5.57016	1.42113
5.82548	1.46131
6.02078	1.4811
6.21622	1.45958
6.42663	1.45865
6.71186	1.54
6.92218	1.55972
7.22259	1.5997
7.47808	1.59857
7.76355	1.61796
7.98889	1.63762
8.25917	1.69838
8.45463	1.67686
8.74016	1.6756
8.99542	1.73643
9.16066	1.75635
9.29592	1.75576
9.52119	1.79607
9.73159	1.79514
9.83671	1.81532
