Adsorption isotherm of Carbon Dioxide on Cu-MOF-CTAB (1st wash)
DOI: 10.1021/Sc300036p
Adsorbate Carbon Dioxide: InChIKey CURLTUGMZLYLDI-UHFFFAOYSA-N
Temperature: 298 K
Tabular data in the source: 0
pressure (bar)	uptake (mmol/g)
1.97631	-0.0141309
7.44295	0.139764
13.8966	0.279585
21.3511	0.489442
24.8252	0.559338
27.8095	0.657299
33.7705	0.811166
43.7054	1.06294
49.662	1.18877
63.0662	1.4824
73.9948	1.76215
86.8999	2.02777
99.3056	2.26539
110.731	2.55913
123.627	2.76868
135.046	3.02037
148.441	3.25792
160.839	3.45348
173.737	3.67705
186.138	3.88662
199.03	4.06814
202.501	4.12401
205.479	4.17992
209.942	4.24976
218.866	4.37542
224.317	4.43119
229.772	4.51499
235.722	4.59876
241.672	4.68254
246.63	4.75235
