Adsorption isotherm of Nitrogen on Cu-MOF
DOI: 10.1021/Sc300036p
Adsorbate Nitrogen: InChIKey IJGRMHOSHXDMSA-UHFFFAOYSA-N
Temperature: 393 K
Tabular data in the source: 0
pressure (bar)	uptake (cm3(STP)/g)
0.00795545	23.6728
0.102057	29.2489
0.196152	33.7496
0.309836	36.1415
0.409768	32.0525
0.496019	35.4614
0.599904	37.8324
0.721448	44.542
0.819479	52.2769
0.903818	65.3591
0.97264	111.742
1.00232	168.794
1.01052	243.005
