Adsorption isotherm of Carbon Dioxide on In-MOF
DOI: 10.1021/Sc300036p
Adsorbate Carbon Dioxide: InChIKey CURLTUGMZLYLDI-UHFFFAOYSA-N
Temperature: 298 K
Tabular data in the source: 0
pressure (bar)	uptake (mmol/g)
0.133705	0.412489
0.223023	0.639288
0.312961	0.700852
0.537613	0.906398
0.702772	0.946975
0.882726	1.04945
1.12303	1.08969
1.21304	1.1306
1.33319	1.15073
1.52841	1.19117
1.70853	1.25233
1.91884	1.27206
2.08408	1.29198
2.2944	1.3117
2.51975	1.33136
2.71496	1.3718
2.94016	1.43277
3.07557	1.39086
3.30085	1.43117
3.51108	1.47155
3.67624	1.51213
3.90176	1.49048
4.12703	1.53079
4.3224	1.52992
4.48763	1.54984
4.69804	1.54891
4.87807	1.63073
5.11867	1.58836
5.31398	1.60815
5.49431	1.60735
5.65947	1.64793
5.91487	1.66745
6.09507	1.70796
6.24543	1.68664
6.45567	1.72702
6.62091	1.74694
6.81628	1.74608
7.11677	1.7654
7.29712	1.7646
7.50744	1.78433
7.70273	1.80412
