Adsorption isotherm of Carbon Dioxide on Cu-MOF-P123
DOI: 10.1021/Sc300036p
Adsorbate Carbon Dioxide: InChIKey CURLTUGMZLYLDI-UHFFFAOYSA-N
Temperature: 298 K
Tabular data in the source: 0
pressure (bar)	uptake (mmol/g)
3.71181	0.0431561
7.8876	0.18749
15.3112	0.432838
24.1268	0.764852
29.6945	0.894646
34.7981	1.01001
50.1096	1.48622
62.1729	1.84696
74.2362	2.16433
85.8355	2.49618
99.291	2.82792
111.818	3.15972
123.882	3.46262
135.481	3.73664
148.472	4.02504
159.608	4.25571
172.599	4.48628
186.518	4.80353
196.262	5.01983
203.686	5.10614
212.501	5.29358
218.069	5.40891
222.709	5.48093
228.74	5.59624
232.916	5.65383
239.876	5.74017
244.516	5.81218
