Adsorption isotherm of Carbon Dioxide on Co-MOF
DOI: 10.1021/Sc300036p
Adsorbate Carbon Dioxide: InChIKey CURLTUGMZLYLDI-UHFFFAOYSA-N
Temperature: 298 K
Tabular data in the source: 0
pressure (bar)	uptake (mmol/g)
0.045824	0.000137925
0.152918	0.0191869
0.259841	0.0195087
0.534871	0.0296998
0.748716	0.0303434
1.02383	0.0498981
1.25304	0.0599513
1.5128	0.0700964
1.742	0.0801496
2.00184	0.0996583
2.23096	0.100348
2.4908	0.119857
2.7352	0.120592
2.97977	0.140055
3.22424	0.150154
3.48409	0.169663
3.74392	0.189171
3.98841	0.199271
4.21761	0.209324
4.46226	0.23815
4.72219	0.267022
4.98186	0.267804
5.1806	0.287129
5.45571	0.306683
5.7002	0.316782
5.9754	0.345701
6.20469	0.365117
6.43398	0.384534
6.70918	0.413452
6.93847	0.432869
7.18304	0.452332
7.42752	0.462431
7.67217	0.491257
7.91666	0.501356
8.17683	0.558319
8.40604	0.568372
8.66614	0.615972
8.89535	0.626025
9.14009	0.664215
9.39984	0.67436
9.6293	0.712504
9.8894	0.760103
