Adsorption isotherm of Carbon Dioxide on Cu-MOF-CTAB
DOI: 10.1021/Sc300036p
Adsorbate Carbon Dioxide: InChIKey CURLTUGMZLYLDI-UHFFFAOYSA-N
Temperature: 298 K
Tabular data in the source: 0
pressure (bar)	uptake (mmol/g)
7.91715	0.223849
19.2946	0.503577
26.228	0.769538
35.6329	1.07742
48.9919	1.44114
61.3556	1.7068
74.7146	2.07052
88.0679	2.36416
99.4431	2.61585
111.809	2.90954
122.689	3.14724
134.563	3.45497
149.398	3.76254
161.26	3.93009
174.116	4.1817
185.49	4.41937
198.835	4.61488
204.273	4.69868
211.194	4.82445
217.127	4.92225
222.07	5.00608
228.496	5.10385
232.947	5.20172
240.36	5.29943
245.797	5.38324
