Adsorption isotherm of Carbon Dioxide on Cu-MOF-P123
DOI: 10.1021/Sc300036p
Adsorbate Carbon Dioxide: InChIKey CURLTUGMZLYLDI-UHFFFAOYSA-N
Temperature: 298 K
Tabular data in the source: 0
pressure (bar)	uptake (mmol/g)
3.71181	0.0865296
14.3833	0.591929
19.487	0.736208
24.5908	0.923861
30.6224	1.14038
34.3343	1.28474
38.9741	1.4435
43.6138	1.58781
48.2536	1.73211
62.1729	2.17949
74.2362	2.51131
87.2274	2.81417
98.827	3.13156
111.818	3.41996
124.81	3.69389
136.409	3.89562
148.472	4.15516
158.68	4.32806
173.991	4.63077
197.654	4.97637
201.83	5.03396
208.325	5.14924
214.821	5.22115
220.389	5.30757
226.42	5.40842
236.164	5.53797
241.268	5.58105
246.371	5.63858
