Adsorption isotherm of Carbon Dioxide on Cu-MOF (3rd wash)
DOI: 10.1021/Sc300036p
Adsorbate Carbon Dioxide: InChIKey CURLTUGMZLYLDI-UHFFFAOYSA-N
Temperature: 298 K
Tabular data in the source: 0
pressure (bar)	uptake (mmol/g)
6.00842	0.232543
12.0223	0.492483
20.7913	0.615285
32.0022	1.02562
43.1942	1.34007
48.3995	1.53156
59.5833	1.80491
73.1682	2.16032
87.9403	2.48827
99.5216	2.7616
111.9	3.04858
123.087	3.33563
136.255	3.59518
150.23	3.90947
160.608	4.12807
173.771	4.36022
185.344	4.59245
198.501	4.7972
203.69	4.9065
210.867	5.01569
218.048	5.15228
225.225	5.26147
230.408	5.34338
233.596	5.3843
239.58	5.49355
244.363	5.56178
