Adsorption isotherm of Carbon Dioxide on Cu-MOF
DOI: 10.1021/Sc300036p
Adsorbate Carbon Dioxide: InChIKey CURLTUGMZLYLDI-UHFFFAOYSA-N
Temperature: 298 K
Tabular data in the source: 0
pressure (bar)	uptake (mmol/g)
7.59833	0.232455
12.398	0.382874
19.5798	0.519461
25.9802	0.724586
29.1846	0.847695
35.1768	0.998048
38.7675	1.06634
43.1616	1.17569
47.1609	1.29875
63.1388	1.69513
70.7534	2.00977
85.9148	2.2966
98.6966	2.61096
111.073	2.88425
123.452	3.17123
135.03	3.43086
149.797	3.73141
160.572	3.94999
173.735	4.18214
185.308	4.41437
198.068	4.61914
203.652	4.71473
211.234	4.86499
217.607	4.93313
223.194	5.04241
229.178	5.15166
234.759	5.23355
238.742	5.27442
243.528	5.35635
246.315	5.38359
