Adsorption isotherm of Carbon Dioxide on Cu-MOF-P123 (3rd wash)
DOI: 10.1021/Sc300036p
Adsorbate Carbon Dioxide: InChIKey CURLTUGMZLYLDI-UHFFFAOYSA-N
Temperature: 298 K
Tabular data in the source: 0
pressure (bar)	uptake (mmol/g)
15.7752	0.461727
25.0548	0.721424
31.0864	0.894565
42.2219	1.18307
58.925	1.57245
74.7003	1.84623
86.7636	2.10576
99.291	2.27852
110.89	2.45134
123.882	2.63853
135.945	2.7824
148.472	2.96962
161	3.12792
173.527	3.25731
184.662	3.35786
198.118	3.53056
202.758	3.55921
210.181	3.63106
214.357	3.67419
221.781	3.73159
228.74	3.80347
233.38	3.84657
238.484	3.9041
242.196	3.91834
246.371	3.96147
