Adsorption isotherm of Carbon Dioxide on In-MOF
DOI: 10.1021/Sc300036p
Adsorbate Carbon Dioxide: InChIKey CURLTUGMZLYLDI-UHFFFAOYSA-N
Temperature: 298 K
Tabular data in the source: 0
pressure (bar)	uptake (mmol/g)
0.156951	0.459274
0.264733	0.553231
0.433783	0.6661
0.648573	0.769742
0.847658	0.826521
1.01602	0.864481
1.1232	0.892894
1.24557	0.911989
1.45976	0.950087
1.64349	0.997456
1.82686	1.00737
2.04114	1.05483
2.25491	1.04611
2.45373	1.0748
2.6372	1.09408
2.85139	1.13218
3.03459	1.12337
3.23351	1.16142
3.44753	1.18079
3.66146	1.1908
3.84492	1.21007
4.05877	1.21072
4.25742	1.22068
4.48672	1.2401
4.68547	1.25942
4.8383	1.26924
5.08286	1.28871
5.25105	1.30794
5.49553	1.31804
5.66356	1.31854
5.86221	1.32851
6.07631	1.35724
6.24434	1.35775
6.42755	1.34893
6.64165	1.37767
6.85549	1.37831
7.09998	1.38841
7.28336	1.39833
7.49729	1.40833
7.69594	1.41829
7.84869	1.41875
8.10836	1.41954
8.3071	1.43886
8.4753	1.45809
8.65867	1.46801
8.8726	1.47802
9.10173	1.47871
9.31558	1.47935
9.48369	1.48922
9.63634	1.48032
