Adsorption isotherm of Carbon Dioxide on Cu-MOF
DOI: 10.1021/Sc300036p
Adsorbate Carbon Dioxide: InChIKey CURLTUGMZLYLDI-UHFFFAOYSA-N
Temperature: 298 K
Tabular data in the source: 0
pressure (bar)	uptake (mmol/g)
8.00398	0.273528
14.4017	0.464954
19.9936	0.60163
24.3903	0.724674
28.7899	0.861416
34.7873	1.03917
39.9817	1.17586
42.391	1.29902
49.1864	1.49042
64.3638	1.85944
73.9605	2.14658
86.7478	2.48834
99.5297	2.8027
110.719	3.10344
124.293	3.40406
135.074	3.65004
149.849	3.99168
161.024	4.22394
174.585	4.45606
186.168	4.74309
198.539	4.98898
202.528	5.05725
211.7	5.20743
218.081	5.31666
222.867	5.39859
230.844	5.53513
232.439	5.56244
238.02	5.64432
241.208	5.68524
245.997	5.78087
