Adsorption isotherm of Nitrogen on Cu-MOF-P123
DOI: 10.1021/Sc300036p
Adsorbate Nitrogen: InChIKey IJGRMHOSHXDMSA-UHFFFAOYSA-N
Temperature: 393 K
Tabular data in the source: 0
pressure (bar)	uptake (cm3(STP)/g)
0.12568	50.8044
0.290321	53.3044
0.454956	54.729
0.619614	60.4549
0.801936	71.5945
0.917689	96.5714
0.97872	152.615
1.01051	239.779
1.01688	339.793
1.01871	313.99
