Adsorption isotherm of Nitrogen on Cu-MOF-CTAB
DOI: 10.1021/Sc300036p
Adsorbate Nitrogen: InChIKey IJGRMHOSHXDMSA-UHFFFAOYSA-N
Temperature: 393 K
Tabular data in the source: 0
pressure (bar)	uptake (cm3(STP)/g)
0.567102	143.139
0.661203	148.715
0.784792	172.633
0.892838	224.476
0.951899	278.364
0.979631	338.638
0.991633	388.126
1.00951	437.626
