Adsorption isotherm of Carbon Dioxide on Cu-MOF (1st wash)
DOI: 10.1021/Sc300036p
Adsorbate Carbon Dioxide: InChIKey CURLTUGMZLYLDI-UHFFFAOYSA-N
Temperature: 298 K
Tabular data in the source: 0
pressure (bar)	uptake (mmol/g)
7.1818	0.136588
15.1504	0.232036
17.949	0.314072
24.3277	0.409609
29.111	0.477836
35.0896	0.559696
36.2873	0.587027
38.2829	0.628012
44.2615	0.709872
49.4421	0.778078
51.0377	0.805387
62.9892	0.94171
74.1538	1.11917
86.1107	1.28289
99.2629	1.46024
111.214	1.59657
123.563	1.73287
135.912	1.86917
148.656	1.99175
159.009	2.08707
161.4	2.11433
173.346	2.22326
184.094	2.30485
186.882	2.33209
198.033	2.44106
202.411	2.46822
205.593	2.48174
210.371	2.52257
216.344	2.57703
221.917	2.61782
229.48	2.6722
234.255	2.69933
239.036	2.75386
240.625	2.75377
244.208	2.78097
245.401	2.7809
