Adsorption isotherm of Carbon Dioxide on Co-MOF
DOI: 10.1021/Sc300036p
Adsorbate Carbon Dioxide: InChIKey CURLTUGMZLYLDI-UHFFFAOYSA-N
Temperature: 298 K
Tabular data in the source: 0
pressure (bar)	uptake (mmol/g)
0.0594934	0.164969
0.13417	0.288563
0.178868	0.391635
0.268729	0.473854
0.493537	0.638091
0.733837	0.678335
0.898841	0.760221
1.10893	0.841907
1.1991	0.841508
1.28912	0.882418
1.48441	0.902208
1.70961	0.963173
1.91992	0.982896
2.14512	1.04386
2.28031	1.06392
2.4756	1.08371
2.67081	1.12415
2.89616	1.14381
3.12152	1.16346
3.28674	1.18339
3.49707	1.20311
3.70747	1.20218
3.94785	1.22177
4.08302	1.24182
4.29335	1.26155
4.44341	1.32285
4.66891	1.30119
4.89441	1.27954
5.05957	1.32012
5.25463	1.40187
5.49532	1.33884
5.66064	1.33811
5.88614	1.31646
6.11126	1.39808
6.32165	1.39715
6.54709	1.39615
6.71233	1.41607
6.84758	1.41547
7.10307	1.41434
7.31339	1.43407
7.4636	1.45406
7.70405	1.45299
7.85426	1.47298
8.12493	1.43047
8.32022	1.45026
8.48546	1.47019
8.66573	1.49004
