Adsorption isotherm of Carbon Dioxide on Cu-MOF
DOI: 10.1021/Sc300036p
Adsorbate Carbon Dioxide: InChIKey CURLTUGMZLYLDI-UHFFFAOYSA-N
Temperature: 298 K
Tabular data in the source: 0
pressure (bar)	uptake (mmol/g)
3.98661	0.137615
7.97143	0.261468
15.9428	0.522936
19.1376	0.674312
24.7188	0.866972
29.501	1.01835
35.8815	1.25229
39.0689	1.34862
45.8388	1.52752
51.0288	1.76147
62.5826	2.1055
76.1334	2.54587
88.0896	2.93119
100.439	3.28899
111.993	3.63303
124.342	3.99083
137.475	4.26606
149.818	4.58257
162.162	4.89908
174.102	5.16055
187.236	5.44954
195.996	5.66972
201.565	5.76606
205.542	5.83486
209.521	5.91743
217.081	6.06881
221.854	6.15138
228.617	6.27523
233.787	6.3578
240.155	6.49541
244.531	6.57798
247.712	6.63303
