Adsorption isotherm of Ethanol on C32H24Cu3N6O12
DOI: 10.1002/chem.200802730
Adsorbate Ethanol: InChIKey LFQSCWFLJHTTHZ-UHFFFAOYSA-N
Temperature: 298 K
Tabular data in the source: 0
pressure (bar)	uptake (ml/g)
0.000380301	36.193
0.000388514	20.7775
0.000516707	30.1609
0.000644189	40.8847
0.00170582	48.2574
0.00450183	50.2681
0.00756495	50.9383
0.0107613	51.6086
0.0139576	52.2788
0.0171539	52.9491
0.0204834	53.6193
0.0264764	54.9598
0.0326023	56.9705
0.0387285	58.311
0.044988	59.6515
0.051114	61.6622
0.0573731	63.6729
0.0633658	65.0134
0.0694917	67.0241
0.0752185	68.3646
