Adsorption isotherm of Methanol on C32H24Cu3N6O12
DOI: 10.1002/chem.200802730
Adsorbate Methanol: InChIKey OKKJLVBELUTLKV-UHFFFAOYSA-N
Temperature: 293 K
Tabular data in the source: 0
pressure (bar)	uptake (ml/g)
0.00666818	50.6154
0.00894798	52.4103
0.0117337	54.2051
0.0127474	55.2821
0.0175587	58.1538
0.0203451	60.3077
0.0238903	62.4615
0.0266753	63.8974
0.0304741	66.4103
0.0335128	68.2051
0.0365521	70.359
0.0398443	72.5128
0.0431359	74.3077
0.0464282	76.4615
0.0497198	78.2564
0.0527585	80.0513
0.0563037	82.2051
0.0595959	84.359
0.0628875	86.1538
0.0659262	87.9487
0.0697243	90.1026
0.072763	91.8974
0.0763076	93.6923
0.0785854	94.4103
0.0856739	97.641
0.0925088	100.513
0.0998495	103.385
0.104407	105.538
0.112	108.051
0.117315	109.846
0.123645	113.436
