Adsorption isotherm of Oxygen on C32H24Cu3N6O12
DOI: 10.1002/chem.200802730
Adsorbate Oxygen: InChIKey MYMOFIZGZYHOMD-UHFFFAOYSA-N
Temperature: 77 K
Tabular data in the source: 0
pressure (bar)	uptake (ml/g)
0.000240852	106.506
0.000930108	111.3
0.00229778	116.092
0.00739982	122.247
0.0128349	125.663
0.0230188	129.07
0.0301484	131.797
0.0379548	133.838
0.0460988	135.194
0.0508485	135.528
0.0596702	136.54
0.0650983	136.873
0.07392	137.885
0.0840978	138.552
0.0942755	139.22
0.104114	139.888
0.113952	140.213
0.12413	140.88
0.128879	141.214
0.132951	141.892
0.139057	141.882
0.149235	142.549
0.153984	142.541
0.158733	142.875
0.164502	143.892
0.172982	143.877
0.178411	144.553
