Adsorption isotherm of Methanol on C32H24Cu3N6O12
DOI: 10.1002/chem.200802730
Adsorbate Methanol: InChIKey OKKJLVBELUTLKV-UHFFFAOYSA-N
Temperature: 298 K
Tabular data in the source: 0
pressure (bar)	uptake (ml/g)
0.00110023	48.2574
0.00283272	49.5979
0.00456365	52.2788
0.0109187	54.9598
0.0149632	56.3003
0.0175635	56.9705
0.0195857	57.6408
0.0218962	58.9812
0.0236287	60.3217
0.0279622	61.6622
0.032295	63.6729
0.0363395	65.0134
0.0409605	67.6944
0.0490495	70.3753
0.0530925	73.0563
0.056848	74.3968
0.0611808	76.4075
0.0652245	78.4182
0.0695573	80.429
0.0736018	81.7694
0.0776455	83.7802
0.0816893	85.7909
0.0886215	89.1421
0.0952648	92.4933
0.102198	95.1743
0.10942	97.8552
0.116642	100.536
0.123865	102.547
0.131375	105.898
0.138598	107.909
0.146109	110.59
0.153331	113.271
0.159396	116.622
0.16546	121.314
