Adsorption isotherm of Water on C32H24Cu3N6O12
DOI: 10.1002/chem.200802730
Adsorbate Water: InChIKey XLYOFNOQVPJJNP-UHFFFAOYSA-N
Temperature: 288 K
Tabular data in the source: 0
pressure (bar)	uptake (ml/g)
8.64e-05	4.69169
0.000201601	10.7239
0.000230035	15.4155
0.000316113	22.7882
0.000373214	30.1609
0.000401493	36.193
0.000458516	44.2359
0.000458982	40.2145
0.000603094	46.9169
0.000805471	50.9383
0.000978794	55.63
0.00126779	62.3324
0.00146963	71.0456
0.00158468	78.4182
0.00169951	87.8016
0.00175645	96.5147
0.0018423	105.898
0.00192838	113.271
0.00198579	117.962
0.00204266	127.346
0.00221505	140.08
0.00238798	148.123
0.00261887	156.166
0.00273416	161.528
0.00293661	164.879
0.00311017	167.56
0.00334153	171.582
0.00363076	176.273
0.00397818	178.954
0.00441246	182.306
0.00481783	184.987
0.00531007	188.338
0.00580245	190.349
0.00635272	193.029
0.00684495	196.381
0.00745317	199.062
0.00800344	201.743
0.00858276	203.753
0.00921996	206.434
0.0103785	211.126
0.0111316	214.477
0.0119135	218.499
0.0128694	221.18
0.0137381	226.542
0.0145202	229.893
0.0153022	232.574
0.0159972	236.595
0.0166923	239.946
