Adsorption isotherm of Nitrogen on C32H24Cu3N6O12
DOI: 10.1002/chem.200802730
Adsorbate Nitrogen: InChIKey IJGRMHOSHXDMSA-UHFFFAOYSA-N
Temperature: 77 K
Tabular data in the source: 0
pressure (bar)	uptake (ml/g)
0.00108116	87.8016
0.00266716	99.866
0.00284139	73.7265
0.00289501	65.6836
0.00296649	54.9598
0.00429336	105.898
0.0176113	107.909
0.0425941	109.92
0.0659016	113.271
0.0942262	113.941
0.125884	114.611
0.152537	115.952
0.185861	116.622
0.214186	117.292
0.245843	117.962
0.274168	118.633
0.307496	118.633
0.335821	119.303
0.389141	119.973
0.422465	120.643
0.45079	121.314
0.485785	121.314
0.514118	120.643
0.549108	121.314
0.580766	121.984
0.609095	121.984
0.64409	121.984
0.674076	123.324
0.705742	122.654
0.735733	123.324
0.765729	123.324
0.797386	123.995
0.827377	124.665
0.857364	126.005
0.889026	126.005
0.915679	127.346
0.940667	128.686
