Adsorption isotherm of Methanol on C32H24Cu3N6O12
DOI: 10.1002/chem.200802730
Adsorbate Methanol: InChIKey OKKJLVBELUTLKV-UHFFFAOYSA-N
Temperature: 288 K
Tabular data in the source: 0
pressure (bar)	uptake (ml/g)
0.00312232	48.1026
0.0130062	58.5128
0.0157926	60.6667
0.0203535	64.9744
0.0231392	66.7692
0.025419	68.5641
0.0279543	71.7949
0.0302328	72.8718
0.0325126	74.6667
0.0350454	76.4615
0.0375788	78.6154
0.0398586	80.4103
0.0423933	83.2821
0.0449267	85.4359
0.0472072	87.5897
0.0502465	89.7436
0.0522714	90.4615
0.0548048	92.6154
0.0578428	94.0513
0.0596167	95.8462
0.0651874	99.0769
0.0702517	101.949
0.0745564	104.462
0.0801252	106.615
0.0859476	109.128
0.089749	113.077
