Adsorption isotherm of Carbon Dioxide on C32H24Cu3N6O12
DOI: 10.1002/chem.200802730
Adsorbate Carbon Dioxide: InChIKey CURLTUGMZLYLDI-UHFFFAOYSA-N
Temperature: 195 K
Tabular data in the source: 0
pressure (bar)	uptake (ml/g)
0.00202211	27.3034
0.00213359	37.0787
0.00220663	43.4831
0.00227583	49.5506
0.00235272	56.2921
0.00241807	62.0225
0.00249111	68.427
0.0059779	74.1573
0.0060471	80.2247
0.0129399	84.6067
0.0163998	87.9775
0.0232619	89.6629
0.0267333	94.0449
0.0404652	98.0899
0.0507756	102.135
0.0833369	107.191
0.122733	111.573
0.163814	113.596
0.211737	115.618
0.257946	117.303
0.307568	118.315
0.358905	119.663
0.410234	120.337
0.461571	121.685
0.5129	122.36
0.564229	123.034
0.617269	123.708
0.665177	124.382
0.721642	125.393
0.769542	125.393
0.824297	126.404
0.926948	127.079
0.979988	127.753
