Adsorption isotherm of Methanol on C32H24Cu3N6O12
DOI: 10.1002/chem.200802730
Adsorbate Methanol: InChIKey OKKJLVBELUTLKV-UHFFFAOYSA-N
Temperature: 283 K
Tabular data in the source: 0
pressure (bar)	uptake (ml/g)
0.000273057	11.1282
0.000280192	15.0769
0.000514334	4.66667
0.000544818	21.5385
0.000562978	31.5897
0.000574004	37.6923
0.000583733	43.0769
0.000806849	26.5641
0.00185433	46.3077
0.00413672	49.5385
0.00616487	52.0513
0.00793877	53.8462
0.00971462	56.7179
0.0132611	59.5897
0.0155429	62.4615
0.0173168	64.2564
0.0208652	68.2051
0.0236522	70.7179
0.0259353	74.3077
0.0274562	76.1026
0.0320171	80.4103
0.0345525	83.641
0.0365793	85.4359
0.0383539	87.5897
0.040635	90.1026
0.0436749	92.6154
0.046207	94.0513
0.0487404	96.2051
0.0527922	98.7179
0.0568452	101.949
0.0608964	104.103
0.0639357	106.256
0.0677351	109.128
0.0715365	113.077
