Adsorption isotherm of Water on Pyurea-COF
DOI: 10.1039/d1qm00231g
Article source: Figure 7
Adsorbate Water: InChIKey XLYOFNOQVPJJNP-UHFFFAOYSA-N
Kind: experiment
Temperature: 298 K
Tabular data in the source: 0
pressure (bar)	uptake (cm3(STP)/g)
0.042292	3.3028
0.268606	13.3203
0.352697	13.476
0.490253	36.2171
0.522352	57.7648
0.537972	336.327
0.534353	261.036
0.529209	161.478
0.546012	424.741
0.557022	495.902
0.562471	572.52
0.566928	102.264
0.573786	646.569
0.581787	712.204
0.588645	137.07
0.608076	781.447
0.606362	174.46
0.621792	222.476
0.634439	291.713
0.642366	539.965
0.642366	467.846
0.642366	394.612
0.646176	609.873
0.653682	683.235
0.668084	758.79
0.73146	815.524
0.909828	853.37
0.947547	859.045
0.726897	829.966
0.508198	74.0741
0.549106	84.1751
0.613614	198.653
0.630921	260.943
0.638788	321.549
0.641935	355.219
