Adsorption isotherm of Water on Pythz-COF
DOI: 10.1039/d1qm00231g
Article source: Figure 7
Adsorbate Water: InChIKey XLYOFNOQVPJJNP-UHFFFAOYSA-N
Kind: experiment
Temperature: 298 K
Tabular data in the source: 0
pressure (bar)	uptake (cm3(STP)/g)
0.064307	8.90479
0.177599	25.8709
0.252372	33.2973
0.330058	51.6911
0.361133	118.711
0.434206	60.3766
0.437605	247.601
0.476691	75.32
0.47737	328.096
0.498783	388.202
0.510678	453.222
0.517476	99.5313
0.519418	521.725
0.524273	590.038
0.5301	663.151
0.541692	734.076
0.553935	141.614
0.556562	804.061
0.574915	189.302
0.585829	247.692
0.589275	460.673
0.587393	396.295
0.586908	326.939
0.595647	591.081
0.594191	527.038
0.600745	724.861
0.59759	655.694
0.627936	790.96
0.798602	880.841
0.927216	943.442
0.688438	846.059
0.646331	868.001
0.77577	917.369
0.920803	963.08
0.544964	127.479
0.563678	162.22
0.582392	217.073
0.58863	270.098
