Adsorption isotherm of Nitrogen on Pyurea-COF
DOI: 10.1039/d1qm00231g
Article source: Figure 3a
Adsorbate Nitrogen: InChIKey IJGRMHOSHXDMSA-UHFFFAOYSA-N
Kind: experiment
Temperature: 77 K
Tabular data in the source: 0
pressure (bar)	uptake (cm3(STP)/g)
0.001761	64.801
0.000819	36.4566
0.000219	9.81652
0.003221	88.6034
0.01938	156.137
0.090051	283.743
0.111465	289.047
0.13142	291.173
0.15033	293.902
0.172419	294.622
0.193473	295.41
0.214157	299.122
0.234841	298.596
0.255526	301.051
0.338263	303.628
0.358947	305.185
0.379631	302.333
0.400316	305.736
0.46163	306.171
0.483053	304.303
0.504254	306.045
0.525628	310.675
0.545106	309.246
0.56579	309.036
0.585207	311.082
0.608537	307.892
0.649758	308.193
0.688689	311.439
0.709819	306.903
0.731264	306.545
0.751948	308.805
0.772633	307.581
0.793317	310.973
0.814001	307.624
0.834686	307.429
0.96017	318.589
0.979323	324.397
0.996712	338.778
0.999298	327.068
1.01223	344.685
1.01223	332.194
0.965135	324.748
0.924095	319.317
0.943907	314.973
0.901453	314.973
0.915604	310.628
0.891547	313.887
0.850507	313.887
0.820789	312.801
0.863244	312.801
0.881641	316.059
0.430207	307.37
0.304258	299.767
0.2802	303.026
0.225009	305.198
0.18397	300.853
0.141515	298.681
0.065097	275.873
0.031133	191.156
0.00283	77.114
0.001415	52.1334
0.001415	22.8084
