Adsorption isotherm of Nitrogen on Pythz-COF
DOI: 10.1039/d1qm00231g
Article source: Figure 3a
Adsorbate Nitrogen: InChIKey IJGRMHOSHXDMSA-UHFFFAOYSA-N
Kind: experiment
Temperature: 77 K
Tabular data in the source: 0
pressure (bar)	uptake (cm3(STP)/g)
0.011509	196.499
0.020242	231.14
0.03639	251.496
0.051039	275.007
0.070229	297.568
0.08919	309.885
0.104703	322.286
0.119258	346.524
0.132821	367.354
0.144578	439.776
0.182269	464.714
0.277072	483.094
0.296032	484.898
0.314993	488.719
0.33223	495.309
0.352914	493.229
0.390835	498.13
0.409796	496.35
0.447717	501.852
0.466678	502.225
0.505174	505.099
0.560791	510.712
0.599402	515.959
0.656188	518
0.711442	522.323
0.732701	527.4
0.752236	528.167
0.769904	530.786
0.788469	531.507
0.808059	532.081
0.828538	538.38
0.844876	539.691
0.864358	542.529
0.884586	544.902
0.682104	519.162
0.629743	516.99
0.970795	586.501
0.987777	600.621
0.992023	615.826
0.999098	649.496
0.956644	570.209
0.935417	558.262
0.909944	549.573
0.244822	478.976
0.256143	480.062
0.253312	485.493
0.278785	489.837
0.304258	489.837
0.178309	472.459
0.154252	463.77
0.202367	477.89
0.208028	472.459
0.226425	481.148
0.007076	184.639
0.007076	168.348
0.005661	153.142
0.005661	139.022
0.005661	123.817
0.005661	106.439
0.005661	98.8363
0.005661	89.0613
0.005661	74.9418
0.005661	64.0807
0.005661	53.2196
0.005661	45.6168
0.005661	29.3251
0.005661	17.3778
0.005661	7.60279
0.509455	518.076
0.558986	523.507
0.609931	528.937
0.659462	528.937
0.710407	535.454
0.761353	541.971
0.799562	546.315
0.868904	557.176
0.914189	571.296
0.960889	601.707
0.96938	612.568
0.986362	635.376
