Adsorption isotherm of Nitrogen on CPH-21
DOI: 10.2175/106143017x14902968254412
Article source: Figure 1
Adsorbate Nitrogen: InChIKey IJGRMHOSHXDMSA-UHFFFAOYSA-N
Kind: experiment
Temperature: 77 K
Tabular data in the source: 0
pressure (bar)	uptake (cm3(STP)/g)
0.001033	1.15
0.002482	5.96
0.003445	13.22
0.00384	21.98
0.004245	30.45
0.004641	39.95
0.004853	48.15
0.004864	55.04
0.005461	64.16
0.005715	92.75
0.005735	100.67
0.005867	75.53
0.005887	84.75
0.005968	120.88
0.006525	116.97
0.00689	109.98
0.00769	126
0.012068	133.26
0.017772	140.34
0.021582	145.93
0.025381	149.65
0.031086	155.61
0.037358	158.68
0.045717	162.32
0.056346	167.16
0.070967	170.79
0.075911	175.16
0.084453	177.58
0.102671	182.89
0.113684	185.87
0.123553	188.1
0.137414	191.27
0.144436	192.94
0.154872	195.36
0.170435	198.34
0.185056	201.32
0.19454	203.27
0.213336	206.35
0.231928	209.32
0.245222	211.84
0.26268	215.09
0.274069	217.42
0.286217	219.1
0.305955	221.51
0.316766	222.72
0.337831	225.7
0.347518	227.66
0.359656	229.8
0.371805	232.12
0.390975	234.82
0.401036	236.68
0.411098	238.26
0.416985	241.71
0.426833	237.05
0.428373	244.04
0.434443	246.55
0.440694	238.54
0.441657	248.69
0.453056	251.48
0.45492	240.68
0.465194	252.88
0.466876	241.89
0.475266	256.98
0.47865	243.57
0.483037	258.09
0.492308	244.96
0.494811	260.89
0.509239	263.3
0.509391	246.45
0.524225	265.54
0.526849	249.15
0.539028	268.14
0.547722	252.22
0.553832	269.91
0.558158	253.52
0.561613	271.03
0.575616	256.5
0.581543	272.52
0.591939	257.99
0.592365	276.33
0.610724	259.85
0.612285	277.82
0.628942	262.83
0.63031	280.52
0.648305	265.8
0.649288	282.75
0.666898	268.41
0.6732	285.17
0.687203	270.73
0.688388	287.4
0.697872	288.43
0.703911	273.15
0.712483	290.85
0.723831	275.67
0.730134	292.89
0.744521	277.71
0.747024	295.31
0.762739	279.67
0.767329	296.99
0.776398	282.36
0.78422	299.69
0.796895	285.25
0.80566	302.29
0.808862	288.32
0.821983	304.9
0.828782	290.18
0.835834	305.36
0.837891	292.51
0.847952	293.81
0.853484	307.5
0.859908	295.11
0.868855	309.73
0.874711	297.25
0.888593	312.25
0.889697	299.02
0.906405	302.19
0.911937	315.13
0.920449	304.61
0.92901	314.76
0.936964	306.65
0.937552	316.62
0.945708	317.08
0.946448	309.72
0.956134	311.87
0.959569	319.22
0.972265	314.56
0.972843	319.97
0.986319	321.92
0.986694	316.8
0.99714	323.41
1.00378	320.52
