Adsorption isotherm of Nitrogen on CPH-22
DOI: 10.2175/106143017x14902968254412
Article source: Figure 1
Adsorbate Nitrogen: InChIKey IJGRMHOSHXDMSA-UHFFFAOYSA-N
Kind: experiment
Temperature: 77 K
Tabular data in the source: 0
pressure (bar)	uptake (cm3(STP)/g)
0.001033	1.15
0.002422	64.82
0.002482	5.96
0.002888	19.19
0.00305	88.75
0.003273	105.42
0.003293	112.68
0.003334	47.77
0.003445	13.22
0.003597	79.81
0.003678	198.27
0.003688	118.83
0.003769	74.13
0.0038	24.66
0.00382	35
0.004114	57.74
0.004144	42.54
0.004154	158.5
0.004205	97.5
0.004296	136.9
0.004742	165.49
0.004843	127.3
0.004894	149
0.005532	180.01
0.005897	172.84
0.006312	189.14
0.007295	203.76
0.012817	214.66
0.017205	223.22
0.021582	229.93
0.027671	238.12
0.04136	249.95
0.044785	255.35
0.050104	259.45
0.053904	261.68
0.061888	265.87
0.07043	271.18
0.093227	281.33
0.10955	288.22
0.121517	293.34
0.131396	297.25
0.155885	306.56
0.172401	310.84
0.194044	317.36
0.221756	324.34
0.240936	331.04
0.263146	337.56
0.29333	342.39
0.310028	346.12
0.325024	351.24
0.348754	353.66
0.364509	358.59
0.377418	361.38
0.390701	364.45
0.411382	365.2
0.421838	376
0.425617	367.62
0.436439	369.66
0.439124	382.33
0.450097	372.55
0.45412	388.57
0.477241	377.2
0.485824	398.53
0.491285	379.62
0.498935	404.3
0.505521	382.23
0.516778	408.77
0.541582	386.51
0.549799	413.61
0.55145	388.93
0.558148	415.75
0.566821	392.37
0.573904	418.73
0.57593	394.42
0.58586	419.1
0.603642	397.49
0.612234	423.38
0.613703	399.44
0.623187	401.03
0.626095	425.89
0.634768	403.63
0.636906	426.73
0.642986	428.4
0.667597	408.47
0.673727	433.06
0.676706	408.94
0.681833	411.36
0.683971	432.96
0.689999	412.01
0.696829	413.68
0.697072	435.2
0.704225	413.87
0.707316	435.29
0.715472	436.78
0.736679	419.08
0.740529	440.03
0.747693	420.85
0.75362	440.13
0.757369	423.83
0.761969	443.1
0.768758	425.41
0.772405	442.54
0.778475	444.59
0.796095	430.9
0.802924	430.71
0.803532	447.38
0.811466	433.32
0.813958	447.38
0.817342	433.41
0.82023	450.45
0.826076	435.37
0.828771	450.45
0.833098	435.93
0.83863	450.64
0.844142	452.03
0.861377	439.74
0.868206	442.44
0.870891	454.73
0.877133	442.9
0.88304	454.27
0.888329	445.32
0.891197	457.15
0.895726	447.09
0.90296	457.52
0.922678	452.31
0.932172	451.65
0.934087	461.71
0.938058	454.72
0.94737	461.06
0.947735	455
0.955142	458.63
0.964635	464.97
0.98569	463.29
0.994992	466.08
1.00487	469.43
1.00961	469.62
