Adsorption isotherm of Nitrogen on Chemviron
DOI: 10.2175/106143017x14902968254412
Article source: Figure 1
Adsorbate Nitrogen: InChIKey IJGRMHOSHXDMSA-UHFFFAOYSA-N
Kind: experiment
Temperature: 77 K
Tabular data in the source: 0
pressure (bar)	uptake (cm3(STP)/g)
0.001003	0.98
0.001013	6.86
0.001033	18.6
0.00153	24.95
0.001722	3.8
0.001773	29.18
0.001986	14.02
0.001996	21.89
0.00226	34
0.002786	62.19
0.002797	68.3
0.002867	103.08
0.002979	38.34
0.002989	42.69
0.003009	51.62
0.00305	73.12
0.00306	79.93
0.003323	93.68
0.003475	45.86
0.003496	57.14
0.003637	134.09
0.00383	109.3
0.004104	126.57
0.004266	86.51
0.004316	115.53
0.004326	122.35
0.004397	159.82
0.004418	166.05
0.004843	139.38
0.004894	169.81
0.005026	111.89
0.005086	146.31
0.006059	152.66
0.007052	178.27
0.012544	184.03
0.02066	191.43
0.027813	198.13
0.034967	202.24
0.040448	204.47
0.051888	208.71
0.059517	211.65
0.067512	214.76
0.076215	217.28
0.084351	219.52
0.097209	222.14
0.108365	223.82
0.124252	227.64
0.140322	229.51
0.160931	231.57
0.172462	232.69
0.185127	233.72
0.194581	235.49
0.208958	237.17
0.227105	237.73
0.242608	239.69
0.265669	238.95
0.277017	241.75
0.299511	242.13
0.315581	244.28
0.330708	244.28
0.353394	246.24
0.374186	246.25
0.388371	249.14
0.41276	249.33
0.42581	251.66
0.449053	251.57
0.450198	253.81
0.475337	254.47
0.480261	256.34
0.491984	258.58
0.508621	261.19
0.511063	253.17
0.522796	261.01
0.524681	255.32
0.540001	261.57
0.550204	257
0.568736	263.35
0.576477	258.96
0.588585	263.44
0.609559	257.85
0.610329	265.31
0.630543	260.28
0.634343	265.88
0.655884	261.22
0.658346	268.21
0.677243	263.18
0.690678	268.68
0.705978	263.56
0.724328	269.9
0.742272	264.59
0.742475	271.3
0.760054	267.48
0.764979	273.08
0.785952	268.33
0.792386	274.2
0.804474	270.1
0.811861	276.17
0.82869	278.5
0.834344	270.76
0.845328	278.41
0.849097	273.38
0.85856	280.37
0.862897	273.47
0.878025	275.43
0.882949	283.08
0.88842	275.71
0.900518	277.21
0.904318	285.13
0.919618	280.94
0.923792	287.84
0.931533	280.57
0.936083	290.55
0.943064	283.09
0.95197	293.44
0.954979	285.98
0.96577	296.24
0.967077	287.76
0.98033	298.39
0.982023	292.24
0.986957	300.26
0.990341	294.29
0.999622	301.19
0.999805	298.95
