Adsorption isotherm of Water on Zeolite Na-Y
DOI: 10.1039/B610621h
Adsorbate Water: InChIKey XLYOFNOQVPJJNP-UHFFFAOYSA-N
Temperature: 300 K
Tabular data in the source: 0
pressure (bar)	uptake (molecules/unitcell)
3.51e-07	3.83903
6.41e-07	5.14995
1.04e-06	8.42726
2.14e-06	14.9819
5.3e-06	29.4021
1.06e-05	38.5785
2.13e-05	52.9987
4.13e-05	70.6962
8.27e-05	93.6373
0.000171	113.957
0.000312	136.898
0.000606	164.427
0.00101291	187.368
0.00154562	199.822
0.00393993	218.175
0.0120373	234.562
0.02484	252.915
