Adsorption isotherm of Water on Zeolite Na-Y
DOI: 10.1039/B610621h
Adsorbate Water: InChIKey XLYOFNOQVPJJNP-UHFFFAOYSA-N
Temperature: 300 K
Tabular data in the source: 0
pressure (bar)	uptake (molecules/unitcell)
0.000251	52.9987
0.000514	106.091
0.000841	144.763
0.00195559	200.478
0.00516736	227.352
0.0100178	243.083
0.0199808	258.158
0.0300749	262.091
