Adsorption isotherm of Water on Zeolite 13X
DOI: 10.1039/B610621h
Adsorbate Water: InChIKey XLYOFNOQVPJJNP-UHFFFAOYSA-N
Temperature: 300 K
Tabular data in the source: 0
pressure (bar)	uptake (molecules/unitcell)
0.000186	28.7466
0.000186	143.452
0.000251	61.5197
0.000251	94.9483
0.00110349	204.41
0.00510181	255.536
0.0101489	260.78
0.0200463	276.511
0.0300749	275.856
