Adsorption isotherm of Water on Zeolite Na-Y
DOI: 10.1039/B610621h
Adsorbate Water: InChIKey XLYOFNOQVPJJNP-UHFFFAOYSA-N
Temperature: 300 K
Tabular data in the source: 0
pressure (bar)	uptake (molecules/unitcell)
0.000186	1.21718
0.000186	63.4861
0.000186	92.3264
0.000317	115.923
0.000448	137.553
0.000645	166.394
0.00110349	189.335
0.00143122	200.478
0.00254551	212.931
0.00411862	220.142
0.00588837	227.352
0.00798585	231.284
0.0100833	233.906
0.0148682	238.494
0.0180144	241.116
0.0199153	243.738
0.0239136	246.36
0.0261421	257.503
