Adsorption isotherm of Water on Zeolite 13X
DOI: 10.1039/B610621h
Adsorbate Water: InChIKey XLYOFNOQVPJJNP-UHFFFAOYSA-N
Temperature: 300 K
Tabular data in the source: 0
pressure (bar)	uptake (molecules/unitcell)
0.000186	0.561717
0.000317	130.999
0.000579	176.881
0.000907	195.234
0.00169341	208.999
0.00306988	220.142
0.00398753	223.419
0.00910013	236.528
0.016048	242.427
0.0239136	250.948
0.0299438	259.469
