Adsorption isotherm of Water on Zeolite Na-Y
DOI: 10.1039/B610621h
Adsorbate Water: InChIKey XLYOFNOQVPJJNP-UHFFFAOYSA-N
Temperature: 300 K
Tabular data in the source: 0
pressure (bar)	uptake (molecules/unitcell)
1.16e-08	3.83903
1.11e-07	7.7718
1.04e-06	13.671
1.06e-05	31.3684
0.000105	53.6542
0.000476	107.402
0.00104395	148.041
0.00202808	197.856
0.00472219	228.007
0.0100433	243.738
0.0195109	258.814
0.0280278	263.402
