Adsorption isotherm of Water on Zeolite 13X
DOI: 10.1039/B610621h
Adsorbate Water: InChIKey XLYOFNOQVPJJNP-UHFFFAOYSA-N
Temperature: 300 K
Tabular data in the source: 0
pressure (bar)	uptake (molecules/unitcell)
5.28e-09	29.4021
5.56e-08	40.5449
6.61e-07	60.8642
6.55e-06	96.2592
6.69e-05	144.108
0.000845	207.688
0.00501605	256.847
0.00974464	264.713
0.0183679	279.133
0.0288867	280.444
