Adsorption isotherm of Water on Zeolite 13X
DOI: 10.1039/B610621h
Adsorbate Water: InChIKey XLYOFNOQVPJJNP-UHFFFAOYSA-N
Temperature: 300 K
Tabular data in the source: 0
pressure (bar)	uptake (molecules/unitcell)
6.69e-05	130.999
0.000374	175.57
0.000606	195.234
0.000954	203.1
0.00190927	216.864
0.00382278	226.041
0.00765406	236.528
0.0148695	245.705
0.0241014	253.57
0.029772	262.091
