Adsorption isotherm of Hydrogen on Ti3O(OEt)-(bdc)3(solv)2 activated at 150C
DOI: 10.1021/acs.inorgchem.5b02046
Article source: Figure 2b
Adsorbate Hydrogen: InChIKey UFHFLCQGNIYNRP-UHFFFAOYSA-N
Kind: experiment
Isotherm type: excess
Temperature: 77 K
Tabular data in the source: 0
pressure (bar)	uptake (mmol/g)
0	0
0.002383	0.230971
0.009083	0.377953
0.015817	0.566929
0.022517	0.713911
0.031496	0.965879
0.040493	1.23885
0.05163	1.44882
0.073923	1.88976
0.102794	2.33071
0.151558	2.96063
0.200252	3.50656
0.299644	4.36745
0.401091	5.06037
0.502452	5.64829
0.603744	6.15223
0.70279	6.59318
0.810592	7.01312
0.907377	7.37008
1.00413	7.68504
