Adsorption isotherm of Hydrogen on Ti3O(OEt)-(bdc)3(solv)2 activated at 150C
DOI: 10.1021/acs.inorgchem.5b02046
Article source: Figure 2b
Adsorbate Hydrogen: InChIKey UFHFLCQGNIYNRP-UHFFFAOYSA-N
Kind: experiment
Isotherm type: excess
Temperature: 87 K
Tabular data in the source: 0
pressure (bar)	uptake (mmol/g)
0	0
0.008843	0.063158
0.019971	0.231579
0.028849	0.336842
0.037744	0.463158
0.051035	0.589474
0.073204	0.821053
0.099786	1.07368
0.148467	1.47368
0.201527	1.85263
0.305327	2.46316
0.402447	2.96842
0.503927	3.43158
0.605338	3.81053
0.70675	4.18947
0.805911	4.50526
0.90727	4.82105
1.00641	5.11579
