Adsorption isotherm of Oxygen on Ti3O(OEt)-(bdc)3(solv)2
DOI: 10.1021/acs.inorgchem.5b02046
Article source: Figure 3a
Adsorbate Oxygen: InChIKey MYMOFIZGZYHOMD-UHFFFAOYSA-N
Kind: experiment
Isotherm type: excess
Temperature: 298 K
Tabular data in the source: 0
pressure (bar)	uptake (mmol/g)
0.000245	0.10061
0.001231	0.506098
0.002915	0.198171
0.003167	0.301829
0.003412	0.402439
0.003909	0.606707
0.004169	0.713415
0.004495	0.847561
0.016794	0.902439
0.031408	0.908537
0.060612	0.911585
0.119029	0.920732
0.206649	0.932927
0.30157	0.945122
0.403782	0.954268
0.503568	0.966463
0.603347	0.97561
0.703133	0.987805
0.800487	1
0.902691	1.0061
1.00004	1.01829
