Adsorption isotherm of Oxygen on Ti3O(OEt)-(bdc)3(solv)2
DOI: 10.1021/acs.inorgchem.5b02046
Article source: Figure 3b
Adsorbate Oxygen: InChIKey MYMOFIZGZYHOMD-UHFFFAOYSA-N
Kind: experiment
Isotherm type: excess
Temperature: 195 K
Tabular data in the source: 0
pressure (bar)	uptake (mmol/g)
7e-06	0.008523
7.6e-05	0.093751
0.000152	0.187501
0.000243	0.298298
0.000326	0.400571
0.000409	0.502844
0.000492	0.605118
0.000568	0.698868
0.000658	0.809665
0.003174	0.903436
0.003271	1.02276
0.005786	1.11653
0.030239	1.19344
0.052232	1.24476
0.098663	1.35595
0.149966	1.45866
0.203708	1.5614
0.252559	1.64704
0.301409	1.73268
0.352691	1.80982
0.403973	1.88697
0.452809	1.95556
0.504092	2.03271
0.550496	2.10981
0.601771	2.17842
0.653046	2.24704
0.701883	2.31564
0.753158	2.38426
0.801987	2.44434
0.850824	2.51293
0.902092	2.57303
0.950921	2.6331
1.00219	2.6932
