Adsorption isotherm of Nitrogen on Ti3O(OEt)-(bdc)3(solv)2 activated at 150C
DOI: 10.1021/acs.inorgchem.5b02046
Article source: Figure 2a
Adsorbate Nitrogen: InChIKey IJGRMHOSHXDMSA-UHFFFAOYSA-N
Kind: experiment
Temperature: 77 K
Tabular data in the source: 0
pressure (bar)	uptake (mmol/g)
0	1.82741
0.000179	3.99746
0.000272	6.0533
0.000354	7.88071
0.002461	9.82234
0.002548	11.764
0.004644	13.4772
0.010786	15.3046
0.018952	17.2462
0.023048	18.5025
0.031199	20.1015
0.03933	21.2437
0.05354	22.8426
0.06166	23.7563
0.067766	24.7843
0.083985	26.1548
0.098175	27.297
0.102266	28.4391
0.114452	29.9239
0.124601	31.066
0.134757	32.3223
0.152971	33.1218
0.165116	33.6929
0.183324	34.3782
0.201538	35.1777
0.312817	39.4036
0.401719	40.0888
0.500718	40.7741
0.58355	41.231
0.682541	41.6878
0.779527	42.4873
0.878527	43.1726
