Adsorption isotherm of Nitrogen on MG-G0
DOI: 10.1021/Am3013104
Adsorbate Nitrogen: InChIKey IJGRMHOSHXDMSA-UHFFFAOYSA-N
Temperature: 77 K
Tabular data in the source: 0
pressure (bar)	uptake (cm3(STP)/g)
0.00629311	48.4034
0.0264575	56.4706
0.0534316	57.8151
0.0893949	59.8319
0.123128	59.8319
0.197329	61.1765
0.2423	61.8487
0.29177	62.521
0.33899	63.1933
0.38621	63.8655
0.435692	63.1933
0.482906	64.5378
0.527878	65.2101
0.581851	65.2101
0.626816	66.5546
0.674043	66.5546
0.723512	67.2269
0.772988	67.2269
0.817966	67.2269
0.867435	67.8992
0.9124	69.2437
0.950606	71.9328
0.970777	79.3277
