Adsorption isotherm of Nitrogen on MG-G3
DOI: 10.1021/Am3013104
Adsorbate Nitrogen: InChIKey IJGRMHOSHXDMSA-UHFFFAOYSA-N
Temperature: 77 K
Tabular data in the source: 0
pressure (bar)	uptake (cm3(STP)/g)
0.00730101	180.84
0.00736401	174.118
0.0074396	166.05
0.00948691	187.563
0.0139154	194.958
0.0183628	200.336
0.0519953	211.092
0.0812057	213.782
0.159892	216.471
0.209355	217.815
0.256581	217.815
0.306063	217.143
0.351035	217.815
0.400516	217.143
0.449986	217.815
0.499474	216.471
0.544445	217.143
0.593927	216.471
0.643409	215.798
0.692891	215.126
0.740118	215.126
0.787344	215.126
0.834571	215.126
0.884034	216.471
0.924489	219.16
0.940199	222.521
0.967148	226.555
