Adsorption isotherm of Nitrogen on MG-G2
DOI: 10.1021/Am3013104
Adsorbate Nitrogen: InChIKey IJGRMHOSHXDMSA-UHFFFAOYSA-N
Temperature: 77 K
Tabular data in the source: 0
pressure (bar)	uptake (cm3(STP)/g)
0.0123783	118.992
0.0235724	124.37
0.0527764	127.731
0.0864846	130.42
0.120205	131.765
0.167426	132.437
0.221393	133.109
0.26637	133.109
0.313597	133.109
0.363066	133.782
0.412542	133.782
0.462018	133.782
0.509244	133.782
0.554222	133.782
0.603698	133.782
0.653173	133.782
0.7004	133.782
0.747626	133.782
0.797102	133.782
0.844316	135.126
0.889288	135.798
0.92297	141.176
0.94311	151.933
0.967734	164.034
