Adsorption isotherm of Nitrogen on MG-G1
DOI: 10.1021/Am3013104
Adsorbate Nitrogen: InChIKey IJGRMHOSHXDMSA-UHFFFAOYSA-N
Temperature: 77 K
Tabular data in the source: 0
pressure (bar)	uptake (cm3(STP)/g)
0.00583955	96.8067
0.0102428	106.891
0.0146902	112.269
0.0438691	118.319
0.0506031	119.664
0.0753283	121.008
0.102309	121.681
0.160761	123.697
0.212473	125.042
0.257444	125.714
0.306907	127.059
0.354134	127.059
0.405846	128.403
0.45083	127.731
0.49805	128.403
0.547519	129.076
0.599238	129.748
0.646464	129.748
0.69594	129.748
0.74316	130.42
0.788138	130.42
0.842105	131.092
0.882579	131.765
0.927525	135.126
0.967955	140.504
