Adsorption isotherm of Nitrogen on MG-G4
DOI: 10.1021/Am3013104
Adsorbate Nitrogen: InChIKey IJGRMHOSHXDMSA-UHFFFAOYSA-N
Temperature: 77 K
Tabular data in the source: 0
pressure (bar)	uptake (cm3(STP)/g)
0.00891366	8.7395
0.0223377	16.1345
0.0493244	16.1345
0.0763047	16.8067
0.107783	17.479
0.161756	17.479
0.208983	17.479
0.260701	18.1513
0.307928	18.1513
0.355148	18.8235
0.402381	18.1513
0.451857	18.1513
0.501326	18.8235
0.546304	18.8235
0.59353	18.8235
0.643	19.4958
0.69022	20.1681
0.737447	20.1681
0.786916	20.8403
0.83413	22.1849
0.883587	24.2017
0.928533	27.563
0.944225	32.9412
0.962102	45.042
