Adsorption isotherm of Nitrogen on IRMOF-1
DOI: 10.1021/Am3013104
Adsorbate Nitrogen: InChIKey IJGRMHOSHXDMSA-UHFFFAOYSA-N
Temperature: 77 K
Tabular data in the source: 0
pressure (bar)	uptake (cm3(STP)/g)
0.00773567	134.454
0.00779237	128.403
0.0120949	149.244
0.0121705	141.176
0.0187974	153.95
0.0479763	160
0.0839207	164.034
0.110888	166.05
0.176094	167.395
0.230042	170.084
0.279517	170.084
0.326738	170.756
0.376201	172.101
0.425683	171.429
0.472897	172.773
0.520123	172.773
0.569599	172.773
0.621317	173.445
0.666288	174.118
0.720262	174.118
0.760742	174.118
0.81246	174.79
0.85968	175.462
0.909162	174.79
0.956376	176.134
