Adsorption isotherm of Hydrogen on Zn(NO3)2*4H2O
DOI: 10.1002/anie.200904599
Adsorbate Hydrogen: InChIKey UFHFLCQGNIYNRP-UHFFFAOYSA-N
Temperature: 77 K
Tabular data in the source: 0
pressure (bar)	uptake (wt%)
0.0433377	0.101128
0.100144	0.189615
0.143842	0.287935
0.309892	0.50096
0.355775	0.55012
0.44317	0.681212
0.497791	0.743481
0.561153	0.809027
0.655102	0.92701
0.770901	1.04172
0.906363	1.17281
0.967539	1.24163
