Adsorption isotherm of Nitrogen on Zn(NO3)2*4H2O
DOI: 10.1002/anie.200904599
Adsorbate Nitrogen: InChIKey IJGRMHOSHXDMSA-UHFFFAOYSA-N
Temperature: 77 K
Tabular data in the source: 0
pressure (bar)	uptake (cm3(STP)/g)
0.00182509	81.464
0.00837971	343.649
0.0149343	586.17
0.021489	710.708
0.0367831	812.304
0.0717411	946.674
0.0782957	1051.55
0.08922	1120.37
0.17443	1212.14
0.333926	1241.63
0.410397	1248.19
0.635439	1267.85
0.906363	1280.96
0.974094	1280.96
