Adsorption isotherm of Methane on Zn(NO3)2*4H2O
DOI: 10.1002/anie.200904599
Adsorbate Methane: InChIKey VNWKTOKETHGBQD-UHFFFAOYSA-N
Temperature: 298 K
Tabular data in the source: 0
pressure (bar)	uptake (g/g)
0.292014	0.00210675
3.78781	0.0223168
10.7794	0.0485353
19.8685	0.0916866
29.3071	0.129376
34.9004	0.144124
50.6315	0.183451
60.7693	0.198199
70.5576	0.211855
79.6466	0.220048
90.134	0.223325
99.9223	0.226603
111.458	0.226603
120.547	0.224964
129.637	0.222779
149.912	0.212401
