Adsorption isotherm of Hydrogen on Zn(NO3)2*4H2O
DOI: 10.1002/anie.200904599
Adsorbate Hydrogen: InChIKey UFHFLCQGNIYNRP-UHFFFAOYSA-N
Temperature: 77 K
Tabular data in the source: 0
pressure (bar)	uptake (wt%)
0.561395	0.0374528
0.867277	1.34838
3.31434	2.30535
4.53787	2.84283
6.37316	3.27544
8.20845	3.6556
11.2673	4.27174
15.5496	4.76989
20.1379	5.12384
25.6437	5.3467
29.3143	5.51712
33.9026	5.60888
38.7967	5.66132
43.9967	5.64821
48.8908	5.66132
55.0085	5.6351
69.6908	5.43846
86.5143	5.13695
103.338	4.83544
114.961	4.65191
129.95	4.38972
