Adsorption isotherm of Oxygen on CuBTC
DOI: 10.1021/cm5042293
Article source: Figure 6b- 273 K experiment
Adsorbate Oxygen: InChIKey MYMOFIZGZYHOMD-UHFFFAOYSA-N
Kind: experiment
Temperature: 273 K
Tabular data in the source: 0
pressure (bar)	uptake (mmol/g)
0.010415	0.01859
0.01397	0.01972
0.017928	0.02085
0.020189	0.02251
0.026491	0.02324
0.030772	0.0245
0.037961	0.02928
0.045958	0.03133
0.054925	0.03558
0.067606	0.03949
0.078916	0.04454
0.091839	0.05064
0.108076	0.05708
0.124878	0.06464
0.146284	0.07427
0.169709	0.08422
0.196365	0.0973
0.228191	0.11229
0.265106	0.12842
0.306948	0.14866
0.356707	0.17029
0.413815	0.19578
0.480375	0.22478
0.519229	0.24323
0.557678	0.26055
0.602429	0.28039
0.647017	0.2995
0.699524	0.32133
0.751464	0.34343
0.812451	0.36838
0.872871	0.39559
0.942582	0.42439
0.978124	0.43951
1.01342	0.45451
