Adsorption isotherm of Oxygen on CuBTC
DOI: 10.1021/cm5042293
Article source: Figure 5- Cu-BTC
Adsorbate Oxygen: InChIKey MYMOFIZGZYHOMD-UHFFFAOYSA-N
Kind: experiment
Temperature: 77 K
Tabular data in the source: 0
pressure (bar)	uptake (mmol/g)
0.000643	25.2746
0.00094	25.4044
0.001858	25.794
0.00291	26.0766
0.003745	26.237
0.004735	26.4035
0.006622	26.6403
0.009074	26.8634
0.010961	27.0055
0.014601	27.1979
0.020124	27.4057
0.022174	27.4561
0.024529	27.5402
0.026101	27.5768
0.028002	27.6181
0.029734	27.6578
0.031811	27.7036
0.033938	27.7388
0.036026	27.7831
0.037872	27.8045
