Adsorption isotherm of Nitrogen on CuBTC
DOI: 10.1021/cm5042293
Article source: Figure 6a- 273 K experiment
Adsorbate Nitrogen: InChIKey IJGRMHOSHXDMSA-UHFFFAOYSA-N
Kind: experiment
Temperature: 273 K
Tabular data in the source: 0
pressure (bar)	uptake (mmol/g)
0.014872	0.01714
0.020573	0.02072
0.02809	0.02376
0.034204	0.02673
0.040482	0.0295
0.047421	0.0322
0.057006	0.0376
0.065928	0.04091
0.078072	0.04752
0.09253	0.05502
0.105583	0.06271
0.122933	0.07183
0.143422	0.08324
0.167132	0.09613
0.195221	0.11132
0.226284	0.12813
0.262388	0.14845
0.306008	0.17241
0.356404	0.19928
0.413655	0.23068
0.479666	0.26646
0.519404	0.28772
0.557489	0.30791
0.602597	0.32978
0.646961	0.3524
0.7	0.38035
0.751717	0.40863
0.811779	0.4378
0.873079	0.47068
0.942393	0.507
0.978578	0.52381
1.01468	0.54177
