Adsorption isotherm of Oxygen on Fe/Cu-BTC
DOI: 10.1021/cm5042293
Article source: Figure 6d- 283 K experiment
Adsorbate Oxygen: InChIKey MYMOFIZGZYHOMD-UHFFFAOYSA-N
Kind: experiment
Temperature: 283 K
Tabular data in the source: 0
pressure (bar)	uptake (mmol/g)
0.067544	0.03954
0.079255	0.0459
0.09143	0.04971
0.108259	0.057
0.12594	0.06536
0.145405	0.07472
0.169601	0.08596
0.196821	0.09833
0.228151	0.11351
0.264677	0.12922
0.307484	0.15123
0.356884	0.17564
0.414503	0.20493
0.447383	0.22145
0.480963	0.23763
0.558202	0.27267
0.603337	0.29354
0.647772	0.31728
0.700506	0.34196
0.752465	0.36697
0.812644	0.39573
0.873599	0.42234
0.944014	0.45317
0.978911	0.46976
1.01404	0.48821
