Adsorption isotherm of Oxygen on Fe/Cu-BTC
DOI: 10.1021/cm5042293
Article source: Figure 6d- 273 K experiment
Adsorbate Oxygen: InChIKey MYMOFIZGZYHOMD-UHFFFAOYSA-N
Kind: experiment
Temperature: 273 K
Tabular data in the source: 0
pressure (bar)	uptake (mmol/g)
0.067653	0.04934
0.079904	0.05549
0.093319	0.06486
0.107898	0.07308
0.125732	0.08372
0.146049	0.09677
0.169002	0.11189
0.195911	0.12881
0.228324	0.14814
0.264692	0.17035
0.307419	0.19457
0.356271	0.22474
0.414274	0.25986
0.480728	0.29806
0.519036	0.32134
0.558118	0.34315
0.602861	0.37098
0.648069	0.39881
0.700024	0.42851
0.752133	0.45982
0.812463	0.49909
0.872947	0.53488
0.943666	0.57221
0.978482	0.58806
1.01454	0.61141
