Adsorption isotherm of Nitrogen on Fe/Cu-BTC
DOI: 10.1021/cm5042293
Article source: Figure 6c- 298 K experiment
Adsorbate Nitrogen: InChIKey IJGRMHOSHXDMSA-UHFFFAOYSA-N
Kind: experiment
Temperature: 298 K
Tabular data in the source: 0
pressure (bar)	uptake (mmol/g)
0.081247	0.02584
0.108774	0.03493
0.145897	0.04717
0.170514	0.05654
0.216838	0.07465
0.229973	0.07889
0.266387	0.09243
0.308072	0.10686
0.357151	0.12416
0.415037	0.14713
0.481652	0.17045
0.520112	0.18392
0.558887	0.19759
0.602616	0.21496
0.648233	0.22863
0.701086	0.24661
0.752366	0.2676
0.813084	0.28682
0.8727	0.31054
0.942856	0.33543
0.978955	0.34924
1.0138	0.36695
