Adsorption isotherm of Nitrogen on CuBTC
DOI: 10.1021/cm5042293
Article source: Figure 6a- 283 K experiment
Adsorbate Nitrogen: InChIKey IJGRMHOSHXDMSA-UHFFFAOYSA-N
Kind: experiment
Temperature: 283 K
Tabular data in the source: 0
pressure (bar)	uptake (mmol/g)
0.028915	0.00837
0.041306	0.01108
0.05469	0.01391
0.064933	0.0177
0.089471	0.0372
0.107398	0.04193
0.124334	0.04963
0.144161	0.058
0.168946	0.06867
0.195631	0.07974
0.227355	0.09425
0.262713	0.11005
0.305259	0.12882
0.35582	0.1507
0.41431	0.17689
0.479081	0.20788
0.5189	0.22375
0.557811	0.24049
0.602258	0.25987
0.646704	0.27931
0.699825	0.302
0.752038	0.32313
0.812181	0.34832
0.873893	0.37411
0.942794	0.40496
0.978401	0.4186
1.0145	0.43163
