Adsorption isotherm of Nitrogen on CuBTC
DOI: 10.1021/cm5042293
Article source: Figure 5- N2 on Cu-BTC
Adsorbate Nitrogen: InChIKey IJGRMHOSHXDMSA-UHFFFAOYSA-N
Kind: experiment
Temperature: 77 K
Tabular data in the source: 0
pressure (bar)	uptake (mmol/g)
0.005339	22.3102
0.0099	22.4066
0.015407	22.5275
0.020629	22.6194
0.025815	22.7127
0.035759	22.9255
0.046522	23.2253
0.057731	23.3983
0.067924	23.5239
0.098469	23.8166
0.200845	24.4992
