Adsorption isotherm of Oxygen on Co@CuBTC
DOI: 10.1021/cm5042293
Article source: Figure 5- Co@CuBTC
Adsorbate Oxygen: InChIKey MYMOFIZGZYHOMD-UHFFFAOYSA-N
Kind: experiment
Temperature: 77 K
Tabular data in the source: 0
pressure (bar)	uptake (mmol/g)
0.000971	20.1972
0.001993	20.5117
0.003036	20.7148
0.003791	20.8231
0.004952	20.9773
0.007093	21.1802
0.009209	21.3327
0.011828	21.4867
0.013328	21.572
0.019545	21.7837
0.022119	21.8475
0.024225	21.8992
0.025995	21.9494
0.02789	21.9782
0.029636	22.0101
0.031739	22.0587
0.033581	22.0982
0.035719	22.153
0.037752	22.1802
