Adsorption isotherm of Oxygen on Co/Cu-BTC
DOI: 10.1021/cm5042293
Article source: Figure S9c- O2 experiment
Adsorbate Oxygen: InChIKey MYMOFIZGZYHOMD-UHFFFAOYSA-N
Kind: experiment
Temperature: 298 K
Tabular data in the source: 0
pressure (bar)	uptake (mmol/g)
0.018163	0.009475
0.042666	0.016144
0.060828	0.020518
0.078679	0.026312
0.092848	0.031779
0.108427	0.035824
0.124711	0.041837
0.144752	0.045628
0.16863	0.053135
0.195483	0.059659
0.227423	0.067713
0.264218	0.076788
0.306492	0.08896
0.356753	0.101133
0.413823	0.116512
0.447487	0.126206
0.480211	0.135208
0.558185	0.153321
0.602494	0.164984
0.647745	0.177666
0.699805	0.190641
0.751553	0.201647
0.812304	0.217974
0.873054	0.233208
0.942808	0.249681
0.978193	0.258938
1.01358	0.269434
