Adsorption isotherm of Nitrogen on Fe/Cu-BTC
DOI: 10.1021/cm5042293
Article source: Figure 6c- 273 K experiment
Adsorbate Nitrogen: InChIKey IJGRMHOSHXDMSA-UHFFFAOYSA-N
Kind: experiment
Temperature: 273 K
Tabular data in the source: 0
pressure (bar)	uptake (mmol/g)
0.070301	0.06685
0.082804	0.07457
0.107967	0.0903
0.126052	0.1024
0.170165	0.1305
0.171817	0.13155
0.1969	0.14753
0.228511	0.16667
0.264918	0.18917
0.308167	0.21461
0.358257	0.24278
0.414637	0.27908
0.48179	0.31922
0.519927	0.34397
0.558378	0.36702
0.603436	0.39382
0.648493	0.42035
0.700392	0.45139
0.752839	0.48442
0.81323	0.51915
0.873386	0.55375
0.94345	0.59232
0.97915	0.61379
1.01485	0.63553
