Adsorption isotherm of Oxygen on Fe@CuBTC
DOI: 10.1021/cm5042293
Article source: Figure 5- Fe@CuBTC
Adsorbate Oxygen: InChIKey MYMOFIZGZYHOMD-UHFFFAOYSA-N
Kind: experiment
Temperature: 77 K
Tabular data in the source: 0
pressure (bar)	uptake (mmol/g)
0.000842	22.3212
0.001964	22.7583
0.003014	23.0487
0.003773	23.2306
0.004778	23.521
0.007162	23.9627
0.00875	24.1385
0.010888	24.3572
0.013632	24.6125
0.018983	25.0497
0.022151	25.1798
0.024161	25.2456
0.026112	25.3068
0.027849	25.3588
0.029734	25.4047
0.031533	25.4522
0.033647	25.4904
0.035671	25.5547
0.037865	25.5838
