Adsorption isotherm of Oxygen on Fe/Cu-BTC
DOI: 10.1021/cm5042293
Article source: Figure S9d- O2 experiment
Adsorbate Oxygen: InChIKey MYMOFIZGZYHOMD-UHFFFAOYSA-N
Kind: experiment
Temperature: 298 K
Tabular data in the source: 0
pressure (bar)	uptake (mmol/g)
0.013042	0.011695
0.025531	0.014724
0.036202	0.020246
0.045292	0.024119
0.05952	0.029487
0.068453	0.032593
0.07952	0.037501
0.091772	0.04237
0.108371	0.048774
0.124418	0.054564
0.145128	0.062347
0.168369	0.070706
0.195797	0.081059
0.226705	0.091718
0.264332	0.103988
0.306148	0.117408
0.355473	0.135161
0.413257	0.155138
0.446773	0.169095
0.48021	0.18171
0.557044	0.207745
0.601784	0.224693
0.647157	0.239724
0.699486	0.258934
0.750946	0.275881
0.811971	0.295666
0.872047	0.314914
0.942637	0.33677
0.97805	0.350228
1.01307	0.363534
