Adsorption isotherm of Oxygen on CuBTC
DOI: 10.1021/cm5042293
Article source: Figure 6b- 283 K experiment
Adsorbate Oxygen: InChIKey MYMOFIZGZYHOMD-UHFFFAOYSA-N
Kind: experiment
Temperature: 283 K
Tabular data in the source: 0
pressure (bar)	uptake (mmol/g)
0.01385	0.01288
0.017308	0.01531
0.022499	0.01547
0.025857	0.01891
0.029928	0.01866
0.036338	0.02109
0.042547	0.02192
0.046515	0.02527
0.056386	0.02879
0.067988	0.03223
0.081319	0.03709
0.096175	0.04303
0.11144	0.04881
0.124872	0.05518
0.145631	0.06515
0.169545	0.07444
0.196104	0.08584
0.227752	0.09932
0.264488	0.11465
0.307228	0.12822
0.357196	0.14238
0.413469	0.16734
0.447254	0.18141
0.480834	0.19658
0.557665	0.22648
0.602846	0.24382
0.648131	0.26267
0.700436	0.28285
0.751825	0.3043
0.811865	0.32775
0.872719	0.35137
0.942832	0.37919
0.978653	0.39326
1.01396	0.40942
