Adsorption isotherm of Nitrogen on Fe/Cu-BTC
DOI: 10.1021/cm5042293
Article source: Figure S9d- N2 experiment
Adsorbate Nitrogen: InChIKey IJGRMHOSHXDMSA-UHFFFAOYSA-N
Kind: experiment
Temperature: 298 K
Tabular data in the source: 0
pressure (bar)	uptake (mmol/g)
0.017073	0.011005
0.041183	0.017753
0.060946	0.021242
0.080312	0.027377
0.106951	0.036119
0.143945	0.049156
0.167976	0.05809
0.214456	0.074846
0.226628	0.079486
0.264097	0.093213
0.306861	0.107131
0.355475	0.124386
0.413891	0.146893
0.480448	0.169976
0.518787	0.183588
0.557441	0.19697
0.602497	0.214454
0.646843	0.228411
0.698777	0.246433
0.751106	0.266179
0.811656	0.285888
0.871811	0.309623
0.942084	0.334354
0.977892	0.348656
1.01315	0.367253
