Adsorption isotherm of Oxygen on Mn/Cu-BTC
DOI: 10.1021/cm5042293
Article source: Figure S9b- O2 experiment
Adsorbate Oxygen: InChIKey MYMOFIZGZYHOMD-UHFFFAOYSA-N
Kind: experiment
Temperature: 298 K
Tabular data in the source: 0
pressure (bar)	uptake (mmol/g)
0.026687	0.011217
0.050163	0.018969
0.06041	0.021934
0.068898	0.023935
0.081364	0.028579
0.093904	0.033509
0.107898	0.037653
0.125258	0.043118
0.146211	0.049584
0.169151	0.056765
0.19584	0.066053
0.227881	0.075734
0.264052	0.086701
0.307029	0.098775
0.35666	0.112886
0.413783	0.130461
0.447355	0.140642
0.479933	0.149859
0.558086	0.17265
0.602516	0.186368
0.648169	0.200514
0.699558	0.215339
0.75156	0.231093
0.811973	0.247133
0.872538	0.265065
0.94297	0.28332
0.977612	0.293072
1.01317	0.302038
