Adsorption isotherm of Nitrogen on Fe/Cu-BTC
DOI: 10.1021/cm5042293
Article source: Figure 6c- 283 K experiment
Adsorbate Nitrogen: InChIKey IJGRMHOSHXDMSA-UHFFFAOYSA-N
Kind: experiment
Temperature: 283 K
Tabular data in the source: 0
pressure (bar)	uptake (mmol/g)
0.069384	0.02815
0.082171	0.03607
0.093967	0.03951
0.108339	0.04778
0.127272	0.05579
0.145708	0.06423
0.169299	0.07585
0.196756	0.08688
0.228773	0.10255
0.264556	0.11762
0.307179	0.13759
0.357037	0.1605
0.415421	0.18754
0.481634	0.21656
0.519995	0.23361
0.558553	0.25092
0.603158	0.2684
0.648556	0.28717
0.700694	0.30861
0.752535	0.33203
0.813098	0.35511
0.874157	0.38112
0.944336	0.41212
0.97883	0.42142
1.01442	0.44045
