Adsorption isotherm of Oxygen on Mn@CuBTC
DOI: 10.1021/cm5042293
Article source: Figure 5- Mn@CuBTC
Adsorbate Oxygen: InChIKey MYMOFIZGZYHOMD-UHFFFAOYSA-N
Kind: experiment
Temperature: 77 K
Tabular data in the source: 0
pressure (bar)	uptake (mmol/g)
0.000877	23.7326
0.001895	24.0977
0.002869	24.3284
0.003766	24.5132
0.004764	24.6507
0.007068	24.9088
0.008946	25.0692
0.010997	25.2127
0.01406	25.3715
0.019715	25.5974
0.022383	25.6706
0.024496	25.7301
0.026371	25.7698
0.027965	25.8095
0.029936	25.8415
0.031766	25.901
0.033685	25.9269
0.035733	25.9604
0.037853	25.9909
