Adsorption isotherm of Nitrogen on Co/Cu-BTC
DOI: 10.1021/cm5042293
Article source: Figure S9c- N2 experiment
Adsorbate Nitrogen: InChIKey IJGRMHOSHXDMSA-UHFFFAOYSA-N
Kind: experiment
Temperature: 298 K
Tabular data in the source: 0
pressure (bar)	uptake (mmol/g)
0.013856	0.006122
0.028496	0.011079
0.068657	0.021939
0.090813	0.030285
0.125024	0.03976
0.168082	0.053062
0.195952	0.061736
0.226484	0.070555
0.264609	0.081671
0.306805	0.093697
0.356596	0.109149
0.414059	0.125404
0.480838	0.144063
0.519511	0.155397
0.558027	0.166549
0.603042	0.179414
0.647275	0.192461
0.699728	0.207731
0.75171	0.224495
0.812617	0.240166
0.872976	0.257368
0.944138	0.277157
0.97835	0.287872
1.01436	0.297238
