Adsorption isotherm of Nitrogen on Mn@CuBTC
DOI: 10.1021/cm5042293
Article source: Figure 5- N2 on Mn@CuBTC
Adsorbate Nitrogen: InChIKey IJGRMHOSHXDMSA-UHFFFAOYSA-N
Kind: experiment
Temperature: 77 K
Tabular data in the source: 0
pressure (bar)	uptake (mmol/g)
0.004873	17.8369
0.011245	17.9611
0.017315	18.0684
0.020467	18.1068
0.025896	18.2003
0.035739	18.369
0.046794	18.6065
0.057581	18.7477
0.067923	18.8384
0.097206	19.2037
0.203283	19.6633
