Adsorption isotherm of Oxygen on Fe/Cu-BTC
DOI: 10.1021/cm5042293
Article source: Figure 6d- 298 K experiment
Adsorbate Oxygen: InChIKey MYMOFIZGZYHOMD-UHFFFAOYSA-N
Kind: experiment
Temperature: 298 K
Tabular data in the source: 0
pressure (bar)	uptake (mmol/g)
0.067694	0.03178
0.079872	0.03667
0.093446	0.04196
0.107796	0.04858
0.126024	0.05494
0.145572	0.06177
0.169541	0.07067
0.196844	0.08071
0.228104	0.09122
0.264949	0.1034
0.307689	0.11753
0.357177	0.1352
0.41419	0.15468
0.447389	0.16947
0.480664	0.18205
0.558233	0.20722
0.602989	0.22543
0.648367	0.23995
0.700028	0.25903
0.751998	0.2765
0.812424	0.29591
0.873625	0.31545
0.943902	0.33774
0.979195	0.351
1.01449	0.36412
