Adsorption isotherm of Nitrogen on Mn/Cu-BTC
DOI: 10.1021/cm5042293
Article source: Figure S9b- N2 experiment
Adsorbate Nitrogen: InChIKey IJGRMHOSHXDMSA-UHFFFAOYSA-N
Kind: experiment
Temperature: 298 K
Tabular data in the source: 0
pressure (bar)	uptake (mmol/g)
0.060868	0.024292
0.06928	0.028079
0.080903	0.03108
0.092526	0.036188
0.12602	0.046977
0.145061	0.053336
0.16869	0.062088
0.196754	0.071876
0.228565	0.082629
0.264889	0.094418
0.307407	0.1086
0.356653	0.125176
0.414311	0.145002
0.480611	0.166936
0.518999	0.180118
0.55708	0.1933
0.602502	0.209054
0.647544	0.222415
0.699774	0.239276
0.751621	0.257174
0.812108	0.277
0.872748	0.29797
0.94272	0.320011
0.977054	0.332157
1.01346	0.342839
