Adsorption isotherm of Nitrogen on CuBTC
DOI: 10.1021/cm5042293
Article source: Figure S9a- N2 experiment
Adsorbate Nitrogen: InChIKey IJGRMHOSHXDMSA-UHFFFAOYSA-N
Kind: experiment
Temperature: 298 K
Tabular data in the source: 0
pressure (bar)	uptake (mmol/g)
0.019029	0.006957
0.030448	0.008913
0.036894	0.011957
0.039846	0.012428
0.041943	0.013225
0.04575	0.013478
0.063613	0.018188
0.074799	0.021087
0.08342	0.024928
0.097245	0.029493
0.125051	0.041703
0.145635	0.048623
0.169557	0.056196
0.195267	0.06442
0.225481	0.075471
0.307113	0.101775
0.356901	0.117862
0.414069	0.136739
0.480478	0.158152
0.520012	0.170326
0.558693	0.183841
0.602656	0.197101
0.647549	0.212174
0.699978	0.228514
0.752874	0.241087
0.812992	0.256377
0.872488	0.281341
0.943402	0.305942
0.97843	0.32558
1.01354	0.347283
