Adsorption isotherm of Nitrogen on Fe@CuBTC
DOI: 10.1021/cm5042293
Article source: Figure 5- N2 on Fe@CuBTC
Adsorbate Nitrogen: InChIKey IJGRMHOSHXDMSA-UHFFFAOYSA-N
Kind: experiment
Temperature: 77 K
Tabular data in the source: 0
pressure (bar)	uptake (mmol/g)
0.006062	17.5275
0.01199	17.636
0.018149	17.775
0.020837	17.8071
0.025875	17.9354
0.035916	18.1569
0.046472	18.3983
0.05726	18.7283
0.066623	19.1072
0.125852	19.6969
0.152858	19.845
0.177231	19.9489
0.202937	20.0559
