Adsorption isotherm of Oxygen on CuBTC
DOI: 10.1021/cm5042293
Article source: Figure 6b- 298 K experiment
Adsorbate Oxygen: InChIKey MYMOFIZGZYHOMD-UHFFFAOYSA-N
Kind: experiment
Temperature: 298 K
Tabular data in the source: 0
pressure (bar)	uptake (mmol/g)
0.012198	0.0111
0.014299	0.0115
0.019792	0.01302
0.024235	0.01548
0.029406	0.01661
0.035868	0.01874
0.043623	0.0198
0.050005	0.02113
0.058487	0.02266
0.06802	0.02671
0.079571	0.03003
0.093304	0.03349
0.108087	0.03794
0.124728	0.04312
0.145652	0.04923
0.169725	0.05727
0.196464	0.06577
0.228455	0.07534
0.264645	0.08743
0.306976	0.10039
0.357143	0.1162
0.414013	0.13328
0.447215	0.14464
0.48082	0.15533
0.557807	0.17872
0.602804	0.19221
0.648041	0.20629
0.699905	0.2219
0.751606	0.23732
0.812677	0.25559
0.872942	0.27393
0.943061	0.29459
0.978202	0.30395
1.0135	0.31472
