Adsorption isotherm of Oxygen on CuBTC
DOI: 10.1021/cm5042293
Article source: Figure S9a- O2 experiment
Adsorbate Oxygen: InChIKey MYMOFIZGZYHOMD-UHFFFAOYSA-N
Kind: experiment
Temperature: 298 K
Tabular data in the source: 0
pressure (bar)	uptake (mmol/g)
0.0153	0.008116
0.020738	0.009891
0.029438	0.011486
0.041398	0.017355
0.04334	0.018696
0.060816	0.022754
0.070293	0.025725
0.080001	0.029348
0.093128	0.033478
0.107652	0.038696
0.123886	0.043406
0.145245	0.049601
0.169635	0.057391
0.195811	0.065688
0.227811	0.075543
0.264473	0.087283
0.307036	0.1
0.356048	0.116014
0.41337	0.133406
0.446691	0.145109
0.480013	0.155217
0.557839	0.178261
0.602113	0.192174
0.647784	0.205761
0.699202	0.221377
0.751165	0.23779
0.812371	0.255507
0.872723	0.273406
0.942861	0.293804
0.978046	0.303696
1.01354	0.314493
