Adsorption isotherm of Nitrogen on Co@CuBTC
DOI: 10.1021/cm5042293
Article source: Figure 5- N2 on Co@CuBTC
Adsorbate Nitrogen: InChIKey IJGRMHOSHXDMSA-UHFFFAOYSA-N
Kind: experiment
Temperature: 77 K
Tabular data in the source: 0
pressure (bar)	uptake (mmol/g)
0.005094	15.7241
0.011951	15.8754
0.017865	15.9565
0.02082	16.0023
0.025826	16.0757
0.036156	16.2485
0.0467	16.4152
0.057422	16.5162
0.067627	16.6278
0.097887	16.9429
0.126135	17.1204
0.152852	17.2413
0.177893	17.3164
0.203078	17.3487
