Adsorption isotherm of Nitrogen on 3D-IL-COF-2
DOI: 10.1021/jacs.8b01320
Article source: Figure 3a
Adsorbate Nitrogen: InChIKey IJGRMHOSHXDMSA-UHFFFAOYSA-N
Kind: experiment
Temperature: 77 K
Tabular data in the source: 0
pressure (bar)	uptake (cm3(STP)/g)
0	74.5672
0.021052	121.438
0.032036	129.96
0.052173	138.482
0.066818	144.874
0.083293	152.33
0.1016	157.656
0.152857	169.374
0.204114	181.092
0.253541	190.679
0.302968	199.201
0.354226	211.984
0.405483	221.571
0.455825	231.158
0.506167	240.746
0.556509	258.855
0.605936	269.507
0.658109	283.356
0.708451	299.334
0.757878	316.378
0.807305	338.748
0.858562	381.358
0.912566	420.772
0.961993	483.622
1.00044	626.365
0.103477	193.824
0.153146	207.126
0.202816	219.477
0.253312	228.029
0.303809	237.53
0.354306	246.081
0.405631	254.632
0.456128	265.083
0.504142	279.335
0.554638	293.587
0.606791	307.838
0.709441	341.093
0.759937	361.045
0.813746	391.449
0.907289	450.356
0.961097	503.563
0.858448	413.302
