Adsorption isotherm of Nitrogen on 3D-IL-COF-1
DOI: 10.1021/jacs.8b01320
Article source: Figure 3a
Adsorbate Nitrogen: InChIKey IJGRMHOSHXDMSA-UHFFFAOYSA-N
Kind: experiment
Temperature: 77 K
Tabular data in the source: 0
pressure (bar)	uptake (cm3(STP)/g)
0.010068	70.3063
0.026544	83.0892
0.048512	95.8722
0.068648	106.525
0.082378	110.786
0.104346	116.112
0.152857	127.83
0.203199	141.678
0.254457	151.265
0.305714	161.917
0.354226	173.635
0.405483	184.288
0.506167	202.397
0.559255	213.049
0.455825	197.071
0.606852	224.767
0.657194	232.224
0.709367	240.746
0.757878	248.202
0.80822	258.855
0.860393	272.703
0.910735	281.225
0.961993	296.138
1.00044	340.879
0.050497	123.515
0.101822	141.568
0.152319	155.819
0.202816	169.121
0.252485	178.622
0.303809	188.124
0.353479	197.625
0.403975	207.126
0.4553	219.477
0.504969	227.078
0.555466	239.43
0.607619	248.931
0.658116	255.582
0.710268	264.133
0.75911	272.684
0.810434	282.185
0.856792	290.736
0.909773	296.437
0.957786	311.639
