Adsorption isotherm of Nitrogen on 3D-IL-COF-3
DOI: 10.1021/jacs.8b01320
Article source: Figure 3a
Adsorbate Nitrogen: InChIKey IJGRMHOSHXDMSA-UHFFFAOYSA-N
Kind: experiment
Temperature: 77 K
Tabular data in the source: 0
pressure (bar)	uptake (cm3(STP)/g)
-0.000915	4.26098
0	31.9574
0.001831	50.0666
0.000915	108.655
0.006407	126.764
0.017391	147.004
0.032036	161.917
0.048512	174.7
0.068648	187.483
0.083293	196.005
0.10343	204.527
0.151026	219.441
0.202284	240.746
0.24988	251.398
0.302968	259.92
0.354226	268.442
0.405483	276.964
0.453079	283.356
0.506167	291.878
0.557425	302.53
0.606852	308.921
0.658109	319.574
0.707536	323.835
0.760624	332.357
0.809136	341.944
0.861308	364.314
0.910735	428.229
0.961077	530.493
1.00135	796.804
0.000828	146.318
0.014073	178.622
0.050497	211.876
0.101822	237.53
0.150663	255.582
0.20116	273.634
0.252485	286.936
0.302982	294.537
0.352651	304.988
0.405631	311.639
0.456128	320.19
0.505797	332.542
0.55795	340.143
0.606791	345.843
0.658116	351.544
0.711096	361.045
0.758282	372.447
0.810434	387.648
0.856792	419.952
0.911428	482.66
0.961097	571.021
