Adsorption isotherm of Nitrogen on TfpBDH
DOI: 10.1039/c5sc00512d
Article source: Figure 3D
Adsorbate Nitrogen: InChIKey IJGRMHOSHXDMSA-UHFFFAOYSA-N
Kind: experiment
Temperature: 77 K
Tabular data in the source: 0
pressure (bar)	uptake (cm3(STP)/g)
0.001313	1.14006
0.001313	12.5407
0.001313	26.2215
0.001313	42.1824
0.001313	53.5831
0.001313	53.5831
0.002625	140.228
0.001313	160.749
0.001313	176.71
0.003938	194.951
0.007875	204.072
0.011813	215.472
0.024937	220.033
0.051188	230.293
0.076125	238.274
0.103687	245.114
0.128625	249.674
0.15225	254.235
0.181125	257.655
0.20475	262.215
0.231	265.635
0.258563	269.055
0.2835	273.616
0.30975	274.756
0.333375	278.176
0.359625	281.596
0.385875	283.876
0.412125	288.436
0.438375	291.857
0.463312	295.277
0.486938	298.697
0.5145	304.397
0.54075	305.537
0.567	311.238
0.590625	313.518
0.615563	318.078
0.641812	321.498
0.66675	323.779
0.695625	327.199
0.71925	330.619
0.746812	336.319
0.770437	340.879
0.799312	345.44
0.82425	352.28
0.847875	359.121
0.872812	367.101
0.899063	376.221
0.925312	391.042
0.951563	409.283
0.9765	442.345
1.00144	531.27
1.00669	685.179
1.00538	685.179
0.977812	517.59
0.95025	459.446
0.925312	425.244
0.900375	405.863
0.874125	392.182
0.847875	384.202
0.821625	373.941
0.794063	368.241
0.770437	362.541
0.742875	355.7
0.720563	352.28
0.696938	347.72
0.670687	343.16
0.643125	339.739
0.616875	337.459
0.590625	331.759
0.564375	329.479
0.539438	326.059
0.513187	321.498
0.48825	313.518
0.462	304.397
0.437063	300.977
0.410812	297.557
0.385875	295.277
0.360938	292.997
0.333375	288.436
0.307125	286.156
0.282187	283.876
0.258563	279.316
0.229687	275.896
0.206062	272.476
0.179813	271.336
0.15225	264.495
0.128625	259.935
0.105	257.655
0.077438	250.814
0.051188	242.834
0.023625	230.293
0.006563	206.352
0	178.99
0	153.909
0	131.107
