Adsorption isotherm of Nitrogen on TpBDH (In 3N HCl, 7 days)
DOI: 10.1039/c5sc00512d
Article source: Figure 3C
Adsorbate Nitrogen: InChIKey IJGRMHOSHXDMSA-UHFFFAOYSA-N
Kind: experiment
Temperature: 77 K
Tabular data in the source: 0
pressure (bar)	uptake (cm3(STP)/g)
0	0
0	21.4538
0.003675	43.2842
0.004947	62.1377
0.00622	82.9758
0.008765	102.822
0.008765	128.621
0.043122	158.39
0.099113	162.359
0.150013	166.328
0.165283	166.328
0.202186	170.297
0.241634	172.282
0.273446	172.282
0.300169	172.282
0.343434	175.259
0.375247	177.243
0.398152	176.251
0.424875	178.236
0.451597	178.236
0.482137	178.236
0.510133	179.228
0.541945	180.22
0.56485	182.205
0.594118	183.197
0.622113	183.197
0.656471	185.182
0.685739	185.182
0.715006	186.174
0.741729	187.166
0.777359	187.166
0.802809	190.143
0.83335	192.128
0.86389	194.112
0.893157	197.089
0.921153	198.081
0.952965	206.02
0.994958	229.835
1.0115	281.434
1.01023	280.442
0.992413	249.681
0.97078	227.85
0.941513	214.95
0.9097	209.989
0.877887	203.043
0.84862	199.074
0.818079	198.081
0.787539	196.097
0.758272	195.105
0.726459	194.112
0.688284	191.135
0.651381	190.143
0.617023	190.143
0.591573	188.159
0.562305	190.143
0.531765	186.174
0.505043	186.174
0.474502	181.213
0.446507	180.22
0.42233	180.22
0.395607	178.236
0.366339	177.243
0.338344	176.747
0.303986	174.266
0.274719	175.259
0.251814	173.274
0.217456	173.274
0.192006	170.297
0.161466	166.328
0.136015	167.32
0.110565	165.336
0.084479	162.359
0.05712	158.39
0.029125	151.444
0.012582	136.559
0.003675	112.744
0.003675	89.9218
0	69.5799
