Adsorption isotherm of Nitrogen on TpBDH (In H2O, 7 days)
DOI: 10.1039/c5sc00512d
Article source: Figure 3C
Adsorbate Nitrogen: InChIKey IJGRMHOSHXDMSA-UHFFFAOYSA-N
Kind: experiment
Temperature: 77 K
Tabular data in the source: 0
pressure (bar)	uptake (cm3(STP)/g)
0	0
0	10.5386
0	27.4075
0.00113	49.2379
0.003675	62.1377
0.003675	78.0143
0.003675	94.8833
0.004947	108.775
0.003675	121.675
0.00113	132.59
-0.000143	144.498
0.00113	159.382
0.003675	169.305
0.008765	181.213
0.02658	194.112
0.050757	202.051
0.074935	208.997
0.100385	213.958
0.130925	217.927
0.165283	225.866
0.199641	228.842
0.239089	233.804
0.278536	238.765
0.315439	242.735
0.354887	248.688
0.385427	249.681
0.413422	252.657
0.450325	260.1
0.47832	261.588
0.506315	264.565
0.527948	267.542
0.555943	270.519
0.581393	273.496
0.604298	276.472
0.632293	279.449
0.653926	282.426
0.681921	286.395
0.707371	290.364
0.734094	294.334
0.756999	297.31
0.784994	301.28
0.809172	307.233
0.834622	313.187
0.860072	320.133
0.88425	329.064
0.9097	340.971
0.94024	357.84
0.961873	389.594
0.987323	471.954
1.00514	584.082
1.00641	586.067
1.00005	550.345
0.991141	508.668
0.97078	455.085
0.94024	408.447
0.90461	375.701
0.857527	343.948
0.834622	334.025
0.807899	328.072
0.781177	322.118
0.756999	317.156
0.731549	312.195
0.707371	309.218
0.684466	304.257
0.660289	300.287
0.629748	297.31
0.608116	293.341
0.581393	288.38
0.558488	282.426
0.52413	279.449
0.491045	273.496
0.459232	267.542
0.436327	262.58
0.409605	260.596
0.385427	256.627
0.358704	255.634
0.330709	253.65
0.303986	249.681
0.278536	247.696
0.253086	243.727
0.226363	240.75
0.202186	238.765
0.176736	234.796
0.152558	231.819
0.125835	227.85
0.101658	222.889
0.073663	217.927
0.044395	208.004
