Adsorption isotherm of Nitrogen on TpBDH
DOI: 10.1039/c5sc00512d
Article source: Figure 3C
Adsorbate Nitrogen: InChIKey IJGRMHOSHXDMSA-UHFFFAOYSA-N
Kind: experiment
Temperature: 77 K
Tabular data in the source: 0
pressure (bar)	uptake (cm3(STP)/g)
0	0
0	14.8148
0	37.037
0	60.1531
0	85.9527
0	107.783
0	131.598
0	153.428
0.008765	178.236
0.008765	203.043
0.018945	224.873
0.044395	243.727
0.071118	249.681
0.100385	255.634
0.12838	260.596
0.151285	260.596
0.181826	264.565
0.207276	266.549
0.237816	268.534
0.265811	272.503
0.301441	274.488
0.331982	276.472
0.356159	279.449
0.385427	282.426
0.413422	283.418
0.451597	285.403
0.487228	288.38
0.52413	290.364
0.557215	295.326
0.586483	297.31
0.620841	299.295
0.653926	304.257
0.681921	308.226
0.711189	309.218
0.740457	313.187
0.763362	315.172
0.792629	319.141
0.821897	326.087
0.849892	331.048
0.87916	339.979
0.905883	347.917
0.927515	359.825
0.951693	380.663
0.966963	408.447
0.986051	431.27
0.993049	462.527
0.993686	492.792
1.00514	518.591
1.01023	548.36
1.01023	548.36
0.997503	517.599
0.991141	495.769
0.98096	462.031
0.962509	429.285
0.936423	394.555
0.903338	366.771
0.86389	352.879
0.834622	344.94
0.807899	338.987
0.777359	337.002
0.743002	329.064
0.705463	324.598
0.679376	321.125
0.651381	321.125
0.623386	317.156
0.592846	313.187
0.55976	308.226
0.525403	302.272
0.491045	303.264
0.459232	298.303
0.426147	296.318
0.394334	292.349
0.371429	290.364
0.342162	288.38
0.314166	286.395
0.288716	282.426
0.261994	281.434
0.227636	277.465
0.203458	276.472
0.172918	270.519
0.146195	267.542
0.115655	265.557
0.088933	258.611
0.060937	253.65
0.03167	241.742
0.010037	225.866
0.00622	199.074
0.001766	171.29
