Adsorption isotherm of Nitrogen on TpBDH-CONs
DOI: 10.1039/c5sc00512d
Article source: Figure 3C
Adsorbate Nitrogen: InChIKey IJGRMHOSHXDMSA-UHFFFAOYSA-N
Kind: experiment
Temperature: 77 K
Tabular data in the source: 0
pressure (bar)	uptake (cm3(STP)/g)
0	2.60028
0.0164	17.4846
0.048212	19.4692
0.076208	19.4692
0.100385	21.4538
0.12838	24.4307
0.158921	27.4075
0.192006	27.4075
0.222546	29.3921
0.251814	30.8806
0.288716	33.3613
0.325619	35.3459
0.354887	39.315
0.400697	39.315
0.433782	42.2919
0.466867	44.2765
0.489773	47.2533
0.522858	51.2225
0.548308	52.2148
0.578848	58.1685
0.606843	59.1608
0.629748	61.1454
0.655199	65.1146
0.690829	69.0837
0.717551	74.0452
0.751909	75.0375
0.782449	80.9912
0.812989	87.9372
0.84353	93.891
0.872797	102.822
0.896975	110.76
0.92497	122.667
0.951693	140.529
0.969508	156.405
0.98096	178.236
0.987323	196.097
0.992413	218.92
0.994958	237.773
0.998776	271.511
1.00896	302.272
1.00641	303.264
0.991141	274.488
0.982233	246.704
0.978415	221.896
0.969508	195.105
0.95042	174.266
0.93515	149.459
0.902065	128.621
0.86389	113.737
0.84353	103.814
0.811717	101.829
0.786267	96.8679
0.756999	90.9141
0.72964	86.945
0.707371	85.9527
0.674286	78.0143
0.645018	76.0298
0.611933	73.0529
0.586483	68.0914
0.56485	68.0914
0.53431	62.1377
0.505043	60.1531
0.477047	57.1762
0.451597	54.1994
0.42233	49.2379
0.395607	47.2533
0.365067	44.2765
0.334527	43.2842
0.311621	40.3073
0.283626	40.3073
0.253086	35.3459
0.226363	36.3381
0.197096	36.3381
0.169101	33.3613
0.137924	33.3613
0.105475	29.3921
0.071118	27.4075
0.03676	20.4615
0.007492	9.54631
