Adsorption isotherm of Nitrogen on TfpBDH-CONs
DOI: 10.1039/c5sc00512d
Article source: Figure 3D
Adsorbate Nitrogen: InChIKey IJGRMHOSHXDMSA-UHFFFAOYSA-N
Kind: experiment
Temperature: 77 K
Tabular data in the source: 0
pressure (bar)	uptake (cm3(STP)/g)
0	4.56026
0.001313	17.101
0.002625	27.3616
0.003938	35.342
0.0105	43.3225
0.027563	46.7427
0.055125	53.013
0.090562	57.0033
0.128625	63.8436
0.166687	67.2638
0.202125	72.9642
0.238875	77.5244
0.280875	83.2248
0.307125	86.645
0.349125	88.9251
0.389812	95.7655
0.439687	100.326
0.483	109.446
0.517781	112.866
0.559125	118.567
0.591938	119.707
0.627375	127.687
0.65625	131.107
0.694312	136.808
0.733687	143.648
0.767812	149.349
0.80325	152.769
0.838688	165.309
0.87675	174.43
0.909563	186.971
0.942375	207.492
0.963375	237.134
0.989625	307.818
0.996188	373.941
1.00275	451.466
1.00538	453.746
0.988312	372.801
0.975188	311.238
0.963375	269.055
0.937125	229.153
0.9135	209.772
0.888563	198.371
0.859688	188.111
0.837375	182.41
0.809812	173.29
0.784875	169.87
0.758625	165.309
0.732375	161.889
0.710063	155.049
0.685125	153.909
0.658875	147.068
0.633938	145.928
0.609	142.508
0.584063	137.948
0.558469	134.528
0.532875	131.107
0.507938	125.407
0.483	124.267
0.45675	119.707
0.4305	116.287
0.406875	114.007
0.380625	109.446
0.354375	107.166
0.329438	104.886
0.301875	101.466
0.27825	98.0456
0.252	95.7655
0.227062	91.2052
0.20475	88.9251
0.177187	86.645
0.150938	84.3648
0.127313	80.9446
0.101062	76.3844
0.076125	72.9642
0.048563	68.4039
0.023625	58.1433
0.002625	42.1824
