Adsorption isotherm of Nitrogen on TfpBDH (In H2O, 7 days)
DOI: 10.1039/c5sc00512d
Article source: Figure 3D
Adsorbate Nitrogen: InChIKey IJGRMHOSHXDMSA-UHFFFAOYSA-N
Kind: experiment
Temperature: 77 K
Tabular data in the source: 0
pressure (bar)	uptake (cm3(STP)/g)
0	1.14006
0	12.5407
0	26.2215
0	42.1824
0	54.7231
0	64.9837
0.001313	78.6645
0.002625	87.785
0.009188	108.306
0.028875	131.107
0.04725	153.909
0.074812	176.71
0.101062	181.27
0.126	185.831
0.164062	197.231
0.203438	199.511
0.254625	207.492
0.305812	213.192
0.357	220.033
0.40425	225.733
0.443625	228.013
0.481687	234.853
0.5355	242.834
0.581438	248.534
0.623438	256.515
0.660187	257.655
0.704812	267.915
0.7455	273.616
0.784875	286.156
0.826875	296.417
0.859688	312.378
0.88725	327.199
0.912188	350
0.93975	379.642
0.963375	441.205
0.9765	519.87
0.986344	587.134
0.962063	523.29
0.937125	433.225
0.9135	386.482
0.884625	359.121
0.861	340.879
0.836063	327.199
0.811125	315.798
0.784875	307.818
0.758625	297.557
0.735	290.717
0.711375	287.296
0.683812	281.596
0.657563	274.756
0.632625	272.476
0.606375	267.915
0.584063	263.355
0.557812	262.215
0.53025	257.655
0.506625	254.235
0.480375	249.674
0.454125	240.554
0.429187	235.993
0.406875	232.573
0.379312	231.433
0.354375	226.873
0.332063	225.733
0.303187	222.313
0.275625	217.752
0.253312	216.612
0.228375	210.912
0.202125	208.632
0.175875	204.072
0.149625	199.511
0.125344	194.951
0.101062	190.391
0.076125	181.27
0.048563	164.169
0.023625	134.528
