Adsorption isotherm of Nitrogen on TfpBDH (In 3N HCl, 7 days)
DOI: 10.1039/c5sc00512d
Article source: Figure 3D
Adsorbate Nitrogen: InChIKey IJGRMHOSHXDMSA-UHFFFAOYSA-N
Kind: experiment
Temperature: 77 K
Tabular data in the source: 0
pressure (bar)	uptake (cm3(STP)/g)
0	0
0	13.6808
0.002625	27.3616
0.001313	41.0423
0.002625	57.0033
0.001969	77.5244
0.011813	102.606
0.0105	126.547
0.024937	149.349
0.055125	159.609
0.084	161.889
0.108938	161.889
0.160125	167.59
0.21	168.73
0.244125	168.73
0.273	173.29
0.311719	175.57
0.349125	174.43
0.399	177.85
0.444938	178.99
0.510563	181.27
0.538125	182.41
0.567	181.27
0.5985	181.27
0.633938	184.691
0.66675	183.55
0.712687	186.971
0.742875	189.251
0.774375	190.391
0.8085	192.671
0.84	193.811
0.870188	196.091
0.899063	196.091
0.917437	193.811
0.926625	199.511
0.93975	205.212
0.963375	212.052
0.9975	249.674
1.008	280.456
1.008	279.316
1.00013	251.954
0.984375	229.153
0.958125	221.173
0.921375	204.072
0.861	201.792
0.863625	201.792
0.82425	199.511
0.790125	197.231
0.758625	194.951
0.728438	193.811
0.696938	191.531
0.658875	191.531
0.623438	190.391
0.590625	188.111
0.559125	188.111
0.534187	188.111
0.501375	185.831
0.47775	186.971
0.448875	185.831
0.418687	183.55
0.391125	183.55
0.36225	182.41
0.337312	184.691
0.305812	181.27
0.275625	178.99
0.237562	174.43
0.207375	174.43
0.177187	171.01
0.145687	171.01
0.114187	165.309
0.082688	163.029
0.055125	159.609
0.023625	150.489
0.013125	124.267
0.00525	100.326
