Adsorption isotherm of Methane on Coal W1
DOI: 10.1016/s0008-6223(97)00124-3
Adsorbate Methane: InChIKey VNWKTOKETHGBQD-UHFFFAOYSA-N
Temperature: 303 K
Tabular data in the source: 0
pressure (bar)	uptake (cm3(STP)/g)
0.40104	0.980359
1.57959	2.02343
2.75576	2.88282
3.93749	4.1708
6.28428	5.461
8.63584	7.11856
10.9795	8.16386
14.1022	9.39433
19.1667	10.6285
23.4537	11.8
30.4569	12.793
35.5166	13.6598
44.074	14.717
48.7438	15.4606
58.0747	16.2744
65.8522	17.0852
75.5731	18.0221
86.4606	19.0838
93.0683	19.525
100.847	20.397
109.013	21.2698
116.4	21.8962
123.788	22.645
130.012	23.3916
134.677	23.8291
140.901	24.6369
146.736	25.3216
154.515	26.316
159.963	27.1224
