Adsorption isotherm of Methane on Coal B4
DOI: 10.1016/s0008-6223(97)00124-3
Adsorbate Methane: InChIKey VNWKTOKETHGBQD-UHFFFAOYSA-N
Temperature: 303 K
Tabular data in the source: 0
pressure (bar)	uptake (cm3(STP)/g)
0.790123	0.796108
2.37037	2.32722
4.34568	3.61484
5.92593	5.08486
8.69136	6.55759
10.6667	7.60081
13.8272	8.89115
18.5679	10.5517
23.7037	11.9688
29.2346	13.0812
33.5802	13.8244
39.5062	14.7545
44.642	15.4383
51.7531	16.0656
58.8642	16.754
66.3704	17.1378
77.4321	17.652
85.7284	18.0376
97.9753	18.4933
105.877	18.7558
109.432	18.8862
113.383	18.9563
116.938	19.0867
120.889	19.2179
124.84	19.2881
128.395	19.4184
132.346	19.4275
135.901	19.4967
139.457	19.566
143.012	19.6963
146.963	19.7665
150.914	19.8366
