Adsorption isotherm of Methane on Coal W1
DOI: 10.1016/s0008-6223(97)00124-3
Adsorbate Methane: InChIKey VNWKTOKETHGBQD-UHFFFAOYSA-N
Temperature: 303 K
Tabular data in the source: 0
pressure (bar)	uptake (cm3(STP)/g)
3.04501	3.63133
8.41351	6.90152
17.6459	10.2351
28.8239	12.542
38.8503	14.2431
49.6528	15.7029
58.914	16.7986
68.9498	17.7739
80.1465	18.6291
89.8004	19.2413
