Adsorption isotherm of Methane on Coal GHA1-09
DOI: 10.1016/s0008-6223(97)00124-3
Adsorbate Methane: InChIKey VNWKTOKETHGBQD-UHFFFAOYSA-N
Temperature: 303 K
Tabular data in the source: 0
pressure (bar)	uptake (cm3(STP)/g)
1.85653	1.30341
3.224	2.50633
4.58497	3.44213
5.70018	4.2776
7.30528	5.24695
9.03284	6.24977
10.9997	7.08581
13.4563	8.05573
16.4037	9.19292
18.858	10.0627
22.043	10.9663
25.2255	11.7698
29.2638	12.7407
32.8072	13.3775
36.4707	13.9476
39.8901	14.4841
43.4303	14.9873
46.724	15.3567
50.75	15.8269
53.9196	16.0961
57.8224	16.4994
61.2352	16.7688
64.7698	17.0382
68.6693	17.308
72.0814	17.544
75.7343	17.68
78.6581	17.8489
82.7993	18.052
85.114	18.1871
88.8895	18.3565
93.6397	18.5934
97.171	18.7293
