Adsorption isotherm of Methane on Coal GHA1-09
DOI: 10.1016/s0008-6223(97)00124-3
Adsorbate Methane: InChIKey VNWKTOKETHGBQD-UHFFFAOYSA-N
Temperature: 303 K
Tabular data in the source: 0
pressure (bar)	uptake (cm3(STP)/g)
4.84453	4.11008
20.1986	10.1637
30.1072	12.4074
40.2445	14.0502
49.8855	15.2921
59.3958	16.1665
69.7585	17.075
79.8747	17.8497
89.381	18.5572
98.8823	19.0644
