Adsorption isotherm of Methane on Coal W1
DOI: 10.1016/s0008-6223(97)00124-3
Adsorbate Methane: InChIKey VNWKTOKETHGBQD-UHFFFAOYSA-N
Temperature: 303 K
Tabular data in the source: 0
pressure (bar)	uptake (cm3(STP)/g)
1.14071	1.45248
4.58777	3.87444
7.6507	6.11466
11.1032	8.11323
15.3365	9.50756
19.5681	11.0229
23.8045	12.1753
28.4281	13.2675
36.5276	14.5437
44.2422	15.6988
53.1217	16.4313
61.6154	17.103
72.0415	17.7762
79.767	18.0845
89.4218	18.6362
94.8308	18.7612
104.101	19.1311
113.374	19.3801
120.714	19.5671
129.988	19.6951
138.874	19.9437
149.306	20.133
