Adsorption isotherm of Methane on Coal GHA1-09
DOI: 10.1016/s0008-6223(97)00124-3
Adsorbate Methane: InChIKey VNWKTOKETHGBQD-UHFFFAOYSA-N
Temperature: 323 K
Tabular data in the source: 0
pressure (bar)	uptake (cm3(STP)/g)
0.495562	0.36761
1.85003	1.03629
3.07959	1.57134
4.18913	2.17308
4.68306	2.47391
5.29947	2.80821
7.01972	3.51053
7.75941	3.91169
8.49828	4.27946
10.2185	4.98178
11.693	5.58377
13.6525	6.1193
15.8602	6.85533
17.5764	7.3907
18.8027	7.79219
20.5181	8.29417
23.0875	8.89689
25.777	9.43291
28.1014	9.96868
29.5686	10.2702
30.9133	10.5382
31.8907	10.7058
32.9896	10.8734
34.0886	11.0411
35.0659	11.2087
36.1649	11.3764
37.1422	11.544
38.1195	11.7116
39.8292	11.9799
40.8057	12.1141
41.783	12.2817
42.8812	12.4159
43.9793	12.5502
45.0775	12.6845
46.1756	12.8188
47.2738	12.9531
48.372	13.0874
51.179	13.4565
52.2763	13.5574
53.3737	13.6583
54.471	13.7592
55.5684	13.8601
56.7874	13.9611
57.8855	14.0954
58.8612	14.1962
59.9578	14.2637
60.9318	14.2978
61.7875	14.4653
63.0057	14.5329
64.103	14.6338
65.322	14.7348
66.4194	14.8357
67.6375	14.9033
68.7349	15.0042
69.8331	15.1385
71.0504	15.1727
72.1478	15.2736
73.366	15.3411
74.4633	15.442
75.6807	15.4762
76.8989	15.5438
77.9946	15.578
78.9711	15.7122
79.9476	15.8464
81.0409	15.7803
82.1382	15.8812
83.3556	15.9154
84.4521	15.9829
85.6711	16.0839
86.8885	16.1181
87.9859	16.219
89.0816	16.2531
