Adsorption isotherm of Methane on Coal GHA1-09
DOI: 10.1016/s0008-6223(97)00124-3
Adsorbate Methane: InChIKey VNWKTOKETHGBQD-UHFFFAOYSA-N
Temperature: 303 K
Tabular data in the source: 0
pressure (bar)	uptake (cm3(STP)/g)
5.18533	0.0074746
7.36391	0.00925537
9.03539	0.0109219
11.4727	0.0130476
14.2733	0.0143092
17.5882	0.016088
20.6474	0.0176946
24.3339	0.0190698
27.7657	0.0203303
31.8288	0.0215898
35.6353	0.0226194
39.4428	0.0237066
42.8663	0.0245066
46.1625	0.0252492
49.8385	0.0260488
54.1407	0.0265595
58.0682	0.027301
61.3613	0.027871
64.6534	0.0283834
68.4494	0.0288374
72.6253	0.0293483
76.1678	0.0297451
79.7114	0.0301995
83.76	0.030653
87.4277	0.0309921
90.9692	0.0313314
94.5086	0.0315555
98.3036	0.0319519
