Adsorption isotherm of Methane on Coal B4
DOI: 10.1016/s0008-6223(97)00124-3
Adsorbate Methane: InChIKey VNWKTOKETHGBQD-UHFFFAOYSA-N
Temperature: 303 K
Tabular data in the source: 0
pressure (bar)	uptake (cm3(STP)/g)
2.37037	2.75492
7.50617	6.06608
16.5926	9.87508
28.0494	12.4675
38.716	14.4472
49.7778	15.5723
60.0494	16.5123
69.5309	17.2673
79.8025	17.8407
91.2593	18.4168
100.741	18.9885
