Adsorption isotherm of Methane on Coal B4
DOI: 10.1016/s0008-6223(97)00124-3
Adsorbate Methane: InChIKey VNWKTOKETHGBQD-UHFFFAOYSA-N
Temperature: 303 K
Tabular data in the source: 0
pressure (bar)	uptake (cm3(STP)/g)
0.0325078	0.733231
1.42221	2.07884
3.24446	3.18049
5.5209	4.52701
6.89977	5.62821
9.61959	6.97517
10.9768	7.58755
11.8852	8.07728
13.6831	8.62901
19.5308	10.5291
21.7721	11.0812
22.6696	11.3265
25.3515	11.8181
31.6129	13.0464
35.6384	13.8448
41.8835	14.7066
47.2229	15.1397
52.5732	15.8173
56.1391	16.2486
64.1441	16.8067
67.2613	17.1153
73.044	17.5489
77.0371	17.6141
81.9331	18.0468
86.3749	18.2346
94.8179	18.6709
101.479	18.9221
103.699	18.9854
107.697	19.1728
112.139	19.3606
116.135	19.4869
120.574	19.6136
124.57	19.7399
128.565	19.8662
133.005	19.9929
137	20.1191
140.993	20.1843
144.989	20.3106
149.426	20.3762
153.419	20.4414
157.855	20.507
162.291	20.5726
166.284	20.6378
170.724	20.7645
174.273	20.8292
178.71	20.8948
