Adsorption isotherm of Methane on Coal W1
DOI: 10.1016/s0008-6223(97)00124-3
Adsorbate Methane: InChIKey VNWKTOKETHGBQD-UHFFFAOYSA-N
Temperature: 303 K
Tabular data in the source: 0
pressure (bar)	uptake (cm3(STP)/g)
0.776071	0.242522
1.56383	1.39231
2.7404	2.72385
3.91932	4.23683
5.48159	5.50818
7.42488	6.35642
10.537	7.93135
13.6444	9.14338
18.6904	10.8407
22.5661	11.6904
29.9263	13.0267
34.9614	13.8772
42.7042	14.9113
52.7658	15.9472
62.8267	16.9225
69.015	17.2901
75.5906	17.7184
82.1638	17.9653
85.258	18.1491
89.1251	18.3335
92.6057	18.5176
95.6983	18.5804
99.5654	18.7648
103.045	18.8884
106.525	19.012
110.392	19.1964
113.872	19.32
117.352	19.4436
120.445	19.5064
123.924	19.63
127.403	19.6931
130.883	19.8167
134.362	19.8798
138.227	19.8827
142.093	20.0066
145.573	20.0697
149.438	20.1331
