Adsorption isotherm of Methane on Coal GHA1-09
DOI: 10.1016/s0008-6223(97)00124-3
Adsorbate Methane: InChIKey VNWKTOKETHGBQD-UHFFFAOYSA-N
Temperature: 298 K
Tabular data in the source: 0
pressure (bar)	uptake (cm3(STP)/g)
4.94319	0.00805067
6.61259	0.00960207
8.28407	0.0112686
10.8435	0.0131638
12.1217	0.0140251
14.7959	0.0152869
16.841	0.016665
18.4969	0.0174681
19.6488	0.0183296
22.5714	0.0193607
24.099	0.0200488
26.5135	0.0209082
28.9259	0.0216523
31.8475	0.0226259
34.1305	0.0231976
36.6671	0.0238265
38.8239	0.0243984
41.3584	0.0249121
43.5142	0.0254265
45.4143	0.0257686
48.3307	0.0264544
50.6127	0.0269685
53.525	0.027424
55.9301	0.0277653
58.8444	0.0283359
62.1344	0.0287332
63.9083	0.0290755
67.3245	0.0294725
71.1216	0.0299841
74.0308	0.0302669
76.6885	0.0306077
80.1037	0.0309472
