Adsorption isotherm of Methane on Coal GHA1-09
DOI: 10.1016/s0008-6223(97)00124-3
Adsorbate Methane: InChIKey VNWKTOKETHGBQD-UHFFFAOYSA-N
Temperature: 323 K
Tabular data in the source: 0
pressure (bar)	uptake (cm3(STP)/g)
4.93613	2.87475
11.208	5.65022
20.2724	8.19384
29.9336	10.2704
40.3118	11.8132
50.3193	13.1221
60.3235	14.2974
69.9547	15.1385
79.8251	15.8129
89.8221	16.6877
