Adsorption isotherm of Methane on Coal B4
DOI: 10.1016/s0008-6223(97)00124-3
Adsorbate Methane: InChIKey VNWKTOKETHGBQD-UHFFFAOYSA-N
Temperature: 303 K
Tabular data in the source: 0
pressure (bar)	uptake (cm3(STP)/g)
1.35709	0.609896
2.73846	1.76748
4.14141	3.41191
5.52279	4.5695
7.7909	5.72798
10.4997	6.82606
13.6599	8.10716
16.8175	9.3274
21.3051	10.549
24.8899	11.4046
29.8074	12.3223
32.4946	12.9336
37.3932	13.4253
41.4105	14.0379
47.6447	14.6528
52.1027	15.205
54.333	15.5115
59.2209	15.7599
61.8946	16.0668
65.455	16.3747
71.235	16.7457
77.0096	16.9949
82.3463	17.3655
87.6775	17.6143
93.4494	17.8027
97.4505	18.0502
104.555	18.3008
110.33	18.55
117.878	18.8011
124.534	18.9295
133.409	19.1211
140.955	19.3113
149.825	19.3812
158.703	19.6336
164.472	19.7611
168.906	19.7656
