Adsorption isotherm of Methane on Coal GHA1-09
DOI: 10.1016/s0008-6223(97)00124-3
Adsorbate Methane: InChIKey VNWKTOKETHGBQD-UHFFFAOYSA-N
Temperature: 323 K
Tabular data in the source: 0
pressure (bar)	uptake (cm3(STP)/g)
5.52569	0.00534408
7.57386	0.00689481
9.61892	0.00827286
12.1742	0.00993786
15.102	0.0112568
17.3965	0.0124617
19.5626	0.0135517
23.3774	0.0150419
26.4294	0.0162455
29.0974	0.0171619
32.7776	0.0181917
36.077	0.0191071
38.8692	0.0199082
41.9139	0.0207089
44.8283	0.0212795
47.7447	0.0219652
50.9136	0.0226506
53.3198	0.0230494
56.7402	0.0236767
59.0201	0.0240757
61.8051	0.0244739
65.0972	0.0249863
68.264	0.0255565
71.1742	0.0258968
73.3289	0.0263536
76.4905	0.026636
79.528	0.0270337
82.314	0.0274894
85.604	0.0278867
88.893	0.0282264
