Adsorption isotherm of Methane on Coal W1
DOI: 10.1016/s0008-6223(97)00124-3
Adsorbate Methane: InChIKey VNWKTOKETHGBQD-UHFFFAOYSA-N
Temperature: 303 K
Tabular data in the source: 0
pressure (bar)	uptake (cm3(STP)/g)
0.0233291	0.603639
1.63226	2.23463
4.04215	4.59058
7.18768	5.98128
9.9514	7.49242
13.8652	8.76298
20.5125	10.7599
25.1899	11.7896
31.4204	13.0016
35.702	13.7895
42.6961	14.7606
54.7284	16.0976
63.2684	17.0699
75.2891	18.1051
85.7592	19.0184
95.4423	19.569
103.188	19.9974
110.159	20.3648
118.285	20.6124
125.258	21.0402
134.547	21.4094
141.513	21.6561
149.641	21.964
