Adsorption isotherm of Methane on Coal B4
DOI: 10.1016/s0008-6223(97)00124-3
Adsorbate Methane: InChIKey VNWKTOKETHGBQD-UHFFFAOYSA-N
Temperature: 303 K
Tabular data in the source: 0
pressure (bar)	uptake (cm3(STP)/g)
1.15433	2.12682
3.1056	3.58653
5.05766	4.98552
7.7947	6.62831
11.3207	8.21127
14.8499	9.55132
19.5605	10.9534
24.6709	11.9309
31.3575	12.9102
37.6548	13.5247
42.7684	14.2592
49.8531	14.9353
58.5141	15.6132
66.3862	16.3509
74.6532	17.0283
83.3134	17.7669
94.3334	18.8726
102.994	19.6112
110.08	20.1658
117.56	20.7816
127.005	21.764
134.876	22.5625
143.533	23.544
152.19	24.5255
156.125	25.0158
158.878	25.4441
