Adsorption isotherm of Methane on Coal GHA1-09
DOI: 10.1016/s0008-6223(97)00124-3
Adsorbate Methane: InChIKey VNWKTOKETHGBQD-UHFFFAOYSA-N
Temperature: 298 K
Tabular data in the source: 0
pressure (bar)	uptake (cm3(STP)/g)
0.375531	0.434308
1.73894	1.47028
3.09909	2.37269
3.85015	3.2413
4.59959	4.04314
5.95893	4.91216
6.94356	5.38026
8.30128	6.18251
9.41406	6.91781
10.7685	7.58649
12.2414	8.1217
15.1863	9.15872
17.7663	10.1955
19.2408	10.7975
20.8362	11.3662
23.1614	11.9353
26.0974	12.6051
28.1794	13.1741
30.868	13.6767
33.0692	14.1456
36.7344	14.7825
39.2973	15.1181
41.6169	15.4535
44.3006	15.7558
47.471	16.0584
49.9114	16.3605
52.7177	16.6963
55.7656	16.9655
59.0568	17.2348
63.3221	17.5381
66.4892	17.7072
70.0221	17.9099
72.7035	18.112
75.3831	18.2473
78.3086	18.483
80.6225	18.5847
