Adsorption isotherm of Methane on Coal GHA1-09
DOI: 10.1016/s0008-6223(97)00124-3
Adsorbate Methane: InChIKey VNWKTOKETHGBQD-UHFFFAOYSA-N
Temperature: 298 K
Tabular data in the source: 0
pressure (bar)	uptake (cm3(STP)/g)
4.61096	4.51059
10.1602	7.58608
20.5872	11.1323
31.1032	13.343
41.2413	15.0192
51.2521	16.4616
61.1307	17.4699
71.4885	18.178
80.8764	19.0189
