Adsorption isotherm of Toluene on Sorbonorit 4 Activated Carbon
DOI: 10.1021/je400517c
Article source: Table 9
Adsorbate Toluene: InChIKey YXFVVABEGXRONW-UHFFFAOYSA-N
Kind: experiment
Temperature: 293 K
Tabular data in the source: 1
pressure (bar)	uptake (mmol/g)
5.6e-05	2.87727
0.000146	3.15818
0.000306	3.34702
0.000623	3.48546
0.000889	3.54229
0.001166	3.58517
0.001504	3.62337
0.00176	3.6477
0.002078	3.67275
0.00238	3.69354
0.002692	3.71193
0.003001	3.72832
0.004483	3.78534
0.00591	3.82361
0.009075	3.88488
0.011702	3.92334
0.01431	3.95389
0.018296	3.99654
0.020865	4.02734
0.023649	4.06719
