Adsorption isotherm of Water on Sorbonorit 4 Activated Carbon
DOI: 10.1021/je400517c
Article source: Figure 5
Adsorbate Water: InChIKey XLYOFNOQVPJJNP-UHFFFAOYSA-N
Kind: experiment
Temperature: 323 K
Tabular data in the source: 0
pressure (bar)	uptake (mmol/g)
0	0
0.024591	1.0041
0.037046	1.69706
0.043114	2.34881
0.049341	3.45866
0.055409	5.29361
0.061637	7.20498
0.067705	9.53612
0.073932	13.0124
0.080479	15.6109
0.086387	17.1405
