Adsorption isotherm of Water on Sorbonorit 4 Activated Carbon
DOI: 10.1021/je400517c
Article source: Table 6
Adsorbate Water: InChIKey XLYOFNOQVPJJNP-UHFFFAOYSA-N
Kind: experiment
Temperature: 313 K
Tabular data in the source: 1
pressure (bar)	uptake (mmol/g)
8.9e-05	0.1525
0.000114	0.17876
0.000216	0.20492
0.000446	0.24956
0.000677	0.28412
0.000922	0.3137
0.001166	0.339
0.001413	0.3621
0.001669	0.3836
0.001905	0.40291
0.00214	0.42023
0.002378	0.43683
0.003561	0.49567
0.00469	0.56555
0.007016	0.68516
0.009331	0.8032
0.01165	0.93022
0.014116	1.07023
0.016409	1.23905
0.01872	1.43881
0.021101	1.70519
0.023475	2.06096
