Adsorption isotherm of Water on Grade 03 Silica Gel
DOI: 10.1021/je400517c
Article source: Table 3
Adsorbate Water: InChIKey XLYOFNOQVPJJNP-UHFFFAOYSA-N
Kind: experiment
Temperature: 313 K
Tabular data in the source: 1
pressure (bar)	uptake (mmol/g)
5.3e-05	0.08685
0.00011	0.12762
0.000271	0.19574
0.00044	0.39275
0.000771	0.53842
0.000913	0.67849
0.001161	0.81643
0.001382	0.91799
0.00164	1.0459
0.001874	1.15001
0.002164	1.22191
0.002345	1.35375
0.003508	1.7961
0.004686	2.21885
0.00709	2.99376
0.009381	3.79051
0.01172	4.61132
0.014077	5.42801
0.016494	6.2722
0.018819	7.16864
0.02109	8.10643
0.023444	9.06322
