Adsorption isotherm of Water on Sorbonorit 4 Activated Carbon
DOI: 10.1021/je400517c
Article source: Table 6
Adsorbate Water: InChIKey XLYOFNOQVPJJNP-UHFFFAOYSA-N
Kind: experiment
Temperature: 348 K
Tabular data in the source: 1
pressure (bar)	uptake (mmol/g)
8.6e-05	0.03704
0.000127	0.06159
0.000252	0.07619
0.000478	0.09799
0.000721	0.11536
0.000957	0.12941
0.0012	0.14168
0.00143	0.15197
0.001685	0.16178
0.001913	0.17046
0.002155	0.1784
0.00239	0.18597
0.003484	0.21044
0.004735	0.23556
0.007088	0.27309
0.00943	0.31067
0.01177	0.34041
0.014117	0.36986
0.01645	0.39509
0.0188	0.42131
0.021141	0.44537
0.023486	0.46626
