Adsorption isotherm of Water on Sorbonorit 4 Activated Carbon
DOI: 10.1021/je400517c
Article source: Table 6
Adsorbate Water: InChIKey XLYOFNOQVPJJNP-UHFFFAOYSA-N
Kind: experiment
Temperature: 293 K
Tabular data in the source: 1
pressure (bar)	uptake (mmol/g)
5.5e-05	0.14728
0.00011	0.17924
0.000221	0.21295
0.000443	0.26521
0.000682	0.3097
0.000926	0.35011
0.001177	0.38933
0.001424	0.42499
0.001672	0.46003
0.0019	0.49304
0.002131	0.52479
0.002378	0.55832
0.003487	0.71842
0.004722	0.91159
0.006989	1.6043
0.00941	3.47243
0.011698	6.84255
0.014008	10.2994
0.016411	16.0635
0.018726	18.3136
0.021086	19.2122
