Adsorption isotherm of Toluene on HiSiv 3000 Zeolite
DOI: 10.1021/je400517c
Article source: Table 12
Adsorbate Toluene: InChIKey YXFVVABEGXRONW-UHFFFAOYSA-N
Kind: experiment
Temperature: 313 K
Tabular data in the source: 1
pressure (bar)	uptake (mmol/g)
5.1e-05	0.38425
0.000166	0.58727
0.000325	0.64459
0.00059	0.68022
0.000909	0.70415
0.001166	0.71788
0.001514	0.73205
0.001765	0.74087
0.002078	0.75019
0.00239	0.75833
0.002706	0.76569
0.003013	0.77221
0.004491	0.79559
0.005924	0.81458
0.009093	0.848
0.011719	0.87185
0.014322	0.89483
0.01833	0.92886
0.020889	0.9482
0.023667	0.96847
0.026659	0.98528
0.029186	0.9974
