Adsorption isotherm of 2-Propanol on HiSiv 3000 Zeolite
DOI: 10.1021/je400517c
Article source: Table 11
Adsorbate 2-Propanol: InChIKey KFZMGEQAYNKOFK-UHFFFAOYSA-N
Kind: experiment
Temperature: 313 K
Tabular data in the source: 1
pressure (bar)	uptake (mmol/g)
5.3e-05	0.35104
0.000255	0.53891
0.000429	0.66222
0.000919	0.92652
0.00135	1.06975
0.001817	1.17395
0.002292	1.23128
0.002671	1.28267
0.003124	1.32191
0.003565	1.35357
0.004007	1.37918
0.004455	1.40082
0.006736	1.47392
0.00896	1.5178
0.013414	1.57383
0.017861	1.61206
0.022316	1.64193
0.02677	1.6653
0.03122	1.68373
0.035664	1.69778
0.040116	1.70953
0.044565	1.7194
