Adsorption isotherm of Toluene on Sorbonorit 4 Activated Carbon
DOI: 10.1021/je400517c
Article source: Table 9
Adsorbate Toluene: InChIKey YXFVVABEGXRONW-UHFFFAOYSA-N
Kind: experiment
Temperature: 393 K
Tabular data in the source: 1
pressure (bar)	uptake (mmol/g)
4.9e-05	0.61512
0.000132	0.82692
0.000305	1.08393
0.000587	1.29995
0.000857	1.43017
0.001172	1.54225
0.001477	1.62941
0.001775	1.69596
0.002069	1.75537
0.002376	1.8075
0.002672	1.83979
0.002911	1.88083
0.004409	2.03818
0.005878	2.14507
0.008784	2.29227
0.011704	2.39572
0.014618	2.47559
0.017541	2.53878
0.020443	2.59052
0.023351	2.63459
0.026247	2.67356
0.029172	2.70723
