Adsorption isotherm of Water on Grade 03 Silica Gel
DOI: 10.1021/je400517c
Article source: Table 3
Adsorbate Water: InChIKey XLYOFNOQVPJJNP-UHFFFAOYSA-N
Kind: experiment
Temperature: 333 K
Tabular data in the source: 1
pressure (bar)	uptake (mmol/g)
4.1e-05	0.01917
0.000171	0.04385
0.00023	0.08561
0.000442	0.14253
0.000704	0.22146
0.000952	0.27839
0.001186	0.33005
0.001482	0.36437
0.001663	0.42815
0.001909	0.4765
0.00218	0.50493
0.002416	0.5465
0.003537	0.73941
0.004724	0.91621
0.007008	1.22638
0.009343	1.52459
0.011691	1.8125
0.014026	2.09404
0.016375	2.37291
0.018709	2.65046
0.021054	2.92914
0.0234	3.20775
