Adsorption isotherm of 2-Propanol on Sorbonorit 4 Activated Carbon
DOI: 10.1021/je400517c
Article source: Table 8
Adsorbate 2-Propanol: InChIKey KFZMGEQAYNKOFK-UHFFFAOYSA-N
Kind: experiment
Temperature: 413 K
Tabular data in the source: 1
pressure (bar)	uptake (mmol/g)
5.1e-05	0.07003
0.000239	0.11551
0.000474	0.15262
0.000935	0.20877
0.00138	0.25042
0.001795	0.28242
0.002232	0.31545
0.002682	0.34592
0.003129	0.37391
0.003574	0.3998
0.004018	0.42451
0.004465	0.44768
0.006663	0.54477
0.008892	0.62867
0.013344	0.76709
0.017806	0.88425
0.022266	0.98588
0.026721	1.07658
0.031177	1.1602
0.035631	1.23602
0.040089	1.30627
0.04455	1.37311
