Adsorption isotherm of Toluene on Grade 03 Silica Gel
DOI: 10.1021/je400517c
Article source: Table 5
Adsorbate Toluene: InChIKey YXFVVABEGXRONW-UHFFFAOYSA-N
Kind: experiment
Temperature: 313 K
Tabular data in the source: 1
pressure (bar)	uptake (mmol/g)
4.9e-05	0.17435
0.000151	0.46115
0.000301	0.67211
0.000587	0.93849
0.000898	1.14058
0.001159	1.27056
0.001499	1.4194
0.001709	1.49251
0.002066	1.61631
0.002377	1.70872
0.002691	1.77689
0.002963	1.85499
0.004416	2.15126
0.005883	2.37313
0.00903	2.73167
0.011629	2.9414
0.014265	3.0942
0.018278	3.2389
0.020854	3.29669
0.023628	3.33823
0.026591	3.3673
0.02912	3.38381
