Adsorption isotherm of Toluene on Sorbonorit 4 Activated Carbon
DOI: 10.1021/je400517c
Article source: Table 9
Adsorbate Toluene: InChIKey YXFVVABEGXRONW-UHFFFAOYSA-N
Kind: experiment
Temperature: 373 K
Tabular data in the source: 1
pressure (bar)	uptake (mmol/g)
4.5e-05	0.716
0.000144	1.13579
0.000306	1.40749
0.000573	1.62926
0.000892	1.79104
0.001185	1.89644
0.001478	1.98025
0.001776	2.04833
0.002071	2.1047
0.002379	2.14416
0.002611	2.18788
0.002904	2.22727
0.004402	2.37872
0.005865	2.48112
0.008792	2.61969
0.011699	2.71232
0.014615	2.78105
0.01752	2.83498
0.020432	2.87835
0.023342	2.91325
0.02626	2.94488
0.029169	2.97019
