Adsorption isotherm of Water on Grade 03 Silica Gel
DOI: 10.1021/je400517c
Article source: Table 3
Adsorbate Water: InChIKey XLYOFNOQVPJJNP-UHFFFAOYSA-N
Kind: experiment
Temperature: 393 K
Tabular data in the source: 1
pressure (bar)	uptake (mmol/g)
0.000102	0.00462
0.000144	0.00956
0.000273	0.01529
0.000505	0.02575
0.000713	0.03528
0.000941	0.04407
0.001199	0.05278
0.001473	0.06106
0.001638	0.06705
0.001962	0.07532
0.002173	0.08145
0.002361	0.08723
0.003591	0.10584
0.004702	0.12485
0.007027	0.15698
0.009361	0.1887
0.011704	0.21996
0.014041	0.25173
0.016382	0.28317
0.018733	0.31385
0.021069	0.34418
0.023415	0.37401
