Adsorption isotherm of Water on Grade 03 Silica Gel
DOI: 10.1021/je400517c
Article source: Table 3
Adsorbate Water: InChIKey XLYOFNOQVPJJNP-UHFFFAOYSA-N
Kind: experiment
Temperature: 373 K
Tabular data in the source: 1
pressure (bar)	uptake (mmol/g)
6.6e-05	0.00457
0.000145	0.02402
0.000261	0.04357
0.000511	0.07124
0.000748	0.09709
0.000972	0.11923
0.001197	0.13878
0.001437	0.15706
0.001652	0.17123
0.001887	0.18185
0.002126	0.19217
0.002355	0.20241
0.00353	0.24207
0.004688	0.27943
0.006993	0.34858
0.009437	0.41559
0.011782	0.48059
0.014125	0.54554
0.016472	0.60968
0.01881	0.67242
0.02115	0.73492
0.023498	0.79668
