Adsorption isotherm of Toluene on Sorbonorit 4 Activated Carbon
DOI: 10.1021/je400517c
Article source: Table 9
Adsorbate Toluene: InChIKey YXFVVABEGXRONW-UHFFFAOYSA-N
Kind: experiment
Temperature: 313 K
Tabular data in the source: 1
pressure (bar)	uptake (mmol/g)
7e-05	2.30476
0.000156	2.58908
0.000312	2.83463
0.000603	3.04289
0.000919	3.15938
0.00116	3.21807
0.00151	3.27441
0.001759	3.30658
0.002093	3.3405
0.002398	3.36612
0.002715	3.3868
0.003027	3.40567
0.004487	3.47379
0.005851	3.51142
0.009018	3.58065
0.011645	3.61927
0.014253	3.651
0.018253	3.68809
0.020818	3.70925
0.023592	3.72915
0.026555	3.74808
0.029087	3.76239
