Adsorption isotherm of Toluene on Grade 03 Silica Gel
DOI: 10.1021/je400517c
Article source: Table 5
Adsorbate Toluene: InChIKey YXFVVABEGXRONW-UHFFFAOYSA-N
Kind: experiment
Temperature: 393 K
Tabular data in the source: 1
pressure (bar)	uptake (mmol/g)
8.3e-05	0.01152
0.000175	0.02075
0.000342	0.03749
0.000594	0.05658
0.000891	0.07886
0.001171	0.09829
0.001499	0.1182
0.001754	0.13288
0.002068	0.14916
0.002376	0.16497
0.002683	0.1797
0.002998	0.19375
0.004463	0.2527
0.0059	0.30408
0.009064	0.39918
0.01169	0.46862
0.014305	0.53022
0.018303	0.6155
0.020871	0.66601
0.023641	0.71672
0.026613	0.76776
0.029111	0.80813
