Adsorption isotherm of Water on HiSiv 3000 Zeolite
DOI: 10.1021/je400517c
Article source: Table 10
Adsorbate Water: InChIKey XLYOFNOQVPJJNP-UHFFFAOYSA-N
Kind: experiment
Temperature: 348 K
Tabular data in the source: 1
pressure (bar)	uptake (mmol/g)
4.7e-05	0.05285
0.000131	0.07106
0.000261	0.08441
0.000502	0.10306
0.000664	0.13814
0.00091	0.16027
0.001225	0.17211
0.001393	0.17967
0.001642	0.18897
0.001866	0.19786
0.002113	0.20571
0.002352	0.21203
0.00358	0.23321
0.004742	0.2544
0.007092	0.2938
0.021165	0.49123
0.023519	0.51971
