Adsorption isotherm of Water on Grade 03 Silica Gel
DOI: 10.1021/je400517c
Article source: Table 3
Adsorbate Water: InChIKey XLYOFNOQVPJJNP-UHFFFAOYSA-N
Kind: experiment
Temperature: 293 K
Tabular data in the source: 1
pressure (bar)	uptake (mmol/g)
6e-05	0.30082
0.000168	0.37364
0.000262	0.61021
0.00047	1.23361
0.000691	1.56749
0.000942	1.94382
0.001152	2.20648
0.001438	2.51439
0.001628	2.84247
0.001911	3.12174
0.002096	3.42511
0.002338	3.71206
0.003506	5.0559
0.004675	6.42096
0.007091	9.2946
0.009425	12.0287
0.011756	14.5033
0.014081	16.1877
0.016462	16.7381
0.018847	17.0625
