Adsorption isotherm of Toluene on Sorbonorit 4 Activated Carbon
DOI: 10.1021/je400517c
Article source: Table 9
Adsorbate Toluene: InChIKey YXFVVABEGXRONW-UHFFFAOYSA-N
Kind: experiment
Temperature: 348 K
Tabular data in the source: 1
pressure (bar)	uptake (mmol/g)
4.9e-05	1.16016
0.000146	1.6882
0.000302	2.00087
0.000604	2.26433
0.000917	2.41266
0.001144	2.49204
0.001541	2.60269
0.001756	2.64448
0.002072	2.70179
0.002373	2.74865
0.002687	2.7905
0.002995	2.82626
0.00448	2.95793
0.005912	3.03913
0.009013	3.14694
0.011636	3.20795
0.01425	3.2519
0.018249	3.30155
0.020814	3.32675
0.023591	3.35034
0.026556	3.37211
0.029083	3.38827
