Adsorption isotherm of Water on HiSiv 3000 Zeolite
DOI: 10.1021/je400517c
Article source: Table 10
Adsorbate Water: InChIKey XLYOFNOQVPJJNP-UHFFFAOYSA-N
Kind: experiment
Temperature: 333 K
Tabular data in the source: 1
pressure (bar)	uptake (mmol/g)
6.6e-05	0.06875
0.000124	0.08394
0.000219	0.09925
0.000497	0.11818
0.000697	0.13189
0.000923	0.14531
0.001164	0.15799
0.001399	0.17007
0.00164	0.18211
0.00188	0.19385
0.002107	0.20501
0.002306	0.21694
0.003575	0.29528
0.004753	0.33111
0.007091	0.39273
0.009432	0.44968
0.01178	0.50218
0.01413	0.55429
0.016473	0.60291
0.018816	0.6501
0.021116	0.69989
0.023511	0.74011
