Adsorption isotherm of Toluene on HiSiv 3000 Zeolite
DOI: 10.1021/je400517c
Article source: Table 12
Adsorbate Toluene: InChIKey YXFVVABEGXRONW-UHFFFAOYSA-N
Kind: experiment
Temperature: 348 K
Tabular data in the source: 1
pressure (bar)	uptake (mmol/g)
4.6e-05	0.11332
0.000163	0.23925
0.000305	0.3329
0.000625	0.44665
0.000888	0.49584
0.001155	0.53059
0.001508	0.56152
0.001752	0.57754
0.00208	0.59441
0.002377	0.60645
0.002696	0.61725
0.003001	0.62571
0.004411	0.65302
0.005844	0.67111
0.009019	0.69624
0.011636	0.71026
0.014248	0.72113
0.018244	0.7346
0.020807	0.74119
0.023582	0.748
0.026568	0.75465
0.029092	0.75961
