Adsorption isotherm of 2-Propanol on Grade 03 Silica Gel
DOI: 10.1021/je400517c
Article source: Table 4
Adsorbate 2-Propanol: InChIKey KFZMGEQAYNKOFK-UHFFFAOYSA-N
Kind: experiment
Temperature: 313 K
Tabular data in the source: 1
pressure (bar)	uptake (mmol/g)
5.1e-05	0.61948
0.000228	1.18519
0.000423	1.44889
0.000884	1.69316
0.001373	1.80792
0.001785	1.88084
0.002286	1.94521
0.002722	1.9933
0.003176	2.02863
0.003599	2.06326
0.004065	2.09237
0.004489	2.1175
0.006714	2.20624
0.008915	2.27851
0.01342	2.3863
0.017806	2.48225
0.022337	2.5768
0.026793	2.6744
0.031243	2.77343
0.035681	2.8789
0.040149	2.98145
0.044606	3.07973
