Adsorption isotherm of Water on HiSiv 3000 Zeolite
DOI: 10.1021/je400517c
Article source: Table 10
Adsorbate Water: InChIKey XLYOFNOQVPJJNP-UHFFFAOYSA-N
Kind: experiment
Temperature: 373 K
Tabular data in the source: 1
pressure (bar)	uptake (mmol/g)
6.5e-05	0.03184
0.000146	0.05115
0.000229	0.05771
0.000499	0.071
0.00069	0.0801
0.000931	0.08912
0.001183	0.09728
0.001442	0.10371
0.001687	0.11064
0.001855	0.11565
0.00211	0.1213
0.002332	0.12562
0.003534	0.1379
0.004724	0.14875
0.007017	0.16451
0.009356	0.17916
0.011697	0.19201
0.014054	0.20442
0.016396	0.21683
0.018726	0.2278
0.021075	0.238
0.023408	0.2486
