Adsorption isotherm of Water on Sorbonorit 4 Activated Carbon
DOI: 10.1021/je400517c
Article source: Figure 5
Adsorbate Water: InChIKey XLYOFNOQVPJJNP-UHFFFAOYSA-N
Kind: experiment
Temperature: 303 K
Tabular data in the source: 0
pressure (bar)	uptake (mmol/g)
0	0
0.008303	0.996328
0.012615	1.76174
0.014691	2.52609
0.016926	3.7867
0.019002	5.58158
0.021078	7.37647
0.023313	9.59128
0.025549	12.0733
0.027625	15.2804
0.02986	17.0371
0.031776	18.0686
0.034012	18.7949
0.036248	19.4066
0.038323	19.8274
0.040399	20.4391
