Adsorption isotherm of 2-Propanol on Sorbonorit 4 Activated Carbon
DOI: 10.1021/je400517c
Article source: Table 8
Adsorbate 2-Propanol: InChIKey KFZMGEQAYNKOFK-UHFFFAOYSA-N
Kind: experiment
Temperature: 393 K
Tabular data in the source: 1
pressure (bar)	uptake (mmol/g)
7.9e-05	0.09916
0.000218	0.16351
0.000457	0.22763
0.000912	0.31525
0.001369	0.38429
0.001829	0.44372
0.002273	0.49451
0.002671	0.53164
0.003124	0.57324
0.003571	0.61168
0.004012	0.64741
0.004465	0.68199
0.006736	0.82972
0.008963	0.95486
0.013424	1.1519
0.017885	1.32161
0.02234	1.46498
0.0268	1.59346
0.031254	1.70813
0.035702	1.81283
0.040163	1.90972
0.044618	1.99733
