Adsorption isotherm of Water on Sorbonorit 4 Activated Carbon
DOI: 10.1021/je400517c
Article source: Table 6
Adsorbate Water: InChIKey XLYOFNOQVPJJNP-UHFFFAOYSA-N
Kind: experiment
Temperature: 413 K
Tabular data in the source: 1
pressure (bar)	uptake (mmol/g)
7.7e-05	0.02839
0.000142	0.03834
0.00024	0.0481
0.000481	0.0584
0.000721	0.06756
0.000982	0.07561
0.001163	0.08174
0.001391	0.08754
0.0017	0.09305
0.001851	0.09568
0.002186	0.0984
0.0024	0.10005
0.00348	0.10629
0.004694	0.1126
0.007011	0.12286
0.009362	0.13212
0.011694	0.14033
0.01405	0.14796
0.016375	0.15506
0.018733	0.16151
0.021073	0.1676
0.023414	0.17322
