Adsorption isotherm of Water on HiSiv 3000 Zeolite
DOI: 10.1021/je400517c
Article source: Table 10
Adsorbate Water: InChIKey XLYOFNOQVPJJNP-UHFFFAOYSA-N
Kind: experiment
Temperature: 313 K
Tabular data in the source: 1
pressure (bar)	uptake (mmol/g)
8.5e-05	0.06838
0.000116	0.09112
0.000256	0.11544
0.000496	0.14946
0.000704	0.17655
0.000938	0.20442
0.00118	0.22987
0.001405	0.2525
0.001646	0.27478
0.00189	0.2955
0.002125	0.31457
0.002363	0.3332
0.00357	0.4027
0.004736	0.47272
0.007079	0.59121
0.009378	0.70754
0.011717	0.81814
0.01407	0.92052
0.016413	1.01043
0.018787	1.09711
0.021133	1.17779
0.023464	1.25054
