Adsorption isotherm of Toluene on Grade 03 Silica Gel
DOI: 10.1021/je400517c
Article source: Table 5
Adsorbate Toluene: InChIKey YXFVVABEGXRONW-UHFFFAOYSA-N
Kind: experiment
Temperature: 293 K
Tabular data in the source: 1
pressure (bar)	uptake (mmol/g)
5.2e-05	0.56402
0.000155	0.92622
0.000304	1.30689
0.000572	1.67312
0.000893	1.96918
0.00113	2.12978
0.001517	2.34382
0.001742	2.4468
0.002065	2.57904
0.002372	2.6892
0.002695	2.79094
0.002964	2.86255
0.004417	3.15431
0.005894	3.30984
0.00905	3.45025
0.011667	3.48835
0.014284	3.51251
0.017114	3.5336
0.020833	3.55631
0.023608	3.57056
