Adsorption isotherm of 2-Propanol on Grade 03 Silica Gel
DOI: 10.1021/je400517c
Article source: Table 4
Adsorbate 2-Propanol: InChIKey KFZMGEQAYNKOFK-UHFFFAOYSA-N
Kind: experiment
Temperature: 393 K
Tabular data in the source: 1
pressure (bar)	uptake (mmol/g)
7.7e-05	0.04213
0.000251	0.09743
0.000461	0.1505
0.000909	0.23022
0.001367	0.29995
0.001809	0.35615
0.002213	0.40488
0.002703	0.44762
0.003128	0.48053
0.00358	0.5162
0.004028	0.54978
0.004481	0.58117
0.006717	0.70486
0.008929	0.80513
0.013405	0.95621
0.017867	1.07105
0.022333	1.163
0.026795	1.23664
0.031248	1.2996
0.035709	1.35432
0.040165	1.40231
0.044619	1.44401
