Adsorption isotherm of Toluene on Grade 03 Silica Gel
DOI: 10.1021/je400517c
Article source: Table 5
Adsorbate Toluene: InChIKey YXFVVABEGXRONW-UHFFFAOYSA-N
Kind: experiment
Temperature: 333 K
Tabular data in the source: 1
pressure (bar)	uptake (mmol/g)
5.7e-05	0.11607
0.000152	0.22163
0.000303	0.3387
0.000579	0.48178
0.000927	0.61853
0.001135	0.68608
0.001525	0.80305
0.001726	0.85025
0.002085	0.93713
0.002351	0.98845
0.00266	1.04898
0.002962	1.10444
0.004451	1.33477
0.005845	1.50395
0.00906	1.81015
0.011638	2.00243
0.014261	2.16712
0.018242	2.3744
0.020837	2.49125
0.023615	2.60308
0.026588	2.70849
0.029113	2.78886
