Adsorption isotherm of Toluene on Grade 03 Silica Gel
DOI: 10.1021/je400517c
Article source: Table 5
Adsorbate Toluene: InChIKey YXFVVABEGXRONW-UHFFFAOYSA-N
Kind: experiment
Temperature: 348 K
Tabular data in the source: 1
pressure (bar)	uptake (mmol/g)
7.5e-05	0.0712
0.000176	0.11357
0.000312	0.19167
0.00062	0.29667
0.000867	0.35599
0.00114	0.41692
0.001537	0.50051
0.001739	0.53193
0.002041	0.581
0.002351	0.62743
0.00266	0.67154
0.002969	0.7123
0.004426	0.87816
0.005871	1.01507
0.009022	1.25249
0.011668	1.4162
0.014293	1.55455
0.01826	1.73296
0.020852	1.83561
0.023627	1.93582
0.026593	2.03241
0.029118	2.10928
