Adsorption isotherm of Toluene on HiSiv 3000 Zeolite
DOI: 10.1021/je400517c
Article source: Table 12
Adsorbate Toluene: InChIKey YXFVVABEGXRONW-UHFFFAOYSA-N
Kind: experiment
Temperature: 373 K
Tabular data in the source: 1
pressure (bar)	uptake (mmol/g)
5.7e-05	0.04127
0.000155	0.07545
0.000302	0.11743
0.000583	0.18004
0.000879	0.23036
0.001176	0.27037
0.001481	0.30308
0.001773	0.32855
0.002062	0.34987
0.002361	0.36855
0.002649	0.38387
0.002949	0.39784
0.004417	0.44347
0.005877	0.4732
0.008796	0.50908
0.011702	0.53066
0.014615	0.54565
0.017533	0.55706
0.020442	0.56624
0.023344	0.57399
0.026254	0.58089
0.02916	0.5868
