Adsorption isotherm of Water on HiSiv 3000 Zeolite
DOI: 10.1021/je400517c
Article source: Table 10
Adsorbate Water: InChIKey XLYOFNOQVPJJNP-UHFFFAOYSA-N
Kind: experiment
Temperature: 413 K
Tabular data in the source: 1
pressure (bar)	uptake (mmol/g)
4.1e-05	0.0183
0.000137	0.02852
0.000242	0.03377
0.000482	0.04504
0.000716	0.05626
0.000903	0.0654
0.001162	0.07505
0.001396	0.08303
0.001648	0.09032
0.001874	0.09791
0.002115	0.10467
0.002357	0.10964
0.003525	0.11988
0.004699	0.1289
0.006986	0.14066
0.009335	0.15014
0.011677	0.15881
0.014034	0.1667
0.016389	0.17327
0.018718	0.18002
0.021063	0.1861
0.023417	0.19147
