Adsorption isotherm of Water on HiSiv 3000 Zeolite
DOI: 10.1021/je400517c
Article source: Table 10
Adsorbate Water: InChIKey XLYOFNOQVPJJNP-UHFFFAOYSA-N
Kind: experiment
Temperature: 293 K
Tabular data in the source: 1
pressure (bar)	uptake (mmol/g)
5e-05	0.14251
0.000111	0.18309
0.000231	0.23775
0.000466	0.32026
0.00069	0.38537
0.000917	0.43459
0.001151	0.48173
0.001385	0.5258
0.001623	0.56828
0.001868	0.60902
0.002097	0.64668
0.00233	0.68433
0.003495	0.8503
0.004669	0.98723
0.007002	1.20731
0.009353	1.37394
0.011684	1.52486
0.01406	1.65164
0.016377	1.775
