Adsorption isotherm of Toluene on HiSiv 3000 Zeolite
DOI: 10.1021/je400517c
Article source: Table 12
Adsorbate Toluene: InChIKey YXFVVABEGXRONW-UHFFFAOYSA-N
Kind: experiment
Temperature: 393 K
Tabular data in the source: 1
pressure (bar)	uptake (mmol/g)
6.9e-05	0.0364
0.000181	0.05246
0.000326	0.07146
0.000595	0.10189
0.000887	0.13061
0.001179	0.15613
0.00147	0.17885
0.001765	0.1998
0.002063	0.21895
0.002353	0.23602
0.002638	0.25141
0.002932	0.26603
0.004404	0.32273
0.005878	0.3635
0.008778	0.41639
0.01169	0.45027
0.0146	0.47445
0.017512	0.49236
0.020415	0.506
0.023325	0.51747
0.026231	0.52681
0.029136	0.5349
