Adsorption isotherm of Water on HiSiv 3000 Zeolite
DOI: 10.1021/je400517c
Article source: Table 10
Adsorbate Water: InChIKey XLYOFNOQVPJJNP-UHFFFAOYSA-N
Kind: experiment
Temperature: 393 K
Tabular data in the source: 1
pressure (bar)	uptake (mmol/g)
4e-05	0.02883
0.000113	0.0381
0.000245	0.04576
0.000478	0.07937
0.000695	0.0993
0.000901	0.11234
0.001131	0.12554
0.001409	0.13696
0.001649	0.14311
0.001859	0.14741
0.002094	0.15111
0.002327	0.15453
0.003498	0.16259
0.004687	0.17175
0.006999	0.18334
0.00935	0.19336
0.011683	0.20219
0.014096	0.21136
0.016374	0.21919
0.018728	0.22647
0.021044	0.23382
0.023426	0.24169
