Adsorption isotherm of Toluene on Sorbonorit 4 Activated Carbon
DOI: 10.1021/je400517c
Article source: Table 9
Adsorbate Toluene: InChIKey YXFVVABEGXRONW-UHFFFAOYSA-N
Kind: experiment
Temperature: 413 K
Tabular data in the source: 1
pressure (bar)	uptake (mmol/g)
5.6e-05	0.07691
0.000151	0.18983
0.0003	0.36715
0.000548	0.65274
0.000904	0.85393
0.001198	0.99454
0.00145	1.10715
0.001742	1.1994
0.002049	1.29443
0.002351	1.35692
0.002641	1.40782
0.002939	1.45574
0.004351	1.63305
0.005831	1.7646
0.008745	1.94234
0.011655	2.06439
0.014567	2.15705
0.017484	2.23111
0.020398	2.29301
0.023305	2.34538
0.026211	2.39141
0.029139	2.43336
