Adsorption isotherm of 2-Propanol on HiSiv 3000 Zeolite
DOI: 10.1021/je400517c
Article source: Table 11
Adsorbate 2-Propanol: InChIKey KFZMGEQAYNKOFK-UHFFFAOYSA-N
Kind: experiment
Temperature: 393 K
Tabular data in the source: 1
pressure (bar)	uptake (mmol/g)
4.6e-05	0.07006
0.000246	0.10201
0.000483	0.1246
0.000904	0.14979
0.001349	0.17017
0.001783	0.18683
0.002231	0.20173
0.002679	0.21531
0.003121	0.22769
0.003577	0.23954
0.004038	0.25076
0.00449	0.26139
0.006705	0.3059
0.008901	0.34534
0.013362	0.41269
0.017829	0.46943
0.022308	0.51872
0.026751	0.56253
0.031209	0.60124
0.035667	0.63658
0.040108	0.66844
0.044565	0.69733
