Adsorption isotherm of Water on Sorbonorit 4 Activated Carbon
DOI: 10.1021/je400517c
Article source: Table 6
Adsorbate Water: InChIKey XLYOFNOQVPJJNP-UHFFFAOYSA-N
Kind: experiment
Temperature: 373 K
Tabular data in the source: 1
pressure (bar)	uptake (mmol/g)
5.8e-05	0.03415
0.000137	0.04392
0.000221	0.05126
0.000479	0.06115
0.000708	0.07186
0.000951	0.07989
0.001208	0.08719
0.001439	0.09324
0.001632	0.09789
0.001918	0.1034
0.002148	0.10794
0.002392	0.1124
0.003543	0.12683
0.004706	0.13988
0.007026	0.15797
0.009365	0.17592
0.011703	0.19225
0.01405	0.20724
0.016387	0.22184
0.018731	0.23288
0.021081	0.24677
0.023421	0.25841
