Adsorption isotherm of Toluene on HiSiv 3000 Zeolite
DOI: 10.1021/je400517c
Article source: Table 12
Adsorbate Toluene: InChIKey YXFVVABEGXRONW-UHFFFAOYSA-N
Kind: experiment
Temperature: 413 K
Tabular data in the source: 1
pressure (bar)	uptake (mmol/g)
3.5e-05	0.02879
0.000158	0.04264
0.000343	0.0578
0.000612	0.07584
0.0009	0.09316
0.001163	0.10798
0.00152	0.12697
0.001762	0.13793
0.00208	0.15237
0.002379	0.16359
0.002687	0.1734
0.003001	0.18719
0.004482	0.23448
0.00592	0.27376
0.009095	0.34048
0.01171	0.38148
0.014331	0.41421
0.018319	0.45258
0.020889	0.47178
0.023666	0.4895
0.026653	0.50586
0.029181	0.51815
