Adsorption isotherm of 2-Propanol on HiSiv 3000 Zeolite
DOI: 10.1021/je400517c
Article source: Table 11
Adsorbate 2-Propanol: InChIKey KFZMGEQAYNKOFK-UHFFFAOYSA-N
Kind: experiment
Temperature: 373 K
Tabular data in the source: 1
pressure (bar)	uptake (mmol/g)
6.7e-05	0.10866
0.000235	0.14584
0.00048	0.17596
0.000901	0.21083
0.001343	0.23991
0.001785	0.2651
0.002241	0.28833
0.002696	0.30949
0.003138	0.3288
0.003586	0.34738
0.004038	0.36493
0.004483	0.38163
0.006721	0.45341
0.008953	0.51653
0.013409	0.61995
0.01787	0.70149
0.022322	0.76861
0.02677	0.82401
0.031231	0.8711
0.035689	0.91121
0.040143	0.94641
0.044596	0.97737
