Adsorption isotherm of 2-Propanol on HiSiv 3000 Zeolite
DOI: 10.1021/je400517c
Article source: Table 11
Adsorbate 2-Propanol: InChIKey KFZMGEQAYNKOFK-UHFFFAOYSA-N
Kind: experiment
Temperature: 333 K
Tabular data in the source: 1
pressure (bar)	uptake (mmol/g)
6.1e-05	0.26543
0.000229	0.35284
0.000471	0.4322
0.00093	0.55029
0.001382	0.64272
0.00177	0.70997
0.002282	0.79343
0.002682	0.84486
0.003168	0.90432
0.003556	0.9429
0.004	0.98283
0.004444	1.01915
0.006727	1.15079
0.008963	1.23212
0.013411	1.32959
0.017861	1.38841
0.022239	1.42986
0.026693	1.46124
0.031141	1.48538
0.035593	1.50494
0.040045	1.52152
0.0445	1.53646
