Adsorption isotherm of 2-Propanol on Sorbonorit 4 Activated Carbon
DOI: 10.1021/je400517c
Article source: Table 8
Adsorbate 2-Propanol: InChIKey KFZMGEQAYNKOFK-UHFFFAOYSA-N
Kind: experiment
Temperature: 293 K
Tabular data in the source: 1
pressure (bar)	uptake (mmol/g)
4.3e-05	1.2408
0.000199	2.22344
0.000406	3.19096
0.000891	3.86358
0.001338	4.10487
0.00177	4.23837
0.00224	4.33728
0.002715	4.41226
0.003093	4.45446
0.003602	4.5108
0.003998	4.54332
0.00443	4.57547
0.006702	4.7044
0.008939	4.7892
0.013393	4.90227
0.017852	4.98206
0.02229	5.05194
0.026756	5.10819
0.031198	5.16514
0.035643	5.23237
