Adsorption isotherm of Water on Sorbonorit 4 Activated Carbon
DOI: 10.1021/je400517c
Article source: Table 6
Adsorbate Water: InChIKey XLYOFNOQVPJJNP-UHFFFAOYSA-N
Kind: experiment
Temperature: 333 K
Tabular data in the source: 1
pressure (bar)	uptake (mmol/g)
6.8e-05	0.06208
0.000121	0.07481
0.000238	0.09427
0.00047	0.12262
0.000708	0.14489
0.000944	0.16291
0.00119	0.17881
0.001431	0.19322
0.001671	0.20626
0.001922	0.21842
0.002147	0.22945
0.002389	0.23979
0.003483	0.27456
0.00471	0.31213
0.007075	0.3674
0.009386	0.42337
0.011773	0.4651
0.014108	0.5096
0.016448	0.55369
0.018744	0.6011
0.021142	0.63908
0.023472	0.67911
