Adsorption isotherm of Toluene on Grade 03 Silica Gel
DOI: 10.1021/je400517c
Article source: Table 5
Adsorbate Toluene: InChIKey YXFVVABEGXRONW-UHFFFAOYSA-N
Kind: experiment
Temperature: 413 K
Tabular data in the source: 1
pressure (bar)	uptake (mmol/g)
7.6e-05	0.00406
0.00018	0.00936
0.000338	0.01691
0.000566	0.02928
0.000879	0.03855
0.001166	0.04887
0.00151	0.06028
0.001758	0.06855
0.002083	0.07841
0.002374	0.08686
0.00269	0.0956
0.002994	0.10382
0.004471	0.13927
0.005897	0.17062
0.009069	0.2308
0.011703	0.27548
0.014301	0.31549
0.018302	0.37199
0.020873	0.40533
0.023644	0.4393
0.02661	0.47379
0.029123	0.50188
