Adsorption isotherm of 2-Propanol on Sorbonorit 4 Activated Carbon
DOI: 10.1021/je400517c
Article source: Table 8
Adsorbate 2-Propanol: InChIKey KFZMGEQAYNKOFK-UHFFFAOYSA-N
Kind: experiment
Temperature: 333 K
Tabular data in the source: 1
pressure (bar)	uptake (mmol/g)
4.3e-05	0.34534
0.000186	0.64825
0.000425	0.99007
0.000883	1.39132
0.001316	1.66539
0.001794	1.91014
0.002208	2.08693
0.002732	2.24749
0.003101	2.39477
0.003551	2.52489
0.00401	2.64027
0.004483	2.74781
0.006694	3.12144
0.008871	3.36988
0.013328	3.68922
0.017823	3.88357
0.022292	4.01322
0.026752	4.10539
0.031203	4.18071
0.035655	4.24079
0.040101	4.29009
0.044566	4.3315
