Adsorption isotherm of 2-Propanol on HiSiv 3000 Zeolite
DOI: 10.1021/je400517c
Article source: Table 11
Adsorbate 2-Propanol: InChIKey KFZMGEQAYNKOFK-UHFFFAOYSA-N
Kind: experiment
Temperature: 348 K
Tabular data in the source: 1
pressure (bar)	uptake (mmol/g)
6.4e-05	0.20756
0.000236	0.27815
0.000473	0.33275
0.000937	0.40683
0.001389	0.46278
0.001775	0.50161
0.002227	0.54693
0.002677	0.58884
0.003121	0.62609
0.003561	0.66125
0.003999	0.69462
0.004452	0.72588
0.006736	0.85401
0.0089	0.94608
0.013323	1.07415
0.017782	1.16117
0.022233	1.22167
0.026692	1.26759
0.031142	1.3034
0.03559	1.33336
0.040042	1.35768
0.0445	1.37781
