Adsorption isotherm of 2-Propanol on Grade 03 Silica Gel
DOI: 10.1021/je400517c
Article source: Table 4
Adsorbate 2-Propanol: InChIKey KFZMGEQAYNKOFK-UHFFFAOYSA-N
Kind: experiment
Temperature: 333 K
Tabular data in the source: 1
pressure (bar)	uptake (mmol/g)
4.1e-05	0.1846
0.000217	0.63437
0.000418	0.88567
0.000894	1.14918
0.001342	1.28798
0.001823	1.39566
0.002246	1.47807
0.002706	1.54013
0.003164	1.59329
0.003631	1.63562
0.004058	1.67378
0.004527	1.70782
0.006735	1.81864
0.008905	1.89708
0.01335	2.00445
0.017814	2.07963
0.022289	2.137
0.026759	2.1848
0.031219	2.2253
0.035672	2.26284
0.040128	2.29705
0.044589	2.32927
