Adsorption isotherm of 2-Propanol on HiSiv 3000 Zeolite
DOI: 10.1021/je400517c
Article source: Table 11
Adsorbate 2-Propanol: InChIKey KFZMGEQAYNKOFK-UHFFFAOYSA-N
Kind: experiment
Temperature: 413 K
Tabular data in the source: 1
pressure (bar)	uptake (mmol/g)
5.2e-05	0.05452
0.000246	0.07728
0.000483	0.09319
0.000902	0.11127
0.00134	0.12553
0.001788	0.1375
0.002233	0.14772
0.002697	0.15726
0.003141	0.16558
0.003591	0.17335
0.004044	0.18065
0.004486	0.18739
0.006675	0.21669
0.008897	0.24221
0.013351	0.28592
0.017813	0.32333
0.02227	0.35673
0.026739	0.38727
0.031198	0.41508
0.035647	0.44083
0.040099	0.46436
0.044576	0.48698
