Adsorption isotherm of 2-Propanol on Sorbonorit 4 Activated Carbon
DOI: 10.1021/je400517c
Article source: Table 8
Adsorbate 2-Propanol: InChIKey KFZMGEQAYNKOFK-UHFFFAOYSA-N
Kind: experiment
Temperature: 313 K
Tabular data in the source: 1
pressure (bar)	uptake (mmol/g)
5e-05	0.61145
0.00021	1.26526
0.000442	1.8611
0.000861	2.4598
0.00133	2.86837
0.001765	3.13646
0.002231	3.35272
0.00267	3.49984
0.003118	3.62492
0.003582	3.72866
0.004035	3.80939
0.004489	3.88089
0.006673	4.10002
0.00893	4.23203
0.013388	4.39183
0.017843	4.49319
0.022296	4.56886
0.026757	4.62743
0.031209	4.67852
0.035656	4.72
0.040112	4.7581
0.044575	4.79002
