Adsorption isotherm of 2-Propanol on Sorbonorit 4 Activated Carbon
DOI: 10.1021/je400517c
Article source: Table 8
Adsorbate 2-Propanol: InChIKey KFZMGEQAYNKOFK-UHFFFAOYSA-N
Kind: experiment
Temperature: 348 K
Tabular data in the source: 1
pressure (bar)	uptake (mmol/g)
4.9e-05	0.23142
0.000206	0.44685
0.000435	0.63979
0.000885	0.89389
0.00136	1.1013
0.001764	1.2481
0.002216	1.38823
0.002669	1.51029
0.003123	1.6273
0.003582	1.73309
0.003968	1.80962
0.004461	1.90876
0.006719	2.26152
0.008874	2.52044
0.013324	2.90499
0.0178	3.17269
0.022267	3.36793
0.026736	3.51591
0.031187	3.63359
0.035648	3.72803
0.040097	3.80753
0.044559	3.87259
