Adsorption isotherm of Toluene on HiSiv 3000 Zeolite
DOI: 10.1021/je400517c
Article source: Table 12
Adsorbate Toluene: InChIKey YXFVVABEGXRONW-UHFFFAOYSA-N
Kind: experiment
Temperature: 333 K
Tabular data in the source: 1
pressure (bar)	uptake (mmol/g)
4.9e-05	0.19513
0.000178	0.35756
0.000353	0.48087
0.00058	0.56652
0.000891	0.60801
0.001172	0.63042
0.001526	0.64975
0.001758	0.65938
0.002079	0.66989
0.002382	0.67818
0.002702	0.68544
0.003009	0.69163
0.004412	0.71236
0.005846	0.72756
0.009017	0.75131
0.011635	0.76543
0.014245	0.77729
0.018243	0.79302
0.020806	0.80128
0.023582	0.80978
0.026568	0.81811
0.029092	0.82479
