Adsorption isotherm of 2-Propanol on Sorbonorit 4 Activated Carbon
DOI: 10.1021/je400517c
Article source: Table 8
Adsorbate 2-Propanol: InChIKey KFZMGEQAYNKOFK-UHFFFAOYSA-N
Kind: experiment
Temperature: 373 K
Tabular data in the source: 1
pressure (bar)	uptake (mmol/g)
6.2e-05	0.16428
0.000241	0.26529
0.000441	0.34734
0.000882	0.4818
0.001346	0.59091
0.001812	0.68304
0.002266	0.76133
0.002719	0.8314
0.003161	0.89357
0.00361	0.95212
0.004013	0.99834
0.00447	1.0501
0.00671	1.27109
0.008937	1.45262
0.013396	1.74739
0.017851	1.98241
0.02232	2.17806
0.026777	2.34504
0.031229	2.48573
0.035695	2.60997
0.040147	2.71806
0.044614	2.81526
