Adsorption isotherm of Toluene on HiSiv 3000 Zeolite
DOI: 10.1021/je400517c
Article source: Table 12
Adsorbate Toluene: InChIKey YXFVVABEGXRONW-UHFFFAOYSA-N
Kind: experiment
Temperature: 293 K
Tabular data in the source: 1
pressure (bar)	uptake (mmol/g)
6e-05	0.65034
0.000152	0.7005
0.000319	0.73748
0.000595	0.77173
0.000898	0.79715
0.001171	0.81557
0.001514	0.83445
0.001755	0.84716
0.002081	0.86241
0.002393	0.877
0.002697	0.89225
0.003005	0.90899
0.004464	0.97531
0.005904	1.01031
0.009075	1.05089
0.0117	1.07162
0.014307	1.08702
0.0183	1.10672
0.020869	1.11923
0.023638	1.13793
