Adsorption isotherm of 2-Propanol on Grade 03 Silica Gel
DOI: 10.1021/je400517c
Article source: Table 4
Adsorbate 2-Propanol: InChIKey KFZMGEQAYNKOFK-UHFFFAOYSA-N
Kind: experiment
Temperature: 373 K
Tabular data in the source: 1
pressure (bar)	uptake (mmol/g)
0.000105	0.06166
0.000245	0.17733
0.000455	0.25468
0.000964	0.37397
0.001365	0.4746
0.001808	0.55249
0.002253	0.61735
0.002689	0.67562
0.00319	0.71819
0.003576	0.76526
0.004046	0.81152
0.004468	0.84875
0.006701	0.99444
0.008927	1.10426
0.013392	1.26108
0.017867	1.37317
0.022327	1.45892
0.026795	1.52548
0.031248	1.57962
0.035695	1.62547
0.040162	1.66586
0.044619	1.70131
