Adsorption isotherm of Toluene on Sorbonorit 4 Activated Carbon
DOI: 10.1021/je400517c
Article source: Table 9
Adsorbate Toluene: InChIKey YXFVVABEGXRONW-UHFFFAOYSA-N
Kind: experiment
Temperature: 333 K
Tabular data in the source: 1
pressure (bar)	uptake (mmol/g)
4.5e-05	1.59677
0.000147	2.09594
0.000323	2.41608
0.000615	2.63853
0.000879	2.76353
0.001192	2.86599
0.001538	2.95515
0.001729	2.98753
0.002123	3.05154
0.002372	3.08271
0.002675	3.11676
0.002987	3.14747
0.004475	3.24938
0.005927	3.312
0.009095	3.39381
0.011716	3.439
0.014332	3.47439
0.018316	3.51622
0.020879	3.53865
0.023656	3.56007
0.026619	3.58027
0.029151	3.59534
