Adsorption isotherm of 2-Propanol on Grade 03 Silica Gel
DOI: 10.1021/je400517c
Article source: Table 4
Adsorbate 2-Propanol: InChIKey KFZMGEQAYNKOFK-UHFFFAOYSA-N
Kind: experiment
Temperature: 293 K
Tabular data in the source: 1
pressure (bar)	uptake (mmol/g)
5.8e-05	0.28985
0.000216	1.25248
0.000449	1.79745
0.00088	2.05629
0.001329	2.15445
0.001793	2.23063
0.002233	2.28277
0.002678	2.33773
0.003142	2.37984
0.003575	2.41672
0.004027	2.45257
0.004454	2.48976
0.006697	2.65738
0.008908	2.83156
0.013356	3.18273
0.017844	3.43727
0.022327	3.55033
0.026768	3.59384
0.03123	3.61984
0.035686	3.64093
0.040132	3.66065
