Adsorption isotherm of Water on Grade 03 Silica Gel
DOI: 10.1021/je400517c
Article source: Table 3
Adsorbate Water: InChIKey XLYOFNOQVPJJNP-UHFFFAOYSA-N
Kind: experiment
Temperature: 413 K
Tabular data in the source: 1
pressure (bar)	uptake (mmol/g)
6.7e-05	0.00715
0.000128	0.00647
0.000279	0.00767
0.000502	0.01471
0.000736	0.0219
0.000959	0.02821
0.001205	0.03416
0.001481	0.03969
0.001652	0.04391
0.001962	0.04876
0.002142	0.05272
0.002351	0.05633
0.00356	0.06866
0.004722	0.08047
0.007058	0.09593
0.009385	0.11158
0.011719	0.12706
0.014051	0.14324
0.016402	0.15931
0.018736	0.17491
0.0211	0.19017
0.023436	0.20518
