Adsorption isotherm of Toluene on Grade 03 Silica Gel
DOI: 10.1021/je400517c
Article source: Table 5
Adsorbate Toluene: InChIKey YXFVVABEGXRONW-UHFFFAOYSA-N
Kind: experiment
Temperature: 373 K
Tabular data in the source: 1
pressure (bar)	uptake (mmol/g)
6.9e-05	0.02299
0.00016	0.04665
0.000317	0.07885
0.000588	0.12056
0.000877	0.16166
0.001154	0.1905
0.001498	0.22746
0.001742	0.25176
0.002057	0.28064
0.002359	0.30636
0.00268	0.33132
0.002996	0.35545
0.004452	0.45283
0.005894	0.53577
0.009051	0.68508
0.011678	0.79044
0.014294	0.8835
0.018289	1.00926
0.020851	1.09598
0.023641	1.16942
0.026577	1.24408
0.029123	1.30032
