Adsorption isotherm of 2-Propanol on Grade 03 Silica Gel
DOI: 10.1021/je400517c
Article source: Table 4
Adsorbate 2-Propanol: InChIKey KFZMGEQAYNKOFK-UHFFFAOYSA-N
Kind: experiment
Temperature: 413 K
Tabular data in the source: 1
pressure (bar)	uptake (mmol/g)
6.3e-05	0.02363
0.000246	0.05145
0.000457	0.07547
0.000914	0.11384
0.001349	0.14599
0.001795	0.17512
0.00225	0.20186
0.002698	0.22456
0.003145	0.24674
0.003593	0.26822
0.004036	0.28777
0.004479	0.30579
0.006723	0.3818
0.008969	0.44709
0.013418	0.55072
0.017871	0.63601
0.022322	0.70867
0.026791	0.77163
0.031244	0.82674
0.035709	0.87647
0.040168	0.92103
0.044618	0.96199
