Adsorption isotherm of 2-Propanol on Grade 03 Silica Gel
DOI: 10.1021/je400517c
Article source: Table 4
Adsorbate 2-Propanol: InChIKey KFZMGEQAYNKOFK-UHFFFAOYSA-N
Kind: experiment
Temperature: 348 K
Tabular data in the source: 1
pressure (bar)	uptake (mmol/g)
5.7e-05	0.12345
0.00021	0.35662
0.000469	0.55183
0.000927	0.76014
0.001364	0.89076
0.00182	0.99614
0.002278	1.0812
0.002698	1.14925
0.003182	1.20968
0.003585	1.25958
0.004091	1.30519
0.004522	1.34529
0.006716	1.48177
0.008907	1.57714
0.013413	1.70987
0.017818	1.79675
0.022285	1.86176
0.026762	1.91375
0.031216	1.95654
0.03568	1.99294
0.040132	2.02479
0.044597	2.05355
