Adsorption isotherm of 2-Propanol on HiSiv 3000 Zeolite
DOI: 10.1021/je400517c
Article source: Table 11
Adsorbate 2-Propanol: InChIKey KFZMGEQAYNKOFK-UHFFFAOYSA-N
Kind: experiment
Temperature: 293 K
Tabular data in the source: 1
pressure (bar)	uptake (mmol/g)
5.8e-05	0.50472
0.000237	0.94752
0.000446	1.19927
0.000868	1.38733
0.001373	1.48334
0.001836	1.54189
0.002226	1.57229
0.002671	1.60031
0.003121	1.62067
0.003571	1.63692
0.004016	1.65033
0.004463	1.66105
0.006735	1.69562
0.008925	1.71644
0.013411	1.74231
0.017861	1.76273
0.02232	1.77622
0.026769	1.78486
0.031219	1.79286
0.03567	1.80592
