Adsorption isotherm of Water on Grade 03 Silica Gel
DOI: 10.1021/je400517c
Article source: Table 3
Adsorbate Water: InChIKey XLYOFNOQVPJJNP-UHFFFAOYSA-N
Kind: experiment
Temperature: 348 K
Tabular data in the source: 1
pressure (bar)	uptake (mmol/g)
5.5e-05	0.01308
0.00013	0.02831
0.000227	0.04806
0.000471	0.08104
0.0007	0.11109
0.000997	0.13727
0.001196	0.1764
0.001389	0.20422
0.001683	0.2229
0.001869	0.24859
0.0021	0.27147
0.002339	0.29452
0.00349	0.39438
0.004661	0.49065
0.007078	0.66346
0.009408	0.83989
0.011764	1.00227
0.014108	1.16407
0.016447	1.32017
0.018798	1.46454
0.021115	1.62065
0.023495	1.75958
