Adsorption isotherm of Ethane, Methane on Ajax-activated carbon
DOI: 10.1002/aic.690440322
Article source: Figure 5
Adsorbate Ethane: InChIKey OTMSDBZUPAUEDD-UHFFFAOYSA-N
Adsorbate Methane: InChIKey VNWKTOKETHGBQD-UHFFFAOYSA-N
Kind: experiment
Temperature: 293 K
Tabular data in the source: 0
pressure (bar)	Ethane fraction	Ethane uptake (mmol/g)	Methane fraction	Methane uptake (mmol/g)	total uptake (mmol/g)
1	1	3.222	0	0	
1	0.729805	2.91771	0.270195	0.079206	
1	0.520223	2.63845	0.479777	0.130695	
1	0.490527	2.47411	0.509473	0.158805	
1	0.253015	1.75966	0.746985	0.28839	
1	0.246575	1.75815	0.753425	0.308251	
1	0.081992	0.934861	0.918008	0.487201	
1	0.06394	0.823427	0.93606	0.53262	
1	0	0.002856	1	0.812616	
