Adsorption isotherm of Carbon Dioxide, Methane on Ajax-activated carbon
DOI: 10.1002/aic.690440322
Article source: Figure 4
Adsorbate Carbon Dioxide: InChIKey CURLTUGMZLYLDI-UHFFFAOYSA-N
Adsorbate Methane: InChIKey VNWKTOKETHGBQD-UHFFFAOYSA-N
Kind: experiment
Temperature: 273 K
Tabular data in the source: 0
pressure (bar)	Carbon Dioxide fraction	Carbon Dioxide uptake (mmol/g)	Methane fraction	Methane uptake (mmol/g)	total uptake (mmol/g)
0.667	1	2.95329	0	0	
0.667	0.866632	2.61018	0.133368	0.190884	
0.667	0.796317	2.46506	0.203683	0.259057	
0.667	0.616237	1.96448	0.383763	0.476171	
0.667	0.391835	1.41387	0.608165	0.707075	
0.667	0.193924	0.913209	0.806076	0.975484	
0.667	0.038921	0.361369	0.961079	1.25966	
0.667	0	0	1	1.39492	
