Adsorption isotherm of Carbon Dioxide, Methane on NSK5OO-activated carbon
DOI: 10.1002/aic.690440322
Article source: Figure 8a
Adsorbate Carbon Dioxide: InChIKey CURLTUGMZLYLDI-UHFFFAOYSA-N
Adsorbate Methane: InChIKey VNWKTOKETHGBQD-UHFFFAOYSA-N
Kind: experiment
Temperature: 303 K
Tabular data in the source: 0
pressure (bar)	Carbon Dioxide fraction	Carbon Dioxide uptake (mmol/g)	Methane fraction	Methane uptake (mmol/g)	total uptake (mmol/g)
0.677	1	3.10278	0	0	
0.677	0.889431	2.76255	0.110569	0.200236	
0.677	0.677271	2.06438	0.322729	0.551093	
0.677	0.472263	1.38216	0.527737	0.831069	
0.677	0.27103	0.809805	0.72897	0.987005	
0.677	0.088511	0.264028	0.911489	1.14471	
0.677	0	0	1	1.0508	
