Adsorption isotherm of Ethane, Methane on NSK 25 activated carbon
DOI: 10.1002/aic.690440322
Article source: Figure 6b
Adsorbate Ethane: InChIKey OTMSDBZUPAUEDD-UHFFFAOYSA-N
Adsorbate Methane: InChIKey VNWKTOKETHGBQD-UHFFFAOYSA-N
Kind: experiment
Temperature: 303 K
Tabular data in the source: 0
pressure (bar)	Ethane fraction	Ethane uptake (mmol/g)	Methane fraction	Methane uptake (mmol/g)	total uptake (mmol/g)
0.677	1	3.24273	0	0	
0.677	0.837162	3.15857	0.162838	0.071346	
0.677	0.547558	2.85962	0.452442	0.311894	
0.677	0.291978	2.31485	0.708022	0.552371	
0.677	0.126596	1.43777	0.873404	0.865635	
0.677	0.025669	0.491447	0.974331	1.15957	
0.677	0	0	1	1.27866	
