Adsorption isotherm of Carbon Dioxide, Methane on Ajax-activated carbon
DOI: 10.1002/aic.690440322
Article source: Figure 3a
Adsorbate Carbon Dioxide: InChIKey CURLTUGMZLYLDI-UHFFFAOYSA-N
Adsorbate Methane: InChIKey VNWKTOKETHGBQD-UHFFFAOYSA-N
Kind: experiment
Temperature: 303 K
Tabular data in the source: 0
pressure (bar)	Carbon Dioxide fraction	Carbon Dioxide uptake (mmol/g)	Methane fraction	Methane uptake (mmol/g)	total uptake (mmol/g)
0.667	1	1.76364	0	0	
0.667	0.872595	1.57335	0.127405	0.090704	
0.667	0.74891	1.40455	0.25109	0.151655	
0.667	0.637096	1.21263	0.362904	0.245687	
0.667	0.418108	0.894909	0.581892	0.365984	
0.667	0.224725	0.564011	0.775275	0.501202	
0.667	0.050569	0.246368	0.949431	0.661244	
0.667	0	0	1	0.80331	
