Adsorption isotherm of Ethane, Methane on NSKlOO-activated carbon
DOI: 10.1002/aic.690440322
Article source: Figure 7b
Adsorbate Ethane: InChIKey OTMSDBZUPAUEDD-UHFFFAOYSA-N
Adsorbate Methane: InChIKey VNWKTOKETHGBQD-UHFFFAOYSA-N
Kind: experiment
Temperature: 303 K
Tabular data in the source: 0
pressure (bar)	Ethane fraction	Ethane uptake (mmol/g)	Methane fraction	Methane uptake (mmol/g)	total uptake (mmol/g)
0.677	1	4.00443	0	0	
0.677	0.877066	3.75803	0.122934	0.191207	
0.677	0.634509	3.26749	0.365491	0.456454	
0.677	0.419079	2.41697	0.580921	0.75509	
0.677	0.220192	1.58206	0.779808	1.01192	
0.677	0.055533	0.63475	0.944467	1.20713	
0.677	0	0	1	0.985652	
