Adsorption isotherm of Carbon Dioxide, Methane on NSKlOO-activated carbon
DOI: 10.1002/aic.690440322
Article source: Figure 7a
Adsorbate Carbon Dioxide: InChIKey CURLTUGMZLYLDI-UHFFFAOYSA-N
Adsorbate Methane: InChIKey VNWKTOKETHGBQD-UHFFFAOYSA-N
Kind: experiment
Temperature: 303 K
Tabular data in the source: 0
pressure (bar)	Carbon Dioxide fraction	Carbon Dioxide uptake (mmol/g)	Methane fraction	Methane uptake (mmol/g)	total uptake (mmol/g)
0.677	1	2.90641	0	0	
0.677	0.892193	2.64437	0.107807	0.224315	
0.677	0.692052	1.9598	0.307948	0.744763	
0.677	0.489162	1.31034	0.510838	1.12649	
0.677	0.290154	0.704323	0.709846	1.29429	
0.677	0.095596	0.186867	0.904404	1.21473	
0.677	0	0	1	0.992756	
