Adsorption isotherm of N-propane, Methane on NSK5OO-activated carbon
DOI: 10.1002/aic.690440322
Article source: Figure 8c
Adsorbate N-propane: InChIKey ATUOYWHBWRKTHZ-UHFFFAOYSA-N
Adsorbate Methane: InChIKey VNWKTOKETHGBQD-UHFFFAOYSA-N
Kind: experiment
Temperature: 303 K
Tabular data in the source: 0
pressure (bar)	N-propane fraction	N-propane uptake (mmol/g)	Methane fraction	Methane uptake (mmol/g)	total uptake (mmol/g)
0.677	1	6.42787	0	0	
0.677	0.860987	6.10586	0.139013	0.250152	
0.677	0.59071	5.47342	0.40929	0.8527	
0.677	0.350191	4.12142	0.649809	1.26862	
0.677	0.122981	3.27417	0.877019	1.96022	
0.677	0.035598	0.819365	0.964402	1.17054	
0.677	0	0	1	1.05356	
