Adsorption isotherm of N-propane, Methane on NSK 25 activated carbon
DOI: 10.1002/aic.690440322
Article source: Figure 6c
Adsorbate N-propane: InChIKey ATUOYWHBWRKTHZ-UHFFFAOYSA-N
Adsorbate Methane: InChIKey VNWKTOKETHGBQD-UHFFFAOYSA-N
Kind: experiment
Temperature: 303 K
Tabular data in the source: 0
pressure (bar)	N-propane fraction	N-propane uptake (mmol/g)	Methane fraction	Methane uptake (mmol/g)	total uptake (mmol/g)
0.677	1	3.22929	0	0	
0.677	0.838948	3.10376	0.161052	0.077958	
0.677	0.521218	2.95819	0.478782	0.197333	
0.677	0.222825	2.61642	0.777175	0.333616	
0.677	0.040054	1.82887	0.959946	0.692309	
0.677	0.005669	0.545168	0.994331	0.996315	
0.677	0	0	1	1.2815	
