Adsorption isotherm of Carbon Dioxide, Methane on NSK 25 activated carbon
DOI: 10.1002/aic.690440322
Article source: Figure 6a
Adsorbate Carbon Dioxide: InChIKey CURLTUGMZLYLDI-UHFFFAOYSA-N
Adsorbate Methane: InChIKey VNWKTOKETHGBQD-UHFFFAOYSA-N
Kind: experiment
Temperature: 303 K
Tabular data in the source: 0
pressure (bar)	Carbon Dioxide fraction	Carbon Dioxide uptake (mmol/g)	Methane fraction	Methane uptake (mmol/g)	total uptake (mmol/g)
0.667	1	2.86945	0	0	
0.667	0.84713	2.51822	0.15287	0.202121	
0.667	0.630795	2.03115	0.369205	0.468854	
0.667	0.407837	1.48774	0.592163	0.730616	
0.667	0.230685	0.851557	0.769315	0.982439	
0.667	0.068986	0.279987	0.931014	1.17296	
0.667	0	0	1	1.28065	
