Adsorption isotherm of N-propane, Methane on Ajax-activated carbon
DOI: 10.1002/aic.690440322
Article source: Figure 3c
Adsorbate N-propane: InChIKey ATUOYWHBWRKTHZ-UHFFFAOYSA-N
Adsorbate Methane: InChIKey VNWKTOKETHGBQD-UHFFFAOYSA-N
Kind: experiment
Temperature: 303 K
Tabular data in the source: 0
pressure (bar)	N-propane fraction	N-propane uptake (mmol/g)	Methane fraction	Methane uptake (mmol/g)	total uptake (mmol/g)
0.667	1	4.35102	0	0	
0.667	0.757734	4.25533	0.242266	0.032317	
0.667	0.378619	3.5754	0.621381	0.195582	
0.667	0.108391	2.55979	0.891609	0.292918	
0.667	0.025887	1.36554	0.974113	0.50636	
0.667	0.003146	0.408941	0.996854	0.712911	
0.667	0	0	1	0.827326	
