Adsorption isotherm of Ethane, Methane on Ajax-activated carbon
DOI: 10.1002/aic.690440322
Article source: Figure 3b
Adsorbate Ethane: InChIKey OTMSDBZUPAUEDD-UHFFFAOYSA-N
Adsorbate Methane: InChIKey VNWKTOKETHGBQD-UHFFFAOYSA-N
Kind: experiment
Temperature: 303 K
Tabular data in the source: 0
pressure (bar)	Ethane fraction	Ethane uptake (mmol/g)	Methane fraction	Methane uptake (mmol/g)	total uptake (mmol/g)
0.667	1	3.36958	0	0	
0.667	0.80762	2.98348	0.19238	0.042221	
0.667	0.512334	2.30434	0.487666	0.208778	
0.667	0.268743	1.70033	0.731257	0.351631	
0.667	0.119229	0.963156	0.880771	0.49309	
0.667	0.024707	0.331903	0.975293	0.683377	
0.667	0	0	1	0.803972	
