Adsorption isotherm of N-propane, Methane on NSKlOO-activated carbon
DOI: 10.1002/aic.690440322
Article source: Figure 7c
Adsorbate N-propane: InChIKey ATUOYWHBWRKTHZ-UHFFFAOYSA-N
Adsorbate Methane: InChIKey VNWKTOKETHGBQD-UHFFFAOYSA-N
Kind: experiment
Temperature: 303 K
Tabular data in the source: 0
pressure (bar)	N-propane fraction	N-propane uptake (mmol/g)	Methane fraction	Methane uptake (mmol/g)	total uptake (mmol/g)
0.677	1	4.74091	0	0	
0.677	0.879864	4.51556	0.120136	0.212903	
0.677	0.62632	4.02357	0.37368	0.600189	
0.677	0.389362	3.36335	0.610638	1.05629	
0.677	0.197815	2.15714	0.802185	1.37157	
0.677	0.062807	0.619839	0.937193	1.26757	
0.677	0	0	1	1.00606	
