Adsorption isotherm of Ethane, Methane on NSK5OO-activated carbon
DOI: 10.1002/aic.690440322
Article source: Figure 8b
Adsorbate Ethane: InChIKey OTMSDBZUPAUEDD-UHFFFAOYSA-N
Adsorbate Methane: InChIKey VNWKTOKETHGBQD-UHFFFAOYSA-N
Kind: experiment
Temperature: 303 K
Tabular data in the source: 0
pressure (bar)	Ethane fraction	Ethane uptake (mmol/g)	Methane fraction	Methane uptake (mmol/g)	total uptake (mmol/g)
0.677	1	5.19288	0	0	
0.677	0.856885	4.87055	0.143115	0.15074	
0.677	0.601125	3.91628	0.398875	0.488303	
0.677	0.381176	2.88157	0.618824	0.840098	
0.677	0.188744	1.89022	0.811256	1.12965	
0.677	0.041093	0.734624	0.958907	1.23317	
0.677	0	0	1	1.05167	
