Adsorption isotherm of Nitrogen on MOF-143
DOI: 10.1039/c4cc09212k
Article source: Figure 2
Adsorbate Nitrogen: InChIKey IJGRMHOSHXDMSA-UHFFFAOYSA-N
Kind: experiment
Temperature: 77 K
Tabular data in the source: 0
pressure (bar)	uptake (cm3(STP)/g)
0.001592	11.811
0.001621	1.1811
0.004785	31.8898
0.006367	47.2441
0.009583	59.0551
0.016043	72.0472
0.022516	80.315
0.032243	86.2205
0.05495	95.6693
0.079291	101.575
0.102018	103.937
0.103619	112.205
0.124735	109.843
0.15071	112.205
0.157185	119.291
0.170185	115.748
0.183169	118.11
0.194533	119.291
0.20588	126.378
0.213996	127.559
0.215636	121.654
0.222116	127.559
0.231874	121.654
0.235102	128.74
0.244842	129.921
0.24973	124.016
0.257826	132.283
0.265961	126.378
0.27081	134.646
0.277324	127.559
0.28055	135.827
0.291936	128.74
0.296781	138.189
0.308161	133.465
0.35036	140.551
0.353592	146.457
0.402293	151.181
0.408772	157.087
0.449323	173.622
0.454226	161.811
0.468769	187.795
0.504529	174.803
0.509269	223.228
0.535361	181.89
0.558075	188.976
0.603513	199.606
0.608311	226.772
0.655445	210.236
0.660272	226.772
0.707387	217.323
0.710603	229.134
0.733356	222.047
0.760938	230.315
0.760957	223.228
0.793414	230.315
0.809662	226.772
0.843748	231.496
0.863237	230.315
0.897334	231.496
0.911948	231.496
0.929807	232.677
0.944424	231.496
1.00124	237.402
