Adsorption isotherm of Nitrogen on NU-700
DOI: 10.1039/c4cc09212k
Article source: Figure 2
Adsorbate Nitrogen: InChIKey IJGRMHOSHXDMSA-UHFFFAOYSA-N
Kind: experiment
Temperature: 77 K
Tabular data in the source: 0
pressure (bar)	uptake (cm3(STP)/g)
0.001626	0.001605
0.003253	73.2283
0.004879	89.7638
0.006506	106.299
0.009758	135.827
0.011385	153.543
0.01789	236.22
0.029275	303.543
0.034155	320.079
0.037407	341.339
0.048792	370.866
0.055298	388.583
0.058551	393.307
0.068309	407.48
0.082947	416.929
0.092705	425.197
0.108969	433.465
0.12198	438.189
0.151256	444.094
0.175652	450
0.201674	453.543
0.208179	454.724
0.22607	454.724
0.229323	458.268
0.24884	457.087
0.252093	462.992
0.26673	457.087
0.269984	461.811
0.287873	461.811
0.2895	468.898
0.305764	466.535
0.33016	466.535
0.331787	470.079
0.34805	472.441
0.357809	467.717
0.3757	473.622
0.378952	467.717
0.404975	468.898
0.408227	477.165
0.432623	470.079
0.458646	481.89
0.483043	473.622
0.486295	485.433
0.505811	491.339
0.507439	474.803
0.531835	477.165
0.533461	491.339
0.557857	478.346
0.559483	493.701
0.582253	479.528
0.588758	493.701
0.608275	480.709
0.613154	493.701
0.631045	479.528
0.63755	496.063
0.658694	480.709
0.668452	494.882
0.681463	480.709
0.692848	494.882
0.705859	481.89
0.713992	496.063
0.728629	483.071
0.756278	484.252
0.762784	498.425
0.78718	486.614
0.809949	486.614
0.814828	497.244
0.834346	486.614
0.861994	497.244
0.884764	488.976
0.912413	486.614
0.918918	499.606
0.957952	500.787
0.966084	491.339
0.992107	507.874
1.00187	500.787
1.01	517.323
1.01162	509.055
