Adsorption isotherm of Nitrogen on PI-CONs/S
DOI: 10.1021/jacs.1c08675
Article source: Figure S13
Adsorbate Nitrogen: InChIKey IJGRMHOSHXDMSA-UHFFFAOYSA-N
Kind: experiment
Temperature: 77 K
Tabular data in the source: 0
pressure (bar)	uptake (cm3(STP)/g)
0.009861	1.13402
0.032113	1.32947
0.054406	1.32356
0.076671	1.45189
0.098937	1.58022
0.117162	1.6425
0.143508	1.63552
0.159721	1.63123
0.196187	1.68868
0.230612	1.81379
0.267064	1.93836
0.283276	1.93406
0.311649	1.92655
0.331915	1.92118
0.352181	1.91581
0.3785	2.04306
0.400779	2.10427
0.439257	2.22831
0.461523	2.35664
0.495989	2.28039
0.538507	2.47047
0.585132	2.391
0.64185	2.5102
0.702621	2.62833
0.769431	2.9462
0.844348	3.26192
0.882813	3.45307
0.925249	4.04586
0.969562	5.3764
0.989352	7.72015
1.00639	13.6217
0.013873	1.3343
0.052393	1.25698
0.072618	1.45296
0.090844	1.51525
0.09895	1.5131
0.11719	1.50827
0.137442	1.57002
0.165801	1.62962
0.19012	1.62317
0.210359	1.75204
0.220492	1.74936
0.240745	1.8111
0.275197	1.80198
0.301502	1.99635
0.323781	2.05756
0.3501	2.18481
0.386565	2.24227
0.431137	2.29757
0.463536	2.42322
0.504041	2.54671
0.562785	2.66538
0.621475	3.05251
0.67822	3.03748
0.76127	3.21682
0.821987	3.60342
0.870585	3.79188
0.908941	4.51997
0.959416	5.4462
0.983449	6.84923
