Adsorption isotherm of Nitrogen on PI-COF
DOI: 10.1021/jacs.1c08675
Article source: Figure 2b
Adsorbate Nitrogen: InChIKey IJGRMHOSHXDMSA-UHFFFAOYSA-N
Kind: experiment
Temperature: 77 K
Tabular data in the source: 0
pressure (bar)	uptake (cm3(STP)/g)
0.010237	1.86985
0.010401	3.51687
0.010518	4.69332
0.014585	5.63355
0.01275	7.16339
0.014877	8.57466
0.014947	9.28052
0.015064	10.457
0.013299	12.6927
0.015485	14.6922
0.015602	15.8686
0.017635	16.3387
0.01774	17.3975
0.023899	19.3961
0.025979	20.3368
0.032056	21.5118
0.042153	23.1566
0.060385	26.6817
0.092382	28.792
0.11835	30.1977
0.136324	31.1347
0.166253	32.4219
0.210078	33.5882
0.190164	33.1222
0.22998	33.9365
0.27772	34.5136
0.301596	34.861
0.335393	35.0885
0.381123	35.4308
0.442723	35.5341
0.488441	35.7588
0.534159	35.9835
0.587777	35.7357
0.641441	35.9586
0.687148	36.0656
0.748759	36.2866
0.78355	36.5138
0.84217	36.6178
0.895823	36.723
0.945526	37.0644
0.991232	37.1715
1.01519	38.3424
0.056423	26.8003
0.106395	29.8475
0.156273	31.9536
0.214016	33.2343
0.261779	34.0467
0.315503	34.8578
0.349289	34.9676
0.428804	35.4197
0.472524	35.5272
0.512281	35.7533
0.565946	35.9761
0.613639	36.0827
0.665294	36.0707
0.714973	36.1768
0.768626	36.282
0.826288	36.7392
0.869996	36.729
0.915725	37.0713
0.965382	36.9422
