Adsorption isotherm of Nitrogen on PI-COF/S
DOI: 10.1021/jacs.1c08675
Article source: Figure 2b
Adsorbate Nitrogen: InChIKey IJGRMHOSHXDMSA-UHFFFAOYSA-N
Kind: experiment
Temperature: 77 K
Tabular data in the source: 0
pressure (bar)	uptake (cm3(STP)/g)
0.020054	0.691103
0.043918	0.920855
0.073719	0.913935
0.097571	1.02604
0.111467	0.905169
0.137294	0.899172
0.155174	0.89502
0.16907	0.774146
0.200857	0.766764
0.226696	0.878411
0.240603	0.875182
0.264456	0.98729
0.282348	1.10078
0.318109	1.09248
0.333991	0.971143
0.36378	0.846578
0.397578	1.07402
0.421418	1.06849
0.443272	1.06341
0.467113	1.05788
0.486992	1.17091
0.516792	1.16399
0.540645	1.2761
0.572432	1.26871
0.586339	1.26548
0.624087	1.25672
0.645941	1.25164
0.671756	1.128
0.715499	1.47079
0.779063	1.33838
0.836689	1.44264
0.86053	1.43711
0.900252	1.31024
0.941985	1.41819
0.981766	1.87954
1.00166	2.11022
1.01215	7.75484
0.014129	1.04542
0.035983	1.04034
0.053852	0.918549
0.073707	0.796291
0.093563	0.674033
0.11939	0.668035
0.137282	0.781528
0.16311	0.77553
0.18695	0.769994
0.224721	0.996517
0.246575	0.991442
0.264456	0.98729
0.29026	0.746004
0.335954	0.735392
0.36378	0.846578
0.389619	0.958225
0.409486	0.953611
0.469099	1.05742
0.512842	1.4002
0.53867	1.3942
0.588326	1.26502
0.639969	1.13538
0.68169	1.12569
0.725398	1.11555
0.792958	1.2175
0.81681	1.32961
0.876412	1.31577
0.906213	1.30885
0.94403	2.00595
0.9838	2.34966
