Adsorption isotherm of Ethane on Zeolite 13X
DOI: 10.1021/acs.iecr.7b04391
Article source: Figure 6d, Figure 8d
Adsorbate Ethane: InChIKey OTMSDBZUPAUEDD-UHFFFAOYSA-N
Kind: experiment
Temperature: 298 K
Tabular data in the source: 0
pressure (bar)	uptake (mmol/g)
0.00593	0.0427
0.00977	0.0474
0.0133	0.0759
0.0202	0.114
0.026	0.171
0.0326	0.209
0.0393	0.271
0.046	0.328
0.0529	0.394
0.0597	0.451
0.0664	0.504
0.0781	0.622
0.101	0.812
0.107	0.879
0.12	0.979
0.133	1.08
0.157	1.25
0.187	1.43
0.215	1.58
0.242	1.71
0.269	1.82
0.331	2.01
0.403	2.16
0.471	2.27
0.532	2.36
0.598	2.42
0.665	2.48
0.733	2.54
0.799	2.58
0.866	2.63
0.933	2.65
0.999	2.67
1.07	2.71
