Adsorption isotherm of Ethene on Mg-MOF-74
DOI: 10.1021/acs.iecr.7b04391
Article source: Figure 6b
Adsorbate Ethene: InChIKey VGGSQFUCUMXWEO-UHFFFAOYSA-N
Kind: experiment
Temperature: 298 K
Tabular data in the source: 0
pressure (bar)	uptake (mmol/g)
0.00709	0.564
0.01	0.985
0.0124	1.24
0.0207	1.72
0.0284	2.12
0.0343	2.41
0.0396	2.64
0.0473	2.86
0.0532	3.05
0.0597	3.21
0.0656	3.36
0.0792	3.57
0.0969	3.84
0.106	3.96
0.119	4.09
0.133	4.2
0.157	4.38
0.187	4.55
0.215	4.68
0.243	4.79
0.271	4.88
0.329	5.05
0.4	5.21
0.469	5.34
0.529	5.44
0.597	5.54
0.664	5.64
0.731	5.72
0.798	5.79
0.863	5.87
0.931	5.93
0.998	6
1.06	6.05
