Adsorption isotherm of Ethane, Ethene on Mg-MOF-74
DOI: 10.1021/acs.iecr.7b04391
Article source: Table 3
Adsorbate Ethane: InChIKey OTMSDBZUPAUEDD-UHFFFAOYSA-N
Adsorbate Ethene: InChIKey VGGSQFUCUMXWEO-UHFFFAOYSA-N
Kind: experiment
Temperature: 298 K
Tabular data in the source: 0
pressure (bar)	Ethane fraction	Ethane uptake (mmol/g)	Ethene fraction	Ethene uptake (mmol/g)	total uptake (mmol/g)
1	0.5	1.062	0.5	3.276	
1	0.5	1.126	0.5	3.304	
1	0.5	1.062	0.5	3.327	
