Adsorption isotherm of Ethane on Mg-MOF-74
DOI: 10.1021/acs.iecr.7b04391
Article source: Figure 6b
Adsorbate Ethane: InChIKey OTMSDBZUPAUEDD-UHFFFAOYSA-N
Kind: experiment
Temperature: 298 K
Tabular data in the source: 0
pressure (bar)	uptake (mmol/g)
0.0106	0.0841
0.0177	0.192
0.026	0.288
0.0343	0.372
0.0414	0.468
0.0485	0.576
0.0567	0.684
0.065	0.793
0.0839	1.04
0.0934	1.15
0.106	1.3
0.121	1.49
0.132	1.65
0.155	1.92
0.183	2.26
0.211	2.55
0.239	2.83
0.267	3.07
0.339	3.61
0.407	3.98
0.479	4.3
0.546	4.52
0.614	4.73
0.66	4.83
0.726	4.99
0.794	5.11
0.861	5.22
0.928	5.33
0.996	5.41
1.06	5.49
