Adsorption isotherm of Ethene on Zeolite 13X
DOI: 10.1021/acs.iecr.7b04391
Article source: Figure 6d, Figure 8d
Adsorbate Ethene: InChIKey VGGSQFUCUMXWEO-UHFFFAOYSA-N
Kind: experiment
Temperature: 298 K
Tabular data in the source: 0
pressure (bar)	uptake (mmol/g)
0.00143	0.262
0.00517	0.719
0.00924	1.01
0.0129	1.21
0.0195	1.45
0.0257	1.62
0.0323	1.76
0.0395	1.88
0.0462	1.98
0.0533	2.07
0.06	2.15
0.0668	2.21
0.0773	2.29
0.0931	2.39
0.107	2.47
0.121	2.52
0.134	2.58
0.16	2.65
0.188	2.71
0.215	2.79
0.243	2.86
0.269	2.9
0.331	2.97
0.401	3.03
0.468	3.08
0.532	3.13
0.599	3.15
0.665	3.2
0.733	3.23
0.799	3.25
0.865	3.27
0.933	3.3
0.999	3.31
1.07	3.33
