Adsorption isotherm of Hydrogen on IRMOF-1
DOI: 10.1021/Jp051903n
Adsorbate Hydrogen: InChIKey UFHFLCQGNIYNRP-UHFFFAOYSA-N
Temperature: 77 K
Tabular data in the source: 0
pressure (bar)	uptake (mmol/g)
0.0294118	0.36257
0.0647059	0.856983
0.102941	1.25251
0.129412	1.58212
0.191176	2.1095
0.202941	2.17542
0.267647	2.70279
0.335294	3.16424
0.402941	3.6257
0.476471	4.05419
0.535294	4.41676
0.602941	4.74637
0.670588	5.07598
0.8	5.66927
0.941176	6.32849
1.00294	6.59218
