Adsorption isotherm of Hydrogen on IRMOF-1
DOI: 10.1021/Jp051903n
Adsorbate Hydrogen: InChIKey UFHFLCQGNIYNRP-UHFFFAOYSA-N
Temperature: 77 K
Tabular data in the source: 0
pressure (bar)	uptake (mmol/g)
0.0264706	0.263687
0.0647059	0.560335
0.102941	0.922905
0.132353	1.15363
0.194118	1.64804
0.2	1.71397
0.267647	2.20838
0.332353	2.73575
0.402941	3.19721
0.476471	3.65866
0.535294	4.02123
0.602941	4.48268
0.667647	4.84525
0.8	5.60335
0.938235	6.36145
1.00294	6.75698
