Adsorption isotherm of Hydrogen on IRMOF-1
DOI: 10.1021/Jp051903n
Adsorbate Hydrogen: InChIKey UFHFLCQGNIYNRP-UHFFFAOYSA-N
Temperature: 77 K
Tabular data in the source: 0
pressure (bar)	uptake (mmol/g)
0.105882	2.83464
0.2	4.12011
0.402941	5.83408
1.00294	8.24022
