Adsorption isotherm of Hydrogen on IRMOF-18
DOI: 10.1021/Jp051903n
Adsorbate Hydrogen: InChIKey UFHFLCQGNIYNRP-UHFFFAOYSA-N
Temperature: 77 K
Tabular data in the source: 0
pressure (bar)	uptake (mmol/g)
1.14833	4.49198
1.72249	6.73797
2.58373	9.62534
5.16746	13.1503
10.0478	17.9533
15.2153	20.8292
20.3828	22.7418
25.8373	24.3326
30.7177	25.6038
40.4785	27.1831
50.5263	28.4405
60	28.7362
68.8995	29.3546
77.512	30.2948
84.9761	30.9169
92.1531	31.5399
98.756	31.8433
