Adsorption isotherm of Hydrogen on IRMOF-8
DOI: 10.1021/Jp051903n
Adsorbate Hydrogen: InChIKey UFHFLCQGNIYNRP-UHFFFAOYSA-N
Temperature: 77 K
Tabular data in the source: 0
pressure (bar)	uptake (mmol/g)
1.72249	8.9855
2.58373	12.515
5.16746	19.2507
10.0478	28.2277
15.2153	33.9933
20.3828	38.7956
25.5502	42.3136
30.7177	45.8316
40.4785	50.3005
50.8134	54.1258
60.2871	56.669
68.6124	58.2521
77.512	59.8337
85.2632	61.0972
92.4402	61.7202
98.756	62.6665
