Adsorption isotherm of Hydrogen on IRMOF-18
DOI: 10.1021/Jp051903n
Adsorbate Hydrogen: InChIKey UFHFLCQGNIYNRP-UHFFFAOYSA-N
Temperature: 77 K
Tabular data in the source: 0
pressure (bar)	uptake (mmol/g)
0.0205882	0.131844
0.0470588	0.230726
0.0823529	0.395531
0.135294	0.725139
0.264706	1.38436
0.397059	2.04357
0.538235	2.63687
0.670588	3.23017
0.797059	3.82346
1.00588	4.51564
