Adsorption isotherm of Hydrogen on IRMOF-18
DOI: 10.1021/Jp051903n
Adsorbate Hydrogen: InChIKey UFHFLCQGNIYNRP-UHFFFAOYSA-N
Temperature: 77 K
Tabular data in the source: 0
pressure (bar)	uptake (mmol/g)
0.0205882	0.131844
0.0441176	0.296648
0.0852941	0.461452
0.138235	0.922905
0.267647	1.64804
0.397059	2.2743
0.535294	2.83464
0.667647	3.29609
0.8	3.7905
1.00294	4.3838
