Adsorption isotherm of Hydrogen on IRMOF-1
DOI: 10.1021/Jp051903n
Adsorbate Hydrogen: InChIKey UFHFLCQGNIYNRP-UHFFFAOYSA-N
Temperature: 77 K
Tabular data in the source: 0
pressure (bar)	uptake (mmol/g)
1.72249	8.9855
2.00957	12.5166
4.88038	19.5725
10.3349	27.2637
15.2153	31.7457
20.0957	35.2645
25.2632	37.8193
30.7177	39.7311
40.7656	42.5939
50.8134	44.8146
60.2871	46.3946
68.6124	47.6566
76.9378	47.9554
85.2632	49.2175
92.4402	49.8404
98.756	50.4657
