Adsorption isotherm of Methane on Co14-MOF-74
DOI: 10.1016/j.ijhydene.2011.05.187
Adsorbate Methane: InChIKey VNWKTOKETHGBQD-UHFFFAOYSA-N
Temperature: 273 K
Tabular data in the source: 0
pressure (bar)	uptake (wt%)
0.211115	0.43962
0.323791	0.743845
0.436467	0.997366
0.563228	1.28469
0.78858	1.92694
1.02802	2.5523
1.99985	4.66497
3.05619	6.1861
4.02802	7.33539
4.99985	8.14666
7.49281	9.71849
9.97168	10.8002
