Adsorption isotherm of Hydrogen on MOF-74
DOI: 10.1016/j.ijhydene.2011.05.187
Adsorbate Hydrogen: InChIKey UFHFLCQGNIYNRP-UHFFFAOYSA-N
Temperature: 77 K
Tabular data in the source: 0
pressure (bar)	uptake (wt%)
0.0168862	0.239467
0.0309707	0.374678
0.0549143	0.507073
0.0802664	0.585946
0.10421	0.664819
0.152097	0.726791
0.208435	0.783129
0.300127	0.854598
0.407584	0.930604
0.501937	0.998748
0.754854	1.11407
0.998599	1.25298
