Adsorption isotherm of Hydrogen on Co100-MOF-74
DOI: 10.1016/j.ijhydene.2011.05.187
Adsorbate Hydrogen: InChIKey UFHFLCQGNIYNRP-UHFFFAOYSA-N
Temperature: 77 K
Tabular data in the source: 0
pressure (bar)	uptake (wt%)
0.00914477	0.188283
0.0185344	0.911288
0.030741	1.00894
0.0560931	1.08406
0.10398	1.18171
0.155624	1.26997
0.202802	1.33806
0.301393	1.45355
0.402802	1.56623
0.501393	1.662
0.754914	1.83947
0.997168	1.98313
