Adsorption isotherm of Methane on Co100-MOF-74
DOI: 10.1016/j.ijhydene.2011.05.187
Adsorbate Methane: InChIKey VNWKTOKETHGBQD-UHFFFAOYSA-N
Temperature: 273 K
Tabular data in the source: 0
pressure (bar)	uptake (wt%)
0.112524	0.32131
0.337876	1.04807
0.535059	1.77483
0.816749	2.67061
1.05619	3.46497
2.0421	5.76356
3.02802	7.18328
4.02802	8.36638
5.02802	9.39737
7.50689	10.7495
9.95759	11.6284
