Adsorption isotherm of Hydrogen on Co14-MOF-74
DOI: 10.1016/j.ijhydene.2011.05.187
Adsorbate Hydrogen: InChIKey UFHFLCQGNIYNRP-UHFFFAOYSA-N
Temperature: 77 K
Tabular data in the source: 0
pressure (bar)	uptake (wt%)
0.0515504	0.894114
0.123058	1.04928
0.194565	1.19945
0.308976	1.32959
0.409086	1.43971
0.537799	1.5198
0.75232	1.67497
1.00975	1.82514
2.01085	2.1555
3.01195	2.36073
3.98444	2.52591
7.5026	2.8813
9.97674	3.0665
