Adsorption isotherm of Carbon Dioxide on Co21-MOF-5
DOI: 10.1016/j.ijhydene.2011.05.187
Adsorbate Carbon Dioxide: InChIKey CURLTUGMZLYLDI-UHFFFAOYSA-N
Temperature: 273 K
Tabular data in the source: 0
pressure (bar)	uptake (wt%)
0.0843546	0.494025
0.182946	1.18417
0.295622	2.36726
0.492805	4.04332
0.746326	6.11374
0.985763	7.7898
1.98576	14.7898
2.97168	21.494
3.97168	28.7898
4.97168	37.3673
7.50689	56.5926
9.97168	66.2546
