Adsorption isotherm of Hydrogen on Co14-MOF-74
DOI: 10.1016/j.ijhydene.2011.05.187
Adsorbate Hydrogen: InChIKey UFHFLCQGNIYNRP-UHFFFAOYSA-N
Temperature: 77 K
Tabular data in the source: 0
pressure (bar)	uptake (wt%)
0.0140693	0.55496
0.0520974	0.907073
0.0746326	1.00566
0.10421	1.05919
0.153506	1.15496
0.201393	1.23383
0.307027	1.36341
0.40421	1.43947
0.499985	1.53524
0.746464	1.68735
0.995759	1.81693
