Adsorption isotherm of Hydrogen on Co21-MOF-5
DOI: 10.1016/j.ijhydene.2011.05.187
Adsorbate Hydrogen: InChIKey UFHFLCQGNIYNRP-UHFFFAOYSA-N
Temperature: 77 K
Tabular data in the source: 0
pressure (bar)	uptake (wt%)
0.0182946	0.0225657
0.0267453	0.138059
0.0859002	0.332425
0.10421	0.388763
0.20421	0.571862
0.350689	0.771861
0.505619	0.929608
0.757731	1.14369
0.997168	1.31834
