Adsorption isotherm of Carbon Dioxide on IRMOF-1
DOI: 10.1016/j.ijhydene.2011.05.187
Adsorbate Carbon Dioxide: InChIKey CURLTUGMZLYLDI-UHFFFAOYSA-N
Temperature: 273 K
Tabular data in the source: 0
pressure (bar)	uptake (wt%)
0.0561856	1.18417
0.267453	3.35318
0.50689	5.62079
0.760411	7.88839
1.0421	10.0574
1.99985	16.3673
2.97168	22.1842
4.02802	28.0997
4.98576	34.6067
7.47872	47.9166
9.21111	55.9025
9.94351	59.156
