Adsorption isotherm of Hydrogen on Co21-MOF-5
DOI: 10.1016/j.ijhydene.2011.05.187
Adsorbate Hydrogen: InChIKey UFHFLCQGNIYNRP-UHFFFAOYSA-N
Temperature: 77 K
Tabular data in the source: 0
pressure (bar)	uptake (wt%)
0.0372489	0.018151
0.0515504	0.123267
0.108756	0.373542
0.208866	0.55374
0.337579	0.763971
0.523498	0.90913
0.780923	1.13438
1.02405	1.30957
2.03945	1.80011
2.99764	2.17552
3.99875	2.47085
5.01415	2.72613
7.48829	3.22668
9.97674	3.56705
