Adsorption isotherm of Carbon Dioxide on Co100-MOF-74
DOI: 10.1016/j.ijhydene.2011.05.187
Adsorbate Carbon Dioxide: InChIKey CURLTUGMZLYLDI-UHFFFAOYSA-N
Temperature: 273 K
Tabular data in the source: 0
pressure (bar)	uptake (wt%)
0.0843546	12.818
0.267453	23.4659
0.394214	27.9025
0.50689	29.8743
0.704073	33.9166
1.05619	36.9729
2.01393	44.0715
2.97168	48.1137
4.02802	50.1842
5.02802	51.5644
7.52097	54.4236
9.97168	56.0997
