Adsorption isotherm of Hydrogen on Co100-MOF-74
DOI: 10.1016/j.ijhydene.2011.05.187
Adsorbate Hydrogen: InChIKey UFHFLCQGNIYNRP-UHFFFAOYSA-N
Temperature: 77 K
Tabular data in the source: 0
pressure (bar)	uptake (wt%)
0.0658518	1.17943
0.137359	1.26452
0.180263	1.35963
0.280373	1.45974
0.380483	1.56986
0.523498	1.66997
0.75232	1.83014
1.03835	1.99032
2.02515	2.3407
2.99764	2.54092
4.04165	2.7011
5.01415	2.81122
7.5026	3.0665
9.97674	3.21667
