Adsorption isotherm of Hydrogen on IRMOF-1
DOI: 10.1016/j.ijhydene.2011.05.187
Adsorbate Hydrogen: InChIKey UFHFLCQGNIYNRP-UHFFFAOYSA-N
Temperature: 77 K
Tabular data in the source: 0
pressure (bar)	uptake (wt%)
0.0154777	0.112707
0.0253369	0.169045
0.0520974	0.267636
0.0760411	0.338059
0.102802	0.416932
0.152097	0.515523
0.201393	0.605664
0.301393	0.760594
0.402802	0.87327
0.507027	0.977495
0.747872	1.17468
0.997168	1.34933
