Adsorption isotherm of Carbon Dioxide on MOF-74
DOI: 10.1016/j.ijhydene.2011.05.187
Adsorbate Carbon Dioxide: InChIKey CURLTUGMZLYLDI-UHFFFAOYSA-N
Temperature: 273 K
Tabular data in the source: 0
pressure (bar)	uptake (wt%)
0.0421011	3.05741
0.126608	9.46586
0.182946	13.2123
0.380129	20.0152
0.478721	22.6771
0.718157	26.2264
0.971679	28.987
1.99985	35.987
3.0421	39.3391
4.01393	41.4095
4.99985	42.7898
7.50689	45.0574
9.97168	46.4377
