Adsorption isotherm of Methane on MOF-74
DOI: 10.1016/j.ijhydene.2011.05.187
Adsorbate Methane: InChIKey VNWKTOKETHGBQD-UHFFFAOYSA-N
Temperature: 273 K
Tabular data in the source: 0
pressure (bar)	uptake (wt%)
0.35196	0.625535
0.520974	1.09877
0.802664	1.69032
1.05619	2.16356
2.0421	3.7692
3.02802	5.08751
3.91534	6.00018
4.36604	6.52413
5.01393	7.11568
7.47872	8.41708
9.98576	9.22835
