Adsorption isotherm of Hydrogen on IRMOF-1
DOI: 10.1016/j.ijhydene.2011.05.187
Adsorbate Hydrogen: InChIKey UFHFLCQGNIYNRP-UHFFFAOYSA-N
Temperature: 77 K
Tabular data in the source: 0
pressure (bar)	uptake (wt%)
0.0515504	0.088228
0.0801532	0.258415
0.123058	0.498679
0.308976	0.738943
0.766622	1.17442
1.03835	1.34961
2.02515	1.82514
2.98334	2.16051
3.99875	2.40577
5.05705	2.65104
7.5312	3.0615
9.97674	3.37184
