Adsorption isotherm of Carbon Dioxide on Co14-MOF-74
DOI: 10.1016/j.ijhydene.2011.05.187
Adsorbate Carbon Dioxide: InChIKey CURLTUGMZLYLDI-UHFFFAOYSA-N
Temperature: 273 K
Tabular data in the source: 0
pressure (bar)	uptake (wt%)
0.0421011	5.12783
0.0561856	7.98698
0.154777	15.0856
0.197031	18.1419
0.267453	21.7898
0.50689	26.818
0.704073	30.9588
0.985763	34.1137
1.95759	41.3109
2.99985	45.3532
3.95759	47.4236
4.99985	49.0011
7.49281	51.7616
9.98576	53.6349
