Adsorption isotherm of Methane on IRMOF-1
DOI: 10.1016/j.ijhydene.2011.05.187
Adsorbate Methane: InChIKey VNWKTOKETHGBQD-UHFFFAOYSA-N
Temperature: 273 K
Tabular data in the source: 0
pressure (bar)	uptake (wt%)
0.140693	0.236803
0.380129	0.490324
0.535059	0.659338
0.774495	0.946662
1.02802	1.21708
2.0421	2.06215
3.01393	2.92413
3.97168	3.60018
7.49281	5.66215
9.92943	6.96356
