Adsorption isotherm of Methane on Co21-MOF-5
DOI: 10.1016/j.ijhydene.2011.05.187
Adsorbate Methane: InChIKey VNWKTOKETHGBQD-UHFFFAOYSA-N
Temperature: 273 K
Tabular data in the source: 0
pressure (bar)	uptake (wt%)
0.154777	0.135394
0.394214	0.43962
0.549143	0.625535
0.774495	0.845253
1.02802	1.06497
2.02802	1.94384
3.02802	2.75511
4.02802	3.56638
5.01393	4.25934
7.50689	5.91568
10.0139	7.4537
