Adsorption isotherm of Hydrogen on MOF-74
DOI: 10.1016/j.ijhydene.2011.05.187
Adsorbate Hydrogen: InChIKey UFHFLCQGNIYNRP-UHFFFAOYSA-N
Temperature: 77 K
Tabular data in the source: 0
pressure (bar)	uptake (wt%)
0.0944547	0.628822
0.494895	0.979207
0.766622	1.12937
0.995445	1.23449
1.99654	1.47976
2.98334	1.63993
4.01305	1.74505
4.99985	1.85517
7.5026	2.04037
9.97674	2.1555
