Adsorption isotherm of Oxygen on [Zn(TCNQ-TCNQ)bpy]
DOI: 10.1038/Nchem.684
Adsorbate Oxygen: InChIKey MYMOFIZGZYHOMD-UHFFFAOYSA-N
Temperature: 77 K
Tabular data in the source: 0
pressure (bar)	uptake (cm3(STP)/g)
0.0270657	3.57143
0.0339981	3.57143
0.0409306	3.57143
0.0478623	4.28571
0.0547932	5.71429
0.0610638	7.14286
0.0623568	32.1429
0.0626657	51.4286
0.0630068	41.4286
0.0633071	68.5714
0.0633173	59.2857
0.0639594	75.7143
0.0640192	21.4286
0.0645882	104.286
0.0645984	95
0.0646094	85
0.065353	9.28571
0.0659008	111.429
0.0662207	120.714
0.0668723	128.571
0.0681834	137.143
0.068504	145.714
0.0704761	153.571
0.0707968	162.143
0.0721094	169.286
0.0727602	177.857
0.0753941	184.286
0.0770368	191.429
0.0783486	199.286
0.0799921	205.714
0.0836163	212.143
0.0855908	217.857
0.0892158	223.571
0.0928431	227.143
0.0971307	230.714
0.101748	235
0.106698	236.429
0.111645	240.714
0.116925	242.143
0.122864	245
0.127814	246.429
0.134745	247.857
0.140356	249.286
0.146296	250.714
0.152567	252.143
0.158507	254.286
0.163786	256.429
0.169066	258.571
0.174674	261.429
0.179623	264.286
0.183911	267.857
0.187206	273.571
0.188517	281.429
