Adsorption isotherm of Carbon Dioxide on [Zn(TCNQ-TCNQ)bpy]
DOI: 10.1038/Nchem.684
Adsorbate Carbon Dioxide: InChIKey CURLTUGMZLYLDI-UHFFFAOYSA-N
Temperature: 193 K
Tabular data in the source: 0
pressure (bar)	uptake (cm3(STP)/g)
0.00598185	6.42857
0.0225205	6.42857
0.0495659	10
0.0751186	11.4286
0.102182	11.4286
0.135249	13.5714
0.163816	13.5714
0.183358	14.2857
0.205896	17.1429
0.232956	17.8571
0.270536	19.2857
0.315635	20.7143
0.35923	22.1429
0.404325	24.2857
0.496022	27.8571
0.584703	32.8571
0.629795	35.7143
0.671883	37.8571
0.716985	38.5714
0.766587	41.4286
0.774086	45
0.790625	45
0.80866	46.4286
0.822195	45.7143
0.840223	48.5714
0.853755	48.5714
