Adsorption isotherm of Nitrogen on [Zn(TCNQ-TCNQ)bpy]
DOI: 10.1038/Nchem.684
Adsorbate Nitrogen: InChIKey IJGRMHOSHXDMSA-UHFFFAOYSA-N
Temperature: 77 K
Tabular data in the source: 0
pressure (bar)	uptake (cm3(STP)/g)
0.149703	2.14286
0.211538	2.85714
0.278259	2.85714
0.307551	2.85714
0.325452	2.85714
0.358002	2.14286
0.390545	2.85714
0.408442	3.57143
0.520728	3.57143
0.553275	3.57143
0.602091	4.28571
0.633011	4.28571
0.665554	5
0.681827	5
0.715997	5.71429
0.746917	5.71429
0.764821	5
0.795737	5.71429
0.825025	6.42857
0.854309	7.85714
0.854313	7.14286
0.883597	8.57143
