Adsorption isotherm of Acetylene on [Zn(TCNQ-TCNQ)bpy]
DOI: 10.1038/Nchem.684
Adsorbate Acetylene: InChIKey HSFWRNGVRCDJHI-UHFFFAOYSA-N
Temperature: 193 K
Tabular data in the source: 0
pressure (bar)	uptake (cm3(STP)/g)
0.002162	2.14286
0.0652852	5.71429
0.0914106	6.42857
0.130596	7.85714
0.230753	9.28571
0.283009	10
0.3222	10.7143
0.348331	10.7143
0.389699	11.4286
0.431078	10.7143
0.474619	12.1429
0.515987	12.8571
0.563904	11.4286
0.603089	12.8571
0.646635	13.5714
0.685831	13.5714
0.733732	14.2857
0.770751	14.2857
0.857842	15.7143
