Adsorption isotherm of Nitric oxide on [Zn(TCNQ-TCNQ)bpy]
DOI: 10.1038/Nchem.684
Adsorbate Nitric oxide: InChIKey MWUXSHHQAYIFBG-UHFFFAOYSA-N
Temperature: 121 K
Tabular data in the source: 0
pressure (bar)	uptake (cm3(STP)/g)
0.00831703	1.42857
0.0366179	2.14286
0.0565899	3.57143
0.0715788	2.85714
0.0948807	4.28571
0.111523	5.71429
0.126472	12.1429
0.138091	18.5714
0.143054	24.2857
0.144684	30.7143
0.14795	42.1429
0.147994	34.2857
0.152854	58.5714
0.154575	48.5714
0.156101	73.5714
0.156133	67.8571
0.157572	108.571
0.157714	82.8571
0.162372	143.571
0.167189	175.714
0.175347	205.714
0.180227	226.429
0.1935	235
0.2001	245.714
0.211704	255
0.244972	260.714
0.273237	267.857
0.3115	273.571
0.343103	279.286
0.376387	282.143
0.409671	285
0.441302	285.714
0.467938	286.429
0.497892	289.286
0.524524	290.714
0.579449	294.286
0.609411	295.714
0.636043	297.143
0.666009	297.857
0.720929	302.143
0.745888	305
0.777519	305.714
0.802482	307.857
0.82911	310
0.859068	312.143
0.882358	315.714
0.910639	320
0.933922	325
0.953846	335
