Adsorption isotherm of Carbon monoxide on [Zn(TCNQ-TCNQ)bpy]
DOI: 10.1038/Nchem.684
Adsorbate Carbon monoxide: InChIKey UGFAIRIUMAVXCW-UHFFFAOYSA-N
Temperature: 77 K
Tabular data in the source: 0
pressure (bar)	uptake (cm3(STP)/g)
0.093753	0.714286
0.238738	5.68e-14
0.266768	5.68e-14
0.295762	0.714286
0.323794	5.68e-14
0.324758	0.714286
0.353755	0.714286
0.384687	5.68e-14
0.411748	0.714286
0.43978	5.68e-14
0.468774	0.714286
0.497771	0.714286
0.525801	0.714286
0.55479	2.85714
0.565422	2.85714
0.576047	5
