Adsorption isotherm of Argon on [Zn(TCNQ-TCNQ)bpy]
DOI: 10.1038/Nchem.684
Adsorbate Argon: InChIKey XKRFYHLGVUSROY-UHFFFAOYSA-N
Temperature: 87 K
Tabular data in the source: 0
pressure (bar)	uptake (cm3(STP)/g)
0.0936851	1.42857
0.119985	1.42857
0.177512	2.14286
0.231755	2.14286
0.26299	1.42857
0.346813	2.85714
0.374756	2.85714
0.404343	2.85714
0.430643	2.85714
0.458583	3.57143
0.488166	4.28571
0.516109	4.28571
0.542409	4.28571
0.570349	5
0.599932	5.71429
0.626232	5.71429
0.654175	5.71429
0.682115	6.42857
0.711698	7.14286
0.737994	7.85714
0.764294	7.85714
0.792233	8.57143
0.820169	10
0.848113	10
0.874405	11.4286
0.902336	13.5714
0.926981	15.7143
0.953253	20.7143
