Adsorption isotherm of Nitrogen on CAU-10-5-CH3
DOI: 10.1007/s10450-020-00282-9
Article source: Figure 4
Adsorbate Nitrogen: InChIKey IJGRMHOSHXDMSA-UHFFFAOYSA-N
Kind: experiment
Temperature: 77 K
Tabular data in the source: 0
pressure (bar)	uptake (cm3(STP)/g)
0.01019	8.81993
0.012772	11.7974
0.022091	14.755
0.031577	19.2047
0.049545	19.1518
0.072171	20.5776
0.092552	22.0101
0.11709	20.4453
0.168747	20.2931
0.220738	23.125
0.265992	25.9768
0.317146	21.3485
0.367562	30.1552
0.416637	27.0255
0.457064	26.9064
0.520453	31.1973
0.570366	35.5278
0.623933	32.385
0.673343	32.2394
0.720843	35.0845
0.777327	37.9032
0.829151	39.2431
0.879734	49.5418
0.927737	56.8631
0.975337	80.6034
1.06236	495.272
