Adsorption isotherm of Nitrogen on CAU-10-3,5-pydc
DOI: 10.1007/s10450-020-00282-9
Article source: Figure 4
Adsorbate Nitrogen: InChIKey IJGRMHOSHXDMSA-UHFFFAOYSA-N
Kind: experiment
Temperature: 77 K
Tabular data in the source: 0
pressure (bar)	uptake (cm3(STP)/g)
0.032181	144.576
0.036941	166.95
0.044349	172.898
0.051757	178.847
0.05883	181.811
0.077468	187.726
0.095771	190.657
0.132543	198.012
0.187284	205.313
0.237532	212.628
0.291435	212.469
0.332699	219.81
0.388848	219.645
0.43618	220.998
0.495077	225.302
0.540163	226.662
0.587328	226.523
0.641398	227.856
0.691143	230.694
0.749705	232.014
0.788221	234.886
0.844705	237.705
0.894283	239.051
0.949023	246.353
0.994445	250.696
1.04137	268.469
