Adsorption isotherm of Nitrogen on MIL-53-TDC
DOI: 10.1007/s10450-020-00282-9
Article source: Figure 5d
Adsorbate Nitrogen: InChIKey IJGRMHOSHXDMSA-UHFFFAOYSA-N
Kind: experiment
Temperature: 298 K
Tabular data in the source: 0
pressure (bar)	uptake (mmol/g)
0.028213	0.005298
0.047597	0.006623
0.058421	0.009934
0.071367	0.011921
0.101531	0.01457
0.116613	0.015894
0.136025	0.018543
0.155494	0.023841
0.179235	0.027815
0.226803	0.039735
0.308851	0.054967
0.414612	0.072848
0.506388	0.090397
0.600313	0.107947
0.701716	0.123179
0.809585	0.139073
0.902442	0.156954
0.999487	0.169536
