Adsorption isotherm of Nitrogen on MIL-53-TDC
DOI: 10.1007/s10450-020-00282-9
Article source: Figure S6
Adsorbate Nitrogen: InChIKey IJGRMHOSHXDMSA-UHFFFAOYSA-N
Kind: experiment
Temperature: 77 K
Tabular data in the source: 0
pressure (bar)	uptake (cm3(STP)/g)
0.007263	242.594
0.011667	255.687
0.0396	270.305
0.051344	271.888
0.072477	275.064
0.098285	279.857
0.124092	284.649
0.157047	286.129
0.166435	287.723
0.253708	284.02
0.291222	292.035
0.352457	293.377
0.394761	298.09
0.451166	304.373
0.510199	299.169
0.554937	300.591
0.594845	306.955
0.665507	308.251
0.696066	311.381
0.764332	314.329
0.818497	315.705
0.865437	323.674
0.902873	334.968
0.951861	356.041
0.98524	439.486
