Adsorption isotherm of Methane on CAU-10-5-H
DOI: 10.1007/s10450-020-00282-9
Article source: Figure 5c
Adsorbate Methane: InChIKey VNWKTOKETHGBQD-UHFFFAOYSA-N
Kind: experiment
Temperature: 298 K
Tabular data in the source: 0
pressure (bar)	uptake (mmol/g)
0.023772	0.024862
0.02594	0.033149
0.032372	0.041436
0.038792	0.046961
0.049488	0.055249
0.060196	0.066298
0.075204	0.085635
0.081624	0.09116
0.096609	0.104972
0.105161	0.110497
0.115869	0.121547
0.210227	0.248619
0.30878	0.359116
0.411608	0.472376
0.514378	0.571823
0.62147	0.685083
0.70075	0.776243
0.811978	0.859116
0.908304	0.947514
1.01528	1.03315
