Adsorption isotherm of Methane on CAU-10-3,5-pydc
DOI: 10.1007/s10450-020-00282-9
Article source: Figure 6b
Adsorbate Methane: InChIKey VNWKTOKETHGBQD-UHFFFAOYSA-N
Kind: experiment
Temperature: 298 K
Tabular data in the source: 0
pressure (bar)	uptake (mmol/g)
0.027511	0.034977
0.048385	0.048402
0.069292	0.067174
0.09434	0.083284
0.117277	0.09404
0.140229	0.107471
0.213296	0.155794
0.307336	0.233586
0.420038	0.303406
0.511832	0.354454
0.607835	0.413534
0.703854	0.475288
0.803965	0.526358
0.904075	0.577427
1.01252	0.631193
