Adsorption isotherm of Nitrogen on CAU-10-5-NH2
DOI: 10.1007/s10450-020-00282-9
Article source: Figure 5d
Adsorbate Nitrogen: InChIKey IJGRMHOSHXDMSA-UHFFFAOYSA-N
Kind: experiment
Temperature: 298 K
Tabular data in the source: 0
pressure (bar)	uptake (mmol/g)
0.019697	0.009272
0.039066	0.009934
0.051997	0.011258
0.064901	0.011258
0.086435	0.012583
0.105818	0.013907
0.125258	0.017881
0.157687	0.025828
0.205227	0.036424
0.302442	0.056954
0.403945	0.076821
0.507555	0.094702
0.608972	0.110596
0.703952	0.127152
0.80319	0.141722
0.911087	0.15894
1.00612	0.178146
