Adsorption isotherm of Nitrogen on CAU-10-3,5-pydc
DOI: 10.1007/s10450-020-00282-9
Article source: Figure S6
Adsorbate Nitrogen: InChIKey IJGRMHOSHXDMSA-UHFFFAOYSA-N
Kind: experiment
Temperature: 77 K
Tabular data in the source: 0
pressure (bar)	uptake (cm3(STP)/g)
0.011822	149.129
0.011281	172.082
0.011049	181.919
0.011011	183.559
0.020244	191.711
0.029555	196.584
0.050572	204.678
0.062278	207.9
0.114008	212.567
0.151638	215.663
0.201089	217.063
0.248068	223.392
0.313977	226.351
0.361033	229.401
0.384407	237.484
0.457463	237.13
0.504713	231.982
0.558877	233.359
0.605933	236.409
0.648315	237.843
0.707077	244.115
0.742427	243.943
0.791839	246.982
0.843647	248.37
0.895378	253.037
0.951668	264.239
0.99401	267.312
