Adsorption isotherm of Carbon Dioxide on CAU-10-5-CH3
DOI: 10.1007/s10450-020-00282-9
Article source: Figure 5b
Adsorbate Carbon Dioxide: InChIKey CURLTUGMZLYLDI-UHFFFAOYSA-N
Kind: experiment
Temperature: 298 K
Tabular data in the source: 0
pressure (bar)	uptake (mmol/g)
0.018358	0.011364
0.026642	0.068182
0.0392	0.090909
0.053834	0.125
0.060089	0.147727
0.064219	0.181818
0.074651	0.215909
0.082959	0.261364
0.095493	0.295455
0.099647	0.318182
0.105878	0.352273
0.197718	0.636364
0.302258	0.875
0.396414	1.05682
0.4947	1.27273
0.597355	1.40909
0.697837	1.57955
0.790035	1.69318
0.882114	1.86364
0.995297	1.98864
