Adsorption isotherm of Nitrogen on CAU-10-5-NO2
DOI: 10.1007/s10450-020-00282-9
Article source: Figure 5d
Adsorbate Nitrogen: InChIKey IJGRMHOSHXDMSA-UHFFFAOYSA-N
Kind: experiment
Temperature: 298 K
Tabular data in the source: 0
pressure (bar)	uptake (mmol/g)
0.021804	0.007285
0.041174	0.007947
0.054091	0.008609
0.077761	0.009272
0.097144	0.010596
0.114406	0.013245
0.129531	0.016556
0.153258	0.019868
0.209371	0.029139
0.300093	0.047682
0.409998	0.058278
0.509165	0.069536
0.610539	0.083444
0.696817	0.095364
0.80883	0.103974
0.901559	0.115894
1.00496	0.123841
