Adsorption isotherm of Carbon Dioxide on CAU-10-5-NO2
DOI: 10.1007/s10450-020-00282-9
Article source: Figure 5b
Adsorbate Carbon Dioxide: InChIKey CURLTUGMZLYLDI-UHFFFAOYSA-N
Kind: experiment
Temperature: 298 K
Tabular data in the source: 0
pressure (bar)	uptake (mmol/g)
0.014061	0.056818
0.026595	0.090909
0.047484	0.147727
0.060017	0.181818
0.074604	0.238636
0.089214	0.284091
0.107978	0.352273
0.118363	0.409091
0.130873	0.454545
0.2018	0.693182
0.300038	0.931818
0.389968	1.125
0.496849	1.25
0.589047	1.36364
0.695927	1.48864
0.788197	1.56818
0.899351	1.65909
0.985318	1.73864
