Adsorption isotherm of Nitrogen on CAU-10-5-H
DOI: 10.1007/s10450-020-00282-9
Article source: Figure 5d
Adsorbate Nitrogen: InChIKey IJGRMHOSHXDMSA-UHFFFAOYSA-N
Kind: experiment
Temperature: 298 K
Tabular data in the source: 0
pressure (bar)	uptake (mmol/g)
0.028342	0.011258
0.036958	0.011921
0.043438	0.013245
0.045589	0.013245
0.062836	0.015232
0.077904	0.015894
0.092986	0.017219
0.112383	0.019205
0.125344	0.021854
0.209613	0.040397
0.302542	0.061589
0.397579	0.080795
0.501275	0.102649
0.613444	0.118543
0.704137	0.135762
0.809827	0.150331
0.907043	0.170861
1.01286	0.191391
