Adsorption isotherm of Carbon Dioxide on CAU-10-5-H
DOI: 10.1007/s10450-020-00282-9
Article source: Figure 5b
Adsorbate Carbon Dioxide: InChIKey CURLTUGMZLYLDI-UHFFFAOYSA-N
Kind: experiment
Temperature: 298 K
Tabular data in the source: 0
pressure (bar)	uptake (mmol/g)
0.01196	0.056818
0.018191	0.090909
0.022298	0.136364
0.030582	0.193182
0.043043	0.261364
0.051399	0.284091
0.061808	0.329545
0.065938	0.363636
0.0805	0.431818
0.09301	0.477273
0.109745	0.511364
0.196954	1
0.301017	1.46591
0.398873	1.88636
0.496944	2.20455
0.592962	2.5
0.695259	2.80682
0.787147	3.06818
0.891759	3.27273
0.992098	3.51136
