Adsorption isotherm of Nitrogen on CAU-10-2,4-pydc
DOI: 10.1007/s10450-020-00282-9
Article source: Figure S5
Adsorbate Nitrogen: InChIKey IJGRMHOSHXDMSA-UHFFFAOYSA-N
Kind: experiment
Temperature: 77 K
Tabular data in the source: 0
pressure (bar)	uptake (cm3(STP)/g)
0.006657	3.10204
0.01674	3.08649
0.039427	3.05151
0.049629	1.47327
0.059712	1.45773
0.102566	1.39164
0.152864	2.87658
0.208322	2.79106
0.25346	5.84645
0.301356	5.77259
0.356814	5.68708
0.389466	7.19922
0.442403	7.11759
0.513222	3.88338
0.553556	3.82119
0.59893	3.75121
0.649347	3.67347
0.712367	3.57629
0.757623	5.069
0.802998	4.99903
0.858456	4.91351
0.93156	4.80078
0.974414	4.73469
0.998913	14.0719
