Adsorption isotherm of Methane on MIL-160
DOI: 10.1007/s10450-020-00282-9
Article source: Figure 5c
Adsorbate Methane: InChIKey VNWKTOKETHGBQD-UHFFFAOYSA-N
Kind: experiment
Temperature: 298 K
Tabular data in the source: 0
pressure (bar)	uptake (mmol/g)
0.028013	0.019337
0.038698	0.024862
0.04513	0.033149
0.055849	0.046961
0.068678	0.055249
0.081518	0.066298
0.096491	0.077348
0.113595	0.088398
0.128556	0.096685
0.201286	0.151934
0.310346	0.226519
0.40454	0.314917
0.50718	0.383978
0.618372	0.458564
0.708219	0.527624
0.815135	0.599448
0.909211	0.660221
1.00332	0.729282
