Adsorption isotherm of Methane on MIL-53-TDC
DOI: 10.1007/s10450-020-00282-9
Article source: Figure 5c
Adsorbate Methane: InChIKey VNWKTOKETHGBQD-UHFFFAOYSA-N
Kind: experiment
Temperature: 298 K
Tabular data in the source: 0
pressure (bar)	uptake (mmol/g)
0.028001	0.016575
0.034421	0.022099
0.045106	0.027624
0.055814	0.038674
0.066534	0.052486
0.075086	0.058011
0.087927	0.069061
0.109307	0.082873
0.124304	0.099448
0.124315	0.10221
0.205657	0.176796
0.308403	0.270718
0.406884	0.364641
0.509583	0.447514
0.60373	0.524862
0.708561	0.607735
0.809104	0.685083
0.899009	0.767956
1.00376	0.831492
