Adsorption isotherm of Carbon Dioxide on NOTT-300
DOI: 10.1007/s10450-020-00282-9
Article source: Figure 5b
Adsorbate Carbon Dioxide: InChIKey CURLTUGMZLYLDI-UHFFFAOYSA-N
Kind: experiment
Temperature: 298 K
Tabular data in the source: 0
pressure (bar)	uptake (mmol/g)
0.018311	0.034091
0.026619	0.079545
0.039128	0.125
0.047484	0.147727
0.062046	0.215909
0.070378	0.25
0.080811	0.284091
0.093225	0.375
0.095302	0.386364
0.099408	0.431818
0.201514	0.829545
0.30159	1.19318
0.395268	1.60227
0.491167	1.95455
0.593344	2.31818
0.693564	2.61364
0.785404	2.89773
0.885719	3.14773
0.986058	3.38636
