Adsorption isotherm of Methane on CAU-10-2,4-pydc
DOI: 10.1007/s10450-020-00282-9
Article source: Figure 6b
Adsorbate Methane: InChIKey VNWKTOKETHGBQD-UHFFFAOYSA-N
Kind: experiment
Temperature: 298 K
Tabular data in the source: 0
pressure (bar)	uptake (mmol/g)
0.021091	0.005548
0.050197	0.005626
0.062671	0.005659
0.077225	0.005698
0.097965	0.002268
0.118772	0.000461
0.226949	0.011446
0.308064	0.01701
0.412016	0.017288
0.499369	0.022869
0.62619	0.023208
0.705177	0.020746
0.819507	0.018378
0.904731	0.015932
1.00248	0.021541
