Adsorption isotherm of Nitrogen on CAU-10-5-NO2
DOI: 10.1007/s10450-020-00282-9
Article source: Figure S5
Adsorbate Nitrogen: InChIKey IJGRMHOSHXDMSA-UHFFFAOYSA-N
Kind: experiment
Temperature: 77 K
Tabular data in the source: 0
pressure (bar)	uptake (cm3(STP)/g)
0.003742	74.9815
-0.002127	85.9281
0.004727	95.2925
0.021781	103.079
0.031747	104.626
0.046517	109.291
0.094412	109.217
0.14219	110.706
0.199341	121.555
0.24448	124.61
0.286979	129.232
0.349763	132.26
0.392499	133.757
0.442206	143.055
0.492504	144.54
0.544969	150.709
0.602475	156.871
0.662857	158.34
0.712328	170.764
0.756875	181.633
0.796617	189.384
0.845734	206.496
0.91742	225.135
0.954602	300.078
0.978864	412.54
