Adsorption isotherm of Nitrogen on NOTT-300
DOI: 10.1007/s10450-020-00282-9
Article source: Figure 5d
Adsorbate Nitrogen: InChIKey IJGRMHOSHXDMSA-UHFFFAOYSA-N
Kind: experiment
Temperature: 298 K
Tabular data in the source: 0
pressure (bar)	uptake (mmol/g)
0.030321	0.003311
0.041102	0.004636
0.049719	0.005298
0.060486	0.00596
0.077733	0.007947
0.094965	0.009272
0.105732	0.009934
0.120786	0.009934
0.198547	0.025828
0.299865	0.037086
0.396995	0.053642
0.506943	0.066225
0.608275	0.078146
0.703155	0.090066
0.800128	0.099338
0.908025	0.116556
1.00084	0.13245
