Adsorption isotherm of Carbon Dioxide on CAU-10-3,5-pydc
DOI: 10.1007/s10450-020-00282-9
Article source: Figure 6a
Adsorbate Carbon Dioxide: InChIKey CURLTUGMZLYLDI-UHFFFAOYSA-N
Kind: experiment
Temperature: 298 K
Tabular data in the source: 0
pressure (bar)	uptake (mmol/g)
0.013946	0.046356
0.025139	0.116813
0.034047	0.152002
0.054095	0.234119
0.069781	0.339817
0.076508	0.386797
0.085467	0.445515
0.092193	0.492495
0.116735	0.609853
0.123435	0.645068
0.208253	1.0676
0.310653	1.45463
0.401963	1.81826
0.506285	2.07586
0.603932	2.31
0.705916	2.5088
0.803407	2.67236
0.909599	2.777
0.998338	2.97595
