Adsorption isotherm of Methane on CAU-10-4-OH
DOI: 10.1007/s10450-020-00282-9
Article source: Figure S2
Adsorbate Methane: InChIKey VNWKTOKETHGBQD-UHFFFAOYSA-N
Kind: experiment
Temperature: 298 K
Tabular data in the source: 0
pressure (bar)	uptake (mmol/g)
0.034509	0
0.036756	0
0.059744	0.004598
0.066486	0.004598
0.089216	0.006897
0.105205	0.009195
0.116699	0.011494
0.215911	0.034483
0.323466	0.051724
0.424151	0.067816
0.531189	0.08046
0.629885	0.098851
0.730182	0.111494
0.819889	0.129885
0.92295	0.147126
1.02325	0.15977
