Adsorption isotherm of Nitrogen on CAU-10-5-H
DOI: 10.1007/s10450-020-00282-9
Article source: Figure 4
Adsorbate Nitrogen: InChIKey IJGRMHOSHXDMSA-UHFFFAOYSA-N
Kind: experiment
Temperature: 77 K
Tabular data in the source: 0
pressure (bar)	uptake (cm3(STP)/g)
0.023498	107.288
0.02675	116.234
0.026918	117.726
0.029499	120.703
0.036907	126.652
0.041902	131.115
0.053634	135.558
0.063121	140.007
0.07244	142.965
0.094899	142.899
0.108542	144.351
0.12651	144.298
0.146723	144.239
0.155874	145.704
0.182993	147.117
0.228247	149.969
0.27092	149.843
0.336052	149.651
0.381305	152.503
0.424313	155.361
0.496015	153.657
0.525715	158.047
0.579953	160.873
0.640928	163.678
0.698652	157.538
0.736833	157.425
0.788825	160.257
0.840481	160.105
0.887813	161.458
0.954286	173.203
0.984321	180.577
1.03216	186.406
