Adsorption isotherm of Methane on CAU-10-5-NH2
DOI: 10.1007/s10450-020-00282-9
Article source: Figure 5c
Adsorbate Methane: InChIKey VNWKTOKETHGBQD-UHFFFAOYSA-N
Kind: experiment
Temperature: 298 K
Tabular data in the source: 0
pressure (bar)	uptake (mmol/g)
0.025869	0.016575
0.036577	0.027624
0.047321	0.046961
0.064425	0.058011
0.075133	0.069061
0.087985	0.082873
0.102982	0.099448
0.117966	0.11326
0.130841	0.132597
0.201534	0.209945
0.302159	0.30663
0.411337	0.40884
0.496943	0.483425
0.608135	0.558011
0.702258	0.629834
0.804898	0.698895
0.899009	0.767956
1.00375	0.828729
