Adsorption isotherm of Nitrogen on MIL-160
DOI: 10.1007/s10450-020-00282-9
Article source: Figure S6
Adsorbate Nitrogen: InChIKey IJGRMHOSHXDMSA-UHFFFAOYSA-N
Kind: experiment
Temperature: 77 K
Tabular data in the source: 0
pressure (bar)	uptake (cm3(STP)/g)
0.01159	258.966
0.028087	258.886
0.04694	258.794
0.072902	257.029
0.113043	253.555
0.157703	258.257
0.20248	258.039
0.258963	261.044
0.308298	267.362
0.355431	267.133
0.398006	260.369
0.447457	261.768
0.489723	268.121
0.553391	266.172
0.591098	265.989
0.640588	265.749
0.680613	267.194
0.76553	263.503
0.800841	264.971
0.852649	266.359
0.906814	267.736
0.949466	257.692
0.982304	264.09
