Adsorption isotherm of Methane on CAU-10-5-CH3
DOI: 10.1007/s10450-020-00282-9
Article source: Figure 5c
Adsorbate Methane: InChIKey VNWKTOKETHGBQD-UHFFFAOYSA-N
Kind: experiment
Temperature: 298 K
Tabular data in the source: 0
pressure (bar)	uptake (mmol/g)
0.032289	0.022099
0.047285	0.038674
0.049429	0.041436
0.062305	0.060773
0.068725	0.066298
0.083698	0.077348
0.100826	0.093923
0.11151	0.099448
0.115798	0.104972
0.203737	0.226519
0.31295	0.337017
0.419948	0.428177
0.511963	0.505525
0.606121	0.585635
0.708808	0.665746
0.796499	0.729282
0.89491	0.80663
1.00615	0.892265
