Adsorption isotherm of Nitrogen on CAU-10-5-CH3
DOI: 10.1007/s10450-020-00282-9
Article source: Figure 5d
Adsorbate Nitrogen: InChIKey IJGRMHOSHXDMSA-UHFFFAOYSA-N
Kind: experiment
Temperature: 298 K
Tabular data in the source: 0
pressure (bar)	uptake (mmol/g)
0.024097	0.013907
0.032657	0.011921
0.049932	0.015232
0.067165	0.016556
0.084412	0.018543
0.11029	0.021854
0.127565	0.025166
0.149185	0.030464
0.209756	0.04702
0.298497	0.07351
0.406551	0.098013
0.516727	0.121192
0.615994	0.137086
0.70465	0.159603
0.806124	0.178146
0.901246	0.201325
1.0007	0.225828
