Adsorption isotherm of Nitrogen on CAU-10-5-F
DOI: 10.1007/s10450-020-00282-9
Article source: Figure S5
Adsorbate Nitrogen: InChIKey IJGRMHOSHXDMSA-UHFFFAOYSA-N
Kind: experiment
Temperature: 77 K
Tabular data in the source: 0
pressure (bar)	uptake (cm3(STP)/g)
-0.012604	157.819
-0.005869	168.746
0.003387	179.67
0.015519	185.901
0.040018	195.238
0.054907	198.34
0.094412	209.217
0.143765	223.203
0.188786	227.821
0.235618	241.811
0.28304	247.988
0.335505	254.157
0.387851	261.889
0.444885	274.301
0.492426	278.915
0.542251	286.651
0.602278	292.809
0.644659	298.993
0.694603	305.166
0.749707	309.769
0.797248	314.383
0.872281	322.08
0.891857	329.862
0.937626	357.916
0.977762	393.792
