Adsorption isotherm of Methane on NOTT-300
DOI: 10.1007/s10450-020-00282-9
Article source: Figure 5c
Adsorbate Methane: InChIKey VNWKTOKETHGBQD-UHFFFAOYSA-N
Kind: experiment
Temperature: 298 K
Tabular data in the source: 0
pressure (bar)	uptake (mmol/g)
0.023702	0.008287
0.03865	0.013812
0.055767	0.027624
0.064331	0.035912
0.083568	0.046961
0.09	0.055249
0.107105	0.066298
0.115645	0.069061
0.207553	0.121547
0.312302	0.185083
0.408522	0.248619
0.504671	0.29558
0.60519	0.367403
0.70776	0.41989
0.810352	0.477901
0.91291	0.527624
1.01123	0.582873
