Adsorption isotherm of Carbon Dioxide on CAU-10-2,4-pydc
DOI: 10.1007/s10450-020-00282-9
Article source: Figure 6a
Adsorbate Carbon Dioxide: InChIKey CURLTUGMZLYLDI-UHFFFAOYSA-N
Kind: experiment
Temperature: 298 K
Tabular data in the source: 0
pressure (bar)	uptake (mmol/g)
0.016023	0.012492
0.035891	0.012725
0.04472	0.012829
0.057965	0.012985
0.066795	0.013089
0.086636	0.025087
0.097647	0.036981
0.108749	0.0077
0.208175	0.032307
0.311951	0.04285
0.40695	0.077027
0.501792	0.040617
0.601153	0.051213
0.704955	0.073521
0.80655	0.095855
0.903677	0.094713
1.0074	0.081728
