Adsorption isotherm of Methane on CAU-10-5-NO2
DOI: 10.1007/s10450-020-00282-9
Article source: Figure 5c
Adsorbate Methane: InChIKey VNWKTOKETHGBQD-UHFFFAOYSA-N
Kind: experiment
Temperature: 298 K
Tabular data in the source: 0
pressure (bar)	uptake (mmol/g)
0.032289	0.022099
0.038698	0.024862
0.04937	0.027624
0.066499	0.044199
0.081448	0.049724
0.098552	0.060773
0.109249	0.069061
0.119945	0.077348
0.128497	0.082873
0.205539	0.149171
0.314517	0.20442
0.402184	0.262431
0.500501	0.31768
0.60512	0.350829
0.709715	0.378453
0.801564	0.417127
0.901884	0.441989
1.00861	0.469613
