Adsorption isotherm of Nitrogen on CAU-10-4-OH
DOI: 10.1007/s10450-020-00282-9
Article source: Figure S2
Adsorbate Nitrogen: InChIKey IJGRMHOSHXDMSA-UHFFFAOYSA-N
Kind: experiment
Temperature: 298 K
Tabular data in the source: 0
pressure (bar)	uptake (mmol/g)
0.034379	-0.001149
0.045615	-0.001149
0.069947	-0.004598
0.101149	-0.006897
0.116751	-0.008046
0.238099	-0.008046
0.317267	-0.003448
0.42038	-0.005747
0.509182	0.004598
0.621025	0
0.707323	0.008046
0.810435	0.005747
0.914581	0.012644
1.00749	0.01954
