Adsorption isotherm of Carbon Dioxide on CAU-10-4-NO2
DOI: 10.1007/s10450-020-00282-9
Article source: Figure 6a
Adsorbate Carbon Dioxide: InChIKey CURLTUGMZLYLDI-UHFFFAOYSA-N
Kind: experiment
Temperature: 298 K
Tabular data in the source: 0
pressure (bar)	uptake (mmol/g)
0.016075	0.011037
0.020724	0.116865
0.029658	0.163819
0.043058	0.234249
0.052018	0.292967
0.06547	0.386927
0.072171	0.422142
0.092271	0.527788
0.098972	0.563003
0.112346	0.621669
0.208123	1.00878
0.328235	1.41913
0.414896	1.67693
0.508129	1.91113
0.610087	2.09817
0.707578	2.26172
0.805069	2.42528
0.906898	2.5535
1.00421	2.63471
