Adsorption isotherm of Nitrogen on MIL-160
DOI: 10.1007/s10450-020-00282-9
Article source: Figure 5d
Adsorbate Nitrogen: InChIKey IJGRMHOSHXDMSA-UHFFFAOYSA-N
Kind: experiment
Temperature: 298 K
Tabular data in the source: 0
pressure (bar)	uptake (mmol/g)
0.030407	0.007285
0.034708	0.007285
0.051912	0.007285
0.062665	0.007285
0.08202	0.007285
0.116542	0.012583
0.138119	0.015894
0.155408	0.019868
0.172698	0.023841
0.192124	0.027152
0.205084	0.029801
0.304379	0.04702
0.418742	0.064901
0.500847	0.082781
0.606608	0.100662
0.703795	0.119868
0.803048	0.135099
0.908837	0.154305
1.00605	0.174834
