Adsorption isotherm of Nitrogen on CAU-10-4-NO2
DOI: 10.1007/s10450-020-00282-9
Article source: Figure S5
Adsorbate Nitrogen: InChIKey IJGRMHOSHXDMSA-UHFFFAOYSA-N
Kind: experiment
Temperature: 77 K
Tabular data in the source: 0
pressure (bar)	uptake (cm3(STP)/g)
-0.00319	99.9922
0.008941	106.224
0.026114	112.447
0.035961	115.557
0.063454	118.639
0.09071	124.847
0.138133	131.024
0.188431	132.509
0.243534	137.112
0.287728	152.669
0.35831	152.56
0.406088	154.049
0.440788	161.808
0.485809	166.426
0.538982	163.219
0.583766	170.962
0.648834	177.112
0.703583	186.402
0.748486	192.583
0.78295	203.467
0.838171	206.507
0.940107	225.1
0.978077	256.292
