Adsorption isotherm of Carbon Dioxide on MIL-53-TDC
DOI: 10.1007/s10450-020-00282-9
Article source: Figure 5b
Adsorbate Carbon Dioxide: InChIKey CURLTUGMZLYLDI-UHFFFAOYSA-N
Kind: experiment
Temperature: 298 K
Tabular data in the source: 0
pressure (bar)	uptake (mmol/g)
0.014085	0.045455
0.022321	0.125
0.040966	0.25
0.043019	0.272727
0.053404	0.329545
0.061641	0.409091
0.071978	0.488636
0.088593	0.579545
0.101055	0.647727
0.111488	0.681818
0.196333	1.29545
0.304622	1.75
0.400425	2.14773
0.492193	2.46591
0.598811	2.71591
0.694972	2.94318
0.793306	3.13636
0.896008	3.25
0.992408	3.36364
