Adsorption isotherm of Nitrogen on NOTT-300
DOI: 10.1007/s10450-020-00282-9
Article source: Figure S6
Adsorbate Nitrogen: InChIKey IJGRMHOSHXDMSA-UHFFFAOYSA-N
Kind: experiment
Temperature: 77 K
Tabular data in the source: 0
pressure (bar)	uptake (cm3(STP)/g)
0.005177	231.128
0.011976	242.571
0.023489	253.99
0.032723	262.142
0.05374	270.237
0.088896	278.263
0.117138	279.765
0.173621	282.77
0.206498	287.528
0.27233	293.766
0.321627	301.723
0.375676	308.018
0.411103	304.568
0.470135	299.363
0.505408	302.471
0.56869	316.918
0.630002	314.981
0.679338	321.299
0.768736	327.422
0.806173	338.716
0.855469	346.673
0.916627	351.294
0.960824	375.67
0.981957	478.846
