Adsorption isotherm of Methane on CAU-10-4-NO2
DOI: 10.1007/s10450-020-00282-9
Article source: Figure 6b
Adsorbate Methane: InChIKey VNWKTOKETHGBQD-UHFFFAOYSA-N
Kind: experiment
Temperature: 298 K
Tabular data in the source: 0
pressure (bar)	uptake (mmol/g)
0.02959	0.034982
0.054672	0.05644
0.07345	0.067185
0.08807	0.077919
0.096403	0.080615
0.106848	0.088665
0.115198	0.094035
0.205247	0.198554
0.307686	0.289737
0.416263	0.364893
0.499842	0.431962
0.606306	0.501765
0.708546	0.560862
0.812798	0.609269
0.906721	0.668344
1.00889	0.716745
