Adsorption isotherm of Carbon Dioxide on CAU-10-5-NH2
DOI: 10.1007/s10450-020-00282-9
Article source: Figure 5b
Adsorbate Carbon Dioxide: InChIKey CURLTUGMZLYLDI-UHFFFAOYSA-N
Kind: experiment
Temperature: 298 K
Tabular data in the source: 0
pressure (bar)	uptake (mmol/g)
0.01196	0.056818
0.018215	0.079545
0.0286	0.136364
0.040966	0.25
0.04715	0.306818
0.061569	0.443182
0.0678	0.477273
0.080309	0.522727
0.086516	0.568182
0.094824	0.613636
0.109363	0.693182
0.196787	1.07955
0.296815	1.46591
0.399255	1.70455
0.495464	1.90909
0.589668	2.06818
0.694328	2.25
0.788579	2.38636
0.893454	2.46591
0.987634	2.63636
