Adsorption isotherm of Nitrogen on CAU-10-5-OH
DOI: 10.1007/s10450-020-00282-9
Article source: Figure 4
Adsorbate Nitrogen: InChIKey IJGRMHOSHXDMSA-UHFFFAOYSA-N
Kind: experiment
Temperature: 77 K
Tabular data in the source: 0
pressure (bar)	uptake (cm3(STP)/g)
0.02142	8.78685
0.023498	7.28819
0.036974	7.24849
0.057355	8.68098
0.066339	8.65451
0.075322	8.62805
0.114006	12.9917
0.154433	12.8726
0.205754	9.73633
0.260159	14.0537
0.302832	13.9279
0.365718	13.7427
0.424615	18.0468
0.465209	19.4197
0.514787	20.7662
0.572846	17.6101
0.620514	21.9473
0.665265	20.3229
0.714675	20.1773
0.771662	27.4721
0.814334	27.3464
0.875142	28.6598
0.922809	32.997
0.970309	35.8421
1.01707	52.1223
