Adsorption isotherm of Carbon Dioxide on CAU-10-4-OH
DOI: 10.1007/s10450-020-00282-9
Article source: Figure S2
Adsorbate Carbon Dioxide: InChIKey CURLTUGMZLYLDI-UHFFFAOYSA-N
Kind: experiment
Temperature: 298 K
Tabular data in the source: 0
pressure (bar)	uptake (mmol/g)
0.039261	0.002299
0.042283	0.009195
0.05153	0.011494
0.072401	0.017241
0.093271	0.022989
0.104766	0.025287
0.125765	0.032184
0.222859	0.056322
0.320083	0.081609
0.433036	0.106897
0.528529	0.136782
0.639106	0.16092
0.734599	0.190805
0.838176	0.212644
0.9424	0.24023
1.0334	0.270115
