Adsorption isotherm of Nitrogen on CAU-10-5-NH2
DOI: 10.1007/s10450-020-00282-9
Article source: Figure 4
Adsorbate Nitrogen: InChIKey IJGRMHOSHXDMSA-UHFFFAOYSA-N
Kind: experiment
Temperature: 77 K
Tabular data in the source: 0
pressure (bar)	uptake (cm3(STP)/g)
0.010358	10.312
0.02675	16.2338
0.03865	22.1689
0.05645	20.6239
0.074082	17.5869
0.111358	29.4174
0.173909	26.2481
0.222079	35.0614
0.280306	33.3973
0.316408	34.7835
0.382043	39.0677
0.425554	46.4022
0.46598	46.2831
0.523704	40.1429
0.583104	48.9231
0.630939	54.7524
0.671198	53.1412
0.731503	49.9785
0.777092	55.8143
0.834983	51.1662
0.880572	57.002
0.934978	61.3194
0.977315	58.2095
1.02998	67.0096
