Adsorption isotherm of Carbon Dioxide on MIL-160
DOI: 10.1007/s10450-020-00282-9
Article source: Figure 5b
Adsorbate Carbon Dioxide: InChIKey CURLTUGMZLYLDI-UHFFFAOYSA-N
Kind: experiment
Temperature: 298 K
Tabular data in the source: 0
pressure (bar)	uptake (mmol/g)
0.014014	0.079545
0.013894	0.136364
0.022035	0.261364
0.021987	0.284091
0.034425	0.363636
0.044786	0.431818
0.059301	0.522727
0.067609	0.568182
0.075797	0.670455
0.081933	0.75
0.096448	0.840909
0.106856	0.886364
0.195808	1.54545
0.301829	2.07955
0.393311	2.53409
0.482859	2.90909
0.591578	3.15909
0.689816	3.39773
0.790202	3.61364
0.890804	3.72727
0.980734	3.92045
