Adsorption isotherm of Nitrogen on CuBTC
DOI: 10.1002/adma.201203664
Adsorbate Nitrogen: InChIKey IJGRMHOSHXDMSA-UHFFFAOYSA-N
Temperature: 77 K
Tabular data in the source: 0
pressure (bar)	uptake (cm3(STP)/g)
0.00837971	347.989
0.0193041	355.636
0.0389679	366.014
0.0542621	371.477
0.0826654	377.485
0.102329	381.855
0.128548	388.409
0.163506	392.233
0.196279	398.787
0.279304	406.981
0.338296	414.628
0.381993	418.451
0.412581	420.636
0.465018	426.098
0.504346	430.468
0.543674	434.838
0.580817	438.115
0.626699	443.031
0.659472	444.67
0.69006	447.401
0.720649	450.678
0.77964	455.048
0.812413	460.51
0.853926	463.241
0.880144	467.611
0.919472	473.073
0.952245	483.997
0.993758	533.703
