Adsorption isotherm of Nitrogen on CuBTC
DOI: 10.1002/adma.201203664
Adsorbate Nitrogen: InChIKey IJGRMHOSHXDMSA-UHFFFAOYSA-N
Temperature: 77 K
Tabular data in the source: 0
pressure (bar)	uptake (cm3(STP)/g)
0.00837971	412.443
0.0324133	423.913
0.0586318	434.292
0.0914049	443.031
0.126363	449.04
0.165691	455.594
0.26838	463.787
0.377623	467.065
0.469388	471.434
0.554598	476.35
0.648548	481.266
0.768716	486.182
0.87796	490.552
0.919472	494.922
0.960985	501.477
0.989388	530.426
