Adsorption isotherm of Nitrogen on CuBTC
DOI: 10.1002/adma.201203664
Adsorbate Nitrogen: InChIKey IJGRMHOSHXDMSA-UHFFFAOYSA-N
Temperature: 77 K
Tabular data in the source: 0
pressure (bar)	uptake (cm3(STP)/g)
0.0105646	318.493
0.0324133	327.233
0.0520772	335.972
0.0979595	342.527
0.165691	349.628
0.279304	358.913
0.316447	358.913
0.342665	361.098
0.386363	362.191
0.44317	366.561
0.469388	369.292
0.497791	374.208
0.556783	376.392
0.69443	381.855
0.786195	384.04
0.862665	386.771
0.886699	386.771
0.936951	390.594
0.960985	400.426
0.995943	435.93
