Adsorption isotherm of Nitrogen on CuBTC
DOI: 10.1002/adma.201203664
Adsorbate Nitrogen: InChIKey IJGRMHOSHXDMSA-UHFFFAOYSA-N
Temperature: 77 K
Tabular data in the source: 0
pressure (bar)	uptake (cm3(STP)/g)
0.00619484	318.493
0.0345982	328.325
0.0498923	335.426
0.100144	344.166
0.156951	350.72
0.224682	356.729
0.281489	360.552
0.34922	363.829
0.384178	365.468
0.410397	369.292
0.445354	371.477
0.465018	373.115
0.489052	383.493
0.508716	388.409
0.576447	388.956
0.692245	394.418
0.792749	397.695
0.847371	399.334
0.912918	402.611
0.943506	408.619
0.969724	418.451
0.985018	433.199
