Adsorption isotherm of Carbon Dioxide on [Ni(BPEB)]
DOI: 10.1039/C4ta01798f
Adsorbate Carbon Dioxide: InChIKey CURLTUGMZLYLDI-UHFFFAOYSA-N
Temperature: 195 K
Tabular data in the source: 0
pressure (bar)	uptake (cm3(STP)/g)
0.00562935	8.21056
0.00827308	19.1515
0.0137998	31.4635
0.0222781	42.4122
0.0307221	54.7281
0.0420834	67.0477
0.0476443	77.9926
0.0619228	90.3161
0.0703326	103.999
0.0845427	119.057
0.0930551	128.638
0.0986161	139.583
0.106992	154.633
0.112553	165.578
0.118148	175.156
0.132529	183.378
0.138158	191.589
0.146774	197.069
0.164139	202.56
0.175741	205.31
0.216411	212.2
0.260032	217.726
0.300737	223.249
0.335641	227.396
0.382283	228.825
0.414304	231.602
0.446325	234.378
0.487098	237.166
0.530788	239.959
0.577395	242.754
0.624003	245.55
0.670576	249.713
0.714266	252.505
0.755073	253.926
0.798797	255.351
0.845404	258.147
0.862908	258.17
0.87746	259.557
