Adsorption isotherm of Methane on [Zn(BPEB)]
DOI: 10.1039/C4ta01798f
Adsorbate Methane: InChIKey VNWKTOKETHGBQD-UHFFFAOYSA-N
Temperature: 273 K
Tabular data in the source: 0
pressure (bar)	uptake (cm3(STP)/g)
0.0632911	0
0.222229	2.69058
0.444173	4.30493
0.666118	5.91928
0.920134	9.14798
1.17415	12.3767
1.36459	14.5291
1.52324	16.1435
1.7134	17.2197
1.93549	19.3722
2.15729	20.4484
2.37938	22.6009
2.56968	24.2152
2.82341	26.3677
3.04535	27.9821
3.33059	29.5964
3.58404	30.6726
3.8382	34.4395
4.05986	34.9776
4.34523	37.13
4.66212	38.7444
4.91585	40.8969
5.23273	42.5112
5.42317	44.6637
5.7717	46.278
6.15215	48.9686
6.43739	50.583
6.69098	52.1973
6.94443	53.2735
7.16623	54.3498
7.41982	55.9641
7.61026	58.1166
7.89536	59.1928
8.18059	60.8072
8.49747	62.4215
8.75092	63.4978
9.09973	66.1883
9.32154	67.2646
9.54334	68.3408
9.79707	70.4933
9.95558	71.5695
