Adsorption isotherm of Nitrogen on [Fe2(BPEB)3]
DOI: 10.1039/C4ta01798f
Adsorbate Nitrogen: InChIKey IJGRMHOSHXDMSA-UHFFFAOYSA-N
Temperature: 77 K
Tabular data in the source: 0
pressure (bar)	uptake (cm3(STP)/g)
-0.000544388	36.0561
-0.000434039	69.8586
-0.000331047	101.408
-0.000228055	132.957
-0.000117705	166.759
0.00166995	196.061
0.00187594	225.356
0.00197157	254.658
0.00417119	288.455
0.00439189	322.263
0.0249904	344.847
0.0536958	351.674
0.0850055	360.761
0.12156	363.099
0.16072	367.697
0.199886	370.041
0.225987	374.609
0.2547	379.182
0.283421	381.502
0.312147	381.569
0.340868	383.889
0.366992	381.696
0.395712	384.016
0.429655	386.349
0.453144	390.91
0.481872	390.977
0.513204	393.303
0.549773	391.134
0.58894	393.479
0.628106	395.823
0.664669	395.908
0.70644	400.512
0.742994	402.85
0.782153	407.448
0.818701	412.04
0.855249	416.632
0.891782	425.731
0.933523	439.348
0.954379	450.664
