Adsorption isotherm of Methane on [Fe2(BPEB)3]
DOI: 10.1039/C4ta01798f
Adsorbate Methane: InChIKey VNWKTOKETHGBQD-UHFFFAOYSA-N
Temperature: 273 K
Tabular data in the source: 0
pressure (bar)	uptake (cm3(STP)/g)
0.000567634	2.15247
0.127718	4.30493
0.191718	6.99552
0.382017	8.60987
0.541097	11.8386
0.668388	14.5291
0.79568	17.2197
0.923256	20.9865
1.05055	23.6771
1.30499	28.5202
1.52764	32.8251
1.78166	36.0538
1.94088	39.8206
2.16325	43.0493
2.38562	46.278
2.54442	48.4305
2.79872	52.7354
2.95751	54.8879
3.21167	58.6547
3.33882	60.8072
3.52926	62.9596
3.78328	66.1883
3.97414	69.9552
4.22844	74.2601
4.35588	77.4888
4.64126	79.6413
4.8317	81.7937
5.022	83.4081
5.21258	86.0987
5.37137	88.2511
5.56167	89.8655
5.81541	92.0179
6.03735	93.6323
6.22751	94.7085
6.44959	96.861
6.67154	98.4753
6.98842	100.09
7.24187	101.166
7.43217	102.78
7.62233	103.857
7.93921	105.471
8.16129	107.623
8.3831	108.7
8.57325	109.776
8.7952	111.39
9.08001	111.39
9.3336	113.004
9.58719	114.619
9.80871	114.619
9.90379	115.157
