Adsorption isotherm of Nitrogen on [Zn(BPEB)]
DOI: 10.1039/C4ta01798f
Adsorbate Nitrogen: InChIKey IJGRMHOSHXDMSA-UHFFFAOYSA-N
Temperature: 298 K
Tabular data in the source: 0
pressure (bar)	uptake (cm3(STP)/g)
0.031348	1.09993
0.188088	0.0206237
0.376176	-1.05524
0.501567	-1.04149
0.658307	-1.02431
0.815047	-1.00712
1.06583	-0.979624
1.22257	-0.962437
1.34796	-0.948688
1.63009	-0.917753
2.00627	0.219986
2.31975	-0.842133
2.66458	-0.804323
3.0094	-0.766513
3.35423	0.367789
3.69906	0.405599
4.01254	1.53646
4.38871	1.57771
4.67085	1.60865
4.98433	1.64302
5.3605	2.78076
5.70533	2.81857
6.01881	2.85294
6.36364	3.98724
6.67712	4.02161
6.9906	4.05599
7.36677	4.09723
8.08777	5.27278
8.77743	6.44489
9.43574	6.51708
9.96865	7.672
