Adsorption isotherm of Nitrogen on [Ni(BPEB)]
DOI: 10.1039/C4ta01798f
Adsorbate Nitrogen: InChIKey IJGRMHOSHXDMSA-UHFFFAOYSA-N
Temperature: 77 K
Tabular data in the source: 0
pressure (bar)	uptake (cm3(STP)/g)
-0.000544388	36.0561
-0.000434039	69.8586
-0.000331047	101.408
-0.000228055	132.957
-0.000117705	166.759
0.00166995	196.061
0.00187594	225.356
0.00197157	288.455
0.00386957	385.361
0.00396521	414.657
0.0040682	353.812
0.00417119	322.263
0.00439189	254.658
0.00898241	448.472
0.0193185	482.298
0.0374966	513.89
0.0687916	527.484
0.107929	538.842
0.160116	552.484
0.196657	559.329
0.227989	561.656
0.254104	561.716
0.28022	561.777
0.30894	564.097
0.342883	566.429
0.371597	571.003
0.395094	573.311
0.423821	573.377
0.457765	575.71
0.483873	578.024
0.509974	582.591
0.551752	584.942
0.58571	582.767
0.6301	585.124
0.666647	589.715
0.703195	594.307
0.737131	598.893
0.781529	598.996
0.81545	608.089
0.851968	621.695
0.891075	642.067
0.932625	714.276
0.950737	766.149
