Adsorption isotherm of Methane on [Ni(BPEB)]
DOI: 10.1039/C4ta01798f
Adsorbate Methane: InChIKey VNWKTOKETHGBQD-UHFFFAOYSA-N
Temperature: 298 K
Tabular data in the source: 0
pressure (bar)	uptake (cm3(STP)/g)
0.95056	5.73553
1.23586	7.05618
1.45766	8.37966
1.74295	9.70031
1.93315	10.5807
2.15523	11.0153
2.34543	11.8958
2.56737	12.7748
2.75757	13.6552
3.0114	14.0884
3.23363	14.0785
3.45557	14.9575
3.70912	16.2796
3.89931	17.16
4.15329	17.1487
4.43872	18.0249
4.66052	19.3484
4.91436	19.7816
5.19993	20.2133
5.39013	21.0938
5.61207	21.9728
5.83402	22.8518
6.11945	23.728
6.34139	24.607
6.69046	25.036
7.00765	25.9108
7.22973	26.3453
7.51489	28.1104
7.76858	28.9881
7.99066	29.4226
8.24435	30.3003
8.46629	31.1793
8.68824	32.0583
8.94207	32.4915
9.16415	32.926
9.44945	34.2467
9.67139	35.1257
9.86159	36.0062
