Adsorption isotherm of Nitrogen on [Zn(BPEB)]
DOI: 10.1039/C4ta01798f
Adsorbate Nitrogen: InChIKey IJGRMHOSHXDMSA-UHFFFAOYSA-N
Temperature: 273 K
Tabular data in the source: 0
pressure (bar)	uptake (cm3(STP)/g)
0.280115	-0.0325715
0.588242	-0.0684002
0.868248	1.06183
1.20439	1.02275
1.42848	0.996689
1.70848	2.12692
2.04451	3.25064
2.38065	3.21155
2.71679	3.17247
3.02492	3.13664
3.38885	5.4199
3.66896	5.38733
4.03311	5.34499
4.39726	5.30264
4.70528	6.42962
5.04142	6.39053
5.40546	7.51099
5.74149	8.63471
6.04962	8.59888
6.41355	10.8821
6.72168	10.8463
7.08561	13.1296
7.39374	13.0938
8.09381	15.3379
8.76608	15.2598
9.41013	17.5105
9.99794	22.0933
