Adsorption isotherm of Methane on [Zn(BPEB)]
DOI: 10.1039/C4ta01798f
Adsorbate Methane: InChIKey VNWKTOKETHGBQD-UHFFFAOYSA-N
Temperature: 298 K
Tabular data in the source: 0
pressure (bar)	uptake (cm3(STP)/g)
0.0317465	-0.00141095
0.221802	1.32348
0.443745	2.2025
0.665688	3.08152
0.855885	3.96196
1.07769	5.28544
1.42662	6.15882
1.7438	7.03361
2.0607	8.7973
2.21929	9.2347
2.50487	9.66645
2.85394	10.0954
3.13909	11.8605
3.36104	12.7395
3.64661	13.1713
3.93219	13.603
4.21734	15.3681
4.47103	16.2457
4.69326	16.2359
4.9152	17.1149
5.10554	17.5509
5.39112	17.9826
5.58131	18.8631
5.86689	19.2948
6.12072	19.728
6.40616	20.6042
6.75509	21.4776
7.10416	21.9065
7.38959	22.7827
7.70663	24.1019
8.02382	24.9767
8.21415	25.4127
8.49973	25.8445
8.69021	25.836
8.88027	27.1609
9.10249	27.151
9.45142	28.0244
9.61015	28.0173
9.8321	28.8964
