Adsorption isotherm of Methane on [Ni(BPEB)]
DOI: 10.1039/C4ta01798f
Adsorbate Methane: InChIKey VNWKTOKETHGBQD-UHFFFAOYSA-N
Temperature: 195 K
Tabular data in the source: 0
pressure (bar)	uptake (cm3(STP)/g)
0.0705428	12.9114
0.0994011	15.9494
0.121846	18.2278
0.150705	20.5063
0.179563	22.7848
0.211628	23.5443
0.234074	26.5823
0.256519	28.1013
0.288584	29.6203
0.311029	30.3797
0.333475	32.6582
0.362333	33.4177
0.384779	36.4557
0.41043	37.9747
0.439288	38.7342
0.47456	40.2532
0.497005	41.0127
0.522658	43.2911
0.545103	44.0506
0.570755	44.8101
0.60282	47.0886
0.631678	47.8481
0.650917	47.8481
0.679775	50.1266
0.705428	50.8861
0.731079	51.6456
0.750318	53.9241
0.77597	54.6835
0.814447	54.6835
0.836893	56.2025
0.859338	56.962
0.891404	57.7215
0.910642	60
0.942708	60.7595
0.965153	61.519
0.990804	61.519
