Adsorption isotherm of Methane on [Fe2(BPEB)3]
DOI: 10.1039/C4ta01798f
Adsorbate Methane: InChIKey VNWKTOKETHGBQD-UHFFFAOYSA-N
Temperature: 298 K
Tabular data in the source: 0
pressure (bar)	uptake (cm3(STP)/g)
0.125998	3.10551
0.315772	5.3193
0.505686	7.08864
0.727347	8.85656
0.885233	11.5162
1.01151	13.7328
1.20129	15.9466
1.35945	17.7174
1.58083	20.3742
1.77047	23.0324
1.96024	25.2462
2.11813	27.9059
2.3395	30.5627
2.56116	32.3306
2.75108	34.1
2.94085	36.3137
3.16237	38.5261
3.35229	40.2955
3.57381	42.5078
3.76358	44.7216
3.98496	47.3784
4.17501	48.7033
4.36493	50.4727
4.58673	51.7961
4.7765	54.0099
5.02977	56.2209
5.21983	57.5458
5.44135	59.7582
5.59951	61.5289
5.82132	62.8524
6.04298	64.6203
6.29639	66.3868
6.48644	67.7117
6.70852	68.1463
6.93004	70.3587
7.18359	71.6807
7.43714	73.0028
7.7223	74.7679
7.9441	76.0914
8.13415	77.4163
8.3877	78.7383
8.64111	80.5048
8.86305	81.3839
9.21184	82.7017
9.49728	83.5779
9.81432	84.8971
