Adsorption isotherm of Nitrogen on [Ni(BPEB)]
DOI: 10.1039/C4ta01798f
Adsorbate Nitrogen: InChIKey IJGRMHOSHXDMSA-UHFFFAOYSA-N
Temperature: 273 K
Tabular data in the source: 0
pressure (bar)	uptake (cm3(STP)/g)
4.73318	7.58916
5.06932	7.55008
5.40546	7.51099
5.76961	7.46865
6.13365	8.58911
6.41377	8.55654
6.69356	12.0124
7.14174	11.9603
7.42186	11.9277
8.12203	13.0091
8.7942	14.0937
9.43825	16.3444
10.0265	16.276
