Adsorption isotherm of Carbon Dioxide on [Ni(BPEB)]
DOI: 10.1039/C4ta01798f
Adsorbate Carbon Dioxide: InChIKey CURLTUGMZLYLDI-UHFFFAOYSA-N
Temperature: 273 K
Tabular data in the source: 0
pressure (bar)	uptake (cm3(STP)/g)
0.138161	8.0761
0.388058	16.1263
0.553722	26.5127
0.692099	33.4304
0.859056	36.8666
1.10895	44.9168
1.38679	52.9606
1.60918	58.7006
1.88723	65.586
3.77834	110.322
4.00073	116.062
4.30693	121.782
4.58519	127.509
4.8078	132.091
5.11422	136.653
5.36455	142.387
5.58716	146.968
5.92172	150.366
6.14433	154.947
6.42324	157.199
6.70193	160.61
6.92476	164.033
7.23139	167.437
7.48258	168.537
7.76149	170.789
8.04019	174.199
8.29116	176.458
8.54214	178.716
8.82105	180.968
9.07202	183.227
9.35094	185.479
9.6017	188.895
