Adsorption isotherm of Methane on [Fe2(BPEB)3]
DOI: 10.1039/C4ta01798f
Adsorbate Methane: InChIKey VNWKTOKETHGBQD-UHFFFAOYSA-N
Temperature: 195 K
Tabular data in the source: 0
pressure (bar)	uptake (cm3(STP)/g)
0.0673362	28.8608
0.0994011	39.4937
0.121846	46.3291
0.147499	56.2025
0.17315	64.557
0.202009	72.1519
0.227661	78.2278
0.256519	85.0633
0.278964	91.1392
0.307822	96.4557
0.333475	101.772
0.362333	107.848
0.387985	112.405
0.413637	116.203
0.439288	119.241
0.468147	123.038
0.497005	127.595
0.519451	129.873
0.545103	132.911
0.570755	136.709
0.599613	140.506
0.628471	142.025
0.654124	145.823
0.679775	148.101
0.702221	149.62
0.727872	152.658
0.756731	155.696
0.788796	157.975
0.814447	159.494
0.83048	162.532
0.859338	164.81
0.888197	167.089
0.910642	167.848
0.929882	169.367
0.952326	170.886
0.977979	171.646
0.994011	172.405
