Adsorption isotherm of Nitrogen on [Fe2(BPEB)3]
DOI: 10.1039/C4ta01798f
Adsorbate Nitrogen: InChIKey IJGRMHOSHXDMSA-UHFFFAOYSA-N
Temperature: 298 K
Tabular data in the source: 0
pressure (bar)	uptake (cm3(STP)/g)
0.031348	1.09993
0.188088	2.21361
0.438871	2.2411
0.564263	2.25485
0.783699	3.37541
0.909091	3.38915
1.03448	3.4029
1.19122	3.42009
1.34796	3.43728
1.63009	4.5647
2.00627	6.79893
2.3511	7.93323
2.63323	9.06066
3.04075	9.10535
3.32288	10.2328
3.63636	10.2671
3.98119	11.4014
4.35737	11.4427
4.67085	11.4771
4.95298	12.6045
5.32915	15.9352
5.61129	17.0626
5.98746	17.1039
6.26959	19.3278
6.64577	20.4655
6.9906	21.5998
7.30408	21.6342
7.96238	22.8029
8.62069	23.9716
9.31034	27.3367
9.96865	29.6018
