Adsorption isotherm of Carbon Dioxide on [Fe2(BPEB)3]
DOI: 10.1039/C4ta01798f
Adsorbate Carbon Dioxide: InChIKey CURLTUGMZLYLDI-UHFFFAOYSA-N
Temperature: 273 K
Tabular data in the source: 0
pressure (bar)	uptake (cm3(STP)/g)
0.138161	8.0761
0.192519	16.1716
0.219159	23.1153
0.301452	31.2043
0.411031	42.7619
0.46539	50.8574
0.548114	56.6298
0.602688	63.5669
0.657262	70.5041
0.712267	75.1246
0.849997	85.5174
0.959792	95.9167
1.09774	105.151
1.12502	108.62
1.37298	127.095
1.64973	140.931
1.89898	152.456
2.14867	161.664
2.4265	169.708
2.70454	176.594
2.95466	183.485
3.23292	189.212
3.5114	193.781
3.76173	199.515
4.03999	205.242
4.2626	209.823
4.5413	213.234
4.84728	220.113
5.09825	222.371
5.34902	225.788
5.62771	229.198
5.87847	232.615
6.15738	234.867
6.40836	237.125
6.65912	240.542
6.93781	243.953
7.24466	246.198
7.49563	248.457
7.77476	249.55
8.08139	252.954
8.33236	255.213
8.58312	258.629
8.83431	259.73
9.08529	261.988
9.33627	264.246
9.64311	266.492
