Adsorption isotherm of Carbon Dioxide on [Ni(BPEB)]
DOI: 10.1039/C4ta01798f
Adsorbate Carbon Dioxide: InChIKey CURLTUGMZLYLDI-UHFFFAOYSA-N
Temperature: 298 K
Tabular data in the source: 0
pressure (bar)	uptake (cm3(STP)/g)
0.031348	1.09993
0.31348	7.70981
0.595611	14.3197
0.815047	20.9227
1.06583	26.4327
1.34796	31.946
1.59875	36.3595
1.84953	40.773
2.13166	45.1899
2.44514	49.6102
2.63323	52.9203
2.94671	56.2442
3.16614	59.5577
3.51097	66.1744
3.73041	68.3915
4.01254	72.8084
4.26332	76.1254
4.54545	79.4458
4.79624	82.7627
5.07837	87.1796
5.32915	90.4966
5.61129	92.7205
5.86207	99.327
6.1442	101.551
6.39498	104.868
6.64577	109.281
6.89655	111.502
7.24138	115.926
7.49216	119.243
7.77429	121.466
8.08777	125.887
8.33856	128.107
8.58934	129.231
8.80878	133.641
9.05956	138.055
9.34169	141.375
9.65517	142.506
