Adsorption isotherm of Carbon Dioxide on [Fe2(BPEB)3]
DOI: 10.1039/C4ta01798f
Adsorbate Carbon Dioxide: InChIKey CURLTUGMZLYLDI-UHFFFAOYSA-N
Temperature: 298 K
Tabular data in the source: 0
pressure (bar)	uptake (cm3(STP)/g)
0.0940439	3.29979
0.188088	8.79255
0.250784	13.1854
0.376176	19.7781
0.470219	25.2709
0.532915	31.8567
0.658307	36.2564
0.783699	42.8491
1.09718	54.9449
1.28527	65.9304
1.34796	68.1303
1.59875	80.2192
1.88088	89.022
2.13166	98.9179
2.41379	107.721
2.66458	116.52
2.94671	122.034
3.22884	129.74
3.51097	135.253
3.69906	141.853
4.01254	146.273
4.29467	151.787
4.60815	158.4
4.82759	162.81
5.10972	168.323
5.3605	170.544
5.64263	174.961
5.95611	179.381
6.17555	182.695
6.48903	186.019
6.73981	190.432
6.9279	192.646
7.24138	194.873
7.52351	199.29
7.77429	201.51
8.05643	204.831
8.27586	207.048
8.58934	211.468
8.84013	213.689
9.15361	217.012
9.40439	220.329
9.68652	222.553
