Adsorption isotherm of Nitrogen on [Zn(BPEB)]
DOI: 10.1039/C4ta01798f
Adsorbate Nitrogen: InChIKey IJGRMHOSHXDMSA-UHFFFAOYSA-N
Temperature: 77 K
Tabular data in the source: 0
pressure (bar)	uptake (cm3(STP)/g)
-0.000544388	36.0561
-0.000434039	69.8586
-0.000331047	101.408
-0.000228055	132.957
-0.000117705	166.759
0.00197157	196.061
0.0122928	234.395
0.04617	257.009
0.0748608	268.343
0.116616	277.454
0.158388	282.058
0.197547	286.655
0.223662	286.716
0.254987	291.296
0.281103	291.356
0.312435	293.682
0.341155	296.003
0.372494	296.075
0.393372	300.631
0.424712	300.703
0.453432	303.024
0.482152	305.344
0.513491	305.416
0.550039	310.008
0.586593	312.347
0.623149	314.685
0.664927	317.035
0.698862	321.621
0.743252	323.978
0.777181	330.817
0.821556	337.68
0.855462	351.28
0.894578	369.399
0.928403	407.787
0.946493	466.421
