Adsorption isotherm of Nitrogen on [Fe2(BPEB)3]
DOI: 10.1039/C4ta01798f
Adsorbate Nitrogen: InChIKey IJGRMHOSHXDMSA-UHFFFAOYSA-N
Temperature: 273 K
Tabular data in the source: 0
pressure (bar)	uptake (cm3(STP)/g)
0.168036	-2.35553
0.335426	-1.23601
0.502599	1.04187
0.754007	0.983628
0.92118	3.2615
1.08857	4.38103
1.33976	5.48114
1.73084	5.39054
2.06562	7.62959
2.40018	11.027
2.73539	10.9493
3.04224	13.1948
3.40495	15.4274
3.73994	16.5081
4.07494	17.5888
4.38178	19.8343
4.71699	19.7567
5.05199	20.8374
5.38655	24.2348
5.72154	25.3155
6.0286	26.4026
6.41947	27.4704
6.69881	27.4057
7.06152	29.6383
7.42466	29.5541
8.06672	31.722
8.73649	35.0417
9.46235	37.1902
9.99288	38.2256
