Adsorption isotherm of Methane on [Ni(BPEB)]
DOI: 10.1039/C4ta01798f
Adsorbate Methane: InChIKey VNWKTOKETHGBQD-UHFFFAOYSA-N
Temperature: 273 K
Tabular data in the source: 0
pressure (bar)	uptake (cm3(STP)/g)
0.507181	3.2287
0.760913	5.38117
0.919992	8.60987
1.23687	10.2242
1.45924	13.4529
1.71283	15.0673
2.09357	18.8341
2.34731	20.9865
2.69598	23.139
3.013	25.2915
3.36167	27.4439
3.6154	29.5964
3.86885	30.6726
4.18601	33.3632
4.4396	34.9776
4.78827	37.13
5.00993	37.6682
5.16873	39.8206
5.39053	40.8969
5.64398	41.9731
5.86578	43.0493
6.05594	44.1256
6.30939	45.2018
6.59462	46.8161
6.81629	47.3543
7.13331	49.5067
7.48169	50.583
7.70335	51.1211
7.98845	52.1973
8.21054	54.3498
8.40069	55.426
8.62221	55.426
8.8758	57.0404
9.12953	59.1928
9.35119	59.7309
9.57286	60.2691
9.79452	60.8072
10.0165	62.4215
