Adsorption isotherm of Nitrogen on [Ni(BPEB)]
DOI: 10.1039/C4ta01798f
Adsorbate Nitrogen: InChIKey IJGRMHOSHXDMSA-UHFFFAOYSA-N
Temperature: 298 K
Tabular data in the source: 0
pressure (bar)	uptake (cm3(STP)/g)
2.88401	0.316229
3.22884	1.45053
3.57367	2.58483
3.82445	2.61233
4.20063	2.65358
4.42006	4.87062
4.70219	4.90156
5.01567	4.93593
5.32915	4.9703
5.51724	4.99093
5.83072	6.12179
6.01881	6.14241
6.36364	6.18022
6.67712	6.2146
7.02194	7.3489
7.30408	9.57282
7.99373	9.64844
8.65204	9.72062
9.31034	10.8893
9.9373	13.151
