Adsorption isotherm of Carbon Dioxide on [Zn(BPEB)]
DOI: 10.1039/C4ta01798f
Adsorbate Carbon Dioxide: InChIKey CURLTUGMZLYLDI-UHFFFAOYSA-N
Temperature: 298 K
Tabular data in the source: 0
pressure (bar)	uptake (cm3(STP)/g)
0.031348	1.09993
0.250784	5.50995
0.407524	8.81661
0.532915	12.1198
0.783699	15.4368
1.06583	22.0467
1.41066	26.4705
1.66144	30.8839
1.84953	33.0975
2.13166	37.5144
2.44514	43.0313
2.72727	46.3517
2.94671	51.8582
3.19749	54.0787
3.51097	57.4025
3.76176	60.7195
4.01254	65.133
4.29467	68.4534
4.5768	72.8703
4.82759	76.1872
5.10972	79.5076
5.3605	81.7281
5.64263	85.0485
5.89342	89.462
6.17555	92.7824
6.39498	96.0959
6.70846	97.2268
6.9279	100.54
7.24138	103.864
7.52351	107.185
7.77429	110.502
8.05643	112.725
8.30721	114.946
8.52665	117.163
8.87147	118.297
9.15361	121.618
9.37304	122.738
9.65517	127.155
