Adsorption isotherm of Carbon Dioxide on [Fe2(BPEB)3]
DOI: 10.1039/C4ta01798f
Adsorbate Carbon Dioxide: InChIKey CURLTUGMZLYLDI-UHFFFAOYSA-N
Temperature: 195 K
Tabular data in the source: 0
pressure (bar)	uptake (cm3(STP)/g)
0.00503153	49.0272
0.00537303	28.5992
0.005669	10.8949
0.00745621	78.9883
0.00763835	68.0934
0.0154133	128.016
0.015641	114.397
0.0158914	99.4163
0.0181339	140.272
0.0209685	145.72
0.0236664	159.339
0.026296	177.043
0.0317828	198.833
0.0320105	185.214
0.0403774	209.728
0.0460692	219.261
0.0517609	228.794
0.0633267	236.965
0.0835324	253.307
0.112652	261.479
0.144742	266.926
0.173884	273.735
0.197243	276.459
0.241058	280.545
0.308254	285.992
0.375497	288.716
0.416455	288.716
0.457322	294.163
0.515833	294.163
0.556746	296.887
0.609383	298.249
0.66202	299.611
0.711756	299.611
0.758519	302.335
0.805329	302.335
0.857943	305.058
0.907678	305.058
0.957412	305.058
0.974943	306.42
0.992497	306.42
