Adsorption isotherm of Carbon Dioxide on [Zn(BPEB)]
DOI: 10.1039/C4ta01798f
Adsorbate Carbon Dioxide: InChIKey CURLTUGMZLYLDI-UHFFFAOYSA-N
Temperature: 195 K
Tabular data in the source: 0
pressure (bar)	uptake (cm3(STP)/g)
3.41863e-05	-1.36714
0.00545841	15.0463
0.013834	30.0964
0.0250928	46.5175
0.0304486	65.6652
0.0359071	80.7115
0.0500488	98.5036
0.0526241	112.179
0.0639853	124.499
0.0751757	143.654
0.0982742	153.255
0.135925	164.242
0.167844	171.12
0.205631	176.639
0.231783	180.775
0.257935	184.911
0.281205	187.676
0.307323	193.179
0.336461	194.585
0.359731	197.35
0.385884	201.486
0.412104	202.888
0.438257	207.024
0.455658	211.148
0.490596	213.929
0.528417	218.08
0.563322	222.228
0.598226	226.376
0.63313	230.523
0.665151	233.3
0.700056	237.448
0.734995	240.228
0.775699	245.751
0.81352	249.902
0.851273	256.788
