Adsorption isotherm of Carbon Dioxide on [Zn(BPEB)]
DOI: 10.1039/C4ta01798f
Adsorbate Carbon Dioxide: InChIKey CURLTUGMZLYLDI-UHFFFAOYSA-N
Temperature: 273 K
Tabular data in the source: 0
pressure (bar)	uptake (cm3(STP)/g)
0.0275028	2.31023
0.166095	8.06963
0.332621	13.8226
0.526651	21.8857
0.69253	31.1137
0.831554	34.5564
1.13754	41.4353
1.38786	47.1688
1.66548	56.3709
1.9431	65.573
2.16549	71.313
2.44354	78.1984
2.69365	85.0903
2.97191	90.8173
3.24996	97.7027
3.52823	103.43
3.80649	109.157
4.00116	113.745
4.33551	118.301
4.58627	121.717
4.83703	125.134
5.08779	128.551
5.39442	131.955
5.64518	135.372
5.89573	139.947
6.17464	142.199
6.4254	145.616
6.70409	149.026
6.983	151.278
7.23355	155.853
7.48431	159.27
7.79137	160.357
8.04213	163.774
8.32104	166.026
8.5718	169.443
8.85049	172.853
9.12919	176.264
9.37995	179.68
9.63092	181.939
