Adsorption isotherm of Methane on [Zn(BPEB)]
DOI: 10.1039/C4ta01798f
Adsorbate Methane: InChIKey VNWKTOKETHGBQD-UHFFFAOYSA-N
Temperature: 195 K
Tabular data in the source: 0
pressure (bar)	uptake (cm3(STP)/g)
0.00961946	4.55696
0.0545103	14.4304
0.0994011	21.2658
0.11864	23.5443
0.150705	26.5823
0.17315	30.3797
0.198803	31.8987
0.224454	35.6962
0.256519	37.2152
0.282171	40.2532
0.307822	41.7722
0.327062	43.2911
0.359126	45.5696
0.384779	46.3291
0.41043	48.6076
0.442495	50.1266
0.464941	51.6456
0.500212	53.1646
0.519451	53.9241
0.53869	56.2025
0.573962	56.962
0.596407	58.481
0.625265	59.2405
0.650917	60.7595
0.682982	61.519
0.705428	62.2785
0.734286	63.038
0.756731	63.7975
0.788796	64.557
0.811241	64.557
0.833687	65.3165
0.878578	66.0759
0.89461	66.0759
0.933088	67.5949
0.945913	68.3544
0.987599	68.3544
