Adsorption isotherm of Methane on NH2-MIL-53(In)
DOI: 10.1021/La302824j
Adsorbate Methane: InChIKey VNWKTOKETHGBQD-UHFFFAOYSA-N
Temperature: 273 K
Tabular data in the source: 0
pressure (bar)	uptake (mol/mol)
0.00205368	0.0409091
0.00308052	0.0613636
0.00410268	0.122727
0.00615559	0.170455
0.00889695	0.197727
0.0150697	0.218182
0.0208978	0.252273
0.0267283	0.265909
0.0291266	0.293182
0.0352829	0.456818
0.0438493	0.545455
0.0489921	0.572727
0.0537926	0.593182
0.057907	0.613636
0.0627028	0.675
0.06749	0.811364
0.0739895	0.975
0.0784391	1.06364
0.0842657	1.11136
0.0928351	1.17273
0.0976372	1.17955
0.105868	1.20682
0.111356	1.21364
0.117529	1.22727
0.12439	1.23409
0.127475	1.25455
0.131933	1.26818
0.136734	1.28864
0.144965	1.30227
0.150111	1.30909
0.154226	1.32273
0.162801	1.32955
0.166227	1.37045
0.171363	1.45909
0.17684	1.56818
0.182319	1.65
0.186768	1.74545
0.190185	1.86136
0.192921	1.93636
