Adsorption isotherm of Methane on NH2-MIL-53(Al)
DOI: 10.1021/La302824j
Adsorbate Methane: InChIKey VNWKTOKETHGBQD-UHFFFAOYSA-N
Temperature: 273 K
Tabular data in the source: 0
pressure (bar)	uptake (mol/mol)
0.649351	0.0169492
1.03896	0.0237288
1.68831	0.0389831
2.20779	0.0457627
2.85714	0.0627119
3.57143	0.0745763
4.93506	0.0932203
6.23377	0.115254
7.66234	0.142373
8.96104	0.174576
10.2597	0.230508
12.1429	0.381356
13.1169	0.462712
14.026	0.538983
15.0649	0.567797
15.974	0.59661
18.0519	0.620339
20.0649	0.635593
22.8571	0.655932
25.5195	0.676271
28.3117	0.69322
31.039	0.710169
