Adsorption isotherm of Carbon Dioxide on NH2-MIL-53(Al)
DOI: 10.1021/La302824j
Adsorbate Carbon Dioxide: InChIKey CURLTUGMZLYLDI-UHFFFAOYSA-N
Temperature: 273 K
Tabular data in the source: 0
pressure (bar)	uptake (mol/mol)
0.190476	0.383212
0.571429	0.459854
1.33333	0.514599
2	0.536496
2.7619	0.547445
3.42857	0.547445
4.85714	0.580292
6.09524	0.60219
7.42857	0.645985
8.47619	0.89781
9.42857	1.07299
10.5714	1.24818
12.1905	1.51095
13.8095	1.75182
15.619	1.93796
17.5238	2.05839
19.3333	2.13504
21.3333	2.17883
24	2.21168
26.6667	2.23358
29.4286	2.26642
32	2.28832
34.5714	2.37591
