Adsorption isotherm of Carbon Dioxide on NH2-MIL-53(Ga)
DOI: 10.1021/La302824j
Adsorbate Carbon Dioxide: InChIKey CURLTUGMZLYLDI-UHFFFAOYSA-N
Temperature: 273 K
Tabular data in the source: 0
pressure (bar)	uptake (mol/mol)
0.0184193	0.0193878
0.0338179	0.0452219
0.0493588	0.0990132
0.0494792	0.122669
0.0710833	0.167869
0.0864601	0.189402
0.107933	0.208796
0.129395	0.226038
0.166233	0.264814
0.181938	0.350864
0.203641	0.415419
0.341255	0.456526
0.524605	0.484811
0.695686	0.502322
0.854532	0.51551
1.02864	0.528725
1.19969	0.539784
