Adsorption isotherm of Methane on NH2-MIL-53(In)
DOI: 10.1021/La302824j
Adsorbate Methane: InChIKey VNWKTOKETHGBQD-UHFFFAOYSA-N
Temperature: 273 K
Tabular data in the source: 0
pressure (bar)	uptake (mol/mol)
1.03896	0.00169492
1.68831	0.00169492
2.85714	0.00508475
3.50649	0.00508475
5.06494	0.00847458
6.62338	0.0118644
7.92208	0.0152542
9.41558	0.0152542
10.8442	0.0186441
14.9351	0.0186441
17.0779	0.020339
19.0909	0.0186441
21.1688	0.0220339
24.6753	0.0254237
28.1169	0.0237288
31.5584	0.0220339
34.8701	0.0254237
38.3766	0.0237288
41.7532	0.0220339
