Adsorption isotherm of Carbon Dioxide on NH2-MIL-53(In)
DOI: 10.1021/La302824j
Adsorbate Carbon Dioxide: InChIKey CURLTUGMZLYLDI-UHFFFAOYSA-N
Temperature: 273 K
Tabular data in the source: 0
pressure (bar)	uptake (mol/mol)
0.380952	0.175182
1.04762	0.240876
1.90476	0.273723
2.7619	0.29562
3.61905	0.29562
4.57143	0.306569
5.42857	0.328467
6.38095	0.328467
7.33333	0.328467
8.28571	0.339416
9.14286	0.350365
10.0952	0.350365
11.0476	0.361314
12	0.361314
12.9524	0.372263
13.9048	0.372263
14.8571	0.383212
15.7143	0.394161
16.6667	0.394161
17.5238	0.416058
18.4762	0.448905
19.4286	0.470803
20.2857	0.492701
21.1429	0.525547
22.0952	0.558394
22.8571	0.60219
23.5238	0.645985
24.1905	0.711679
24.8571	0.79927
25.4286	0.886861
25.9048	0.985401
26.2857	1.08394
26.7619	1.18248
27.1429	1.28102
27.619	1.37956
27.9048	1.4781
28.381	1.56569
28.8571	1.66423
29.4286	1.75182
29.9048	1.83942
30.2857	1.90511
30.9524	1.98175
31.619	2.05839
32.1905	2.13504
32.9524	2.23358
33.4286	2.32117
34	2.39781
34.4762	2.5073
35.0476	2.58394
