Adsorption isotherm of Carbon Dioxide on NH2-MIL-53(Ga)
DOI: 10.1021/La302824j
Adsorbate Carbon Dioxide: InChIKey CURLTUGMZLYLDI-UHFFFAOYSA-N
Temperature: 273 K
Tabular data in the source: 0
pressure (bar)	uptake (mol/mol)
0.190476	0.317518
0.285714	0.372263
0.380952	0.437956
0.857143	0.481752
1.42857	0.514599
1.80952	0.514599
2.28571	0.525547
2.85714	0.547445
3.61905	0.558394
4.85714	0.569343
6.19048	0.591241
7.71429	0.60219
8.95238	0.635036
10.381	0.645985
12.4762	0.689781
14.2857	0.810219
16.2857	1.0292
18	1.37956
19.7143	1.75182
21.7143	2.0146
24.2857	2.22263
26.9524	2.29927
28.0952	2.32117
29.7143	2.34307
32.2857	2.36496
33.3333	2.39781
34.8571	2.40876
