Adsorption isotherm of Carbon Dioxide on NH2-MIL-53(Al)
DOI: 10.1021/La302824j
Adsorbate Carbon Dioxide: InChIKey CURLTUGMZLYLDI-UHFFFAOYSA-N
Temperature: 273 K
Tabular data in the source: 0
pressure (bar)	uptake (mol/mol)
0.00332707	0.0537694
0.0066432	0.105388
0.0160553	0.154867
0.0161319	0.169921
0.0225124	0.223696
0.0319027	0.268874
0.0412272	0.301149
0.0504861	0.320521
0.0720245	0.352817
0.0904438	0.372205
0.108808	0.38084
0.121066	0.389464
0.145537	0.39811
0.179202	0.413224
0.228123	0.426215
0.307601	0.443562
0.384003	0.456602
0.445127	0.467464
0.49708	0.47616
0.576524	0.487055
0.634573	0.49361
0.671226	0.495827
0.704814	0.495887
0.781205	0.506776
0.851446	0.509053
0.897269	0.513436
0.955307	0.517841
0.98281	0.522191
1.01333	0.520096
1.11413	0.526728
1.15079	0.531095
1.20271	0.533338
