Adsorption isotherm of Methane on NH2-MIL-53(Al)
DOI: 10.1021/La302824j
Adsorbate Methane: InChIKey VNWKTOKETHGBQD-UHFFFAOYSA-N
Temperature: 273 K
Tabular data in the source: 0
pressure (bar)	uptake (mol/mol)
0.00301815	0.606818
0.00472877	0.647727
0.00781241	0.681818
0.0153551	0.722727
0.0208425	0.736364
0.0266721	0.756818
0.0328464	0.763636
0.0383323	0.790909
0.0448504	0.790909
0.0496501	0.818182
0.0523915	0.845455
0.0575241	0.961364
0.0622966	1.22727
0.0677528	1.51364
0.0721821	1.77955
0.0779931	1.96364
0.0844996	2.06591
0.0889539	2.11364
0.0958088	2.16818
0.10198	2.20227
0.108151	2.23636
0.11158	2.25
0.11741	2.27045
0.122897	2.29091
0.129069	2.31818
0.134213	2.33182
0.139359	2.33182
0.146561	2.34545
0.151018	2.37273
0.15685	2.37273
0.160965	2.39318
0.166452	2.40682
0.174341	2.42045
0.179829	2.42727
0.182573	2.42727
0.187028	2.46818
0.192835	2.69318
