Adsorption isotherm of Methane on NH2-MIL-53(Ga)
DOI: 10.1021/La302824j
Adsorbate Methane: InChIKey VNWKTOKETHGBQD-UHFFFAOYSA-N
Temperature: 273 K
Tabular data in the source: 0
pressure (bar)	uptake (mol/mol)
5.06494	0.00169492
6.42857	0.00508475
8.31169	0.00847458
10	0.00847458
12.3377	0.0118644
16.5584	0.0152542
18.4416	0.0152542
20.6494	0.0220339
23.5065	0.0271186
26.3636	0.0271186
29.0909	0.0355932
31.8831	0.0355932
34.7403	0.0389831
37.4675	0.0440678
40.3247	0.0491525
