Adsorption isotherm of Methane on NH2-MIL-53(Ga)
DOI: 10.1021/La302824j
Adsorbate Methane: InChIKey VNWKTOKETHGBQD-UHFFFAOYSA-N
Temperature: 273 K
Tabular data in the source: 0
pressure (bar)	uptake (mol/mol)
0.00136288	0.0818182
0.00305401	0.293182
0.00370661	0.586364
0.00987389	0.654545
0.0160466	0.675
0.0225609	0.709091
0.0294205	0.722727
0.0366216	0.75
0.0427952	0.763636
0.048281	0.790909
0.0544545	0.804545
0.0568482	0.872727
0.0568528	0.831818
0.0612705	1.2
0.0670448	1.70455
0.0721634	1.94318
0.0783198	2.10682
0.0872292	2.19545
0.0916843	2.23636
0.0975124	2.27045
0.103343	2.28409
0.110888	2.30455
0.118433	2.325
0.12495	2.33182
0.130095	2.34545
0.135582	2.35909
0.139697	2.37273
0.145528	2.38636
0.149643	2.4
0.156845	2.41364
0.162676	2.42727
0.164732	2.44773
0.169876	2.46136
0.175364	2.46818
0.18085	2.49545
0.187367	2.50909
0.19491	2.55
