Adsorption isotherm of Carbon Dioxide on NH2-MIL-53(In)
DOI: 10.1021/La302824j
Adsorbate Carbon Dioxide: InChIKey CURLTUGMZLYLDI-UHFFFAOYSA-N
Temperature: 273 K
Tabular data in the source: 0
pressure (bar)	uptake (mol/mol)
0.0305565	0.00435584
0.0458457	0.00868431
0.0672309	0.0108732
0.0855626	0.0130566
0.100852	0.017385
0.122237	0.0195739
0.140547	0.0174562
0.171114	0.0239626
0.189654	0.0670065
0.241902	0.133767
0.269668	0.189731
0.346092	0.207072
0.465254	0.222339
0.523302	0.228895
0.578286	0.233294
0.642442	0.239861
0.70048	0.244266
0.764624	0.248682
0.80433	0.250904
0.853219	0.257443
0.895967	0.25752
0.960112	0.261936
0.993711	0.264146
1.02729	0.262056
1.1006	0.268639
1.14643	0.273022
1.19834	0.273115
