Adsorption isotherm of Nitrogen on C48H46Mn3N4O16
DOI: 10.1016/j.micromeso.2007.08.024
Adsorbate Nitrogen: InChIKey IJGRMHOSHXDMSA-UHFFFAOYSA-N
Temperature: 77 K
Tabular data in the source: 0
pressure (bar)	uptake (ml/g)
0.0153136	4.12656
0.0306272	4.58291
0.0663589	4.67254
0.0867771	4.57179
0.0995384	4.50882
0.122509	4.39547
0.142927	4.29471
0.163345	4.19395
0.181211	4.37175
0.204181	4.2584
0.255227	4.00651
0.30372	4.03317
0.354765	3.51533
0.40581	3.5294
0.456856	3.27751
0.507901	3.02562
0.558946	3.03969
0.609992	2.7878
0.678903	2.44775
0.712082	2.54998
0.763128	2.56404
0.811621	2.59071
0.834591	2.74331
0.867771	2.57959
0.888189	3.01075
0.913712	3.41672
0.939234	4.08864
0.964757	5.29249
0.987727	8.10467
0.997936	9.91599
1.00559	11.7399
1.0107	15.4381
