Adsorption isotherm of Hydrogen on C48H46Co3N4O16
DOI: 10.1016/j.micromeso.2007.08.024
Adsorbate Hydrogen: InChIKey UFHFLCQGNIYNRP-UHFFFAOYSA-N
Temperature: 77 K
Tabular data in the source: 0
pressure (bar)	uptake (mmol/g)
0.0105822	0.352941
0.0396834	0.737255
0.0608479	0.933333
0.0820124	1.02745
0.108468	1.12941
0.132278	1.21569
0.150797	1.26275
0.16667	1.30196
0.193126	1.35686
0.208999	1.38824
0.261911	1.46667
0.317467	1.5451
0.365087	1.59216
0.410062	1.63922
0.462973	1.68627
0.510593	1.72549
0.560859	1.75686
0.616416	1.79608
0.66139	1.82745
0.716947	1.85882
0.764567	1.88235
0.820124	1.90588
0.838643	1.92157
0.867744	1.93725
0.8942	1.95294
0.91801	1.95294
0.94182	1.97647
0.968275	1.98431
0.994731	1.99216
1.00796	2
