Adsorption isotherm of Nitrogen on C48H46Co3N4O16
DOI: 10.1016/j.micromeso.2007.08.024
Adsorbate Nitrogen: InChIKey IJGRMHOSHXDMSA-UHFFFAOYSA-N
Temperature: 77 K
Tabular data in the source: 0
pressure (bar)	uptake (ml/g)
0.0127613	27.5434
0.0331795	29.3044
0.0689112	30.4578
0.0842248	30.6482
0.102091	30.826
0.122509	30.9912
0.145479	31.1438
0.16845	31.2964
0.186315	31.7402
0.204181	31.3861
0.255227	31.6661
0.306272	31.6802
0.357317	31.4283
0.40581	31.4549
0.459408	31.4564
0.507901	31.4831
0.558946	31.2312
0.609992	31.2452
0.678903	31.1712
0.714635	31.2608
0.763128	31.0215
0.832039	31.7453
0.865219	32.1135
0.890741	32.5194
0.913712	33.2039
0.939234	34.1418
0.964757	36.4095
0.987727	40.8174
0.995384	45.035
1.00304	51.1142
1.00815	57.738
