Adsorption isotherm of Hydrogen on C48H46Mn3N4O16
DOI: 10.1016/j.micromeso.2007.08.024
Adsorbate Hydrogen: InChIKey UFHFLCQGNIYNRP-UHFFFAOYSA-N
Temperature: 77 K
Tabular data in the source: 0
pressure (bar)	uptake (mmol/g)
0.00793668	0.352941
0.0291012	0.682353
0.0634935	0.933333
0.0873035	1.01961
0.108468	1.10588
0.132278	1.16863
0.150797	1.21569
0.169316	1.2549
0.19048	1.28627
0.208999	1.31765
0.264556	1.38039
0.314822	1.43529
0.362442	1.46667
0.412708	1.51373
0.465619	1.55294
0.513239	1.57647
0.563505	1.60784
0.616416	1.63922
0.658745	1.6549
0.716947	1.67843
0.764567	1.69412
0.817478	1.71765
0.838643	1.74118
0.865099	1.74118
0.891554	1.74902
0.923301	1.77255
0.947111	1.78039
0.970921	1.78824
0.997377	1.79608
1.0106	1.81176
