Adsorption isotherm of Congo Red, Water on pTSA-Pani@GO-CNT
DOI: 10.1016/j.jcis.2017.02.034
Article source: Figure 6
Adsorbate Congo Red: InChIKey IQFVPQOLBLOTPF-HKXUKFGYSA-L
Adsorbate Water: InChIKey XLYOFNOQVPJJNP-UHFFFAOYSA-N
Kind: experiment
Temperature: 303 K
Tabular data in the source: 0
pressure (bar)	Congo Red fraction	Congo Red uptake (mg/g)	Water fraction	Water uptake (mg/g)	total uptake (mg/g)
1.01325	0.673	0.263			
1.01325	24.41	20.07			
1.01325	48.951	35.578			
1.01325	73.511	44.45			
1.01325	96.795	55.586			
1.01325	112.016	57.682			
1.01325	125.334	59.177			
1.01325	133.423	59.319			
1.01325	137.226	60.522			
