Adsorption isotherm of Cr(VI), Water on pTSA-Pani@GO-CNT
DOI: 10.1016/j.jcis.2017.02.034
Article source: Figure 6
Adsorbate Cr(VI): InChIKey JOPOVCBBYLSVDA-UHFFFAOYSA-N
Adsorbate Water: InChIKey XLYOFNOQVPJJNP-UHFFFAOYSA-N
Kind: experiment
Temperature: 303 K
Tabular data in the source: 0
pressure (bar)	Cr(VI) fraction	Cr(VI) uptake (mg/g)	Water fraction	Water uptake (mg/g)	total uptake (mg/g)
1.01325	0.673	0.263			
1.01325	1.085	23.863			
1.01325	1.336	48.142			
1.01325	1.505	73.326			
1.01325	3.743	96.019			
1.01325	13.376	111.391			
1.01325	24.838	125.027			
1.01325	41.233	132.475			
1.01325	61.917	137.355			
