Adsorption isotherm of Hydrogen on COF-105 OLi
DOI: 10.1021/Jp907241y
Adsorbate Hydrogen: InChIKey UFHFLCQGNIYNRP-UHFFFAOYSA-N
Temperature: 300 K
Tabular data in the source: 0
pressure (bar)	uptake (g/l)
1.01865	0.533597
2.36756	0.83004
4.05735	1.36364
6.4143	1.71937
8.10409	2.25296
10.1268	2.66798
12.4851	3.083
14.5078	3.49802
17.2003	3.85375
19.8955	4.32806
22.5867	4.62451
24.945	5.03953
27.6362	5.33597
29.6575	5.6917
32.3487	5.98814
34.7044	6.28458
37.3942	6.52174
39.7512	6.87747
42.441	7.11462
44.7967	7.41107
47.8221	7.64822
50.5133	7.94466
53.5387	8.18182
56.2286	8.41897
58.9198	8.71542
61.611	9.01186
64.3022	9.3083
66.9907	9.48617
69.6833	9.8419
72.7074	10.0198
75.3986	10.3162
78.4227	10.4941
81.1126	10.7312
84.1393	11.0277
86.8279	11.2055
89.856	11.5613
92.8787	11.6798
95.5699	11.9763
98.5954	12.2134
