Adsorption isotherm of Hydrogen on COF-105
DOI: 10.1021/Jp907241y
Adsorbate Hydrogen: InChIKey UFHFLCQGNIYNRP-UHFFFAOYSA-N
Temperature: 300 K
Tabular data in the source: 0
pressure (bar)	uptake (g/l)
1.67918	0.0592885
3.02544	0.237154
4.70594	0.355731
6.05088	0.474308
8.74207	0.770751
11.095	0.948617
14.1192	1.12648
16.809	1.36364
19.8358	1.66008
22.1888	1.83794
25.5485	2.01581
26.2222	2.13439
29.5819	2.31225
30.9282	2.49012
33.9536	2.72727
35.9697	2.84585
38.9951	3.083
41.0112	3.20158
44.038	3.49802
46.3896	3.6166
49.4137	3.79447
51.0956	3.97233
54.121	4.20949
56.1371	4.32806
59.1612	4.50593
61.1773	4.62451
64.2027	4.86166
66.8913	5.03953
69.9154	5.21739
71.2616	5.39526
74.2858	5.57312
76.3018	5.6917
79.3246	5.81028
81.342	5.98814
84.3661	6.16601
86.048	6.34387
89.0721	6.52174
91.0882	6.64032
94.1123	6.81818
96.1283	6.93676
99.1538	7.17391
100.16	7.17391
