Adsorption isotherm of Hydrogen on COF-105 OLi
DOI: 10.1021/Jp907241y
Adsorbate Hydrogen: InChIKey UFHFLCQGNIYNRP-UHFFFAOYSA-N
Temperature: 300 K
Tabular data in the source: 0
pressure (bar)	uptake (wt%)
1.33633	0.285714
2.33628	0.444444
4.33354	0.698413
6.33081	0.952381
8.32808	1.20635
10.3227	1.39683
12.9822	1.65079
14.9769	1.84127
17.6338	2.03175
19.6284	2.22222
22.284	2.38095
24.6097	2.57143
27.2653	2.73016
29.26	2.92063
32.2467	3.07937
34.5698	3.20635
37.5552	3.33333
40.2108	3.49206
42.8663	3.65079
45.8517	3.77778
48.5073	3.93651
51.1616	4.06349
54.1483	4.22222
56.8012	4.31746
59.4568	4.47619
62.4422	4.60317
65.0951	4.69841
68.0805	4.8254
70.4023	4.92063
73.389	5.07937
74.7175	5.1746
77.7016	5.26984
81.0155	5.33333
83.671	5.49206
86.6564	5.61905
89.6418	5.74603
92.6272	5.87302
95.2815	6
98.2642	6.06349
