Adsorption isotherm of Hydrogen on COF-105 OLi
DOI: 10.1021/Jp907241y
Adsorbate Hydrogen: InChIKey UFHFLCQGNIYNRP-UHFFFAOYSA-N
Temperature: 77 K
Tabular data in the source: 0
pressure (bar)	uptake (g/l)
0.664452	12.4478
1.3289	14.3805
2.32558	15.8848
3.65449	16.9606
3.98671	18.2489
4.98339	19.1094
7.6412	21.9048
9.63455	24.055
12.2924	26.2066
14.9502	27.7145
17.2757	29.4362
19.6013	30.7288
24.5847	33.1
29.5681	35.4712
35.2159	37.6292
40.1993	39.3567
44.8505	40.8688
50.1661	42.3823
54.8173	43.8945
60.1329	44.7642
64.7841	46.2764
70.0997	47.1461
74.7508	48.0145
80.0664	48.8843
85.3821	49.5394
90.3654	50.4085
95.0166	51.4915
100	51.9313
