Adsorption isotherm of Hydrogen on COF-105
DOI: 10.1021/Jp907241y
Adsorbate Hydrogen: InChIKey UFHFLCQGNIYNRP-UHFFFAOYSA-N
Temperature: 77 K
Tabular data in the source: 0
pressure (bar)	uptake (g/l)
0.996678	1.71888
2.32558	3.43847
3.65449	5.37265
4.98339	6.66305
5.64784	7.52285
7.30897	9.24315
8.9701	11.178
10.9635	12.8991
13.289	14.4062
15.2824	15.698
15.9468	16.3432
18.2724	17.8504
20.9302	19.5728
23.588	20.8661
25.9136	22.1586
28.5714	23.4519
30.897	24.7444
33.5548	26.0377
36.2126	26.9017
39.2027	27.7665
40.8638	28.6285
43.8538	29.7078
45.8472	30.3559
48.8372	31.4353
51.1628	32.084
54.1528	32.9488
55.814	33.5962
58.804	34.461
61.1296	34.8951
64.1196	35.7599
66.113	36.1934
69.103	36.8436
71.0963	37.277
74.0864	37.9272
76.0797	38.3607
79.0698	39.0109
81.0631	39.4443
84.3854	39.8807
86.3787	40.3141
89.3688	40.7497
91.0299	41.1825
94.3522	41.4042
96.3455	42.0522
99.6678	42.4886
