Adsorption isotherm of Hydrogen on COF-105 OLi
DOI: 10.1021/Jp907241y
Adsorbate Hydrogen: InChIKey UFHFLCQGNIYNRP-UHFFFAOYSA-N
Temperature: 77 K
Tabular data in the source: 0
pressure (bar)	uptake (wt%)
0.677966	6.3745
1.35593	7.07171
2.37288	7.86853
3.72881	8.66534
4.74576	9.46215
9.83051	11.6534
14.9153	13.247
19.661	14.243
24.7458	15.3386
29.8305	16.3347
34.9153	17.1315
40	17.7291
44.7458	18.2271
49.8305	18.8247
54.5763	19.3227
60	19.6215
64.7458	20.1195
69.4915	20.4183
74.9153	20.8167
80	21.1155
84.7458	21.4143
89.8305	21.7131
94.5763	21.9124
98.9831	22.2112
