Adsorption isotherm of Hydrogen on COF-105
DOI: 10.1021/Jp907241y
Adsorbate Hydrogen: InChIKey UFHFLCQGNIYNRP-UHFFFAOYSA-N
Temperature: 300 K
Tabular data in the source: 0
pressure (bar)	uptake (wt%)
1.65826	0.0634921
2.65558	0.15873
4.31383	0.222222
5.64228	0.31746
8.62767	0.444444
10.6197	0.571429
13.6051	0.698413
15.9282	0.825397
18.9136	0.952381
20.9043	1.04762
23.5599	1.20635
25.883	1.33333
28.8684	1.46032
30.528	1.55556
33.512	1.65079
40.4788	1.96825
43.4642	2.09524
46.4496	2.22222
49.4337	2.31746
50.7634	2.44444
53.7488	2.57143
55.7382	2.63492
58.7236	2.7619
60.713	2.8254
63.6984	2.95238
65.6891	3.04762
68.6744	3.1746
70.9963	3.26984
74.3102	3.33333
75.9697	3.42857
78.9551	3.55556
80.6134	3.61905
83.5988	3.74603
86.2517	3.84127
89.2345	3.90476
90.894	4
93.8781	4.09524
95.8675	4.15873
98.8529	4.28571
99.8476	4.31746
