Adsorption isotherm of Hydrogen on COF-105
DOI: 10.1021/Jp907241y
Adsorbate Hydrogen: InChIKey UFHFLCQGNIYNRP-UHFFFAOYSA-N
Temperature: 77 K
Tabular data in the source: 0
pressure (bar)	uptake (wt%)
1.01695	0.996016
2.0339	1.69323
3.05085	2.78884
4.40678	3.48606
4.74576	3.98406
7.11864	5.47809
10.1695	6.77291
14.5763	8.66534
20.339	10.259
25.0847	11.5538
29.4915	12.6494
34.5763	13.8446
40	14.6414
44.7458	15.4382
49.8305	16.1355
54.9153	16.7331
60	17.3307
64.7458	17.8287
69.8305	18.2271
74.5763	18.7251
80	19.1235
85.0847	19.5219
90.1695	19.8207
94.9153	20.1195
100	20.6175
