Adsorption isotherm of Methane on IRMOF-1
DOI: 10.1039/B807470d
Adsorbate Methane: InChIKey VNWKTOKETHGBQD-UHFFFAOYSA-N
Temperature: 298 K
Tabular data in the source: 0
pressure (bar)	uptake (mmol/g)
5.6681	0.278552
6.64206	0.612813
7.65742	1.0585
8.96261	2.1727
9.45956	3.11978
9.93573	4.17827
