Adsorption isotherm of Methane on CuBTC
DOI: 10.1039/B807470d
Adsorbate Methane: InChIKey VNWKTOKETHGBQD-UHFFFAOYSA-N
Temperature: 298 K
Tabular data in the source: 0
pressure (bar)	uptake (mmol/g)
1.10665	0.146177
10.9952	0.177088
16.6459	0.192428
20.6809	0.273072
23.7076	0.3051
33.5938	0.482352
49.5231	1.34155
56.3725	2.0884
66.847	3.28994
76.9206	4.32895
82.7641	4.88084
89.4155	5.40008
94.8613	5.59432
