Adsorption isotherm of Ethane on CuBTC
DOI: 10.1039/B807470d
Adsorbate Ethane: InChIKey OTMSDBZUPAUEDD-UHFFFAOYSA-N
Temperature: 298 K
Tabular data in the source: 0
pressure (bar)	uptake (mmol/g)
0.0426124	0.501393
2.33401	0.891365
4.35458	1.53203
5.35439	2.39554
5.89591	3.34262
6.39576	4.3454
6.66649	5.09749
6.93723	5.79387
7.14549	6.23955
7.62451	7.29805
8.24936	8.18942
8.97838	8.85794
9.93656	9.4429
