Adsorption isotherm of Nitrogen on CuBTC
DOI: 10.1039/B807470d
Adsorbate Nitrogen: InChIKey IJGRMHOSHXDMSA-UHFFFAOYSA-N
Temperature: 298 K
Tabular data in the source: 0
pressure (bar)	uptake (mmol/g)
56.8102	0.03955
66.6994	0.0379404
76.7903	0.0362979
82.2394	0.035411
86.6797	0.0184282
89.7067	0.0341956
92.3301	0.0500287
