Adsorption isotherm of N-propane on CuBTC
DOI: 10.1039/B807470d
Adsorbate N-propane: InChIKey ATUOYWHBWRKTHZ-UHFFFAOYSA-N
Temperature: 298 K
Tabular data in the source: 0
pressure (bar)	uptake (mmol/g)
0.700578	0.292584
10.5873	0.437316
16.0355	0.48521
20.0717	0.500813
23.2999	0.549068
33.5913	0.628693
43.073	0.854792
49.7314	0.951269
56.3852	1.32417
66.6698	1.8103
76.5538	2.11763
86.4459	1.93716
94.5257	1.51308
