Adsorption isotherm of Carbon Dioxide on CuBTC
DOI: 10.1039/B807470d
Adsorbate Carbon Dioxide: InChIKey CURLTUGMZLYLDI-UHFFFAOYSA-N
Temperature: 298 K
Tabular data in the source: 0
pressure (bar)	uptake (mmol/g)
17.6063	0.351116
25.0588	0.569041
36.8584	1.34711
44.5175	2.16636
49.4852	3.19916
54.8666	4.70454
59.6262	7.24033
65.2136	10.163
69.3525	12.269
74.7338	13.8603
82.1857	15.023
87.3611	15.1111
90.6736	14.8549
93.1583	14.1688
