Adsorption isotherm of Ethane on CuBTC
DOI: 10.1039/B807470d
Adsorbate Ethane: InChIKey OTMSDBZUPAUEDD-UHFFFAOYSA-N
Temperature: 298 K
Tabular data in the source: 0
pressure (bar)	uptake (mmol/g)
1.30956	0.0811037
10.1888	0.128439
16.0418	0.111226
20.8846	0.159218
23.7095	0.191279
33.5984	0.205929
43.2841	0.301913
49.5391	0.382196
56.6008	0.494867
67.0908	0.769582
76.3704	1.01197
86.6621	1.07534
94.7348	1.07402
