Adsorption isotherm of Nitrogen on IRMOF-1
DOI: 10.1039/B807470d
Adsorbate Nitrogen: InChIKey IJGRMHOSHXDMSA-UHFFFAOYSA-N
Temperature: 298 K
Tabular data in the source: 0
pressure (bar)	uptake (mmol/g)
0.71329	0.331492
15.9244	0.331492
23.3244	0.331492
33.1911	0.331492
43.6727	0.497238
53.3313	0.745856
63.1921	1.32597
71.2003	2.1547
82.4898	3.72928
86.5925	4.55801
92.9512	5.88398
99.5231	6.46409
