Adsorption isotherm of N-propane on IRMOF-1
DOI: 10.1039/B807470d
Adsorbate N-propane: InChIKey ATUOYWHBWRKTHZ-UHFFFAOYSA-N
Temperature: 298 K
Tabular data in the source: 0
pressure (bar)	uptake (mmol/g)
1.02544	0.278552
1.62642	0.445682
2.31021	0.779944
2.82823	1.0585
3.28378	1.89415
3.84258	3.50975
4.1937	5.961
4.56504	9.41504
4.95798	11.1421
5.64113	12.7577
6.3247	13.5376
6.94613	14.2618
