Adsorption isotherm of Methane on CuBTC
DOI: 10.1039/B807470d
Adsorbate Methane: InChIKey VNWKTOKETHGBQD-UHFFFAOYSA-N
Temperature: 298 K
Tabular data in the source: 0
pressure (bar)	uptake (mmol/g)
2.35491	0.167131
3.33398	0.194986
4.33387	0.334262
4.93797	0.389972
5.3754	0.612813
5.93783	0.779944
6.62523	1.0585
7.68756	1.67131
8.29162	2.20056
8.68737	2.56267
8.9998	3.03621
