Adsorption isotherm of Nitrogen on IRMOF-1
DOI: 10.1039/B807470d
Adsorbate Nitrogen: InChIKey IJGRMHOSHXDMSA-UHFFFAOYSA-N
Temperature: 298 K
Tabular data in the source: 0
pressure (bar)	uptake (mmol/g)
49.3069	0.125
56.9112	0.09375
66.6267	0.09375
76.3421	0.09375
82.4661	0.125
86.9024	0.09375
91.9703	0.125
94.716	0.125
