Adsorption isotherm of Carbon Dioxide on IRMOF-1
DOI: 10.1039/B807470d
Adsorbate Carbon Dioxide: InChIKey CURLTUGMZLYLDI-UHFFFAOYSA-N
Temperature: 298 K
Tabular data in the source: 0
pressure (bar)	uptake (mmol/g)
10.4461	0.09375
16.1477	0.125
19.9494	0.125
23.5389	0.15625
33.4655	0.15625
49.3059	0.15625
56.9083	0.1875
66.6247	0.15625
76.5475	0.28125
82.4603	0.3125
87.1058	0.34375
91.9645	0.3125
95.1316	0.34375
