Adsorption isotherm of Nitrogen on CuBTC
DOI: 10.1039/B807470d
Adsorbate Nitrogen: InChIKey IJGRMHOSHXDMSA-UHFFFAOYSA-N
Temperature: 298 K
Tabular data in the source: 0
pressure (bar)	uptake (mmol/g)
11.396	0.0907798
25.0591	0.182538
31.8908	0.142527
40.3785	0.189117
44.7259	0.190984
49.6942	0.321953
54.6626	0.409976
61.908	0.756646
69.5672	1.49
77.6405	2.05175
87.3692	3.73077
89.8531	4.24718
95.0281	4.85063
99.5822	5.28203
