Adsorption isotherm of Ethane on IRMOF-1
DOI: 10.1039/B807470d
Adsorbate Ethane: InChIKey OTMSDBZUPAUEDD-UHFFFAOYSA-N
Temperature: 298 K
Tabular data in the source: 0
pressure (bar)	uptake (mmol/g)
10.4461	0.09375
16.1477	0.125
19.9494	0.125
23.5389	0.15625
33.4655	0.15625
49.3059	0.15625
56.6923	0.34375
66.6092	0.65625
77.15	1.28125
81.7858	1.625
87.0679	1.5625
91.9227	1.65625
94.4571	1.65625
