Adsorption isotherm of N-propane on IRMOF-1
DOI: 10.1039/B807470d
Adsorbate N-propane: InChIKey ATUOYWHBWRKTHZ-UHFFFAOYSA-N
Temperature: 298 K
Tabular data in the source: 0
pressure (bar)	uptake (mmol/g)
10.4461	0.09375
16.1477	0.125
19.9494	0.125
23.5389	0.15625
33.4655	0.15625
49.0918	0.25
56.6913	0.375
66.3912	0.875
77.3437	1.84375
82.1907	2.1875
86.4129	2.25
92.3334	2.03125
94.6615	1.875
