Adsorption isotherm of Carbon Dioxide on IRMOF-1
DOI: 10.1039/B807470d
Adsorbate Carbon Dioxide: InChIKey CURLTUGMZLYLDI-UHFFFAOYSA-N
Temperature: 298 K
Tabular data in the source: 0
pressure (bar)	uptake (mmol/g)
33.1835	1.07735
43.2464	1.98895
56.5738	5.30387
61.475	8.45304
66.5624	13.5083
69.2093	15.9945
74.3094	19.8066
76.3548	20.8011
79.4272	21.8785
82.5054	22.3757
86.2029	22.6243
89.7049	21.8785
