Adsorption isotherm of Carbon Dioxide on CuBTC
DOI: 10.1039/B807470d
Adsorbate Carbon Dioxide: InChIKey CURLTUGMZLYLDI-UHFFFAOYSA-N
Temperature: 298 K
Tabular data in the source: 0
pressure (bar)	uptake (mmol/g)
1.30956	0.0811037
9.78594	0.0797241
16.0426	0.0624456
20.2808	0.0617558
23.7117	0.0611973
33.6006	0.0758479
43.2887	0.0254907
49.5448	0.0407325
56.4055	0.104656
66.4951	0.184315
82.4358	0.360581
89.7002	0.42444
94.7438	0.537439
