Adsorption isotherm of Methane on IRMOF-1
DOI: 10.1039/B807470d
Adsorbate Methane: InChIKey VNWKTOKETHGBQD-UHFFFAOYSA-N
Temperature: 298 K
Tabular data in the source: 0
pressure (bar)	uptake (mmol/g)
10.4461	0.09375
16.1477	0.125
19.9494	0.125
23.5379	0.1875
33.2466	0.40625
49.0587	1.3125
56.849	2.09375
66.7124	4.125
76.5428	7.21875
82.4099	8.71875
86.6077	9.5625
89.551	10
94.4009	10.25
