Adsorption isotherm of Ethane on IRMOF-1
DOI: 10.1039/B807470d
Adsorbate Ethane: InChIKey OTMSDBZUPAUEDD-UHFFFAOYSA-N
Temperature: 298 K
Tabular data in the source: 0
pressure (bar)	uptake (mmol/g)
2.35194	0.222841
4.36218	0.612813
5.60533	1.44847
6.16458	2.1727
6.68206	3.50975
7.24053	5.79387
7.65363	8.6351
7.98408	10.9749
8.23204	12.4791
8.62489	14.3733
8.95609	15.2089
9.90857	17.0474
