Adsorption isotherm of N-propane on CuBTC
DOI: 10.1039/B807470d
Adsorbate N-propane: InChIKey ATUOYWHBWRKTHZ-UHFFFAOYSA-N
Temperature: 298 K
Tabular data in the source: 0
pressure (bar)	uptake (mmol/g)
0.0425539	1.08635
1.02159	1.44847
1.584	1.78273
2.33383	2.70195
3.04194	4.23398
3.60423	5.79387
3.79164	6.43454
4.31235	7.18663
5.333	7.96657
5.95791	8.24513
6.70781	8.52368
7.64519	8.74652
