Adsorption isotherm of Water on [Cd(mpto)2.CH3CH2OH]n
DOI: 10.1007/s40242-015-5051-0
Article source: Figure 9a
Adsorbate Water: InChIKey XLYOFNOQVPJJNP-UHFFFAOYSA-N
Kind: experiment
Temperature: 298 K
Tabular data in the source: 0
pressure (bar)	uptake (ml/g)
0	0
0.000227	0.353944
0.000371	1.88707
0.000668	0.42503
0.001108	0.448945
0.001143	2.00557
0.001919	2.33635
0.002097	0.449687
0.003526	0.474345
0.003902	2.59727
0.004954	0.499002
0.005884	2.81102
0.006493	0.547327
0.007866	3.04836
0.007922	0.59557
0.009351	0.643813
0.009847	3.21494
0.010891	0.739308
0.011939	3.40519
0.012433	0.90556
0.013809	3.5481
0.013866	1.14248
0.0153	1.403
0.015899	3.69118
0.016844	1.66359
0.01788	3.83418
0.018389	1.99494
0.01986	3.95359
0.020043	2.30278
0.021478	2.58688
0.02184	4.073
0.023022	2.87106
0.023708	4.12157
0.024566	3.17882
0.025687	4.19381
0.02589	3.43925
0.027324	3.69976
0.027775	4.21896
0.028977	3.93685
0.029751	4.17328
