Adsorption isotherm of Water on [Mn(mpto)2.CH3CH2OH]2
DOI: 10.1007/s40242-015-5051-0
Article source: Figure 9b
Adsorbate Water: InChIKey XLYOFNOQVPJJNP-UHFFFAOYSA-N
Kind: experiment
Temperature: 298 K
Tabular data in the source: 0
pressure (bar)	uptake (ml/g)
0	0
0.00022	47.1233
0.000879	0.730594
0.000989	52.2374
0.001758	56.9863
0.001867	1.09589
0.003405	1.09589
0.003845	59.5434
0.004943	1.82648
0.005822	61.3699
0.006481	2.55708
0.007799	62.4658
0.008019	4.01826
0.009447	6.57534
0.009777	63.5616
0.010875	10.2283
0.011754	63.9269
0.012413	15.3425
0.013731	65.0228
0.015379	31.0502
0.015709	65.3881
0.016917	41.2785
0.017686	66.1187
0.018235	50.411
0.019663	66.1187
0.019883	57.3516
0.021421	61.3699
0.02164	66.8493
0.022849	63.5616
0.023618	66.8493
0.024387	64.6575
0.025705	67.2146
0.025815	65.7534
0.027243	66.484
0.027792	67.5799
0.028781	67.2146
0.029769	67.9452
