Adsorption isotherm of Nitrogen on PSC-Zr0.79La0.21OOH
DOI: 10.1016/j.cej.2017.05.052
Article source: Figure 1a
Adsorbate Nitrogen: InChIKey IJGRMHOSHXDMSA-UHFFFAOYSA-N
Kind: experiment
Temperature: 77 K
Tabular data in the source: 0
pressure (bar)	uptake (cm3(STP)/g)
0	18.054
0.000486	9.155
0.001185	14.271
0.002077	1.368
0.004104	20.778
0.007468	22.39
0.010821	23.724
0.041887	27.278
0.045261	26.943
0.069224	29.163
0.074857	28.495
0.099195	30.27
0.104444	29.712
0.146776	31.706
0.157659	30.592
0.195482	32.475
0.209739	31.749
0.245698	32.799
0.261454	32.017
0.294789	33.624
0.30942	32.564
0.34388	34.281
0.361135	32.721
0.39522	34.104
0.41585	32.821
0.446936	34.317
0.461942	33.257
0.496777	34.696
0.514407	33.302
0.549708	34.998
0.566244	34.154
0.597866	35.199
0.616763	33.864
0.647444	35.399
0.666817	34.204
0.69844	35.389
0.719697	34.194
0.747531	36.29
0.767856	34.745
0.799945	36.35
0.816957	35.576
0.826856	36.415
0.840565	35.431
0.848104	36.761
0.869838	35.846
0.879261	37.035
0.896273	36.401
0.907591	37.73
0.931665	38.356
0.945364	37.653
0.955729	39.403
0.967077	38.139
0.968932	41.152
0.972245	40.31
0.978355	42.972
0.984039	41.849
0.987291	45.913
0.99104	49.066
0.995802	45.421
0.999511	51.587
1.00276	55.931
