Adsorption isotherm of Nitrogen on ZrOOH
DOI: 10.1016/j.cej.2017.05.052
Article source: Figure 1a
Adsorbate Nitrogen: InChIKey IJGRMHOSHXDMSA-UHFFFAOYSA-N
Kind: experiment
Temperature: 77 K
Tabular data in the source: 0
pressure (bar)	uptake (cm3(STP)/g)
0.006961	0.477
0.021197	0.641
0.029819	0.473
0.048929	0.58
0.0643	0.911
0.077046	0.352
0.089407	0.794
0.107777	0
0.129886	0.508
0.165491	0.39
0.180851	0.665
0.217956	0.658
0.234066	0.821
0.268172	0.815
0.281293	0.757
0.318387	0.86
0.337132	0.857
0.368238	0.684
0.387348	0.791
0.419204	0.896
0.437948	0.781
0.469044	1.053
0.487039	0.938
0.521895	1.154
0.538005	0.928
0.572272	1.148
0.586447	0.935
0.627048	1.277
0.638386	1.065
0.673322	1.128
0.687963	0.985
0.725736	1.118
0.738483	1.185
0.774371	1.108
0.791839	1.385
0.81639	1.31
0.839532	1.306
0.867862	1.44
0.892412	1.365
0.918382	1.5
0.935384	1.567
0.949072	1.774
0.977402	1.979
1.00712	4.636
