Adsorption isotherm of Nitrogen on LaOOH
DOI: 10.1016/j.cej.2017.05.052
Article source: Figure 1a
Adsorbate Nitrogen: InChIKey IJGRMHOSHXDMSA-UHFFFAOYSA-N
Kind: experiment
Temperature: 77 K
Tabular data in the source: 0
pressure (bar)	uptake (cm3(STP)/g)
0.000922	3.927
0.007295	4.203
0.020032	4.59
0.036882	5.365
0.050378	5.14
0.065363	5.694
0.085598	5.912
0.106967	5.908
0.132814	6.459
0.168794	6.619
0.184904	6.782
0.217135	7.276
0.23662	7.495
0.26884	7.878
0.28946	7.818
0.318681	8.647
0.335166	8.755
0.369262	9.249
0.387631	9.412
0.420987	9.516
0.440096	9.568
0.473442	10.34
0.491802	10.615
0.522533	10.998
0.542392	11.439
0.574045	11.519
0.591514	12.356
0.625031	12.56
0.645316	14.097
0.670353	13.602
0.700061	16.609
0.718968	15.274
0.754796	19.892
0.771352	17.926
0.803856	24.507
0.816643	21.421
0.834496	28.775
0.848246	23.657
0.850515	32.346
0.865694	26.597
0.881581	40.959
0.890204	30.376
0.904136	50.975
0.914693	35.627
0.92899	65.966
0.943864	45.151
0.955253	82.147
0.966064	86.56
0.968709	61.403
0.973836	67.568
0.976399	91.533
0.984383	95.315
0.987332	84.944
0.996643	96.714
1.00397	117.315
