Adsorption isotherm of Nitrogen on Zr0.79La0.21OOH
DOI: 10.1016/j.cej.2017.05.052
Article source: Figure 1a
Adsorbate Nitrogen: InChIKey IJGRMHOSHXDMSA-UHFFFAOYSA-N
Kind: experiment
Temperature: 77 K
Tabular data in the source: 0
pressure (bar)	uptake (cm3(STP)/g)
0.006961	0.477
0.021197	0.641
0.039192	1.487
0.071787	0.742
0.092579	1.94
0.105224	1.607
0.144791	1.4
0.163677	1.573
0.195949	1.743
0.213346	1.585
0.24586	1.542
0.264038	1.622
0.296086	1.783
0.315196	1.695
0.344985	2.162
0.364104	1.964
0.397835	2.068
0.416387	1.647
0.448344	1.517
0.467383	1.248
0.496523	1.772
0.515562	1.68
0.547691	2.027
0.567318	1.846
0.600633	2.016
0.618486	1.395
0.650605	2.006
0.666077	1.827
0.700578	2.261
0.714854	2.17
0.749355	2.605
0.769589	2.159
0.801708	2.506
0.818366	2.326
0.826694	2.59
0.846321	2.939
0.852268	3.026
0.869524	2.934
0.877255	3.021
0.898076	3.282
0.90522	3.28
0.920094	3.277
0.930794	3.628
0.948039	4.243
0.952203	4.242
0.96648	4.946
0.976581	5.562
0.989064	6.354
0.996198	7.147
1.0033	10.5
