Adsorption isotherm of Oxygen on CPL-2
DOI: 10.1016/j.micromeso.2009.06.023
Adsorbate Oxygen: InChIKey MYMOFIZGZYHOMD-UHFFFAOYSA-N
Temperature: 77 K
Tabular data in the source: 0
pressure (bar)	uptake (molecules/pore)
0.000288284	2.78614
0.000358884	2.24398
0.000619712	0.240964
0.000892308	3.14759
0.00116098	1.08434
0.00282793	3.28313
0.00737576	3.35843
0.0158301	3.43373
0.0249415	3.46386
0.0509714	3.56928
0.0769993	3.68976
0.102374	3.8253
0.1271	3.94578
0.151171	4.09639
0.17198	4.29217
0.187569	4.57831
0.197284	4.96988
