Adsorption isotherm of Carbon Dioxide on CPL-2
DOI: 10.1016/j.micromeso.2009.06.023
Adsorbate Carbon Dioxide: InChIKey CURLTUGMZLYLDI-UHFFFAOYSA-N
Temperature: 195 K
Tabular data in the source: 0
pressure (bar)	uptake (molecules/pore)
0.00537355	1.46084
0.00552518	1.21988
0.01142	1.85241
0.0239109	2.00301
0.0301184	2.13855
0.0363733	2.1988
0.0457463	2.30422
0.061412	2.40964
0.0896824	2.48494
0.10224	2.53012
0.108513	2.56024
0.133637	2.63554
0.155624	2.69578
0.177621	2.74096
0.199617	2.78614
0.221604	2.84639
0.246738	2.90663
0.27189	2.93675
0.290759	2.95181
0.322186	3.01205
0.341055	3.02711
0.369344	3.07229
0.394515	3.07229
0.419658	3.11747
0.466835	3.14759
0.520306	3.17771
0.567473	3.22289
0.627236	3.25301
0.674414	3.28313
0.727884	3.31325
0.775071	3.32831
0.828541	3.35843
0.882001	3.40361
0.935481	3.41867
0.985814	3.43373
