Adsorption isotherm of Xenon on CPL-2
DOI: 10.1016/j.micromeso.2009.06.023
Adsorbate Xenon: InChIKey FHNFHKCVQCLJFQ-UHFFFAOYSA-N
Temperature: 195 K
Tabular data in the source: 0
pressure (bar)	uptake (molecules/pore)
0.00954303	1.37048
0.00985981	1.25
0.0111269	0.768072
0.0125525	0.225904
0.0354399	1.52108
0.0484279	1.58133
0.0746416	1.61145
0.113962	1.65663
0.258573	1.65663
0.37689	1.65663
0.534766	1.61145
0.679139	1.70181
0.82375	1.70181
0.994732	1.67169
