Adsorption isotherm of Nitrogen on CPL-2
DOI: 10.1016/j.micromeso.2009.06.023
Adsorbate Nitrogen: InChIKey IJGRMHOSHXDMSA-UHFFFAOYSA-N
Temperature: 77 K
Tabular data in the source: 0
pressure (bar)	uptake (molecules/pore)
0.00515841	1.77719
0.00780375	2.56036
0.00796436	2.30434
0.0139825	2.71105
0.0170435	2.83158
0.0170719	2.7864
0.0232695	2.90697
0.0326322	2.98241
0.038877	3.02769
0.0545129	3.10322
0.079568	3.16384
0.107779	3.19438
0.129726	3.20977
0.157946	3.22525
0.183029	3.24068
0.211249	3.25616
0.236333	3.2716
0.264553	3.28708
0.292773	3.30256
0.34294	3.33343
0.39939	3.34933
0.449557	3.3802
0.506006	3.3961
0.556173	3.42697
0.612613	3.45793
0.66278	3.4888
0.716084	3.51971
0.766251	3.55058
0.819545	3.59656
0.87283	3.65759
0.919813	3.76372
0.963612	3.94509
