Adsorption isotherm of Nitrogen on UiO-66-NH2
DOI: 10.1002/adma.202201502
Article source: Table
Adsorbate Nitrogen: InChIKey IJGRMHOSHXDMSA-UHFFFAOYSA-N
Kind: experiment
Temperature: 77 K
Tabular data in the source: 0
pressure (bar)	uptake (cm3(STP)/g)
1e-06	19.5369
2e-06	39.2633
6e-06	58.8985
1.1e-05	78.5368
2.1e-05	98.1616
4.2e-05	117.773
8.9e-05	137.365
0.000195	156.893
0.000447	176.346
0.001002	194.983
0.001947	210.942
0.002953	221.457
0.003997	229.297
0.004877	234.449
0.006023	239.963
0.006926	243.625
0.008019	247.507
0.009001	250.645
0.010065	253.724
0.019351	275.105
0.029519	293.921
0.038939	310.312
0.051502	325.711
0.058116	331.611
0.070747	340.196
0.081337	345.455
0.091792	349.261
0.102208	352.216
0.147537	360.647
0.207046	367.217
0.260226	371.572
0.311522	375.18
0.36002	378.274
0.405744	380.993
0.456436	383.837
0.507195	386.595
0.557924	389.326
0.608424	392.136
0.659316	395.114
0.710065	398.4
0.759472	402.012
0.809624	406.486
0.820495	407.799
0.831775	409.045
0.841183	410.199
0.851654	411.533
0.8614	412.867
0.871407	414.365
0.881856	416.064
0.891724	417.867
0.90183	419.924
0.911618	422.216
0.922285	425.041
0.932769	428.25
0.942051	431.883
0.951671	436.345
0.961354	442.354
0.971712	450.963
0.981361	463.104
0.990363	482.262
0.999245	513.238
1.00607	555.957
