Adsorption isotherm of Nitrogen on MCM-41
DOI: 10.1002/adma.202201502
Article source: Table
Adsorbate Nitrogen: InChIKey IJGRMHOSHXDMSA-UHFFFAOYSA-N
Kind: experiment
Temperature: 77 K
Tabular data in the source: 0
pressure (bar)	uptake (cm3(STP)/g)
0.00992	141.85
0.013172	147.3
0.017217	153.9
0.022285	161.7
0.030384	172.9
0.040184	183.788
0.056765	197.1
0.07224	206.89
0.106318	225.112
0.131418	236.616
0.16208	249.475
0.194286	262.327
0.225554	274.802
0.256288	287.723
0.287791	303.513
0.309178	320.3
0.3202	333.943
0.338295	392.7
0.348518	420.773
0.377934	458.9
0.433217	493.679
0.453507	495.091
0.483214	496.975
0.506357	498.291
0.536878	499.888
0.56801	501.384
0.599047	502.776
0.630119	504.132
0.661434	505.412
0.692322	506.643
0.723407	507.858
0.754429	509.086
0.785398	510.351
0.817478	511.668
0.847634	512.973
0.878507	514.441
0.909114	516.307
0.950296	520.878
