Adsorption isotherm of Nitrogen on IRMOF-1
DOI: 10.1002/adma.202201502
Article source: Table
Adsorbate Nitrogen: InChIKey IJGRMHOSHXDMSA-UHFFFAOYSA-N
Kind: experiment
Temperature: 77 K
Tabular data in the source: 0
pressure (bar)	uptake (cm3(STP)/g)
4.9e-05	1.036
0.000104	1.90804
0.000154	2.15571
0.000196	2.70102
0.000231	3.15102
0.000266	3.80533
0.000344	17.8542
0.000416	37.6792
0.000442	44.4798
0.000538	64.2932
0.000691	83.5137
0.000836	91.8364
0.001032	98.6779
0.001406	112.605
0.001777	124.388
0.00211	134.337
0.002669	154.113
0.003137	173.926
0.003467	190.692
0.003787	210.479
0.004043	230.263
0.004259	250.025
0.004443	269.787
0.004611	289.523
0.004764	309.269
0.004895	329.018
0.005025	348.724
0.00515	368.449
0.005268	388.165
0.005395	407.835
0.005525	427.54
0.005647	447.224
0.005775	466.945
0.005951	486.604
0.006136	506.438
0.006361	526.084
0.006625	545.771
0.006961	565.404
0.007375	585.064
0.007944	604.602
0.008648	623.844
0.009664	643.198
0.010859	659.897
0.012885	679.317
0.013534	683.812
0.017006	703.156
0.017419	704.637
0.021951	719.761
0.029949	736.58
0.037994	747.287
0.044397	753.546
0.057102	763.026
0.075995	772.765
0.095877	780.029
0.122948	787.346
0.150675	793.224
0.189137	800
0.236555	807.523
0.296521	816.234
0.381866	825.795
0.483596	831.283
0.564854	832.901
0.630571	833.317
0.672483	833.227
0.71328	832.993
0.753944	832.691
0.794626	832.312
0.821107	831.949
0.846777	831.671
0.872632	831.31
0.898282	830.969
0.948431	830.323
0.975297	830.02
1.00106	829.895
