Adsorption isotherm of Nitrogen on UiO-66
DOI: 10.1002/adma.202201502
Article source: Table
Adsorbate Nitrogen: InChIKey IJGRMHOSHXDMSA-UHFFFAOYSA-N
Kind: experiment
Temperature: 77 K
Tabular data in the source: 0
pressure (bar)	uptake (cm3(STP)/g)
0	2.51421
0	5.03725
0	7.55825
1e-06	10.0859
1e-06	12.5973
1e-06	15.1046
1e-06	17.6388
1e-06	20.1634
2e-06	22.6913
3e-06	25.2215
4e-06	27.7319
5e-06	30.2541
7e-06	32.7757
9e-06	35.2992
1.2e-05	37.8351
1.5e-05	40.3645
1.8e-05	42.8806
2.2e-05	45.4115
2.6e-05	47.9454
2.9e-05	50.4589
3.3e-05	52.9952
3.7e-05	55.5098
4.1e-05	58.0454
4.5e-05	60.5875
4.8e-05	63.1276
5.2e-05	65.6682
5.6e-05	68.203
5.9e-05	70.7494
6.3e-05	73.2719
6.7e-05	75.7998
7.2e-05	78.3309
7.6e-05	80.8654
8.1e-05	83.3858
8.6e-05	85.9259
9.1e-05	88.4503
9.7e-05	90.9802
0.000103	93.5077
0.00011	96.0294
0.000117	98.5676
0.000126	101.098
0.000134	103.644
0.000144	106.172
0.000154	108.699
0.000166	111.219
0.000177	113.744
0.000191	116.274
0.000206	118.799
0.000222	121.325
0.00024	123.848
0.00026	126.378
0.000282	128.905
0.000306	131.428
0.000333	133.966
0.000362	136.488
0.000395	139.008
0.000431	141.532
0.00047	144.039
0.000514	146.548
0.000563	149.06
0.000617	151.57
0.000677	154.061
0.000743	156.534
0.000816	158.995
0.000895	161.444
0.000982	163.872
0.001196	168.6
0.001388	172.5
0.001682	177.7
0.00201	182.643
0.002514	188.8
0.003017	193.956
0.003952	202.086
0.004967	209.48
0.005825	214.955
0.006906	220.954
0.008037	226.471
0.009027	230.793
0.010056	234.943
0.012378	242
0.015548	250.3
0.020931	260.212
0.02954	267.667
0.043609	274.492
0.056823	278.478
0.06093	279.479
0.071242	281.616
0.08151	283.398
0.091366	284.871
0.101878	286.245
0.112029	287.446
0.1222	288.518
0.132316	289.501
0.141951	290.39
0.152367	291.264
0.162635	292.051
0.172929	292.805
0.18235	293.487
0.193172	294.209
0.202956	294.826
0.213122	295.439
0.223409	296.031
0.233629	296.586
0.244038	297.154
0.253888	297.665
0.26425	298.182
0.273153	298.636
0.284016	299.134
0.294548	299.612
0.304146	300
0.323467	300.844
0.345464	301.743
0.36572	302.537
0.385745	303.296
0.406398	304.066
0.426678	304.795
0.446554	305.508
0.466986	306.227
0.485776	306.926
0.507317	307.676
0.526176	308.373
0.548157	309.113
0.566555	309.806
0.588554	310.577
0.608729	311.301
0.628872	312.02
0.649438	312.783
0.66934	313.537
0.689493	314.357
0.708761	315.23
0.728943	316.191
0.749305	317.191
0.769708	318.301
0.789973	319.48
0.81024	320.762
0.819768	321.467
0.831645	322.313
0.840727	323.057
0.850373	323.915
0.861775	324.914
0.872034	325.976
0.880865	326.946
0.892434	328.291
0.901643	329.5
0.912815	331.125
0.921438	332.582
0.931496	334.498
0.941518	336.777
0.951623	339.622
0.961705	343.327
0.999332	404.226
1.00284	439.351
1.00535	501.973
