Adsorption isotherm of Nitrogen on MIL-100
DOI: 10.1002/adma.202201502
Article source: Table
Adsorbate Nitrogen: InChIKey IJGRMHOSHXDMSA-UHFFFAOYSA-N
Kind: experiment
Temperature: 77 K
Tabular data in the source: 0
pressure (bar)	uptake (cm3(STP)/g)
0.001048	197.129
0.001123	199.524
0.001204	202.082
0.001291	204.812
0.001383	207.723
0.001483	210.823
0.00159	214.122
0.001704	217.626
0.001827	221.342
0.001958	225.275
0.002099	229.427
0.00225	233.799
0.002412	238.386
0.002586	243.179
0.002772	248.161
0.002972	253.307
0.003185	258.581
0.003415	263.934
0.00366	269.296
0.003924	274.578
0.004206	279.66
0.004509	284.388
0.004833	288.564
0.005181	292.092
0.005554	295.488
0.005954	298.803
0.006382	302.014
0.006842	305.107
0.007334	308.071
0.007862	310.907
0.008428	313.635
0.009034	316.293
0.009685	318.952
0.010382	321.623
0.011129	324.288
0.01193	326.939
0.012788	329.57
0.013709	332.182
0.014695	334.783
0.015753	337.391
0.016887	340.041
0.018102	342.79
0.019405	345.701
0.020801	348.674
0.022298	351.682
0.023903	354.729
0.025623	357.829
0.027468	361.007
0.029444	364.303
0.031563	367.757
0.033835	371.106
0.03627	374.459
0.038881	378.203
0.041679	382.88
0.044678	388.544
0.047894	395.508
0.051341	404.619
0.055036	416.005
0.058997	424.172
0.063243	430.917
0.067794	436.115
0.072673	440.087
0.077904	445.298
0.08351	451.435
0.089521	458.598
0.095964	466.446
0.10287	472.619
0.110274	479.666
0.11821	491.159
0.126717	506.19
0.135837	523.444
0.145614	530.634
0.156093	533.161
0.167327	536.335
0.17937	540.586
0.192279	541.081
0.206117	543.618
0.220952	543.785
0.236854	545.891
0.2539	548.854
0.272173	549.487
0.291761	551.577
0.312759	552.569
0.335269	553.507
0.359398	555.523
0.385264	556.66
0.412991	558.336
0.442714	559.624
0.474576	560.132
0.508731	562.136
0.545345	563.958
0.584593	564.525
0.626666	565.805
0.671768	566.643
0.720115	568.492
0.771941	570.978
0.827498	571.492
0.887053	572.483
0.950894	574.941
