Adsorption isotherm of Nitrogen on NU-1000
DOI: 10.1002/adma.202201502
Article source: Table
Adsorbate Nitrogen: InChIKey IJGRMHOSHXDMSA-UHFFFAOYSA-N
Kind: experiment
Temperature: 77 K
Tabular data in the source: 0
pressure (bar)	uptake (cm3(STP)/g)
0.003882	245.411
0.004953	260.7
0.005822	280.193
0.006566	310.4
0.006726	318.6
0.0073	344.6
0.007764	355.556
0.009327	364.1
0.011644	371.014
0.013571	377.9
0.018782	394.8
0.021349	401.932
0.029112	419.324
0.050461	448.309
0.067689	463
0.081513	473.43
0.100921	488.889
0.110625	494.686
0.12227	504.348
0.135493	515.5
0.149441	527.536
0.163026	539.13
0.170789	546.86
0.180492	556.522
0.190197	566.184
0.199901	583.575
0.202131	600.2
0.203783	614.493
0.207664	643.478
0.209605	660.87
0.211224	678.2
0.213487	693.72
0.227072	699.517
0.27171	707.246
0.302762	709.179
0.337696	713.043
0.362927	716.908
0.407565	720.773
0.456084	724.638
0.510426	726.57
0.537597	728.502
0.562828	730.435
0.611347	730.435
0.663749	734.3
0.714209	736.232
0.745262	738.164
0.770493	738.164
0.817071	742.029
0.867531	742.029
0.916051	745.894
0.952925	747.826
1.01309	757.488
