Adsorption isotherm of Nitrogen on NU-1105
DOI: 10.1002/adma.202201502
Article source: Table
Adsorbate Nitrogen: InChIKey IJGRMHOSHXDMSA-UHFFFAOYSA-N
Kind: experiment
Temperature: 77 K
Tabular data in the source: 0
pressure (bar)	uptake (cm3(STP)/g)
0.000147	42.426
0.000231	66.6694
0.000252	72.7303
0.000294	84.852
0.000315	90.9128
0.000358	103.035
0.000442	127.278
0.003973	145.501
0.004057	169.745
0.004204	212.171
0.004288	236.414
0.004372	260.658
0.007883	272.82
0.007946	291.003
0.011457	303.166
0.014989	321.389
0.018563	351.734
0.022074	363.897
0.025605	382.12
0.029116	394.283
0.032647	412.507
0.036179	430.73
0.03969	442.893
0.04318	448.995
0.046711	467.218
0.050222	479.381
0.053733	491.543
0.053774	503.665
0.057285	515.828
0.060775	521.93
0.067754	534.133
0.071265	546.296
0.078265	564.56
0.081755	570.662
0.085286	588.886
0.088776	594.988
0.092308	613.211
0.099329	637.536
0.106329	655.801
0.116861	692.289
0.130799	710.635
0.134352	734.92
0.141374	759.245
0.151864	783.611
0.162353	807.977
0.179781	832.426
0.193781	868.955
0.207719	887.301
0.218188	905.606
0.225167	917.81
0.2287	936.033
0.235699	954.298
0.239273	984.643
0.242826	1008.93
0.24291	1033.17
0.242994	1057.41
0.246526	1075.64
0.246631	1105.94
0.250163	1124.17
0.260694	1160.65
0.267653	1166.8
0.278122	1185.1
0.28506	1185.18
0.28857	1197.35
0.299018	1209.59
0.309466	1221.84
0.323382	1234.12
0.333852	1252.43
0.351237	1264.75
0.361664	1270.94
0.372091	1277.12
0.392944	1289.49
0.40684	1295.71
0.420736	1301.94
0.431141	1302.06
0.448505	1308.33
0.469338	1314.63
0.490172	1320.94
0.504067	1327.16
0.524879	1327.41
0.545732	1339.78
0.556138	1339.9
0.566545	1340.02
0.573481	1340.1
0.590845	1346.37
0.604721	1346.53
0.639428	1353
0.663729	1359.35
0.701906	1365.86
0.722718	1366.11
0.746998	1366.4
0.774747	1366.72
0.774768	1372.78
0.802538	1379.17
0.830287	1379.5
0.833778	1385.6
0.868464	1386.01
0.903192	1398.54
0.927472	1398.83
0.930962	1404.93
0.969117	1405.38
0.979544	1411.56
0.979566	1417.63
0.99346	1423.85
1.00391	1436.09
1.0074	1442.2
