Adsorption isotherm of Nitrogen on NU-1104
DOI: 10.1002/adma.202201502
Article source: Table
Adsorbate Nitrogen: InChIKey IJGRMHOSHXDMSA-UHFFFAOYSA-N
Kind: experiment
Temperature: 77 K
Tabular data in the source: 0
pressure (bar)	uptake (cm3(STP)/g)
0.00258	85.6082
0.005159	238.784
0.006372	261.9
0.007739	279.347
0.009142	295.4
0.010318	306.397
0.012898	324.438
0.015477	342.478
0.018057	347.005
0.020637	378.559
0.023217	396.6
0.025796	410.136
0.028375	441.69
0.030955	459.731
0.033535	468.763
0.036114	477.794
0.038694	491.331
0.041274	504.867
0.046432	522.93
0.051592	559.011
0.054171	572.547
0.056751	581.579
0.059331	599.62
0.06191	640.183
0.064489	667.233
0.067069	676.264
0.069649	707.818
0.072229	730.364
0.074808	752.909
0.077388	811.49
0.079967	829.531
0.082546	852.076
0.085126	892.639
0.087706	906.175
0.092865	942.256
0.095445	960.297
0.098024	978.338
0.100604	991.874
0.103184	1000.91
0.105763	1014.44
0.108343	1027.98
0.113502	1041.54
0.116081	1059.58
0.12124	1086.65
0.12382	1091.18
0.1264	1104.71
0.12898	1118.25
0.131559	1127.28
0.134138	1136.31
0.136718	1154.35
0.139298	1167.89
0.144457	1181.45
0.147037	1190.48
0.152195	1204.04
0.154775	1208.57
0.157355	1222.1
0.162513	1231.16
0.165094	1244.69
0.167674	1253.72
0.170252	1262.76
0.175412	1285.32
0.177992	1294.35
0.18057	1307.89
0.183151	1321.43
0.185731	1334.96
0.188309	1348.5
0.19089	1362.06
0.193469	1371.04
0.196049	1411.63
0.198627	1452.19
0.201208	1524.29
0.203787	1542.33
0.206367	1564.87
0.208947	1578.41
0.211526	1591.95
0.214106	1609.99
0.216685	1628.03
0.219265	1641.56
0.221844	1650.6
0.227004	1664.15
0.229583	1673.19
0.234743	1700.26
0.237322	1713.79
0.242481	1722.85
0.245061	1727.38
0.25538	1736.48
0.263118	1741.05
0.268277	1750.1
0.273437	1754.65
0.276015	1754.67
0.281175	1759.22
0.286333	1763.77
0.288914	1763.8
0.294073	1763.84
0.301812	1768.41
0.30439	1772.94
0.31213	1773.01
0.31471	1777.54
0.319869	1777.58
0.325028	1782.13
0.330187	1782.18
0.335346	1782.22
0.348244	1786.84
0.355983	1791.41
0.361143	1791.46
0.368881	1796.03
0.37404	1796.07
0.381778	1796.14
0.386938	1800.69
0.392097	1800.74
0.407575	1800.87
0.412734	1800.92
0.417893	1800.96
0.430791	1801.08
0.438531	1805.65
0.446268	1805.72
0.461746	1810.36
0.472064	1810.45
0.495281	1815.16
0.508178	1819.77
0.518497	1819.87
0.523656	1819.91
0.531395	1824.48
0.536554	1824.53
0.544294	1824.6
0.549452	1824.64
0.557191	1824.71
0.567509	1824.8
0.577827	1824.89
0.588145	1829.49
0.601044	1834.1
0.608783	1834.17
0.619101	1834.26
0.631998	1834.37
0.639738	1838.95
0.644897	1838.99
0.662954	1843.66
0.670692	1843.72
0.681011	1843.81
0.696489	1843.95
0.699069	1843.97
0.711965	1848.59
0.719704	1848.66
0.724864	1848.7
0.742921	1848.86
0.745501	1848.88
0.755819	1848.97
0.763558	1849.04
0.773876	1849.13
0.779035	1849.18
0.784195	1853.73
0.789353	1853.77
0.794513	1853.82
0.80741	1853.93
0.828048	1854.11
0.843525	1858.75
0.851264	1858.82
0.859002	1858.89
0.87448	1863.53
0.879639	1863.57
0.889958	1863.67
0.897696	1863.73
0.915753	1863.89
0.969925	1868.87
0.977663	1868.94
1.00088	1873.65
1.00604	1878.2
