Adsorption isotherm of Nitrogen on Mg-MOF-74
DOI: 10.1002/adma.202201502
Article source: Table
Adsorbate Nitrogen: InChIKey IJGRMHOSHXDMSA-UHFFFAOYSA-N
Kind: experiment
Temperature: 77 K
Tabular data in the source: 0
pressure (bar)	uptake (cm3(STP)/g)
3.5e-05	2.67973
5.9e-05	3.33732
8.4e-05	9.38407
0.000108	29.275
0.000127	49.1668
0.000146	69.0553
0.000166	88.934
0.00019	108.805
0.000212	117.643
0.000266	123.382
0.00033	143.255
0.000399	163.055
0.000407	166.149
0.000466	177.7
0.000549	185.866
0.000659	188.426
0.00087	194.449
0.001145	201.05
0.00137	204.545
0.001651	207.859
0.002076	211.851
0.002708	216.356
0.00345	219.856
0.004292	222.369
0.005298	224.474
0.006895	227.019
0.008786	229.092
0.010743	230.66
0.01374	232.492
0.017746	234.253
0.022273	235.694
0.028166	237.144
0.036029	238.641
0.045685	240.064
0.057841	241.482
0.074831	242.98
0.094743	244.418
0.11948	245.849
0.150408	247.347
0.189937	248.942
0.239875	250.673
0.30501	252.576
0.381135	254.571
0.482001	256.971
0.547134	258.31
0.611015	259.576
0.652896	260.291
0.693285	260.927
0.733995	261.538
0.77448	262.216
0.801083	262.679
0.826798	263.154
0.852409	263.725
0.878308	264.36
0.926804	266
0.955385	267.34
0.980556	269.159
