Adsorption isotherm of Nitrogen on NU-1102
DOI: 10.1002/adma.202201502
Article source: Table
Adsorbate Nitrogen: InChIKey IJGRMHOSHXDMSA-UHFFFAOYSA-N
Kind: experiment
Temperature: 77 K
Tabular data in the source: 0
pressure (bar)	uptake (cm3(STP)/g)
0.009723	19.41
0.009739	38.89
0.010047	88.27
0.010527	141.52
0.011178	234
0.011704	318.5
0.012255	390.4
0.012689	419.91
0.014274	450.63
0.015622	477.63
0.017919	512.55
0.018795	556.89
0.019826	592.81
0.020621	627.73
0.02086	649.53
0.022524	673.56
0.024345	691.89
0.025771	706.26
0.027909	734.5
0.030364	756.8
0.033057	778.85
0.03562	802.93
0.037756	822.2
0.043598	842.26
0.048875	867.44
0.055471	888.88
0.060434	908.95
0.0632	936.48
0.068792	962.64
0.075262	993.91
0.081357	1024.59
0.085127	1047.01
0.091785	1063.54
0.098883	1088.92
0.106923	1106.24
0.117349	1131.24
0.136757	1165.69
0.154845	1192.87
0.163324	1200.36
0.209921	1222.5
0.229389	1227.66
0.250867	1231.85
0.260349	1234.82
0.27316	1237.61
0.294888	1243.17
0.313854	1244.6
0.338659	1248.6
0.364092	1252.79
0.388395	1255.42
0.413953	1258.83
0.439889	1261.25
0.466264	1263.68
0.491258	1264.14
0.517068	1267.36
0.542439	1271.55
0.593744	1274.44
0.619311	1278.79
0.670348	1281.73
0.695668	1282.43
0.721088	1284.99
0.773024	1285.44
0.798544	1287.38
0.823864	1288.08
0.849982	1289.71
0.901019	1290.47
0.906703	1291.73
0.924048	1293.02
0.957342	1295.3
