Adsorption isotherm of Nitrogen on CuBTC
DOI: 10.1002/adma.202201502
Article source: Table
Adsorbate Nitrogen: InChIKey IJGRMHOSHXDMSA-UHFFFAOYSA-N
Kind: experiment
Temperature: 77 K
Tabular data in the source: 0
pressure (bar)	uptake (cm3(STP)/g)
0	29.2422
1e-06	58.6914
1e-06	88.1823
2e-06	117.771
4e-06	147.021
2e-05	176.627
3e-05	188.1
4e-05	197.3
4.9e-05	205.734
6.1e-05	219.4
7.3e-05	234.899
8.1e-05	247.5
9.2e-05	263.906
0.000124	292.899
0.000172	309.4
0.000243	320.839
0.000476	333.9
0.001044	346.752
0.002037	351.561
0.003086	354.006
0.004001	355.426
0.004894	356.484
0.005991	357.525
0.006996	358.317
0.008051	359.036
0.009055	359.633
0.010082	360.2
0.019826	363.856
0.029763	366.721
0.040098	369.6
0.053752	373.587
0.060575	375.548
0.071217	377.661
0.081447	379.273
0.091895	380.715
0.1022	381.989
0.147507	386.47
0.204388	390.405
0.259289	393.273
0.310414	395.433
0.360441	396.995
0.40602	398.472
0.456972	399.931
0.507549	401.229
0.558027	402.389
0.608497	403.447
0.659042	404.438
0.708676	405.32
0.75936	406.162
0.810184	406.977
0.821344	407.276
0.831625	407.439
0.841252	407.588
0.851749	407.741
0.861354	407.871
0.871537	408.01
0.882071	408.164
0.892105	408.312
0.902149	408.441
0.912012	408.576
0.921942	408.727
0.932604	408.878
0.942499	409.027
0.952524	409.168
0.96227	409.337
0.972552	409.498
0.982141	409.673
0.992247	409.882
1.00237	410.101
1.01164	410.547
