Adsorption isotherm of Nitrogen on DMOF-1
DOI: 10.1002/adma.202201502
Article source: Table
Adsorbate Nitrogen: InChIKey IJGRMHOSHXDMSA-UHFFFAOYSA-N
Kind: experiment
Temperature: 77 K
Tabular data in the source: 0
pressure (bar)	uptake (cm3(STP)/g)
4.8e-05	0.291525
9.8e-05	0.576831
0.000125	0.620049
0.00013	0.658136
0.000167	0.952826
0.00022	5.9964
0.000261	15.9663
0.000283	25.9374
0.000305	35.9062
0.000327	45.8747
0.000356	56.1855
0.000374	66.1525
0.000389	76.1194
0.000399	86.0866
0.000416	96.0527
0.000437	106.022
0.000439	115.991
0.00044	125.956
0.000453	135.92
0.000454	155.853
0.000466	212.5
0.000476	242.8
0.000486	263.6
0.000502	293.589
0.000513	312.603
0.00053	322.559
0.000569	332.508
0.00062	351.476
0.000773	361.397
0.00106	371.29
0.001357	376.7
0.001713	381.172
0.00223	385.8
0.002868	390.919
0.003393	396.201
0.004005	406.052
0.004398	415.523
0.005436	425.145
0.006687	430.69
0.00852	435.144
0.010788	438.35
0.013657	440.784
0.017631	442.841
0.022329	444.346
0.029255	445.708
0.038451	446.804
0.043794	447.246
0.057077	448.001
0.076708	448.672
0.098029	449.124
0.122671	449.47
0.150066	449.732
0.184517	449.965
0.233248	450.201
0.297924	450.436
0.381137	450.67
0.481445	450.957
0.546785	451.201
0.61088	451.544
0.652647	451.874
0.693027	452.334
0.733265	453.015
0.772544	454.126
0.79986	455.385
0.825816	457.081
0.851278	459.277
0.876676	462.03
0.942357	467.33
0.971555	467.786
0.996408	468.348
