Adsorption isotherm of Nitrogen on TPB-DMTP-COF
DOI: 10.1002/adma.202201502
Article source: Table
Adsorbate Nitrogen: InChIKey IJGRMHOSHXDMSA-UHFFFAOYSA-N
Kind: experiment
Temperature: 77 K
Tabular data in the source: 0
pressure (bar)	uptake (cm3(STP)/g)
0.001688	196.982
0.00197	204.596
0.002907	225.785
0.004018	245.531
0.004932	259.249
0.005802	270.594
0.006881	282.958
0.007999	294.274
0.009018	303.402
0.010018	311.533
0.012157	325.7
0.014181	337.7
0.019452	364.28
0.023311	380.5
0.029232	402.005
0.038748	432.055
0.05068	465.046
0.057815	483.043
0.069916	511.318
0.080101	533.223
0.090106	553.511
0.100213	572.689
0.119404	606.25
0.139759	638.703
0.160745	670.077
0.18078	700.003
0.199834	730.806
0.217198	773.984
0.227903	892.8
0.238459	999.326
0.271829	1042.28
0.299767	1060.15
0.33044	1078.69
0.346874	1087.51
0.3648	1096.14
0.385397	1105.53
0.405224	1114.12
0.454238	1134.84
0.506666	1156.09
0.556675	1176.26
0.607681	1197.33
0.657933	1219.07
0.708619	1242.6
0.759561	1269.76
0.809363	1301.44
0.858924	1344.86
0.908182	1413.55
0.958691	1564.01
1.01135	2313.94
