Adsorption isotherm of Nitrogen on Aluminum fumarate
DOI: 10.1002/adma.202201502
Article source: Table
Adsorbate Nitrogen: InChIKey IJGRMHOSHXDMSA-UHFFFAOYSA-N
Kind: experiment
Temperature: 77 K
Tabular data in the source: 0
pressure (bar)	uptake (cm3(STP)/g)
6.6e-05	0.178173
9.6e-05	0.349631
0.000142	0.599944
0.000171	1.15515
0.000215	3.03911
0.00026	22.9596
0.00029	42.8873
0.000323	62.806
0.000333	63.5863
0.000402	67.5014
0.000433	87.4391
0.000465	107.325
0.000518	127.186
0.000588	145.276
0.000646	156.142
0.000902	175.838
0.001033	182.528
0.001373	190.539
0.001654	195.273
0.00214	200.351
0.002633	203.99
0.003342	208.065
0.004427	212.166
0.0053	214.688
0.006868	218.058
0.008586	220.905
0.010904	223.99
0.014264	227.137
0.017251	229.349
0.022432	232.301
0.028291	234.889
0.036004	237.453
0.045322	239.848
0.057616	242.313
0.075629	244.988
0.095698	247.283
0.121521	249.593
0.151846	251.76
0.191106	254.05
0.240757	256.44
0.306422	259.24
0.380723	262.296
0.480679	266.757
0.54606	270.347
0.610605	274.671
0.652572	278.143
0.693163	282.08
0.733504	286.64
0.773681	292.059
0.801083	296.302
0.826436	300.722
0.851714	305.775
0.877194	311.738
0.929221	330.684
0.95287	346.424
0.974726	368.415
0.983572	381.535
