Adsorption isotherm of Nitrogen on ZIF-8
DOI: 10.1002/adma.202201502
Article source: Table
Adsorbate Nitrogen: InChIKey IJGRMHOSHXDMSA-UHFFFAOYSA-N
Kind: experiment
Temperature: 77 K
Tabular data in the source: 0
pressure (bar)	uptake (cm3(STP)/g)
4.3e-05	20.349
0.000101	40.698
0.00015	60.914
0.000191	81.263
0.000227	101.612
0.000263	122.094
0.000304	142.31
0.000354	162.26
0.000423	183.54
0.000528	203.49
0.000694	223.44
0.000962	243.39
0.001442	263.34
0.001956	275.31
0.002976	288.61
0.003922	295.26
0.005011	301.91
0.005807	305.9
0.006788	312.55
0.008161	323.19
0.00901	328.51
0.009911	332.5
0.021022	356.44
0.029497	364.42
0.038669	400.33
0.049001	413.63
0.064619	420.28
0.070701	421.61
0.081104	424.27
0.091277	425.6
0.101761	428.26
0.146949	433.58
0.205396	438.9
0.258237	442.89
0.30939	446.88
0.359083	449.54
0.40456	452.2
0.455368	454.86
0.506039	457.52
0.556407	460.18
0.607498	462.84
0.657565	465.5
0.708318	468.16
0.758888	470.82
0.809834	474.81
0.819958	476.14
0.830173	476.14
0.840255	477.47
0.850526	478.8
0.861439	480.13
0.870965	481.46
0.880595	482.79
0.890713	484.12
0.901323	485.45
0.911548	488.11
0.921919	489.44
0.932043	492.1
0.941459	494.76
0.951498	498.75
0.961457	502.74
0.971796	509.39
0.981892	517.37
0.991036	529.34
1.00006	549.29
1.00763	585.2
