Adsorption isotherm of Nitrogen on PCN-777
DOI: 10.1002/adma.202201502
Article source: Table
Adsorbate Nitrogen: InChIKey IJGRMHOSHXDMSA-UHFFFAOYSA-N
Kind: experiment
Temperature: 77 K
Tabular data in the source: 0
pressure (bar)	uptake (cm3(STP)/g)
0.002917	120.229
0.005833	173.643
0.010208	221.693
0.018959	261.669
0.023333	280.32
0.036459	306.875
0.048125	322.759
0.067084	346.566
0.088959	370.334
0.096251	380.93
0.110834	394.103
0.128334	415.256
0.151667	436.333
0.170626	454.795
0.191044	473.237
0.21146	494.352
0.231877	515.467
0.249377	531.275
0.272711	555.025
0.293127	578.813
0.307711	610.694
0.315002	618.617
0.322294	629.213
0.32667	637.174
0.333961	645.096
0.33542	650.423
0.341252	661.037
0.34417	666.344
0.350003	679.632
0.35292	692.957
0.360211	826.492
0.36167	834.491
0.363128	928.013
0.393754	1341.87
0.399587	1352.48
0.406879	1363.08
0.408337	1395.13
0.424378	1400.27
0.457921	1405.18
0.497296	1410.01
0.525005	1414.99
0.574588	1419.69
0.619797	1421.78
0.641672	1426.84
0.736466	1428.28
0.762715	1433.28
0.786049	1438.32
0.834174	1440.37
0.872091	1442.55
0.911466	1447.38
