Adsorption isotherm of Nitrogen on Zeolite 13X
DOI: 10.1002/adma.202201502
Article source: Table
Adsorbate Nitrogen: InChIKey IJGRMHOSHXDMSA-UHFFFAOYSA-N
Kind: experiment
Temperature: 77 K
Tabular data in the source: 0
pressure (bar)	uptake (cm3(STP)/g)
2e-05	2.02648
5.9e-05	2.54124
9.2e-05	3.5472
0.000101	5.86678
0.000122	15.08
0.000138	25.7629
0.000152	40.33
0.000156	45.6781
0.000164	64.1224
0.000172	75.52
0.000182	84.0243
0.000209	88.1031
0.000251	90.4145
0.000284	98.4
0.000311	110.313
0.000324	118.2
0.000336	130.17
0.000345	149.91
0.000416	162.7
0.000545	169.283
0.000912	175.9
0.001709	181.742
0.002124	183.171
0.002658	184.567
0.003343	185.915
0.004241	187.208
0.005325	188.356
0.006745	189.491
0.008604	190.615
0.010952	191.675
0.013853	192.662
0.017609	193.63
0.022413	194.546
0.028343	195.401
0.035973	196.262
0.045788	197.087
0.057861	197.855
0.074478	198.662
0.094128	199.382
0.11892	200.068
0.149995	200.718
0.189469	201.342
0.2394	201.92
0.302575	202.453
0.381363	202.916
0.481979	203.309
0.546816	203.521
0.611268	203.693
0.652575	203.808
0.693336	203.919
0.733972	204.028
0.774551	204.153
0.801123	204.246
0.82681	204.364
0.852607	204.476
0.878114	204.617
0.927751	205.033
0.955028	205.51
0.980693	206.364
