Adsorption isotherm of Nitrogen on MIL-101
DOI: 10.1002/adma.202201502
Article source: Table
Adsorbate Nitrogen: InChIKey IJGRMHOSHXDMSA-UHFFFAOYSA-N
Kind: experiment
Temperature: 77 K
Tabular data in the source: 0
pressure (bar)	uptake (cm3(STP)/g)
7.3e-05	0.087538
0.000145	4.44849
0.000197	24.3099
0.000229	43.8685
0.000266	63.7515
0.000325	83.6313
0.000347	84.5319
0.000416	98.2231
0.000497	118.09
0.000537	128.917
0.000654	148.75
0.000679	149.072
0.000836	168.938
0.001027	188.706
0.00103	188.845
0.001321	207.716
0.001722	227.374
0.002142	241.675
0.002625	254.863
0.003451	271.878
0.0042	284.585
0.005525	302.159
0.006819	316.21
0.008747	333.191
0.011036	349.607
0.013983	366.73
0.017631	384.151
0.022361	402.768
0.028192	422.141
0.034915	441.647
0.042341	461.04
0.045463	468.662
0.053707	487.884
0.055527	491.957
0.065923	514.104
0.072701	528.264
0.08287	551.267
0.089626	568.141
0.100861	591.886
0.115985	610.102
0.141038	629.696
0.157368	640.707
0.183502	660.531
0.194559	686.038
0.208921	712.055
0.249985	720.213
0.306749	727.348
0.377401	733.915
0.480403	740.961
0.544924	744.47
0.610437	747.541
0.652107	749.357
0.693244	751.05
0.733849	752.701
0.774546	754.373
0.800939	755.494
0.826756	756.643
0.852438	757.887
0.878122	759.278
0.926028	762.767
0.954371	766.23
0.978728	772.298
