Adsorption isotherm of Carbon monoxide on Sc2(O2CC6H4CO2)3
DOI: 10.1021/La803788u
Adsorbate Carbon monoxide: InChIKey UGFAIRIUMAVXCW-UHFFFAOYSA-N
Temperature: 304 K
Tabular data in the source: 0
pressure (bar)	uptake (mmol/g)
0.632911	0.0376556
1.26582	0.0753111
2.1519	0.125508
4.17722	0.251048
7.59494	0.401447
