Adsorption isotherm of N-propane on Sc2(O2CC6H4CO2)3
DOI: 10.1021/La803788u
Adsorbate N-propane: InChIKey ATUOYWHBWRKTHZ-UHFFFAOYSA-N
Temperature: 304 K
Tabular data in the source: 0
pressure (bar)	uptake (mmol/g)
0.13544	0.120474
0.225734	0.147822
0.406321	0.17512
0.541761	0.186005
0.632054	0.207873
0.677201	0.213328
0.767494	0.235196
0.948081	0.251535
1.03837	0.273404
1.21896	0.295222
1.30926	0.306132
1.4447	0.327976
1.58014	0.33886
1.76072	0.371638
1.89616	0.393482
2.07675	0.409821
2.88939	0.546362
4.01806	0.699168
5.05643	0.824627
6.09481	0.922688
