Adsorption isotherm of Oxygen on Sc2(O2CC6H4CO2)3
DOI: 10.1021/La803788u
Adsorbate Oxygen: InChIKey MYMOFIZGZYHOMD-UHFFFAOYSA-N
Temperature: 304 K
Tabular data in the source: 0
pressure (bar)	uptake (mmol/g)
3.03797	0.1631
6.07595	0.351409
9.11392	0.489299
12.2785	0.614552
15.3165	0.739836
18.481	0.852484
21.519	0.952558
24.6835	1.0526
27.7215	1.14007
30.7595	1.21493
33.7975	1.2898
36.962	1.36463
39.8734	1.42692
42.9114	1.48918
45.9494	1.53884
50	1.61345
