Adsorption isotherm of Ethane on Sc2(O2CC6H4CO2)3
DOI: 10.1021/La803788u
Adsorbate Ethane: InChIKey OTMSDBZUPAUEDD-UHFFFAOYSA-N
Temperature: 304 K
Tabular data in the source: 0
pressure (bar)	uptake (mmol/g)
0.0447969	0.0110193
0.394237	0.495868
0.841709	0.628099
1.11024	0.705234
1.46924	0.76584
1.82823	0.826446
2.05259	0.865014
2.41258	0.881543
2.72702	0.92011
3.0416	0.953168
3.40121	0.986226
3.7607	1.02479
4.0301	1.06336
4.43501	1.0854
4.8398	1.11295
5.19954	1.1405
5.55928	1.16804
5.96406	1.19559
6.14375	1.21763
6.50374	1.23416
6.90864	1.2562
7.31355	1.27824
7.71846	1.30028
8.12337	1.32231
8.48336	1.33884
8.84322	1.36088
9.24826	1.37741
9.69821	1.39945
10.1031	1.42149
10.238	1.43251
10.6432	1.44353
11.0482	1.46006
11.4532	1.47658
11.8583	1.49311
12.2181	1.51515
12.6683	1.52617
13.0735	1.53719
13.5237	1.54821
13.8837	1.56474
14.2887	1.58127
14.6489	1.58678
15.0991	1.5978
15.5043	1.60882
15.9544	1.62534
16.3144	1.64187
16.6747	1.64187
17.035	1.64738
17.4852	1.6584
17.8902	1.67493
18.2955	1.68044
18.6107	1.68595
19.0157	1.70248
19.421	1.70799
19.8263	1.7135
