Adsorption isotherm of Carbon Dioxide on Sc2(O2CC6H4CO2)3
DOI: 10.1021/La803788u
Adsorbate Carbon Dioxide: InChIKey CURLTUGMZLYLDI-UHFFFAOYSA-N
Temperature: 303 K
Tabular data in the source: 0
pressure (bar)	uptake (mmol/g)
0.0364078	0.0210843
0.0461165	0.0421687
0.0703883	0.063253
0.092233	0.0843373
0.114078	0.14759
0.13835	0.168675
0.160194	0.189759
0.182039	0.210843
0.203883	0.253012
0.228155	0.274096
0.25	0.295181
0.271845	0.337349
0.296117	0.337349
0.317961	0.358434
0.339806	0.379518
0.364078	0.400602
0.385922	0.421687
0.410194	0.442771
0.432039	0.463855
0.453883	0.506024
0.478155	0.506024
0.5	0.527108
0.521845	0.548193
0.546117	0.590361
0.570388	0.590361
0.592233	0.611446
0.616505	0.63253
0.63835	0.653614
0.660194	0.674699
0.684466	0.695783
0.703883	0.716867
0.725728	0.737952
0.75	0.737952
0.769417	0.759036
0.791262	0.759036
0.813107	0.801205
0.834951	0.801205
0.854369	0.822289
0.876214	0.822289
0.898058	0.864458
0.92233	0.864458
0.944175	0.885542
0.968447	0.885542
0.990291	0.906627
