Adsorption isotherm of Carbon Dioxide on Sc2(O2CC6H4CO2)3
DOI: 10.1021/La803788u
Adsorbate Carbon Dioxide: InChIKey CURLTUGMZLYLDI-UHFFFAOYSA-N
Temperature: 195 K
Tabular data in the source: 0
pressure (bar)	uptake (mmol/g)
0.00485437	0.00485437
0.00970874	2.12952
0.0145631	2.76205
0.0218447	3.16265
0.0291262	3.35241
0.038835	3.56325
0.0509709	3.73193
0.065534	3.9006
0.0849515	4.04819
0.101942	4.1747
0.121359	4.3012
0.143204	4.40663
0.162621	4.49096
0.182039	4.5753
0.201456	4.65964
0.223301	4.72289
0.245146	4.80723
0.26699	4.89157
0.288835	4.95482
0.313107	5.01807
0.334951	5.06024
0.356796	5.10241
0.378641	5.18675
0.400485	5.20783
0.424757	5.25
0.449029	5.29217
0.468447	5.33434
0.492718	5.37651
0.514563	5.39759
0.538835	5.43976
0.56068	5.46084
0.582524	5.48193
0.604369	5.5241
0.626214	5.54518
0.650485	5.56627
0.67233	5.60843
0.694175	5.62952
0.716019	5.62952
0.737864	5.6506
0.762136	5.69277
0.783981	5.69277
0.805825	5.71386
0.82767	5.75602
0.851942	5.77711
0.873786	5.79819
0.895631	5.79819
0.917476	5.81928
0.941748	5.84036
0.966019	5.86145
0.987864	5.88253
1.00971	5.9247
