Adsorption isotherm of Carbon Dioxide on Sc2(O2CC6H4CO2)3
DOI: 10.1021/La803788u
Adsorbate Carbon Dioxide: InChIKey CURLTUGMZLYLDI-UHFFFAOYSA-N
Temperature: 150 K
Tabular data in the source: 0
pressure (bar)	uptake (mmol/g)
0	0.630631
0.00242718	4.85586
0.00485437	5.25526
0.00970874	6.41141
