Adsorption isotherm of Methane on Sc2(O2CC6H4CO2)3
DOI: 10.1021/La803788u
Adsorbate Methane: InChIKey VNWKTOKETHGBQD-UHFFFAOYSA-N
Temperature: 230 K
Tabular data in the source: 0
pressure (bar)	uptake (mmol/g)
0.0205128	0.00362175
0.0393162	0.0236845
0.0581197	0.0492266
0.0752137	0.0674654
0.0974359	0.0893494
0.111111	0.105767
0.133333	0.125824
0.150427	0.144063
0.169231	0.164126
0.184615	0.180541
0.205128	0.200601
0.225641	0.215182
0.242735	0.231594
0.259829	0.249833
0.271795	0.257121
0.352137	0.326405
0.365812	0.33369
0.37094	0.339161
0.384615	0.346447
0.461538	0.410256
0.473504	0.419371
0.488889	0.430306
0.502564	0.437591
0.517949	0.450353
0.538462	0.461281
0.557265	0.474038
0.574359	0.486797
0.591453	0.494077
0.608547	0.510489
0.618803	0.515953
0.632479	0.521412
0.646154	0.530523
0.659829	0.537808
0.676923	0.550568
0.690598	0.557853
0.705983	0.563309
0.709402	0.56513
0.724786	0.570586
0.760684	0.596102
0.774359	0.601561
0.8	0.621613
0.811966	0.628901
0.849573	0.641629
0.864957	0.647085
0.876923	0.658026
0.890598	0.663485
0.905983	0.668941
0.912821	0.67441
0.926496	0.679868
0.94188	0.685324
0.977778	0.705361
0.991453	0.71082
1.00684	0.716276
1.0188	0.72539
