Adsorption isotherm of Hydrogen on Sc2(O2CC6H4CO2)3
DOI: 10.1021/La803788u
Adsorbate Hydrogen: InChIKey UFHFLCQGNIYNRP-UHFFFAOYSA-N
Temperature: 304 K
Tabular data in the source: 0
pressure (bar)	uptake (mmol/g)
1.13601	0.0126404
1.38853	0.0126404
1.89288	0.0379213
3.28035	0.0884831
9.33528	0.29073
12.4894	0.379213
15.5179	0.442416
18.5471	0.480337
21.5757	0.543539
24.6045	0.594101
27.6334	0.644663
30.6623	0.695225
33.6912	0.745787
36.7201	0.796348
39.749	0.84691
42.3991	0.897472
46.6906	0.948034
