Adsorption isotherm of Carbon Dioxide on Sc2(O2CC6H4CO2)3
DOI: 10.1021/La803788u
Adsorbate Carbon Dioxide: InChIKey CURLTUGMZLYLDI-UHFFFAOYSA-N
Temperature: 304 K
Tabular data in the source: 0
pressure (bar)	uptake (mmol/g)
0.379747	0.352845
0.632911	0.604882
0.886076	0.819104
1.13924	0.982906
1.39241	1.1341
1.51899	1.26012
1.89873	1.36087
2.1519	1.46164
4.3038	2.11656
6.4557	2.48157
8.35443	2.73319
10.6329	2.9469
12.6582	3.09765
14.8101	3.23576
16.7089	3.33612
18.8608	3.44903
20.7595	3.51157
22.9114	3.59927
24.9367	3.64918
27.0886	3.72426
28.8608	3.81205
31.1392	3.84929
32.9114	3.92448
35.0633	3.97435
37.0886	4.02426
39.1139	4.07417
41.1392	4.12408
43.2911	4.14875
45.3165	4.17345
