Adsorption isotherm of Nitrogen on Sc2(O2CC6H4CO2)3
DOI: 10.1021/La803788u
Adsorbate Nitrogen: InChIKey IJGRMHOSHXDMSA-UHFFFAOYSA-N
Temperature: 304 K
Tabular data in the source: 0
pressure (bar)	uptake (mmol/g)
2.52277	0.0884831
5.42433	0.176966
8.57841	0.265449
11.6059	0.366573
14.6341	0.442416
17.6622	0.518258
20.6904	0.594101
23.8455	0.644663
26.8737	0.720506
29.9023	0.783708
33.0574	0.83427
36.0859	0.897472
39.1148	0.948034
42.1441	0.985955
45.0467	1.03652
48.0759	1.07444
51.1048	1.125
