Adsorption isotherm of Methane on Sc2(O2CC6H4CO2)3
DOI: 10.1021/La803788u
Adsorbate Methane: InChIKey VNWKTOKETHGBQD-UHFFFAOYSA-N
Temperature: 304 K
Tabular data in the source: 0
pressure (bar)	uptake (mmol/g)
0.759494	0.113254
1.26582	0.201362
1.89873	0.276832
2.53165	0.364908
3.16456	0.440379
5.31646	0.641517
7.08861	0.817541
9.24051	0.968259
11.2658	1.0938
13.4177	1.2067
15.3165	1.30706
17.4684	1.40736
19.4937	1.48248
21.3924	1.58284
23.4177	1.64536
25.5696	1.73305
27.3418	1.79563
32.1519	1.92047
