Adsorption isotherm of Carbon Dioxide on Sc2(O2CC6H4CO2)3
DOI: 10.1021/La803788u
Adsorbate Carbon Dioxide: InChIKey CURLTUGMZLYLDI-UHFFFAOYSA-N
Temperature: 250 K
Tabular data in the source: 0
pressure (bar)	uptake (mmol/g)
0.0121359	0.126506
0.0242718	0.295181
0.038835	0.463855
0.0558252	0.63253
0.0703883	0.801205
0.0873786	0.948795
0.104369	1.09639
0.121359	1.22289
0.13835	1.37048
0.157767	1.49699
0.174757	1.62349
0.196602	1.75
0.216019	1.85542
0.237864	1.96084
0.257282	2.06627
0.279126	2.1506
0.300971	2.23494
0.325243	2.31928
0.347087	2.40361
0.368932	2.46687
0.393204	2.53012
0.415049	2.59337
0.43932	2.65663
0.463592	2.6988
0.485437	2.76205
0.509709	2.80422
0.531553	2.8253
0.550971	2.86747
0.572816	2.90964
0.597087	2.95181
0.618932	2.97289
0.643204	3.01506
0.665049	3.03614
0.68932	3.07831
0.713592	3.0994
0.735437	3.12048
0.757282	3.16265
0.781553	3.18373
0.805825	3.20482
0.82767	3.2259
0.849515	3.24699
0.871359	3.26807
0.895631	3.28916
0.915049	3.31024
0.93932	3.33133
0.963592	3.33133
0.985437	3.35241
1.00728	3.39458
