Adsorption isotherm of Methane on FMOF-2
DOI: 10.1021/Cg9014948
Adsorbate Methane: InChIKey VNWKTOKETHGBQD-UHFFFAOYSA-N
Temperature: 298 K
Tabular data in the source: 0
pressure (bar)	uptake (cm3(STP)/g)
0.946953	9.43861
4.79233	18.6151
9.77384	23.8151
14.4932	26.2621
20.2612	29.0151
25.6797	30.8504
30.836	33.6033
