Adsorption isotherm of Hydrogen sulfide on FMOF-2
DOI: 10.1021/Cg9014948
Adsorbate Hydrogen sulfide: InChIKey RWSOTUBLDIXVET-UHFFFAOYSA-N
Temperature: 298 K
Tabular data in the source: 0
pressure (bar)	uptake (cm3(STP)/g)
0.00801993	0.187239
0.152222	54.5906
0.169701	13.9519
0.226507	55.9015
0.261465	38.204
0.366339	57.6494
0.641633	58.9603
0.798944	49.7839
1.18348	55.683
1.78651	60.9267
