Adsorption isotherm of Nitrogen on FMOF-2
DOI: 10.1021/Cg9014948
Adsorbate Nitrogen: InChIKey IJGRMHOSHXDMSA-UHFFFAOYSA-N
Temperature: 298 K
Tabular data in the source: 0
pressure (bar)	uptake (cm3(STP)/g)
0.0468556	0.753618
0.240177	0.809556
0.374429	0.97737
0.444239	1.20112
0.50331	1.20112
0.589231	1.20112
0.693947	1.08925
0.804033	1.313
0.895324	1.42487
1.13698	1.36894
