Adsorption isotherm of Nitrogen on FMOF-2
DOI: 10.1021/Cg9014948
Adsorbate Nitrogen: InChIKey IJGRMHOSHXDMSA-UHFFFAOYSA-N
Temperature: 77 K
Tabular data in the source: 0
pressure (bar)	uptake (cm3(STP)/g)
0.0477074	107.702
0.106699	116.747
0.165691	121.86
0.25527	124.613
0.35796	130.119
0.460649	132.871
0.596111	136.804
0.659472	139.164
0.812413	140.737
0.952245	145.456
0.998128	161.187
