Adsorption isotherm of Carbon Dioxide on FMOF-2
DOI: 10.1021/Cg9014948
Adsorbate Carbon Dioxide: InChIKey CURLTUGMZLYLDI-UHFFFAOYSA-N
Temperature: 298 K
Tabular data in the source: 0
pressure (bar)	uptake (cm3(STP)/g)
0.0493834	7.14765
0.240778	11.572
0.371871	14.1392
0.445283	15.3409
0.513451	16.5972
0.594728	17.4166
0.704846	18.6182
0.799232	19.8199
0.893619	20.967
1.13745	23.5342
