Adsorption isotherm of Carbon Dioxide on FMOF-2
DOI: 10.1021/Cg9014948
Adsorbate Carbon Dioxide: InChIKey CURLTUGMZLYLDI-UHFFFAOYSA-N
Temperature: 298 K
Tabular data in the source: 0
pressure (bar)	uptake (cm3(STP)/g)
0.247794	0.262134
0.772163	13.4151
4.79233	32.3798
7.85115	36.6621
10.91	39.4151
13.4444	41.8621
19.0377	54.4033
23.9318	77.9563
29.9621	99.0621
39.7503	114.662
