Adsorption isotherm of Sulfur dioxide on FMOF-2
DOI: 10.1021/Cg9014948
Adsorbate Sulfur dioxide: InChIKey RAHZWNYVWXNFOC-UHFFFAOYSA-N
Temperature: 298 K
Tabular data in the source: 0
pressure (bar)	uptake (cm3(STP)/g)
0.00365018	0.187239
0.322642	30.557
0.388188	34.2713
0.567348	42.5738
0.790205	58.5234
0.938776	42.7923
1.08298	77.9688
1.34079	50.4393
1.66852	67.0444
1.85205	91.7335
