Adsorption isotherm of Methane on FMOF-2
DOI: 10.1021/Cg9014948
Adsorbate Methane: InChIKey VNWKTOKETHGBQD-UHFFFAOYSA-N
Temperature: 298 K
Tabular data in the source: 0
pressure (bar)	uptake (cm3(STP)/g)
0.0493834	5.39975
0.240778	6.21908
0.371871	7.03841
0.442661	7.36614
0.513451	7.85773
0.59735	8.07622
0.694358	8.34933
0.804476	8.78631
0.901484	9.2779
1.13483	10.425
