Adsorption isotherm of Nitrogen on Cd-MOF-74
DOI: 10.1016/j.micromeso.2014.02.021
Adsorbate Nitrogen: InChIKey IJGRMHOSHXDMSA-UHFFFAOYSA-N
Temperature: 77 K
Tabular data in the source: 0
pressure (bar)	uptake (cm3(STP)/g)
0.0102379	151.408
0.0218343	157.042
0.0380969	161.972
0.0566958	166.197
0.0776311	169.718
0.0985792	171.831
0.121865	173.239
0.142819	174.648
0.166104	176.056
0.189388	177.465
0.210344	178.873
0.233635	179.577
0.256926	180.282
0.277888	180.986
0.301179	181.69
0.32447	182.394
0.347761	183.099
0.371059	183.099
0.389684	184.507
0.410639	185.915
0.431588	188.028
0.454872	189.437
0.478157	190.845
0.501455	190.845
0.524746	191.549
0.545708	192.254
0.569006	192.254
0.592304	192.254
0.615595	192.958
0.638886	193.662
0.662184	193.662
0.685475	194.366
0.708772	194.366
0.729734	195.07
0.753025	195.775
0.776317	196.479
0.799609	197.183
0.82057	197.887
0.843854	199.296
0.864809	200.704
0.888094	202.113
0.909036	204.93
0.927641	208.451
0.946227	214.085
0.955501	219.014
