Adsorption isotherm of Nitrogen on Zn-MOF-74
DOI: 10.1016/j.micromeso.2014.02.021
Adsorbate Nitrogen: InChIKey IJGRMHOSHXDMSA-UHFFFAOYSA-N
Temperature: 77 K
Tabular data in the source: 0
pressure (bar)	uptake (cm3(STP)/g)
0.0119902	213.38
0.0259492	215.493
0.042238	217.606
0.067859	218.31
0.0958099	219.014
0.123768	219.014
0.154048	219.718
0.184335	219.718
0.212293	219.718
0.244897	221.127
0.270524	221.127
0.300811	221.127
0.34507	221.831
0.391666	221.831
0.433602	221.831
0.468543	222.535
0.517468	222.535
0.550085	222.535
0.589691	222.535
0.617649	222.535
0.650259	223.239
0.678216	223.239
0.715493	223.239
0.755099	223.239
0.790046	223.239
0.815667	223.944
0.848285	223.944
0.885561	223.944
0.925167	223.944
0.953118	224.648
