Adsorption isotherm of Nitrogen on Cd-MOF-74
DOI: 10.1016/j.micromeso.2014.02.021
Adsorbate Nitrogen: InChIKey IJGRMHOSHXDMSA-UHFFFAOYSA-N
Temperature: 77 K
Tabular data in the source: 0
pressure (bar)	uptake (cm3(STP)/g)
0.0102379	151.408
0.0218343	157.042
0.0380969	161.972
0.0566958	166.197
0.0776311	169.718
0.0985792	171.831
0.121865	173.239
0.142819	174.648
0.166104	176.056
0.189388	177.465
0.210344	178.873
0.233635	179.577
0.256926	180.282
0.277888	180.986
0.301179	181.69
0.32447	182.394
0.347761	183.099
0.371059	183.099
0.392021	183.803
0.410659	183.803
0.433957	183.803
0.457248	184.507
0.480539	185.211
0.503837	185.211
0.524799	185.915
0.548097	185.915
0.571388	186.62
0.594679	187.324
0.617977	187.324
0.641268	188.028
0.664566	188.028
0.685528	188.732
0.708819	189.437
0.73211	190.141
0.755401	190.845
0.776363	191.549
0.799654	192.254
0.822945	192.958
0.8439	194.366
0.867185	195.775
0.888133	197.887
0.911405	200.704
0.930011	204.225
0.946273	209.155
0.95321	214.789
0.957824	219.718
