Adsorption isotherm of Carbon Dioxide, Nitrogen on Pocahontas coal
DOI: 10.1021/ef060475x
Article source: Figure 9
Adsorbate Carbon Dioxide: InChIKey CURLTUGMZLYLDI-UHFFFAOYSA-N
Adsorbate Nitrogen: InChIKey IJGRMHOSHXDMSA-UHFFFAOYSA-N
Kind: experiment
Temperature: 328 K
Tabular data in the source: 0
pressure (bar)	Carbon Dioxide fraction	Carbon Dioxide uptake (mmol/g)	Nitrogen fraction	Nitrogen uptake (mmol/g)	total uptake (mmol/g)
0	0.22	0	0.78	-0.000407	
32.7524	0.22	0.095216	0.78	-0.000816	
58.8707	0.22	0.172366	0.78	0.017737	
79.9609	0.22	0.234846	0.78	0.042238	
97.0711	0.22	0.289713	0.78	0.059669	
