Adsorption isotherm of Carbon Dioxide, Nitrogen on Beulah-zap coal
DOI: 10.1021/ef060475x
Article source: Figure 9
Adsorbate Carbon Dioxide: InChIKey CURLTUGMZLYLDI-UHFFFAOYSA-N
Adsorbate Nitrogen: InChIKey IJGRMHOSHXDMSA-UHFFFAOYSA-N
Kind: experiment
Temperature: 328 K
Tabular data in the source: 0
pressure (bar)	Carbon Dioxide fraction	Carbon Dioxide uptake (mmol/g)	Nitrogen fraction	Nitrogen uptake (mmol/g)	total uptake (mmol/g)
0	0.22	0	0.78	0	
38.333	0.22	0.064313	0.78	0.014941	
69.5454	0.22	0.126834	0.78	0.016152	
95.3821	0.22	0.186078	0.78	0.013545	
