Adsorption isotherm of Carbon Dioxide, Nitrogen on Illinois coal
DOI: 10.1021/ef060475x
Article source: Figure 9
Adsorbate Carbon Dioxide: InChIKey CURLTUGMZLYLDI-UHFFFAOYSA-N
Adsorbate Nitrogen: InChIKey IJGRMHOSHXDMSA-UHFFFAOYSA-N
Kind: experiment
Temperature: 328 K
Tabular data in the source: 0
pressure (bar)	Carbon Dioxide fraction	Carbon Dioxide uptake (mmol/g)	Nitrogen fraction	Nitrogen uptake (mmol/g)	total uptake (mmol/g)
0	0.22	0	0.78	0	
32.2714	0.22	0.153811	0.78	-0.01818	
58.3908	0.22	0.239098	0.78	-0.018074	
79.5508	0.22	0.301578	0.78	-0.014733	
96.8007	0.22	0.357532	0.78	-0.01629	
