Adsorption isotherm of Argon on Activated Nanoporous Carbon BAM-P109
DOI: 10.1177/0263617415619541
Article source: Figure 1
Adsorbate Argon: InChIKey XKRFYHLGVUSROY-UHFFFAOYSA-N
Kind: experiment
Isotherm type: excess
Temperature: 87 K
Tabular data in the source: 0
pressure (bar)	uptake (cm3(STP)/g)
0.000162	133.547
0.000205	143.836
0.000257	154.405
0.000325	165.261
0.00041	176.238
0.000522	187.242
0.000665	198.179
0.00081	206.811
0.001064	218.271
0.001287	226.656
0.001621	235.606
0.002067	244.81
0.002644	253.738
0.003262	261.344
0.004133	269.719
0.005085	277.012
0.006443	285.262
0.008195	293.747
0.01013	301.415
0.025528	336.254
0.030187	343.509
0.034442	348.607
0.041229	355.796
0.044775	359.807
0.050954	365.344
0.075165	381.518
0.075975	381.778
0.1013	392.336
0.1013	392.561
0.126625	399.747
0.134729	401.695
0.150937	404.487
0.159041	406.452
0.176262	408.729
0.186392	410.658
0.199561	412.01
0.2026	412.477
0.203613	412.359
0.228938	415.569
0.252237	418.058
0.254263	417.975
0.278575	420.668
0.279588	420.555
0.302887	423.004
0.304913	423.563
0.328212	425.598
0.330238	425.215
0.353537	428.057
0.35455	426.868
0.379875	429.855
0.379875	430.281
0.404187	432.33
0.406213	432.019
0.428499	434.105
0.431538	434.399
0.45585	436.7
0.456863	436.705
0.481175	438.392
0.482188	438.957
0.507513	440.606
0.507513	440.714
0.531825	442.789
0.532838	442.749
0.558163	444.877
0.558163	444.948
0.582475	447.402
0.583488	447.414
0.606787	449.977
0.608813	449.393
0.634138	451.103
0.634138	452.473
0.656424	454.869
0.659463	453.314
0.682762	457.544
0.684788	455.903
0.708087	460.626
0.7091	458.794
0.733412	464.107
0.734425	461.804
0.75975	465.498
0.75975	468.178
0.786088	470.422
0.786088	473.46
0.8104	480.042
0.811413	475.704
0.834712	488.051
0.835725	481.923
0.860037	500.864
0.86105	491.073
0.885362	503.697
0.886375	520.427
0.9117	560.62
0.912713	526.935
0.937025	563.511
0.938038	696.812
0.96235	650.766
0.96235	817.358
0.986662	819.313
0.987675	812.318
1.00692	820.306
1.00794	820.508
