Adsorption isotherm of Water on Activated Nanoporous Carbon BAM-P109
DOI: 10.1177/0263617415619541
Article source: Figure 4
Adsorbate Water: InChIKey XLYOFNOQVPJJNP-UHFFFAOYSA-N
Kind: experiment
Isotherm type: excess
Temperature: 87 K
Tabular data in the source: 0
pressure (bar)	uptake (cm3(STP)/g)
0.000203	0.012
0.000512	0.0937
0.000665	0.118
0.000987	0.2241
0.001133	0.2727
0.002074	0.662
0.002234	0.724
0.003453	1.3016
0.003523	1.3451
0.003894	1.1187
0.004218	1.7319
0.00452	1.7964
0.004543	1.9402
0.005029	2.4853
0.005493	2.655
0.005748	2.8609
0.005887	3.8124
0.006258	4.591
0.006466	3.6627
0.006884	6.0846
0.007023	4.4499
0.007463	7.8476
0.007486	5.2834
0.008181	10.8751
0.008228	7.1214
0.008668	13.9584
0.008691	9.0198
0.009248	12.2489
0.00934	20.6218
0.009804	17.397
0.009943	31.6695
0.010314	24.6135
0.010546	55.746
0.010916	37.6438
0.011102	108.275
0.011542	57.3688
0.011681	293.458
0.012075	84.4521
0.012261	453.899
0.012701	135.724
0.012817	477.574
0.013234	197.747
0.01335	484.97
0.013813	270.214
0.013976	490.412
0.014393	341.765
0.014509	493.902
0.014972	402.826
0.015019	497.195
0.015552	446.661
0.015575	500.463
0.016154	503.695
0.016178	475.649
0.016734	490.791
0.016757	506.997
0.017383	502.497
0.017383	510.347
0.017869	507.497
0.017985	513.73
0.018495	517.071
0.018565	512.5
0.019167	522.614
0.019191	515.82
0.0197	528.151
0.01977	518.547
0.020187	520.659
0.02028	535.883
0.020836	524.119
0.020882	543.565
0.021346	529.498
0.021508	549.228
0.021902	551.057
