Adsorption isotherm of Carbon Dioxide on Activated Nanoporous Carbon BAM-P109
DOI: 10.1177/0263617415619541
Article source: Figure 3
Adsorbate Carbon Dioxide: InChIKey CURLTUGMZLYLDI-UHFFFAOYSA-N
Kind: experiment
Isotherm type: excess
Temperature: 273 K
Tabular data in the source: 0
pressure (bar)	uptake (cm3(STP)/g)
5e-06	0.0003
7e-06	0.0004
9e-06	0.0004
1e-05	0.0003
1.1e-05	0.0001
4.4e-05	0.0114
6.6e-05	0.0193
7.9e-05	0.0238
8.9e-05	0.0266
9.3e-05	0.0287
9.8e-05	0.0299
0.000103	0.0299
0.000141	0.0412
0.000167	0.0487
0.000182	0.0512
0.000185	0.0502
0.000201	0.0516
0.000222	0.0472
0.000228	0.0438
0.000233	0.0395
0.000237	0.0346
0.000265	0.0418
0.000399	0.0983
0.000413	0.0956
0.000569	0.166
0.000722	0.2285
0.000871	0.2911
0.001097	0.3851
0.001319	0.478
0.001659	0.6287
0.002069	0.8051
0.002583	1.0234
0.003239	1.2977
0.004061	1.635
0.005103	2.0451
0.006422	2.5462
0.008053	3.1534
0.008088	3.1664
0.009164	3.5482
0.010206	3.9093
0.021348	7.4001
0.030131	9.8165
0.040267	12.3216
0.050334	14.6778
0.07498	19.7508
0.100668	24.3861
0.126008	28.5633
0.152043	32.4829
0.177036	36.0471
0.202724	39.454
0.228064	42.6165
0.253405	45.674
0.278745	48.6109
0.302697	51.265
0.329426	54.098
0.354073	56.7156
0.378372	59.0774
0.402671	61.5204
0.430441	63.926
0.45474	66.2231
0.479039	68.4831
0.503339	70.6466
0.531109	72.7985
0.555408	74.8852
0.579707	76.9273
0.604006	78.9332
0.631777	80.8804
0.656076	82.7747
0.680375	84.6762
0.708145	86.5868
0.732444	88.4056
0.756743	90.1566
0.784514	91.8823
0.808813	93.6042
0.833112	95.2416
0.860882	96.8763
0.885181	98.5661
