Adsorption isotherm of n-Perfluorohexane on Activated Nanoporous Carbon BAM-P109
DOI: 10.1177/0263617415619541
Article source: Figure 5
Adsorbate n-Perfluorohexane: InChIKey ZJIJAJXFLBMLCK-UHFFFAOYSA-N
Kind: experiment
Isotherm type: excess
Temperature: 273 K
Tabular data in the source: 0
pressure (bar)	uptake (cm3(STP)/g)
0.000741	49.3753
0.000786	49.4829
0.00153	51.1266
0.00283	52.3649
0.003309	52.6586
0.004044	52.9955
0.006575	53.8436
0.00855	54.3244
0.010516	54.6894
0.012996	55.1042
0.014963	55.4049
0.017185	55.7112
0.019323	55.9907
0.021546	56.2646
0.023683	56.5347
0.025821	56.7964
0.028044	57.0583
0.030181	57.3332
0.032233	57.6006
0.034114	57.8462
0.036338	58.1497
0.038475	58.4534
0.040527	58.7643
0.042579	59.1041
0.04275	59.1265
0.045059	59.5511
0.046768	60.0887
0.046854	59.9106
0.049162	60.4134
0.051215	60.9196
0.051556	61.6154
0.053267	61.4907
0.055489	62.218
0.055489	63.4809
0.057969	63.2211
0.05985	66.7019
0.060021	64.2359
0.061902	65.3553
0.064125	72.2777
0.064211	67.1081
0.066091	68.9421
0.0684	86.8173
0.068486	72.3188
0.070366	76.0297
0.072504	82.2866
0.07259	101.997
0.074727	92.8091
0.07695	106.093
