Adsorption isotherm of n-Perfluorohexane on Activated Nanoporous Carbon BAM-P109
DOI: 10.1177/0263617415619541
Article source: Figure 6
Adsorbate n-Perfluorohexane: InChIKey ZJIJAJXFLBMLCK-UHFFFAOYSA-N
Kind: experiment
Isotherm type: excess
Temperature: 273 K
Tabular data in the source: 0
pressure (bar)	uptake (cm3(STP)/g)
0.000734	48.7084
0.0008	48.9828
0.001505	50.8144
0.002351	51.8716
0.003463	52.6438
0.004189	53.0045
0.006207	53.7154
0.008533	54.2949
0.010516	54.7004
0.01274	55.0832
0.015048	55.4285
0.016844	55.6916
0.018981	55.9758
0.021204	56.2616
0.023342	56.5261
0.025565	56.7972
0.027702	57.0673
0.02984	57.3326
0.031892	57.605
0.034029	57.881
0.036166	58.1788
0.038732	58.5545
0.040441	58.818
0.042322	59.0853
0.042835	59.2177
0.044973	59.6053
0.047025	60.0147
0.047025	60.2216
0.048992	60.4549
0.051043	61.5332
0.0513	61.0239
0.053267	61.5998
0.055489	63.5779
0.055831	62.4371
0.057883	63.2816
0.059423	66.3888
0.059764	64.2098
0.062073	65.5999
0.063783	71.8685
0.063954	67.0425
0.066091	69.2457
0.068315	72.2176
0.068656	88.5643
0.070538	76.8378
0.07259	82.9292
0.07259	101.683
0.074813	93.4183
0.076865	105.919
