Adsorption isotherm of Methane on Dadas Shale
DOI: 10.1002/cjce.22538
Article source: Figure 5- Experiment at 323 K
Adsorbate Methane: InChIKey VNWKTOKETHGBQD-UHFFFAOYSA-N
Kind: experiment
Isotherm type: excess
Temperature: 323 K
Tabular data in the source: 0
pressure (bar)	uptake (mmol/g)
13.2586	0.007687
27.7569	0.012543
41.3906	0.018074
55.127	0.021055
68.9393	0.02379
82.9412	0.02614
96.4177	0.028268
110.686	0.02985
123.998	0.029877
137.905	0.030072
