Adsorption isotherm of Methane on Dadas Shale
DOI: 10.1002/cjce.22538
Article source: Figure 3- Run 6
Adsorbate Methane: InChIKey VNWKTOKETHGBQD-UHFFFAOYSA-N
Kind: experiment
Isotherm type: excess
Temperature: 348 K
Tabular data in the source: 0
pressure (bar)	uptake (mmol/g)
13.3765	0.003955
27.7466	0.007853
41.4534	0.011338
55.216	0.01327
69.2833	0.01522
82.8315	0.016752
96.5452	0.01751
110.387	0.018409
124.128	0.018554
137.484	0.018733
