Adsorption isotherm of Methane on Dadas Shale
DOI: 10.1002/cjce.22538
Article source: Figure 3- Run 5
Adsorbate Methane: InChIKey VNWKTOKETHGBQD-UHFFFAOYSA-N
Kind: experiment
Isotherm type: excess
Temperature: 323 K
Tabular data in the source: 0
pressure (bar)	uptake (mmol/g)
13.2924	0.007749
27.8431	0.012587
41.5044	0.018067
55.1967	0.021049
68.9648	0.023869
83.037	0.026238
96.4645	0.028168
110.715	0.029823
124.055	0.029749
137.938	0.030125
