Adsorption isotherm of Methane on Dadas Shale
DOI: 10.1002/cjce.22538
Article source: Figure 4- Run 3
Adsorbate Methane: InChIKey VNWKTOKETHGBQD-UHFFFAOYSA-N
Kind: experiment
Isotherm type: excess
Temperature: 298 K
Tabular data in the source: 0
pressure (bar)	uptake (mmol/g)
13.1573	0.019675
27.8824	0.026453
41.5781	0.032499
55.5711	0.036129
69.1779	0.039385
82.8143	0.041229
96.8665	0.043666
110.176	0.044593
124.05	0.044682
138.192	0.044969
