Adsorption isotherm of Methane on Dadas Shale
DOI: 10.1002/cjce.22538
Article source: Figure 5- Experiment at 298 K
Adsorbate Methane: InChIKey VNWKTOKETHGBQD-UHFFFAOYSA-N
Kind: experiment
Isotherm type: excess
Temperature: 298 K
Tabular data in the source: 0
pressure (bar)	uptake (mmol/g)
13.0752	0.019766
27.821	0.026383
41.4609	0.032418
55.4883	0.036129
69.0682	0.039354
82.7681	0.041276
96.7665	0.043633
110.108	0.044661
123.927	0.044744
138.134	0.045134
