Adsorption isotherm of Methane on Dadas Shale
DOI: 10.1002/cjce.22538
Article source: Figure 5- Experiment at 348 K
Adsorbate Methane: InChIKey VNWKTOKETHGBQD-UHFFFAOYSA-N
Kind: experiment
Isotherm type: excess
Temperature: 348 K
Tabular data in the source: 0
pressure (bar)	uptake (mmol/g)
13.2814	0.003621
27.6452	0.007593
41.4265	0.011083
55.1698	0.012917
69.1772	0.014912
82.8867	0.016277
96.3639	0.017193
110.293	0.018065
123.833	0.018341
