Adsorption isotherm of Methane on Dadas Shale
DOI: 10.1002/cjce.22538
Article source: Figure 4- Run 4
Adsorbate Methane: InChIKey VNWKTOKETHGBQD-UHFFFAOYSA-N
Kind: experiment
Isotherm type: excess
Temperature: 298 K
Tabular data in the source: 0
pressure (bar)	uptake (mmol/g)
13.7247	0.019614
27.6473	0.028388
41.6043	0.033816
55.4828	0.037778
69.0744	0.04068
82.8081	0.042482
95.9805	0.044558
109.976	0.045652
123.756	0.045323
137.648	0.044693
