Adsorption isotherm of Methane on BPL Carbon
DOI: 10.1002/cjce.22538
Article source: Figure 2- Run 2
Adsorbate Methane: InChIKey VNWKTOKETHGBQD-UHFFFAOYSA-N
Kind: experiment
Isotherm type: excess
Temperature: 301 K
Tabular data in the source: 0
pressure (bar)	uptake (mmol/g)
0.314746	0.7737
2.25665	2.4196
6.07883	4.1859
12.9009	5.6583
20.2352	6.5812
28.9405	7.114
