Adsorption isotherm of Methane on BPL Carbon
DOI: 10.1002/cjce.22538
Article source: Figure 2- Reich et al. 2
Adsorbate Methane: InChIKey VNWKTOKETHGBQD-UHFFFAOYSA-N
Kind: experiment
Isotherm type: excess
Temperature: 301 K
Tabular data in the source: 0
pressure (bar)	uptake (mmol/g)
0.752839	1.1981
1.49292	1.8839
2.76831	2.7895
4.64548	3.7056
6.9526	4.4752
9.75112	5.1304
15.874	6.0392
