Adsorption isotherm of Methane on Dadas Shale
DOI: 10.1002/cjce.22538
Article source: Figure 3- Run 3
Adsorbate Methane: InChIKey VNWKTOKETHGBQD-UHFFFAOYSA-N
Kind: experiment
Isotherm type: excess
Temperature: 298 K
Tabular data in the source: 0
pressure (bar)	uptake (mmol/g)
13.1373	0.01954
27.8645	0.026265
41.4809	0.032298
55.5483	0.035973
69.1289	0.039232
82.8936	0.041066
96.7583	0.0435
110.133	0.044408
123.999	0.044504
138.198	0.044787
