Adsorption isotherm of Methane on Dadas Shale
DOI: 10.1002/cjce.22538
Article source: Figure 6- Run 6_Excess
Adsorbate Methane: InChIKey VNWKTOKETHGBQD-UHFFFAOYSA-N
Kind: experiment
Isotherm type: excess
Temperature: 348 K
Tabular data in the source: 0
pressure (bar)	uptake (mmol/g)
13.4489	0.003542
27.7259	0.007509
41.4023	0.010975
55.2622	0.012878
69.2627	0.014881
82.6612	0.016407
96.4563	0.017259
110.326	0.018229
123.856	0.018144
137.479	0.018489
