Adsorption isotherm of Methane on Dadas Shale
DOI: 10.1002/cjce.22538
Article source: Figure 6- Run 5_Excess
Adsorbate Methane: InChIKey VNWKTOKETHGBQD-UHFFFAOYSA-N
Kind: experiment
Isotherm type: excess
Temperature: 323 K
Tabular data in the source: 0
pressure (bar)	uptake (mmol/g)
13.3496	0.007732
27.8403	0.012523
41.5781	0.018044
55.247	0.021015
69.062	0.023719
83.0701	0.026085
96.5652	0.028072
110.793	0.029719
124.048	0.029604
137.938	0.030025
