Adsorption isotherm of Methane on Dadas Shale
DOI: 10.1002/cjce.22538
Article source: Figure 6- Run 3_Excess
Adsorbate Methane: InChIKey VNWKTOKETHGBQD-UHFFFAOYSA-N
Kind: experiment
Isotherm type: excess
Temperature: 298 K
Tabular data in the source: 0
pressure (bar)	uptake (mmol/g)
13.2007	0.019815
27.8397	0.026662
41.5064	0.032585
55.4573	0.036108
69.0751	0.039307
96.7141	0.043629
110.142	0.044703
123.924	0.044752
138.182	0.045026
