Adsorption isotherm of Methane on BPL Carbon
DOI: 10.1002/cjce.22538
Article source: Figure 2- Reich et al. 1
Adsorbate Methane: InChIKey VNWKTOKETHGBQD-UHFFFAOYSA-N
Kind: experiment
Isotherm type: excess
Temperature: 301 K
Tabular data in the source: 0
pressure (bar)	uptake (mmol/g)
11.6859	5.4629
14.0889	5.8603
17.094	6.1739
20.3902	6.4927
24.0835	6.7436
27.684	6.9421
