Adsorption isotherm of Methane on BPL Carbon
DOI: 10.1002/cjce.22538
Article source: Figure 2- Run 1
Adsorbate Methane: InChIKey VNWKTOKETHGBQD-UHFFFAOYSA-N
Kind: experiment
Isotherm type: excess
Temperature: 301 K
Tabular data in the source: 0
pressure (bar)	uptake (mmol/g)
0.744082	1.2256
1.49527	1.8841
2.47584	2.6189
4.12927	3.4817
6.30546	4.2821
9	4.9598
11.9459	5.526
