Adsorption isotherm of Nitrogen on S3-MIL-101(Cr)
DOI: 10.3866/Pku.Whxb201309021
Adsorbate Nitrogen: InChIKey IJGRMHOSHXDMSA-UHFFFAOYSA-N
Temperature: 77 K
Tabular data in the source: 0
pressure (bar)	uptake (cm3(STP)/g)
0.0018498	47.1648
0.00590526	126.021
0.0140162	180.094
0.0322657	213.889
0.0849867	240.926
0.139735	256.697
0.192456	265.709
0.31412	267.962
0.4662	270.215
0.630446	272.468
0.782526	272.468
0.892023	274.721
0.93055	274.721
