Adsorption isotherm of Nitrogen on Cr-MIL(101)
DOI: 10.3866/Pku.Whxb201309021
Adsorbate Nitrogen: InChIKey IJGRMHOSHXDMSA-UHFFFAOYSA-N
Temperature: 77 K
Tabular data in the source: 0
pressure (bar)	uptake (cm3(STP)/g)
0.0018498	38.1526
0.0018498	130.527
0.0018498	272.468
0.0119884	349.071
0.0464599	436.939
0.0991808	538.326
0.127569	614.929
0.172179	659.99
0.210706	696.038
0.226928	756.87
0.342508	772.641
0.439839	788.413
0.561503	806.437
0.693306	819.955
0.786581	828.967
0.859579	851.497
0.924467	871.775
