Adsorption isotherm of Nitrogen on S2-MIL-101(Cr)
DOI: 10.3866/Pku.Whxb201309021
Adsorbate Nitrogen: InChIKey IJGRMHOSHXDMSA-UHFFFAOYSA-N
Temperature: 77 K
Tabular data in the source: 0
pressure (bar)	uptake (cm3(STP)/g)
0.00387753	191.359
0.00590526	254.444
0.0119884	337.806
0.0241548	385.12
0.0545708	463.976
0.0768758	518.049
0.109319	556.35
0.155957	605.917
0.176235	626.194
0.214761	639.712
0.285732	648.725
0.350619	655.484
0.454034	659.99
0.55542	666.749
0.673028	673.508
0.792664	673.508
0.873774	675.761
0.920411	696.038
