Adsorption isotherm of Nitrogen on S1-MIL-101(Cr)
DOI: 10.3866/Pku.Whxb201309021
Adsorbate Nitrogen: InChIKey IJGRMHOSHXDMSA-UHFFFAOYSA-N
Temperature: 77 K
Tabular data in the source: 0
pressure (bar)	uptake (cm3(STP)/g)
0.0018498	38.1526
0.0018498	130.527
0.0018498	272.468
0.0119884	349.071
0.0464599	436.939
0.0991808	538.326
0.155957	596.905
0.174207	628.447
0.186373	664.496
0.210706	678.014
0.281677	691.532
0.387118	700.544
0.508782	707.303
0.628418	714.062
0.731832	714.062
0.812942	718.569
0.86769	720.822
0.914328	734.34
