Adsorption isotherm of Nitrogen on 2.1wt% Ru@SBA-15
DOI: 10.1038/srep15186
Article source: Figure 2
Adsorbate Nitrogen: InChIKey IJGRMHOSHXDMSA-UHFFFAOYSA-N
Kind: experiment
Temperature: 77 K
Tabular data in the source: 0
pressure (bar)	uptake (cm3(STP)/g)
0.000902	0.948
0.001621	28.758
0.001743	39.318
0.003182	63.039
0.015726	84.225
0.031988	100.558
0.042384	99.095
0.047886	102.408
0.072863	111.501
0.098204	117.281
0.102987	120.979
0.124174	125.073
0.126129	123.811
0.148715	129.831
0.151582	129.006
0.172293	134.249
0.174846	133.861
0.198942	138.522
0.223645	142.504
0.225904	143.524
0.248115	146.923
0.253839	147.894
0.275229	150.905
0.280204	153.7
0.301462	156.216
0.304775	157.126
0.348984	165.067
0.352925	163.835
0.402858	175.513
0.403233	175.57
0.442395	179.893
0.452143	185.492
0.498043	196.127
0.504973	197
0.512867	197.9
0.553609	209.555
0.557531	212.332
0.569274	229.745
0.589772	253.087
0.602863	222.954
0.607808	281.215
0.61634	291.488
0.632096	314.479
0.643282	337.593
0.652016	363.396
0.655431	240.62
0.660365	393.479
0.670417	416.103
0.698312	262.025
0.705901	402.136
0.706093	268.384
0.719559	292.598
0.723734	319.624
0.728101	342.37
0.731141	363.893
0.73797	391.163
0.743847	415.621
0.755803	441.18
0.764345	434.578
0.807874	445.599
0.832973	447.604
0.861181	449.977
0.86262	450.149
0.90924	456.856
0.912462	458.243
0.955738	464.41
0.959558	469.803
0.981556	474.812
