Adsorption isotherm of Nitrogen on 0.5wt% Ru@SBA-15
DOI: 10.1038/srep15186
Article source: Figure 2
Adsorbate Nitrogen: InChIKey IJGRMHOSHXDMSA-UHFFFAOYSA-N
Kind: experiment
Temperature: 77 K
Tabular data in the source: 0
pressure (bar)	uptake (cm3(STP)/g)
0.000203	39.932
0.000679	1.244
0.000973	14.649
0.001479	35.586
0.002817	81.505
0.016678	107.128
0.030712	121.156
0.041199	124.776
0.04512	126.982
0.072346	138.579
0.098447	147.064
0.123343	154.079
0.147712	160.246
0.150123	161.207
0.172759	165.451
0.196753	172.033
0.198404	172.353
0.22255	175.748
0.225864	178.35
0.247902	180.613
0.252634	184.694
0.272878	185.144
0.28066	189.903
0.29826	189.544
0.303408	195.65
0.327959	196.729
0.354303	206.607
0.402726	217.863
0.403871	217.905
0.435231	219.718
0.452528	229.41
0.491031	233.403
0.501761	242.392
0.553204	257.78
0.555626	252.407
0.603998	271.176
0.608659	273.315
0.625408	302.464
0.642036	338.158
0.649929	369.224
0.653972	401.816
0.654408	290.565
0.660902	438.09
0.664955	471.4
0.67296	502.377
0.705729	315.011
0.707796	334.663
0.726044	349.146
0.731445	379.077
0.734089	405.943
0.737585	439.65
0.741375	470.009
0.748103	497.089
0.756898	538.744
0.759786	521.96
0.781925	542.068
0.824279	545.578
0.859135	552.933
0.860563	553.102
0.909453	561.25
0.909605	561.281
0.957278	570.133
0.962182	572.007
0.984666	580.089
