Adsorption isotherm of Nitrogen on 4.0wt% Ru@SBA-15
DOI: 10.1038/srep15186
Article source: Figure 2
Adsorbate Nitrogen: InChIKey IJGRMHOSHXDMSA-UHFFFAOYSA-N
Kind: experiment
Temperature: 77 K
Tabular data in the source: 0
pressure (bar)	uptake (cm3(STP)/g)
0.000679	11.187
0.000831	0.371
0.001206	22.334
0.004742	34.693
0.011227	45.557
0.021623	54.2
0.033458	63.363
0.033761	63.53
0.0474	65.832
0.063683	70.477
0.071606	72.294
0.092864	76.333
0.099572	79.945
0.099795	80.463
0.120374	81.745
0.122857	84.653
0.147357	86.026
0.149475	88.489
0.173783	92.448
0.173874	92.47
0.19886	94.008
0.199235	94.048
0.225266	99.013
0.225357	99.035
0.249381	102.546
0.25309	101.782
0.274834	105.955
0.277874	104.632
0.302283	108.968
0.303904	109.11
0.351101	116.285
0.402199	124.528
0.403821	124.833
0.442111	131.058
0.452892	132.997
0.501356	142.389
0.505825	143.61
0.556254	155.314
0.556447	155.353
0.567268	157.96
0.604029	166.305
0.608396	175.331
0.612196	179.637
0.623392	196.226
0.633839	216.071
0.654904	298.912
0.655694	294.559
0.660031	322.116
0.701848	198.77
0.706975	351.387
0.708657	371.169
0.719316	223.398
0.727858	246.704
0.757475	377.886
0.767537	368.829
0.808381	381.957
0.809708	383.379
0.857767	387.86
0.859854	389.997
0.908672	396.917
0.91001	396.994
0.957298	402.311
0.961098	403.482
0.983329	408.214
