Adsorption isotherm of Nitrogen on SBA-15
DOI: 10.1038/srep15186
Article source: Figure 2
Adsorbate Nitrogen: InChIKey IJGRMHOSHXDMSA-UHFFFAOYSA-N
Kind: experiment
Temperature: 77 K
Tabular data in the source: 0
pressure (bar)	uptake (cm3(STP)/g)
0.000952	15.35
0.001408	79.64
0.001439	1.29
0.001652	67.66
0.001652	52.68
0.002138	33.78
0.002361	92.32
0.004266	105.91
0.009525	116.75
0.01526	127.12
0.023153	137.26
0.02985	143.94
0.035829	147.98
0.040733	152.36
0.046711	156.27
0.059265	163.31
0.060947	164.8
0.068719	168.26
0.073258	170.45
0.088568	176.1
0.097667	179.21
0.114771	186.25
0.118956	187.05
0.126251	189.93
0.14299	195.81
0.150174	197.2
0.1705	202.16
0.17589	205.5
0.198161	208.55
0.202245	216.42
0.223695	216.33
0.237556	228.59
0.251418	222.37
0.274773	241.95
0.279525	228.6
0.300682	247.53
0.306012	237.11
0.324919	253.46
0.354344	249.32
0.401713	261.31
0.403263	272.14
0.430652	279.06
0.45039	274.8
0.486036	293.59
0.505176	291.06
0.544054	311.87
0.555352	307.09
0.601911	332.79
0.605234	326.4
0.653759	348.19
0.659778	350.76
0.671825	378.39
0.676638	410.33
0.707167	588.31
0.7074	591.62
0.710764	627.95
0.759451	696.93
0.760282	691.41
0.769918	453.61
0.809333	707.88
0.850421	709.84
0.85953	709.86
0.862195	714.42
0.910425	731.11
0.911023	731.35
0.960906	743.56
0.961057	743.57
0.981556	746.9
