Adsorption isotherm of Hydrogen on Ca48X
DOI: 10.1016/j.cattod.2006.09.011
Adsorbate Hydrogen: InChIKey UFHFLCQGNIYNRP-UHFFFAOYSA-N
Temperature: 77 K
Tabular data in the source: 0
pressure (bar)	uptake (wt%)
0.141713	2.4186
0.21257	3.11628
0.495997	3.60465
0.991993	3.7907
1.98399	3.93023
2.97598	4.02326
4.03883	4.09302
5.03082	4.09302
10.1325	4.18605
15.2342	4.2093
20.265	4.32558
