Adsorption isotherm of Hydrogen on Mn48X-C6H6(p)
DOI: 10.1016/j.cattod.2006.09.011
Adsorbate Hydrogen: InChIKey UFHFLCQGNIYNRP-UHFFFAOYSA-N
Temperature: 77 K
Tabular data in the source: 0
pressure (bar)	uptake (wt%)
0.0708566	0.0708566
0.495997	1.16279
0.991993	1.25581
1.98399	1.34884
5.03082	1.53488
10.1325	1.62791
15.1633	1.69767
20.265	1.76744
