Adsorption isotherm of Hydrogen on Mn48X
DOI: 10.1016/j.cattod.2006.09.011
Adsorbate Hydrogen: InChIKey UFHFLCQGNIYNRP-UHFFFAOYSA-N
Temperature: 77 K
Tabular data in the source: 0
pressure (bar)	uptake (wt%)
0.0708566	1.5814
0.141713	2.32558
0.495997	3.09302
0.991993	3.48837
1.98399	3.7907
2.97598	3.86047
4.03883	3.95349
5.03082	3.97674
10.1325	4.11628
15.1633	4.18605
20.265	4.27907
