Adsorption isotherm of Hydrogen on Mn48X
DOI: 10.1016/j.cattod.2006.09.011
Adsorbate Hydrogen: InChIKey UFHFLCQGNIYNRP-UHFFFAOYSA-N
Temperature: 298 K
Tabular data in the source: 0
pressure (bar)	uptake (wt%)
1.05269	0.0186047
15.0291	0.130233
19.9146	0.155039
50.9918	0.356589
101.595	0.620155
