Adsorption isotherm of Hydrogen on Ca48X
DOI: 10.1016/j.cattod.2006.09.011
Adsorbate Hydrogen: InChIKey UFHFLCQGNIYNRP-UHFFFAOYSA-N
Temperature: 298 K
Tabular data in the source: 0
pressure (bar)	uptake (wt%)
1.05269	0.0186047
15.0332	0.139535
19.9173	0.16124
51.012	0.403101
101.623	0.685271
