Adsorption isotherm of Hydrogen on Mn48X-C6H6(l)
DOI: 10.1016/j.cattod.2006.09.011
Adsorbate Hydrogen: InChIKey UFHFLCQGNIYNRP-UHFFFAOYSA-N
Temperature: 298 K
Tabular data in the source: 0
pressure (bar)	uptake (wt%)
1.03478	0.00620155
20.3685	0.0806202
50.7778	0.133333
101.246	0.182946
