Adsorption isotherm of Hydrogen on Mg48X
DOI: 10.1016/j.cattod.2006.09.011
Adsorbate Hydrogen: InChIKey UFHFLCQGNIYNRP-UHFFFAOYSA-N
Temperature: 298 K
Tabular data in the source: 0
pressure (bar)	uptake (wt%)
0.705839	0.0217054
15.0372	0.148837
20.2763	0.186047
51.0093	0.396899
101.625	0.688372
