Adsorption isotherm of Hydrogen on Mn48X-C6H6(l)
DOI: 10.1016/j.cattod.2006.09.011
Adsorbate Hydrogen: InChIKey UFHFLCQGNIYNRP-UHFFFAOYSA-N
Temperature: 77 K
Tabular data in the source: 0
pressure (bar)	uptake (wt%)
0.0708566	0.511628
0.495997	0.627907
1.06285	0.697674
2.05484	0.674419
5.10168	0.651163
10.1325	0.697674
15.2342	0.697674
20.265	0.697674
