Adsorption isotherm of Hydrogen on Mg-X
DOI: 10.1016/j.cattod.2006.09.011
Adsorbate Hydrogen: InChIKey UFHFLCQGNIYNRP-UHFFFAOYSA-N
Temperature: 77 K
Tabular data in the source: 0
pressure (bar)	uptake (wt%)
1.06285	1.02326
1.98399	1.23256
3.04684	1.30233
4.03883	1.34884
5.10168	1.51163
10.0616	1.44186
15.2342	1.51163
