Adsorption isotherm of Hydrogen on Mg48X
DOI: 10.1016/j.cattod.2006.09.011
Adsorbate Hydrogen: InChIKey UFHFLCQGNIYNRP-UHFFFAOYSA-N
Temperature: 77 K
Tabular data in the source: 0
pressure (bar)	uptake (wt%)
0	1.69767
0.21257	2.4186
0.495997	3.32558
0.991993	3.72093
1.98399	4.02326
3.04684	4.13953
4.03883	4.2093
5.03082	4.27907
10.1325	4.39535
15.0925	4.46512
20.265	4.51163
