Adsorption isotherm of Hydrogen on Mn48X-C6H6(p)
DOI: 10.1016/j.cattod.2006.09.011
Adsorbate Hydrogen: InChIKey UFHFLCQGNIYNRP-UHFFFAOYSA-N
Temperature: 298 K
Tabular data in the source: 0
pressure (bar)	uptake (wt%)
1.03478	0.00620155
20.3698	0.0775194
51.1142	0.155039
101.222	0.23876
