Adsorption isotherm of Benzene on Activated Carbon AC67-1
DOI: 10.1016/s0016-2361(99)00253-7
Adsorbate Benzene: InChIKey UHOVQNZJYSORNB-UHFFFAOYSA-N
Temperature: 293 K
Tabular data in the source: 0
pressure (bar)	uptake (mmol/g)
0.000591255	1.70388
0.00091657	2.03883
0.00297467	2.19903
0.00882533	2.31553
0.0177811	2.35922
0.0239805	2.40291
0.0398265	2.46117
0.0529177	2.49029
0.0666981	2.51942
0.0828894	2.56311
0.099769	2.62136
