Adsorption isotherm of Benzene on Activated Carbon AP67-1
DOI: 10.1016/s0016-2361(99)00253-7
Adsorbate Benzene: InChIKey UHOVQNZJYSORNB-UHFFFAOYSA-N
Temperature: 293 K
Tabular data in the source: 0
pressure (bar)	uptake (mmol/g)
0.000244196	1.74757
0.000902353	2.28641
0.00363701	2.66505
0.0081078	2.81068
0.0156821	2.91262
0.0180939	2.91262
0.0304919	3.01456
0.0484026	3.1165
0.0639032	3.18932
0.0763045	3.23301
0.0911126	3.36408
0.099708	3.68447
