Adsorption isotherm of Benzene on Activated Carbon AG-2
DOI: 10.1016/s0016-2361(99)00253-7
Adsorbate Benzene: InChIKey UHOVQNZJYSORNB-UHFFFAOYSA-N
Temperature: 293 K
Tabular data in the source: 0
pressure (bar)	uptake (mmol/g)
0.000252911	1.58056
0.00055942	2.22455
0.00120928	2.86865
0.00735452	3.48509
0.0152408	3.67765
0.0176418	3.72226
0.0303368	3.88697
0.046122	4.05258
0.0622505	4.2183
0.0763181	4.39804
0.091069	4.63652
0.0999787	4.94646
