Adsorption isotherm of Benzene on Activated Carbon AC67-2
DOI: 10.1016/s0016-2361(99)00253-7
Adsorbate Benzene: InChIKey UHOVQNZJYSORNB-UHFFFAOYSA-N
Temperature: 293 K
Tabular data in the source: 0
pressure (bar)	uptake (mmol/g)
0.000271335	1.25862
0.000571144	2.01968
0.000593755	1.62456
0.000646515	0.702629
0.00158111	2.3712
0.00740477	2.60705
0.0156386	2.72655
0.0176971	2.75642
0.0314272	2.83363
0.0489299	2.98511
0.064376	3.07746
0.0798211	3.18444
0.0904585	3.30464
0.0997073	3.68784
