Adsorption isotherm of Benzene on Activated Carbon AG-1
DOI: 10.1016/s0016-2361(99)00253-7
Adsorbate Benzene: InChIKey UHOVQNZJYSORNB-UHFFFAOYSA-N
Temperature: 293 K
Tabular data in the source: 0
pressure (bar)	uptake (mmol/g)
0.000223289	2.11165
0.000885628	2.57767
0.00328075	2.86893
0.00878352	3.04369
0.0180797	3.16019
0.0318533	3.30583
0.0473539	3.37864
0.0663008	3.43689
0.088	3.56796
0.0997055	3.72816
