Adsorption isotherm of Benzene on Activated Carbon AP67-2
DOI: 10.1016/s0016-2361(99)00253-7
Adsorbate Benzene: InChIKey UHOVQNZJYSORNB-UHFFFAOYSA-N
Temperature: 293 K
Tabular data in the source: 0
pressure (bar)	uptake (mmol/g)
0.000584543	1.78554
0.000607992	1.37579
0.000895239	2.35636
0.00360524	3.00106
0.0084005	3.20735
0.0176619	3.37105
0.0324153	3.56563
0.0475146	3.71641
0.0636407	3.92602
0.0770215	4.10557
0.0941676	4.49109
0.0999828	4.87329
