Adsorption isotherm of Benzene on Activated Carbon AP33-2
DOI: 10.1016/s0016-2361(99)00253-7
Adsorbate Benzene: InChIKey UHOVQNZJYSORNB-UHFFFAOYSA-N
Temperature: 293 K
Tabular data in the source: 0
pressure (bar)	uptake (mmol/g)
0.000573656	1.97578
0.00222595	3.10309
0.00768783	3.6608
0.0176276	3.97103
0.0327227	4.19498
0.0474753	4.4042
0.067374	4.6881
0.0804065	4.95534
0.0903471	5.25095
0.0999209	5.9562
