Adsorption isotherm of Benzene on Activated Carbon AP33-1
DOI: 10.1016/s0016-2361(99)00253-7
Adsorbate Benzene: InChIKey UHOVQNZJYSORNB-UHFFFAOYSA-N
Temperature: 293 K
Tabular data in the source: 0
pressure (bar)	uptake (mmol/g)
0.000260921	1.45631
0.000540241	2.59223
0.000576202	1.96602
0.0022287	3.18932
0.00805846	3.6699
0.0166622	3.84466
0.0180387	3.87379
0.0324981	4.07767
0.0476508	4.20874
0.0648691	4.36893
0.0803672	4.48544
0.0913836	4.64563
0.0999839	4.87864
