Adsorption isotherm of Ethane on Carbon Black
DOI: 10.1021/la0486483
Adsorbate Ethane: InChIKey OTMSDBZUPAUEDD-UHFFFAOYSA-N
Temperature: 203 K
Tabular data in the source: 0
pressure (bar)	uptake (micromoles/m2)
0.00219481	0.0200544
0.00424629	0.2589
0.00759458	0.497745
0.012361	1.14604
0.0166614	1.65785
0.0210898	2.20378
0.0254661	2.95444
0.0348695	3.8757
0.0524655	4.79696
0.0741319	5.37701
0.104746	5.78646
0.167826	6.36651
0.252516	6.70772
0.39828	7.18541
0.536843	7.56074
0.746714	8.44788
0.97536	9.13029
