Adsorption isotherm of Ethene on Carbon Black
DOI: 10.1021/la0486483
Adsorbate Ethene: InChIKey VGGSQFUCUMXWEO-UHFFFAOYSA-N
Temperature: 115 K
Tabular data in the source: 0
pressure (bar)	uptake (micromoles/m2)
1.06e-06	0.190658
2.17e-06	0.361262
3.1e-06	0.907193
3.96e-06	4.31927
4.94e-06	5.82058
5.99e-06	6.23003
8.1e-06	6.23003
1.04e-05	6.57124
2.18e-05	6.94656
3.12e-05	7.08305
3.99e-05	7.04893
6.2e-05	7.18541
7.31e-05	7.32189
0.00011	7.35601
0.000214	7.6631
0.000323	7.69722
0.00111274	8.27727
0.00192858	8.92557
0.00307791	13.3613
0.00416506	15.1697
0.00491219	16.0909
0.00595485	17.0122
0.00683254	18.5476
0.00742008	19.8442
