Adsorption isotherm of Ethene on Carbon Black
DOI: 10.1021/la0486483
Adsorbate Ethene: InChIKey VGGSQFUCUMXWEO-UHFFFAOYSA-N
Temperature: 183 K
Tabular data in the source: 0
pressure (bar)	uptake (micromoles/m2)
0.000842	0.109576
0.00143596	0.252883
0.00286686	0.372306
0.00438186	0.778343
0.00747617	1.20826
0.0097654	1.90091
0.0129576	2.92795
0.0174656	4.12217
0.0235419	5.02979
0.0332639	5.50748
0.0434494	6.03294
0.0696159	6.55839
0.118776	7.13162
0.18734	7.56154
0.351233	8.13477
0.520234	8.75577
0.690293	9.54396
0.833534	10.571
1.0065	11.3592
