Adsorption isotherm of Ethane on Carbon Black
DOI: 10.1021/la0486483
Adsorbate Ethane: InChIKey OTMSDBZUPAUEDD-UHFFFAOYSA-N
Temperature: 177 K
Tabular data in the source: 0
pressure (bar)	uptake (micromoles/m2)
0.000186	-0.0481871
0.000344	0.122417
0.000509	0.2589
0.000778	0.395382
0.00126634	0.838952
0.00173394	1.58961
0.0024118	2.57911
0.00310118	3.63685
0.00346175	4.25103
0.00489134	4.93344
0.00659305	5.44525
0.0107309	5.92294
0.0142387	6.12767
0.0239148	6.46887
0.0371315	6.8442
0.0613925	7.21953
0.101505	7.62898
0.138986	7.90194
0.181544	8.6526
0.240888	9.4715
0.268896	10.2904
0.314649	11.7917
0.374018	13.0201
0.404588	14.1119
0.430833	14.7943
0.480926	15.4767
