Adsorption isotherm of Ethene on Carbon Black
DOI: 10.1021/la0486483
Adsorbate Ethene: InChIKey VGGSQFUCUMXWEO-UHFFFAOYSA-N
Temperature: 104 K
Tabular data in the source: 0
pressure (bar)	uptake (micromoles/m2)
5.81e-08	0.0541751
1.13e-07	0.190658
2e-07	0.463624
2.91e-07	0.873073
3.54e-07	1.79433
3.68e-07	6.0253
3.9e-07	6.23003
6.9e-07	6.40063
1.04e-06	6.70772
1.99e-06	6.91244
3.01e-06	7.08305
3.81e-06	7.11717
4.64e-06	7.21953
6.35e-06	7.28777
8.87e-06	7.32189
1.04e-05	7.39013
2.06e-05	7.42425
3.94e-05	7.69722
6.32e-05	7.76546
8.16e-05	7.86782
0.000112	7.79958
0.000218	7.86782
0.000408	8.34551
0.00046	8.72084
0.000487	13.0883
0.000497	9.02793
0.000527	14.0437
0.000582	15.2379
0.000796	15.7497
