Adsorption isotherm of Ethane on Carbon Black
DOI: 10.1021/la0486483
Adsorbate Ethane: InChIKey OTMSDBZUPAUEDD-UHFFFAOYSA-N
Temperature: 188 K
Tabular data in the source: 0
pressure (bar)	uptake (micromoles/m2)
0.00100043	0.0541751
0.00230074	0.29302
0.00357227	0.600107
0.00546005	1.11192
0.00659305	1.89669
0.00917051	2.85208
0.0105636	3.70509
0.0146932	4.08042
0.0180232	4.69459
0.0224579	5.13816
0.0348695	5.54761
0.0492694	5.95706
0.0567537	6.33239
0.0968312	6.50299
0.148002	7.0148
0.215798	7.6631
0.273155	7.93606
0.368187	8.99381
0.466047	10.1198
0.553982	11.3481
0.648242	12.6788
0.746714	14.146
0.807747	15.5791
0.901663	16.8416
1.0065	18.5135
