Adsorption isotherm of Ethene on Carbon Black
DOI: 10.1021/la0486483
Adsorbate Ethene: InChIKey VGGSQFUCUMXWEO-UHFFFAOYSA-N
Temperature: 120 K
Tabular data in the source: 0
pressure (bar)	uptake (micromoles/m2)
3.36e-06	0.190658
5.51e-06	0.395382
6.87e-06	0.73659
1.04e-05	1.65785
1.1e-05	2.30614
1.19e-05	3.19328
1.4e-05	4.2169
1.44e-05	5.30877
1.75e-05	6.0253
2.57e-05	6.63948
2.87e-05	6.8442
4.98e-05	7.15129
7.52e-05	7.42425
9.9e-05	7.52662
0.000186	7.76546
0.00053	7.93606
0.00097	8.24315
0.00163525	8.41376
0.00353157	8.72084
0.00491219	8.89145
0.00683254	9.36914
0.0103209	14.9308
0.0118421	15.9886
0.0147559	16.1592
0.0155901	16.6027
0.0194262	18.1723
0.0229109	19.9124
