Adsorption isotherm of Ethene on Carbon Black
DOI: 10.1021/la0486483
Adsorbate Ethene: InChIKey VGGSQFUCUMXWEO-UHFFFAOYSA-N
Temperature: 104 K
Tabular data in the source: 0
pressure (bar)	uptake (micromoles/m2)
9.72e-09	-0.0823078
2.01e-08	0.0200544
3.04e-08	0.0200544
4.96e-08	0.0200544
6.8e-08	0.0541751
1.03e-07	0.156537
2e-07	0.190658
2.53e-07	0.361262
3.27e-07	0.497745
4.14e-07	0.634228
4.39e-07	5.95706
4.48e-07	1.38488
4.48e-07	3.29564
5.04e-07	6.40063
5.78e-07	6.81008
7.18e-07	6.94656
1e-06	7.11717
1.99e-06	7.32189
3.01e-06	7.45837
5.32e-06	7.6631
7.43e-06	7.76546
1.06e-05	7.76546
2.02e-05	7.90194
3.06e-05	7.90194
4.71e-05	7.93606
7.11e-05	8.03843
0.000103	8.10667
0.000194	8.24315
0.000287	8.34551
0.000507	8.482
0.000722	8.89145
0.000766	9.13029
0.000796	14.9308
0.000862	16.1933
0.00102813	16.398
