Adsorption isotherm of Ethane on Carbon Black
DOI: 10.1021/la0486483
Adsorbate Ethane: InChIKey OTMSDBZUPAUEDD-UHFFFAOYSA-N
Temperature: 140 K
Tabular data in the source: 0
pressure (bar)	uptake (micromoles/m2)
9.7e-08	0.0541751
2.27e-07	0.0200544
3.1e-07	0.0200544
4.52e-07	0.0541751
7.25e-07	0.122417
1.09e-06	0.122417
2.04e-06	-0.0140664
2.89e-06	0.122417
4.49e-06	0.0882958
7.65e-06	0.0882958
1.53e-05	0.122417
2.09e-05	0.224779
3.92e-05	0.497745
5.9e-05	0.873073
8.34e-05	1.38488
9.76e-05	1.69197
0.000152	4.8652
0.000214	5.47937
0.000377	6.26415
0.000623	6.50299
0.000827	6.63948
0.00159975	6.87832
0.00193171	7.04893
0.00451279	7.18541
0.00598798	7.73134
0.00819904	7.97019
0.0119548	8.37963
0.0135561	9.16441
0.0168917	9.50562
0.0185617	11.3823
0.02172	12.2012
0.0224134	13.2248
0.023129	13.9754
0.0246294	14.3849
0.0288201	15.1355
0.0326804	15.818
0.0337238	16.4662
0.0394619	17.6605
0.0407217	20.0148
0.0420218	18.9229
