Adsorption isotherm of Ethane on Carbon Black
DOI: 10.1021/la0486483
Adsorbate Ethane: InChIKey OTMSDBZUPAUEDD-UHFFFAOYSA-N
Temperature: 130 K
Tabular data in the source: 0
pressure (bar)	uptake (micromoles/m2)
1.69e-06	-0.0140664
1.58e-05	0.600107
2.03e-05	1.04368
4.05e-05	5.58173
5.72e-05	6.12767
8.34e-05	6.26415
0.000101	6.46887
0.000147	6.57124
0.000214	6.53711
0.000427	6.94656
0.000604	7.0148
0.000968	7.11717
0.00175791	7.6631
0.00373728	8.37963
0.00617915	11.4505
0.0084608	14.1802
0.0099004	15.2379
0.0112265	15.7838
0.011585	16.4321
0.0144355	19.0594
0.0148964	20.083
