Adsorption isotherm of Ethane on Carbon Black
DOI: 10.1021/la0486483
Adsorbate Ethane: InChIKey OTMSDBZUPAUEDD-UHFFFAOYSA-N
Temperature: 203 K
Tabular data in the source: 0
pressure (bar)	uptake (micromoles/m2)
0.00504749	0.190658
0.00808724	0.565986
0.012361	0.975435
0.0149259	1.14604
0.0185986	1.69197
0.0217631	2.47675
0.0293346	3.2274
0.0395402	4.14866
0.065375	5.0358
0.10809	5.82058
0.162634	6.29827
0.237133	6.63948
0.329837	6.98068
0.451629	7.76546
0.638136	8.27727
0.807747	8.95969
0.990807	10.1539
