Adsorption isotherm of Ethene on Carbon Black
DOI: 10.1021/la0486483
Adsorbate Ethene: InChIKey VGGSQFUCUMXWEO-UHFFFAOYSA-N
Temperature: 130 K
Tabular data in the source: 0
pressure (bar)	uptake (micromoles/m2)
3.1e-06	0.122417
7.46e-06	0.156537
1.57e-05	0.29302
2.12e-05	0.395382
2.95e-05	0.668348
3.99e-05	1.14604
4.71e-05	1.62373
4.84e-05	2.0673
6.37e-05	3.15916
7.11e-05	4.72872
0.000105	6.09354
0.000214	6.98068
0.000314	7.15129
0.000544	7.28777
0.00108256	7.62898
0.00215282	7.93606
0.00383526	8.07255
0.00612087	8.14079
0.00924585	8.482
0.0139663	8.92557
0.0188993	9.30089
0.0210967	9.81271
0.0255747	10.5975
0.0262877	12.5082
0.0285482	13.5319
0.0310032	14.3166
0.0346079	15.4426
0.0419538	16.1933
0.0481374	16.7051
0.058355	17.4899
