Adsorption isotherm of Ethene on Carbon Black
DOI: 10.1021/la0486483
Adsorbate Ethene: InChIKey VGGSQFUCUMXWEO-UHFFFAOYSA-N
Temperature: 140 K
Tabular data in the source: 0
pressure (bar)	uptake (micromoles/m2)
1.03e-06	0.0200544
1.94e-06	-0.0481871
3.65e-06	-0.0481871
6.69e-06	-0.0140664
1.04e-05	0.0882958
2.01e-05	0.190658
3.03e-05	0.156537
5.71e-05	0.395382
7.73e-05	0.600107
9.9e-05	0.838952
0.000208	3.15916
0.000314	4.96756
0.000391	5.61585
0.000625	6.12767
0.000737	6.40063
0.000997	6.60536
0.00215282	6.94656
0.00325193	7.18541
0.0053346	7.25365
0.00851373	7.4925
0.0160248	8.14079
0.0199678	8.24315
0.0310032	9.33502
0.0365645	10.0174
0.0599819	13.7707
0.0768247	15.7838
0.10396	17.6264
