Adsorption isotherm of Ethene on Carbon Black
DOI: 10.1021/la0486483
Adsorbate Ethene: InChIKey VGGSQFUCUMXWEO-UHFFFAOYSA-N
Temperature: 125 K
Tabular data in the source: 0
pressure (bar)	uptake (micromoles/m2)
1.01e-05	0.395382
2.06e-05	2.20378
4.34e-05	5.8547
6.03e-05	6.19591
7.73e-05	6.50299
0.000105	6.6736
0.000208	6.8442
0.000425	7.21953
0.00108256	7.56074
0.00209443	7.6631
0.00477895	8.37963
0.00742008	9.23265
0.0103209	11.5187
0.0155901	15.2379
0.0205245	16.671
0.0235496	19.8101
