Adsorption isotherm of Ethane on Carbon Black
DOI: 10.1021/la0486483
Adsorbate Ethane: InChIKey OTMSDBZUPAUEDD-UHFFFAOYSA-N
Temperature: 91 K
Tabular data in the source: 0
pressure (bar)	uptake (micromoles/m2)
6.16e-10	0.110175
1.3e-09	0.171592
2.12e-09	0.294427
2.44e-09	2.10624
2.53e-09	0.877891
2.58e-09	3.82592
2.64e-09	6.5897
5.78e-09	6.77395
1.15e-08	6.9275
3.59e-08	6.9275
7.43e-08	7.08104
2.23e-07	7.14246
1.01e-06	7.23458
3.56e-06	7.41884
7.96e-06	7.48025
1.3e-05	7.72592
1.58e-05	8.18655
1.65e-05	9.53773
1.78e-05	11.7488
1.85e-05	13.1306
1.85e-05	14.6968
1.97e-05	15.2803
