Adsorption isotherm of Ethane on Carbon Black
DOI: 10.1021/la0486483
Adsorbate Ethane: InChIKey OTMSDBZUPAUEDD-UHFFFAOYSA-N
Temperature: 140 K
Tabular data in the source: 0
pressure (bar)	uptake (micromoles/m2)
0.000105	-0.116429
0.000144	-0.116429
0.00016	-0.150549
0.000226	-0.0823078
0.000273	-0.0823078
0.00032	-0.0140664
0.000459	-0.0481871
0.000555	-0.0140664
0.000736	-0.0481871
0.000917	-0.0481871
0.00144642	0.190658
0.00180232	0.429503
0.00228136	1.2484
0.00275476	2.98856
0.00307505	5.0358
0.00455466	6.16179
0.00541405	6.36651
0.00741319	6.60536
0.00827511	6.74184
0.0106405	6.81008
0.0148002	7.15129
0.0173184	7.18541
0.0237133	7.4925
0.0273155	7.6631
0.0340367	7.93606
0.0404588	8.20903
0.0458782	9.26677
0.0545345	13.7707
0.0599262	14.3849
0.0638136	15.272
0.0723613	16.4321
