Adsorption isotherm of Ethene on Carbon Black
DOI: 10.1021/la0486483
Adsorbate Ethene: InChIKey VGGSQFUCUMXWEO-UHFFFAOYSA-N
Temperature: 173 K
Tabular data in the source: 0
pressure (bar)	uptake (micromoles/m2)
0.000251	0.0379226
0.000605	0.18123
0.00103237	0.39619
0.00160292	0.539497
0.00252821	0.730573
0.00346175	1.16049
0.00452175	1.97257
0.00590632	2.80853
0.00669746	3.50118
0.00847759	4.28937
0.0100772	4.91036
0.0129576	5.50748
0.0194963	6.15236
0.0239148	6.43897
0.0271181	6.65393
0.0421052	6.84501
0.0643558	7.20328
0.0867454	7.39435
0.130519	7.75262
0.19332	8.15866
0.28634	8.66023
0.368187	9.37677
0.437657	10.0694
0.50414	10.6188
0.580722	11.5741
0.648242	12.6012
0.723613	13.4371
0.807747	14.3925
0.860145	15.0852
