Adsorption isotherm of Ethene on Carbon Black
DOI: 10.1021/la0486483
Adsorbate Ethene: InChIKey VGGSQFUCUMXWEO-UHFFFAOYSA-N
Temperature: 183 K
Tabular data in the source: 0
pressure (bar)	uptake (micromoles/m2)
0.000778	0.109576
0.00170691	0.276768
0.0031503	0.539497
0.00504749	0.92165
0.00902754	1.63819
0.0112488	2.42637
0.0144642	3.3101
0.0183086	3.97887
0.0239148	4.52821
0.0254661	5.12532
0.0371315	5.48359
0.0549979	5.96128
0.0789408	6.43897
0.116924	6.98832
0.170484	7.25105
0.219215	7.58543
0.324694	8.18254
0.430833	8.73189
0.545345	9.13792
0.648242	9.92611
0.770553	11.0248
0.901663	11.813
0.990807	12.2668
