Adsorption isotherm of Ethane on Carbon Black
DOI: 10.1021/la0486483
Adsorbate Ethane: InChIKey OTMSDBZUPAUEDD-UHFFFAOYSA-N
Temperature: 91 K
Tabular data in the source: 0
pressure (bar)	uptake (micromoles/m2)
1.78e-09	0.0794663
3.08e-09	0.23301
4.39e-09	0.23301
4.57e-09	2.96608
4.75e-09	3.21175
4.75e-09	5.97553
4.94e-09	6.52829
1.04e-08	6.71254
9.78e-08	7.01962
1.01e-06	7.26529
9.89e-06	7.54167
1.09e-05	7.6338
1.28e-05	7.69521
1.49e-05	7.60309
1.71e-05	7.75663
1.82e-05	14.2976
1.85e-05	15.1881
2.09e-05	15.4952
