Adsorption isotherm of Ethene on Carbon Black
DOI: 10.1021/la0486483
Adsorbate Ethene: InChIKey VGGSQFUCUMXWEO-UHFFFAOYSA-N
Temperature: 125 K
Tabular data in the source: 0
pressure (bar)	uptake (micromoles/m2)
9.82e-06	0.29302
1.22e-05	0.565986
2.06e-05	0.907193
2.43e-05	1.86257
2.64e-05	3.09092
2.87e-05	3.70509
3.03e-05	4.89932
3.89e-05	5.71822
5.12e-05	6.26415
6.55e-05	6.70772
9.63e-05	7.04893
0.000214	7.35601
0.000323	7.42425
0.00053	7.56074
0.000778	7.93606
0.00150577	8.10667
0.0028342	8.31139
0.0053346	8.41376
0.00950362	8.78908
0.0125116	9.30089
0.0132189	9.71034
0.0139663	11.0752
0.0155901	11.7917
0.0164715	12.9177
0.0174028	14.9308
0.017888	14.3849
0.0205245	15.4767
0.0262877	15.9203
0.0270206	16.4662
0.0293442	16.9439
0.0355728	18.0017
0.0408158	19.9466
