Adsorption isotherm of Ethane on Carbon Black
DOI: 10.1021/la0486483
Adsorbate Ethane: InChIKey OTMSDBZUPAUEDD-UHFFFAOYSA-N
Temperature: 188 K
Tabular data in the source: 0
pressure (bar)	uptake (micromoles/m2)
0.00157793	0.190658
0.00248879	0.395382
0.00346175	0.634228
0.00474001	1.14604
0.00628947	1.76021
0.00783704	2.34026
0.0097654	3.2274
0.0133713	4.14866
0.0156464	4.76284
0.0235419	5.47937
0.0317323	5.82058
0.0500497	6.16179
0.0827511	6.63948
0.118776	6.91244
0.19332	7.25365
0.277481	7.69722
0.39828	8.34551
0.512124	9.16441
0.589919	10.2563
0.668937	11.2458
0.75854	12.2353
0.887606	13.3271
0.97536	14.4531
