Adsorption isotherm of Ethane on Carbon Black
DOI: 10.1021/la0486483
Adsorbate Ethane: InChIKey OTMSDBZUPAUEDD-UHFFFAOYSA-N
Temperature: 177 K
Tabular data in the source: 0
pressure (bar)	uptake (micromoles/m2)
0.000493	0.0882958
0.00103237	0.327141
0.00143596	0.975435
0.00244999	2.20378
0.00305283	3.26152
0.00357227	4.11454
0.003804	4.59223
0.00431354	4.66047
0.00554652	4.52399
0.00619141	5.06992
0.00713193	5.61585
0.0110735	5.71822
0.0177422	6.09354
0.0327453	6.57124
0.0549979	7.11717
0.0764985	7.45837
0.116924	8.00431
0.167826	9.09617
0.215798	10.3928
0.229797	11.5529
0.268896	12.9177
0.314649	14.3508
0.340367	15.6132
0.410995	16.8075
0.424117	17.8993
0.458782	19.2641
0.458782	19.9807
