Adsorption isotherm of Ethane on Carbon Black
DOI: 10.1021/la0486483
Adsorbate Ethane: InChIKey OTMSDBZUPAUEDD-UHFFFAOYSA-N
Temperature: 213 K
Tabular data in the source: 0
pressure (bar)	uptake (micromoles/m2)
0.00295839	0.0200544
0.00628947	0.190658
0.0097654	0.29302
0.0164016	0.668348
0.0254661	1.419
0.0371315	2.40851
0.0477451	3.12504
0.0643558	4.01218
0.0909324	4.52399
0.120657	5.27465
0.18734	5.6841
0.300161	6.19591
0.451629	6.74184
0.701226	7.39013
0.915943	8.27727
0.97536	8.61848
