Adsorption isotherm of Ethene on Carbon Black
DOI: 10.1021/la0486483
Adsorbate Ethene: InChIKey VGGSQFUCUMXWEO-UHFFFAOYSA-N
Temperature: 173 K
Tabular data in the source: 0
pressure (bar)	uptake (micromoles/m2)
0.000218	0.109576
0.000338	0.18123
0.000568	0.252883
0.00100043	0.348421
0.00141358	0.539497
0.00209374	0.849996
0.00320019	1.16049
0.00438186	1.66207
0.00529113	2.33084
0.00680353	3.19068
0.00821532	3.97887
0.00992006	4.67152
0.0144642	5.36417
0.0194963	5.81798
0.0258694	6.15236
0.0348695	6.53451
0.0585656	6.94055
0.0867454	7.3227
0.126481	7.70485
0.215798	8.30196
0.304915	8.85131
0.379941	9.61561
0.451629	10.6426
0.50414	11.3831
0.571668	12.3384
0.658508	13.3655
0.712331	14.2014
0.770553	15.0135
