Adsorption isotherm of Ethene on Carbon Black
DOI: 10.1021/la0486483
Adsorbate Ethene: InChIKey VGGSQFUCUMXWEO-UHFFFAOYSA-N
Temperature: 193 K
Tabular data in the source: 0
pressure (bar)	uptake (micromoles/m2)
0.00157793	0.0379226
0.00295839	0.205114
0.00599986	0.467844
0.011427	1.04107
0.0188931	1.90091
0.0262791	2.80853
0.0348695	3.66837
0.0508423	4.71929
0.0718384	5.45971
0.106405	6.03294
0.184419	6.65393
0.324694	7.29881
0.562756	8.13477
0.795154	8.99462
0.990807	9.80669
