Adsorption isotherm of Ethene on Carbon Black
DOI: 10.1021/la0486483
Adsorbate Ethene: InChIKey VGGSQFUCUMXWEO-UHFFFAOYSA-N
Temperature: 110 K
Tabular data in the source: 0
pressure (bar)	uptake (micromoles/m2)
1.09e-06	0.565986
1.25e-06	1.419
1.32e-06	2.71559
1.47e-06	5.10404
1.64e-06	5.6841
2.05e-06	6.23003
2.7e-06	6.26415
3.55e-06	6.57124
5.22e-06	6.70772
7.26e-06	6.81008
1.1e-05	6.81008
1.9e-05	7.28777
2.87e-05	7.28777
3.78e-05	7.32189
5.71e-05	7.39013
7.94e-05	7.59486
8.63e-05	7.62898
0.000413	8.00431
0.00066	8.10667
0.000918	8.34551
0.000997	9.30089
0.00198235	15.6132
0.00299443	16.9781
0.00373123	20.0148
