Adsorption isotherm of Ethane on Carbon Black
DOI: 10.1021/la0486483
Adsorbate Ethane: InChIKey OTMSDBZUPAUEDD-UHFFFAOYSA-N
Temperature: 130 K
Tabular data in the source: 0
pressure (bar)	uptake (micromoles/m2)
0.000546	-0.0140664
0.000977	0.463624
0.0011427	0.804831
0.00116079	1.31664
0.00125567	2.13554
0.00129576	3.02268
0.00140167	3.80746
0.00140167	4.83108
0.00161459	5.64998
0.00183086	5.78646
0.00224579	6.29827
0.00288773	6.40063
0.00365526	6.63948
0.00455466	6.87832
0.00549979	6.94656
0.00685305	7.0148
0.00881192	7.18541
0.00923725	7.28777
0.0148002	7.4925
0.0173184	7.73134
0.0240888	8.27727
0.0256515	8.61848
0.0295481	9.98331
0.0300161	9.50562
0.0304915	10.5634
0.0309744	11.2458
0.0324694	12.8153
0.0351233	14.0437
0.0374018	15.1014
0.0417504	15.4085
0.0451629	16.0568
0.050414	20.0148
