Adsorption isotherm of Ethene on Carbon Black
DOI: 10.1021/la0486483
Adsorbate Ethene: InChIKey VGGSQFUCUMXWEO-UHFFFAOYSA-N
Temperature: 120 K
Tabular data in the source: 0
pressure (bar)	uptake (micromoles/m2)
2.7e-06	0.190658
4.19e-06	0.429503
6.16e-06	0.565986
8.1e-06	1.28252
1.07e-05	3.15916
2.01e-05	6.19591
3.03e-05	6.57124
4.11e-05	6.60536
6.55e-05	6.91244
8.16e-05	6.98068
9.63e-05	7.0148
0.000214	7.32189
0.000341	7.56074
0.000501	7.6631
0.00097	7.93606
0.00221284	8.17491
0.00307791	8.51612
0.00394218	9.19853
0.00477895	10.1198
0.00612087	12.8153
0.00721883	14.3166
0.00762695	15.3403
0.00976858	16.2615
0.0139663	19.9124
