Adsorption isotherm of Ethane on Carbon Black
DOI: 10.1021/la0486483
Adsorbate Ethane: InChIKey OTMSDBZUPAUEDD-UHFFFAOYSA-N
Temperature: 110 K
Tabular data in the source: 0
pressure (bar)	uptake (micromoles/m2)
6.97e-05	-0.0481871
8.96e-05	-0.0481871
0.000115	0.122417
0.000135	0.361262
0.000185	0.463624
0.000185	1.00956
0.000188	1.48725
0.000197	3.32977
0.0002	2.71559
0.000209	5.06992
0.000226	5.8547
0.00023	6.26415
0.000269	6.36651
0.000315	6.53711
0.000459	6.81008
0.000546	6.94656
0.000724	6.94656
0.000932	7.0148
0.00137982	7.18541
0.00161459	7.21953
0.00231749	7.39013
0.00271181	7.35601
0.00302711	7.39013
0.00470007	7.4925
0.00549979	7.90194
0.00729761	7.93606
0.00777101	9.30089
0.00827511	11.3823
0.00840617	14.7943
0.00968312	15.2379
0.0101505	15.7156
0.0111541	15.8862
0.0136819	19.9124
