Adsorption isotherm of Ethane on Carbon Black
DOI: 10.1021/la0486483
Adsorbate Ethane: InChIKey OTMSDBZUPAUEDD-UHFFFAOYSA-N
Temperature: 120 K
Tabular data in the source: 0
pressure (bar)	uptake (micromoles/m2)
9.48e-09	0.0200544
1.95e-08	0.0541751
2.59e-08	0.0541751
4.71e-08	0.0882958
6.86e-08	0.0882958
6.39e-07	0.122417
2.8e-06	0.395382
4.93e-06	3.29564
6.54e-06	5.88882
1.12e-05	6.19591
1.31e-05	6.43475
1.79e-05	6.63948
4.05e-05	6.77596
5.72e-05	6.70772
0.000161	7.11717
0.000177	7.15129
0.000401	7.28777
0.000623	7.6631
0.000853	7.76546
0.00145582	8.482
0.00193171	13.9754
0.00423788	17.3875
0.00437318	20.0148
