Adsorption isotherm of Ethane on Carbon Black
DOI: 10.1021/la0486483
Adsorbate Ethane: InChIKey OTMSDBZUPAUEDD-UHFFFAOYSA-N
Temperature: 100 K
Tabular data in the source: 0
pressure (bar)	uptake (micromoles/m2)
1.48e-09	0.122417
1.04e-08	0.0882958
2.08e-08	0.224779
2.76e-08	0.327141
5.01e-08	0.463624
5.34e-08	3.32977
5.68e-08	3.60273
6.05e-08	5.44525
7.08e-08	6.33239
1.07e-07	6.46887
1.94e-07	6.60536
2.57e-07	6.74184
4.67e-07	6.70772
5.82e-07	6.77596
9.92e-07	7.0148
1.98e-06	6.98068
2.71e-06	7.18541
4.93e-06	7.08305
7.42e-06	7.15129
1.05e-05	7.28777
1.43e-05	7.28777
1.96e-05	7.35601
3.68e-05	7.4925
6.28e-05	8.99381
7.59e-05	15.0673
9.16e-05	15.1355
0.000138	19.9466
