Adsorption isotherm of Ethene on Carbon Black
DOI: 10.1021/la0486483
Adsorbate Ethene: InChIKey VGGSQFUCUMXWEO-UHFFFAOYSA-N
Temperature: 140 K
Tabular data in the source: 0
pressure (bar)	uptake (micromoles/m2)
1e-06	-0.0140664
2.11e-06	0.0200544
3.55e-06	0.0200544
5.22e-06	0.0541751
6.69e-06	0.0541751
9.82e-06	0.156537
1.85e-05	0.224779
3.03e-05	0.2589
5.12e-05	0.29302
7.11e-05	0.463624
0.000105	0.634228
0.000202	2.16966
0.000306	5.0358
0.000515	6.19591
0.000778	6.60536
0.00097	6.91244
0.00154775	7.15129
0.00240312	7.32189
0.00316373	7.52662
0.00405209	7.69722
0.00702303	7.8337
0.0106086	7.93606
0.0155901	8.20903
0.0194262	8.44788
0.0318675	8.68672
0.0522768	9.84683
0.0727137	12.8836
0.10114	15.8862
