Adsorption isotherm of Ethene on Carbon Black
DOI: 10.1021/la0486483
Adsorbate Ethene: InChIKey VGGSQFUCUMXWEO-UHFFFAOYSA-N
Temperature: 115 K
Tabular data in the source: 0
pressure (bar)	uptake (micromoles/m2)
1.6e-06	0.361262
3.01e-06	0.565986
3.96e-06	0.941314
4.68e-06	1.55549
5.08e-06	4.01218
5.83e-06	5.58173
6.69e-06	6.16179
8.56e-06	6.53711
1.01e-05	6.81008
2.06e-05	7.18541
2.95e-05	7.32189
5.26e-05	7.4925
7.11e-05	7.62898
0.000102	7.8337
0.000341	8.07255
0.000488	8.10667
0.00134893	8.51612
0.00215282	8.51612
0.00343578	8.99381
0.00416506	10.1539
0.00504914	14.7943
0.00702303	16.4321
0.0100409	17.2851
