Adsorption isotherm of Ethane on Carbon Black
DOI: 10.1021/la0486483
Adsorbate Ethane: InChIKey OTMSDBZUPAUEDD-UHFFFAOYSA-N
Temperature: 100 K
Tabular data in the source: 0
pressure (bar)	uptake (micromoles/m2)
2.14e-05	0.0200544
2.63e-05	0.0541751
4.63e-05	0.190658
5.68e-05	0.395382
5.77e-05	1.69197
5.96e-05	4.93344
6.05e-05	6.26415
6.86e-05	6.46887
8.69e-05	6.63948
0.000103	6.6736
0.000139	6.8442
0.000165	6.91244
0.000241	7.08305
0.000325	6.98068
0.000431	7.08305
0.000736	7.32189
0.00107309	7.21953
0.00228136	7.62898
0.00266953	7.76546
0.00307505	7.6631
0.00317323	9.26677
0.00327453	11.4164
0.00337907	13.3613
0.00348695	14.5214
0.00389238	15.1355
0.00455466	15.5109
0.00500497	15.7838
0.00549979	15.8521
0.00623648	20.0148
