Adsorption isotherm of Ethane on Carbon Black
DOI: 10.1021/la0486483
Adsorbate Ethane: InChIKey OTMSDBZUPAUEDD-UHFFFAOYSA-N
Temperature: 91 K
Tabular data in the source: 0
pressure (bar)	uptake (micromoles/m2)
9.97e-11	-0.0126597
1.93e-10	0.0180489
2.95e-10	0.0180489
4.95e-10	0.0180489
7.22e-10	0.0180489
9.14e-10	0.0180489
2.04e-09	0.0794663
4.23e-09	0.23301
4.54e-09	6.12907
4.87e-09	6.49758
6.02e-09	6.62041
8.18e-09	6.65112
1.06e-08	6.52829
2.05e-08	6.65112
3.79e-08	6.83537
5.65e-08	6.89679
7.33e-08	6.80466
9.72e-08	6.77395
1.97e-07	7.05033
4.09e-07	7.08104
6.26e-07	7.01962
7.56e-07	6.86608
1e-06	7.08104
1.94e-06	6.98891
4.43e-06	7.32671
5.74e-06	7.32671
7.98e-06	10.3055
1.01e-05	15.096
1.54e-05	17.8905
