Adsorption isotherm of Ethane on Carbon Black
DOI: 10.1021/la0486483
Adsorbate Ethane: InChIKey OTMSDBZUPAUEDD-UHFFFAOYSA-N
Temperature: 213 K
Tabular data in the source: 0
pressure (bar)	uptake (micromoles/m2)
0.00202897	-0.116429
0.00411492	0.0200544
0.00771485	0.156537
0.0119785	0.429503
0.0235419	0.941314
0.0307505	1.38488
0.0441375	2.03318
0.0558689	2.92032
0.0789408	3.84158
0.109802	4.79696
0.152727	5.20641
0.215798	5.82058
0.33506	6.23003
0.437657	6.57124
0.618393	7.0148
0.833534	7.42425
0.97536	7.73134
