Adsorption isotherm of Ethene on Carbon Black
DOI: 10.1021/la0486483
Adsorbate Ethene: InChIKey VGGSQFUCUMXWEO-UHFFFAOYSA-N
Temperature: 130 K
Tabular data in the source: 0
pressure (bar)	uptake (micromoles/m2)
9.56e-06	0.190658
2.06e-05	0.429503
3.89e-05	1.82845
6.2e-05	4.25103
8.39e-05	5.27465
9.37e-05	5.75234
0.000191	6.57124
0.000413	6.74184
0.000642	7.15129
0.000822	7.15129
0.00108256	7.15129
0.00209443	7.56074
0.00477895	8.00431
0.00702303	8.34551
0.0103209	8.92557
0.0147559	10.3928
0.0194262	12.9518
0.0301623	15.8521
0.0386317	18.2746
0.0419538	19.8783
