Adsorption isotherm of Ethene on Carbon Black
DOI: 10.1021/la0486483
Adsorbate Ethene: InChIKey VGGSQFUCUMXWEO-UHFFFAOYSA-N
Temperature: 193 K
Tabular data in the source: 0
pressure (bar)	uptake (micromoles/m2)
0.00157793	0.0856916
0.00282216	0.228999
0.00563436	0.515613
0.00917051	0.849996
0.0119785	1.35157
0.0166614	1.87703
0.0214238	2.5458
0.0271181	3.47729
0.0327453	4.14606
0.0434494	4.88648
0.065375	5.50748
0.103113	6.15236
0.173184	6.74947
0.356796	7.41824
0.599262	8.20643
0.833534	8.85131
0.97536	9.329
