Adsorption isotherm of Ethane on Carbon Black
DOI: 10.1021/la0486483
Adsorbate Ethane: InChIKey OTMSDBZUPAUEDD-UHFFFAOYSA-N
Temperature: 110 K
Tabular data in the source: 0
pressure (bar)	uptake (micromoles/m2)
2.96e-09	0.0882958
4.46e-09	0.0541751
1.76e-07	0.224779
2.91e-07	0.2589
5.82e-07	0.395382
6e-07	2.61323
6.19e-07	1.04368
6.6e-07	4.8652
6.81e-07	5.75234
9.92e-07	6.09354
2.18e-06	6.50299
3.08e-06	6.57124
4.93e-06	6.77596
7.9e-06	6.8442
9.84e-06	6.8442
1.39e-05	6.98068
1.84e-05	7.11717
3.92e-05	7.25365
6.28e-05	7.45837
9.46e-05	7.45837
0.000152	7.69722
0.000195	7.62898
0.000389	13.9413
0.000567	15.2379
0.000853	16.1933
0.000881	20.0489
