Adsorption isotherm of Ethane on Carbon Black
DOI: 10.1021/la0486483
Adsorbate Ethane: InChIKey OTMSDBZUPAUEDD-UHFFFAOYSA-N
Temperature: 120 K
Tabular data in the source: 0
pressure (bar)	uptake (micromoles/m2)
0.00023	-0.0481871
0.000261	0.0200544
0.00033	0.156537
0.000474	0.668348
0.000521	1.0778
0.000529	2.0673
0.000563	4.14866
0.000563	4.62635
0.000649	5.41113
0.000724	6.12767
0.000889	6.29827
0.00102368	6.43475
0.00144642	6.6736
0.00177422	6.87832
0.00228136	6.94656
0.00288773	7.08305
0.00421052	7.21953
0.00549979	7.21953
0.00741319	7.39013
0.00840617	7.62898
0.0124509	8.14079
0.0150346	8.24315
0.0155146	9.19853
0.0162634	10.3245
0.0170484	10.5975
0.0173184	12.3718
0.0181544	13.3613
0.019332	14.7602
0.0212433	14.8285
0.0219215	15.4767
0.0244703	15.6815
0.0268896	17.5922
