Adsorption isotherm of Ethene on Carbon Black
DOI: 10.1021/la0486483
Adsorbate Ethene: InChIKey VGGSQFUCUMXWEO-UHFFFAOYSA-N
Temperature: 110 K
Tabular data in the source: 0
pressure (bar)	uptake (micromoles/m2)
3.83e-07	0.224779
5.78e-07	0.2589
9.49e-07	0.429503
1.47e-06	0.770711
1.64e-06	1.11192
1.69e-06	3.56861
1.84e-06	5.61585
2.05e-06	6.12767
3.01e-06	6.81008
5.51e-06	7.08305
7.88e-06	7.39013
1.01e-05	7.39013
2.01e-05	7.52662
2.87e-05	7.69722
4.98e-05	7.79958
0.00011	7.93606
0.000245	8.10667
0.000822	8.41376
0.00120843	8.6526
0.00154775	8.89145
0.00182538	9.23265
0.00198235	11.6893
0.00260977	15.818
0.00307791	16.2956
0.00373123	16.5345
