Adsorption isotherm of Nitrogen on IRMOF-1
DOI: 10.1016/j.tca.2014.04.016
Adsorbate Nitrogen: InChIKey IJGRMHOSHXDMSA-UHFFFAOYSA-N
Temperature: 77 K
Tabular data in the source: 0
pressure (bar)	uptake (cm3(STP)/g)
0.00753116	183.973
0.0301247	191.205
0.0652701	196.137
0.0828428	197.616
0.102926	198.767
0.115478	199.589
0.153134	201.397
0.173217	201.89
0.487015	206
0.537223	206.493
0.58492	206.822
0.630107	206.986
0.675294	207.315
0.77571	207.644
0.798303	207.808
0.825917	208.137
0.851021	208.466
0.876125	208.466
0.898719	208.959
0.928843	209.452
0.951437	210.438
0.956458	210.932
0.963989	212.575
0.966499	213.233
