Adsorption isotherm of Nitrogen on IRMOF-1
DOI: 10.1016/j.tca.2014.04.016
Adsorbate Nitrogen: InChIKey IJGRMHOSHXDMSA-UHFFFAOYSA-N
Temperature: 77 K
Tabular data in the source: 0
pressure (bar)	uptake (cm3(STP)/g)
0.140582	200.575
0.19581	202.548
0.238487	203.534
0.293716	204.192
0.341413	204.849
0.3866	205.342
0.439317	205.836
0.487015	206.658
0.534713	206.822
0.58241	207.479
0.632618	207.479
0.665253	207.808
0.730523	208.137
0.77571	208.301
0.808344	208.301
0.835959	208.795
0.856042	208.959
0.876125	209.123
0.908761	210.274
0.946416	212.411
0.96901	214.219
