Adsorption isotherm of Carbon Dioxide on UiO-66/GO-5
DOI: 10.1016/j.jece.2016.01.017
Article source: Figure 4
Adsorbate Carbon Dioxide: InChIKey CURLTUGMZLYLDI-UHFFFAOYSA-N
Kind: experiment
Temperature: 273 K
Tabular data in the source: 0
pressure (bar)	uptake (mmol/g)
0.0037	0.00522
0.0301	0.25295
0.0617	0.40125
0.08703	0.5629
0.11538	0.71311
0.14673	0.87758
0.17227	1.06206
0.19904	1.17184
0.22855	1.32158
0.27356	1.50122
0.30265	1.60101
0.33221	1.70033
0.36316	1.79916
0.39202	1.90323
0.42321	1.99873
0.4521	2.07236
0.48168	2.15549
0.51217	2.24481
0.54199	2.3251
0.57017	2.40634
0.59951	2.49376
0.63002	2.57309
0.65914	2.65337
0.68918	2.73556
0.71758	2.82917
0.74763	2.90612
0.7772	2.99449
0.80657	3.0548
0.83686	3.11558
0.86925	3.17159
0.89559	3.24428
0.9224	3.30983
0.95641	3.3587
0.98439	3.42187
1.0149	3.49311
1.04451	3.54818
1.07364	3.61325
1.10486	3.67069
1.13352	3.74289
