Adsorption isotherm of Carbon Dioxide on UiO-66/GO-5
DOI: 10.1016/j.jece.2016.01.017
Article source: Figure  2
Adsorbate Carbon Dioxide: InChIKey CURLTUGMZLYLDI-UHFFFAOYSA-N
Kind: experiment
Temperature: 273 K
Tabular data in the source: 0
pressure (bar)	uptake (mmol/g)
0.10058	0.6889
0.20413	1.1827
0.30148	1.5682
0.40444	1.9237
0.50217	2.224
0.60149	2.5011
0.70276	2.7652
0.8038	2.9966
0.90349	3.2212
1.00088	3.4315
1.10167	3.6268
