Adsorption isotherm of Carbon Dioxide on UiO-66/GO-5
DOI: 10.1016/j.jece.2016.01.017
Article source: Figure  2
Adsorbate Carbon Dioxide: InChIKey CURLTUGMZLYLDI-UHFFFAOYSA-N
Kind: experiment
Temperature: 273 K
Tabular data in the source: 0
pressure (bar)	uptake (mmol/g)
0.10133	0.6098
0.20438	1.1384
0.30087	1.5478
0.40456	1.9421
0.50192	2.2595
0.60173	2.5434
0.70263	2.8041
0.80367	3.0273
0.903	3.2389
1.00039	3.409
1.10204	3.5845
