Adsorption isotherm of Carbon Dioxide on UiO-66/GO-5
DOI: 10.1016/j.jece.2016.01.017
Article source: Figure  3
Adsorbate Carbon Dioxide: InChIKey CURLTUGMZLYLDI-UHFFFAOYSA-N
Kind: experiment
Temperature: 273 K
Tabular data in the source: 0
pressure (bar)	uptake (mmol/g)
0.00207	0.011
0.02756	0.2554
0.05587	0.4021
0.08406	0.5643
0.11152	0.7104
0.1397	0.8797
0.16715	1.0627
0.19584	1.1718
0.22378	1.3192
0.27009	1.5033
0.29914	1.6001
0.32941	1.6983
0.35968	1.7964
0.38958	1.8972
0.41936	2.0012
0.4489	2.0734
0.47954	2.1502
0.50945	2.2406
0.53984	2.3168
0.57011	2.3994
0.60062	2.495
0.62956	2.5718
0.65947	2.6505
0.68877	2.7273
0.71879	2.821
0.74943	2.9042
0.77958	2.9959
0.80924	3.0533
0.83964	3.1159
0.87016	3.1733
0.89885	3.2423
0.92949	3.3017
0.95953	3.359
0.98993	3.4216
1.01862	3.4932
1.04914	3.5545
1.07941	3.6113
1.10714	3.668
1.13899	3.7435
