Adsorption isotherm of Carbon Dioxide on UiO-66/GO-5
DOI: 10.1016/j.jece.2016.01.017
Article source: Figure  3
Adsorbate Carbon Dioxide: InChIKey CURLTUGMZLYLDI-UHFFFAOYSA-N
Kind: experiment
Temperature: 273 K
Tabular data in the source: 0
pressure (bar)	uptake (mmol/g)
0.09827	0.671
0.20119	1.1783
0.30243	1.5826
0.39992	1.9198
0.50264	2.2381
0.60014	2.5079
0.70518	2.7803
0.80426	3.0249
0.90347	3.2488
1.00087	3.4526
1.09741	3.6467
1.12367	3.6938
