Adsorption isotherm of Carbon Dioxide on UiO-66/GO-5
DOI: 10.1016/j.jece.2016.01.017
Article source: Figure  2
Adsorbate Carbon Dioxide: InChIKey CURLTUGMZLYLDI-UHFFFAOYSA-N
Kind: experiment
Temperature: 273 K
Tabular data in the source: 0
pressure (bar)	uptake (mmol/g)
0.00183	0.013
0.02834	0.2587
0.05694	0.4026
0.08518	0.5643
0.11293	0.711
0.14116	0.8774
0.16769	1.0596
0.19715	1.1694
0.22478	1.3181
0.27007	1.5001
0.301	1.5996
0.33156	1.7004
0.36115	1.7958
0.39074	1.8987
0.42167	1.9989
0.45163	2.0799
0.48134	2.1569
0.5113	2.2468
0.54126	2.3278
0.57122	2.4034
0.60154	2.492
0.6315	2.5723
0.66134	2.6527
0.69129	2.7289
0.72149	2.8257
0.7506	2.9081
0.78019	2.996
0.81003	3.0476
0.84024	3.1116
0.87032	3.179
0.90077	3.245
0.93073	3.3048
0.96045	3.3647
0.9909	3.4225
1.02025	3.496
1.05046	3.5511
1.08055	3.6123
1.11027	3.6708
1.14084	3.7388
