Adsorption isotherm of Methane on activated {[Zn4(bpydb)3(datz)2(H2O)](DMF)4(EtOH)5(H2O)8}n
DOI: 10.1021/cg501758a
Article source: Figure 6a
Adsorbate Methane: InChIKey VNWKTOKETHGBQD-UHFFFAOYSA-N
Kind: experiment
Temperature: 273 K
Tabular data in the source: 0
pressure (bar)	uptake (cm3(STP)/g)
0	0
0.013011	0.288809
0.031231	0.577617
0.046847	0.866426
0.070275	1.15523
0.088485	1.73285
0.106714	1.73285
0.117122	2.02166
0.135341	2.31047
0.148362	2.31047
0.163978	2.59928
0.171781	2.88809
0.187415	2.59928
0.197813	3.1769
0.205626	3.1769
0.223855	3.1769
0.236857	3.75451
0.252482	3.75451
0.268107	3.75451
0.27591	4.04332
0.281118	4.04332
0.296725	4.62094
0.309745	4.62094
0.314954	4.62094
0.322757	4.90975
0.335768	5.19856
0.351393	5.19856
0.356602	5.19856
0.377426	5.48736
0.387833	5.77617
0.400854	5.77617
0.403458	5.77617
0.421678	6.06498
0.43468	6.6426
0.442502	6.35379
0.458117	6.6426
0.46592	6.93141
0.48414	7.22022
0.494557	7.22022
0.504964	7.50903
0.517985	7.50903
0.528401	7.50903
0.544008	8.08664
0.55182	8.08664
0.559633	8.08664
0.575258	8.08664
0.583061	8.37545
0.598676	8.66426
0.611707	8.37545
0.616905	8.66426
0.637729	8.95307
0.645542	8.95307
0.661167	8.95307
0.676792	8.95307
0.697625	8.95307
0.705428	9.24188
0.71844	9.53069
0.731461	9.53069
0.744472	9.81949
0.760106	9.53069
0.765296	10.1083
0.791328	10.3971
0.791338	10.1083
0.806963	10.1083
0.830381	10.6859
0.838203	10.3971
0.845997	10.9747
0.86683	10.9747
0.869434	10.9747
0.887664	10.9747
0.892872	10.9747
0.905883	11.2635
0.924113	11.2635
0.929321	11.2635
0.942332	11.5523
0.955353	11.5523
0.96577	11.5523
0.978791	11.5523
0.98398	12.13
1.00221	12.13
