Adsorption isotherm of Carbon Dioxide on activated {[Zn4(bpydb)3(datz)2(H2O)](DMF)4(EtOH)5(H2O)8}n
DOI: 10.1021/cg501758a
Article source: Figure 6a
Adsorbate Carbon Dioxide: InChIKey CURLTUGMZLYLDI-UHFFFAOYSA-N
Kind: experiment
Temperature: 298 K
Tabular data in the source: 0
pressure (bar)	uptake (cm3(STP)/g)
0	0
0.010491	1.45455
0.023603	3.2
0.049827	6.69091
0.049865	7.85455
0.076012	9.01818
0.076069	10.7636
0.099654	13.3818
0.102217	11.9273
0.123171	13.9636
0.123219	15.4182
0.149404	17.7455
0.151968	16.2909
0.172969	19.7818
0.178134	18.0364
0.199136	21.5273
0.20431	20.0727
0.222692	23.2727
0.230477	21.8182
0.248858	25.0182
0.254023	23.2727
0.275015	26.4727
0.28018	24.7273
0.298552	27.6364
0.306338	26.1818
0.324709	29.0909
0.327273	27.6364
0.348255	30.5455
0.356041	29.0909
0.374403	31.7091
0.382188	30.2545
0.39794	32.8727
0.405725	31.4182
0.424087	34.0364
0.431873	32.5818
0.447615	34.9091
0.455409	33.7455
0.473762	36.0727
0.478946	34.9091
0.497289	36.9455
0.507695	35.7818
0.523427	37.8182
0.531232	36.9455
0.549566	38.6909
0.557361	37.5273
0.573093	39.5636
0.580897	38.6909
0.599231	40.4364
0.607026	39.2727
0.625369	41.3091
0.633174	40.4364
0.648887	41.8909
0.656691	41.0182
0.672414	42.7636
0.68282	41.6
0.698543	43.3455
0.706347	42.4727
0.72206	43.9273
0.732476	43.0545
0.7508	44.5091
0.758614	43.9273
0.774327	45.3818
0.784742	44.5091
0.797845	45.9636
0.80827	45.3818
0.823973	46.5455
0.837009	45.9636
0.850102	47.1273
0.860527	46.5455
0.876231	47.7091
0.884054	47.4182
0.90235	48
0.910173	47.7091
0.925868	48.5818
0.933691	48.2909
0.949376	48.8727
0.95982	48.8727
0.975504	49.4545
0.985948	49.4545
0.993791	49.7455
1.00685	49.7455
