Adsorption isotherm of Carbon Dioxide on activated {[Zn4(bpydb)3(datz)2(H2O)](DMF)4(EtOH)5(H2O)8}n
DOI: 10.1021/cg501758a
Article source: Figure 6a
Adsorbate Carbon Dioxide: InChIKey CURLTUGMZLYLDI-UHFFFAOYSA-N
Kind: experiment
Temperature: 273 K
Tabular data in the source: 0
pressure (bar)	uptake (cm3(STP)/g)
0	0
0.002635	1.15371
0.005298	3.17384
0.005354	4.90665
0.010577	5.77006
0.010615	6.92528
0.021173	12.1177
0.023761	11.8274
0.02633	10.9595
0.047381	19.3228
0.052538	18.1646
0.070869	22.7749
0.078783	26.5249
0.097002	27.6696
0.1023	30.8434
0.123126	32.2755
0.128414	35.1605
0.149221	36.0149
0.151894	38.3238
0.175298	39.1767
0.175382	41.776
0.201384	42.6274
0.20145	44.649
0.22491	47.2347
0.227442	45.2116
0.250903	47.7973
0.250968	49.8189
0.27441	51.8271
0.276951	50.0927
0.300449	53.8337
0.303	52.3882
0.323891	55.8418
0.326441	54.3963
0.349921	57.5596
0.352471	56.1141
0.373344	58.9901
0.378501	57.8319
0.399374	60.7079
0.407128	59.5482
0.422797	62.1385
0.430551	60.9787
0.448817	63.5675
0.453974	62.4093
0.474838	64.9965
0.479985	63.5495
0.500849	66.1367
0.506006	64.9785
0.521656	66.9911
0.529419	66.1202
0.547667	68.1313
0.552824	66.9731
0.573668	68.9827
0.578835	68.1133
0.597082	70.1244
0.604846	69.2535
0.623074	70.687
0.630848	70.1049
0.646479	71.5399
0.654252	70.9578
0.675078	72.3898
0.680254	71.8092
0.698482	73.2428
0.703667	72.951
0.724484	74.0942
0.72966	73.5136
0.747869	74.3695
0.753064	74.3665
0.773871	75.2209
0.779056	74.9291
0.797275	76.0738
0.802451	75.4932
0.823267	76.6364
0.83105	76.3431
0.846662	77.2005
0.854445	76.9072
0.872655	77.7631
0.880437	77.4698
0.898638	78.0369
0.906439	78.3212
0.92463	78.5995
0.927227	78.598
0.948025	79.1636
0.955826	79.4479
0.97142	79.7277
0.976614	79.7247
0.989611	80.006
1.00261	80.2873
