Adsorption isotherm of Methane on activated {[Zn4(bpydb)3(datz)2(H2O)](DMF)4(EtOH)5(H2O)8}n
DOI: 10.1021/cg501758a
Article source: Figure 6a
Adsorbate Methane: InChIKey VNWKTOKETHGBQD-UHFFFAOYSA-N
Kind: experiment
Temperature: 298 K
Tabular data in the source: 0
pressure (bar)	uptake (cm3(STP)/g)
0	0
0.007752	0.002255
0.018116	0.867457
0.031036	0.863699
0.033591	0.009772
0.036194	0.571289
0.05167	0.30594
0.062024	0.272866
0.0775	0.604364
0.077528	0.268355
0.100755	0.611129
0.100774	0.029316
0.121446	0.03533
0.126576	1.20046
0.13695	0.03984
0.152453	0.04435
0.155	1.20873
0.175662	1.50565
0.178274	0.63368
0.198946	0.639693
0.204085	1.51392
0.219617	0.645707
0.227341	1.52068
0.248003	1.8176
0.263535	0.949392
0.273843	1.82512
0.302266	1.83339
0.302276	1.54248
0.315196	1.54624
0.322929	2.13031
0.333283	1.5515
0.348759	2.42873
0.361707	1.55977
0.377182	2.437
0.392705	1.8597
0.400438	2.44376
0.415951	2.15737
0.426259	3.03309
0.444374	2.16564
0.44693	3.03911
0.470186	3.04587
0.472798	2.1739
0.4986	3.34505
0.508955	2.76624
0.521856	3.35181
0.545102	3.64948
0.547714	2.77752
0.573525	3.65775
0.583889	2.78804
0.601939	3.95693
0.622611	3.96294
0.625223	3.09097
0.643301	3.38714
0.648441	4.26136
0.658805	3.39165
0.671706	3.97722
0.679477	3.39767
0.694952	4.2749
0.702732	3.40443
0.720783	4.57332
0.731137	3.99451
0.746622	4.58084
0.756986	3.71112
0.772462	4.58835
0.777648	4.00804
0.795717	4.59512
0.803478	4.30647
0.821557	4.60263
0.829309	4.60489
0.831893	4.60564
0.847387	4.90106
0.852574	4.32075
0.870633	5.19873
0.878404	4.61917
0.896482	4.91534
0.904234	4.9176
0.917144	5.21226
0.92749	4.92436
0.950726	5.51294
0.950736	5.22203
0.971417	4.93714
0.973982	5.5197
0.994644	5.81662
0.997247	5.23556
