Adsorption isotherm of Carbon Dioxide on activated {[Zn4(bpydb)3(datz)2(H2O)](DMF)4(EtOH)5(H2O)8}n
DOI: 10.1021/cg501758a
Article source: Figure 6a
Adsorbate Carbon Dioxide: InChIKey CURLTUGMZLYLDI-UHFFFAOYSA-N
Kind: experiment
Temperature: 283 K
Tabular data in the source: 0
pressure (bar)	uptake (cm3(STP)/g)
0	0
3.8e-05	0.57971
0.005289	1.44928
0.005364	2.6087
0.008056	4.05797
0.010634	3.76812
0.021231	6.95652
0.02652	8.4058
0.047525	11.8841
0.05287	14.2029
0.0738	16.5217
0.076529	18.5507
0.100019	20.2899
0.102748	22.3188
0.126238	24.058
0.126332	25.5072
0.149802	26.9565
0.149896	28.4058
0.175983	30.1449
0.176059	31.3043
0.202108	32.4638
0.202202	33.913
0.225729	36.2319
0.228251	35.0725
0.251854	38.5507
0.254376	37.3913
0.275343	40.2899
0.280463	39.1304
0.301468	42.6087
0.30399	41.4493
0.324958	44.3478
0.330077	43.1884
0.348447	46.087
0.356164	44.9275
0.374534	47.8261
0.379654	46.6667
0.400602	49.2754
0.408319	48.1159
0.424073	50.7246
0.43179	49.5652
0.450122	51.8841
0.455261	51.0145
0.473593	53.3333
0.481329	52.4638
0.499642	54.4928
0.507397	53.913
0.525692	55.6522
0.53083	54.7826
0.549144	56.8116
0.556879	55.942
0.572596	57.971
0.582929	57.1014
0.598645	59.1304
0.608997	58.5507
0.624675	60
0.63243	59.4203
0.648127	61.1594
0.65846	60.2899
0.674139	61.7391
0.68451	61.4493
0.700188	62.8986
0.707943	62.3188
0.721005	63.4783
0.733973	63.1884
0.749633	64.3478
0.757406	64.058
0.773066	65.2174
0.783437	64.9275
0.799097	66.087
0.80687	65.7971
0.825127	66.9565
0.8329	66.6667
0.848541	67.5362
0.856315	67.2464
0.87715	68.1159
0.884943	68.1159
0.903143	68.4058
0.908357	68.6957
0.923979	69.2754
0.934387	69.5652
0.947412	70.1449
0.957802	70.1449
0.976002	70.4348
0.978618	70.7246
0.991605	70.7246
1.00723	71.3043
