Adsorption isotherm of Carbon Dioxide on {[Zn4(bpydb)3(datz)2(H2O)](DMF)4(EtOH)5(H2O)8}n
DOI: 10.1021/cg501758a
Article source: Figure 5
Adsorbate Carbon Dioxide: InChIKey CURLTUGMZLYLDI-UHFFFAOYSA-N
Kind: experiment
Temperature: 77 K
Tabular data in the source: 0
pressure (bar)	uptake (cm3(STP)/g)
0	0
0.002384	26.1717
0.004768	24.689
0.007152	45.4286
0.009536	61.7237
0.011921	63.2041
0.026225	74.5551
0.030993	80.4787
0.050067	90.346
0.052451	86.3942
0.076292	92.3085
0.08106	100.207
0.102517	97.234
0.104901	106.616
0.126358	111.05
0.128743	101.666
0.150199	114.495
0.154967	105.11
0.176425	116.951
0.181193	108.554
0.20265	119.407
0.205034	111.505
0.228875	121.37
0.231259	114.455
0.252717	122.84
0.255101	117.407
0.276557	124.803
0.28371	120.849
0.305167	126.271
0.309935	122.812
0.329008	127.741
0.333777	124.282
0.352849	128.717
0.360002	125.75
0.379075	130.186
0.386227	126.725
0.402916	131.162
0.410068	128.195
0.429141	132.137
0.436293	129.17
0.455367	133.111
0.460135	130.146
0.481592	134.086
0.48636	131.121
0.507817	134.567
0.512585	132.096
0.531658	135.543
0.536427	133.072
0.555499	136.026
0.562652	133.553
0.579341	136.508
0.588877	134.528
0.605566	137.483
0.612718	135.01
0.631791	137.964
0.638943	135.985
0.655633	138.94
0.665169	136.466
0.684242	138.926
0.68901	136.948
0.708083	139.902
0.715235	137.923
0.734308	140.383
0.741461	138.404
0.758149	140.865
0.765302	138.886
0.784375	141.346
0.791527	139.367
0.8106	141.827
0.817753	140.342
0.834441	141.816
0.841593	140.824
0.860667	142.297
0.870203	141.304
0.884507	142.779
0.894044	142.28
0.913117	143.259
0.920269	142.761
0.936958	143.741
0.944111	143.244
0.963183	144.222
0.967952	143.726
0.989409	144.209
0.991793	144.208
1.0061	144.695
1.01325	145.185
