Adsorption isotherm of Methane on Zeolite 13X
DOI: 10.1007/s10934-011-9494-5
Article source: Figure 2
Adsorbate Methane: InChIKey VNWKTOKETHGBQD-UHFFFAOYSA-N
Kind: experiment
Temperature: 313 K
Tabular data in the source: 0
pressure (bar)	uptake (mmol/g)
0.023913	0.02081
0.087747	0.06658
0.23933	0.17267
0.463055	0.29119
0.718597	0.42218
1.03818	0.5781
1.41389	0.71521
1.84564	0.87102
2.43758	1.01416
3.07754	1.16975
3.88571	1.31892
4.84617	1.4721
