Adsorption isotherm of Methane on Alumina
DOI: 10.1007/s10934-011-9494-5
Article source: Figure 2
Adsorbate Methane: InChIKey VNWKTOKETHGBQD-UHFFFAOYSA-N
Kind: experiment
Temperature: 313 K
Tabular data in the source: 0
pressure (bar)	uptake (mmol/g)
0.063936	0.0291
0.231832	0.07893
0.447856	0.13079
0.727919	0.19092
1.0399	0.25935
1.40001	0.32356
1.84817	0.39393
2.4245	0.47042
3.07288	0.54684
3.87345	0.62102
4.83422	0.69503
