Adsorption isotherm of Nitrogen, Methane on Silicalite MFI
DOI: 10.1007/s10934-011-9494-5
Article source: Figure 10
Adsorbate Nitrogen: InChIKey IJGRMHOSHXDMSA-UHFFFAOYSA-N
Adsorbate Methane: InChIKey VNWKTOKETHGBQD-UHFFFAOYSA-N
Kind: experiment
Temperature: 373 K
Tabular data in the source: 0
pressure (bar)	Nitrogen fraction	Nitrogen uptake (mmol/g)	Methane fraction	Methane uptake (mmol/g)	total uptake (mmol/g)
1.01325	0.99671	0.128807	0.00329	0.000824	
1.01325	0.79912	0.0507	0.20088	0.033416	
1.01325	0.59934	0.015391	0.40066	0.05819	
1.01325	0.39956	0.006831	0.60044	0.094486	
1.01325	0.19759	0.006915	0.80241	0.165762	
1.01325	0.0011	0.000821	0.9989	0.287242	
