Adsorption isotherm of Methane on Alumina
DOI: 10.1007/s10934-011-9494-5
Article source: Figure 2
Adsorbate Methane: InChIKey VNWKTOKETHGBQD-UHFFFAOYSA-N
Kind: experiment
Temperature: 373 K
Tabular data in the source: 0
pressure (bar)	uptake (mmol/g)
0.12159	0.02356
0.291917	0.04946
0.502775	0.08242
0.794793	0.12478
1.12734	0.16474
1.49232	0.20941
1.96287	0.26582
2.51448	0.32691
3.17157	0.39501
3.97468	0.46536
4.96452	0.55213
