Adsorption isotherm of Nitrogen on Zeolite 13X
DOI: 10.1007/s10934-011-9494-5
Article source: Figure 2
Adsorbate Nitrogen: InChIKey IJGRMHOSHXDMSA-UHFFFAOYSA-N
Kind: experiment
Temperature: 373 K
Tabular data in the source: 0
pressure (bar)	uptake (mmol/g)
0.12159	0.0212
0.308231	0.04708
0.567724	0.08
0.835425	0.12001
1.15166	0.16472
1.53295	0.21411
2.0033	0.28235
2.56302	0.35526
3.23622	0.44701
4.05543	0.54811
4.98823	0.66568
