Adsorption isotherm of Methane on Zeolite 13X
DOI: 10.1007/s10934-011-9494-5
Article source: Figure 2
Adsorbate Methane: InChIKey VNWKTOKETHGBQD-UHFFFAOYSA-N
Kind: experiment
Temperature: 373 K
Tabular data in the source: 0
pressure (bar)	uptake (mmol/g)
0.113383	0.04723
0.307927	0.10386
0.526586	0.1794
0.793983	0.2691
1.12623	0.37057
1.51521	0.48857
1.96905	0.62071
2.52026	0.76223
3.18485	0.92733
3.97934	1.10652
4.96036	1.31396
