Adsorption isotherm of Nitrogen on Alumina
DOI: 10.1007/s10934-011-9494-5
Article source: Figure 2
Adsorbate Nitrogen: InChIKey IJGRMHOSHXDMSA-UHFFFAOYSA-N
Kind: experiment
Temperature: 313 K
Tabular data in the source: 0
pressure (bar)	uptake (mmol/g)
0.104061	0.01864
0.288168	0.04137
0.504193	0.0724
0.784357	0.10753
1.12856	0.14884
1.41683	0.17563
1.8811	0.22098
2.45754	0.27247
3.11412	0.32388
3.89878	0.37724
4.7796	0.42842
