Adsorption isotherm of Nitrogen, Methane on Zeolite 13X
DOI: 10.1007/s10934-011-9494-5
Article source: Figure 5
Adsorbate Nitrogen: InChIKey IJGRMHOSHXDMSA-UHFFFAOYSA-N
Adsorbate Methane: InChIKey VNWKTOKETHGBQD-UHFFFAOYSA-N
Kind: experiment
Temperature: 313 K
Tabular data in the source: 0
pressure (bar)	Nitrogen fraction	Nitrogen uptake (mmol/g)	Methane fraction	Methane uptake (mmol/g)	total uptake (mmol/g)
1.01325	0.00209	0.1213	0.0026	0.00237	0
1.01325	0.20087	0.10059	0.2011	0.04852	0
1.01325	0.39966	0.07811	0.39961	0.08876	0
1.01325	0.60107	0.05444	0.60075	0.12899	0
1.01325	0.79725	0.03018	0.79662	0.17574	0
1.01325	0.99607	0.00118	0.99764	0.24083	0
