Adsorption isotherm of Nitrogen, Methane on Alumina
DOI: 10.1007/s10934-011-9494-5
Article source: Figure 9
Adsorbate Nitrogen: InChIKey IJGRMHOSHXDMSA-UHFFFAOYSA-N
Adsorbate Methane: InChIKey VNWKTOKETHGBQD-UHFFFAOYSA-N
Kind: experiment
Temperature: 373 K
Tabular data in the source: 0
pressure (bar)	Nitrogen fraction	Nitrogen uptake (mmol/g)	Methane fraction	Methane uptake (mmol/g)	total uptake (mmol/g)
1.01325	0.9978	0.060301	0.0022	0.000273	
1.01325	0.79991	0.048622	0.20009	0.024066	
1.01325	0.60202	0.037489	0.39798	0.046766	
1.01325	0.39754	0.027177	0.60246	0.072197	
1.01325	0.19968	0.01468	0.80032	0.101719	
1.01325	0.00407	0.000272	0.99593	0.140244	
