Adsorption isotherm of Nitrogen, Methane on Silicalite MFI
DOI: 10.1007/s10934-011-9494-5
Article source: Figure 7
Adsorbate Nitrogen: InChIKey IJGRMHOSHXDMSA-UHFFFAOYSA-N
Adsorbate Methane: InChIKey VNWKTOKETHGBQD-UHFFFAOYSA-N
Kind: experiment
Temperature: 313 K
Tabular data in the source: 0
pressure (bar)	Nitrogen fraction	Nitrogen uptake (mmol/g)	Methane fraction	Methane uptake (mmol/g)	total uptake (mmol/g)
1.01325	1	0.20729	0	0	
1.01325	0.79934	0.11715	0.20066	0.11239	
1.01325	0.59986	0.06599	0.40014	0.19531	
1.01325	0.40262	0.0405	0.59738	0.27727	
1.01325	0.20086	0.02548	0.79914	0.37826	
1.01325	0.00239	0.00285	0.99761	0.51822	
