Adsorption isotherm of Nitrogen on Alumina
DOI: 10.1007/s10934-011-9494-5
Article source: Figure 2
Adsorbate Nitrogen: InChIKey IJGRMHOSHXDMSA-UHFFFAOYSA-N
Kind: experiment
Temperature: 373 K
Tabular data in the source: 0
pressure (bar)	uptake (mmol/g)
0.113585	0.01411
0.316438	0.02578
0.543609	0.03507
0.811411	0.05615
1.13595	0.07956
1.52545	0.10055
1.9879	0.12858
2.56403	0.16125
3.23754	0.19858
4.04084	0.24764
4.96584	0.29897
