Adsorption isotherm of Nitrogen on Zeolite 13X
DOI: 10.1007/s10934-011-9494-5
Article source: Figure 2
Adsorbate Nitrogen: InChIKey IJGRMHOSHXDMSA-UHFFFAOYSA-N
Kind: experiment
Temperature: 313 K
Tabular data in the source: 0
pressure (bar)	uptake (mmol/g)
0.303975	0.07677
0.511995	0.12447
0.783952	0.19086
1.14406	0.25924
1.43203	0.31936
1.88819	0.39806
2.46443	0.48705
3.1128	0.57597
3.90527	0.67099
4.77788	0.76175
