Adsorption isotherm of Nitrogen, Methane on Zeolite 13X
DOI: 10.1007/s10934-011-9494-5
Article source: Figure 8
Adsorbate Nitrogen: InChIKey IJGRMHOSHXDMSA-UHFFFAOYSA-N
Adsorbate Methane: InChIKey VNWKTOKETHGBQD-UHFFFAOYSA-N
Kind: experiment
Temperature: 373 K
Tabular data in the source: 0
pressure (bar)	Nitrogen fraction	Nitrogen uptake (mmol/g)	Methane fraction	Methane uptake (mmol/g)	total uptake (mmol/g)
1.01325	0.99671	0.14038	0.00329	0.00118	
1.01325	0.80022	0.06532	0.19978	0.04182	
1.01325	0.60044	0.03137	0.39956	0.07366	
1.01325	0.40066	0.01974	0.59934	0.12135	
1.01325	0.20088	0.01515	0.79912	0.20076	
1.01325	0.00439	0.00235	0.99561	0.33069	
