Adsorption isotherm of Nitrogen, Methane on Zeolite 13X
DOI: 10.1007/s10934-011-9494-5
Article source: Figure 5
Adsorbate Nitrogen: InChIKey IJGRMHOSHXDMSA-UHFFFAOYSA-N
Adsorbate Methane: InChIKey VNWKTOKETHGBQD-UHFFFAOYSA-N
Kind: experiment
Temperature: 313 K
Tabular data in the source: 0
pressure (bar)	Nitrogen fraction	Nitrogen uptake (mmol/g)	Methane fraction	Methane uptake (mmol/g)	total uptake (mmol/g)
1.01325	1	0.23442	0	0	
1.01325	0.80066	0.13023	0.19934	0.10233	
1.01325	0.60242	0.07163	0.39758	0.17302	
1.01325	0.40198	0.04465	0.59802	0.25209	
1.01325	0.20154	0.02791	0.79846	0.36558	
1.01325	0	0	1	0.55814	
