Adsorption isotherm of Nitrogen on COF-5
DOI: 10.1021/jacs.6b12885
Article source: Figure 2
Adsorbate Nitrogen: InChIKey IJGRMHOSHXDMSA-UHFFFAOYSA-N
Kind: experiment
Isotherm type: excess
Temperature: 77 K
Tabular data in the source: 0
pressure (bar)	uptake (cm3(STP)/g)
0	14.3072
0	30.8735
0	45.9337
0	60.241
0	76.0542
-0.001213	89.6084
0.002427	102.41
0.002427	115.964
0.002427	128.765
0.001213	143.825
0.001213	156.627
0.002427	166.416
0.004854	178.464
0.007281	189.006
0.008494	195.783
0.010921	202.56
0.013348	208.584
0.014562	213.102
0.016989	218.373
0.019416	222.139
0.023056	228.916
0.026696	233.434
0.030337	239.458
0.035191	245.482
0.041258	250.753
0.046112	257.53
0.052179	264.307
0.05582	266.566
0.071595	275.602
0.09101	289.157
0.11164	297.44
0.132269	307.982
0.151684	320.03
0.172313	327.56
0.190515	338.102
0.212358	348.645
0.23056	353.916
0.251189	359.94
0.271818	362.952
0.292447	366.717
0.313076	370.482
0.334919	374.247
0.354334	376.506
0.376177	378.012
0.395592	380.271
0.415008	381.777
0.435637	384.036
0.455052	385.542
0.474468	387.801
0.493884	389.307
0.514513	391.566
0.533928	392.319
0.554557	394.578
0.573973	395.331
0.594602	398.343
0.616444	400.602
0.63586	402.108
0.655275	402.861
0.675904	404.367
0.697747	407.38
0.718376	408.133
0.737792	409.639
0.758421	411.145
0.777836	412.651
0.797252	414.157
0.817881	417.169
0.837296	419.428
0.856712	421.687
0.877341	423.946
0.89797	426.958
0.914959	430.723
0.939228	438.253
0.049752	280.12
0.05946	288.404
0.071595	303.464
0.089797	315.512
0.100718	320.783
0.11164	335.09
0.131055	350.904
0.154111	365.211
0.172313	375.753
0.192942	381.024
0.213571	384.036
0.2342	387.048
0.256043	389.307
0.275458	391.566
0.294874	393.072
0.315503	395.331
0.336132	396.837
0.356761	398.343
0.378604	400.602
0.396806	401.355
0.415008	402.861
0.438064	404.367
0.456266	407.38
0.478108	409.639
0.495097	410.392
0.518153	411.145
0.536355	412.651
0.556984	412.651
0.5764	415.663
0.595815	417.169
0.616444	418.675
0.634646	420.181
0.656489	421.687
0.677118	423.946
0.696534	426.205
0.715949	428.464
0.739005	430.723
0.755994	432.982
0.776623	435.241
0.797252	439.759
0.819094	442.771
0.840937	446.536
0.861566	452.56
0.879768	454.066
0.899184	457.078
0.92224	457.831
0.942869	454.066
0.959857	442.771
