Adsorption isotherm of Nitrogen on COF-S-Ph-SH
DOI: 10.1021/jacs.6b12885
Article source: Figure S16
Adsorbate Nitrogen: InChIKey IJGRMHOSHXDMSA-UHFFFAOYSA-N
Kind: experiment
Temperature: 77 K
Tabular data in the source: 0
pressure (bar)	uptake (cm3(STP)/g)
0.00065	20.2817
0.00065	39.9006
0.00065	59.2543
0.004552	75.9569
0.014308	88.4176
0.027315	98.0945
0.041623	105.915
0.057881	113.206
0.068937	116.52
0.090399	123.944
0.11056	130.174
0.131371	133.09
0.153483	135.079
0.174295	136.537
0.193155	137.597
0.212665	138.393
0.232176	139.321
0.253638	140.116
0.274449	141.309
0.29396	141.972
0.31347	142.502
0.334281	143.032
0.355093	143.828
0.373303	144.756
0.394764	145.418
0.415576	146.081
0.435737	146.744
0.455897	147.539
0.476058	148.07
0.495569	148.335
0.517031	148.865
0.536541	149.395
0.557353	149.66
0.576863	150.191
0.597024	150.721
0.617835	151.118
0.637346	151.649
0.656857	152.179
0.679619	152.444
0.69978	153.239
0.71799	153.505
0.738151	153.902
0.759612	154.3
0.780424	155.228
0.800585	155.758
0.820095	156.156
0.840906	156.553
0.861718	157.481
0.882529	158.409
0.90204	159.602
0.922201	161.06
0.944313	162.519
0.050077	118.376
0.070888	127.125
0.09235	134.681
0.111861	139.586
0.131371	142.104
0.152183	143.695
0.172994	144.888
0.192504	145.816
0.213316	146.744
0.234127	147.672
0.254288	148.335
0.274449	148.998
0.29461	149.793
0.315421	150.191
0.336233	150.588
0.355093	151.118
0.375904	151.384
0.396715	151.914
0.416226	152.709
0.437037	152.974
0.457849	153.239
0.477359	154.167
0.49817	154.565
0.518982	154.963
0.539793	155.36
0.559304	155.891
0.577513	155.891
0.600276	156.288
0.619786	156.819
0.641248	156.951
0.662059	157.349
0.68157	157.481
0.701731	158.144
0.721892	158.277
0.742053	158.674
0.762214	158.94
0.781724	159.47
0.803186	159.735
0.822046	160.133
0.842858	160.795
0.863018	161.591
0.881228	162.254
0.90204	162.916
0.928704	164.905
0.945613	165.7
0.962522	164.905
