Adsorption isotherm of Nitrogen on COF-S-SH
DOI: 10.1021/jacs.6b12885
Article source: Figure 2
Adsorbate Nitrogen: InChIKey IJGRMHOSHXDMSA-UHFFFAOYSA-N
Kind: experiment
Isotherm type: excess
Temperature: 77 K
Tabular data in the source: 0
pressure (bar)	uptake (cm3(STP)/g)
0	20.2332
0	39.0947
0	57.9561
0.001213	76.1317
0.00364	89.8491
0.008494	99.1084
0.013348	104.938
0.019416	110.425
0.024269	113.855
0.030337	117.284
0.035191	120.713
0.041258	122.771
0.044899	124.829
0.053393	128.944
0.071595	132.716
0.093437	136.488
0.11164	139.918
0.131055	144.033
0.151684	147.119
0.169886	149.52
0.192942	151.92
0.211144	154.321
0.231773	156.379
0.251189	158.436
0.271818	159.808
0.291234	161.523
0.31429	163.237
0.332492	164.266
0.353121	165.638
0.37375	167.353
0.394379	168.724
0.411367	170.096
0.43321	171.468
0.452625	172.84
0.473254	173.868
0.49267	174.897
0.515726	175.926
0.535142	176.955
0.554557	178.326
0.573973	179.698
0.594602	181.07
0.616444	182.099
0.638287	183.813
0.656489	185.185
0.675904	186.557
0.696534	187.929
0.717163	188.615
0.737792	189.986
0.758421	191.701
0.776623	193.416
0.799679	195.13
0.820308	197.874
0.839723	199.588
0.860352	201.646
0.880981	205.075
0.89797	206.79
0.917386	209.877
0.940442	214.678
0.049752	149.52
0.070381	154.664
0.089797	159.122
0.109213	162.894
0.131055	165.295
0.149257	167.695
0.173527	170.439
0.190515	172.154
0.211144	173.868
0.231773	175.583
0.252402	176.955
0.270604	177.984
0.294874	179.012
0.313076	180.041
0.334919	181.07
0.353121	182.099
0.37375	182.785
0.393165	183.813
0.413794	185.185
0.435637	185.871
0.453839	186.9
0.474468	187.586
0.495097	188.615
0.515726	189.643
0.538782	190.672
0.559411	191.358
0.5764	192.387
0.597029	193.416
0.614017	194.444
0.634646	195.13
0.657702	196.502
0.677118	197.531
0.697747	198.903
0.718376	200.274
0.741432	202.332
0.760848	204.39
0.777836	206.104
0.796038	208.505
0.820308	211.248
0.84215	213.992
0.859139	217.078
0.878554	219.822
0.899184	222.565
0.92224	224.966
0.945296	226.337
0.962284	220.165
