Adsorption isotherm of N-propane on Fe2(dobdc)
DOI: 10.1126/science.1217544
Adsorbate N-propane: InChIKey ATUOYWHBWRKTHZ-UHFFFAOYSA-N
Temperature: 333 K
Tabular data in the source: 0
pressure (bar)	uptake (mmol/g)
0.00137743	0.0636364
0.00194124	0.0848485
0.00279911	0.169697
0.00394485	0.190909
0.00484652	0.254545
0.0068303	0.339394
0.00839151	0.424242
0.0103098	0.530303
0.01238	0.657576
0.0148659	0.784848
0.0170526	0.933333
0.019561	1.10303
0.0219311	1.29394
0.0245884	1.48485
0.0269439	1.67576
0.0302086	1.86667
0.0331032	2.05758
0.0362744	2.24848
0.0397503	2.43939
0.0435582	2.6303
0.047732	2.82121
0.0523046	3.03333
0.0573165	3.22424
0.0642614	3.39394
0.0704174	3.58485
0.0789496	3.77576
0.0905628	3.94545
0.101537	4.13636
0.119168	4.28485
0.136698	4.43333
0.156806	4.60303
0.184035	4.75152
0.211107	4.92121
0.247765	5.04848
0.297516	5.19697
0.357256	5.30303
0.428993	5.4303
0.515135	5.53636
0.647527	5.64242
0.795541	5.72727
0.977386	5.7697
