Adsorption isotherm of Acetylene on Fe2(dobdc)
DOI: 10.1126/science.1217544
Adsorbate Acetylene: InChIKey HSFWRNGVRCDJHI-UHFFFAOYSA-N
Temperature: 333 K
Tabular data in the source: 0
pressure (bar)	uptake (mmol/g)
0.000168399	0.0436137
0.000318412	0.0872274
0.000425305	0.130841
0.000656538	0.196262
0.000956445	0.261682
0.00127729	0.34891
0.00165707	0.436137
0.00214976	0.523364
0.00270888	0.654206
0.00341334	0.785047
0.0041783	0.915888
0.00511411	1.06854
0.00625907	1.24299
0.00744235	1.39564
0.00884749	1.5919
0.0102188	1.76636
0.0118016	1.96262
0.0136308	2.13707
0.0162047	2.33333
0.0181819	2.50779
0.0209981	2.70405
0.024251	2.90031
0.0280098	3.07477
0.0323482	3.27103
0.0373585	3.46729
0.0431489	3.64174
0.0498322	3.83801
0.0609719	4.07788
0.0724903	4.25234
0.0861866	4.42679
0.105482	4.60125
0.125423	4.75389
0.153515	4.90654
0.182536	5.05919
0.223422	5.21184
0.243637	5.27726
0.298208	5.42991
0.386735	5.60436
0.473358	5.75701
0.579383	5.90966
0.709091	6.08411
0.84314	6.23676
0.973909	6.38941
