Adsorption isotherm of Methane on Fe2(dobdc)
DOI: 10.1126/science.1217544
Adsorbate Methane: InChIKey VNWKTOKETHGBQD-UHFFFAOYSA-N
Temperature: 333 K
Tabular data in the source: 0
pressure (bar)	uptake (mmol/g)
0.0101988	0.00077821
0.0119404	0.00389105
0.0174333	0.00700389
0.0235229	0.0101167
0.0360073	0.0132296
0.0525654	0.0225681
0.069812	0.0287938
0.0956886	0.0350195
0.115605	0.044358
0.151087	0.0661479
0.188382	0.0754864
0.234838	0.0941634
0.288154	0.115953
0.342531	0.147082
0.413668	0.175097
0.499578	0.203113
0.584525	0.237354
0.705573	0.290272
0.838465	0.336965
0.99608	0.399222
1.11139	0.442802
1.18311	0.470817
1.23967	0.501946
1.31966	0.529961
1.40482	0.557977
1.49547	0.585992
1.56696	0.617121
1.66808	0.645136
1.77572	0.673152
1.86061	0.70428
1.98067	0.732296
