Adsorption isotherm of N-propane on Cr3(BTC)2
DOI: 10.1126/science.1217544
Adsorbate N-propane: InChIKey ATUOYWHBWRKTHZ-UHFFFAOYSA-N
Temperature: 308 K
Tabular data in the source: 0
pressure (bar)	uptake (mmol/g)
0.000115936	0.0652067
0.001	0.247312
0.00213934	0.422906
0.00457667	0.727533
0.00628304	0.858045
0.0084452	1.00996
0.0113514	1.2479
0.0146265	1.44264
0.0403181	2.58716
0.080958	4.56891
0.12094	5.81809
0.264252	7.37013
0.355189	7.75861
0.411793	7.88833
0.438735	8.03916
0.48761	8.12568
0.553502	8.2553
0.683694	8.44984
0.844511	8.60136
1	8.73118
