Adsorption isotherm of Ethene on Fe2(dobdc)
DOI: 10.1126/science.1217544
Adsorbate Ethene: InChIKey VGGSQFUCUMXWEO-UHFFFAOYSA-N
Temperature: 333 K
Tabular data in the source: 0
pressure (bar)	uptake (mmol/g)
0.00129414	0.089391
0.00270234	0.23733
0.00396342	0.342676
0.0071476	0.615656
0.00736563	0.761993
0.0101852	0.867206
0.0140932	1.11869
0.014103	1.28585
0.0189413	1.45369
0.0254513	1.726
0.0278272	1.95605
0.036312	2.27009
0.0517905	2.7306
0.0518179	2.85597
0.0676005	3.10732
0.102342	3.75602
0.137562	4.11192
0.174334	4.46768
0.208164	4.65614
0.248514	4.80281
0.324322	5.13774
0.423146	5.40999
0.55179	5.55686
0.639646	5.70346
0.859171	5.89219
1.05643	6.05983
