Adsorption isotherm of Ethene on Fe2(dobdc)
DOI: 10.1126/science.1217544
Adsorbate Ethene: InChIKey VGGSQFUCUMXWEO-UHFFFAOYSA-N
Temperature: 333 K
Tabular data in the source: 0
pressure (bar)	uptake (mmol/g)
0.000109855	0.0499963
0.000165078	0.0492039
0.000318713	0.0837661
0.000596362	0.118389
0.000841725	0.13564
0.0013895	0.206349
0.00229372	0.259137
0.00334049	0.312169
0.00456941	0.365323
0.00605773	0.436459
0.00803082	0.507595
0.0103183	0.578792
0.0132571	0.685831
0.017033	0.792871
0.0218847	0.89991
0.0272502	1.00701
0.0350122	1.11405
0.0435973	1.23907
0.0526126	1.38207
0.0634921	1.50716
0.0766214	1.65016
0.0924677	1.79316
0.108147	1.93623
0.126486	2.09721
0.152642	2.24022
0.178526	2.4012
0.202359	2.56225
0.236674	2.72323
0.276807	2.8663
0.304084	2.97364
0.344679	3.13469
0.403127	3.29567
0.471486	3.45666
0.53443	3.61771
0.625055	3.77869
0.665471	3.83233
0.778316	3.99332
0.910298	4.13638
0.969158	4.22587
