Adsorption isotherm of Methane on Fe2(dobdc)
DOI: 10.1126/science.1217544
Adsorbate Methane: InChIKey VNWKTOKETHGBQD-UHFFFAOYSA-N
Temperature: 318 K
Tabular data in the source: 0
pressure (bar)	uptake (mmol/g)
0.0196078	0.0107048
0.0392157	0.0160042
0.0745098	0.0158135
0.12549	0.0209433
0.152941	0.0262003
0.25098	0.0364812
0.356863	0.0521251
0.454902	0.0570005
0.54902	0.0673026
0.654902	0.0775411
0.701961	0.0880975
0.752941	0.0932273
0.796078	0.0983996
0.85098	0.0981028
0.901961	0.108638
0.952941	0.113768
1.00392	0.118898
