Adsorption isotherm of Methane on Fe2(dobdc)
DOI: 10.1126/science.1217544
Adsorbate Methane: InChIKey VNWKTOKETHGBQD-UHFFFAOYSA-N
Temperature: 333 K
Tabular data in the source: 0
pressure (bar)	uptake (mmol/g)
0.0103598	0.00702778
0.0755144	0.0457246
0.100273	0.0614804
0.158334	0.0898048
0.210155	0.12735
0.249843	0.15237
0.30647	0.189862
0.358691	0.208645
0.40665	0.242972
0.490831	0.29913
0.547819	0.32722
0.621065	0.361546
0.661223	0.383378
0.70389	0.411436
0.773321	0.439515
0.810342	0.467562
0.904037	0.517442
1.02441	0.57667
