Adsorption isotherm of Methane on Fe2(dobdc)
DOI: 10.1126/science.1217544
Adsorbate Methane: InChIKey VNWKTOKETHGBQD-UHFFFAOYSA-N
Temperature: 333 K
Tabular data in the source: 0
pressure (bar)	uptake (mmol/g)
0.0106925	0.00389105
0.0148905	0.00389105
0.022794	0.00700389
0.0258571	0.0101167
0.0360097	0.0101167
0.0534035	0.0194553
0.0665855	0.0287938
0.0791954	0.0319066
0.103515	0.0474708
0.129067	0.0568093
0.153508	0.0599222
0.203776	0.0910506
0.258082	0.106615
0.306823	0.131518
0.364858	0.143969
0.42027	0.171984
0.461838	0.187549
0.575449	0.231128
0.632212	0.259144
0.71679	0.290272
0.838516	0.333852
0.950458	0.377432
1.01179	0.405447
