Adsorption isotherm of Acetylene on Fe2(dobdc)
DOI: 10.1126/science.1217544
Adsorbate Acetylene: InChIKey HSFWRNGVRCDJHI-UHFFFAOYSA-N
Temperature: 353 K
Tabular data in the source: 0
pressure (bar)	uptake (mmol/g)
0.000218509	0.0872274
0.000552052	0.0872274
0.00124174	0.174455
0.00248725	0.283489
0.00527254	0.697819
0.00527776	0.457944
0.00995681	1.04673
0.00996575	0.82866
0.01493	1.13396
0.0205041	1.46106
0.0265577	1.94081
0.0375543	2.20249
0.0486362	2.70405
0.0630754	2.8785
0.0771685	3.14019
0.0943583	3.53271
0.125922	3.79439
0.199628	4.42679
0.298935	4.84112
0.410687	5.081
0.502539	5.29907
0.6151	5.45171
0.797556	5.66978
0.976285	5.80062
