Adsorption isotherm of Ethene on Fe2(dobdc)
DOI: 10.1126/science.1217544
Adsorbate Ethene: InChIKey VGGSQFUCUMXWEO-UHFFFAOYSA-N
Temperature: 353 K
Tabular data in the source: 0
pressure (bar)	uptake (mmol/g)
0.000191069	0.0223644
0.00036504	0.0238331
0.000677267	0.0461308
0.00145566	0.0687623
0.0028649	0.132985
0.00407925	0.196473
0.00634439	0.260162
0.00987007	0.386537
0.014477	0.51278
0.019442	0.659717
0.0253595	0.869275
0.0277121	0.973954
0.0361402	1.14172
0.0546651	1.58147
0.0633753	1.74897
0.104816	2.43966
0.136791	2.77459
0.178581	3.19311
0.213309	3.46515
0.254769	3.7163
0.278477	3.88367
0.363427	4.2186
0.434178	4.53244
0.534051	4.78365
0.637739	4.99301
0.832062	5.26525
1.0855	5.5166
