Adsorption isotherm of N-propane on Cr3(BTC)2
DOI: 10.1126/science.1217544
Adsorbate N-propane: InChIKey ATUOYWHBWRKTHZ-UHFFFAOYSA-N
Temperature: 308 K
Tabular data in the source: 0
pressure (bar)	uptake (mmol/g)
0.000108818	0.0649107
0.000166027	0.0668837
0.00025332	0.111867
0.000403181	0.157048
0.000628304	0.202131
0.00106542	0.312124
0.00173193	0.42192
0.0028154	0.553221
0.00386509	0.683733
0.00508651	0.771037
0.00713198	0.923153
0.0108818	1.18319
0.0143206	1.37802
0.0176893	1.57256
0.024284	1.91812
0.0287554	2.17698
0.0355189	2.50054
0.0438733	2.97465
0.0541926	3.53477
0.0683691	4.05199
0.0776086	4.43968
0.0938599	4.95669
0.115936	5.4308
0.137282	5.90471
0.166029	6.44323
0.20946	6.96044
0.269894	7.41324
0.340494	7.7369
0.448101	8.12528
0.628297	8.40643
0.938593	8.62336
