Adsorption isotherm of Ethene on Fe2(dobdc)
DOI: 10.1126/science.1217544
Adsorbate Ethene: InChIKey VGGSQFUCUMXWEO-UHFFFAOYSA-N
Temperature: 353 K
Tabular data in the source: 0
pressure (bar)	uptake (mmol/g)
0.000120679	0.0498135
0.000165078	0.0492039
0.000225808	0.0485943
0.000409487	0.0653573
0.000790606	0.0999195
0.00147935	0.116622
0.00294707	0.169044
0.00471487	0.221893
0.00731055	0.292724
0.0109855	0.381538
0.0165078	0.45243
0.0272502	0.594824
0.0449842	0.719296
0.0675974	0.915637
0.0896149	1.04054
0.134664	1.23688
0.178526	1.43346
0.2223	1.63017
0.304084	1.84461
0.390694	2.05918
0.486491	2.2738
0.625055	2.54213
0.803086	2.77462
0.969158	2.93554
