Adsorption isotherm of Propene on Fe2(dobdc)
DOI: 10.1126/science.1217544
Adsorbate Propene: InChIKey QQONPFPTGQHPMA-UHFFFAOYSA-N
Temperature: 318 K
Tabular data in the source: 0
pressure (bar)	uptake (mmol/g)
0.000159478	0.229131
0.000211018	0.331167
0.000270664	0.458433
0.000347168	0.611016
0.000369462	0.636504
0.000445297	0.763599
0.000536698	0.966644
0.00064686	1.16969
0.000755753	1.39796
0.000882978	1.62624
0.001	1.82911
0.00113253	2.0573
0.00128266	2.28549
0.00180618	2.94466
0.00204555	3.17285
0.0023899	3.40113
0.00270664	3.62932
0.00347168	3.98443
0.00405611	4.21271
0.00473893	4.41567
0.0058921	4.66943
0.00732588	4.82193
0.00910878	4.99974
0.0109784	5.12684
0.0140815	5.27942
0.0186325	5.40677
0.023899	5.53404
0.0306542	5.68662
0.0473893	5.86504
0.064686	5.99247
0.1	6.14557
0.159479	6.29875
0.22457	6.45159
0.336533	6.57928
0.473888	6.73212
0.667304	6.85965
0.910877	6.88582
