Adsorption isotherm of Methane on Fe2(dobdc)
DOI: 10.1126/science.1217544
Adsorbate Methane: InChIKey VNWKTOKETHGBQD-UHFFFAOYSA-N
Temperature: 333 K
Tabular data in the source: 0
pressure (bar)	uptake (mmol/g)
0.011753	0.00700389
0.0139794	0.00700389
0.021064	0.0101167
0.0338018	0.0194553
0.0448952	0.0225681
0.0577684	0.0350195
0.0779328	0.0474708
0.0987007	0.063035
0.12305	0.0785992
0.141781	0.0910506
0.163363	0.103502
0.188231	0.115953
0.216872	0.131518
0.242096	0.150195
0.274567	0.165759
0.306503	0.184436
0.381878	0.231128
0.426269	0.252918
0.468346	0.277821
0.498628	0.299611
0.547848	0.324514
0.592471	0.352529
0.640767	0.377432
0.726265	0.424125
0.773129	0.45214
0.862629	0.49572
0.918294	0.523735
0.97755	0.551751
1.02428	0.582879
1.07325	0.614008
1.12463	0.642023
1.1784	0.673152
1.23481	0.701167
1.2736	0.732296
1.33457	0.760311
1.39837	0.79144
1.46522	0.822568
1.53536	0.850584
1.60876	0.881712
1.68578	0.909728
1.76637	0.940856
1.85093	0.968872
