Adsorption isotherm of Acetylene on Fe2(dobdc)
DOI: 10.1126/science.1217544
Adsorbate Acetylene: InChIKey HSFWRNGVRCDJHI-UHFFFAOYSA-N
Temperature: 333 K
Tabular data in the source: 0
pressure (bar)	uptake (mmol/g)
0.000551899	0.152648
0.00078107	0.218069
0.00131495	0.327103
0.00248388	0.610592
0.00496947	1.00312
0.0052592	1.30841
0.00743961	1.48287
0.0102197	1.74455
0.0105078	2.02804
0.0148669	2.15888
0.0187129	2.5514
0.023563	2.8567
0.0272026	3.14019
0.037362	3.44548
0.0484217	3.77259
0.0498184	3.90343
0.064619	4.03427
0.0704336	4.20872
0.0995635	4.55763
0.125445	4.71028
0.144862	4.92835
0.204847	5.19003
0.26573	5.29907
0.298181	5.45171
0.38663	5.66978
0.579383	5.90966
0.688973	6.0405
0.867761	6.28037
1.00253	6.38941
