Adsorption isotherm of Ethene on Fe2(dobdc)
DOI: 10.1126/science.1217544
Adsorbate Ethene: InChIKey VGGSQFUCUMXWEO-UHFFFAOYSA-N
Temperature: 353 K
Tabular data in the source: 0
pressure (bar)	uptake (mmol/g)
0.000185528	0.0222977
0.000504568	0.0245675
0.00105305	0.0471322
0.00201206	0.0694966
0.00322277	0.133252
0.00531618	0.197074
0.00779704	0.302421
0.0107818	0.407633
0.0172818	0.638555
0.0285371	0.953125
0.0383451	1.22544
0.0500196	1.45589
0.0615319	1.728
0.0756781	1.95832
0.0877445	2.14672
0.107946	2.43973
0.132812	2.75363
0.154039	3.02561
0.2011	3.44412
0.262492	3.82085
0.332603	4.13482
0.4745	4.65801
0.619192	4.97205
0.832281	5.32794
1.02328	5.47468
