Adsorption isotherm of N-propane on Fe2(dobdc)
DOI: 10.1126/science.1217544
Adsorbate N-propane: InChIKey ATUOYWHBWRKTHZ-UHFFFAOYSA-N
Temperature: 333 K
Tabular data in the source: 0
pressure (bar)	uptake (mmol/g)
0.00313827	0.190909
0.00667575	0.339394
0.0100765	0.509091
0.0126663	0.678788
0.0148659	0.806061
0.0219311	1.25152
0.0275677	1.61212
0.0354544	2.16364
0.0416112	2.58788
0.0573165	3.20303
0.0688256	3.56364
0.101537	4.13636
0.133607	4.49697
0.211107	4.92121
0.277785	5.13333
0.40981	5.40909
0.539247	5.53636
0.647527	5.64242
0.832779	5.72727
1.07103	5.81212
