Adsorption isotherm of Propene on Fe2(dobdc)
DOI: 10.1126/science.1217544
Adsorbate Propene: InChIKey QQONPFPTGQHPMA-UHFFFAOYSA-N
Temperature: 333 K
Tabular data in the source: 0
pressure (bar)	uptake (mmol/g)
0.000186325	0.0523435
0.000369462	0.256757
0.000553656	0.384451
0.00106422	0.765994
0.00159478	1.19749
0.00306542	2.16131
0.00627047	3.50505
0.00969371	4.26574
0.0116834	4.59536
0.0145265	4.92508
0.0204555	5.25513
0.0270664	5.48375
0.0358138	5.71237
0.0520259	5.86529
0.064686	5.96716
0.0969371	6.06953
0.136501	6.24769
0.204555	6.42602
0.262373	6.52797
0.418429	6.68115
0.520255	6.78301
0.779636	6.91071
1	6.96203
