Adsorption isotherm of Propene on Fe2(dobdc)
DOI: 10.1126/science.1217544
Adsorbate Propene: InChIKey QQONPFPTGQHPMA-UHFFFAOYSA-N
Temperature: 318 K
Tabular data in the source: 0
pressure (bar)	uptake (mmol/g)
0.00181873	0.461957
0.00494266	0.255435
0.00639764	0.625
0.0107198	0.722826
0.0189148	0.804348
0.0269172	0.836957
0.050689	0.875
0.0743966	0.896739
0.125663	0.918478
0.153265	0.929348
0.255734	0.956522
0.310874	0.961957
0.362098	0.972826
0.456629	0.983696
0.503894	0.98913
0.559055	1
0.704746	1.00543
0.755948	1.01087
0.807129	1.01087
0.858332	1.0163
0.905576	1.0163
0.956757	1.0163
1.00794	1.0163
