Adsorption isotherm of Ethane on Fe2(dobdc)
DOI: 10.1126/science.1217544
Adsorbate Ethane: InChIKey OTMSDBZUPAUEDD-UHFFFAOYSA-N
Temperature: 318 K
Tabular data in the source: 0
pressure (bar)	uptake (mmol/g)
0.0156863	0.0269422
0.0352941	0.0538633
0.0588235	0.0861685
0.0745098	0.107705
0.0784314	0.118495
0.109804	0.156163
0.12549	0.188511
0.152941	0.231606
0.203922	0.3016
0.254902	0.377001
0.309804	0.430758
0.360784	0.484536
0.419608	0.527462
0.47451	0.565003
0.498039	0.586497
0.552941	0.618633
0.65098	0.661346
0.701961	0.677287
0.752941	0.698633
0.807843	0.714552
0.85098	0.730535
0.898039	0.735686
0.952941	0.751606
1.00392	0.762141
