Adsorption isotherm of Ethene on Fe2(dobdc)
DOI: 10.1126/science.1217544
Adsorbate Ethene: InChIKey VGGSQFUCUMXWEO-UHFFFAOYSA-N
Temperature: 318 K
Tabular data in the source: 0
pressure (bar)	uptake (mmol/g)
0.000116958	0.0677956
0.00017033	0.102906
0.000240409	0.120157
0.000449842	0.190622
0.000675974	0.225672
0.00101578	0.278643
0.00130512	0.331919
0.00173022	0.349292
0.00259998	0.456026
0.00442853	0.598359
0.00568984	0.687477
0.0075431	0.776534
0.01	0.883513
0.0120679	1.02652
0.0145636	1.16952
0.0175752	1.31252
0.0212095	1.43761
0.0255953	1.58061
0.0308887	1.70569
0.0422523	1.93806
0.0526126	2.20645
0.0675974	2.45686
0.0896149	2.76097
0.111588	2.97559
0.126486	3.11872
0.143372	3.27976
0.184207	3.56602
0.215443	3.74492
0.268269	4.03123
0.366966	4.31736
0.486491	4.54979
0.605777	4.7465
0.754312	4.96112
0.939267	5.08614
