Adsorption isotherm of Ethene on Fe2(dobdc)
DOI: 10.1126/science.1217544
Adsorbate Ethene: InChIKey VGGSQFUCUMXWEO-UHFFFAOYSA-N
Temperature: 333 K
Tabular data in the source: 0
pressure (bar)	uptake (mmol/g)
0.000234752	0.00193603
0.000387142	0.00307094
0.000619983	0.0250348
0.0010227	0.0888569
0.00173752	0.173641
0.00233244	0.2161
0.00295257	0.300217
0.00384884	0.363505
0.00501811	0.468585
0.00635331	0.594493
0.00804396	0.720402
0.00988917	0.846243
0.011807	1.01381
0.0145178	1.18144
0.0168306	1.34894
0.0200951	1.51651
0.0232965	1.68401
0.0262229	1.83055
0.0304032	2.01894
0.0352501	2.20734
0.0396808	2.37477
0.0446735	2.5631
0.0517953	2.75149
0.0600524	2.93989
0.0676067	3.12822
0.0761115	3.31654
0.088247	3.50494
0.0993482	3.69327
0.115176	3.86077
0.133537	4.04916
0.150337	4.23749
0.174289	4.40499
0.190525	4.59325
0.248535	4.82371
0.288132	4.99121
0.344043	5.17967
0.520253	5.55673
0.639646	5.70346
0.763634	5.85013
0.966832	5.97604
1.08779	6.0181
