Adsorption isotherm of N-propane on Fe2(dobdc)
DOI: 10.1126/science.1217544
Adsorbate N-propane: InChIKey ATUOYWHBWRKTHZ-UHFFFAOYSA-N
Temperature: 318 K
Tabular data in the source: 0
pressure (bar)	uptake (mmol/g)
0.0012008	0.127273
0.00207912	0.190909
0.00273584	0.233333
0.0034389	0.29697
0.00422503	0.339394
0.00519075	0.445455
0.00637735	0.509091
0.00748462	0.636364
0.00898752	0.784848
0.0110421	1.08182
0.0132593	1.4
0.0152097	1.61212
0.0166667	1.80303
0.0182638	2.01515
0.0219311	2.48182
0.024032	2.67273
0.0257395	2.88485
0.0282053	3.07576
0.0302086	3.26667
0.0323541	3.41515
0.0388508	3.75455
0.0445666	3.92424
0.048836	4.11515
0.0704174	4.56061
0.0807756	4.70909
0.0948025	4.87879
0.106289	4.98485
0.124746	5.11212
0.146407	5.23939
0.175806	5.38788
0.215992	5.53636
0.259362	5.64242
0.284212	5.68485
0.349177	5.79091
0.438919	5.89697
0.577549	6.02424
0.813947	6.08788
1	6.15152
