Adsorption isotherm of Propene on Cr3(BTC)2
DOI: 10.1126/science.1217544
Adsorbate Propene: InChIKey QQONPFPTGQHPMA-UHFFFAOYSA-N
Temperature: 308 K
Tabular data in the source: 0
pressure (bar)	uptake (mmol/g)
0.000826856	0.289435
0.00155833	0.421426
0.00487607	1.15794
0.00553503	1.48111
0.00669407	1.63253
0.00743978	1.89109
0.0084452	2.06373
0.01	2.23656
0.011114	2.45211
0.0123521	2.66765
0.0134413	2.90461
0.0146265	3.09855
0.0403181	5.68393
0.0759854	7.17076
0.128852	8.01194
0.237764	8.87501
0.362771	9.26408
1	9.76344
