Adsorption isotherm of Propene on Fe2(dobdc)
DOI: 10.1126/science.1217544
Adsorbate Propene: InChIKey QQONPFPTGQHPMA-UHFFFAOYSA-N
Temperature: 353 K
Tabular data in the source: 0
pressure (bar)	uptake (mmol/g)
0.000140815	0.0515737
0.000306542	0.0537119
0.000369462	0.104858
0.000553656	0.156603
0.00106422	0.310298
0.00159478	0.437992
0.00316228	0.844937
0.00607827	1.47964
0.0109784	2.44329
0.0116834	2.57005
0.0154593	3.10246
0.0297146	4.2435
0.0393179	4.72528
0.071015	5.30919
0.132319	5.76659
0.27922	6.17371
0.418429	6.32672
0.55366	6.42875
0.779636	6.55628
0.969363	6.60751
