Adsorption isotherm of Acetylene on Fe2(dobdc)
DOI: 10.1126/science.1217544
Adsorbate Acetylene: InChIKey HSFWRNGVRCDJHI-UHFFFAOYSA-N
Temperature: 318 K
Tabular data in the source: 0
pressure (bar)	uptake (mmol/g)
0.000122431	0.0872274
0.000231457	0.174455
0.000367765	0.261682
0.000655994	0.392523
0.00101221	0.566978
0.00151684	0.806854
0.00202456	1.02492
0.00278119	1.2866
0.00360521	1.57009
0.00481061	1.85358
0.00605731	2.15888
0.00785127	2.46417
0.0101747	2.81308
0.0135719	3.1838
0.018632	3.59813
0.023465	3.85981
0.0322166	4.25234
0.0429932	4.51402
0.062559	4.86293
0.0910794	5.081
0.132555	5.38629
0.176958	5.56075
0.265131	5.84424
0.385898	6.12773
0.545739	6.3676
0.728088	6.6947
0.94406	6.91277
