Adsorption isotherm of Methane on Fe2(dobdc)
DOI: 10.1126/science.1217544
Adsorbate Methane: InChIKey VNWKTOKETHGBQD-UHFFFAOYSA-N
Temperature: 318 K
Tabular data in the source: 0
pressure (bar)	uptake (mmol/g)
0.0117536	0.00400027
0.0156081	0.0166433
0.0224316	0.0200013
0.0327461	0.0295956
0.0395631	0.0359491
0.0542188	0.0517263
0.0743019	0.0675035
0.0941087	0.0801146
0.12297	0.111424
0.14168	0.127084
0.160693	0.13962
0.179383	0.158372
0.213247	0.186504
0.265705	0.230233
0.320826	0.267714
0.387241	0.323872
0.460062	0.383133
0.546442	0.454844
0.639043	0.514094
0.747152	0.585795
0.833337	0.648126
0.929178	0.72602
1.02027	0.782115
1.06904	0.813275
1.10269	0.841311
1.13733	0.872461
1.19178	0.900508
1.22921	0.931657
1.28797	0.962817
1.32851	0.990853
