Adsorption isotherm of Ethene on Fe2(dobdc)
DOI: 10.1126/science.1217544
Adsorbate Ethene: InChIKey VGGSQFUCUMXWEO-UHFFFAOYSA-N
Temperature: 333 K
Tabular data in the source: 0
pressure (bar)	uptake (mmol/g)
0.000103183	0.0501183
0.00122586	0.188672
0.00236674	0.276998
0.0042919	0.383366
0.01	0.560932
0.0175752	0.756967
0.0281177	0.953186
0.0396862	1.16757
0.0560144	1.36403
0.0742592	1.57854
0.086852	1.77536
0.104811	1.88253
0.157499	2.34768
0.236674	2.68739
0.259996	2.83058
0.285616	2.88416
0.366966	3.20625
0.429193	3.36724
0.501973	3.58199
0.625055	3.77869
0.778316	4.02916
1	4.20789
