Adsorption isotherm of Ethene on Fe2(dobdc)
DOI: 10.1126/science.1217544
Adsorbate Ethene: InChIKey VGGSQFUCUMXWEO-UHFFFAOYSA-N
Temperature: 318 K
Tabular data in the source: 0
pressure (bar)	uptake (mmol/g)
0.000221396	0.0644897
0.000504836	0.149942
0.00085763	0.213831
0.00150086	0.340473
0.00190007	0.445486
0.00240564	0.571395
0.00304551	0.676407
0.00460373	0.969882
0.00566083	1.13752
0.00656206	1.28412
0.00783466	1.45169
0.00882044	1.64001
0.0141563	2.18437
0.0179345	2.45655
0.0207936	2.64494
0.0234115	2.85417
0.0296565	3.10545
0.0343843	3.29385
0.0448818	3.67057
0.0520415	3.87986
0.0621341	4.04743
0.0720344	4.21493
0.0860122	4.40339
0.0997241	4.59178
0.119064	4.75935
0.138034	4.92685
0.164804	5.09442
0.215021	5.36666
0.280466	5.57622
0.423964	5.8697
0.721001	6.18433
1.02679	6.28961
