Adsorption isotherm of N-propane on Fe2(dobdc)
DOI: 10.1126/science.1217544
Adsorbate N-propane: InChIKey ATUOYWHBWRKTHZ-UHFFFAOYSA-N
Temperature: 318 K
Tabular data in the source: 0
pressure (bar)	uptake (mmol/g)
8.56e-05	0.0217391
0.00421517	0.0706522
0.00845173	0.146739
0.0127739	0.244565
0.021033	0.342391
0.0252268	0.407609
0.033486	0.505435
0.0495763	0.592391
0.0654742	0.630435
0.0774136	0.663043
0.0932686	0.690217
0.13281	0.733696
0.152538	0.744565
0.203826	0.771739
0.262966	0.793478
0.310232	0.798913
0.353582	0.809783
0.408721	0.815217
0.456008	0.826087
0.554476	0.836957
0.652923	0.842391
0.700188	0.847826
0.798656	0.858696
0.853774	0.858696
0.904977	0.86413
0.952221	0.86413
1.00342	0.869565
