Adsorption isotherm of Propene on Fe2(dobdc)
DOI: 10.1126/science.1217544
Adsorbate Propene: InChIKey QQONPFPTGQHPMA-UHFFFAOYSA-N
Temperature: 353 K
Tabular data in the source: 0
pressure (bar)	uptake (mmol/g)
0.000149858	0.0517448
0.000297146	0.0789429
0.000369462	0.104858
0.000571163	0.131372
0.00109784	0.285067
0.00154593	0.41259
0.0023899	0.641635
0.0032622	0.845022
0.00445297	1.14967
0.0052026	1.4539
0.00667298	1.7837
0.00855914	2.01223
0.010316	2.36717
0.0128266	2.7222
0.016452	3.22922
0.019829	3.63479
0.0246541	3.96451
0.032622	4.37034
0.0459367	4.82698
0.0667298	5.2837
0.106421	5.58878
0.149857	5.84288
0.231667	6.09725
0.347169	6.25026
0.405609	6.30132
0.667304	6.53053
1	6.63291
