Adsorption isotherm of N-propane on Fe2(dobdc)
DOI: 10.1126/science.1217544
Adsorbate N-propane: InChIKey ATUOYWHBWRKTHZ-UHFFFAOYSA-N
Temperature: 353 K
Tabular data in the source: 0
pressure (bar)	uptake (mmol/g)
0.00117365	0.0636364
0.00173145	0.0848485
0.00336117	0.106061
0.00609214	0.148485
0.0100765	0.254545
0.0129593	0.275758
0.014201	0.381818
0.0214353	0.530303
0.0288576	0.742424
0.0354544	0.933333
0.0435582	1.16667
0.0560196	1.5697
0.0704174	1.97273
0.111265	2.84242
0.143096	3.37273
0.215992	3.98788
0.284212	4.30606
0.419292	4.68788
0.56449	4.92121
0.662509	5.00606
0.832779	5.15455
1.02314	5.23939
