Adsorption isotherm of Acetylene on Fe2(dobdc)
DOI: 10.1126/science.1217544
Adsorbate Acetylene: InChIKey HSFWRNGVRCDJHI-UHFFFAOYSA-N
Temperature: 353 K
Tabular data in the source: 0
pressure (bar)	uptake (mmol/g)
0.000183667	0.0654206
0.000291911	0.0872274
0.000737446	0.109034
0.00135457	0.152648
0.00215229	0.239875
0.00351965	0.370717
0.00592393	0.545171
0.00913798	0.785047
0.0125542	1.02492
0.0177476	1.35202
0.0236777	1.67913
0.0315864	2.02804
0.0421289	2.42056
0.0578416	2.81308
0.0648933	3.00935
0.0793926	3.27103
0.0971136	3.57632
0.133347	3.94704
0.172839	4.25234
0.224027	4.55763
0.290454	4.79751
0.422718	5.1028
0.548009	5.36449
0.73138	5.60436
0.948414	5.80062
