Adsorption isotherm of Propene on Fe2(dobdc)
DOI: 10.1126/science.1217544
Adsorbate Propene: InChIKey QQONPFPTGQHPMA-UHFFFAOYSA-N
Temperature: 333 K
Tabular data in the source: 0
pressure (bar)	uptake (mmol/g)
0.000132318	0.0767191
0.000246541	0.154379
0.00032622	0.231098
0.000418427	0.282415
0.000553656	0.384451
0.00071015	0.511717
0.000910878	0.6643
0.00113253	0.842114
0.00132318	1.04507
0.00159478	1.27343
0.0019829	1.45125
0.00224569	1.67944
0.00254337	1.90763
0.00297146	2.1359
0.00336535	2.3641
0.00381136	2.59229
0.00445297	2.82056
0.00488866	3.07398
0.00553656	3.30217
0.00627047	3.53036
0.00732588	3.75864
0.00829698	3.98683
0.00939658	4.21502
0.0109784	4.44329
0.0128266	4.64625
0.0149858	4.87453
0.0180618	5.07757
0.0217691	5.28062
0.0262374	5.48366
0.0316228	5.63608
0.0459367	5.83963
0.0607827	5.94167
0.0804285	6.06902
0.103161	6.17097
0.136501	6.27301
0.22457	6.42627
0.347169	6.63
0.459369	6.70672
0.607833	6.78344
0.804277	6.88548
1	6.96203
