Adsorption isotherm of N-propane on Fe2(dobdc)
DOI: 10.1126/science.1217544
Adsorbate N-propane: InChIKey ATUOYWHBWRKTHZ-UHFFFAOYSA-N
Temperature: 353 K
Tabular data in the source: 0
pressure (bar)	uptake (mmol/g)
0.00144192	0.0848485
0.00267393	0.0848485
0.00432275	0.127273
0.00731543	0.190909
0.0107922	0.275758
0.01629	0.424242
0.0234888	0.615152
0.0323541	0.869697
0.0416112	1.16667
0.0535155	1.50606
0.0628073	1.78182
0.0771649	2.20606
0.0948025	2.58788
0.116473	2.9697
0.149795	3.37273
0.167945	3.54242
0.188293	3.73333
0.259362	4.2
0.341282	4.47576
0.459465	4.77273
0.604585	4.98485
0.777549	5.13333
0.977386	5.26061
