Adsorption isotherm of Propene on Cr3(BTC)2
DOI: 10.1126/science.1217544
Adsorbate Propene: InChIKey QQONPFPTGQHPMA-UHFFFAOYSA-N
Temperature: 308 K
Tabular data in the source: 0
pressure (bar)	uptake (mmol/g)
0.000113514	0.065108
0.000159159	0.0666864
0.000223162	0.111276
0.000420581	0.157246
0.000641712	0.180724
0.00128852	0.420539
0.00205083	0.616257
0.00312903	0.940811
0.00411794	1.11414
0.00541926	1.438
0.00759854	1.9342
0.0104316	2.47332
0.0137281	3.01223
0.0173193	3.48644
0.0188465	3.68038
0.0209459	3.87442
0.0218499	4.02516
0.0237766	4.2191
0.0264253	4.52067
0.0299958	4.86534
0.0362769	5.33935
0.0448105	5.83496
0.0487607	6.0289
0.0541926	6.28746
0.0589712	6.4814
0.0698297	6.86929
0.0899767	7.47263
0.113513	7.8393
0.149387	8.20618
0.169574	8.44333
0.200795	8.72369
0.269894	9.09066
0.420584	9.41531
0.615164	9.61063
0.918973	9.80606
