Adsorption isotherm of Acetylene on Fe2(dobdc)
DOI: 10.1126/science.1217544
Adsorbate Acetylene: InChIKey HSFWRNGVRCDJHI-UHFFFAOYSA-N
Temperature: 318 K
Tabular data in the source: 0
pressure (bar)	uptake (mmol/g)
0.00392157	0.0324112
0.00784314	0.151309
0.0117647	0.367504
0.0196078	0.508002
0.027451	0.599852
0.0352941	0.659269
0.0627451	0.740201
0.0784314	0.772549
0.129412	0.820922
0.156863	0.842395
0.207843	0.863741
0.266667	0.885045
0.317647	0.906391
0.407843	0.932931
0.458824	0.943466
0.54902	0.9646
0.65098	0.98567
0.698039	0.996227
0.74902	1.00676
0.803922	1.01728
0.85098	1.02243
0.901961	1.03296
0.956863	1.03807
1.00392	1.04322
