Adsorption isotherm of Ethene on Fe2(dobdc)
DOI: 10.1126/science.1217544
Adsorbate Ethene: InChIKey VGGSQFUCUMXWEO-UHFFFAOYSA-N
Temperature: 318 K
Tabular data in the source: 0
pressure (bar)	uptake (mmol/g)
0.00392157	0.0810599
0.00784314	0.140498
0.0117647	0.221558
0.0156863	0.302618
0.0235294	0.35663
0.027451	0.394446
0.0392157	0.480869
0.054902	0.55646
0.0666667	0.594234
0.0745098	0.621219
0.0980392	0.66974
0.12549	0.70743
0.156863	0.734287
0.207843	0.771849
0.262745	0.79858
0.309804	0.819947
0.364706	0.825056
0.419608	0.840975
0.458824	0.851574
0.505882	0.86213
0.552941	0.867281
0.654902	0.882946
0.698039	0.893524
0.858824	0.903466
0.905882	0.908617
0.94902	0.913789
1	0.913514
