Adsorption isotherm of Ethene on Fe2(dobdc)
DOI: 10.1126/science.1217544
Adsorbate Ethene: InChIKey VGGSQFUCUMXWEO-UHFFFAOYSA-N
Temperature: 353 K
Tabular data in the source: 0
pressure (bar)	uptake (mmol/g)
0.000136789	0.0495696
0.000225808	0.0485943
0.00036126	0.04768
0.000634921	0.0645039
0.00134664	0.0988833
0.00251976	0.169349
0.00415959	0.222137
0.01	0.345878
0.0212095	0.469863
0.0281177	0.540999
0.0396862	0.665777
0.0526126	0.772755
0.0742592	0.897532
0.0841725	1.00482
0.108147	1.11185
0.157499	1.37994
0.2223	1.55848
0.251977	1.70161
0.285616	1.77305
0.366966	2.00553
0.442852	2.18438
0.53443	2.34531
0.644947	2.54207
0.855013	2.82826
1	2.98925
