Adsorption isotherm of Carbon Dioxide on Activated [Cd2Cl(tba)3]·0.5DMF·2H2O
DOI: 10.1039/c5ce00405e
Article source: Figure 4
Adsorbate Carbon Dioxide: InChIKey CURLTUGMZLYLDI-UHFFFAOYSA-N
Kind: experiment
Temperature: 298 K
Tabular data in the source: 0
pressure (bar)	uptake (cm3(STP)/g)
0.272065	0.222
0.629476	0.453
1.10602	0.606
1.43862	0.781
1.85066	0.978
2.27758	1.088
2.75913	1.263
3.27043	1.526
3.93062	1.866
5.00785	2.271
6.45737	2.917
7.40296	3.141
7.9033	3.252
8.61632	3.486
9.14167	3.776
9.9485	4.024
10.3363	4.176
11.8123	4.728
12.3126	4.962
13.6444	5.563
14.2669	5.685
15.5749	6.259
16.2763	6.432
17.4346	7.024
18.2857	7.232
19.2471	7.893
20.1633	7.877
21.1561	8.425
21.9405	8.578
22.9631	9.104
24.0154	9.344
24.8296	9.629
25.9018	10.133
26.6464	10.483
27.7484	10.57
28.5328	11.009
29.754	11.534
30.3298	11.731
31.6503	11.972
32.2459	12.41
33.5664	12.76
34.0827	13.023
35.5818	13.483
35.9392	13.768
37.474	13.998
37.8118	14.246
39.5005	14.743
39.7132	14.936
41.3017	15.322
41.6395	15.515
43.1906	16.067
45.2295	16.95
47.2448	17.782
49.1281	18.111
51.0351	18.632
51.2005	18.701
53.0681	19.327
54.6441	19.97
55.2036	20.109
56.8751	20.535
58.3011	20.727
58.9515	21.031
60.7403	21.693
61.8285	22.079
62.6666	22.133
64.4678	22.74
