Adsorption isotherm of Nitrogen on Activated [Cd2Cl(tba)3]·0.5DMF·2H2O
DOI: 10.1039/c5ce00405e
Article source: Figure 4
Adsorbate Nitrogen: InChIKey IJGRMHOSHXDMSA-UHFFFAOYSA-N
Kind: experiment
Temperature: 77 K
Tabular data in the source: 0
pressure (bar)	uptake (cm3(STP)/g)
0.001494	0.148
0.016928	0.392
0.031368	0.706
0.046057	0.828
0.061867	0.846
0.071203	0.916
0.081784	0.933
0.090622	0.951
0.100084	0.986
0.116515	1.091
0.138673	0.986
0.1622	1.335
0.191206	1.021
0.215855	1.126
0.240254	1.022
0.26403	1.249
0.290297	0.918
0.314571	1.249
0.339594	1.023
0.367303	1.214
0.389832	0.826
0.415717	1.242
0.437455	0.965
0.464922	1.27
0.488241	1.049
0.516102	1.353
0.540014	1.104
0.566097	1.381
0.586253	1.215
0.616487	1.52
0.63605	1.271
0.671606	1.558
0.687919	1.294
0.719287	1.646
0.737167	1.514
0.769475	1.778
0.788297	1.559
0.817783	1.778
0.835977	1.779
0.87048	2.174
0.89181	2.526
0.919726	3.097
0.949207	4.986
0.964573	6.128
0.983379	10.961
0.98401	10.082
1.00155	16.935
