Adsorption isotherm of Carbon Dioxide on Activated [Cd2Cl(tba)3]·0.5DMF·2H2O
DOI: 10.1039/c5ce00405e
Article source: Figure 4
Adsorbate Carbon Dioxide: InChIKey CURLTUGMZLYLDI-UHFFFAOYSA-N
Kind: experiment
Temperature: 273 K
Tabular data in the source: 0
pressure (bar)	uptake (cm3(STP)/g)
0.066094	0.249
0.38764	0.802
0.63136	1.009
1.08159	1.645
1.48436	2.253
1.76533	2.723
2.13429	3.206
2.91957	4.547
3.45776	5.349
4.30445	6.697
4.88474	7.607
5.53221	8.617
6.52715	10.213
6.69558	10.588
7.58479	12.042
8.56991	13.618
9.58704	15.298
10.5914	17.031
10.7108	17.249
11.5808	18.677
11.7535	18.964
12.696	20.183
12.8815	20.409
13.5255	21.402
13.9136	21.88
14.5448	22.768
14.9649	23.134
15.5577	24.1
16.0226	24.57
16.5322	25.459
17.0766	25.74
17.4904	26.376
18.119	26.946
18.5704	27.605
19.2099	28.109
19.5483	28.723
20.2577	29.008
20.5478	29.776
21.327	30.148
21.5097	30.741
22.3986	31.176
22.5351	31.664
23.435	32.081
23.5544	32.395
24.5108	32.988
24.5511	33.048
25.5801	33.81
25.6608	34.106
26.5877	34.566
27.668	35.404
28.7407	36.022
29.6875	36.902
29.7259	36.918
30.8436	37.481
31.6093	37.963
31.9371	38.248
32.9332	38.779
33.4621	39.074
34.0208	39.318
34.9488	39.78
