Adsorption isotherm of Carbon Dioxide on Activated [Cd2Cl(tba)3]·0.5DMF·2H2O
DOI: 10.1039/c5ce00405e
Article source: Figure 4
Adsorbate Carbon Dioxide: InChIKey CURLTUGMZLYLDI-UHFFFAOYSA-N
Kind: experiment
Temperature: 195 K
Tabular data in the source: 0
pressure (bar)	uptake (cm3(STP)/g)
0.008288	0.645
0.012503	4.043
0.012782	5.998
0.013153	9.008
0.013558	18.957
0.013848	33.993
0.013953	23.957
0.014133	46.764
0.01422	39.892
0.014242	38.75
0.015432	56.434
0.01863	60.982
0.027689	64.571
0.028337	69.067
0.03713	67.15
0.038923	70.844
0.042488	68.527
0.049636	72.604
0.057028	71.35
0.058946	73.929
0.06621	72.501
0.070423	75.079
0.076028	73.546
0.081007	76.23
0.086485	74.505
0.088657	76.77
0.097451	75.359
0.098986	77.589
0.106633	76.335
0.108678	78.653
0.120025	78.932
0.124356	77.469
0.132137	79.542
0.133026	78.061
0.141955	79.961
0.14259	78.637
0.152155	80.658
0.153428	79.264
0.16197	79.718
0.180206	81.844
0.189383	80.973
0.201753	82.612
0.209655	81.584
0.251416	84.102
0.260319	82.927
0.306668	85.404
0.313584	84.394
0.356235	86.405
0.365629	85.692
0.40595	87.197
0.417995	86.407
0.455826	88.088
0.469637	87.189
0.506344	88.617
0.522727	87.937
0.556863	89.431
0.572522	88.751
0.608217	89.911
0.625217	89.58
0.65767	90.436
0.678003	89.958
0.707646	90.874
0.730823	90.811
0.759026	91.46
0.783376	91.149
0.808574	91.827
0.836198	91.759
0.859776	92.286
0.886691	92.19
0.909966	92.744
0.939512	92.773
0.981	93.273
0.99041	93.315
1.01095	93.689
