Adsorption isotherm of Carbon Dioxide on MAF-66
DOI: 10.1021/ic301463z
Adsorbate Carbon Dioxide: InChIKey CURLTUGMZLYLDI-UHFFFAOYSA-N
Temperature: 195 K
Tabular data in the source: 0
pressure (bar)	uptake (cm3(STP)/g)
0.000396063	5.85453
0.0290341	183.722
0.0657779	208.681
0.134747	219.076
0.194143	224.329
0.26466	230.337
0.36999	232.763
0.575263	239.799
0.675008	241.482
0.817195	243.257
0.927813	242.037
1.00172	243.662
