Adsorption isotherm of Methane on MAF-66
DOI: 10.1021/ic301463z
Adsorbate Methane: InChIKey VNWKTOKETHGBQD-UHFFFAOYSA-N
Temperature: 298 K
Tabular data in the source: 0
pressure (bar)	uptake (cm3(STP)/g)
0.037053	3.33664
0.158371	8.34669
0.20081	10.0362
0.26124	11.9016
0.305983	14.4636
0.421151	18.9886
0.558462	24.1549
0.671784	29.0868
0.831084	34.4681
0.933341	36.3174
1.02606	39.3482
