Adsorption isotherm of Nitrogen on MAF-66
DOI: 10.1021/ic301463z
Adsorbate Nitrogen: InChIKey IJGRMHOSHXDMSA-UHFFFAOYSA-N
Temperature: 298 K
Tabular data in the source: 0
pressure (bar)	uptake (cm3(STP)/g)
0.033372	-1.37356
0.151927	1.48484
0.202056	2.39969
0.270023	3.06396
0.323691	2.73862
0.428406	5.88668
0.58018	6.9451
0.688433	8.85296
0.84544	7.83787
0.949849	10.1331
1.00336	9.38132
