Adsorption isotherm of Carbon Dioxide on MAF-66
DOI: 10.1021/ic301463z
Adsorbate Carbon Dioxide: InChIKey CURLTUGMZLYLDI-UHFFFAOYSA-N
Temperature: 298 K
Tabular data in the source: 0
pressure (bar)	uptake (cm3(STP)/g)
0.01183	5.21477
0.115593	22.3762
0.192451	36.7251
0.252717	43.688
0.311595	52.3371
0.413982	65.6607
0.527446	76.543
0.682431	86.5563
0.801127	95.3651
0.953501	103.653
1.05913	109.36
