Adsorption isotherm of Nitrogen on MAF-66
DOI: 10.1021/ic301463z
Adsorbate Nitrogen: InChIKey IJGRMHOSHXDMSA-UHFFFAOYSA-N
Temperature: 77 K
Tabular data in the source: 0
pressure (bar)	uptake (cm3(STP)/g)
0.0012737	46.1004
0.0233722	236.393
0.078866	265.783
0.141804	268.848
0.204593	269.717
0.271271	273.522
0.371016	275.205
0.572104	274.914
0.692147	276.641
0.825008	276.933
0.968891	276.517
1.01333	278.81
