Adsorption isotherm of Hydrogen on MAF-66
DOI: 10.1021/ic301463z
Adsorbate Hydrogen: InChIKey UFHFLCQGNIYNRP-UHFFFAOYSA-N
Temperature: 87 K
Tabular data in the source: 0
pressure (bar)	uptake (cm3(STP)/g)
0.0327577	0.232147
0.0935707	0.605207
0.24118	1.00797
0.306137	1.14957
0.431668	1.35452
0.552657	1.47471
0.68584	1.59081
0.826435	1.70834
0.973964	1.80786
1.10619	1.88507
1.23547	1.94235
