Adsorption isotherm of Hydrogen on MAF-66
DOI: 10.1021/ic301463z
Adsorbate Hydrogen: InChIKey UFHFLCQGNIYNRP-UHFFFAOYSA-N
Temperature: 77 K
Tabular data in the source: 0
pressure (bar)	uptake (cm3(STP)/g)
0.000797024	0.0324123
0.0383369	0.659033
0.0715728	0.910627
0.142109	1.27912
0.311318	1.66026
0.436371	1.84575
0.644952	2.02806
0.77949	2.09926
0.984166	2.22274
1.12101	2.28794
1.24997	2.33225
