Adsorption isotherm of Methane on MAF-66
DOI: 10.1021/ic301463z
Adsorbate Methane: InChIKey VNWKTOKETHGBQD-UHFFFAOYSA-N
Temperature: 273 K
Tabular data in the source: 0
pressure (bar)	uptake (cm3(STP)/g)
0.0336665	5.00326
0.160359	13.8902
0.209865	18.6233
0.262146	19.9841
0.309653	24.6977
0.421587	31.3158
0.567812	39.1188
0.679899	46.1633
0.8372	51.525
0.951287	58.5891
1.03786	61.1349
