Adsorption isotherm of Carbon Dioxide on MAF-66
DOI: 10.1021/ic301463z
Adsorbate Carbon Dioxide: InChIKey CURLTUGMZLYLDI-UHFFFAOYSA-N
Temperature: 273 K
Tabular data in the source: 0
pressure (bar)	uptake (cm3(STP)/g)
0.00413965	5.98947
0.0717445	33.4207
0.135974	56.9946
0.2451	83.5569
0.375921	103.957
0.471546	115.09
0.602696	125.295
0.731387	134.202
0.89191	142.995
1.01123	147.985
1.07827	151.615
