Adsorption isotherm of Nitrogen on C8H11CuO7
DOI: 10.1039/C0ce00150c
Adsorbate Nitrogen: InChIKey IJGRMHOSHXDMSA-UHFFFAOYSA-N
Temperature: 77 K
Tabular data in the source: 0
pressure (bar)	uptake (ml/g)
0.0113254	1.58009
0.0378331	1.81159
0.0700222	2.04441
0.0832734	2.27284
0.0984184	2.5017
0.121144	2.50697
0.160908	2.74155
0.174165	2.74462
0.196885	2.97525
0.246123	2.98667
0.295357	3.22344
0.338914	3.23354
0.390041	3.47075
0.439274	3.70753
0.486619	3.71851
0.533958	3.95484
0.586979	4.19249
0.632419	4.65374
0.679764	4.66472
0.732774	5.35307
0.780108	5.81476
0.797142	6.26941
0.82932	6.95293
0.850131	7.85917
0.876612	9.21742
0.89739	11.4758
0.92002	15.5373
0.946373	22.304
0.953862	25.9114
0.959469	29.0676
