Adsorption isotherm of Hydrogen on C8H11CuO7
DOI: 10.1039/C0ce00150c
Adsorbate Hydrogen: InChIKey UFHFLCQGNIYNRP-UHFFFAOYSA-N
Temperature: 77 K
Tabular data in the source: 0
pressure (bar)	uptake (wt%)
1.20724	0.0384695
3.62173	0.0814889
6.63984	0.110954
8.85312	0.124572
10.664	0.133658
13.0785	0.145019
14.6881	0.149578
17.1026	0.158678
19.5171	0.165517
21.328	0.17008
26.3581	0.179239
30.9859	0.188389
36.2173	0.199814
40.6439	0.206698
46.2777	0.213609
50.7042	0.218232
55.9356	0.222873
60.9658	0.229771
65.7948	0.234402
71.0262	0.239043
76.0563	0.241418
80.8853	0.248311
82.495	0.250609
85.7143	0.250682
88.1288	0.252998
90.7445	0.25758
92.9577	0.262152
95.9759	0.259959
98.3903	0.264536
