Adsorption isotherm of Nitrogen on C21H21Cu2NO10
DOI: 10.1039/C0ce00150c
Adsorbate Nitrogen: InChIKey IJGRMHOSHXDMSA-UHFFFAOYSA-N
Temperature: 77 K
Tabular data in the source: 0
pressure (bar)	uptake (ml/g)
0.0127924	19.6086
0.0279161	20.7389
0.0638768	21.6486
0.0809155	21.8779
0.101742	22.1081
0.118781	22.3374
0.139607	22.5676
0.156646	22.7969
0.175584	22.8013
0.19641	23.0315
0.249436	23.0438
0.296776	23.2801
0.344115	23.5164
0.387672	23.5265
0.438799	23.7638
0.486139	24.0001
0.53916	24.2377
0.584611	24.2483
0.633849	24.2597
0.681183	24.7214
0.728523	24.9577
0.77965	25.1949
0.796678	25.8749
0.826978	25.882
0.849693	26.3379
0.874297	27.0197
0.898905	27.4761
0.921599	28.8335
0.942382	30.8665
0.955601	32.447
0.963107	35.3783
