Adsorption isotherm of Hydrogen on C10H9CuO5
DOI: 10.1039/C0ce00150c
Adsorbate Hydrogen: InChIKey UFHFLCQGNIYNRP-UHFFFAOYSA-N
Temperature: 77 K
Tabular data in the source: 0
pressure (bar)	uptake (wt%)
3.21932	0.128967
6.03622	0.174257
7.84708	0.196911
10.8652	0.221854
12.4748	0.233197
14.8893	0.24908
16.499	0.258162
19.1147	0.267266
20.5231	0.278605
25.7545	0.294552
31.5895	0.310513
35.4125	0.321906
40.6439	0.335592
45.674	0.344751
50.7042	0.356172
55.332	0.36306
60.5634	0.374485
65.7948	0.383649
70.8249	0.390546
76.0563	0.395187
80.4829	0.402071
82.495	0.406639
85.5131	0.408969
90.3421	0.415862
92.5553	0.420435
95.3722	0.42276
98.3903	0.425089
