Adsorption isotherm of Hydrogen on C23H27Cu2N2O11
DOI: 10.1039/C0ce00150c
Adsorbate Hydrogen: InChIKey UFHFLCQGNIYNRP-UHFFFAOYSA-N
Temperature: 77 K
Tabular data in the source: 0
pressure (bar)	uptake (wt%)
1.40845	0.208072
3.42052	0.330228
6.03622	0.416217
7.84708	0.4547
10.664	0.49999
13.0785	0.52718
15.2918	0.549843
16.7002	0.565704
19.1147	0.583849
20.7243	0.597454
25.5533	0.62696
31.1871	0.654223
35.6137	0.674675
40.4427	0.690613
46.0765	0.708831
50.9054	0.722508
55.9356	0.733928
60.7646	0.745344
65.7948	0.756764
70.4225	0.765914
75.8551	0.775082
80.8853	0.784241
82.8974	0.791071
90.7445	0.802555
92.9577	0.804866
95.9759	0.811718
98.7928	0.814043
