Adsorption isotherm of Nitrogen on C23H27Cu2N2O11
DOI: 10.1039/C0ce00150c
Adsorbate Nitrogen: InChIKey IJGRMHOSHXDMSA-UHFFFAOYSA-N
Temperature: 77 K
Tabular data in the source: 0
pressure (bar)	uptake (ml/g)
0.0104985	36.5095
0.0308181	58.148
0.0572192	62.8865
0.076077	66.2712
0.100654	68.0797
0.117682	68.7597
0.140397	69.2157
0.15743	69.6703
0.174463	70.125
0.193391	70.5801
0.244507	71.268
0.293735	71.7301
0.341069	72.1918
0.38652	72.2023
0.437642	72.6649
0.486875	72.9017
0.538002	73.1389
0.581559	73.149
0.630787	73.6111
0.68002	73.8479
0.729253	74.0846
0.774704	74.0952
0.812575	74.3293
0.823927	74.7827
0.850435	75.0142
0.8883	75.4737
0.914797	76.1559
0.922356	76.8337
0.945066	77.515
0.960152	80.2227
