Adsorption isotherm of Hydrogen on C21H21Cu2NO10
DOI: 10.1039/C0ce00150c
Adsorbate Hydrogen: InChIKey UFHFLCQGNIYNRP-UHFFFAOYSA-N
Temperature: 77 K
Tabular data in the source: 0
pressure (bar)	uptake (wt%)
1.40845	0.067871
3.01811	0.122179
7.04225	0.17428
8.65191	0.185623
10.8652	0.208286
13.2797	0.221908
14.8893	0.228729
16.7002	0.237815
19.1147	0.246915
20.7243	0.251474
26.1569	0.269687
31.3883	0.281112
35.6137	0.292514
40.6439	0.301673
45.674	0.310832
50.3018	0.31772
55.9356	0.324632
60.7646	0.329264
65.7948	0.336161
70.4225	0.340788
76.0563	0.3477
83.0986	0.354643
85.9155	0.356968
88.5312	0.36155
93.159	0.363916
95.5734	0.368493
98.1891	0.368552
99.5976	0.370845
