Adsorption isotherm of Nitrogen on C10H9CuO5
DOI: 10.1039/C0ce00150c
Adsorbate Nitrogen: InChIKey IJGRMHOSHXDMSA-UHFFFAOYSA-N
Temperature: 77 K
Tabular data in the source: 0
pressure (bar)	uptake (ml/g)
0.0106639	29.5236
0.0295698	30.8801
0.0655305	31.7898
0.0825746	31.7938
0.0996081	32.2485
0.116647	32.4778
0.139367	32.7084
0.154517	32.7119
0.175344	32.9421
0.198069	32.9474
0.249191	33.4099
0.29653	33.6462
0.341976	33.8821
0.391209	34.1189
0.440448	34.1303
0.491575	34.3675
0.53702	34.6034
0.586254	34.8402
0.633593	35.0765
0.680927	35.5382
0.728261	35.9999
0.777478	36.9127
0.798299	37.3683
0.828584	38.0514
0.851288	38.958
0.875881	40.0905
0.89858	41.2225
0.923156	43.031
0.947722	45.2903
0.953382	46.193
0.964713	47.5477
