Adsorption isotherm of Nitrogen, Oxygen on Mordenite/Na
DOI: 10.1021/ie0601293
Article source: Figure 3
Adsorbate Nitrogen: InChIKey IJGRMHOSHXDMSA-UHFFFAOYSA-N
Adsorbate Oxygen: InChIKey MYMOFIZGZYHOMD-UHFFFAOYSA-N
Kind: experiment
Temperature: 273 K
Tabular data in the source: 0
pressure (bar)	Nitrogen fraction	Nitrogen uptake (mmol/g)	Oxygen fraction	Oxygen uptake (mmol/g)	total uptake (mmol/g)
1	0.08182	0.14475	0.91182	0.33551	
1	0.20712	0.33297	0.79243	0.24048	
1	0.48234	0.63723	0.51529	0.1488	
1	0.79434	0.86646	0.21146	0.06008	
1	1.00974	0.99425	0	0	
