Adsorption isotherm of Nitrogen, Oxygen on Mordenite/Na
DOI: 10.1021/ie0601293
Article source: Figure 3
Adsorbate Nitrogen: InChIKey IJGRMHOSHXDMSA-UHFFFAOYSA-N
Adsorbate Oxygen: InChIKey MYMOFIZGZYHOMD-UHFFFAOYSA-N
Kind: experiment
Temperature: 358 K
Tabular data in the source: 0
pressure (bar)	Nitrogen fraction	Nitrogen uptake (mmol/g)	Oxygen fraction	Oxygen uptake (mmol/g)	total uptake (mmol/g)
1	0.08489	0.01181	0.90324	0.06675	
1	0.48025	0.06786	0.51715	0.03319	
1	0.78812	0.14679	0.20643	0.02541	
1	1.00156	0.1792	0	0	
