Adsorption isotherm of Nitrogen, Oxygen on Mordenite/Na
DOI: 10.1021/ie0601293
Article source: Figure 3
Adsorbate Nitrogen: InChIKey IJGRMHOSHXDMSA-UHFFFAOYSA-N
Adsorbate Oxygen: InChIKey MYMOFIZGZYHOMD-UHFFFAOYSA-N
Kind: experiment
Temperature: 303 K
Tabular data in the source: 0
pressure (bar)	Nitrogen fraction	Nitrogen uptake (mmol/g)	Oxygen fraction	Oxygen uptake (mmol/g)	total uptake (mmol/g)
1	0.09676	0.06675	0.91102	0.17078	0
1	0.20757	0.24048	0.79438	0.14221	0
1	0.4839	0.31643	0.5247	0.08808	0
1	0.79372	0.49362	0.21868	0.0485	0
1	1.00687	0.58383	0	0	0
