Adsorption isotherm of Nitrogen on calcined LiChrosorb RP-18 particles prepared with Ctab and Teos
DOI: 10.1680/jsuin.16.00020
Article source: Figure 7
Adsorbate Nitrogen: InChIKey IJGRMHOSHXDMSA-UHFFFAOYSA-N
Kind: experiment
Temperature: 77 K
Tabular data in the source: 0
pressure (bar)	uptake (cm3(STP)/g)
0.009616	71.99
0.059304	99.78
0.099114	111.12
0.140748	119.79
0.17848	130.31
0.206577	135.68
0.256276	149.29
0.305712	167.83
0.351236	190.07
0.410571	198.96
0.458183	209.9
0.496949	219.39
0.551856	222.32
0.55445	239.79
0.610917	262.45
0.657495	243.59
0.66477	276.27
0.712909	280.84
0.754289	271.42
0.764948	286.44
0.812823	288.13
0.834425	291.02
0.862786	292.9
0.884904	296.62
0.912485	295.41
0.934867	298.31
0.94969	302.23
0.970249	306.36
0.987423	308.43
0.998873	316.25
