Adsorption isotherm of Metronidazole, Water on Si-100
DOI: 10.1680/jsuin.16.00020
Article source: Figure 8
Adsorbate Metronidazole: InChIKey VAOCPAMSLUNLGC-UHFFFAOYSA-N
Adsorbate Water: InChIKey XLYOFNOQVPJJNP-UHFFFAOYSA-N
Kind: experiment
Isotherm type: excess
Temperature: 298 K
Tabular data in the source: 0
pressure (bar)	Metronidazole fraction	Metronidazole uptake (mmol/kg)	Water fraction	Water uptake (mmol/kg)	total uptake (mmol/kg)
1.01325	0.02626	0.0529			
1.01325	0.04931	0.0864			
1.01325	0.0991	0.1341			
1.01325	0.19546	0.3301			
1.01325	0.39961	0.0637			
1.01325	0.78553	0.5745			
1.01325	0.98518	1.2113			
