Adsorption isotherm of Metronidazole, Water on LiChrosorb RP-18 particles prepared with Ctab and Teos
DOI: 10.1680/jsuin.16.00020
Article source: Figure 8
Adsorbate Metronidazole: InChIKey VAOCPAMSLUNLGC-UHFFFAOYSA-N
Adsorbate Water: InChIKey XLYOFNOQVPJJNP-UHFFFAOYSA-N
Kind: experiment
Isotherm type: excess
Temperature: 298 K
Tabular data in the source: 0
pressure (bar)	Metronidazole fraction	Metronidazole uptake (mmol/kg)	Water fraction	Water uptake (mmol/kg)	total uptake (mmol/kg)
1.01325	0.02884	0.0103			
1.01325	0.09459	0.4576			
1.01325	0.18112	1.459			
1.01325	0.369	2.1899			
1.01325	0.71608	5.1285			
1.01325	0.90445	6.9702			
