Adsorption isotherm of Nitrogen on calcined LiChrosorb RP-18 particles
DOI: 10.1680/jsuin.16.00020
Article source: Figure 7
Adsorbate Nitrogen: InChIKey IJGRMHOSHXDMSA-UHFFFAOYSA-N
Kind: experiment
Temperature: 77 K
Tabular data in the source: 0
pressure (bar)	uptake (cm3(STP)/g)
0.009342	42.62
0.048645	65.4
0.055414	62.94
0.10644	77.52
0.119713	79.57
0.15928	85.53
0.203274	95.38
0.238423	99.29
0.252993	100.73
0.342289	117.36
0.442244	132.77
0.448496	134
0.55679	156.18
0.666381	189.03
0.750722	263.94
0.811111	296.37
0.852076	621.96
0.880375	502.26
0.888228	702.1
0.919638	709.76
0.937815	709.6
0.952284	713.67
0.981415	722.63
0.999805	729.64
1.00889	733.88
