Adsorption isotherm of Nitrogen on LiChrosorb RP-18 particle
DOI: 10.1680/jsuin.16.00020
Article source: Figure 7
Adsorbate Nitrogen: InChIKey IJGRMHOSHXDMSA-UHFFFAOYSA-N
Kind: experiment
Temperature: 77 K
Tabular data in the source: 0
pressure (bar)	uptake (cm3(STP)/g)
0.008329	10.83
0.051624	34.62
0.062121	29.19
0.105082	41.61
0.114262	39.54
0.157557	49.63
0.210032	56.62
0.251686	60.5
0.34844	70.08
0.453309	82.65
0.556618	104.81
0.629753	127.46
0.666736	123.56
0.748554	205.98
0.805173	207.62
0.81488	331.24
0.850009	388.08
0.886992	338.74
0.89298	402.91
0.921908	408.13
0.938018	402.76
0.957654	410.25
0.9841	412.86
1.00124	418.4
1.01055	419.05
