Adsorption isotherm of Nitrogen on LiChrosorb RP-18 particles prepared with Ctab and Teos
DOI: 10.1680/jsuin.16.00020
Article source: Figure 7
Adsorbate Nitrogen: InChIKey IJGRMHOSHXDMSA-UHFFFAOYSA-N
Kind: experiment
Temperature: 77 K
Tabular data in the source: 0
pressure (bar)	uptake (cm3(STP)/g)
0.012179	17.63
0.056579	28.11
0.099955	31.74
0.141052	34.71
0.180081	36.87
0.252163	41.02
0.255881	44.61
0.344478	53.01
0.347984	50.9
0.449601	55.56
0.460959	61.77
0.550994	79.96
0.551005	70.5
0.653645	88.38
0.661892	112.69
0.761027	113.44
0.76123	120.45
0.825468	120.51
0.830626	123.78
0.875441	121.86
0.883709	124.32
0.930176	130.89
0.970026	137.12
0.994191	140.41
1.00968	142.06
