Adsorption isotherm of Carbon monoxide on Co2(NH2-BDC)1.5(L)(HCO2) solvent
DOI: 10.1002/ejic.201500715
Article source: Figure 5
Adsorbate Carbon monoxide: InChIKey UGFAIRIUMAVXCW-UHFFFAOYSA-N
Kind: experiment
Temperature: 293 K
Tabular data in the source: 0
pressure (bar)	uptake (cm3(STP)/g)
0	0
0.029444	0.763151
0.04716	0.509933
0.053998	0.76419
0.07632	0.765135
0.096315	0.596669
0.100898	0.808504
0.12766	0.767308
0.145423	0.598748
0.15447	0.810771
0.183512	0.854329
0.194579	0.685485
0.205858	0.897602
0.225971	0.940782
0.245967	0.772316
0.254966	0.899681
0.27952	0.90072
0.328652	0.945128
0.346463	0.861226
0.355486	1.03092
0.377808	1.03186
0.39785	0.948057
0.404618	1.07533
0.429148	1.03404
0.44475	0.99237
0.45375	1.11974
0.478304	1.12077
0.496114	1.03687
0.50509	1.12191
0.527412	1.12285
0.545293	1.16594
0.554199	1.12399
0.578753	1.12503
0.598937	1.29519
0.603354	1.21072
0.627908	1.21176
0.645884	1.42416
0.654742	1.29756
0.679367	1.42558
0.699457	1.42643
0.706153	1.42672
0.728452	1.38533
0.748494	1.30152
0.755309	1.51345
0.779887	1.55682
0.806602	1.43097
0.828924	1.43191
0.842412	1.6018
0.853502	1.47528
0.882544	1.51884
0.896008	1.64639
0.907098	1.51988
0.929396	1.47849
0.947372	1.69089
0.951695	1.43711
0.980784	1.56532
0.991992	1.65045
