Adsorption isotherm of Nitrogen on Co2(NH2-BDC)1.5(L)(HCO2) solvent
DOI: 10.1002/ejic.201500715
Article source: Figure 5
Adsorbate Nitrogen: InChIKey IJGRMHOSHXDMSA-UHFFFAOYSA-N
Kind: experiment
Temperature: 293 K
Tabular data in the source: 0
pressure (bar)	uptake (cm3(STP)/g)
0	0
0.029373	0.424403
0.051694	0.424403
0.078516	0.466844
0.105301	0.466844
0.132087	0.466844
0.152176	0.466844
0.178998	0.509284
0.20798	0.466844
0.228105	0.509284
0.245998	0.551724
0.254855	0.466844
0.283873	0.466844
0.299604	0.594164
0.30623	0.509284
0.333051	0.551724
0.344283	0.636605
0.357605	0.551724
0.379891	0.509284
0.400086	0.636605
0.406676	0.509284
0.429033	0.551724
0.446997	0.679045
0.458122	0.636605
0.482676	0.636605
0.493872	0.679045
0.504997	0.636605
0.529586	0.679045
0.545282	0.763926
0.556372	0.679045
0.578729	0.721485
0.592157	0.763926
0.605515	0.721485
0.6323	0.721485
0.650193	0.763926
0.656854	0.721485
0.679175	0.721485
0.694907	0.848806
0.708229	0.763926
0.73055	0.763926
0.75071	0.848806
0.779728	0.848806
0.793121	0.848806
0.806514	0.848806
0.8333	0.848806
0.842299	0.933687
0.855692	0.933687
0.882442	0.891247
0.900335	0.933687
0.906996	0.891247
0.931585	0.933687
0.944978	0.933687
0.958371	0.933687
0.980692	0.933687
0.994085	0.933687
1.00748	0.933687
