Adsorption isotherm of Carbon Dioxide on Co2(NH2-BDC)1.5(L)(HCO2) solvent
DOI: 10.1002/ejic.201500715
Article source: Figure 5
Adsorbate Carbon Dioxide: InChIKey CURLTUGMZLYLDI-UHFFFAOYSA-N
Kind: experiment
Temperature: 293 K
Tabular data in the source: 0
pressure (bar)	uptake (cm3(STP)/g)
0	0
0.022806	1.73545
0.025097	1.94709
0.04821	4.78307
0.052024	2.45503
0.054941	4.91005
0.074558	3.21693
0.097872	6.77249
0.101498	3.7672
0.128472	4.44444
0.147369	8.16931
0.153132	4.8254
0.177804	5.24868
0.196665	8.84656
0.204708	5.67196
0.227112	5.96825
0.248193	9.52381
0.254051	6.51852
0.278723	6.9418
0.297489	10.2011
0.303382	7.32275
0.328078	7.83069
0.34675	10.7513
0.354946	8.12698
0.37963	8.59259
0.398231	11.2593
0.402046	8.93122
0.428926	9.26984
0.447503	11.8519
0.45583	9.69312
0.478198	9.86243
0.498961	12.2751
0.50509	10.2434
0.531959	10.5397
0.548198	12.7407
0.552107	10.7513
0.579023	11.2169
0.599643	13.1217
0.608111	11.4709
0.628271	11.7249
0.648857	13.5026
0.655128	11.9788
0.679741	12.1905
0.702487	13.7143
0.704412	12.6138
0.731245	12.7831
0.749457	14.0529
0.755858	12.9947
0.778286	13.3757
0.796426	14.3915
0.809547	13.418
0.831963	13.7566
0.847848	14.6878
0.858796	13.9259
0.883397	14.0952
0.899223	14.8148
0.905837	14.5185
0.930378	14.4762
0.946181	15.1111
0.959491	14.8148
0.981918	15.1958
0.99537	15.4074
1.0087	15.1958
