Adsorption isotherm of Oxygen on Co2(NH2-BDC)1.5(L)(HCO2) solvent
DOI: 10.1002/ejic.201500715
Article source: Figure 5
Adsorbate Oxygen: InChIKey MYMOFIZGZYHOMD-UHFFFAOYSA-N
Kind: experiment
Temperature: 293 K
Tabular data in the source: 0
pressure (bar)	uptake (cm3(STP)/g)
0	0
0.026987	0.720719
0.044856	0.763803
0.073874	0.765032
0.093987	0.850539
0.145339	0.895041
0.15422	0.726105
0.185483	0.769756
0.207828	0.855358
0.230161	0.898631
0.254727	0.941999
0.303858	1.02873
0.330644	1.02987
0.357442	1.07333
0.399877	1.15978
0.428895	1.16101
0.453449	1.16205
0.480247	1.20551
0.502581	1.24879
0.529378	1.29225
0.5517	1.29319
0.576254	1.29423
0.605272	1.29546
0.627594	1.29641
0.678981	1.46789
0.750387	1.38626
0.806203	1.43095
0.900001	1.60423
0.933496	1.64798
0.955817	1.64892
0.980383	1.69229
1.00269	1.65091
