Adsorption isotherm of Methane on Co2(NH2-BDC)1.5(L)(HCO2) solvent
DOI: 10.1002/ejic.201500715
Article source: Figure 5
Adsorbate Methane: InChIKey VNWKTOKETHGBQD-UHFFFAOYSA-N
Kind: experiment
Temperature: 293 K
Tabular data in the source: 0
pressure (bar)	uptake (cm3(STP)/g)
0	0
0.02752	0.804233
0.047903	1.10053
0.052058	0.719577
0.076702	0.761905
0.094954	1.18519
0.125883	0.719577
0.144171	1.18519
0.177408	0.804233
0.195732	1.31217
0.244949	1.31217
0.251305	0.888889
0.278115	0.846561
0.291964	1.3545
0.304961	0.846561
0.327403	0.931217
0.347928	1.39683
0.356521	0.973545
0.381165	1.01587
0.392671	1.39683
0.428145	1.01587
0.448599	1.39683
0.477398	1.0582
0.493448	1.52381
0.504243	1.0582
0.531054	1.01587
0.540464	1.56614
0.551223	1.0582
0.596428	1.60847
0.600476	1.10053
0.629701	1.26984
0.65019	1.69312
0.651965	1.14286
0.678918	1.26984
0.694897	1.65079
0.701325	1.31217
0.725933	1.31217
0.744114	1.65079
0.750577	1.3545
0.775221	1.39683
0.793331	1.65079
0.828912	1.39683
0.847093	1.73545
0.875963	1.48148
0.896311	1.73545
0.931821	1.39683
0.945456	1.65079
1.00131	1.56614
1.00362	1.65079
