Adsorption isotherm of Carbon Dioxide, Methane on Palm shell activated carbon
DOI: 10.3303/cet1652021
Article source: Figure 3b
Adsorbate Carbon Dioxide: InChIKey CURLTUGMZLYLDI-UHFFFAOYSA-N
Adsorbate Methane: InChIKey VNWKTOKETHGBQD-UHFFFAOYSA-N
Kind: experiment
Temperature: 298 K
Tabular data in the source: 0
pressure (bar)	Carbon Dioxide fraction	Carbon Dioxide uptake (mmol/g)	Methane fraction	Methane uptake (mmol/g)	total uptake (mmol/g)
1.01325	0	0	1	1.4	
1.01325	0.269	1.95	0.731	1.28	
1.01325	0.498	2.98	0.502	0.889	
1.01325	0.75	4.52	0.25	0.409	
1.01325	1	5.36	0	0	
