Adsorption isotherm of Carbon Dioxide, Methane on Coconut shell activated carbon
DOI: 10.3303/cet1652021
Article source: Figure 3a
Adsorbate Carbon Dioxide: InChIKey CURLTUGMZLYLDI-UHFFFAOYSA-N
Adsorbate Methane: InChIKey VNWKTOKETHGBQD-UHFFFAOYSA-N
Kind: experiment
Temperature: 298 K
Tabular data in the source: 0
pressure (bar)	Carbon Dioxide fraction	Carbon Dioxide uptake (mmol/g)	Methane fraction	Methane uptake (mmol/g)	total uptake (mmol/g)
1.01325	0	0	1	1.47	
1.01325	0.269	1.59	0.731	1.28	
1.01325	0.499	2.78	0.501	0.875	
1.01325	0.75	3.91	0.25	0.423	
1.01325	1	4.78	0	0	
