Adsorption isotherm of Carbon Dioxide, Methane on Coal-based activated carbon
DOI: 10.3303/cet1652021
Article source: Figure 3c
Adsorbate Carbon Dioxide: InChIKey CURLTUGMZLYLDI-UHFFFAOYSA-N
Adsorbate Methane: InChIKey VNWKTOKETHGBQD-UHFFFAOYSA-N
Kind: experiment
Temperature: 298 K
Tabular data in the source: 0
pressure (bar)	Carbon Dioxide fraction	Carbon Dioxide uptake (mmol/g)	Methane fraction	Methane uptake (mmol/g)	total uptake (mmol/g)
1.01325	0	0	1	0.931	
1.01325	0.269	1.07	0.731	0.593	
1.01325	0.501	1.85	0.499	0.395	
1.01325	0.75	2.77	0.25	0.183	
1.01325	1	4.14	0	0	
