Adsorption isotherm of Hydrogen on Ni-DABCO
DOI: 10.1021/Je400546d
Adsorbate Hydrogen: InChIKey UFHFLCQGNIYNRP-UHFFFAOYSA-N
Temperature: 297 K
Tabular data in the source: 0
pressure (bar)	uptake (wt%)
-0.00195723	-0.0373832
3.76833	-0.0249221
8.38088	0.0747664
13.8266	0.0872274
19.6937	0.149533
25.5602	0.199377
37.9208	0.286604
53.0039	0.373832
68.0883	0.485981
87.3605	0.58567
