Adsorption isotherm of Hydrogen on Mg-DOBDC
DOI: 10.1021/Je400546d
Adsorbate Hydrogen: InChIKey UFHFLCQGNIYNRP-UHFFFAOYSA-N
Temperature: 101 K
Tabular data in the source: 0
pressure (bar)	uptake (wt%)
0.140708	-0.0273669
0.264647	0.365626
0.916423	1.52642
1.87768	1.92884
4.09802	2.26772
8.13444	2.57981
12.3156	2.76401
19.9896	2.88544
25.572	2.94218
37.4421	2.87314
52.102	2.86903
67.605	2.72813
78.2127	2.80487
