Adsorption isotherm of Hydrogen on Ni-DABCO
DOI: 10.1021/Je400546d
Adsorbate Hydrogen: InChIKey UFHFLCQGNIYNRP-UHFFFAOYSA-N
Temperature: 90 K
Tabular data in the source: 0
pressure (bar)	uptake (wt%)
0.16781	0.335734
0.371772	-0.0102217
0.37393	-0.0509196
0.525013	0.600224
0.679333	1.19032
1.03923	1.40394
1.55615	2.15678
4.12186	2.77709
6.70916	2.99043
11.5222	3.234
17.2736	3.28414
25.0722	3.23228
37.1416	3.14935
52.3723	2.9541
74.8502	2.60531
94.1662	2.37901
