Adsorption isotherm of Hydrogen on Cr-BDC
DOI: 10.1021/Je400546d
Adsorbate Hydrogen: InChIKey UFHFLCQGNIYNRP-UHFFFAOYSA-N
Temperature: 136 K
Tabular data in the source: 0
pressure (bar)	uptake (wt%)
1.21951	0.126745
2.23577	0.230438
4.6748	0.403003
8.33333	0.66763
13.0081	0.897223
19.5122	1.17242
26.626	1.37805
37.3984	1.75582
67.4797	2.18469
94.3089	2.49908
