Adsorption isotherm of Hydrogen on Mg-DOBDC
DOI: 10.1021/Je400546d
Adsorbate Hydrogen: InChIKey UFHFLCQGNIYNRP-UHFFFAOYSA-N
Temperature: 133 K
Tabular data in the source: 0
pressure (bar)	uptake (wt%)
0.13986	0.027116
0.27972	0.244154
0.41958	0.61494
0.699301	0.452117
0.839161	0.651068
2.23776	0.913184
3.91608	1.16622
7.83217	1.52754
13.4266	1.81631
19.8601	2.07786
25.5944	2.22191
37.0629	2.38341
51.8881	2.51739
67.1329	2.56993
77.3427	2.62304
