Adsorption isotherm of Hydrogen on Mg-DOBDC
DOI: 10.1021/Je400546d
Adsorbate Hydrogen: InChIKey UFHFLCQGNIYNRP-UHFFFAOYSA-N
Temperature: 192 K
Tabular data in the source: 0
pressure (bar)	uptake (wt%)
0.142283	0.0544041
0.703792	0.0816062
1.96764	0.154145
3.93383	0.272021
8.00632	0.507772
13.3372	0.680052
20.2132	0.952073
25.824	1.11528
36.7631	1.38731
52.7423	1.56865
67.462	1.78627
76.4346	1.93135
