Adsorption isotherm of Hydrogen on Mg-DOBAC
DOI: 10.1021/Je400546d
Adsorbate Hydrogen: InChIKey UFHFLCQGNIYNRP-UHFFFAOYSA-N
Temperature: 298 K
Tabular data in the source: 0
pressure (bar)	uptake (wt%)
2.26108	0.0406544
4.52528	0.0400708
8.29349	0.111265
13.8746	0.161373
20.2112	0.200976
26.2452	0.250968
37.5584	0.351145
52.3449	0.429808
67.7337	0.528935
