Adsorption isotherm of Hydrogen on Zn-BDC
DOI: 10.1021/Je400546d
Adsorbate Hydrogen: InChIKey UFHFLCQGNIYNRP-UHFFFAOYSA-N
Temperature: 136 K
Tabular data in the source: 0
pressure (bar)	uptake (wt%)
-0.628181	0.012912
-0.203757	0.0257225
0.432878	0.0449382
0.646781	0.057769
2.14579	0.15401
4.4852	0.243744
8.29571	0.323698
13.9891	0.358491
20.3047	0.357882
25.5787	0.399141
37.9978	0.391518
53.5662	0.351464
69.5463	0.276028
92.2369	0.100347
