Adsorption isotherm of Hydrogen on Mg-DOBDC
DOI: 10.1021/Je400546d
Adsorbate Hydrogen: InChIKey UFHFLCQGNIYNRP-UHFFFAOYSA-N
Temperature: 298 K
Tabular data in the source: 0
pressure (bar)	uptake (wt%)
1.82245	0.0272021
4.06377	0.0181347
8.12936	0.0816062
13.3143	0.108808
19.7603	0.13601
25.7859	0.163212
37.2778	0.244819
52.5499	0.262953
67.123	0.317358
80.714	0.335492
