Adsorption isotherm of Hydrogen on Zn-BDC
DOI: 10.1021/Je400546d
Adsorbate Hydrogen: InChIKey UFHFLCQGNIYNRP-UHFFFAOYSA-N
Temperature: 136 K
Tabular data in the source: 0
pressure (bar)	uptake (wt%)
0.443866	0.0453038
0.451563	0.0634305
1.98136	0.166103
3.72732	0.277833
7.81512	0.404598
13.3711	0.489022
20.4031	0.549233
25.9629	0.64272
38.3232	0.751108
53.6507	0.847322
69.6087	0.928411
92.1163	0.933773
