Adsorption isotherm of Hydrogen on Cr-BDC
DOI: 10.1021/Je400546d
Adsorbate Hydrogen: InChIKey UFHFLCQGNIYNRP-UHFFFAOYSA-N
Temperature: 165 K
Tabular data in the source: 0
pressure (bar)	uptake (wt%)
1.92686	0.0757212
2.97959	0.151442
5.95666	0.252404
9.80912	0.378606
14.7088	0.471154
25.9082	0.68149
37.2802	0.84976
52.3173	0.891827
70.5037	0.984375
96.73	1.03486
