Adsorption isotherm of Hydrogen on Cr-BDC
DOI: 10.1021/Je400546d
Adsorbate Hydrogen: InChIKey UFHFLCQGNIYNRP-UHFFFAOYSA-N
Temperature: 92 K
Tabular data in the source: 0
pressure (bar)	uptake (wt%)
-0.203252	-0.0116043
0.203252	0.348814
0.406504	0.697627
1.01626	1.16267
2.43902	1.60437
3.65854	2.05771
6.70732	2.47596
10.7724	2.82433
16.0569	3.0679
22.561	3.2997
26.626	3.42714
34.3496	3.63554
45.3252	3.78543
67.8862	3.80606
91.0569	3.81499
