Adsorption isotherm of Hydrogen on Cr-BDC
DOI: 10.1021/Je400546d
Adsorbate Hydrogen: InChIKey UFHFLCQGNIYNRP-UHFFFAOYSA-N
Temperature: 297 K
Tabular data in the source: 0
pressure (bar)	uptake (wt%)
4.06504	0.079515
7.11382	0.11314
10.9756	0.123361
16.4634	0.15614
21.3415	0.18913
26.2195	0.198999
34.1463	0.254053
45.7317	0.296278
67.4797	0.415903
90.4472	0.477302
