Adsorption isotherm of Hydrogen on Cr-BDC
DOI: 10.1021/Je400546d
Adsorbate Hydrogen: InChIKey UFHFLCQGNIYNRP-UHFFFAOYSA-N
Temperature: 92 K
Tabular data in the source: 0
pressure (bar)	uptake (wt%)
7.10543e-15	0.00841346
0.17452	0.361779
0.52356	0.698317
1.22164	1.19471
2.26876	1.59014
4.01396	2.0024
7.15532	2.34736
10.9948	2.63341
16.2304	2.82692
22.3386	2.9363
26.5271	3.02043
34.3805	3.10457
45.2007	3.08774
67.7138	2.77644
91.0995	2.4399
103.141	2.34736
