Adsorption isotherm of Hydrogen on Ni-DABCO
DOI: 10.1021/Je400546d
Adsorbate Hydrogen: InChIKey UFHFLCQGNIYNRP-UHFFFAOYSA-N
Temperature: 194 K
Tabular data in the source: 0
pressure (bar)	uptake (wt%)
-0.00195723	-0.0373832
2.5157	0.0498442
4.6132	0.11215
8.17994	0.23676
13.6302	0.336449
19.7126	0.510903
25.3736	0.635514
37.5306	0.834891
52.2014	1.04673
67.918	1.23364
90.9651	1.43302
