Adsorption isotherm of Hydrogen on Ni-DABCO
DOI: 10.1021/Je400546d
Adsorbate Hydrogen: InChIKey UFHFLCQGNIYNRP-UHFFFAOYSA-N
Temperature: 145 K
Tabular data in the source: 0
pressure (bar)	uptake (wt%)
-0.186047	0.0203725
0.186047	0.0711973
0.744186	0.111824
2.23256	0.233728
4.09302	0.416631
8	0.711192
13.2093	0.995413
19.3488	1.2083
25.3023	1.34998
37.5814	1.69435
52.093	1.79425
73.3023	2.06626
91.907	2.02319
