Adsorption isotherm of Hydrogen on Mg-DOBAC
DOI: 10.1021/Je400546d
Adsorbate Hydrogen: InChIKey UFHFLCQGNIYNRP-UHFFFAOYSA-N
Temperature: 133 K
Tabular data in the source: 0
pressure (bar)	uptake (wt%)
-0.30479	0.0616948
0.293932	0.22549
0.739484	0.440646
1.03613	0.59434
1.18426	0.676316
2.23358	0.921931
4.03827	1.18767
7.95556	1.57541
13.2351	1.93167
19.7268	2.22578
25.6175	2.41763
37.101	2.67841
52.2149	2.91681
67.0282	3.10409
77.6098	3.22174
