Adsorption isotherm of Hydrogen on Cr-BDC
DOI: 10.1021/Je400546d
Adsorbate Hydrogen: InChIKey UFHFLCQGNIYNRP-UHFFFAOYSA-N
Temperature: 297 K
Tabular data in the source: 0
pressure (bar)	uptake (wt%)
1.92518	0.0420673
3.49903	0.0504808
7.16951	0.0336538
10.8421	0.0588942
16.0873	0.0673077
21.5077	0.0841346
26.0523	0.0673077
34.4456	0.100962
45.2843	0.0925481
67.3123	0.0925481
90.0396	0.0925481
101.578	0.0925481
