Adsorption isotherm of Hydrogen on Ni-DABCO
DOI: 10.1021/Je400546d
Adsorbate Hydrogen: InChIKey UFHFLCQGNIYNRP-UHFFFAOYSA-N
Temperature: 90 K
Tabular data in the source: 0
pressure (bar)	uptake (wt%)
-0.00195723	-0.0373832
0.0156579	0.299065
0.238783	0.560748
0.689599	1.17134
1.12019	1.39564
1.99768	2.15576
4.1265	2.8162
6.65329	3.07788
11.4857	3.37695
17.3581	3.53894
25.5321	3.66355
37.4732	3.73832
52.3456	3.80062
74.754	3.80062
94.0236	3.85047
