Adsorption isotherm of Hydrogen on Zn-BDC
DOI: 10.1021/Je400546d
Adsorbate Hydrogen: InChIKey UFHFLCQGNIYNRP-UHFFFAOYSA-N
Temperature: 101 K
Tabular data in the source: 0
pressure (bar)	uptake (wt%)
-0.384687	0.13819
0.000845466	0.00321277
0.311977	0.385512
0.508125	0.330875
0.760919	0.491493
2.03504	0.533137
3.96439	0.664678
8.60177	0.686721
13.6475	0.660532
20.3639	0.582776
26.031	0.517973
37.7796	0.362624
53.731	0.177954
69.2656	0.00938805
92.3494	-0.272355
