Adsorption isotherm of Hydrogen on Mg-DOBAC
DOI: 10.1021/Je400546d
Adsorbate Hydrogen: InChIKey UFHFLCQGNIYNRP-UHFFFAOYSA-N
Temperature: 192 K
Tabular data in the source: 0
pressure (bar)	uptake (wt%)
1.04884	0.102822
2.10002	0.174716
4.20082	0.339123
8.41176	0.544224
13.6778	0.769671
19.9942	1.07732
25.7153	1.27172
37.1631	1.58836
52.0874	1.84225
67.1587	2.14764
76.3524	2.33084
