Adsorption isotherm of Hydrogen on Zn-BDC
DOI: 10.1021/Je400546d
Adsorbate Hydrogen: InChIKey UFHFLCQGNIYNRP-UHFFFAOYSA-N
Temperature: 169 K
Tabular data in the source: 0
pressure (bar)	uptake (wt%)
1.69185	0.0290244
4.64941	0.0677686
9.92281	0.106662
17.2973	0.129626
33.9266	0.121056
51.6035	0.0932757
70.1166	0.0430597
94.5118	-0.0549711
