Adsorption isotherm of Hydrogen on Ni-DABCO
DOI: 10.1021/Je400546d
Adsorbate Hydrogen: InChIKey UFHFLCQGNIYNRP-UHFFFAOYSA-N
Temperature: 145 K
Tabular data in the source: 0
pressure (bar)	uptake (wt%)
-0.00195723	-0.0373832
1.05234	0.0996885
1.89786	0.249221
4.4227	0.47352
7.58167	0.809969
13.6719	1.13396
19.3394	1.38318
25.4232	1.58255
37.3845	2.04361
52.4761	2.29283
73.2332	2.75389
91.669	2.8785
