Adsorption isotherm of Hydrogen on Ni-DABCO
DOI: 10.1021/Je400546d
Adsorbate Hydrogen: InChIKey UFHFLCQGNIYNRP-UHFFFAOYSA-N
Temperature: 297 K
Tabular data in the source: 0
pressure (bar)	uptake (wt%)
4.46512	0.0299554
8.18605	0.0701798
13.5814	0.0491448
19.5349	0.0789109
25.8605	0.10863
38.1395	0.137591
52.6512	0.166269
67.907	0.184678
87.814	0.171971
