Adsorption isotherm of Hydrogen on Mg-DOBAC
DOI: 10.1021/Je400546d
Adsorbate Hydrogen: InChIKey UFHFLCQGNIYNRP-UHFFFAOYSA-N
Temperature: 101 K
Tabular data in the source: 0
pressure (bar)	uptake (wt%)
-0.0133899	0.354163
0.152015	-0.0207937
0.849866	1.52105
2.19634	1.90682
3.99571	2.31354
7.76457	2.62702
11.9907	2.84687
20.1475	3.099
26.1922	3.21515
37.0778	3.29091
52.0442	3.43022
67.317	3.46545
78.047	3.65574
