Adsorption isotherm of Hydrogen on Ni-DABCO
DOI: 10.1021/Je400546d
Adsorbate Hydrogen: InChIKey UFHFLCQGNIYNRP-UHFFFAOYSA-N
Temperature: 194 K
Tabular data in the source: 0
pressure (bar)	uptake (wt%)
2.4186	0.0607389
5.02326	0.121454
7.81395	0.19232
13.3953	0.262831
19.7209	0.394294
25.3023	0.464805
37.9535	0.595464
52.2791	0.70556
68.4651	0.784897
91.1628	0.812534
