Adsorption isotherm of Hydrogen on Cr-BDC
DOI: 10.1021/Je400546d
Adsorbate Hydrogen: InChIKey UFHFLCQGNIYNRP-UHFFFAOYSA-N
Temperature: 165 K
Tabular data in the source: 0
pressure (bar)	uptake (wt%)
3.25203	0.183843
6.09756	0.310024
9.34959	0.436064
15.0407	0.6075
25.813	0.904342
36.9919	1.14324
52.2358	1.32292
70.7317	1.54772
96.748	1.82772
