Adsorption isotherm of Hydrogen on Zn-BDC
DOI: 10.1021/Je400546d
Adsorbate Hydrogen: InChIKey UFHFLCQGNIYNRP-UHFFFAOYSA-N
Temperature: 101 K
Tabular data in the source: 0
pressure (bar)	uptake (wt%)
0.211222	-0.00303309
0.239556	0.130706
0.282058	0.331316
0.292362	0.379948
0.954362	0.504588
2.23586	0.553259
3.75305	0.7144
8.85457	0.793582
13.5233	0.830198
20.5181	0.845608
26.0292	0.857934
37.6818	0.858288
53.5756	0.877008
69.2576	0.895722
92.1365	0.884259
