Adsorption isotherm of Hydrogen on Cr-BDC
DOI: 10.1021/Je400546d
Adsorbate Hydrogen: InChIKey UFHFLCQGNIYNRP-UHFFFAOYSA-N
Temperature: 136 K
Tabular data in the source: 0
pressure (bar)	uptake (wt%)
-0.523215	0.0252404
0.178187	0.0673077
2.45722	0.19351
3.86338	0.344952
8.42019	0.572115
12.7992	0.740385
19.2795	0.975962
26.4532	1.09375
37.6551	1.35457
67.2073	1.48918
94.3085	1.55649
