Adsorption isotherm of Hydrogen on Zn-BDC
DOI: 10.1021/Je400546d
Adsorbate Hydrogen: InChIKey UFHFLCQGNIYNRP-UHFFFAOYSA-N
Temperature: 169 K
Tabular data in the source: 0
pressure (bar)	uptake (wt%)
1.91066	0.0182952
4.8961	0.109571
9.78253	0.17355
17.4271	0.255849
33.7639	0.365768
52.2194	0.475751
69.6085	0.552268
93.776	0.622911
