Adsorption isotherm of Nitrogen on CoZn(DPB) activated
DOI: 10.1007/s10973-015-4721-y
Article source: Figure 9
Adsorbate Nitrogen: InChIKey IJGRMHOSHXDMSA-UHFFFAOYSA-N
Kind: experiment
Temperature: 77 K
Tabular data in the source: 0
pressure (bar)	uptake (mg/g)
0.003543	100.17
0.005314	108.673
0.008857	116.327
0.0124	122.704
0.033657	134.184
0.060228	140.136
0.079714	143.112
0.102743	146.088
0.122227	147.789
0.145256	149.915
0.164741	151.616
0.184227	152.891
0.203713	154.592
0.251541	157.568
0.304683	160.544
0.356055	163.52
0.402111	166.071
0.407426	167.347
0.453482	168.622
0.458797	170.323
0.504854	171.599
0.508396	172.874
0.554453	174.575
0.559768	175.85
0.604053	177.551
0.611139	178.827
0.657195	180.952
0.662509	182.228
0.706795	184.779
0.71388	186.054
0.752852	189.456
0.756394	189.031
0.805995	194.983
0.807766	195.833
0.855594	202.211
0.908736	225.595
0.931764	234.524
0.93885	261.31
0.958336	270.663
