Adsorption isotherm of Nitrogen on Zn(DPB)
DOI: 10.1007/s10973-015-4721-y
Article source: Figure 8
Adsorbate Nitrogen: InChIKey IJGRMHOSHXDMSA-UHFFFAOYSA-N
Kind: experiment
Temperature: 77 K
Tabular data in the source: 0
pressure (bar)	uptake (mg/g)
0.001775	46.5009
0.003549	52.9466
0.007098	57.0902
0.010647	62.1547
0.031941	68.6004
0.062108	72.744
0.081628	74.1252
0.102922	75.9669
0.122442	76.8877
0.141961	77.8085
0.163256	78.7293
0.18455	79.6501
0.205844	81.0313
0.251982	82.4125
0.305217	83.7937
0.338933	89.779
0.354904	85.6354
0.402816	91.6206
0.40459	87.0166
0.454276	88.8582
0.463149	93.9227
0.505737	90.6998
0.511061	97.1455
0.555424	93.0018
0.562522	99.9079
0.598013	101.75
0.606885	94.8435
0.649474	105.433
0.654798	97.6059
0.704483	100.368
0.713356	113.26
0.755945	104.972
0.763043	122.928
0.810955	140.884
0.81273	112.339
0.862416	124.309
0.906779	145.488
