Adsorption isotherm of Nitrogen on Zn(DPB)
DOI: 10.1007/s10973-015-4721-y
Article source: Figure 8
Adsorbate Nitrogen: InChIKey IJGRMHOSHXDMSA-UHFFFAOYSA-N
Kind: experiment
Temperature: 77 K
Tabular data in the source: 0
pressure (bar)	uptake (mg/g)
0.003549	90.6998
0.005324	97.1455
0.010647	109.116
0.031941	118.785
0.063883	125.23
0.081628	127.532
0.101148	129.834
0.124216	132.136
0.141961	133.517
0.163256	135.359
0.18455	136.74
0.20407	138.122
0.251982	141.344
0.305217	144.107
0.354904	146.869
0.356678	148.25
0.40459	149.171
0.406365	150.552
0.454276	151.934
0.457826	153.315
0.505737	154.696
0.509287	156.538
0.555424	157.459
0.558974	159.3
0.605111	160.221
0.610434	162.523
0.656572	163.904
0.661895	165.746
0.708033	167.587
0.711582	169.429
0.748846	172.652
0.759494	172.192
0.802083	178.637
0.80918	178.177
0.855318	185.543
0.910328	203.959
0.915652	210.405
0.933397	217.311
0.940495	232.965
0.954691	262.431
0.963563	255.985
