Adsorption isotherm of Nitrogen on CoZn(DPB) after compression at 0.2 MPa
DOI: 10.1007/s10973-015-4721-y
Article source: Figure 9
Adsorbate Nitrogen: InChIKey IJGRMHOSHXDMSA-UHFFFAOYSA-N
Kind: experiment
Temperature: 77 K
Tabular data in the source: 0
pressure (bar)	uptake (mg/g)
0.001771	71.6837
0.003543	77.6361
0.005314	83.5884
0.010628	89.1156
0.030114	97.1939
0.067314	103.146
0.081485	104.422
0.102743	106.548
0.124	108.248
0.145256	109.524
0.164741	110.799
0.184227	111.65
0.203713	112.925
0.249769	115.051
0.304683	116.752
0.354283	118.878
0.359597	123.554
0.403882	121.003
0.405655	125.255
0.455254	123.129
0.46234	127.806
0.506625	125.255
0.510168	130.782
0.554453	127.806
0.561539	133.759
0.598739	136.31
0.605824	130.357
0.648338	140.136
0.653653	133.333
0.705023	137.16
0.752852	141.837
0.761709	159.694
0.80068	172.874
0.809537	150.34
0.857366	162.245
0.864451	209.864
0.910507	188.605
0.917593	248.554
0.931764	207.738
0.933537	256.633
0.95125	263.435
0.961879	246.854
0.96365	266.837
0.976051	264.286
0.979593	266.837
0.981364	269.813
