Adsorption isotherm of Nitrogen, Methane on Illinois No. 6 Coal
DOI: 10.1021/ef300197a
Article source: Table 6
Adsorbate Nitrogen: InChIKey IJGRMHOSHXDMSA-UHFFFAOYSA-N
Adsorbate Methane: InChIKey VNWKTOKETHGBQD-UHFFFAOYSA-N
Kind: experiment
Isotherm type: excess
Temperature: 319 K
Tabular data in the source: 1
pressure (bar)	Nitrogen fraction	Nitrogen uptake (mmol/g)	Methane fraction	Methane uptake (mmol/g)	total uptake (mmol/g)
7	0.806	0.02	0.194	0.013	
13.8	0.806	0.026	0.194	0.022	
27.5	0.806	0.048	0.194	0.039	
43.2	0.806	0.063	0.194	0.055	
55.8	0.806	0.069	0.194	0.066	
68.9	0.806	0.079	0.194	0.076	
82.6	0.806	0.084	0.194	0.084	
96.6	0.806	0.085	0.194	0.095	
110.1	0.806	0.089	0.194	0.106	
124.5	0.806	0.095	0.194	0.109	
