Adsorption isotherm of Nitrogen, Methane on Illinois No. 6 Coal
DOI: 10.1021/ef300197a
Article source: Table 6
Adsorbate Nitrogen: InChIKey IJGRMHOSHXDMSA-UHFFFAOYSA-N
Adsorbate Methane: InChIKey VNWKTOKETHGBQD-UHFFFAOYSA-N
Kind: experiment
Isotherm type: excess
Temperature: 319 K
Tabular data in the source: 1
pressure (bar)	Nitrogen fraction	Nitrogen uptake (mmol/g)	Methane fraction	Methane uptake (mmol/g)	total uptake (mmol/g)
6.8	0.208	0.007	0.792	0.065	
14	0.208	0.013	0.792	0.117	
27.9	0.208	0.015	0.792	0.176	
42.1	0.208	0.015	0.792	0.214	
55.3	0.208	0.017	0.792	0.249	
68.9	0.208	0.013	0.792	0.273	
82.7	0.208	0.008	0.792	0.299	
96.6	0.208	0.002	0.792	0.314	
110.4	0.208	0.003	0.792	0.327	
124.8	0.208	-0.003	0.792	0.323	
