Adsorption isotherm of Carbon Dioxide, Nitrogen on Illinois No. 6 Coal
DOI: 10.1021/ef300197a
Article source: Table 8
Adsorbate Carbon Dioxide: InChIKey CURLTUGMZLYLDI-UHFFFAOYSA-N
Adsorbate Nitrogen: InChIKey IJGRMHOSHXDMSA-UHFFFAOYSA-N
Kind: experiment
Isotherm type: excess
Temperature: 319 K
Tabular data in the source: 1
pressure (bar)	Carbon Dioxide fraction	Carbon Dioxide uptake (mmol/g)	Nitrogen fraction	Nitrogen uptake (mmol/g)	total uptake (mmol/g)
9.6	0.183	0.056	0.817	0.012	
14.1	0.183	0.076	0.817	0.015	
30.2	0.183	0.144	0.817	0.027	
41.5	0.183	0.179	0.817	0.031	
55.5	0.183	0.221	0.817	0.034	
68.4	0.183	0.22	0.817	0.067	
83.4	0.183	0.254	0.817	0.065	
96.4	0.183	0.275	0.817	0.065	
109.7	0.183	0.28	0.817	0.076	
124.3	0.183	0.29	0.817	0.083	
