Adsorption isotherm of Carbon Dioxide, Methane on Illinois No. 6 Coal
DOI: 10.1021/ef300197a
Article source: Table 7
Adsorbate Carbon Dioxide: InChIKey CURLTUGMZLYLDI-UHFFFAOYSA-N
Adsorbate Methane: InChIKey VNWKTOKETHGBQD-UHFFFAOYSA-N
Kind: experiment
Isotherm type: excess
Temperature: 319 K
Tabular data in the source: 1
pressure (bar)	Carbon Dioxide fraction	Carbon Dioxide uptake (mmol/g)	Methane fraction	Methane uptake (mmol/g)	total uptake (mmol/g)
7.4	0.403	0.017	0.597	0.045	
14	0.403	0.018	0.597	0.067	
27.3	0.403	0.02	0.597	0.077	
42.8	0.403	0.021	0.597	0.092	
56.2	0.403	0.023	0.597	0.097	
69.5	0.403	0.025	0.597	0.106	
82.9	0.403	0.028	0.597	0.111	
96.9	0.403	0.031	0.597	0.111	
110.2	0.403	0.034	0.597	0.114	
124.9	0.403	0.038	0.597	0.127	
