Adsorption isotherm of Carbon Dioxide, Nitrogen on Illinois No. 6 Coal
DOI: 10.1021/ef300197a
Article source: Table 8
Adsorbate Carbon Dioxide: InChIKey CURLTUGMZLYLDI-UHFFFAOYSA-N
Adsorbate Nitrogen: InChIKey IJGRMHOSHXDMSA-UHFFFAOYSA-N
Kind: experiment
Isotherm type: excess
Temperature: 319 K
Tabular data in the source: 1
pressure (bar)	Carbon Dioxide fraction	Carbon Dioxide uptake (mmol/g)	Nitrogen fraction	Nitrogen uptake (mmol/g)	total uptake (mmol/g)
8.3	0.583	0.168	0.417	0.002	
14.8	0.583	0.254	0.417	0.002	
27	0.583	0.371	0.417	0.001	
42.4	0.583	0.48	0.417	-0.007	
55.9	0.583	0.535	0.417	-0.005	
69	0.583	0.585	0.417	-0.012	
83.2	0.583	0.615	0.417	-0.012	
96.3	0.583	0.627	0.417	-0.005	
110.6	0.583	0.612	0.417	0.006	
125.7	0.583	0.645	0.417	-0.004	
