Adsorption isotherm of Nitrogen, Methane on Illinois No. 6 Coal
DOI: 10.1021/ef300197a
Article source: Table 6
Adsorbate Nitrogen: InChIKey IJGRMHOSHXDMSA-UHFFFAOYSA-N
Adsorbate Methane: InChIKey VNWKTOKETHGBQD-UHFFFAOYSA-N
Kind: experiment
Isotherm type: excess
Temperature: 319 K
Tabular data in the source: 1
pressure (bar)	Nitrogen fraction	Nitrogen uptake (mmol/g)	Methane fraction	Methane uptake (mmol/g)	total uptake (mmol/g)
7.1	0.602	0.011	0.398	0.027	
14.2	0.602	0.021	0.398	0.05	
27.9	0.602	0.037	0.398	0.082	
41.7	0.602	0.044	0.398	0.106	
55.4	0.602	0.045	0.398	0.129	
69	0.602	0.046	0.398	0.148	
83	0.602	0.044	0.398	0.165	
96.7	0.602	0.042	0.398	0.177	
110.4	0.602	0.048	0.398	0.185	
125.2	0.602	0.05	0.398	0.2	
