Adsorption isotherm of Carbon Dioxide, Nitrogen on Illinois No. 6 Coal
DOI: 10.1021/ef300197a
Article source: Table 8
Adsorbate Carbon Dioxide: InChIKey CURLTUGMZLYLDI-UHFFFAOYSA-N
Adsorbate Nitrogen: InChIKey IJGRMHOSHXDMSA-UHFFFAOYSA-N
Kind: experiment
Isotherm type: excess
Temperature: 319 K
Tabular data in the source: 1
pressure (bar)	Carbon Dioxide fraction	Carbon Dioxide uptake (mmol/g)	Nitrogen fraction	Nitrogen uptake (mmol/g)	total uptake (mmol/g)
7.3	0.801	0.219	0.199	0.002	
14.1	0.801	0.335	0.199	0.004	
29.1	0.801	0.497	0.199	-0.001	
42.8	0.801	0.592	0.199	-0.004	
55.6	0.801	0.652	0.199	-0.009	
68.7	0.801	0.696	0.199	-0.013	
82.9	0.801	0.707	0.199	-0.007	
95.7	0.801	0.712	0.199	-0.004	
109.5	0.801	0.685	0.199	0.0004	
124	0.801	0.643	0.199	0.001	
