Adsorption isotherm of Methane on Wet Lower Basin Fruitland Coal
DOI: 10.1021/ef300197a
Article source: Table 4
Adsorbate Methane: InChIKey VNWKTOKETHGBQD-UHFFFAOYSA-N
Kind: experiment
Isotherm type: excess
Temperature: 319 K
Tabular data in the source: 1
pressure (bar)	uptake (mmol/g)
15.4	0.125
38	0.197
49.5	0.22
64.1	0.246
77.7	0.262
93.7	0.278
112.5	0.296
126.4	0.3
136.9	0.311
