Adsorption isotherm of Carbon Dioxide on Illinois No. 6 Coal
DOI: 10.1021/ef300197a
Article source: Table 5
Adsorbate Carbon Dioxide: InChIKey CURLTUGMZLYLDI-UHFFFAOYSA-N
Kind: experiment
Isotherm type: excess
Temperature: 319 K
Tabular data in the source: 1
pressure (bar)	uptake (mmol/g)
6.7	0.32
14.6	0.434
27.5	0.63
41.7	0.741
55.4	0.746
68.6	0.802
83	0.761
94.7	0.782
107.4	0.667
125.4	0.673
