Adsorption isotherm of Carbon Dioxide, Methane on Illinois No. 6 Coal
DOI: 10.1021/ef300197a
Article source: Table 7
Adsorbate Carbon Dioxide: InChIKey CURLTUGMZLYLDI-UHFFFAOYSA-N
Adsorbate Methane: InChIKey VNWKTOKETHGBQD-UHFFFAOYSA-N
Kind: experiment
Isotherm type: excess
Temperature: 319 K
Tabular data in the source: 1
pressure (bar)	Carbon Dioxide fraction	Carbon Dioxide uptake (mmol/g)	Methane fraction	Methane uptake (mmol/g)	total uptake (mmol/g)
9.1	0.234	0.072	0.766	0.08	
15.4	0.234	0.112	0.766	0.103	
27.6	0.234	0.175	0.766	0.123	
42.2	0.234	0.192	0.766	0.167	
55.8	0.234	0.237	0.766	0.167	
69.1	0.234	0.237	0.766	0.186	
81.5	0.234	0.243	0.766	0.196	
96.6	0.234	0.282	0.766	0.184	
110.2	0.234	0.254	0.766	0.202	
124.3	0.234	0.243	0.766	0.21	
