Adsorption isotherm of Nitrogen on Wet Lower Basin Fruitland Coal
DOI: 10.1021/ef300197a
Article source: Table 4
Adsorbate Nitrogen: InChIKey IJGRMHOSHXDMSA-UHFFFAOYSA-N
Kind: experiment
Isotherm type: excess
Temperature: 319 K
Tabular data in the source: 1
pressure (bar)	uptake (mmol/g)
14.5	0.035
29.9	0.061
42.8	0.07
57	0.082
70.6	0.095
85.2	0.108
98.1	0.118
112.5	0.128
125.5	0.139
