Adsorption isotherm of Carbon Dioxide, Methane on Illinois No. 6 Coal
DOI: 10.1021/ef300197a
Article source: Table 7
Adsorbate Carbon Dioxide: InChIKey CURLTUGMZLYLDI-UHFFFAOYSA-N
Adsorbate Methane: InChIKey VNWKTOKETHGBQD-UHFFFAOYSA-N
Kind: experiment
Isotherm type: excess
Temperature: 319 K
Tabular data in the source: 1
pressure (bar)	Carbon Dioxide fraction	Carbon Dioxide uptake (mmol/g)	Methane fraction	Methane uptake (mmol/g)	total uptake (mmol/g)
7.1	0.602	0.033	0.398	0.5793	
14.5	0.602	0.049	0.398	0.5423	
28.1	0.602	0.06	0.398	0.5132	
42.3	0.602	0.051	0.398	0.5003	
56.8	0.602	0.058	0.398	0.4796	
69.7	0.602	0.065	0.398	0.4651	
83.5	0.602	0.077	0.398	0.4536	
98.6	0.602	0.078	0.398	0.4452	
110.8	0.602	0.063	0.398	0.4405	
127	0.602	0.057	0.398	0.4356	
