Adsorption isotherm of Carbon Dioxide, Methane on Illinois No. 6 Coal
DOI: 10.1021/ef300197a
Article source: Table 7
Adsorbate Carbon Dioxide: InChIKey CURLTUGMZLYLDI-UHFFFAOYSA-N
Adsorbate Methane: InChIKey VNWKTOKETHGBQD-UHFFFAOYSA-N
Kind: experiment
Isotherm type: excess
Temperature: 319 K
Tabular data in the source: 1
pressure (bar)	Carbon Dioxide fraction	Carbon Dioxide uptake (mmol/g)	Methane fraction	Methane uptake (mmol/g)	total uptake (mmol/g)
7.2	0.767	0.011	0.233	0.02	
14	0.767	0.012	0.233	0.031	
29	0.767	0.014	0.233	0.027	
42	0.767	0.015	0.233	0.035	
55.4	0.767	0.017	0.233	0.028	
69.4	0.767	0.019	0.233	0.027	
83.5	0.767	0.021	0.233	0.025	
97.4	0.767	0.023	0.233	0.03	
110.9	0.767	0.028	0.233	0.02	
125.1	0.767	0.032	0.233	0.018	
