Adsorption isotherm of Methane on Illinois No. 6 Coal
DOI: 10.1021/ef300197a
Article source: Table 5
Adsorbate Methane: InChIKey VNWKTOKETHGBQD-UHFFFAOYSA-N
Kind: experiment
Isotherm type: excess
Temperature: 319 K
Tabular data in the source: 1
pressure (bar)	uptake (mmol/g)
6.9	0.086
14.1	0.146
27.3	0.221
41.7	0.278
55.3	0.317
69.1	0.343
83.1	0.359
94.6	0.379
110.4	0.396
124.7	0.413
