Adsorption isotherm of Carbon Dioxide, Nitrogen on Illinois No. 6 Coal
DOI: 10.1021/ef300197a
Article source: Table 8
Adsorbate Carbon Dioxide: InChIKey CURLTUGMZLYLDI-UHFFFAOYSA-N
Adsorbate Nitrogen: InChIKey IJGRMHOSHXDMSA-UHFFFAOYSA-N
Kind: experiment
Isotherm type: excess
Temperature: 319 K
Tabular data in the source: 1
pressure (bar)	Carbon Dioxide fraction	Carbon Dioxide uptake (mmol/g)	Nitrogen fraction	Nitrogen uptake (mmol/g)	total uptake (mmol/g)
8.3	0.4	0.106	0.6	0.007	0
14.2	0.4	0.158	0.6	0.012	0
27.4	0.4	0.258	0.6	0.017	0
41.2	0.4	0.337	0.6	0.013	0
56.3	0.4	0.389	0.6	0.016	0
68.8	0.4	0.433	0.6	0.017	0
82.9	0.4	0.447	0.6	0.03	0
95.9	0.4	0.465	0.6	0.029	0
110.2	0.4	0.474	0.6	0.041	0
124	0.4	0.493	0.6	0.035	0
