Adsorption isotherm of Carbon Dioxide on Wet Lower Basin Fruitland Coal
DOI: 10.1021/ef300197a
Article source: Table 4
Adsorbate Carbon Dioxide: InChIKey CURLTUGMZLYLDI-UHFFFAOYSA-N
Kind: experiment
Isotherm type: excess
Temperature: 319 K
Tabular data in the source: 1
pressure (bar)	uptake (mmol/g)
7	0.188
14.6	0.29
28.2	0.381
42.1	0.41
55.4	0.408
69.9	0.414
82.9	0.409
95.8	0.362
108.3	0.296
122.8	0.224
