Adsorption isotherm of Nitrogen on Illinois No. 6 Coal
DOI: 10.1021/ef300197a
Article source: Table 5
Adsorbate Nitrogen: InChIKey IJGRMHOSHXDMSA-UHFFFAOYSA-N
Kind: experiment
Isotherm type: excess
Temperature: 319 K
Tabular data in the source: 1
pressure (bar)	uptake (mmol/g)
7.9	0.021
14	0.035
27.7	0.067
41.6	0.091
55.9	0.111
69.2	0.127
83	0.139
96.9	0.152
110.4	0.163
124.2	0.175
