Adsorption isotherm of Nitrogen, Methane on Illinois No. 6 Coal
DOI: 10.1021/ef300197a
Article source: Table 6
Adsorbate Nitrogen: InChIKey IJGRMHOSHXDMSA-UHFFFAOYSA-N
Adsorbate Methane: InChIKey VNWKTOKETHGBQD-UHFFFAOYSA-N
Kind: experiment
Isotherm type: excess
Temperature: 319 K
Tabular data in the source: 1
pressure (bar)	Nitrogen fraction	Nitrogen uptake (mmol/g)	Methane fraction	Methane uptake (mmol/g)	total uptake (mmol/g)
7	0.401	0.014	0.599	0.047	
14	0.401	0.017	0.599	0.083	
28.1	0.401	0.027	0.599	0.131	
41.5	0.401	0.029	0.599	0.163	
56.4	0.401	0.025	0.599	0.196	
69.3	0.401	0.024	0.599	0.217	
83	0.401	0.021	0.599	0.24	
96.6	0.401	0.013	0.599	0.255	
111	0.401	0.011	0.599	0.269	
125.3	0.401	0.009	0.599	0.282	
