Adsorption isotherm of Nitrogen on C34H40CdFeN4O10S2
DOI: 10.1021/Cg070468e
Adsorbate Nitrogen: InChIKey IJGRMHOSHXDMSA-UHFFFAOYSA-N
Temperature: 77 K
Tabular data in the source: 0
pressure (bar)	uptake (cm3(STP)/g)
0.04488	0.142961
0.06864	0.412129
0.09504	0.717196
0.12936	0.878326
0.1584	1.00361
0.19272	1.12879
0.24024	1.34359
0.2904	1.54038
0.34056	1.66527
0.39072	1.84408
0.43824	2.00496
0.48576	2.2018
0.53592	2.38061
0.58608	2.55942
0.63624	2.81012
0.68112	3.04295
0.73392	3.31159
0.7788	3.59834
0.81312	3.81339
0.8448	4.04646
0.87648	4.26156
0.90024	4.47681
0.924	4.67408
0.9504	4.85333
0.96624	5.05075
