Adsorption isotherm of Nitrogen on C38H56CdFeN4O14S2
DOI: 10.1021/Cg070468e
Adsorbate Nitrogen: InChIKey IJGRMHOSHXDMSA-UHFFFAOYSA-N
Temperature: 77 K
Tabular data in the source: 0
pressure (bar)	uptake (cm3(STP)/g)
0.0519529	0.149663
0.101308	0.283048
0.116894	0.292768
0.142871	0.299195
0.166249	0.308889
0.200019	0.318548
0.223398	0.338013
0.249374	0.360727
0.296132	0.389887
0.345487	0.422294
0.392245	0.461226
0.444198	0.493625
0.490955	0.526041
0.527322	0.548721
0.563689	0.577915
0.589666	0.594114
0.623435	0.623317
0.657205	0.646005
0.685779	0.66871
0.698767	0.678439
0.716951	0.697922
0.737732	0.720654
0.755915	0.740137
0.776696	0.766126
0.781892	0.769365
0.79488	0.775837
0.813064	0.79532
0.833845	0.814794
0.857224	0.834259
0.870212	0.850503
0.875407	0.850485
0.885798	0.866737
0.903981	0.889477
0.919567	0.912226
0.922165	0.912218
0.950739	0.925151
0.966325	0.931614
