Adsorption isotherm of Carbon Dioxide on MOF-14
DOI: 10.1016/j.jcis.2012.10.018
Adsorbate Carbon Dioxide: InChIKey CURLTUGMZLYLDI-UHFFFAOYSA-N
Temperature: 298 K
Tabular data in the source: 0
pressure (bar)	uptake (mmol/g)
0.0152	0.0451924
0.0843546	0.462094
0.281538	0.991671
0.605481	1.72407
1.01393	2.44519
1.57731	3.20012
2.47872	4.09026
3.46464	4.9128
4.99985	6.01702
7.01393	7.04238
8.98576	7.88745
