Adsorption isotherm of Nitrogen on MOF-14
DOI: 10.1016/j.jcis.2012.10.018
Article source: Figure 4
Adsorbate Nitrogen: InChIKey IJGRMHOSHXDMSA-UHFFFAOYSA-N
Kind: experiment
Temperature: 298 K
Tabular data in the source: 0
pressure (bar)	uptake (mmol/g)
0.0735	0.1139
0.1836	0.1277
0.3853	0.1983
0.6053	0.169
0.7887	0.2254
1.027	0.2388
2.0357	0.4635
4.0527	0.7701
5.9964	1.0342
8.05	1.2694
10.0303	1.5049
12.0105	1.7546
13.9358	1.9617
16.0626	2.1396
17.9878	2.3182
19.0512	2.4285
