Adsorption isotherm of Methane on MOF-14
DOI: 10.1016/j.jcis.2012.10.018
Adsorbate Methane: InChIKey VNWKTOKETHGBQD-UHFFFAOYSA-N
Temperature: 298 K
Tabular data in the source: 0
pressure (bar)	uptake (mmol/g)
0.0843546	0.0451924
0.267453	0.214206
0.520974	0.33815
0.774495	0.439559
1.50689	0.664911
2.46464	0.845192
3.46464	0.946601
4.54914	1.01421
5.47872	1.10435
6.49281	1.12688
7.94351	1.19449
