Adsorption isotherm of Methane on MOF-14
DOI: 10.1016/j.jcis.2012.10.018
Article source: Figure 8
Adsorbate Methane: InChIKey VNWKTOKETHGBQD-UHFFFAOYSA-N
Kind: experiment
Temperature: 298 K
Tabular data in the source: 0
pressure (bar)	uptake (mmol/g)
0.019	0.0219
0.2187	0.2517
0.599	0.6566
1.0177	0.985
1.5984	1.3133
2.9982	1.948
4.9986	2.5937
6.9898	3.0643
8.9813	3.4583
