Adsorption isotherm of Carbon Dioxide on MOF-14
DOI: 10.1016/j.jcis.2012.10.018
Adsorbate Carbon Dioxide: InChIKey CURLTUGMZLYLDI-UHFFFAOYSA-N
Temperature: 298 K
Tabular data in the source: 0
pressure (bar)	uptake (mmol/g)
0.0843546	0.383221
0.295622	0.912798
0.605481	1.63392
0.774495	1.83674
1.52097	2.72688
2.53506	3.66209
3.46464	4.32688
4.49281	4.92407
5.50689	5.44238
6.47872	5.89308
7.98576	6.52407
