Adsorption isotherm of Carbon Dioxide on MOF-14
DOI: 10.1016/j.jcis.2012.10.018
Article source: Figure 7
Adsorbate Carbon Dioxide: InChIKey CURLTUGMZLYLDI-UHFFFAOYSA-N
Kind: experiment
Temperature: 298 K
Tabular data in the source: 0
pressure (bar)	uptake (mmol/g)
0.2191	0.779
0.4851	1.5313
0.8456	2.0848
1.5901	3.2048
2.9659	4.5727
4.9739	5.9373
6.995	7.0109
8.9935	7.8731
