Adsorption isotherm of Nitrogen on MOF-14
DOI: 10.1016/j.jcis.2012.10.018
Adsorbate Nitrogen: InChIKey IJGRMHOSHXDMSA-UHFFFAOYSA-N
Temperature: 298 K
Tabular data in the source: 0
pressure (bar)	uptake (mmol/g)
0.126608	0.0451924
0.478721	0.0789952
0.816749	0.112798
1.46464	0.146601
2.49281	0.202939
3.47872	0.270544
4.47872	0.304347
5.49281	0.349418
6.50689	0.371953
8.0421	0.371953
