Adsorption isotherm of Carbon Dioxide on MOF-14
DOI: 10.1016/j.jcis.2012.10.018
Adsorbate Carbon Dioxide: InChIKey CURLTUGMZLYLDI-UHFFFAOYSA-N
Temperature: 298 K
Tabular data in the source: 0
pressure (bar)	uptake (mmol/g)
0.0152	0.0451924
0.197031	0.732516
0.563228	1.63392
1.0421	2.36632
1.5914	3.15505
2.98576	4.48463
4.98576	5.97195
6.97168	7.00857
8.94351	7.83111
