Adsorption isotherm of Methane on MOF-14
DOI: 10.1016/j.jcis.2012.10.018
Adsorbate Methane: InChIKey VNWKTOKETHGBQD-UHFFFAOYSA-N
Temperature: 298 K
Tabular data in the source: 0
pressure (bar)	uptake (mmol/g)
0.274718	0.0947643
0.617952	0.55241
1.01839	0.924247
1.93368	1.4677
3.0778	1.96825
4.99419	2.61182
8.91278	3.427
11.0008	3.72733
12.9744	3.98475
17.0074	4.51391
19.8963	4.77133
