Adsorption isotherm of Carbon Dioxide on MOF-14
DOI: 10.1016/j.jcis.2012.10.018
Adsorbate Carbon Dioxide: InChIKey CURLTUGMZLYLDI-UHFFFAOYSA-N
Temperature: 298 K
Tabular data in the source: 0
pressure (bar)	uptake (mmol/g)
1.02802	2.43392
1.47872	3.04238
2.49281	4.05646
3.47872	4.879
4.52097	5.53252
5.49281	6.0959
6.52097	6.63674
7.97168	7.21139
