Adsorption isotherm of Nitrogen on MOF-14
DOI: 10.1016/j.jcis.2012.10.018
Adsorbate Nitrogen: InChIKey IJGRMHOSHXDMSA-UHFFFAOYSA-N
Temperature: 298 K
Tabular data in the source: 0
pressure (bar)	uptake (mmol/g)
0.131704	0.05186
1.01839	0.209176
1.96229	0.35219
4.02169	0.709726
5.93808	0.981453
8.02609	1.26748
9.97109	1.51061
11.9447	1.73943
13.9469	1.89674
15.9205	2.12557
17.9227	2.32579
18.981	2.38299
