Adsorption isotherm of Carbon Dioxide on MOF-14
DOI: 10.1016/j.jcis.2012.10.018
Article source: Fig. 8
Adsorbate Carbon Dioxide: InChIKey CURLTUGMZLYLDI-UHFFFAOYSA-N
Kind: experiment
Temperature: 298 K
Tabular data in the source: 0
pressure (bar)	uptake (mmol/g)
0.019	0
0.0848	0
0.2837	0
0.5966	0
1.0048	0
1.5939	0
2.9824	0
4.9905	0
6.9803	0
8.9993	0
