Adsorption isotherm of Methane on MOF-14
DOI: 10.1016/j.jcis.2012.10.018
Article source: Figure 4
Adsorbate Methane: InChIKey VNWKTOKETHGBQD-UHFFFAOYSA-N
Kind: experiment
Temperature: 298 K
Tabular data in the source: 0
pressure (bar)	uptake (mmol/g)
0.5328	0.6543
0.8081	0.796
1.0651	1.0233
1.5606	1.2926
2.0377	1.5762
3.0468	2.0148
5.0277	2.6212
8.8972	3.449
11.0427	3.7695
13.0046	4.0192
17.0201	4.4757
20.027	4.736
