Adsorption isotherm of Nitrogen on MOF-14
DOI: 10.1016/j.jcis.2012.10.018
Adsorbate Nitrogen: InChIKey IJGRMHOSHXDMSA-UHFFFAOYSA-N
Temperature: 298 K
Tabular data in the source: 0
pressure (bar)	uptake (mmol/g)
0.0561856	0.0451924
0.591397	0.135333
1.01393	0.202939
1.5914	0.315615
2.99985	0.552235
5.01393	0.833925
6.99985	1.11561
8.97168	1.3635
