Adsorption isotherm of Nitrogen on MOF-14
DOI: 10.1016/j.jcis.2012.10.018
Article source: Figure 7
Adsorbate Nitrogen: InChIKey IJGRMHOSHXDMSA-UHFFFAOYSA-N
Kind: experiment
Temperature: 298 K
Tabular data in the source: 0
pressure (bar)	uptake (mmol/g)
0.1634	0.1181
0.3039	0.1306
0.6432	0.1817
1.0177	0.2459
1.6027	0.3485
3.0069	0.5527
5.0315	0.8329
7.0209	1.1133
8.9988	1.3408
