Adsorption isotherm of Methane on MOF-14
DOI: 10.1016/j.jcis.2012.10.018
Adsorbate Methane: InChIKey VNWKTOKETHGBQD-UHFFFAOYSA-N
Temperature: 298 K
Tabular data in the source: 0
pressure (bar)	uptake (mmol/g)
0.0280166	0.000122
0.197031	0.202939
0.619566	0.61984
1.02802	0.912798
1.60548	1.25083
3.02802	1.91561
4.98576	2.53533
6.97168	3.01984
8.97168	3.43674
