Adsorption isotherm of Carbon Dioxide on MOF-14
DOI: 10.1016/j.jcis.2012.10.018
Adsorbate Carbon Dioxide: InChIKey CURLTUGMZLYLDI-UHFFFAOYSA-N
Temperature: 298 K
Tabular data in the source: 0
pressure (bar)	uptake (mmol/g)
0.0744979	0.109066
0.274718	0.838439
0.474938	1.39619
0.617952	1.82524
0.989789	2.4688
2.24832	3.72733
3.44964	4.72843
4.56515	5.55791
5.76647	6.34449
8.1405	7.58871
10.6004	8.58981
12.9172	9.37639
15.3198	9.94845
17.7797	10.4061
18.9238	10.592
19.8963	10.7064
