Adsorption isotherm of Carbon Dioxide on MOF-14
DOI: 10.1016/j.jcis.2012.10.018
Article source: Figure 4
Adsorbate Carbon Dioxide: InChIKey CURLTUGMZLYLDI-UHFFFAOYSA-N
Kind: experiment
Temperature: 298 K
Tabular data in the source: 0
pressure (bar)	uptake (mmol/g)
0.2401	0.9549
0.4426	1.4392
0.6634	1.9092
0.8657	2.2366
1.0312	2.507
2.2251	3.7866
3.4551	4.7808
4.6116	5.6184
5.8412	6.3843
7.034	7.0505
8.2083	7.6455
9.3642	8.1834
10.6299	8.6354
11.7855	9.0165
12.9961	9.3973
14.1883	9.6926
15.3986	9.9451
16.6273	10.1832
17.8008	10.3502
19.0111	10.5313
20.0379	10.6703
