Adsorption isotherm of Nitrogen on Activated PVDC Carbon S850
DOI: 10.1006/jcis.1995.1018
Adsorbate Nitrogen: InChIKey IJGRMHOSHXDMSA-UHFFFAOYSA-N
Temperature: 77 K
Tabular data in the source: 0
pressure (bar)	uptake (mmol/g)
0.00550065	10.0426
0.0425152	10.6228
0.0958089	10.8683
0.135205	11.0164
0.260383	11.221
0.371663	11.3281
0.489885	11.5319
0.68463	11.6953
0.781984	11.8972
0.877027	12.0507
0.935	12.0084
