Adsorption isotherm of Nitrogen on Heat-Treated PVDC Carbon S850-1673K
DOI: 10.1006/jcis.1995.1018
Adsorbate Nitrogen: InChIKey IJGRMHOSHXDMSA-UHFFFAOYSA-N
Temperature: 77 K
Tabular data in the source: 0
pressure (bar)	uptake (mmol/g)
0.00847379	5.52636
0.0246137	6.15258
0.0569701	6.87651
0.117199	7.26685
0.233095	7.51855
0.668928	8.04214
0.970281	8.55243
