Adsorption isotherm of Nitrogen on Activated PVDC Carbon S850-65% Burnoff
DOI: 10.1006/jcis.1995.1018
Adsorbate Nitrogen: InChIKey IJGRMHOSHXDMSA-UHFFFAOYSA-N
Temperature: 77 K
Tabular data in the source: 0
pressure (bar)	uptake (mmol/g)
0.00751292	12.1569
0.0467695	13.2659
0.0953632	13.9434
0.132413	14.2834
0.257556	14.7282
0.368829	14.8833
0.49634	14.992
0.688759	15.2033
0.786134	15.2609
0.878851	15.4623
0.943766	15.5168
