Adsorption isotherm of Water on Activated PVDC Carbon S850-65% Burnoff
DOI: 10.1006/jcis.1995.1018
Adsorbate Water: InChIKey XLYOFNOQVPJJNP-UHFFFAOYSA-N
Temperature: 293 K
Tabular data in the source: 0
pressure (bar)	uptake (mmol/g)
0.00170583	1.02041
0.00324726	1.41723
0.00436536	1.92744
0.00558712	2.1542
0.00702248	2.55102
0.00835513	3.34467
0.00985699	5.3288
0.0110937	7.31293
0.0122233	9.18367
0.0130429	12.0181
0.0146127	15.7596
0.0154791	17.8571
0.0160205	19.161
0.0171005	21.4286
0.017737	21.4286
0.0188088	22.7324
0.0193941	22.9592
0.0208246	22.7891
0.0218878	23.0726
0.0225237	23.0159
