Adsorption isotherm of Nitrogen on Heat-Treated PVDC Carbon S850-1473K
DOI: 10.1006/jcis.1995.1018
Adsorbate Nitrogen: InChIKey IJGRMHOSHXDMSA-UHFFFAOYSA-N
Temperature: 77 K
Tabular data in the source: 0
pressure (bar)	uptake (mmol/g)
0.0104025	8.21725
0.0311727	8.89197
0.0565662	9.66325
0.126097	9.86232
0.230422	9.96874
0.668511	10.925
0.974563	11.0033
