Adsorption isotherm of Water on Activated PVDC Carbon S850
DOI: 10.1006/jcis.1995.1018
Adsorbate Water: InChIKey XLYOFNOQVPJJNP-UHFFFAOYSA-N
Temperature: 293 K
Tabular data in the source: 0
pressure (bar)	uptake (mmol/g)
0.0032926	0.510204
0.00446566	1.24717
0.00845639	2.77778
0.0112475	6.68934
0.0123212	8.21995
0.0132363	9.80726
0.015648	12.7551
0.0161846	13.4921
0.0189497	14.3424
0.0196401	14.4558
0.0208084	14.6259
0.0217621	14.5125
0.0225591	14.6825
