Adsorption isotherm of Nitrogen on Activated PVDC Carbon S850-30% Burnoff
DOI: 10.1006/jcis.1995.1018
Adsorbate Nitrogen: InChIKey IJGRMHOSHXDMSA-UHFFFAOYSA-N
Temperature: 77 K
Tabular data in the source: 0
pressure (bar)	uptake (mmol/g)
0.00529177	11.484
0.0445483	12.593
0.0885257	13.1259
0.134864	13.3707
0.260042	13.5753
0.369003	13.6821
0.491884	13.7423
0.688953	13.8579
0.781678	14.0113
0.876735	14.0687
0.937012	14.1227
