Adsorption isotherm of Water on Heat-Treated PVDC Carbon S850-1673K
DOI: 10.1006/jcis.1995.1018
Adsorbate Water: InChIKey XLYOFNOQVPJJNP-UHFFFAOYSA-N
Temperature: 293 K
Tabular data in the source: 0
pressure (bar)	uptake (mmol/g)
0.0107693	0.340136
0.01194	0.793651
0.0141781	2.04082
0.0158844	3.11791
0.0171664	4.19501
0.0188751	5.55556
0.0219194	8.04989
0.0228239	8.39002
