Adsorption isotherm of Nitrogen on Heat-Treated PVDC Carbon S850-1273K
DOI: 10.1006/jcis.1995.1018
Adsorbate Nitrogen: InChIKey IJGRMHOSHXDMSA-UHFFFAOYSA-N
Temperature: 77 K
Tabular data in the source: 0
pressure (bar)	uptake (mmol/g)
0.0126654	8.60185
0.0241681	9.22762
0.0542824	9.42279
0.12373	10.1984
0.228054	10.3048
0.666136	11.3091
0.974417	12.0123
