Adsorption isotherm of Nitrogen on Carbon
DOI: 10.1007/s10973-005-0832-1
Adsorbate Nitrogen: InChIKey IJGRMHOSHXDMSA-UHFFFAOYSA-N
Temperature: 378 K
Tabular data in the source: 0
pressure (bar)	uptake (ml/g)
0.00229475	375.318
0.0123058	442.535
0.0480593	515.472
0.0995445	566.957
0.171052	602.711
0.25114	627.023
0.404165	652.766
0.528587	672.788
0.688763	701.391
0.804605	721.413
0.898994	742.865
0.994814	758.596
