Adsorption isotherm of Nitrogen on Carbon
DOI: 10.1007/s10973-005-0832-1
Adsorbate Nitrogen: InChIKey IJGRMHOSHXDMSA-UHFFFAOYSA-N
Temperature: 378 K
Tabular data in the source: 0
pressure (bar)	uptake (ml/g)
0.00515504	455.406
0.015166	511.182
0.0280373	562.667
0.0523498	611.292
0.0895335	659.916
0.129577	694.24
0.191074	728.563
0.25257	752.876
0.362691	774.328
0.481393	795.78
0.611536	820.092
0.75598	844.405
0.8518	858.706
0.989093	881.589
