Adsorption isotherm of Nitrogen on Carbon
DOI: 10.1007/s10973-005-0832-1
Adsorbate Nitrogen: InChIKey IJGRMHOSHXDMSA-UHFFFAOYSA-N
Temperature: 378 K
Tabular data in the source: 0
pressure (bar)	uptake (ml/g)
0.000566	581.259
0.00372489	651.336
0.00801532	725.703
0.0237469	817.232
0.0509196	914.482
0.0895335	1008.87
0.129577	1076.09
0.186783	1133.29
0.274022	1180.49
0.394154	1219.1
0.512856	1252
0.628697	1280.6
0.740249	1310.63
0.848939	1334.94
0.939038	1362.12
0.993384	1386.43
