Adsorption isotherm of Water on Carbon
DOI: 10.1007/s10973-005-0832-1
Adsorbate Water: InChIKey XLYOFNOQVPJJNP-UHFFFAOYSA-N
Temperature: 423 K
Tabular data in the source: 0
pressure (bar)	uptake (ml/g)
0.0689988	2.1203
0.205619	2.82452
0.350689	5.64143
0.466182	13.3879
0.55914	30.9935
0.598576	52.8245
0.635196	100.712
0.670407	211.979
0.705619	350.008
0.742238	407.754
0.798576	440.853
0.919703	485.219
0.992943	501.416
