Adsorption isotherm of Water on Carbon
DOI: 10.1007/s10973-005-0832-1
Adsorbate Water: InChIKey XLYOFNOQVPJJNP-UHFFFAOYSA-N
Temperature: 378 K
Tabular data in the source: 0
pressure (bar)	uptake (ml/g)
0.00421011	2.82452
0.418295	7.7541
0.519703	16.909
0.5859	35.2189
0.616886	56.3456
0.645055	98.5992
0.670407	166.909
0.690126	233.106
0.711252	298.599
0.738013	354.233
0.756323	395.782
0.792943	430.994
0.887309	473.247
0.988717	502.825
