Adsorption isotherm of Water on Carbon
DOI: 10.1007/s10973-005-0832-1
Adsorbate Water: InChIKey XLYOFNOQVPJJNP-UHFFFAOYSA-N
Temperature: 378 K
Tabular data in the source: 0
pressure (bar)	uptake (ml/g)
0.0337579	0.62054
0.135298	2.05068
0.231118	7.77126
0.324077	22.0727
0.374132	26.3631
0.469952	47.8153
0.562911	83.5688
0.631558	160.797
0.665881	223.723
0.707355	326.693
0.75169	402.491
0.806035	448.255
0.85609	469.707
0.940469	488.299
0.999104	495.45
