Adsorption isotherm of Water on Aluminum-pillared Montmorillonite
DOI: 10.1007/s10973-005-0832-1
Adsorbate Water: InChIKey XLYOFNOQVPJJNP-UHFFFAOYSA-N
Temperature: 423 K
Tabular data in the source: 0
pressure (bar)	uptake (mg/g)
0.0042162	7.60746
0.025343	13.1849
0.0405542	18.2554
0.0709768	22.4807
0.134357	28.9032
0.177456	32.7906
0.218864	36.3399
0.273794	40.0582
0.320273	43.6075
0.381118	48.1708
0.435202	53.0723
0.489287	56.4525
0.53492	60.3399
0.583934	65.0723
0.622808	69.1286
0.669287	74.368
0.699709	77.7483
