Adsorption isotherm of Water on Aluminum-pillared Montmorillonite
DOI: 10.1007/s10973-005-0832-1
Adsorbate Water: InChIKey XLYOFNOQVPJJNP-UHFFFAOYSA-N
Temperature: 473 K
Tabular data in the source: 0
pressure (bar)	uptake (mg/g)
0.00506127	5.24127
0.0312585	10.1427
0.0752021	14.8751
0.107315	19.6075
0.144498	25.1849
0.187596	30.9314
0.215484	35.4948
0.296611	42.4244
0.34478	47.4948
0.40647	53.0723
0.459709	59.1568
0.508723	64.9032
0.556047	69.4666
0.599146	75.0441
0.638864	80.2835
0.693794	87.0441
