Adsorption isotherm of Water on Carbon
DOI: 10.1007/s10973-005-0832-1
Adsorbate Water: InChIKey XLYOFNOQVPJJNP-UHFFFAOYSA-N
Temperature: 378 K
Tabular data in the source: 0
pressure (bar)	uptake (ml/g)
0.45851	0.809603
0.540029	3.48083
0.600095	20.6425
0.647289	67.8373
0.693054	149.355
0.728807	250.896
0.774572	310.962
0.844649	339.564
0.916156	348.145
0.994814	353.866
