Adsorption isotherm of Water on Aluminum-pillared Montmorillonite
DOI: 10.1007/s10973-005-0832-1
Adsorbate Water: InChIKey XLYOFNOQVPJJNP-UHFFFAOYSA-N
Temperature: 378 K
Tabular data in the source: 0
pressure (bar)	uptake (mg/g)
0.0042162	2.19901
0.0211176	10.1427
0.0422444	18.4244
0.086188	26.03
0.132667	35.1568
0.187596	44.9596
0.257737	56.4525
0.321118	68.2835
0.387033	81.6356
0.412385	87.0441
0.463089	91.2694
0.506188	95.8328
0.549287	98.7061
0.607597	105.298
0.698864	115.269
