Adsorption isotherm of Water on Carbon
DOI: 10.1007/s10973-005-0832-1
Adsorbate Water: InChIKey XLYOFNOQVPJJNP-UHFFFAOYSA-N
Temperature: 378 K
Tabular data in the source: 0
pressure (bar)	uptake (ml/g)
0.285463	0.809603
0.35268	2.05068
0.422757	14.922
0.491404	44.955
0.545749	79.2784
0.602955	123.613
0.65444	149.355
0.720227	157.936
0.814616	165.087
0.898994	169.377
0.991954	170.808
