Adsorption isotherm of Hydrogen on MFU-4
DOI: 10.1039/B904280f
Adsorbate Hydrogen: InChIKey UFHFLCQGNIYNRP-UHFFFAOYSA-N
Temperature: 77 K
Tabular data in the source: 0
pressure (bar)	uptake (wt%)
0.00837971	0.231471
0.0193041	0.384849
0.0477074	0.68374
0.100144	0.974765
0.141657	1.10061
0.200649	1.2068
0.34922	1.38771
0.567707	1.49782
0.766531	1.56468
1.00031	1.60008
