Adsorption isotherm of Water on MFU-4
DOI: 10.1039/B904280f
Adsorbate Water: InChIKey XLYOFNOQVPJJNP-UHFFFAOYSA-N
Temperature: 298 K
Tabular data in the source: 0
pressure (bar)	uptake (cm3(STP)/g)
0.0433377	11.6108
0.0979595	22.0982
0.146027	109.93
0.248716	315.745
0.301153	407.51
0.351405	459.947
0.504346	488.787
0.757791	513.695
0.95443	524.182
0.978464	559.577
