Adsorption isotherm of Carbon Dioxide on Y4P12O36N12C42H84
DOI: 10.1039/C0dt00233j
Adsorbate Carbon Dioxide: InChIKey CURLTUGMZLYLDI-UHFFFAOYSA-N
Temperature: 196 K
Tabular data in the source: 0
pressure (bar)	uptake (mmol/g)
0	0.136752
0.00371814	1.07123
0.00743628	1.61823
0.0130135	1.98291
0.0167316	2.13105
0.0204498	2.30199
0.026027	2.48433
0.0334633	2.62108
0.0408995	2.73504
0.053913	2.83761
0.0687856	2.92877
0.0855172	3.04274
0.109685	3.11111
0.131994	3.20228
0.152444	3.27066
0.172893	3.33903
0.182189	3.39601
0.19892	3.46439
0.224947	3.52137
0.254693	3.57835
0.277001	3.58974
0.303028	3.61254
0.327196	3.64672
0.3588	3.66952
0.390405	3.69231
0.431304	3.7265
0.462908	3.73789
0.50009	3.78348
0.542848	3.78348
0.576312	3.80627
0.607916	3.82906
0.637661	3.84046
0.672983	3.86325
0.702728	3.89744
0.730614	3.89744
