Adsorption isotherm of Nitrogen on Y4P12O36N12C42H84
DOI: 10.1039/C0dt00233j
Adsorbate Nitrogen: InChIKey IJGRMHOSHXDMSA-UHFFFAOYSA-N
Temperature: 77 K
Tabular data in the source: 0
pressure (bar)	uptake (mmol/g)
0.00222826	0.00222826
0.00445651	2.22636
0.00668477	2.68768
0.00891303	2.81805
0.0155978	2.88825
0.0245108	2.94842
0.0490217	3.01862
0.069076	3.05874
0.0891303	3.06877
0.127011	3.09885
0.160434	3.11891
0.198315	3.149
0.238423	3.16905
0.262934	3.17908
0.300815	3.20917
0.354293	3.2192
0.39663	3.24928
0.452336	3.26934
0.483532	3.27937
0.52364	3.29943
0.563749	3.30946
0.603858	3.32951
0.63951	3.34957
0.670705	3.3596
0.706357	3.36963
0.733097	3.37966
0.764292	3.39971
0.799944	3.40974
0.840053	3.43983
