Adsorption isotherm of Acetonitrile on [NiII(dpzca)2Ag]BF4*0.5(C3H6O)
DOI: 10.1021/Ic501876m
Adsorbate Acetonitrile: InChIKey WEVYAHXRMPXWCK-UHFFFAOYSA-N
Temperature: 298 K
Tabular data in the source: 0
pressure (bar)	uptake (mol/mol)
-0.00024875	0.0360231
0.00074625	0.273775
0.00223875	0.317003
0.00373125	0.338617
0.01194	0.37464
0.0199001	0.389049
0.02985	0.410663
0.0398	0.432277
0.054725	0.45389
0.084575	0.4683
0.0987538	0.461095
