Adsorption isotherm of Nitrogen on [NiII(dpzca)2Ag]BF4*0.5(C3H6O)
DOI: 10.1021/Ic501876m
Adsorbate Nitrogen: InChIKey IJGRMHOSHXDMSA-UHFFFAOYSA-N
Temperature: 298 K
Tabular data in the source: 0
pressure (bar)	uptake (mmol/g)
0.105541	0.00731732
0.633245	0.0220289
0.976253	0.029404
1.97889	0.0539532
2.98153	0.0785025
3.98417	0.103052
4.96042	0.122733
5.96306	0.139991
6.9657	0.157249
7.96834	0.174506
8.94459	0.191757
