Adsorption isotherm of Acetonitrile on [CoIII(dpzca)2Ag](BF4)2*2(H2O)
DOI: 10.1021/Ic501876m
Adsorbate Acetonitrile: InChIKey WEVYAHXRMPXWCK-UHFFFAOYSA-N
Temperature: 298 K
Tabular data in the source: 0
pressure (bar)	uptake (mol/mol)
0	0.0431034
0.000997113	0.0947544
0.00199422	0.137785
0.00398845	0.15488
0.0067305	0.18054
0.0119654	0.206018
0.0196929	0.231313
0.0299134	0.247804
0.0398845	0.255692
0.0548412	0.271835
0.0692994	0.279395
0.0847545	0.304122
0.100459	0.32021
