Adsorption isotherm of Water on [NiII(dpzca)2Ag]BF4*0.5(C3H6O)
DOI: 10.1021/Ic501876m
Adsorbate Water: InChIKey XLYOFNOQVPJJNP-UHFFFAOYSA-N
Temperature: 298 K
Tabular data in the source: 0
pressure (bar)	uptake (mol/mol)
0.000532493	0.0360231
0.000998423	0.136888
0.00153091	0.244957
0.00199684	0.381844
0.00299527	0.605187
0.00445961	0.857349
0.00592396	1.0879
0.00745488	1.28242
0.0109826	1.53458
0.0154422	1.7147
0.0209003	1.85879
0.0249606	2.06052
