Adsorption isotherm of Nitrogen on [CoIII(dpzca)2Ag](BF4)2*2(H2O)
DOI: 10.1021/Ic501876m
Adsorbate Nitrogen: InChIKey IJGRMHOSHXDMSA-UHFFFAOYSA-N
Temperature: 298 K
Tabular data in the source: 0
pressure (bar)	uptake (mmol/g)
0.275279	0.00220974
0.523208	0.00226306
0.716042	0.00230453
1.01907	0.00236969
1.51502	0.00140108
2.03843	0.00151364
2.53429	0.00162028
3.03005	0.00280216
3.55355	0.00183947
4.02186	0.00194019
4.51772	0.00204682
5.01338	0.00430395
5.48179	0.00332942
6.00509	0.00451722
6.50105	0.00354861
7.52022	0.00484306
8.48438	0.00505041
