Adsorption isotherm of Carbon Dioxide on [NiII(dpzca)2Ag]BF4*0.5(C3H6O)
DOI: 10.1021/Ic501876m
Adsorbate Carbon Dioxide: InChIKey CURLTUGMZLYLDI-UHFFFAOYSA-N
Temperature: 298 K
Tabular data in the source: 0
pressure (bar)	uptake (mmol/g)
0.105541	0.138567
0.290237	0.223682
0.633245	0.286959
0.976253	0.374543
1.97889	0.472009
2.98153	0.511141
3.98417	0.545413
4.96042	0.569956
5.96306	0.599366
6.9657	0.626346
7.96834	0.650895
8.94459	0.673007
