Adsorption isotherm of Carbon Dioxide on [CoIII(dpzca)2Ag](BF4)2*2(H2O)
DOI: 10.1021/Ic501876m
Adsorbate Carbon Dioxide: InChIKey CURLTUGMZLYLDI-UHFFFAOYSA-N
Temperature: 298 K
Tabular data in the source: 0
pressure (bar)	uptake (mmol/g)
0.0253754	0.0236614
0.0259679	0.0172099
0.107426	0.0301306
0.16183	0.0376692
0.353183	0.0538394
0.461991	0.0689166
0.681484	0.0786412
1.03802	0.0959222
1.50446	0.116453
2.02619	0.134844
2.52076	0.148929
2.98808	0.159782
3.5102	0.173873
3.97723	0.187952
4.49975	0.197742
4.99452	0.209676
5.48939	0.220535
5.98406	0.233545
6.47923	0.241178
6.9742	0.250962
7.44133	0.263966
7.96414	0.27053
8.48675	0.279244
8.92683	0.286866
9.47768	0.28806
