Adsorption isotherm of Methanol on [NiII(dpzca)2Ag]BF4*0.5(C3H6O)
DOI: 10.1021/Ic501876m
Adsorbate Methanol: InChIKey OKKJLVBELUTLKV-UHFFFAOYSA-N
Temperature: 298 K
Tabular data in the source: 0
pressure (bar)	uptake (mol/mol)
0.00178485	0.403458
0.00428364	0.511527
0.00999516	0.590778
0.0199903	0.619597
0.0299855	0.648415
0.0399807	0.677233
0.0596141	0.698847
0.0799613	0.713256
0.10138	0.727666
0.127438	0.74928
0.147786	0.763689
