Adsorption isotherm of Methanol on [CoIII(dpzca)2Ag](BF4)2*2(H2O)
DOI: 10.1021/Ic501876m
Adsorbate Methanol: InChIKey OKKJLVBELUTLKV-UHFFFAOYSA-N
Temperature: 298 K
Tabular data in the source: 0
pressure (bar)	uptake (mol/mol)
0.00143091	0.310272
0.00357728	0.379127
0.00643911	0.447946
0.011805	0.439051
0.0200328	0.576561
0.0300492	0.601911
0.0400656	0.653122
0.0550902	0.669595
0.0701148	0.71193
0.0854971	0.79735
0.101237	0.787924
0.122343	0.804085
0.142734	0.846145
0.151677	0.880171
