Adsorption isotherm of Water on [CoIII(dpzca)2Ag](BF4)2*2(H2O)
DOI: 10.1021/Ic501876m
Adsorbate Water: InChIKey XLYOFNOQVPJJNP-UHFFFAOYSA-N
Temperature: 298 K
Tabular data in the source: 0
pressure (bar)	uptake (mol/mol)
0.000667027	0.836024
0.00113395	1.09452
0.00166757	1.2323
0.00206779	1.3615
0.00306833	1.54226
0.0046025	1.7315
0.00606995	1.87764
0.00747071	1.98071
0.0109392	2.15217
0.0154083	2.2975
0.020878	2.42531
0.0248801	2.51041
