Adsorption isotherm of Methane on [CoIII(dpzca)2Ag](BF4)2*2(H2O)
DOI: 10.1021/Ic501876m
Adsorbate Methane: InChIKey VNWKTOKETHGBQD-UHFFFAOYSA-N
Temperature: 298 K
Tabular data in the source: 0
pressure (bar)	uptake (mmol/g)
0.109894	0.00324944
0.302629	0.00436616
0.467718	0.0065522
0.688099	0.00659959
1.01867	0.00667068
1.54227	0.00463275
2.01058	0.00473346
2.53399	0.00484602
3.02985	0.00495266
3.52571	0.00505929
3.99412	0.00408476
4.51752	0.00419732
5.01338	0.00430395
5.53678	0.00441651
6.00529	0.00236673
6.50105	0.00354861
6.99701	0.00258
7.98892	0.000642779
8.98084	-0.00129444
9.72442	0.00101601
