Adsorption isotherm of Methane on [NiII(dpzca)2Ag]BF4*0.5(C3H6O)
DOI: 10.1021/Ic501876m
Adsorbate Methane: InChIKey VNWKTOKETHGBQD-UHFFFAOYSA-N
Temperature: 298 K
Tabular data in the source: 0
pressure (bar)	uptake (mmol/g)
0.0791557	0.0291859
0.131926	0.038921
0.263852	0.060828
0.633245	0.092515
0.976253	0.121765
1.97889	0.194925
4.98681	0.305032
5.96306	0.332005
6.93931	0.351687
7.96834	0.371381
8.94459	0.383771
