Adsorption isotherm of Hydrogen on ZnBTBd
DOI: 10.1016/j.cattod.2006.09.029
Adsorbate Hydrogen: InChIKey UFHFLCQGNIYNRP-UHFFFAOYSA-N
Temperature: 77 K
Tabular data in the source: 0
pressure (bar)	uptake (wt%)
0.00656687	0.162633
0.0560907	0.406465
0.169704	0.587373
0.313906	0.700112
0.462477	0.770902
0.612505	0.823339
0.752337	0.857423
0.892169	0.891507
1.01452	0.917726
