Adsorption isotherm of Hydrogen on IRMOF-1
DOI: 10.1016/j.cattod.2006.09.029
Adsorbate Hydrogen: InChIKey UFHFLCQGNIYNRP-UHFFFAOYSA-N
Temperature: 77 K
Tabular data in the source: 0
pressure (bar)	uptake (wt%)
0.0648302	0.180986
0.131833	0.317322
0.195923	0.432684
0.24399	0.513961
0.327015	0.631944
0.428976	0.770902
0.503262	0.865289
0.590657	0.962297
0.750881	1.11961
0.928584	1.29003
0.9985	1.33722
