Adsorption isotherm of Hydrogen on IRMOF-3
DOI: 10.1016/j.cattod.2006.09.029
Adsorbate Hydrogen: InChIKey UFHFLCQGNIYNRP-UHFFFAOYSA-N
Temperature: 77 K
Tabular data in the source: 0
pressure (bar)	uptake (wt%)
0.0386117	0.118062
0.0983316	0.277995
0.18427	0.464146
0.29497	0.652919
0.41878	0.83907
0.542589	1.01736
0.667855	1.20351
0.813514	1.34771
0.959172	1.48929
