Adsorption isotherm of Hydrogen on Zn26NDC_dabco
DOI: 10.1016/j.cattod.2006.09.029
Adsorbate Hydrogen: InChIKey UFHFLCQGNIYNRP-UHFFFAOYSA-N
Temperature: 77 K
Tabular data in the source: 0
pressure (bar)	uptake (wt%)
0.0123932	0.18623
0.0808526	0.443171
0.223598	0.576886
0.376539	0.650297
0.52948	0.689625
0.672225	0.731575
0.860124	0.757793
0.978108	0.773524
1.06405	0.786633
