Adsorption isotherm of Hydrogen on IRMOF-11
DOI: 10.1016/j.cattod.2006.09.029
Adsorbate Hydrogen: InChIKey UFHFLCQGNIYNRP-UHFFFAOYSA-N
Temperature: 77 K
Tabular data in the source: 0
pressure (bar)	uptake (wt%)
0.026959	0.25702
0.0488078	0.340919
0.130376	0.571642
0.261469	0.828583
0.331385	0.949188
0.394018	1.03309
0.497435	1.15631
0.662029	1.34509
0.749424	1.43685
0.791665	1.46569
0.922757	1.58105
0.988304	1.62038
1.00141	1.63087
