Adsorption isotherm of Hydrogen on IRMOF-18
DOI: 10.1016/j.cattod.2006.09.029
Adsorbate Hydrogen: InChIKey UFHFLCQGNIYNRP-UHFFFAOYSA-N
Temperature: 77 K
Tabular data in the source: 0
pressure (bar)	uptake (wt%)
0.0429814	0.0682469
0.0750263	0.125928
0.131833	0.199339
0.193009	0.272751
0.264382	0.35665
0.392561	0.46939
0.497435	0.550667
0.662029	0.681759
0.750881	0.749928
0.794578	0.776146
0.916931	0.854801
0.997043	0.907238
