Adsorption isotherm of Hydrogen on Zn27NDC_block
DOI: 10.1016/j.cattod.2006.09.029
Adsorbate Hydrogen: InChIKey UFHFLCQGNIYNRP-UHFFFAOYSA-N
Temperature: 77 K
Tabular data in the source: 0
pressure (bar)	uptake (wt%)
0.00802345	0.14428
0.0415248	0.388112
0.134746	0.637188
0.268752	0.825961
0.423149	0.975407
0.586287	1.09601
0.737771	1.17991
0.890712	1.25332
1.03054	1.30576
