Adsorption isotherm of Hydrogen on Nitro-MOF
DOI: 10.1016/j.cattod.2006.09.029
Adsorbate Hydrogen: InChIKey UFHFLCQGNIYNRP-UHFFFAOYSA-N
Temperature: 77 K
Tabular data in the source: 0
pressure (bar)	uptake (wt%)
0.0225893	0.0630032
0.0575473	0.141659
0.131833	0.267507
0.236707	0.422196
0.360516	0.555911
0.494522	0.687003
0.629984	0.789255
0.771273	0.888885
0.905278	0.964919
1.04802	1.03309
