Adsorption isotherm of Hydrogen on IRMOF-3
DOI: 10.1016/j.cattod.2006.09.029
Adsorbate Hydrogen: InChIKey UFHFLCQGNIYNRP-UHFFFAOYSA-N
Temperature: 77 K
Tabular data in the source: 0
pressure (bar)	uptake (wt%)
0.0138498	0.0472721
0.0473512	0.160012
0.117267	0.325188
0.166791	0.422196
0.281861	0.624079
0.35032	0.734196
0.495979	0.899373
0.627071	1.05144
0.761077	1.19302
0.832449	1.24808
0.962085	1.36606
1.032	1.4185
