Adsorption isotherm of Hydrogen on IRMOF-8
DOI: 10.1016/j.cattod.2006.09.029
Adsorbate Hydrogen: InChIKey UFHFLCQGNIYNRP-UHFFFAOYSA-N
Temperature: 77 K
Tabular data in the source: 0
pressure (bar)	uptake (wt%)
0.0182195	0.188852
0.0356985	0.312079
0.101245	0.516583
0.12892	0.676516
0.198836	0.726331
0.260012	0.804986
0.327015	0.904617
0.386735	0.988516
0.498892	1.11961
0.657659	1.26381
0.798948	1.36606
0.997043	1.51551
