Adsorption isotherm of Nitrogen on ((Me2NH2)In(NH2BDC)2)
DOI: 10.1039/C2cc16923a
Adsorbate Nitrogen: InChIKey IJGRMHOSHXDMSA-UHFFFAOYSA-N
Temperature: 77 K
Tabular data in the source: 0
pressure (bar)	uptake (cm3(STP)/g)
0.00289143	77.436
0.00867429	97.8174
0.0144571	108.01
0.0289143	134.511
0.0751771	144.053
0.104091	146.79
0.130114	148.166
0.164811	149.549
0.190834	150.926
0.277577	153.024
0.329623	154.419
0.4048	153.792
0.48576	154.528
0.543589	155.248
0.601417	155.288
0.659246	155.329
0.719966	155.371
0.76912	155.406
0.838514	154.775
0.896343	155.495
0.939714	155.525
0.97152	158.264
