Adsorption isotherm of Carbon Dioxide on ((Me2NH2)In(NH2BDC)2)
DOI: 10.1039/C2cc16923a
Adsorbate Carbon Dioxide: InChIKey CURLTUGMZLYLDI-UHFFFAOYSA-N
Temperature: 298 K
Tabular data in the source: 0
pressure (bar)	uptake (cm3(STP)/g)
0	5.92593
0.135922	14.4416
0.339806	22.215
0.61165	29.9871
0.747573	37.762
0.883495	44.0554
1.01942	48.8673
1.29126	58.1208
1.49515	66.2647
1.90291	73.2931
2.17476	79.954
2.37864	83.6534
2.58252	86.9824
2.78641	90.6818
3.3301	98.8184
3.60194	102.146
4.28155	109.169
4.68932	112.123
4.8932	115.452
6.04854	120.983
6.86408	126.521
7.33981	127.993
7.74757	130.206
8.90291	134.626
9.31068	135.729
9.71845	137.942
10.2621	139.042
10.8738	140.14
11.4854	142.35
11.9612	143.821
12.5728	144.919
13.1165	146.389
13.7282	147.858
14.3398	148.585
14.8835	149.685
15.4272	151.155
15.9709	152.625
16.5146	153.725
17.1262	154.452
19.3689	158.479
20.0485	159.205
20.6602	160.303
21.2718	160.661
21.9515	161.387
22.4951	162.117
23.1748	162.843
23.7864	163.941
24.3981	164.298
25.0777	165.395
25.6893	166.123
26.233	166.852
26.9126	167.579
27.5243	168.677
28.2039	169.773
28.8155	170.872
29.1553	171.605
