Adsorption isotherm of Methane on ((Me2NH2)In(NH2BDC)2)
DOI: 10.1039/C2cc16923a
Adsorbate Methane: InChIKey VNWKTOKETHGBQD-UHFFFAOYSA-N
Temperature: 298 K
Tabular data in the source: 0
pressure (bar)	uptake (cm3(STP)/g)
0.679612	0.726357
1.69903	-0.0359583
3.12621	-0.0661633
4.5534	0.274002
5.84466	-0.494067
7.20388	-0.152463
8.42718	-0.178353
9.65049	-0.204243
11.7573	0.121539
14.2718	-0.30205
17.1262	-0.36246
19.9126	-0.0510608
22.5631	-0.477526
25.3495	-0.536498
28	-0.222222
30.7864	-0.651564
