Adsorption isotherm of Carbon Dioxide on ((Me2NH2)In(NH2BDC)2)
DOI: 10.1039/C2cc16923a
Adsorbate Carbon Dioxide: InChIKey CURLTUGMZLYLDI-UHFFFAOYSA-N
Temperature: 273 K
Tabular data in the source: 0
pressure (bar)	uptake (cm3(STP)/g)
0.445713	2.61194
0.980437	5.59701
1.60384	8.58209
2.13823	11.194
2.67296	14.1791
3.20768	17.1642
3.74306	20.8955
4.36581	23.1343
4.98888	25.7463
5.61195	28.3582
6.23502	30.9701
6.85809	33.5821
7.39216	35.8209
7.92589	37.6866
8.54863	39.9254
9.26005	42.1642
9.9718	44.7761
10.5055	46.6418
11.0389	48.1343
11.7503	50.3731
12.4614	52.2388
13.1729	54.4776
13.8843	56.7164
14.3277	56.7164
14.9504	58.9552
15.7502	60.8209
16.5496	62.3134
17.9715	65.6716
18.7709	67.1642
19.5707	69.0299
20.3701	70.5224
20.9032	71.6418
21.4359	72.3881
22.2354	73.8806
23.0348	75.3731
23.9226	76.4925
24.8994	77.9851
25.7872	79.1045
26.5863	80.2239
27.3854	81.3433
28.4509	82.8358
29.3383	83.5821
30.1374	84.7015
31.0252	85.8209
31.913	86.9403
32.7121	88.0597
33.5996	88.806
34.3983	89.5522
34.8424	90.2985
