Adsorption isotherm of Carbon Dioxide on ((Me2NH2)In(NH2BDC)2)
DOI: 10.1039/C2cc16923a
Adsorbate Carbon Dioxide: InChIKey CURLTUGMZLYLDI-UHFFFAOYSA-N
Temperature: 298 K
Tabular data in the source: 0
pressure (bar)	uptake (mmol/g)
0.0333333	0.144324
0.0606061	0.240295
0.0909091	0.311794
0.115152	0.407912
0.139394	0.479705
0.166667	0.575676
0.19697	0.647174
0.221212	0.718968
0.248485	0.790614
0.275758	0.886585
0.30303	0.958231
0.333333	1.00541
0.360606	1.07705
0.387879	1.17302
0.415152	1.22034
0.445455	1.29184
0.472727	1.36349
0.5	1.43514
0.527273	1.48246
0.557576	1.57828
0.584848	1.6256
0.6	1.67351
0.612121	1.67292
0.639394	1.74457
0.669697	1.76742
0.69697	1.86339
0.721212	1.88654
0.751515	1.93371
0.778788	1.98103
0.806061	2.02835
0.833333	2.1
0.863636	2.12285
0.890909	2.21882
0.918182	2.26614
0.948485	2.31332
0.975758	2.38496
0.99697	2.43258
