Adsorption isotherm of Carbon Dioxide on ((Me2NH2)In(NH2BDC)2)
DOI: 10.1039/C2cc16923a
Adsorbate Carbon Dioxide: InChIKey CURLTUGMZLYLDI-UHFFFAOYSA-N
Temperature: 273 K
Tabular data in the source: 0
pressure (bar)	uptake (mmol/g)
0.0212121	0.217887
0.0424242	0.362801
0.0636364	0.556364
0.0818182	0.725749
0.10303	0.894988
0.124242	1.0399
0.145455	1.18482
0.169697	1.35391
0.193939	1.49867
0.215152	1.61926
0.239394	1.76403
0.260606	1.88462
0.287879	2.02924
0.312121	2.10103
0.336364	2.2458
0.363636	2.36609
0.387879	2.48654
0.412121	2.58265
0.439394	2.67862
0.466667	2.77459
0.493939	2.87057
0.521212	2.96654
0.548485	3.03818
0.578788	3.134
0.606061	3.18133
0.633333	3.2773
0.660606	3.34894
0.687879	3.42059
0.718182	3.49209
0.745455	3.53941
0.775758	3.61091
0.80303	3.65823
0.830303	3.70555
0.857576	3.7772
0.887879	3.82437
0.915152	3.8717
0.942424	3.94334
0.972727	3.96619
0.993939	3.98948
