Adsorption isotherm of Nitrogen on MIL-101(Cr)-PEI-800-0.18
DOI: 10.1021/acssuschemeng.6b01692
Article source: Figure S5
Adsorbate Nitrogen: InChIKey IJGRMHOSHXDMSA-UHFFFAOYSA-N
Kind: experiment
Temperature: 77 K
Tabular data in the source: 0
pressure (bar)	uptake (cm3(STP)/g)
0.001581	237.858
0.004742	307.664
0.005533	343.86
0.008694	390.397
0.02055	451.154
0.030824	493.813
0.044261	522.253
0.053745	550.693
0.082198	628.255
0.101167	664.451
0.124088	683.841
0.153331	707.11
0.208657	791.136
0.255288	805.355
0.305872	814.404
0.355665	826.039
0.407039	835.088
0.457622	840.259
0.508996	850.6
0.55958	859.649
0.609373	868.698
0.661537	876.454
0.709749	885.503
0.761123	891.967
0.811707	902.308
0.865451	919.114
0.911293	934.626
0.968199	988.92
1.00139	1282.36
0.960295	1080.7
0.908131	939.797
0.860709	928.163
0.809335	916.528
0.75559	906.187
0.708168	899.723
0.657585	891.967
0.602259	881.625
0.556418	873.869
0.508206	863.527
0.456832	855.771
0.406248	846.722
0.356455	837.673
0.303501	824.746
0.252917	810.526
0.203124	792.428
0.15096	710.988
0.122507	686.427
0.101167	667.036
0.079827	628.255
0.050583	550.693
0.039518	517.082
0.030034	493.813
0.017388	449.862
0.007904	390.397
0.003161	342.567
0.003161	306.371
0.001581	233.98
