Adsorption isotherm of Nitrogen on MIL-101(Cr)-PEI-800-1.76
DOI: 10.1021/acssuschemeng.6b01692
Article source: Figure S5
Adsorbate Nitrogen: InChIKey IJGRMHOSHXDMSA-UHFFFAOYSA-N
Kind: experiment
Temperature: 77 K
Tabular data in the source: 0
pressure (bar)	uptake (cm3(STP)/g)
0.00079	1.29271
0.004742	2.58541
0.009484	2.58541
0.02213	5.17082
0.028453	5.17082
0.037147	5.17082
0.048212	6.46353
0.079827	9.04894
0.100377	7.75623
0.123297	9.04894
0.152541	10.3416
0.202334	11.6343
0.253708	12.9271
0.304291	12.9271
0.352504	18.0979
0.403877	20.6833
0.458413	16.8052
0.505835	23.2687
0.558789	23.2687
0.611744	23.2687
0.662327	21.976
0.716863	23.2687
0.763494	27.1468
0.808545	31.0249
0.8615	38.7812
0.912083	41.3666
0.961086	80.1477
1.00377	244.321
0.958715	126.685
0.901018	46.5374
0.8615	45.2447
0.808545	37.4885
0.75401	37.4885
0.709749	33.6103
0.656004	31.0249
0.607002	29.7322
0.557999	27.1468
0.507415	24.5614
0.454461	21.976
0.403877	20.6833
0.354084	21.976
0.304291	14.2198
0.251337	14.2198
0.203124	12.9271
0.153331	10.3416
0.121716	10.3416
0.101167	10.3416
0.080617	7.75623
0.049793	6.46353
0.037147	6.46353
0.028453	6.46353
0.02213	5.17082
0.006323	5.17082
0.003161	5.17082
0	3.87812
