Adsorption isotherm of Nitrogen on MIL-101(Cr)-PEI-800-1.07
DOI: 10.1021/acssuschemeng.6b01692
Article source: Figure S5
Adsorbate Nitrogen: InChIKey IJGRMHOSHXDMSA-UHFFFAOYSA-N
Kind: experiment
Temperature: 77 K
Tabular data in the source: 0
pressure (bar)	uptake (cm3(STP)/g)
0.00079	67.2207
0.003952	98.2456
0.004742	113.758
0.011855	135.734
0.02055	161.588
0.033195	178.393
0.041099	192.613
0.051374	202.955
0.082988	222.345
0.103538	232.687
0.120926	245.614
0.154912	274.054
0.204705	284.395
0.255288	292.151
0.303501	297.322
0.354084	303.786
0.407829	310.249
0.459203	318.006
0.508206	324.469
0.555628	332.225
0.607792	337.396
0.656795	347.738
0.71133	352.909
0.759542	356.787
0.809335	372.299
0.8615	385.226
0.916825	414.958
0.965828	475.716
1.00218	745.891
0.961086	550.693
0.912873	435.642
0.8615	392.982
0.809335	386.519
0.761123	377.47
0.707378	367.128
0.660746	356.787
0.60463	355.494
0.55958	346.445
0.504254	341.274
0.455251	334.811
0.407039	327.054
0.352504	321.884
0.303501	312.835
0.253708	305.078
0.203124	296.03
0.15017	284.395
0.099586	243.029
0.049793	209.418
