Adsorption isotherm of Nitrogen on Cr-MIL(101)
DOI: 10.1021/acssuschemeng.6b01692
Article source: Figure S5
Adsorbate Nitrogen: InChIKey IJGRMHOSHXDMSA-UHFFFAOYSA-N
Kind: experiment
Temperature: 77 K
Tabular data in the source: 0
pressure (bar)	uptake (cm3(STP)/g)
0.00079	244.321
0.003161	307.664
0.004742	330.933
0.007113	367.128
0.010275	414.958
0.02055	487.35
0.031615	535.18
0.040309	564.912
0.052164	599.815
0.082198	674.792
0.102748	739.427
0.121716	770.452
0.154912	798.892
0.204705	884.211
0.256869	904.894
0.306662	915.235
0.355665	925.577
0.407039	932.041
0.457622	944.968
0.509786	948.846
0.55958	956.602
0.609373	966.944
0.659956	970.822
0.71054	979.871
0.759542	985.042
0.810126	996.676
0.864661	1009.6
0.915245	1031.58
0.965038	1087.17
1.00377	1396.12
0.964247	1160.85
0.901018	1036.75
0.86308	1014.77
0.808545	1003.14
0.760333	992.798
0.71054	987.627
0.659956	975.993
0.607792	972.115
0.558789	961.773
0.509786	956.602
0.456832	948.846
0.406248	938.504
0.354084	930.748
0.30192	919.114
0.252917	912.65
0.203124	891.967
0.15017	798.892
0.121716	770.452
0.101957	738.135
0.082198	677.378
0.052164	599.815
0.041099	568.79
0.031615	532.595
0.02134	488.643
0.009484	420.129
0.006323	365.836
0.004742	332.225
0.002371	310.249
0.001581	245.614
