Adsorption isotherm of Nitrogen on MIL-101(Cr)-PEI-800-0.77
DOI: 10.1021/acssuschemeng.6b01692
Article source: Figure S5
Adsorbate Nitrogen: InChIKey IJGRMHOSHXDMSA-UHFFFAOYSA-N
Kind: experiment
Temperature: 77 K
Tabular data in the source: 0
pressure (bar)	uptake (cm3(STP)/g)
0.003161	134.441
0.004742	204.247
0.030034	292.151
0.051374	328.347
0.080617	359.372
0.101167	374.885
0.121716	387.812
0.153331	424.007
0.202334	443.398
0.255288	455.032
0.305082	455.032
0.407829	467.959
0.506625	478.301
0.611744	489.935
0.71133	498.984
0.814078	519.668
0.911293	545.522
0.963457	601.108
1.00297	894.552
0.961876	648.938
0.902599	563.62
0.809335	531.302
0.708959	517.082
0.607002	506.741
0.506625	491.228
0.403877	479.594
0.303501	466.667
0.253708	458.91
0.200753	451.154
0.15096	427.885
0.118555	387.812
0.101167	374.885
0.080617	354.201
0.049003	330.933
0.033195	286.981
0.007904	227.516
0.001581	137.027
