Adsorption isotherm of Nitrogen on MIL-101(Cr)-PEI-800-0.97
DOI: 10.1021/acssuschemeng.6b01692
Article source: Figure S5
Adsorbate Nitrogen: InChIKey IJGRMHOSHXDMSA-UHFFFAOYSA-N
Kind: experiment
Temperature: 77 K
Tabular data in the source: 0
pressure (bar)	uptake (cm3(STP)/g)
0.001581	91.7821
0.004742	148.661
0.007904	171.93
0.030034	227.516
0.050583	253.37
0.080617	281.81
0.102748	289.566
0.123297	312.835
0.153331	343.86
0.205495	355.494
0.253708	374.885
0.30192	372.299
0.405458	385.226
0.507415	403.324
0.609373	416.251
0.709749	430.471
0.813287	452.447
0.912083	495.106
0.961086	577.839
1.00218	897.138
0.961086	703.232
0.903389	519.668
0.807755	466.667
0.71054	445.983
0.605421	431.764
0.505835	416.251
0.405458	400.739
0.304291	386.519
0.253708	377.47
0.203915	369.714
0.152541	356.787
0.122507	318.006
0.100377	306.371
0.081408	283.102
0.052164	267.59
0.030034	230.102
0.007904	182.271
0.005533	147.368
0	98.2456
