Adsorption isotherm of Nitrogen on MIL-101(Cr)-PEI-800-0.36
DOI: 10.1021/acssuschemeng.6b01692
Article source: Figure S5
Adsorbate Nitrogen: InChIKey IJGRMHOSHXDMSA-UHFFFAOYSA-N
Kind: experiment
Temperature: 77 K
Tabular data in the source: 0
pressure (bar)	uptake (cm3(STP)/g)
0.001581	248.199
0.003161	310.249
0.005533	342.567
0.009484	380.055
0.02055	452.447
0.030824	488.643
0.041099	520.96
0.052955	550.693
0.082198	623.084
0.101957	650.231
0.123297	669.621
0.152541	696.768
0.203124	767.867
0.25766	782.087
0.30271	795.014
0.356455	802.77
0.406248	809.234
0.456832	816.99
0.508206	826.039
0.557999	837.673
0.608582	841.551
0.659956	848.015
0.71054	855.771
0.758752	868.698
0.810126	873.869
0.86308	884.211
0.910502	910.065
0.964247	957.895
1.00377	1284.95
0.962667	1057.43
0.912083	915.235
0.859129	894.552
0.814078	884.211
0.760333	868.698
0.708959	866.113
0.656004	855.771
0.610163	850.6
0.557208	840.259
0.504254	837.673
0.456042	824.746
0.406248	816.99
0.354084	809.234
0.30192	798.892
0.252127	792.428
0.202334	771.745
0.15096	696.768
0.121716	667.036
0.101167	648.938
0.080617	624.377
0.052164	553.278
0.041099	522.253
0.030824	486.057
0.02055	455.032
0.010275	389.104
0.006323	342.567
0.004742	311.542
0.001581	248.199
