Adsorption isotherm of Water on Silicalite MFI
DOI: 10.1021/Jp710746b
Adsorbate Water: InChIKey XLYOFNOQVPJJNP-UHFFFAOYSA-N
Temperature: 300 K
Tabular data in the source: 0
pressure (bar)	uptake (molecules/unitcell)
0.000293	1.07681
0.0100815	2.16925
0.0199462	2.49698
0.0301168	2.93396
