Adsorption isotherm of Water on H-ZSM-5
DOI: 10.1021/Jp710746b
Adsorbate Water: InChIKey XLYOFNOQVPJJNP-UHFFFAOYSA-N
Temperature: 300 K
Tabular data in the source: 0
pressure (bar)	uptake (molecules/unitcell)
0.000217	2.93396
0.000982	3.69866
0.0018227	4.46337
0.00327564	5.33732
0.0195639	12.0012
