Adsorption isotherm of Water on Silicalite MFI
DOI: 10.1021/Jp710746b
Adsorbate Water: InChIKey XLYOFNOQVPJJNP-UHFFFAOYSA-N
Temperature: 300 K
Tabular data in the source: 0
pressure (bar)	uptake (molecules/unitcell)
0.00014	2.93396
0.000217	0.202863
0.000217	4.24488
0.000905	5.22807
0.00511094	7.19446
0.0100051	8.2869
0.0200992	10.6903
0.0301168	15.1692
