Adsorption isotherm of Water on Silicalite MFI
DOI: 10.1021/Jp710746b
Adsorbate Water: InChIKey XLYOFNOQVPJJNP-UHFFFAOYSA-N
Temperature: 300 K
Tabular data in the source: 0
pressure (bar)	uptake (molecules/unitcell)
6.39e-05	18.0096
0.000217	0.421351
0.000217	1.73227
0.000217	5.66505
0.000217	24.018
0.001058	30.1356
0.00511094	40.0768
0.0102345	44.9928
