Adsorption isotherm of Ethanethiol, Methane on Zeolite 5A
DOI: 10.1021/je400298r
Article source: Figure 3
Adsorbate Ethanethiol: InChIKey DNJIEGIFACGWOD-UHFFFAOYSA-N
Adsorbate Methane: InChIKey VNWKTOKETHGBQD-UHFFFAOYSA-N
Kind: experiment
Temperature: 298 K
Tabular data in the source: 0
pressure (bar)	Ethanethiol fraction	Ethanethiol uptake (mmol/g)	Methane fraction	Methane uptake (mmol/g)	total uptake (mmol/g)
1.3	6.5e-05	0.724			
1.3	0.000132	1.176			
1.3	0.000232	1.7			
1.3	0.000403	2.053			
1.3	0.000633	2.3			
1.3	0.00088	2.48			
1.3	0.00109	2.58			
1.3	0.001323	2.6			
1.3	0.00167	2.615			
1.3	0.002065	2.64			
