Adsorption isotherm of Methanethiol, Methane on Zeolite 5A
DOI: 10.1021/je400298r
Article source: Figure 3
Adsorbate Methanethiol: InChIKey LSDPWZHWYPCBBB-UHFFFAOYSA-N
Adsorbate Methane: InChIKey VNWKTOKETHGBQD-UHFFFAOYSA-N
Kind: experiment
Temperature: 298 K
Tabular data in the source: 0
pressure (bar)	Methanethiol fraction	Methanethiol uptake (mmol/g)	Methane fraction	Methane uptake (mmol/g)	total uptake (mmol/g)
1.3	0.000153	0.9825			
1.3	0.000262	1.498			
1.3	0.000352	1.77			
1.3	0.000481	1.99			
1.3	0.00058	2.22			
1.3	0.000775	2.53			
1.3	0.00098	2.67			
1.3	0.001169	2.71			
1.3	0.001365	2.71			
1.3	0.001602	2.89			
1.3	0.001795	2.869			
1.3	0.002021	2.94			
