Adsorption isotherm of Carbonyl sulfide, Methane on silica alumina gel
DOI: 10.1021/je400298r
Article source: Figure 2
Adsorbate Carbonyl sulfide: InChIKey JJWKPURADFRFRB-UHFFFAOYSA-N
Adsorbate Methane: InChIKey VNWKTOKETHGBQD-UHFFFAOYSA-N
Kind: experiment
Temperature: 298 K
Tabular data in the source: 0
pressure (bar)	Carbonyl sulfide fraction	Carbonyl sulfide uptake (mmol/g)	Methane fraction	Methane uptake (mmol/g)	total uptake (mmol/g)
1.3	0.000102	0.000732			
1.3	0.000222	0.00169			
1.3	0.000458	0.00334			
1.3	0.000699	0.00504			
1.3	0.00093	0.00696			
1.3	0.001152	0.00849			
1.3	0.001439	0.0109			
1.3	0.001731	0.0124			
1.3	0.002016	0.014			
