Adsorption isotherm of Carbon Dioxide, Methane on Zeolite 5A
DOI: 10.1021/je400298r
Article source: Figure 3
Adsorbate Carbon Dioxide: InChIKey CURLTUGMZLYLDI-UHFFFAOYSA-N
Adsorbate Methane: InChIKey VNWKTOKETHGBQD-UHFFFAOYSA-N
Kind: experiment
Temperature: 298 K
Tabular data in the source: 0
pressure (bar)	Carbon Dioxide fraction	Carbon Dioxide uptake (mmol/g)	Methane fraction	Methane uptake (mmol/g)	total uptake (mmol/g)
1.3	0.00109	0.2117			
1.3	0.002974	0.4885			
1.3	0.005925	0.8094			
1.3	0.010159	1.208			
1.3	0.015088	1.532			
1.3	0.020023	1.7015			
1.3	0.02496	1.8637			
1.3	0.029911	1.90224			
1.3	0.040077	2.0565			
1.3	0.04973	2.1333			
