Adsorption isotherm of Hydrogen sulfide, Methane, Water on Zeolite 5A
DOI: 10.1021/je400298r
Article source: Figure 7
Adsorbate Hydrogen sulfide: InChIKey RWSOTUBLDIXVET-UHFFFAOYSA-N
Adsorbate Methane: InChIKey VNWKTOKETHGBQD-UHFFFAOYSA-N
Adsorbate Water: InChIKey XLYOFNOQVPJJNP-UHFFFAOYSA-N
Kind: experiment
Temperature: 298 K
Tabular data in the source: 0
pressure (bar)	Hydrogen sulfide fraction	Hydrogen sulfide uptake (mmol/g)	Methane fraction	Methane uptake (mmol/g)	Water fraction	Water uptake (mmol/g)	total uptake (mmol/g)
1.3	0.000134	0.0186					
1.3	0.000228	0.0203					
1.3	0.000504	0.0444					
1.3	0.000761	0.068					
1.3	0.001031	0.099					
1.3	0.001335	0.1169					
1.3	0.001549	0.1345					
1.3	0.001817	0.1293					
1.3	0.002093	0.148					
