Adsorption isotherm of Hydrogen sulfide, Methane, Water on Zeolite 5A
DOI: 10.1021/je400298r
Article source: Figure 7
Adsorbate Hydrogen sulfide: InChIKey RWSOTUBLDIXVET-UHFFFAOYSA-N
Adsorbate Methane: InChIKey VNWKTOKETHGBQD-UHFFFAOYSA-N
Adsorbate Water: InChIKey XLYOFNOQVPJJNP-UHFFFAOYSA-N
Kind: experiment
Temperature: 298 K
Tabular data in the source: 0
pressure (bar)	Hydrogen sulfide fraction	Hydrogen sulfide uptake (mmol/g)	Methane fraction	Methane uptake (mmol/g)	Water fraction	Water uptake (mmol/g)	total uptake (mmol/g)
1.3	0.000258	0.0414					
1.3	0.000507	0.0981					
1.3	0.000759	0.167					
1.3	0.001005	0.222					
1.3	0.001259	0.3					
1.3	0.001597	0.37					
1.3	0.00176	0.358					
1.3	0.001903	0.371					
1.3	0.002032	0.385					
