Adsorption isotherm of Propyl mercaptan, Methane on silica alumina gel
DOI: 10.1021/je400298r
Article source: Figure 2
Adsorbate Propyl mercaptan: InChIKey SUVIGLJNEAMWEG-UHFFFAOYSA-N
Adsorbate Methane: InChIKey VNWKTOKETHGBQD-UHFFFAOYSA-N
Kind: experiment
Temperature: 298 K
Tabular data in the source: 0
pressure (bar)	Propyl mercaptan fraction	Propyl mercaptan uptake (mmol/g)	Methane fraction	Methane uptake (mmol/g)	total uptake (mmol/g)
1.3	9.6e-05	0.1774			
1.3	0.00019	0.2639			
1.3	0.000375	0.3662			
1.3	0.000592	0.4832			
1.3	0.000788	0.564			
1.3	0.001043	0.65			
1.3	0.001202	0.6647			
1.3	0.001432	0.7136			
1.3	0.001665	0.7807			
1.3	0.001825	0.8476			
1.3	0.002053	0.8791			
