Adsorption isotherm of Hydrogen sulfide, Methane on silica alumina gel
DOI: 10.1021/je400298r
Article source: Figure 2
Adsorbate Hydrogen sulfide: InChIKey RWSOTUBLDIXVET-UHFFFAOYSA-N
Adsorbate Methane: InChIKey VNWKTOKETHGBQD-UHFFFAOYSA-N
Kind: experiment
Temperature: 298 K
Tabular data in the source: 0
pressure (bar)	Hydrogen sulfide fraction	Hydrogen sulfide uptake (mmol/g)	Methane fraction	Methane uptake (mmol/g)	total uptake (mmol/g)
1.3	8.8e-05	0.0019			
1.3	0.000211	0.0053			
1.3	0.000403	0.0125			
1.3	0.000569	0.0178			
1.3	0.000793	0.0235			
1.3	0.00099	0.0276			
1.3	0.001265	0.0367			
1.3	0.001599	0.044			
1.3	0.001783	0.047			
1.3	0.002005	0.0546			
