Adsorption isotherm of Carbonyl sulfide, Methane on Zeolite 5A
DOI: 10.1021/je400298r
Article source: Figure 3
Adsorbate Carbonyl sulfide: InChIKey JJWKPURADFRFRB-UHFFFAOYSA-N
Adsorbate Methane: InChIKey VNWKTOKETHGBQD-UHFFFAOYSA-N
Kind: experiment
Temperature: 298 K
Tabular data in the source: 0
pressure (bar)	Carbonyl sulfide fraction	Carbonyl sulfide uptake (mmol/g)	Methane fraction	Methane uptake (mmol/g)	total uptake (mmol/g)
1.3	9.1e-05	0.1561			
1.3	0.000285	0.4108			
1.3	0.0005	0.6411			
1.3	0.0007	0.7957			
1.3	0.000918	0.9275			
1.3	0.001176	1.0878			
1.3	0.00147	1.2307			
1.3	0.001762	1.3784			
1.3	0.002001	1.4555			
1.3	0.002185	1.5633			
