Adsorption isotherm of Carbon Dioxide, Hydrogen sulfide, Methane on silica alumina gel
DOI: 10.1021/je400298r
Article source: Figure 4
Adsorbate Carbon Dioxide: InChIKey CURLTUGMZLYLDI-UHFFFAOYSA-N
Adsorbate Hydrogen sulfide: InChIKey RWSOTUBLDIXVET-UHFFFAOYSA-N
Adsorbate Methane: InChIKey VNWKTOKETHGBQD-UHFFFAOYSA-N
Kind: experiment
Temperature: 298 K
Tabular data in the source: 0
pressure (bar)	Carbon Dioxide fraction	Carbon Dioxide uptake (mmol/g)	Hydrogen sulfide fraction	Hydrogen sulfide uptake (mmol/g)	Methane fraction	Methane uptake (mmol/g)	total uptake (mmol/g)
1.3			0.000204	0.0047			
1.3			0.0004	0.0099			
1.3			0.000615	0.0159			
1.3			0.000832	0.0207			
1.3			0.001031	0.0249			
1.3			0.001239	0.02859			
1.3			0.001435	0.03194			
1.3			0.001637	0.03811			
1.3			0.001851	0.04256			
1.3			0.002054	0.0441			
