Adsorption isotherm of Carbon Dioxide, Methane on silica alumina gel
DOI: 10.1021/je400298r
Article source: Figure 2
Adsorbate Carbon Dioxide: InChIKey CURLTUGMZLYLDI-UHFFFAOYSA-N
Adsorbate Methane: InChIKey VNWKTOKETHGBQD-UHFFFAOYSA-N
Kind: experiment
Temperature: 298 K
Tabular data in the source: 0
pressure (bar)	Carbon Dioxide fraction	Carbon Dioxide uptake (mmol/g)	Methane fraction	Methane uptake (mmol/g)	total uptake (mmol/g)
1.3	0.00194	0.0049			
1.3	0.005049	0.0131			
1.3	0.01007	0.0264			
1.3	0.01493	0.0408			
1.3	0.02007	0.0525			
1.3	0.030095	0.0748			
1.3	0.039845	0.0986			
1.3	0.0501	0.1218			
