Adsorption isotherm of Methane, Water on silica alumina gel
DOI: 10.1021/je400298r
Article source: Figure 2
Adsorbate Methane: InChIKey VNWKTOKETHGBQD-UHFFFAOYSA-N
Adsorbate Water: InChIKey XLYOFNOQVPJJNP-UHFFFAOYSA-N
Kind: experiment
Temperature: 298 K
Tabular data in the source: 0
pressure (bar)	Methane fraction	Methane uptake (mmol/g)	Water fraction	Water uptake (mmol/g)	total uptake (mmol/g)
1.3			0.000101	0.3122	
1.3			0.000212	0.533	
1.3			0.000433	0.839	
1.3			0.000577	1	
1.3			0.000784	1	
1.3			0.001065	1	
1.3			0.0012	2	
1.3			0.0015	2.06	
1.3			0.001914	2.34	
