Adsorption isotherm of Carbon Dioxide, Hydrogen sulfide, Methane on Zeolite 5A
DOI: 10.1021/je400298r
Article source: Figure 6
Adsorbate Carbon Dioxide: InChIKey CURLTUGMZLYLDI-UHFFFAOYSA-N
Adsorbate Hydrogen sulfide: InChIKey RWSOTUBLDIXVET-UHFFFAOYSA-N
Adsorbate Methane: InChIKey VNWKTOKETHGBQD-UHFFFAOYSA-N
Kind: experiment
Temperature: 298 K
Tabular data in the source: 0
pressure (bar)	Carbon Dioxide fraction	Carbon Dioxide uptake (mmol/g)	Hydrogen sulfide fraction	Hydrogen sulfide uptake (mmol/g)	Methane fraction	Methane uptake (mmol/g)	total uptake (mmol/g)
1.3			0.000191	0.1748			
1.3			0.0004	0.3639			
1.3			0.000594	0.5239			
1.3			0.000796	0.6417			
1.3			0.001001	0.7528			
1.3			0.001207	0.826			
1.3			0.0014	0.895			
1.3			0.001603	0.977			
1.3			0.001823	1.05			
1.3			0.002003	1.101			
