Adsorption isotherm of Hydrogen sulfide, Methane, Water on silica alumina gel
DOI: 10.1021/je400298r
Article source: Figure 5
Adsorbate Hydrogen sulfide: InChIKey RWSOTUBLDIXVET-UHFFFAOYSA-N
Adsorbate Methane: InChIKey VNWKTOKETHGBQD-UHFFFAOYSA-N
Adsorbate Water: InChIKey XLYOFNOQVPJJNP-UHFFFAOYSA-N
Kind: experiment
Temperature: 298 K
Tabular data in the source: 0
pressure (bar)	Hydrogen sulfide fraction	Hydrogen sulfide uptake (mmol/g)	Methane fraction	Methane uptake (mmol/g)	Water fraction	Water uptake (mmol/g)	total uptake (mmol/g)
1.3	0.000209	0.002					
1.3	0.000347	0.00382					
1.3	0.000542	0.0055					
1.3	0.000708	0.00769					
1.3	0.00096	0.0105					
1.3	0.001224	0.0127					
1.3	0.001476	0.0157					
1.3	0.00175	0.02					
1.3	0.001988	0.0225					
