Adsorption isotherm of Propyl mercaptan, Methane on silica alumina gel
DOI: 10.1021/je400298r
Article source: Figure 2
Adsorbate Propyl mercaptan: InChIKey SUVIGLJNEAMWEG-UHFFFAOYSA-N
Adsorbate Methane: InChIKey VNWKTOKETHGBQD-UHFFFAOYSA-N
Kind: experiment
Temperature: 298 K
Tabular data in the source: 0
pressure (bar)	Propyl mercaptan fraction	Propyl mercaptan uptake (mmol/g)	Methane fraction	Methane uptake (mmol/g)	total uptake (mmol/g)
1.3	0.000103	0.344			
1.3	0.00021	0.513			
1.3	0.000322	0.641			
1.3	0.000373	0.691			
1.3	0.000452	0.767			
