Adsorption isotherm of Hydrogen sulfide, Methane, Water on silica alumina gel
DOI: 10.1021/je400298r
Article source: Figure 5
Adsorbate Hydrogen sulfide: InChIKey RWSOTUBLDIXVET-UHFFFAOYSA-N
Adsorbate Methane: InChIKey VNWKTOKETHGBQD-UHFFFAOYSA-N
Adsorbate Water: InChIKey XLYOFNOQVPJJNP-UHFFFAOYSA-N
Kind: experiment
Temperature: 298 K
Tabular data in the source: 0
pressure (bar)	Hydrogen sulfide fraction	Hydrogen sulfide uptake (mmol/g)	Methane fraction	Methane uptake (mmol/g)	Water fraction	Water uptake (mmol/g)	total uptake (mmol/g)
1.3	0.000222	0.00164					
1.3	0.000429	0.00423					
1.3	0.000637	0.00621					
1.3	0.000847	0.007064					
1.3	0.00115	0.0105					
1.3	0.001442	0.0131					
1.3	0.001678	0.0148					
1.3	0.001953	0.0193					
