Adsorption isotherm of Carbon Dioxide, Hydrogen sulfide, Methane on Zeolite 5A
DOI: 10.1021/je400298r
Article source: Figure 6
Adsorbate Carbon Dioxide: InChIKey CURLTUGMZLYLDI-UHFFFAOYSA-N
Adsorbate Hydrogen sulfide: InChIKey RWSOTUBLDIXVET-UHFFFAOYSA-N
Adsorbate Methane: InChIKey VNWKTOKETHGBQD-UHFFFAOYSA-N
Kind: experiment
Temperature: 298 K
Tabular data in the source: 0
pressure (bar)	Carbon Dioxide fraction	Carbon Dioxide uptake (mmol/g)	Hydrogen sulfide fraction	Hydrogen sulfide uptake (mmol/g)	Methane fraction	Methane uptake (mmol/g)	total uptake (mmol/g)
1.3			0.000162	0.359			
1.3			0.000363	0.732			
1.3			0.000598	0.996			
1.3			0.000782	1.052			
1.3			0.001006	1.255			
1.3			0.00122	1.359			
1.3			0.001421	1.412			
1.3			0.00162	1.459			
1.3			0.00181	1.526			
1.3			0.00203	1.557			
