Adsorption isotherm of Carbon Dioxide, Hydrogen sulfide, Methane on silica alumina gel
DOI: 10.1021/je400298r
Article source: Figure 4
Adsorbate Carbon Dioxide: InChIKey CURLTUGMZLYLDI-UHFFFAOYSA-N
Adsorbate Hydrogen sulfide: InChIKey RWSOTUBLDIXVET-UHFFFAOYSA-N
Adsorbate Methane: InChIKey VNWKTOKETHGBQD-UHFFFAOYSA-N
Kind: experiment
Temperature: 298 K
Tabular data in the source: 0
pressure (bar)	Carbon Dioxide fraction	Carbon Dioxide uptake (mmol/g)	Hydrogen sulfide fraction	Hydrogen sulfide uptake (mmol/g)	Methane fraction	Methane uptake (mmol/g)	total uptake (mmol/g)
1.3			0.000103	0.002247			
1.3			0.00021	0.00427			
1.3			0.000408	0.0075			
1.3			0.000612	0.0121			
1.3			0.000807	0.0152			
1.3			0.001005	0.0184			
1.3			0.00121	0.0227			
1.3			0.0014	0.0253			
1.3			0.001606	0.0288			
1.3			0.00179	0.0318			
1.3			0.001997	0.0356			
