Adsorption isotherm of Hydrogen sulfide, Methane on Zeolite 5A
DOI: 10.1021/je400298r
Article source: Figure 3
Adsorbate Hydrogen sulfide: InChIKey RWSOTUBLDIXVET-UHFFFAOYSA-N
Adsorbate Methane: InChIKey VNWKTOKETHGBQD-UHFFFAOYSA-N
Kind: experiment
Temperature: 298 K
Tabular data in the source: 0
pressure (bar)	Hydrogen sulfide fraction	Hydrogen sulfide uptake (mmol/g)	Methane fraction	Methane uptake (mmol/g)	total uptake (mmol/g)
1.3	8.2e-05	0.2723			
1.3	0.000193	0.6738			
1.3	0.000398	0.9812			
1.3	0.000653	1.1292			
1.3	0.000782	1.295			
1.3	0.00095	1.296			
1.3	0.001275	1.4192			
1.3	0.001516	1.5219			
1.3	0.001082	1.375			
1.3	0.001788	1.5152			
1.3	0.001984	1.6382			
1.3	0.002189	1.7353			
