Adsorption isotherm of Methane, Water on Zeolite 5A
DOI: 10.1021/je400298r
Article source: Figure 3
Adsorbate Methane: InChIKey VNWKTOKETHGBQD-UHFFFAOYSA-N
Adsorbate Water: InChIKey XLYOFNOQVPJJNP-UHFFFAOYSA-N
Kind: experiment
Temperature: 298 K
Tabular data in the source: 0
pressure (bar)	Methane fraction	Methane uptake (mmol/g)	Water fraction	Water uptake (mmol/g)	total uptake (mmol/g)
1.3			0.000202	7.22	
1.3			0.000522	7.36	
1.3			0.000922	6.98	
1.3			0.001266	7.38	
1.3			0.001609	7.88	
1.3			0.001818	6.99	
