Adsorption isotherm of Methanethiol, Methane on silica alumina gel
DOI: 10.1021/je400298r
Article source: Figure 2
Adsorbate Methanethiol: InChIKey LSDPWZHWYPCBBB-UHFFFAOYSA-N
Adsorbate Methane: InChIKey VNWKTOKETHGBQD-UHFFFAOYSA-N
Kind: experiment
Temperature: 298 K
Tabular data in the source: 0
pressure (bar)	Methanethiol fraction	Methanethiol uptake (mmol/g)	Methane fraction	Methane uptake (mmol/g)	total uptake (mmol/g)
1.3	9.6e-05	0.0635			
1.3	0.000211	0.099			
1.3	0.000405	0.1993			
1.3	0.000572	0.2355			
1.3	0.000795	0.2984			
1.3	0.001071	0.313			
1.3	0.001221	0.3665			
1.3	0.001496	0.4368			
1.3	0.001909	0.4949			
1.3	0.002002	0.5047			
