Adsorption isotherm of Nitric oxide on ZIF-10
DOI: 10.1002/Aic.14467
Adsorbate Nitric oxide: InChIKey MWUXSHHQAYIFBG-UHFFFAOYSA-N
Temperature: 313 K
Tabular data in the source: 0
pressure (bar)	uptake (mmol/g)
0.506122	0.17628
0.755102	0.276681
1.00408	0.385279
