Adsorption isotherm of Carbon Dioxide on CuBTC
DOI: 10.1002/Aic.14467
Adsorbate Carbon Dioxide: InChIKey CURLTUGMZLYLDI-UHFFFAOYSA-N
Temperature: 313 K
Tabular data in the source: 0
pressure (bar)	uptake (mmol/g)
0.0991736	0.168994
0.252066	0.26717
0.504132	0.327444
0.747934	0.456968
1.00413	0.551582
