Adsorption isotherm of Nitrogen on ZIF-10
DOI: 10.1002/Aic.14467
Adsorbate Nitrogen: InChIKey IJGRMHOSHXDMSA-UHFFFAOYSA-N
Temperature: 313 K
Tabular data in the source: 0
pressure (bar)	uptake (mmol/g)
0.24898	0.0364153
0.497959	0.0706566
0.746939	0.107072
1.00408	0.143469
