Adsorption isotherm of Carbon Dioxide on Mg-MOF-74
DOI: 10.1002/Aic.14467
Adsorbate Carbon Dioxide: InChIKey CURLTUGMZLYLDI-UHFFFAOYSA-N
Temperature: 313 K
Tabular data in the source: 0
pressure (bar)	uptake (mmol/g)
0.053719	0.342975
0.0950413	0.651895
0.247934	1.50869
0.495868	3.01738
0.752066	4.14648
1.00413	4.89641
