Adsorption isotherm of Nitrous Oxides on Zn-MOF-74
DOI: 10.1002/Aic.14467
Adsorbate Nitrous Oxides: InChIKey NIST-ISODB-D45B7605C76C77F207BA
Temperature: 313 K
Tabular data in the source: 0
pressure (bar)	uptake (mmol/g)
0.0536003	4.31034e-05
0.111404	6.03448e-05
0.259998	0.00012069
0.503372	0.000275862
0.750974	0.000396552
1.00689	0.0005
