Adsorption isotherm of Carbon Dioxide on MOF-177
DOI: 10.1002/Aic.14467
Adsorbate Carbon Dioxide: InChIKey CURLTUGMZLYLDI-UHFFFAOYSA-N
Temperature: 298 K
Tabular data in the source: 0
pressure (bar)	uptake (mmol/g)
0.0646206	0.271552
0.108796	0.270749
0.161052	0.306163
0.189262	0.378377
0.221462	0.432337
0.301928	0.539965
0.338169	0.612033
0.378401	0.665847
0.426642	0.701334
0.454826	0.755367
0.490994	0.772891
0.519155	0.808743
0.539259	0.826559
0.587524	0.880227
0.607677	0.934406
0.635861	0.988439
0.663973	0.987928
0.688166	1.06022
0.720367	1.11418
0.752568	1.16814
0.792727	1.1674
0.837	1.23933
0.861194	1.31161
0.897459	1.40186
0.937619	1.40113
