Adsorption isotherm of Carbon Dioxide on ZIF-8
DOI: 10.1002/Aic.14467
Adsorbate Carbon Dioxide: InChIKey CURLTUGMZLYLDI-UHFFFAOYSA-N
Temperature: 313 K
Tabular data in the source: 0
pressure (bar)	uptake (mmol/g)
0.00402667	0.054129
0.0525667	0.160187
0.105177	0.211675
0.246815	0.367021
0.497745	0.570775
0.740489	0.992365
0.995489	1.14155
