Adsorption isotherm of Carbon Dioxide on MIL-47
DOI: 10.1002/Aic.14467
Adsorbate Carbon Dioxide: InChIKey CURLTUGMZLYLDI-UHFFFAOYSA-N
Temperature: 313 K
Tabular data in the source: 0
pressure (bar)	uptake (mmol/g)
0.10916	0.374502
0.266926	0.692015
0.497481	1.22296
0.748278	1.75281
0.995005	2.33723
