Adsorption isotherm of Carbon Dioxide on Cu-BTC
DOI: 10.1002/Aic.14467
Adsorbate Carbon Dioxide: InChIKey CURLTUGMZLYLDI-UHFFFAOYSA-N
Temperature: 313 K
Tabular data in the source: 0
pressure (bar)	uptake (mmol/g)
0.0524787	0.377583
0.100975	0.592338
0.25467	0.96442
0.497283	1.7121
0.74808	2.24195
1.00293	2.77158
