Adsorption isotherm of Nitrous Oxides on IRMOF-1
DOI: 10.1002/Aic.14467
Adsorbate Nitrous Oxides: InChIKey NIST-ISODB-D45B7605C76C77F207BA
Temperature: 313 K
Tabular data in the source: 0
pressure (bar)	uptake (mmol/g)
0.499634	0.00013286
0.743347	0.000165057
1.0076	0.000239935
