Adsorption isotherm of Carbon Dioxide on DDR
DOI: 10.1002/Aic.14467
Adsorbate Carbon Dioxide: InChIKey CURLTUGMZLYLDI-UHFFFAOYSA-N
Temperature: 298 K
Tabular data in the source: 0
pressure (bar)	uptake (mmol/g)
0.158963	0.259197
0.378043	0.489144
0.577239	0.690305
0.796435	0.89135
0.975745	1.06372
1.97357	1.60709
3.01221	1.94791
3.99154	2.11566
4.99098	2.25439
