Adsorption isotherm of Oxygen on MIL-47
DOI: 10.1002/Aic.14467
Adsorbate Oxygen: InChIKey MYMOFIZGZYHOMD-UHFFFAOYSA-N
Temperature: 313 K
Tabular data in the source: 0
pressure (bar)	uptake (mmol/g)
0.247534	0.0852675
0.495113	0.161791
0.746712	0.247023
0.994291	0.323547
