Adsorption isotherm of Sulfur dioxide on MFI
DOI: 10.1002/Aic.14467
Adsorbate Sulfur dioxide: InChIKey RAHZWNYVWXNFOC-UHFFFAOYSA-N
Temperature: 313 K
Tabular data in the source: 0
pressure (bar)	uptake (mmol/g)
-2.4869e-16	0.645161
0.0487805	1.27459
0.0934959	1.58274
0.247967	2.82324
0.504065	2.57933
0.743902	2.66326
1	2.74194
