Adsorption isotherm of Nitrogen on ZIF-8
DOI: 10.1002/Aic.14467
Adsorbate Nitrogen: InChIKey IJGRMHOSHXDMSA-UHFFFAOYSA-N
Temperature: 313 K
Tabular data in the source: 0
pressure (bar)	uptake (mmol/g)
-0.00408163	0.00218279
0.0489796	0.00424135
0.102041	0.0128217
0.244898	0.0320763
0.506122	0.0619432
0.742857	0.0940373
1	0.128261
