Adsorption isotherm of Sulfur dioxide on CuBTC
DOI: 10.1002/Aic.14467
Adsorbate Sulfur dioxide: InChIKey RAHZWNYVWXNFOC-UHFFFAOYSA-N
Temperature: 313 K
Tabular data in the source: 0
pressure (bar)	uptake (mmol/g)
0.0492466	0.0132271
0.238309	0.0363413
0.493271	0.0541003
0.744116	0.0719067
0.994914	0.0943113
