Adsorption isotherm of Nitrous Oxides on MOF-177
DOI: 10.1002/Aic.14467
Adsorbate Nitrous Oxides: InChIKey NIST-ISODB-D45B7605C76C77F207BA
Temperature: 313 K
Tabular data in the source: 0
pressure (bar)	uptake (mmol/g)
0.503657	0.000172414
0.755605	0.000215517
0.999121	0.000318966
