Adsorption isotherm of Nitrogen on MFI
DOI: 10.1002/Aic.14467
Adsorbate Nitrogen: InChIKey IJGRMHOSHXDMSA-UHFFFAOYSA-N
Temperature: 313 K
Tabular data in the source: 0
pressure (bar)	uptake (mmol/g)
0.0489796	0.00411252
0.0979592	0.00606288
0.253061	0.0183651
0.506122	0.0345681
0.75102	0.0486442
0.995918	0.0627204
