Adsorption isotherm of Carbon Dioxide on Zeolite FAU
DOI: 10.1002/Aic.14467
Adsorbate Carbon Dioxide: InChIKey CURLTUGMZLYLDI-UHFFFAOYSA-N
Temperature: 313 K
Tabular data in the source: 0
pressure (bar)	uptake (mmol/g)
0.0365854	1.77636e-15
0.097561	0.0543478
0.252033	0.108696
0.504065	0.163043
0.747967	0.271739
1	0.326087
