Adsorption isotherm of Nitrogen Dioxide on ZIF-8
DOI: 10.1002/Aic.14467
Adsorbate Nitrogen Dioxide: InChIKey JCXJVPUVTGWSNB-UHFFFAOYSA-N
Temperature: 313 K
Tabular data in the source: 0
pressure (bar)	uptake (mmol/g)
-0.00408713	0.0108696
0.0528013	0.0217391
0.101493	0.0652174
0.247636	0.163043
0.499315	0.336957
0.750972	0.521739
0.994565	0.673913
