Adsorption isotherm of Carbon Dioxide on MFI
DOI: 10.1002/Aic.14467
Adsorbate Carbon Dioxide: InChIKey CURLTUGMZLYLDI-UHFFFAOYSA-N
Temperature: 303 K
Tabular data in the source: 0
pressure (bar)	uptake (mmol/g)
0.308943	0.308943
0.439024	1.08557
0.699187	1.31721
0.845528	1.41677
0.910569	1.58123
0.99187	1.61469
1.26829	1.7481
1.60976	1.94762
2.09756	2.11555
2.60163	2.28362
3.12195	2.32067
4.0813	2.49247
