Adsorption isotherm of Nitrogen Dioxide on MOF-177
DOI: 10.1002/Aic.14467
Adsorbate Nitrogen Dioxide: InChIKey JCXJVPUVTGWSNB-UHFFFAOYSA-N
Temperature: 313 K
Tabular data in the source: 0
pressure (bar)	uptake (mmol/g)
0.24757	0.195652
0.491075	0.391304
0.746774	0.586957
0.998431	0.771739
