Adsorption isotherm of Sulfur dioxide on MOF-177
DOI: 10.1002/Aic.14467
Adsorbate Sulfur dioxide: InChIKey RAHZWNYVWXNFOC-UHFFFAOYSA-N
Temperature: 313 K
Tabular data in the source: 0
pressure (bar)	uptake (mmol/g)
0.731707	4.1188
0.788618	4.9069
0.853659	5.53108
0.894309	6.48571
0.943089	13.4055
0.99187	26.6155
