Adsorption isotherm of Oxygen on ZIF-8
DOI: 10.1002/Aic.14467
Adsorbate Oxygen: InChIKey MYMOFIZGZYHOMD-UHFFFAOYSA-N
Temperature: 313 K
Tabular data in the source: 0
pressure (bar)	uptake (mmol/g)
0	-1.11022e-16
0.0528257	0.00390972
0.101564	0.0122268
0.247779	0.0371779
0.515839	0.0829216
0.755509	0.115799
0.999245	0.14864
