Adsorption isotherm of Nitrogen on CuBTC
DOI: 10.1002/Aic.14467
Adsorbate Nitrogen: InChIKey IJGRMHOSHXDMSA-UHFFFAOYSA-N
Temperature: 313 K
Tabular data in the source: 0
pressure (bar)	uptake (mmol/g)
0.0489796	0.0238066
0.0979592	0.0367436
0.24898	0.0777196
0.493878	0.146752
0.746939	0.21142
0.995918	0.27827
