Adsorption isotherm of Nitric oxide on Cu-BTC
DOI: 10.1002/Aic.14467
Adsorbate Nitric oxide: InChIKey MWUXSHHQAYIFBG-UHFFFAOYSA-N
Temperature: 313 K
Tabular data in the source: 0
pressure (bar)	uptake (mmol/g)
0.0489796	0.0823687
0.0979592	0.148344
0.244898	0.338073
0.502041	0.610672
0.746939	0.883172
1	1.11475
