Adsorption isotherm of Nitrogen Dioxide on CuBTC
DOI: 10.1002/Aic.14467
Adsorbate Nitrogen Dioxide: InChIKey JCXJVPUVTGWSNB-UHFFFAOYSA-N
Temperature: 313 K
Tabular data in the source: 0
pressure (bar)	uptake (mmol/g)
0.00799753	0.0652174
0.0483828	0.195652
0.0968761	0.336957
0.24662	0.663043
0.493659	1.11957
0.744985	1.46739
1.00038	1.81522
