Adsorption isotherm of Nitrous Oxides on Mg-MOF-74
DOI: 10.1002/Aic.14467
Adsorbate Nitrous Oxides: InChIKey NIST-ISODB-D45B7605C76C77F207BA
Temperature: 313 K
Tabular data in the source: 0
pressure (bar)	uptake (mmol/g)
0.11138	6.89655e-05
0.255842	0.00012931
0.503515	0.000224138
0.74696	0.000353448
1.00698	0.000465517
