Adsorption isotherm of Nitrous Oxides on Cu-BTC
DOI: 10.1002/Aic.14467
Adsorbate Nitrous Oxides: InChIKey NISTSRD205-D45B7605C76C77F207BA
Temperature: 313 K
Tabular data in the source: 0
pressure (bar)	uptake (mmol/g)
0.0493493	8.62069e-05
0.102902	0.000146552
0.251235	0.000301724
0.498338	0.000603448
0.749834	0.000810345
1.00945	0.00106897
