Adsorption isotherm of Nitrous Oxides on Zeolite FAU
DOI: 10.1002/Aic.14467
Adsorbate Nitrous Oxides: InChIKey NISTSRD205-D45B7605C76C77F207BA
Temperature: 313 K
Tabular data in the source: 0
pressure (bar)	uptake (mmol/g)
0.0867317	1.63994e-05
0.256134	2.35189e-05
0.508182	2.99299e-05
0.74781	4.50188e-05
1.00397	5.9966e-05
