Adsorption isotherm of Sulfur dioxide on CuBTC
DOI: 10.1002/Aic.14467
Adsorbate Sulfur dioxide: InChIKey RAHZWNYVWXNFOC-UHFFFAOYSA-N
Temperature: 313 K
Tabular data in the source: 0
pressure (bar)	uptake (mmol/g)
0.097561	2.22659
0.252033	8.95096
0.49187	12.0994
0.743902	12.9858
1	13.3871
