Adsorption isotherm of Carbon Dioxide on ZIF-10
DOI: 10.1002/Aic.14467
Adsorbate Carbon Dioxide: InChIKey CURLTUGMZLYLDI-UHFFFAOYSA-N
Temperature: 313 K
Tabular data in the source: 0
pressure (bar)	uptake (mmol/g)
0.0487805	-0.0569989
0.101626	-0.00552315
0.247967	0.149567
0.5	0.353261
0.747967	0.611524
0.995935	0.706743
