Adsorption isotherm of Sulfur dioxide on MFI
DOI: 10.1002/Aic.14467
Adsorbate Sulfur dioxide: InChIKey RAHZWNYVWXNFOC-UHFFFAOYSA-N
Temperature: 313 K
Tabular data in the source: 0
pressure (bar)	uptake (mmol/g)
0.501951	0.0103224
0.752892	0.0189323
0.995624	0.0253377
