Adsorption isotherm of Nitric oxide on IRMOF-1
DOI: 10.1002/Aic.14467
Adsorbate Nitric oxide: InChIKey MWUXSHHQAYIFBG-UHFFFAOYSA-N
Temperature: 313 K
Tabular data in the source: 0
pressure (bar)	uptake (mmol/g)
0.497959	0.195652
0.75102	0.285326
1	0.391304
