Adsorption isotherm of Sulfur dioxide on Mg-MOF-74
DOI: 10.1002/Aic.14467
Adsorbate Sulfur dioxide: InChIKey RAHZWNYVWXNFOC-UHFFFAOYSA-N
Temperature: 313 K
Tabular data in the source: 0
pressure (bar)	uptake (mmol/g)
0.00813008	1.30435
0.0487805	8.31522
0.097561	10.7609
0.252033	12.2283
0.504065	13.2065
0.747967	13.6957
0.995935	13.6957
