Adsorption isotherm of Carbon Dioxide on Mg-MOF-74
DOI: 10.1002/Aic.14467
Adsorbate Carbon Dioxide: InChIKey CURLTUGMZLYLDI-UHFFFAOYSA-N
Temperature: 298 K
Tabular data in the source: 0
pressure (bar)	uptake (mmol/g)
0.00420168	0.488317
0.0504202	2.07932
0.0966387	4.03618
0.193277	5.99918
0.298319	6.9876
0.39916	7.4877
0.5	7.9878
0.596639	8.12154
0.697479	8.49969
0.794118	8.75538
0.89916	9.01209
0.995798	9.02388
1.04202	9.15147
