Adsorption isotherm of Carbon Dioxide on Zn-MOF-74
DOI: 10.1002/Aic.14467
Adsorbate Carbon Dioxide: InChIKey CURLTUGMZLYLDI-UHFFFAOYSA-N
Temperature: 313 K
Tabular data in the source: 0
pressure (bar)	uptake (mmol/g)
0.0565714	0.268665
0.0929434	0.429731
0.250776	0.584197
0.505644	1.05948
0.752415	1.53519
1.00326	1.95634
