Adsorption isotherm of Nitrogen on Mg-MOF-74
DOI: 10.1002/Aic.14467
Adsorbate Nitrogen: InChIKey IJGRMHOSHXDMSA-UHFFFAOYSA-N
Temperature: 313 K
Tabular data in the source: 0
pressure (bar)	uptake (mmol/g)
0.0653061	0.0172493
0.110204	0.0323691
0.24898	0.0646761
0.502041	0.131517
0.746939	0.189681
0.995918	0.250009
