Adsorption isotherm of Carbon Dioxide on Zn-MOF-74
DOI: 10.1002/Aic.14467
Adsorbate Carbon Dioxide: InChIKey CURLTUGMZLYLDI-UHFFFAOYSA-N
Temperature: 313 K
Tabular data in the source: 0
pressure (bar)	uptake (mmol/g)
0	0.137931
0.0454545	0.0673981
0.0950413	0.0656882
0.243802	0.0605586
0.504132	0.15503
0.756198	0.215304
1.00826	0.344543
