Adsorption isotherm of Nitrous Oxides on DDR
DOI: 10.1002/Aic.14467
Adsorbate Nitrous Oxides: InChIKey NIST-ISODB-D45B7605C76C77F207BA
Temperature: 313 K
Tabular data in the source: 0
pressure (bar)	uptake (mmol/g)
0.123923	1.60807e-05
0.256063	4.92337e-05
0.499823	6.42872e-05
0.743512	0.000105056
0.999646	0.000128574
