Adsorption isotherm of Carbon Dioxide on ZIF-8
DOI: 10.1002/Aic.14467
Adsorbate Carbon Dioxide: InChIKey CURLTUGMZLYLDI-UHFFFAOYSA-N
Temperature: 298 K
Tabular data in the source: 0
pressure (bar)	uptake (mmol/g)
-2.22045e-16	0.0462428
0.0441767	0.0924855
0.0963855	0.208092
0.196787	0.393064
0.297189	0.578035
0.39759	0.739884
0.497992	0.901734
0.598394	1.08671
0.698795	1.24855
0.799197	1.4104
0.899598	1.59538
0.995984	1.78035
