Adsorption isotherm of Nitrogen Dioxide on Zeolite FAU
DOI: 10.1002/Aic.14467
Adsorbate Nitrogen Dioxide: InChIKey JCXJVPUVTGWSNB-UHFFFAOYSA-N
Temperature: 313 K
Tabular data in the source: 0
pressure (bar)	uptake (mmol/g)
0.0938776	0.0314175
0.253061	0.0621291
0.497959	0.091914
0.75102	0.099989
1.00408	0.140496
