Adsorption isotherm of Nitrogen Dioxide on DDR
DOI: 10.1002/Aic.14467
Adsorbate Nitrogen Dioxide: InChIKey JCXJVPUVTGWSNB-UHFFFAOYSA-N
Temperature: 313 K
Tabular data in the source: 0
pressure (bar)	uptake (mmol/g)
0.24898	0.105416
0.497959	0.156779
0.746939	0.229763
0.995918	0.281125
