Adsorption isotherm of Nitrogen Dioxide on MIL-47
DOI: 10.1002/Aic.14467
Adsorbate Nitrogen Dioxide: InChIKey JCXJVPUVTGWSNB-UHFFFAOYSA-N
Temperature: 313 K
Tabular data in the source: 0
pressure (bar)	uptake (mmol/g)
0.0972075	0.173913
0.247084	0.434783
0.498188	0.891304
0.74525	1.33696
0.996421	1.76087
