Adsorption isotherm of Nitric oxide on Zn-MOF-74
DOI: 10.1002/Aic.14467
Adsorbate Nitric oxide: InChIKey MWUXSHHQAYIFBG-UHFFFAOYSA-N
Temperature: 313 K
Tabular data in the source: 0
pressure (bar)	uptake (mmol/g)
0.0489796	0.0413851
0.102041	0.0664102
0.257143	0.157845
0.506122	0.323821
0.75102	0.481566
1.00408	0.639378
