Adsorption isotherm of Sulfur dioxide on MIL-47
DOI: 10.1002/Aic.14467
Adsorbate Sulfur dioxide: InChIKey RAHZWNYVWXNFOC-UHFFFAOYSA-N
Temperature: 313 K
Tabular data in the source: 0
pressure (bar)	uptake (mmol/g)
0.242591	0.0202001
0.493412	0.0403056
0.744211	0.0627102
0.999125	0.0850675
