Adsorption isotherm of Sulfur dioxide on ZIF-8
DOI: 10.1002/Aic.14467
Adsorbate Sulfur dioxide: InChIKey RAHZWNYVWXNFOC-UHFFFAOYSA-N
Temperature: 313 K
Tabular data in the source: 0
pressure (bar)	uptake (mmol/g)
-0.00825508	0.00239374
0.0493649	0.00173144
0.0946377	0.00121106
0.255103	0.00396433
0.501975	0.00802328
0.748918	0.00518485
0.999953	0.00459824
