Adsorption isotherm of Nitric oxide on MIL-47
DOI: 10.1002/Aic.14467
Adsorbate Nitric oxide: InChIKey MWUXSHHQAYIFBG-UHFFFAOYSA-N
Temperature: 313 K
Tabular data in the source: 0
pressure (bar)	uptake (mmol/g)
0.102041	0.0746069
0.24898	0.206959
0.493878	0.422081
0.742857	0.661827
1	0.885246
