Adsorption isotherm of Nitrous Oxides on MFI
DOI: 10.1002/Aic.14467
Adsorbate Nitrous Oxides: InChIKey NIST-ISODB-D45B7605C76C77F207BA
Temperature: 313 K
Tabular data in the source: 0
pressure (bar)	uptake (mmol/g)
0.0536731	1.66828e-05
0.103261	1.62578e-05
0.256086	4.06621e-05
0.503884	8.99667e-05
0.759994	0.000122057
1.00371	0.000154254
