Adsorption isotherm of Nitrogen on Zeolite FAU
DOI: 10.1002/Aic.14467
Adsorbate Nitrogen: InChIKey IJGRMHOSHXDMSA-UHFFFAOYSA-N
Temperature: 313 K
Tabular data in the source: 0
pressure (bar)	uptake (mmol/g)
0.0408163	0.00198566
0.102041	0.00820739
0.244898	0.011914
0.502041	0.0259371
0.75102	0.0399956
1	0.0497297
