Adsorption isotherm of Sulfur dioxide on IRMOF-1
DOI: 10.1002/Aic.14467
Adsorbate Sulfur dioxide: InChIKey RAHZWNYVWXNFOC-UHFFFAOYSA-N
Temperature: 313 K
Tabular data in the source: 0
pressure (bar)	uptake (mmol/g)
0.804878	4.25649
0.845528	16.1789
0.894309	18.7438
0.943089	19.2119
1	19.5161
