Adsorption isotherm of Nitrogen on MOF-177
DOI: 10.1002/Aic.14467
Adsorbate Nitrogen: InChIKey IJGRMHOSHXDMSA-UHFFFAOYSA-N
Temperature: 313 K
Tabular data in the source: 0
pressure (bar)	uptake (mmol/g)
0.0897959	0.0302396
0.257143	0.0603106
0.506122	0.120639
0.75102	0.176628
1.00816	0.230417
