Adsorption isotherm of Nitrous Oxides on ZIF-8
DOI: 10.1002/Aic.14467
Adsorbate Nitrous Oxides: InChIKey NIST-ISODB-D45B7605C76C77F207BA
Temperature: 313 K
Tabular data in the source: 0
pressure (bar)	uptake (mmol/g)
0.00413223	0
0.0660682	1.72414e-05
0.107343	3.44828e-05
0.251924	5.17241e-05
0.495535	0.00012069
0.751544	0.000189655
1.00347	0.000241379
