Adsorption isotherm of Oxygen on CuBTC
DOI: 10.1002/Aic.14467
Adsorbate Oxygen: InChIKey MYMOFIZGZYHOMD-UHFFFAOYSA-N
Temperature: 313 K
Tabular data in the source: 0
pressure (bar)	uptake (mmol/g)
0.0485605	0.0432913
0.0972543	0.0603519
0.243291	0.120277
0.498911	0.214217
0.742292	0.317007
1.002	0.40654
