Adsorption isotherm of Carbon Dioxide on IRMOF-1
DOI: 10.1002/Aic.14467
Adsorbate Carbon Dioxide: InChIKey CURLTUGMZLYLDI-UHFFFAOYSA-N
Temperature: 298 K
Tabular data in the source: 0
pressure (bar)	uptake (mmol/g)
-0.00320856	0.008934
0.0449198	0.0635467
0.0994652	0.0823273
0.208556	0.164799
0.314439	0.265186
0.545455	0.484213
0.79893	0.676631
