Adsorption isotherm of Carbon Dioxide on IRMOF-1
DOI: 10.1002/Aic.14467
Adsorbate Carbon Dioxide: InChIKey CURLTUGMZLYLDI-UHFFFAOYSA-N
Temperature: 298 K
Tabular data in the source: 0
pressure (bar)	uptake (mmol/g)
0.00641711	0.0265323
0.0481283	0.0614182
0.102674	0.113866
0.19893	0.192324
0.298396	0.261858
0.394652	0.340316
0.497326	0.427554
0.596791	0.523716
0.699465	0.602079
0.802139	0.698193
