Adsorption isotherm of Carbon Dioxide on MIL-47
DOI: 10.1002/Aic.14467
Adsorbate Carbon Dioxide: InChIKey CURLTUGMZLYLDI-UHFFFAOYSA-N
Temperature: 298 K
Tabular data in the source: 0
pressure (bar)	uptake (mmol/g)
0	-0.0555556
0.0521739	0.0584541
0.1	0.283333
0.2	0.455556
0.304348	0.572464
0.443478	0.802415
0.778261	1.54324
1.08696	2.22705
