Adsorption isotherm of Carbon Dioxide on DDR
DOI: 10.1002/Aic.14467
Adsorbate Carbon Dioxide: InChIKey CURLTUGMZLYLDI-UHFFFAOYSA-N
Temperature: 313 K
Tabular data in the source: 0
pressure (bar)	uptake (mmol/g)
0.109756	0.108696
0.260163	0.271739
0.5	0.48913
0.756098	0.48913
0.995935	0.706522
