Adsorption isotherm of Carbon Dioxide on Mg-MOF-74
DOI: 10.1002/Aic.14467
Adsorbate Carbon Dioxide: InChIKey CURLTUGMZLYLDI-UHFFFAOYSA-N
Temperature: 298 K
Tabular data in the source: 0
pressure (bar)	uptake (mmol/g)
0.00420168	1.09807
0.012605	2.07471
0.0336134	3.17483
0.0588235	4.03156
0.0714286	4.52091
0.10084	5.0123
0.138655	5.26081
0.159664	5.50728
0.205882	5.75681
0.247899	5.88389
0.306723	6.13497
0.352941	6.50646
0.403361	6.51261
0.445378	6.76163
0.5	6.89024
0.55042	6.89639
0.60084	7.14644
0.651261	7.27454
0.693277	7.40162
0.747899	7.40828
0.798319	7.65833
0.848739	7.66448
0.89916	7.67063
0.957983	7.79975
1	7.80488
1.04622	7.93247
