Adsorption isotherm of Sulfur dioxide on DDR
DOI: 10.1002/Aic.14467
Adsorbate Sulfur dioxide: InChIKey RAHZWNYVWXNFOC-UHFFFAOYSA-N
Temperature: 313 K
Tabular data in the source: 0
pressure (bar)	uptake (mmol/g)
0.247967	1.1413
0.495935	1.79348
0.747967	1.79348
1.00407	1.79348
