Adsorption isotherm of Carbon Dioxide on MFI
DOI: 10.1002/Aic.14467
Adsorbate Carbon Dioxide: InChIKey CURLTUGMZLYLDI-UHFFFAOYSA-N
Temperature: 303 K
Tabular data in the source: 0
pressure (bar)	uptake (mmol/g)
0.0162602	0.00013328
0.097561	0.164734
0.227642	0.395309
0.504065	0.692656
0.97561	1.15554
1.47967	1.48754
1.98374	1.68839
2.52033	1.9223
2.99187	2.05731
3.49593	2.12702
3.98374	2.26216
