Adsorption isotherm of Nitric oxide on ZIF-8
DOI: 10.1002/Aic.14467
Adsorbate Nitric oxide: InChIKey MWUXSHHQAYIFBG-UHFFFAOYSA-N
Temperature: 313 K
Tabular data in the source: 0
pressure (bar)	uptake (mmol/g)
0.00816327	-0.00812981
0.0489796	0.000401472
0.0979592	0.0335898
0.24898	0.0676146
0.497959	0.168016
0.759184	0.260321
1.00816	0.336132
