Adsorption isotherm of Carbon Dioxide on MIL-47
DOI: 10.1002/Aic.14467
Adsorbate Carbon Dioxide: InChIKey CURLTUGMZLYLDI-UHFFFAOYSA-N
Temperature: 313 K
Tabular data in the source: 0
pressure (bar)	uptake (mmol/g)
0.256198	0.163579
0.504132	0.223995
0.752066	0.284412
1.00826	0.344543
