Adsorption isotherm of Nitrogen Dioxide on Mg-MOF-74
DOI: 10.1002/Aic.14467
Adsorbate Nitrogen Dioxide: InChIKey JCXJVPUVTGWSNB-UHFFFAOYSA-N
Temperature: 313 K
Tabular data in the source: 0
pressure (bar)	uptake (mmol/g)
0.0567559	0.076087
0.247305	0.326087
0.4905	0.673913
0.745891	1.02174
0.997238	1.3587
