Adsorption isotherm of Carbon Dioxide on MOF-177
DOI: 10.1002/Aic.14467
Adsorbate Carbon Dioxide: InChIKey CURLTUGMZLYLDI-UHFFFAOYSA-N
Temperature: 298 K
Tabular data in the source: 0
pressure (bar)	uptake (mmol/g)
2.43392e-05	0.0181814
0.044273	0.0719223
0.100545	0.107263
0.197123	0.250961
0.301684	0.358151
0.402278	0.501777
0.494767	0.591004
0.603369	0.716302
0.703938	0.841747
0.804459	0.930828
0.905004	1.03809
0.997542	1.16368
