Adsorption isotherm of Carbon Dioxide on ZIF-8
DOI: 10.1002/Aic.14467
Adsorbate Carbon Dioxide: InChIKey CURLTUGMZLYLDI-UHFFFAOYSA-N
Temperature: 298 K
Tabular data in the source: 0
pressure (bar)	uptake (mmol/g)
0.00401606	0.0693642
0.064257	0.138728
0.13253	0.184971
0.26506	0.300578
0.666667	0.647399
0.895582	0.901734
