Adsorption isotherm of Sulfur dioxide on Zeolite FAU
DOI: 10.1002/Aic.14467
Adsorbate Sulfur dioxide: InChIKey RAHZWNYVWXNFOC-UHFFFAOYSA-N
Temperature: 313 K
Tabular data in the source: 0
pressure (bar)	uptake (mmol/g)
0.105691	0.449777
0.256098	0.562549
0.5	1.12903
0.752033	2.33805
0.995935	4.35615
