Adsorption isotherm of Nitric oxide on Zeolite FAU
DOI: 10.1002/Aic.14467
Adsorbate Nitric oxide: InChIKey MWUXSHHQAYIFBG-UHFFFAOYSA-N
Temperature: 313 K
Tabular data in the source: 0
pressure (bar)	uptake (mmol/g)
0.253061	0.0326087
0.502041	0.0407609
0.75102	0.0652174
1.00816	0.0896739
