Adsorption isotherm of Oxygen on Mg-MOF-74
DOI: 10.1002/Aic.14467
Adsorbate Oxygen: InChIKey MYMOFIZGZYHOMD-UHFFFAOYSA-N
Temperature: 313 K
Tabular data in the source: 0
pressure (bar)	uptake (mmol/g)
0.00804159	0.017416
0.0527146	0.0257686
0.101431	0.0384574
0.251688	0.0677448
0.499334	0.131153
0.751044	0.194526
0.998667	0.262307
