Adsorption isotherm of Nitrogen on IRMOF-1
DOI: 10.1002/Aic.14467
Adsorbate Nitrogen: InChIKey IJGRMHOSHXDMSA-UHFFFAOYSA-N
Temperature: 313 K
Tabular data in the source: 0
pressure (bar)	uptake (mmol/g)
0.506122	0.0880302
0.755102	0.135315
1.00408	0.173904
