Adsorption isotherm of Sulfur dioxide on MIL-47
DOI: 10.1002/Aic.14467
Adsorbate Sulfur dioxide: InChIKey RAHZWNYVWXNFOC-UHFFFAOYSA-N
Temperature: 313 K
Tabular data in the source: 0
pressure (bar)	uptake (mmol/g)
0.0447154	3.53396
0.0934959	6.26016
0.243902	8.30842
0.495935	9.19486
0.747967	9.59743
1	9.51613
