Adsorption isotherm of Oxygen on Zn-MOF-74
DOI: 10.1002/Aic.14467
Adsorbate Oxygen: InChIKey MYMOFIZGZYHOMD-UHFFFAOYSA-N
Temperature: 313 K
Tabular data in the source: 0
pressure (bar)	uptake (mmol/g)
0.0405411	0.0215035
0.0974098	0.0297494
0.251711	0.063373
0.491225	0.126853
0.751066	0.190155
1.0028	0.249156
