Adsorption isotherm of Nitrogen Dioxide on MFI
DOI: 10.1002/Aic.14467
Adsorbate Nitrogen Dioxide: InChIKey JCXJVPUVTGWSNB-UHFFFAOYSA-N
Temperature: 313 K
Tabular data in the source: 0
pressure (bar)	uptake (mmol/g)
0.0612245	0.0425814
0.102041	0.0745725
0.257143	0.116139
0.497959	0.232454
0.746939	0.316249
1	0.4
