Adsorption isotherm of Carbon Dioxide on Mg-MOF-74
DOI: 10.1002/Aic.14467
Adsorbate Carbon Dioxide: InChIKey CURLTUGMZLYLDI-UHFFFAOYSA-N
Temperature: 313 K
Tabular data in the source: 0
pressure (bar)	uptake (mmol/g)
0.0159967	0.488261
0.0557793	2.22523
0.103659	3.96176
0.248399	6.45389
0.498845	7.85332
0.745572	8.43774
1.00046	8.85867
