Adsorption isotherm of Oxygen on MOF-177
DOI: 10.1002/Aic.14467
Adsorbate Oxygen: InChIKey MYMOFIZGZYHOMD-UHFFFAOYSA-N
Temperature: 313 K
Tabular data in the source: 0
pressure (bar)	uptake (mmol/g)
0.0486272	0.0301759
0.0933002	0.0385285
0.251599	0.0852319
0.495179	0.148676
0.746846	0.220793
0.998556	0.284166
