Adsorption isotherm of Oxygen on Zeolite FAU
DOI: 10.1002/Aic.14467
Adsorbate Oxygen: InChIKey MYMOFIZGZYHOMD-UHFFFAOYSA-N
Temperature: 313 K
Tabular data in the source: 0
pressure (bar)	uptake (mmol/g)
0.253061	0.0120745
0.497959	0.0197892
0.75102	0.0318636
1.00408	0.0483337
