Adsorption isotherm of Sulfur dioxide on Zn-MOF-74
DOI: 10.1002/Aic.14467
Adsorbate Sulfur dioxide: InChIKey RAHZWNYVWXNFOC-UHFFFAOYSA-N
Temperature: 313 K
Tabular data in the source: 0
pressure (bar)	uptake (mmol/g)
0.105691	4.15945
0.252033	7.33805
0.495935	8.22712
0.747967	8.79098
1	8.87097
