Adsorption isotherm of Sulfur dioxide on ZIF-10
DOI: 10.1002/Aic.14467
Adsorbate Sulfur dioxide: InChIKey RAHZWNYVWXNFOC-UHFFFAOYSA-N
Temperature: 313 K
Tabular data in the source: 0
pressure (bar)	uptake (mmol/g)
0.0487805	0.306845
0.101626	1.25754
0.247967	1.6942
0.5	4.35484
0.739837	8.14844
0.995935	9.84002
