Adsorption isotherm of Sulfur dioxide on Mg-MOF-74
DOI: 10.1002/Aic.14467
Adsorbate Sulfur dioxide: InChIKey RAHZWNYVWXNFOC-UHFFFAOYSA-N
Temperature: 313 K
Tabular data in the source: 0
pressure (bar)	uptake (mmol/g)
0.0985169	0.024155
0.25042	0.0591906
0.49249	0.129971
0.742886	0.191461
0.993448	0.236857
