Adsorption isotherm of Oxygen on ZIF-10
DOI: 10.1002/Aic.14467
Adsorbate Oxygen: InChIKey MYMOFIZGZYHOMD-UHFFFAOYSA-N
Temperature: 313 K
Tabular data in the source: 0
pressure (bar)	uptake (mmol/g)
0.247734	0.0459215
0.499556	0.0874356
0.751333	0.137693
0.995046	0.174907
