Adsorption isotherm of Carbon Dioxide on CuBTC
DOI: 10.1002/Aic.14467
Adsorbate Carbon Dioxide: InChIKey CURLTUGMZLYLDI-UHFFFAOYSA-N
Temperature: 303 K
Tabular data in the source: 0
pressure (bar)	uptake (mmol/g)
0.00401606	0.0473373
0.0481928	0.331361
0.0963855	0.568047
0.196787	0.994083
0.297189	1.42012
0.39759	1.6568
0.48996	2.0355
0.598394	2.36686
0.694779	2.60355
0.799197	2.98225
0.899598	3.21893
1.00402	3.50296
