Adsorption isotherm of Sulfur dioxide on Zeolite FAU
DOI: 10.1002/Aic.14467
Adsorbate Sulfur dioxide: InChIKey RAHZWNYVWXNFOC-UHFFFAOYSA-N
Temperature: 313 K
Tabular data in the source: 0
pressure (bar)	uptake (mmol/g)
0.491794	-0.0056205
0.752131	-0.00631007
1.0042	-0.00690518
