Adsorption isotherm of Carbon Dioxide on ZIF-8
DOI: 10.1002/Aic.14467
Adsorbate Carbon Dioxide: InChIKey CURLTUGMZLYLDI-UHFFFAOYSA-N
Temperature: 313 K
Tabular data in the source: 0
pressure (bar)	uptake (mmol/g)
0.00413223	0.0343403
0.0413223	0.0330579
0.0991736	0.031063
0.252066	0.0602736
0.504132	0.0860644
0.752066	0.14648
1.00826	0.172129
