Adsorption isotherm of Sulfur dioxide on ZIF-8
DOI: 10.1002/Aic.14467
Adsorbate Sulfur dioxide: InChIKey RAHZWNYVWXNFOC-UHFFFAOYSA-N
Temperature: 313 K
Tabular data in the source: 0
pressure (bar)	uptake (mmol/g)
0.00406504	0.321269
0.0447154	0.953318
0.105691	1.41752
0.243902	4.11487
0.495935	5.80776
0.747967	6.53291
0.995935	7.09809
