Adsorption isotherm of Carbon Dioxide on MIL-47
DOI: 10.1002/Aic.14467
Adsorbate Carbon Dioxide: InChIKey CURLTUGMZLYLDI-UHFFFAOYSA-N
Temperature: 298 K
Tabular data in the source: 0
pressure (bar)	uptake (mmol/g)
9.65041e-05	0.220994
0.0438129	0.331492
0.0919443	0.552486
0.196893	0.883978
0.293155	1.32597
0.398104	1.65746
0.498709	2.0442
0.599339	2.48619
0.699969	2.92818
0.796256	3.42541
0.905643	3.92265
1.00622	4.25414
