Adsorption isotherm of Carbon Dioxide on CuBTC
DOI: 10.1002/Aic.14467
Adsorbate Carbon Dioxide: InChIKey CURLTUGMZLYLDI-UHFFFAOYSA-N
Temperature: 303 K
Tabular data in the source: 0
pressure (bar)	uptake (mmol/g)
0.0682731	0.236686
0.196787	0.899408
0.393574	1.75148
0.578313	2.4142
0.971888	3.64497
