Adsorption isotherm of Nitrogen Dioxide on Zn-MOF-74
DOI: 10.1002/Aic.14467
Adsorbate Nitrogen Dioxide: InChIKey JCXJVPUVTGWSNB-UHFFFAOYSA-N
Temperature: 313 K
Tabular data in the source: 0
pressure (bar)	uptake (mmol/g)
0.0526909	0.076087
0.109425	0.163043
0.247216	0.369565
0.498431	0.771739
0.753734	1.16304
0.996907	1.52174
