Adsorption isotherm of Nitric oxide on Mg-MOF-74
DOI: 10.1002/Aic.14467
Adsorbate Nitric oxide: InChIKey MWUXSHHQAYIFBG-UHFFFAOYSA-N
Temperature: 313 K
Tabular data in the source: 0
pressure (bar)	uptake (mmol/g)
0.0612245	0.0332887
0.114286	0.082904
0.257143	0.157845
0.502041	0.31559
0.755102	0.440616
1	0.598361
