Adsorption isotherm of Oxygen on MFI
DOI: 10.1002/Aic.14467
Adsorbate Oxygen: InChIKey MYMOFIZGZYHOMD-UHFFFAOYSA-N
Temperature: 313 K
Tabular data in the source: 0
pressure (bar)	uptake (mmol/g)
0.0530612	-0.00462884
0.102041	0.00394707
0.24898	0.0208836
0.502041	0.0417493
0.746939	0.0538596
1.00408	0.0659161
