Adsorption isotherm of Oxygen on IRMOF-1
DOI: 10.1002/Aic.14467
Adsorbate Oxygen: InChIKey MYMOFIZGZYHOMD-UHFFFAOYSA-N
Temperature: 313 K
Tabular data in the source: 0
pressure (bar)	uptake (mmol/g)
0.503488	0.113631
0.755243	0.16826
0.998889	0.218589
