Adsorption isotherm of Nitric oxide on DDR
DOI: 10.1002/Aic.14467
Adsorbate Nitric oxide: InChIKey MWUXSHHQAYIFBG-UHFFFAOYSA-N
Temperature: 313 K
Tabular data in the source: 0
pressure (bar)	uptake (mmol/g)
0.114286	0.00815217
0.261224	0.048913
0.497959	0.0652174
0.75102	0.11413
1.00408	0.130435
