Adsorption isotherm of Nitrous Oxides on MIL-47
DOI: 10.1002/Aic.14467
Adsorbate Nitrous Oxides: InChIKey NIST-ISODB-D45B7605C76C77F207BA
Temperature: 313 K
Tabular data in the source: 0
pressure (bar)	uptake (mmol/g)
0.107248	6.89655e-05
0.251544	0.000189655
0.50323	0.000327586
0.750665	0.000508621
1.00646	0.000655172
