Adsorption isotherm of Nitric oxide on MFI
DOI: 10.1002/Aic.14467
Adsorbate Nitric oxide: InChIKey MWUXSHHQAYIFBG-UHFFFAOYSA-N
Temperature: 313 K
Tabular data in the source: 0
pressure (bar)	uptake (mmol/g)
0.0489796	0
0.102041	0.00815217
0.253061	0.048913
0.497959	0.0896739
0.746939	0.130435
1	0.1875
