Adsorption isotherm of Carbon Dioxide on DDR
DOI: 10.1002/Aic.14467
Adsorbate Carbon Dioxide: InChIKey CURLTUGMZLYLDI-UHFFFAOYSA-N
Temperature: 298 K
Tabular data in the source: 0
pressure (bar)	uptake (mmol/g)
0.0594233	0.144165
0.29862	0.345095
0.437467	0.633309
0.516775	0.806261
0.615737	1.0658
0.874587	1.35333
1.45356	1.6101
1.91299	1.75195
2.41231	1.92247
2.91244	1.89068
3.89165	2.08733
4.85156	2.11068
