Adsorption isotherm of Carbon Dioxide on MIL-47
DOI: 10.1002/Aic.14467
Adsorbate Carbon Dioxide: InChIKey CURLTUGMZLYLDI-UHFFFAOYSA-N
Temperature: 298 K
Tabular data in the source: 0
pressure (bar)	uptake (mmol/g)
4.82521e-05	0.110497
0.0437888	0.276243
0.100654	0.497238
0.192478	0.773481
0.306208	1.21547
0.398031	1.49171
0.498661	1.9337
0.599242	2.26519
0.699848	2.65193
0.791744	3.09392
0.901083	3.48066
1.00174	3.9779
