Adsorption isotherm of Nitrogen Dioxide on IRMOF-1
DOI: 10.1002/Aic.14467
Adsorbate Nitrogen Dioxide: InChIKey JCXJVPUVTGWSNB-UHFFFAOYSA-N
Temperature: 313 K
Tabular data in the source: 0
pressure (bar)	uptake (mmol/g)
0.24898	0.191903
0.497959	0.30813
0.742857	0.478456
1	0.594595
