Adsorption isotherm of Nitrogen on Zn-MOF-74
DOI: 10.1002/Aic.14467
Adsorbate Nitrogen: InChIKey IJGRMHOSHXDMSA-UHFFFAOYSA-N
Temperature: 313 K
Tabular data in the source: 0
pressure (bar)	uptake (mmol/g)
0.0408163	0.0151287
0.0979592	0.0215262
0.244898	0.0472937
0.502041	0.0989086
0.75102	0.141846
0.995918	0.184791
