Adsorption isotherm of Nitrogen on WV1050
DOI: 10.1007/s10450-014-9639-3
Adsorbate Nitrogen: InChIKey IJGRMHOSHXDMSA-UHFFFAOYSA-N
Temperature: 348 K
Tabular data in the source: 0
pressure (bar)	uptake (mmol/g)
0	-1.77636e-15
0.464906	0.0679488
0.743977	0.0673068
0.976394	0.112784
1.44137	0.157727
1.97612	0.202509
3.95245	0.335999
4.97542	0.42567
7.95162	0.602872
9.99779	0.713195
