Adsorption isotherm of Nitrogen on C141
DOI: 10.1007/s10450-014-9639-3
Adsorbate Nitrogen: InChIKey IJGRMHOSHXDMSA-UHFFFAOYSA-N
Temperature: 348 K
Tabular data in the source: 0
pressure (bar)	uptake (mmol/g)
0.023042	0.0689654
0.487948	0.136914
1.02262	0.204703
2.04546	0.340386
3.99825	0.565955
6.04413	0.768303
7.99706	0.94786
10.0895	1.12709
