Adsorption isotherm of Nitrogen on C141
DOI: 10.1007/s10450-014-9639-3
Adsorbate Nitrogen: InChIKey IJGRMHOSHXDMSA-UHFFFAOYSA-N
Temperature: 323 K
Tabular data in the source: 0
pressure (bar)	uptake (mmol/g)
0.468634	0.217136
1.00826	0.288116
1.99334	0.503368
4.03433	0.824191
6.02881	1.03576
7.99967	1.28389
10.0411	1.49529
