Adsorption isotherm of Nitrogen on WV1050
DOI: 10.1007/s10450-014-9639-3
Adsorbate Nitrogen: InChIKey IJGRMHOSHXDMSA-UHFFFAOYSA-N
Temperature: 323 K
Tabular data in the source: 0
pressure (bar)	uptake (mmol/g)
-0.000142702	0.0364747
0.210843	0.108653
0.375164	0.108054
0.469062	0.107712
0.774231	0.106599
0.938552	0.105999
1.45471	0.177065
1.97086	0.248131
3.96534	0.459701
4.97431	0.565443
7.97805	0.809806
9.99629	0.948342
