Adsorption isotherm of Carbon Dioxide on CuBTC
DOI: 10.1007/s10450-014-9639-3
Adsorbate Carbon Dioxide: InChIKey CURLTUGMZLYLDI-UHFFFAOYSA-N
Temperature: 323 K
Tabular data in the source: 0
pressure (bar)	uptake (mmol/g)
0.208417	0.728723
0.34855	0.910583
0.744049	1.82099
0.95375	2.22145
1.95573	4.11445
3.94022	6.87925
5.95232	8.58619
7.94295	9.78258
