Adsorption isotherm of Nitrogen on CuBTC
DOI: 10.1007/s10450-014-9639-3
Adsorbate Nitrogen: InChIKey IJGRMHOSHXDMSA-UHFFFAOYSA-N
Temperature: 298 K
Tabular data in the source: 0
pressure (bar)	uptake (mmol/g)
0.0703005	0.0855877
0.564281	0.126411
0.987095	0.339319
1.97491	0.463911
4.02041	0.92752
5.97208	1.30564
8.13566	1.63991
10.0876	1.93214
