Adsorption isotherm of Carbon Dioxide on WV1050
DOI: 10.1007/s10450-014-9639-3
Adsorbate Carbon Dioxide: InChIKey CURLTUGMZLYLDI-UHFFFAOYSA-N
Temperature: 323 K
Tabular data in the source: 0
pressure (bar)	uptake (mmol/g)
0.513871	0.654661
1.07526	1.16325
1.54347	1.48981
2.12905	1.81594
4.09648	2.93947
6.04144	3.80775
8.03392	4.52997
10.0263	5.28866
