Adsorption isotherm of Carbon Dioxide on CuBTC
DOI: 10.1007/s10450-014-9639-3
Adsorbate Carbon Dioxide: InChIKey CURLTUGMZLYLDI-UHFFFAOYSA-N
Temperature: 298 K
Tabular data in the source: 0
pressure (bar)	uptake (mmol/g)
0.440543	1.93846
1.06874	4.04923
1.48822	5.25538
2.00253	6.24615
3.97119	8.57231
6.06139	9.73538
8.05922	10.3815
10.0109	10.7692
