Adsorption isotherm of Carbon Dioxide on WV1050
DOI: 10.1007/s10450-014-9639-3
Adsorbate Carbon Dioxide: InChIKey CURLTUGMZLYLDI-UHFFFAOYSA-N
Temperature: 298 K
Tabular data in the source: 0
pressure (bar)	uptake (mmol/g)
0.537267	1.16308
1.02907	1.85231
1.70867	2.67077
2.01354	2.97231
3.96141	4.48
6.00442	5.68615
8.18889	6.80615
10.1155	7.62462
