Adsorption isotherm of Carbon Dioxide on CuBTC
DOI: 10.1007/s10450-014-9639-3
Adsorbate Carbon Dioxide: InChIKey CURLTUGMZLYLDI-UHFFFAOYSA-N
Temperature: 348 K
Tabular data in the source: 0
pressure (bar)	uptake (mmol/g)
0.324014	0.50539
0.787707	0.964445
0.949786	1.19413
1.94637	2.29614
3.94039	4.22406
5.93577	5.71487
7.93222	6.86059
