Adsorption isotherm of Carbon Dioxide on WV1050
DOI: 10.1007/s10450-014-9639-3
Adsorbate Carbon Dioxide: InChIKey CURLTUGMZLYLDI-UHFFFAOYSA-N
Temperature: 348 K
Tabular data in the source: 0
pressure (bar)	uptake (mmol/g)
0.510561	0.343917
1.20696	0.756426
1.48553	0.916828
2.25191	1.26016
4.06373	1.94617
6.06175	2.58575
8.12939	3.27117
10.0579	3.81889
