Adsorption isotherm of Nitrogen on WV1050
DOI: 10.1007/s10450-014-9639-3
Adsorbate Nitrogen: InChIKey IJGRMHOSHXDMSA-UHFFFAOYSA-N
Temperature: 298 K
Tabular data in the source: 0
pressure (bar)	uptake (mmol/g)
-0.0233846	-0.0430769
0.399855	0.0430769
0.775891	0.172308
1.22295	0.172308
1.38751	0.215385
3.99812	0.56
4.96224	0.732308
7.97271	1.12
9.99551	1.33538
