Adsorption isotherm of Nitrogen on CuBTC
DOI: 10.1007/s10450-014-9639-3
Adsorbate Nitrogen: InChIKey IJGRMHOSHXDMSA-UHFFFAOYSA-N
Temperature: 323 K
Tabular data in the source: 0
pressure (bar)	uptake (mmol/g)
-0.000142702	0.0364747
0.562389	0.253268
0.726568	0.289143
0.984645	0.324676
1.97	0.466979
3.96377	0.860922
5.98172	1.07241
7.97548	1.46635
10.0169	1.67775
