Adsorption isotherm of Nitrogen on CuBTC
DOI: 10.1007/s10450-014-9639-3
Adsorbate Nitrogen: InChIKey IJGRMHOSHXDMSA-UHFFFAOYSA-N
Temperature: 348 K
Tabular data in the source: 0
pressure (bar)	uptake (mmol/g)
0	-1.77636e-15
0.0696253	0.0458521
2.02263	0.202402
3.99882	0.381905
5.99805	0.630373
8.02089	0.763756
10.0203	0.966211
