Adsorption isotherm of Carbon Dioxide on C141
DOI: 10.1007/s10450-014-9639-3
Adsorbate Carbon Dioxide: InChIKey CURLTUGMZLYLDI-UHFFFAOYSA-N
Temperature: 298 K
Tabular data in the source: 0
pressure (bar)	uptake (mmol/g)
0.231674	1.07692
0.441557	1.63692
0.721882	2.24
1.00279	2.67077
1.9402	3.79077
3.98291	5.08308
5.98045	5.81538
8.14342	6.33231
10.1658	6.67692
