Adsorption isotherm of Carbon Dioxide on C141
DOI: 10.1007/s10450-014-9639-3
Adsorbate Carbon Dioxide: InChIKey CURLTUGMZLYLDI-UHFFFAOYSA-N
Temperature: 348 K
Tabular data in the source: 0
pressure (bar)	uptake (mmol/g)
0.463193	0.6201
0.996797	1.03298
2.04118	1.72076
4.03848	2.5904
5.98998	3.23008
7.9651	3.75468
10.0568	4.18699
