Adsorption isotherm of Carbon Dioxide on C141
DOI: 10.1007/s10450-014-9639-3
Adsorbate Carbon Dioxide: InChIKey CURLTUGMZLYLDI-UHFFFAOYSA-N
Temperature: 323 K
Tabular data in the source: 0
pressure (bar)	uptake (mmol/g)
0.512301	1.05588
1.02631	1.67407
1.96201	2.50956
3.06303	3.08913
5.96916	4.28218
7.98583	4.82194
