Adsorption isotherm of Nitrogen on C141
DOI: 10.1007/s10450-014-9639-3
Adsorbate Nitrogen: InChIKey IJGRMHOSHXDMSA-UHFFFAOYSA-N
Temperature: 298 K
Tabular data in the source: 0
pressure (bar)	uptake (mmol/g)
0.0233846	0.0430769
0.493394	0.215385
0.986787	0.430769
1.97401	0.732308
3.99609	1.16308
6.01846	1.50769
7.97068	1.72308
9.99319	2.02462
