Adsorption isotherm of Hydrogen on Carbon
DOI: 10.1016/j.carbon.2010.04.025
Adsorbate Hydrogen: InChIKey UFHFLCQGNIYNRP-UHFFFAOYSA-N
Temperature: 77 K
Tabular data in the source: 0
pressure (bar)	uptake (g/l)
1.03435	7.53
3.04443	11.3535
6.10326	13.7569
10.036	15.5048
15.1923	17.0342
20.0864	18.0174
29.9621	19.2191
39.9251	19.9292
