Adsorption isotherm of Hydrogen on IRMOF-1
DOI: 10.1016/j.carbon.2010.04.025
Adsorbate Hydrogen: InChIKey UFHFLCQGNIYNRP-UHFFFAOYSA-N
Temperature: 77 K
Tabular data in the source: 0
pressure (bar)	uptake (g/l)
0.247794	0.142004
0.509978	4.73024
1.03435	7.55965
1.99569	11.4597
4.00578	17.4244
6.01586	21.0949
9.94863	25.9891
14.9301	29.2008
19.9117	30.9597
24.9806	31.5714
29.9621	31.5714
39.2259	31.4185
