Adsorption isotherm of Hydrogen on IRMOF-1
DOI: 10.1016/j.carbon.2010.04.025
Adsorbate Hydrogen: InChIKey UFHFLCQGNIYNRP-UHFFFAOYSA-N
Temperature: 77 K
Tabular data in the source: 0
pressure (bar)	uptake (wt%)
0.200498	0.0374528
0.528229	0.77157
0.965204	1.32216
2.05764	1.96451
3.91478	2.88216
5.88117	3.5114
9.81394	4.29796
15.0576	4.79611
20.0829	5.0714
24.7803	5.17628
30.024	5.20249
40.0744	5.13695
