Adsorption isotherm of Hydrogen on Carbon
DOI: 10.1016/j.carbon.2010.04.025
Adsorbate Hydrogen: InChIKey UFHFLCQGNIYNRP-UHFFFAOYSA-N
Temperature: 77 K
Tabular data in the source: 0
pressure (bar)	uptake (g/l)
1.03435	14.5185
3.04443	19.9479
5.92847	23.542
9.94863	26.2185
15.0175	27.9008
19.9991	29.2008
29.9621	30.5773
39.8377	31.4949
