Adsorption isotherm of Hydrogen on Carbon
DOI: 10.1016/j.carbon.2010.04.025
Adsorbate Hydrogen: InChIKey UFHFLCQGNIYNRP-UHFFFAOYSA-N
Temperature: 77 K
Tabular data in the source: 0
pressure (bar)	uptake (wt%)
0.200498	0.0374528
1.07445	2.5151
3.15008	3.44586
6.09966	3.99644
10.0324	4.44216
14.9484	4.74367
19.8644	4.9272
30.024	5.16317
40.1837	5.33359
