Adsorption isotherm of Hydrogen on Carbon
DOI: 10.1016/j.carbon.2010.04.025
Adsorbate Hydrogen: InChIKey UFHFLCQGNIYNRP-UHFFFAOYSA-N
Temperature: 77 K
Tabular data in the source: 0
pressure (bar)	uptake (g/l)
0.247794	0.920759
1.03435	10.5888
3.04443	14.6855
6.19065	17.1434
10.2108	19.0552
15.1049	20.4754
20.1738	21.404
30.1369	22.3325
39.9251	23.0426
