Adsorption isotherm of Hydrogen on Carbon
DOI: 10.1016/j.carbon.2010.04.025
Adsorbate Hydrogen: InChIKey UFHFLCQGNIYNRP-UHFFFAOYSA-N
Temperature: 77 K
Tabular data in the source: 0
pressure (bar)	uptake (wt%)
0.965204	2.05628
3.04083	3.03947
5.88117	3.64249
9.92319	4.12754
15.0576	4.5077
19.8644	4.75678
30.024	5.05829
39.9652	5.25493
