Adsorption isotherm of Hydrogen on IRMOF-1
DOI: 10.1016/j.carbon.2010.04.025
Adsorbate Hydrogen: InChIKey UFHFLCQGNIYNRP-UHFFFAOYSA-N
Temperature: 77 K
Tabular data in the source: 0
pressure (bar)	uptake (wt%)
0.528229	0.588041
1.18369	1.15174
2.27613	1.84653
4.24252	2.64619
5.77193	3.15745
7.62907	3.56384
10.4694	4.00955
13.2005	4.29796
15.9316	4.54703
19.8644	4.75678
25.4358	4.94031
33.7383	5.12384
45.3181	5.2156
