Adsorption isotherm of Hydrogen on IRMOF-1
DOI: 10.1016/j.carbon.2010.04.025
Adsorbate Hydrogen: InChIKey UFHFLCQGNIYNRP-UHFFFAOYSA-N
Temperature: 77 K
Tabular data in the source: 0
pressure (bar)	uptake (g/l)
0.247794	0.156053
0.597373	2.39555
1.03435	3.7611
2.08309	5.94597
4.00578	9.00479
6.10326	10.8619
9.94863	13.3199
15.1923	15.1771
20.0864	16.1056
25.068	16.2695
29.9621	16.4334
40.0999	16.3787
