Adsorption isotherm of Hydrogen on Carbon
DOI: 10.1016/j.carbon.2010.04.025
Adsorbate Hydrogen: InChIKey UFHFLCQGNIYNRP-UHFFFAOYSA-N
Temperature: 77 K
Tabular data in the source: 0
pressure (bar)	uptake (g/l)
0.946953	10.0832
2.86964	15.2832
5.92847	18.342
10.036	20.8655
14.8428	22.8538
19.9991	23.7714
29.9621	25.6832
39.9251	26.6773
