Adsorption isotherm of Methane on C12H6O13Zn4
DOI: 10.1021/Ic900486r
Adsorbate Methane: InChIKey VNWKTOKETHGBQD-UHFFFAOYSA-N
Temperature: 290 K
Tabular data in the source: 0
pressure (bar)	uptake (wt%)
1.19416	0.322526
2.32106	1.17532
3.24955	1.603
3.91221	2.24195
5.17238	2.77691
7.36105	3.73956
10.2791	5.12919
12.335	6.09137
14.3253	6.62891
19.9642	8.24037
24.1442	9.10396
26.5987	9.85534
28.1247	10.179
