Adsorption isotherm of Hydrogen on C12H6O13Zn4
DOI: 10.1021/Ic900486r
Adsorbate Hydrogen: InChIKey UFHFLCQGNIYNRP-UHFFFAOYSA-N
Temperature: 30 K
Tabular data in the source: 0
pressure (bar)	uptake (mmol/g)
0.0362295	26.9248
0.0814332	11.0038
0.136941	31.1388
0.139267	30.3193
0.142924	29.0316
0.357974	32.66
0.359636	32.0746
0.918367	33.7119
1.2554	34.0621
2.26783	34.6445
2.71754	34.9944
3.27993	35.3439
