Adsorption isotherm of Hydrogen on C12H6O13Zn4
DOI: 10.1021/Ic900486r
Adsorbate Hydrogen: InChIKey UFHFLCQGNIYNRP-UHFFFAOYSA-N
Temperature: 100 K
Tabular data in the source: 0
pressure (bar)	uptake (mmol/g)
0.560394	1.05194
1.00911	1.75302
1.5705	2.45376
2.01921	3.15483
2.46826	3.73884
3.25401	4.79013
4.15243	5.84108
6.40032	7.8246
9.09892	9.8068
13.712	12.1346
19.6773	14.4584
24.9691	15.8477
30.0366	16.8865
35.7794	18.1574
38.1443	18.6187
40.0588	18.9643
