Adsorption isotherm of Hydrogen on C12H6O13Zn4
DOI: 10.1021/Ic900486r
Adsorbate Hydrogen: InChIKey UFHFLCQGNIYNRP-UHFFFAOYSA-N
Temperature: 150 K
Tabular data in the source: 0
pressure (bar)	uptake (mmol/g)
0.562388	0.349548
1.35046	0.581371
2.36389	0.812534
3.37699	1.16076
4.16506	1.39259
6.52928	2.08805
9.45656	2.89894
14.073	4.05607
19.7032	5.32731
25.5587	6.59788
30.7395	7.40217
35.92	8.32353
38.0596	8.78552
40.0868	9.13079
