Adsorption isotherm of Hydrogen on C12H6O13Zn4
DOI: 10.1021/Ic900486r
Adsorbate Hydrogen: InChIKey UFHFLCQGNIYNRP-UHFFFAOYSA-N
Temperature: 300 K
Tabular data in the source: 0
pressure (bar)	uptake (mmol/g)
3.26727	0.117411
4.50638	0.234822
6.87257	0.234822
10.0268	0.469644
11.6043	0.469644
14.0825	0.704466
19.7163	0.704466
25.6875	0.939288
31.0949	1.29152
37.0668	1.29152
39.0946	1.40893
41.0098	1.52634
