Adsorption isotherm of Methane on C12H6O13Zn4
DOI: 10.1021/Ic900486r
Adsorbate Methane: InChIKey VNWKTOKETHGBQD-UHFFFAOYSA-N
Temperature: 280 K
Tabular data in the source: 0
pressure (bar)	uptake (wt%)
1.59133	0.960535
3.2485	2.23961
3.77894	2.55978
5.1046	3.62548
7.29274	4.90643
10.1449	5.97752
14.1911	7.47725
19.6968	9.40653
24.0757	10.3769
26.4642	10.9159
27.7913	11.1328
