Adsorption isotherm of Methane on C12H6O13Zn4
DOI: 10.1021/Ic900486r
Adsorbate Methane: InChIKey VNWKTOKETHGBQD-UHFFFAOYSA-N
Temperature: 300 K
Tabular data in the source: 0
pressure (bar)	uptake (wt%)
1.59238	0.323934
2.45398	1.06969
3.38247	1.49737
5.17326	2.24641
7.4283	3.2093
10.3471	4.17453
14.5927	5.46275
20.0991	6.96764
24.2127	7.83099
26.6013	8.26384
27.9284	8.48074
