Adsorption isotherm of Hydrogen on C12H6O13Zn4
DOI: 10.1021/Ic900486r
Adsorbate Hydrogen: InChIKey UFHFLCQGNIYNRP-UHFFFAOYSA-N
Temperature: 77 K
Tabular data in the source: 0
pressure (bar)	uptake (mmol/g)
0.215383	3.51131
0.220036	1.87239
0.549757	4.79804
0.884132	6.08477
1.32985	7.83944
1.88992	9.00844
2.44898	10.5286
3.12172	11.6973
6.26504	15.7854
8.85096	17.7679
12.4506	19.8645
17.2911	21.4893
22.4709	22.6448
27.6507	23.8003
34.4077	25.0682
37.3363	25.4108
39.1378	25.8738
