Adsorption isotherm of Carbon Dioxide on C12H6O13Zn4
DOI: 10.1021/Ic900486r
Adsorbate Carbon Dioxide: InChIKey CURLTUGMZLYLDI-UHFFFAOYSA-N
Temperature: 280 K
Tabular data in the source: 0
pressure (bar)	uptake (wt%)
1.46667	8.12325
1.93333	11.2045
2.46667	16.8067
3.26667	25.2101
4.33333	36.4146
5.53333	47.3389
7.8	57.9832
10.8667	64.986
14.8	69.1877
17	70.8683
18.2667	71.9888
