Adsorption isotherm of Carbon Dioxide on C12H6O13Zn4
DOI: 10.1021/Ic900486r
Adsorbate Carbon Dioxide: InChIKey CURLTUGMZLYLDI-UHFFFAOYSA-N
Temperature: 220 K
Tabular data in the source: 0
pressure (bar)	uptake (wt%)
0.0666667	1.40056
0.133333	3.64146
0.2	13.4454
0.266667	19.0476
0.333333	26.6106
0.466667	36.6947
0.6	57.7031
0.666667	66.9468
0.866667	74.5098
1.2	78.7115
1.53333	82.0728
2	84.5938
2.33333	85.7143
2.66667	86.5546
3.13333	87.9552
3.46667	88.7955
