Adsorption isotherm of Methane on C12H6O13Zn4
DOI: 10.1021/Ic900486r
Adsorbate Methane: InChIKey VNWKTOKETHGBQD-UHFFFAOYSA-N
Temperature: 240 K
Tabular data in the source: 0
pressure (bar)	uptake (wt%)
0.596109	0.744814
0.794167	1.38212
1.25771	2.02036
1.6547	2.76447
2.18444	3.50905
2.51524	4.14683
2.714	4.35973
3.24357	5.21041
4.23614	7.01763
5.6266	9.03847
7.94484	11.9114
10.9933	14.6808
15.3034	17.1364
20.6103	18.8527
24.5245	19.9276
26.7138	20.4658
27.908	20.7884
