Adsorption isotherm of Methane on C12H6O13Zn4
DOI: 10.1021/Ic900486r
Adsorbate Methane: InChIKey VNWKTOKETHGBQD-UHFFFAOYSA-N
Temperature: 200 K
Tabular data in the source: 0
pressure (bar)	uptake (wt%)
0.197705	0.849506
0.395235	1.80511
0.855081	4.67146
1.1174	6.5822
1.37918	8.81124
1.83921	11.5715
2.43232	14.12
3.0265	16.0319
3.952	18.2633
5.14386	19.9651
7.46369	21.8832
10.5141	23.4855
14.6274	24.561
19.935	25.853
23.9824	26.61
26.4376	26.937
27.7645	27.26
