Adsorption isotherm of Carbon Dioxide on C12H6O13Zn4
DOI: 10.1021/Ic900486r
Adsorbate Carbon Dioxide: InChIKey CURLTUGMZLYLDI-UHFFFAOYSA-N
Temperature: 300 K
Tabular data in the source: 0
pressure (bar)	uptake (wt%)
0.533333	3.08123
0.866667	4.7619
2.6	9.2437
3.4	13.1653
4.46667	19.0476
5.8	26.6106
8.26667	39.7759
11.4667	50.7003
16.1333	58.2633
21.7333	63.5854
25.2	65.8263
27.1333	67.507
28.2	68.3473
