Adsorption isotherm of Methane on C12H6O13Zn4
DOI: 10.1021/Ic900486r
Adsorbate Methane: InChIKey VNWKTOKETHGBQD-UHFFFAOYSA-N
Temperature: 125 K
Tabular data in the source: 0
pressure (bar)	uptake (wt%)
0.0225346	26.4192
0.0540477	7.42725
0.216367	29.6029
0.281858	30.1336
0.61301	30.5592
0.811244	31.0904
1.34151	31.5167
1.60682	31.6237
