Adsorption isotherm of Hydrogen on C12H6O13Zn4
DOI: 10.1021/Ic900486r
Adsorbate Hydrogen: InChIKey UFHFLCQGNIYNRP-UHFFFAOYSA-N
Temperature: 87 K
Tabular data in the source: 0
pressure (bar)	uptake (mmol/g)
0.443728	2.45706
1.00312	3.8602
1.22682	4.44486
1.56319	5.0292
1.89922	5.73061
2.6843	7.01602
4.14179	9.58718
6.50103	12.0386
9.08695	14.0212
12.574	16.1181
17.3011	17.9773
22.7049	19.6004
28.2228	20.7549
34.0793	21.6743
37.2326	22.2504
39.1461	22.9472
