Adsorption isotherm of Carbon Dioxide on C12H6O13Zn4
DOI: 10.1021/Ic900486r
Adsorbate Carbon Dioxide: InChIKey CURLTUGMZLYLDI-UHFFFAOYSA-N
Temperature: 310 K
Tabular data in the source: 0
pressure (bar)	uptake (wt%)
0.2	0.840336
0.533333	1.40056
1.26667	3.08123
1.66667	4.7619
2.13333	5.88235
2.8	7.56303
3.73333	11.4846
4.86667	15.9664
6.93333	24.93
9.66667	36.1345
13.5333	47.3389
16.2667	51.8207
17.8	54.3417
18.6667	55.7423
