Adsorption isotherm of Ethene on Porous Graphitic Carbon loaded with Carbowax 1500 (3.2%)
DOI: 10.1007/bf02276189
Article source: Figure 7
Adsorbate Ethene: InChIKey VGGSQFUCUMXWEO-UHFFFAOYSA-N
Kind: experiment
Temperature: 195 K
Tabular data in the source: 0
pressure (bar)	uptake (ml/g)
0.201022	0.5278
0.215365	0.996
0.231118	1.4528
0.248215	1.8538
0.26672	2.2469
0.285695	2.5286
0.305872	2.8747
0.326227	3.1036
0.343157	3.3741
0.359386	3.5922
0.360622	3.6137
0.441646	5.1921
0.523459	6.4373
0.583862	7.4176
0.654982	8.2449
0.723658	8.9013
0.782061	9.3572
0.836952	9.7504
0.889786	10.0441
0.933204	10.2821
0.969039	10.4773
1.00473	10.6229
1.03826	10.8033
1.06449	10.8751
1.09169	10.9777
