Adsorption isotherm of Ethene on Porous Graphitic Carbon loaded with Carbowax 1500 (1.6%)
DOI: 10.1007/bf02276189
Article source: Figure 7
Adsorbate Ethene: InChIKey VGGSQFUCUMXWEO-UHFFFAOYSA-N
Kind: experiment
Temperature: 195 K
Tabular data in the source: 0
pressure (bar)	uptake (ml/g)
0.000779	0.0172
0.008214	0.7198
0.017963	1.5256
0.028355	2.3604
0.034584	3.119
0.048185	3.8092
0.063551	4.3528
0.081839	4.806
0.100924	5.2339
0.117567	5.5853
0.145597	5.8806
0.240543	7.1725
0.338637	8.1204
0.42328	8.9627
0.49647	9.6099
0.572427	10.0691
0.631841	10.3675
0.689986	10.6284
0.739419	10.7696
0.778416	10.9114
0.818892	11.0624
0.850679	11.1716
0.876808	11.2143
0.899824	11.3437
