Adsorption isotherm of Nitrogen on ZIF-8
DOI: 10.1039/C2dt31779f
Adsorbate Nitrogen: InChIKey IJGRMHOSHXDMSA-UHFFFAOYSA-N
Temperature: 77 K
Tabular data in the source: 0
pressure (bar)	uptake (cm3(STP)/g)
0.0168869	320.395
0.0287703	346.655
0.0446149	349.442
0.0604594	352.228
0.0842262	355.026
0.100071	357.812
0.109974	357.827
0.157507	362.041
0.205041	364.875
0.252574	367.709
0.304069	371.929
0.347642	371.995
0.397156	374.831
0.44865	376.289
0.494203	379.12
0.545698	381.959
0.593232	384.793
0.642746	387.63
0.69226	389.085
0.741774	391.921
0.791288	396.139
0.838822	398.973
0.882395	404.563
0.929928	421.208
