Adsorption isotherm of Nitrogen on Ir NPs@ZIF-8
DOI: 10.1039/C2dt31779f
Adsorbate Nitrogen: InChIKey IJGRMHOSHXDMSA-UHFFFAOYSA-N
Temperature: 77 K
Tabular data in the source: 0
pressure (bar)	uptake (cm3(STP)/g)
0.0188675	269.293
0.0327315	310.75
0.048576	317.68
0.0683817	319.09
0.0901679	320.504
0.109974	323.296
0.155527	327.508
0.207021	330.348
0.256535	334.565
0.300108	336.012
0.351603	338.851
0.403097	340.31
0.44865	343.14
0.494203	347.352
0.545698	348.81
0.593232	350.263
0.642746	353.099
0.69226	355.936
0.735833	358.763
0.785347	361.6
0.834861	368.58
0.882395	374.176
0.925967	390.816
