Adsorption isotherm of Carbon Dioxide on IRMOF-1
DOI: 10.1016/j.micromeso.2012.07.011
Adsorbate Carbon Dioxide: InChIKey CURLTUGMZLYLDI-UHFFFAOYSA-N
Temperature: 208 K
Tabular data in the source: 0
pressure (bar)	uptake (molecules/unitcell)
0.0729867	1.72198
0.15159	3.4466
0.255448	6.44887
0.353689	9.44852
0.463146	13.7192
0.541725	17.1316
0.625885	23.0782
0.721194	34.9373
0.723789	50.1284
0.723955	38.3141
0.728819	91.9029
0.729133	69.5401
0.730928	141.693
0.731248	118.908
0.733523	156.884
0.747427	166.595
0.783808	175.473
0.842707	180.564
0.921268	185.242
0.997021	189.919
1.12049	196.306
1.19063	200.558
1.32538	203.575
1.43484	207.424
1.50502	209.144
1.62015	209.62
1.74931	210.525
1.79423	210.968
