Adsorption isotherm of Carbon Dioxide on IRMOF-1
DOI: 10.1016/j.micromeso.2012.07.011
Adsorbate Carbon Dioxide: InChIKey CURLTUGMZLYLDI-UHFFFAOYSA-N
Temperature: 208 K
Tabular data in the source: 0
pressure (bar)	uptake (molecules/unitcell)
0.0394524	5.5061
0.0845418	11.8592
0.143676	16.9471
0.185959	23.7223
0.247988	34.7306
0.279015	41.0803
0.304459	50.3886
0.324265	58.85
0.327226	69.4215
0.333006	80.4165
0.338809	93.1028
0.344678	110.44
0.350493	123.972
0.364705	134.547
0.376097	144.697
0.398716	153.159
0.441035	162.471
0.500169	167.559
0.564928	172.649
0.638113	176.894
0.801351	184.966
0.916717	188.799
1.04612	190.943
1.14175	190.966
1.27115	192.688
1.38645	192.292
1.48772	193.584
1.59462	195.301
1.70151	196.171
1.79154	198.307
