Adsorption isotherm of Carbon Dioxide on IRMOF-1
DOI: 10.1016/j.micromeso.2012.07.011
Adsorbate Carbon Dioxide: InChIKey CURLTUGMZLYLDI-UHFFFAOYSA-N
Temperature: 208 K
Tabular data in the source: 0
pressure (bar)	uptake (molecules/unitcell)
0.0309375	2.53355
0.1125	6.76316
0.18	10.1474
0.182813	10.5691
0.208125	12.2592
0.230625	13.5276
0.233438	13.9493
0.25875	16.0605
0.275625	17.7487
0.284063	18.1717
0.306563	20.2822
0.331875	22.3934
0.354375	24.5039
0.376875	27.4566
0.396563	29.9875
0.419063	32.9401
0.421875	33.7829
0.43875	35.8921
0.455625	39.2645
0.469688	42.6362
0.48375	46.4289
0.492188	50.2204
0.497813	54.4322
0.500625	58.6434
0.503438	67.0651
0.50625	71.2763
0.509063	79.698
0.511875	86.0145
0.514688	95.6993
0.5175	114.647
0.520313	127.28
0.523125	135.701
0.525938	139.912
0.52875	144.124
0.531563	148.335
0.534375	152.546
0.537188	156.757
0.545625	160.549
0.556875	164.341
0.57375	167.713
0.593438	170.665
0.613125	174.038
0.638438	175.728
0.66375	177.418
0.689063	179.109
0.714375	180.799
0.7425	182.068
0.770625	182.496
0.795938	183.765
0.824063	184.614
0.849375	185.041
0.8775	186.311
0.902813	187.159
0.930938	188.007
0.95625	188.434
0.984375	189.704
1.00969	190.973
1.03781	190.98
1.06313	191.828
1.1025	193.1
1.18969	195.647
1.24594	197.765
1.28813	197.775
1.31625	198.203
1.34438	198.63
1.36969	199.057
1.39781	199.485
1.42594	199.912
1.45406	200.34
1.47938	200.767
1.5075	200.774
1.53563	201.201
1.56375	201.208
1.59188	201.636
1.62	201.642
1.64813	202.07
1.67625	202.076
1.70438	202.083
1.72969	202.51
1.75781	202.516
1.78594	202.944
