Adsorption isotherm of Carbon Dioxide on IRMOF-1
DOI: 10.1016/j.micromeso.2012.07.011
Adsorbate Carbon Dioxide: InChIKey CURLTUGMZLYLDI-UHFFFAOYSA-N
Temperature: 208 K
Tabular data in the source: 0
pressure (bar)	uptake (molecules/unitcell)
0.0784785	10.5853
0.100914	12.7055
0.120511	16.9341
0.148533	21.1667
0.176602	22.0237
0.201857	23.3014
0.224257	27.9532
0.257888	32.6104
0.316616	49.9375
0.330591	54.5854
0.330733	44.4589
0.346883	94.2555
0.362611	174.01
0.362748	164.305
0.370994	176.967
0.401901	175.716
0.480445	181.66
0.581471	186.349
0.674049	192.721
0.730193	194.013
0.808778	197.004
0.918229	201.696
0.996838	202.999
