Adsorption isotherm of Carbon Dioxide on IRMOF-1
DOI: 10.1016/j.micromeso.2012.07.011
Adsorbate Carbon Dioxide: InChIKey CURLTUGMZLYLDI-UHFFFAOYSA-N
Temperature: 208 K
Tabular data in the source: 0
pressure (bar)	uptake (molecules/unitcell)
0.0730045	0.456167
0.182508	1.35139
0.336924	3.53349
0.477311	4.86512
0.637331	7.89373
0.77209	10.0666
0.892802	12.6549
0.991062	14.3887
1.09212	16.9677
1.18193	19.9634
1.2633	25.0648
1.26569	54.6018
1.27002	146.165
1.27034	123.802
1.27072	96.7983
1.27257	164.732
1.27788	186.675
1.28888	203.136
1.32253	206.527
1.4011	210.362
1.49652	214.204
1.56672	214.659
1.67624	214.288
1.7998	213.924
