Adsorption isotherm of Nitrogen on (Me2NH2)2(DMF)9(H2O)5
DOI: 10.1021/Ic302583a
Adsorbate Nitrogen: InChIKey IJGRMHOSHXDMSA-UHFFFAOYSA-N
Temperature: 195 K
Tabular data in the source: 0
pressure (bar)	uptake (cm3(STP)/g)
0.0193923	2.25962
0.0522374	6.76666
0.120913	12.4005
0.183618	16.3441
0.249308	20.8512
0.313505	23.6681
0.379195	26.485
0.441899	29.3019
0.507589	30.992
0.57328	34.3723
0.634491	36.6258
0.698688	37.7526
0.767364	40.0061
0.86142	41.1329
0.928604	42.823
0.991308	44.5131
