Adsorption isotherm of Hydrogen on (Me2NH2)2(DMF)9(H2O)5
DOI: 10.1021/Ic302583a
Adsorbate Hydrogen: InChIKey UFHFLCQGNIYNRP-UHFFFAOYSA-N
Temperature: 77 K
Tabular data in the source: 0
pressure (bar)	uptake (mg/g)
0.449485	0.423297
0.674837	4.15569
0.900189	8.31062
1.46357	14.2261
2.70301	20.0712
4.50582	24.0853
6.42132	26.9022
10.0269	30.0008
14.0833	32.4655
22.7593	35.4233
27.4917	37.1839
32.5622	38.2402
42.8157	39.7895
47.5481	40.6346
52.3931	40.4233
57.6889	41.1275
62.4213	42.043
67.3791	42.4655
72.4495	42.4655
