Adsorption isotherm of Hydrogen on (Me2NH2)2(DMF)9(H2O)5
DOI: 10.1021/Ic302583a
Adsorbate Hydrogen: InChIKey UFHFLCQGNIYNRP-UHFFFAOYSA-N
Temperature: 87 K
Tabular data in the source: 0
pressure (bar)	uptake (mg/g)
0.0119275	0.0360807
0.0537303	0.110447
0.0850824	0.164531
0.143308	0.247912
0.222435	0.344813
0.304547	0.423686
0.413533	0.522841
0.504604	0.601715
0.568801	0.649038
0.670322	0.718898
0.765871	0.788757
0.870378	0.851855
0.936068	0.885658
1.00474	0.926222
1.06894	0.960024
