Adsorption isotherm of Methane on (Me2NH2)2(DMF)9(H2O)5
DOI: 10.1021/Ic302583a
Adsorbate Methane: InChIKey VNWKTOKETHGBQD-UHFFFAOYSA-N
Temperature: 273 K
Tabular data in the source: 0
pressure (bar)	uptake (cm3(STP)/g)
0.0164064	0.70575
0.0955331	2.95927
0.173167	5.21279
0.249308	7.46631
0.332913	9.57899
0.432942	12.1142
0.540435	14.6494
0.622547	16.0579
0.703167	17.6072
0.806181	19.2973
0.888294	20.5649
0.96742	21.9734
1.04804	23.1001
