Adsorption isotherm of Hydrogen on (Me2NH2)2(DMF)9(H2O)5
DOI: 10.1021/Ic302583a
Adsorbate Hydrogen: InChIKey UFHFLCQGNIYNRP-UHFFFAOYSA-N
Temperature: 77 K
Tabular data in the source: 0
pressure (bar)	uptake (mg/g)
0.674837	0.564143
1.12554	8.09935
1.68892	13.874
2.81568	19.2261
4.84385	23.381
6.75934	25.8458
9.68892	27.8881
13.6326	29.7895
18.0269	30.7754
22.7593	31.1979
27.6044	32.043
37.6326	31.8317
47.4354	31.3388
52.6185	29.8599
57.5762	29.7895
62.534	29.6486
67.3791	28.9444
72.5622	28.2402
