Adsorption isotherm of Carbon Dioxide on (Me2NH2)2(DMF)9(H2O)5
DOI: 10.1021/Ic302583a
Adsorbate Carbon Dioxide: InChIKey CURLTUGMZLYLDI-UHFFFAOYSA-N
Temperature: 298 K
Tabular data in the source: 0
pressure (bar)	uptake (cm3(STP)/g)
0.00744863	0.564905
0.0746317	5.77617
0.141815	10.0015
0.201533	13.9452
0.243336	16.1987
0.298575	19.4381
0.362773	23.6635
0.42697	26.9029
0.501618	30.8466
0.577758	35.0719
0.655392	39.0156
0.727054	42.9593
0.804688	46.9029
0.877843	50.4241
0.930097	52.5367
1.00027	56.3396
