Adsorption isotherm of Carbon Dioxide on (Me2NH2)2(DMF)9(H2O)5
DOI: 10.1021/Ic302583a
Adsorbate Carbon Dioxide: InChIKey CURLTUGMZLYLDI-UHFFFAOYSA-N
Temperature: 195 K
Tabular data in the source: 0
pressure (bar)	uptake (cm3(STP)/g)
0.00894159	5.6399
0.00894159	32.6822
0.0119275	68.1751
0.0149134	104.795
0.0193923	158.316
0.0193923	202.823
0.0268571	242.26
0.0328289	276.062
0.0537303	300.288
0.105984	325.64
0.153758	334.654
0.241843	345.922
0.33142	351.555
0.404575	355.499
0.504604	359.443
0.606125	363.386
0.710632	364.513
0.806181	367.33
0.856942	368.457
