Adsorption isotherm of Methane on (Me2NH2)2(DMF)9(H2O)5
DOI: 10.1021/Ic302583a
Adsorbate Methane: InChIKey VNWKTOKETHGBQD-UHFFFAOYSA-N
Temperature: 298 K
Tabular data in the source: 0
pressure (bar)	uptake (cm3(STP)/g)
0.0178993	0.458128
0.0686599	1.33841
0.150773	2.67644
0.231392	3.90883
0.310519	5.14123
0.389646	6.26799
0.468773	7.28911
0.549392	8.38066
0.627026	9.19052
0.707646	10.0708
0.78528	10.9863
0.837533	11.5849
0.99728	13.099
1.02415	13.3807
1.04953	13.5919
