Adsorption isotherm of Carbon Dioxide on (Me2NH2)2(DMF)9(H2O)5
DOI: 10.1021/Ic302583a
Adsorbate Carbon Dioxide: InChIKey CURLTUGMZLYLDI-UHFFFAOYSA-N
Temperature: 285 K
Tabular data in the source: 0
pressure (bar)	uptake (cm3(STP)/g)
0.0193923	2.95927
0.0686599	7.18462
0.11942	11.8325
0.183618	17.3255
0.243336	22.255
0.301561	27.1846
0.362773	31.5508
0.432942	36.3396
0.501618	41.5508
0.580744	47.0438
0.655392	52.255
0.73004	57.3255
0.803195	62.1142
0.852463	65.2128
0.906209	68.3114
0.95697	71.5508
