Adsorption isotherm of Nitrogen on (Me2NH2)2(DMF)9(H2O)5
DOI: 10.1021/Ic302583a
Adsorbate Nitrogen: InChIKey IJGRMHOSHXDMSA-UHFFFAOYSA-N
Temperature: 273 K
Tabular data in the source: 0
pressure (bar)	uptake (cm3(STP)/g)
0.0251717	0.0534575
0.0661024	0.375585
0.113097	0.661614
0.166155	0.947643
0.21315	1.37669
0.278336	1.5197
0.343522	2.09176
0.407192	2.23477
0.470861	2.37779
0.552723	2.37779
0.619425	2.5208
0.683095	2.37779
0.748281	2.09176
0.810435	1.94874
0.877137	1.5197
0.940806	1.09066
1.00599	0.661614
