Adsorption isotherm of Carbon Dioxide on (Me2NH2)2(DMF)9(H2O)5
DOI: 10.1021/Ic302583a
Adsorbate Carbon Dioxide: InChIKey CURLTUGMZLYLDI-UHFFFAOYSA-N
Temperature: 273 K
Tabular data in the source: 0
pressure (bar)	uptake (cm3(STP)/g)
0.00296976	1.40998
0.0567162	8.45223
0.102998	14.2269
0.165702	21.6917
0.243336	29.8607
0.304547	36.0579
0.364266	42.1142
0.428463	48.3114
0.501618	55.2128
0.579251	62.255
0.653899	69.1565
0.73004	75.4945
0.803195	82.3959
0.858435	87.3255
0.927111	93.241
0.958463	95.4945
