Adsorption isotherm of Hydrogen on (Me2NH2)2(DMF)9(H2O)5
DOI: 10.1021/Ic302583a
Adsorbate Hydrogen: InChIKey UFHFLCQGNIYNRP-UHFFFAOYSA-N
Temperature: 77 K
Tabular data in the source: 0
pressure (bar)	uptake (mg/g)
0.00744863	0.0270666
0.029843	0.14425
0.0507444	0.236644
0.0880683	0.365095
0.13435	0.473264
0.177646	0.565658
0.25528	0.712137
0.316491	0.795517
0.382181	0.890165
0.474744	1.01411
0.556857	1.09974
0.641956	1.18538
0.725561	1.25974
0.834547	1.35214
0.898744	1.40622
0.968913	1.45355
1.00922	1.48059
1.06297	1.5189
