Adsorption isotherm of Nitrogen on (Me2NH2)2(DMF)9(H2O)5
DOI: 10.1021/Ic302583a
Adsorbate Nitrogen: InChIKey IJGRMHOSHXDMSA-UHFFFAOYSA-N
Temperature: 77 K
Tabular data in the source: 0
pressure (bar)	uptake (cm3(STP)/g)
0.00372489	4.93468
0.00372489	137.08
0.00372489	246.915
0.00372489	288.103
0.00515504	50.6993
0.00515504	93.6036
0.00658518	194.858
0.00944547	331.579
0.0123058	345.309
0.0337579	367.047
0.0866732	376.772
0.182493	385.925
0.276882	388.213
0.468521	392.789
0.661591	395.078
0.75598	396.222
0.85466	396.222
0.947619	396.794
