Adsorption isotherm of Methane on (Me2NH2)2(DMF)9(H2O)5
DOI: 10.1021/Ic302583a
Adsorbate Methane: InChIKey VNWKTOKETHGBQD-UHFFFAOYSA-N
Temperature: 195 K
Tabular data in the source: 0
pressure (bar)	uptake (cm3(STP)/g)
0.0193923	13.5272
0.0611951	28.1751
0.100012	40.5695
0.152266	56.9075
0.20004	68.7385
0.249308	82.2596
0.307533	95.2174
0.413533	118.316
0.521026	138.034
0.628519	156.062
0.731533	171.837
0.837533	186.485
0.946519	197.753
0.998773	203.95
1.04804	208.457
