Adsorption isotherm of Carbon Dioxide on (Me2NH2)2(DMF)9(H2O)5
DOI: 10.1021/Ic302583a
Adsorbate Carbon Dioxide: InChIKey CURLTUGMZLYLDI-UHFFFAOYSA-N
Temperature: 273 K
Tabular data in the source: 0
pressure (bar)	uptake (cm3(STP)/g)
0.00446271	0.98744
0.0567162	8.31138
0.098519	13.5227
0.161223	20.7057
0.203026	25.6353
0.286632	34.2269
0.343364	39.8607
0.406068	45.7762
0.47773	52.8184
0.555364	59.7198
0.627026	66.4804
0.706153	73.6635
0.780801	79.7198
0.855449	86.6212
0.909195	90.8466
0.958463	95.0719
