Adsorption isotherm of Methane on (Me2NH2)2(DMF)9(H2O)5
DOI: 10.1021/Ic302583a
Adsorbate Methane: InChIKey VNWKTOKETHGBQD-UHFFFAOYSA-N
Temperature: 285 K
Tabular data in the source: 0
pressure (bar)	uptake (cm3(STP)/g)
0.0193923	0.317283
0.0686599	1.54968
0.123899	2.74686
0.197054	4.437
0.283646	6.19756
0.359787	7.60601
0.416519	8.55672
0.494153	9.85954
0.574773	11.1624
0.656885	12.3243
0.734519	13.4159
0.81066	14.4018
0.892773	15.4229
0.94204	15.9863
0.994294	16.5497
1.05103	17.1835
