Adsorption isotherm of Methane on (Me2NH2)2(DMF)9(H2O)5
DOI: 10.1021/Ic302583a
Adsorbate Methane: InChIKey VNWKTOKETHGBQD-UHFFFAOYSA-N
Temperature: 273 K
Tabular data in the source: 0
pressure (bar)	uptake (cm3(STP)/g)
0.0223782	0.669395
0.0731388	2.39475
0.122406	3.87362
0.173167	5.42292
0.226913	6.83137
0.309026	8.87362
0.389646	10.9159
0.46728	12.6764
0.546406	14.3666
0.631505	16.0215
0.707646	17.5004
0.788266	18.944
0.864406	20.2469
0.946519	21.5497
0.995787	22.2891
1.04804	23.2046
