Adsorption isotherm of Nitrogen on C6[dema]H2PO4-1.0
DOI: 10.1021/acsami.1c09157
Article source: Figure S7
Adsorbate Nitrogen: InChIKey IJGRMHOSHXDMSA-UHFFFAOYSA-N
Kind: experiment
Temperature: 77 K
Tabular data in the source: 0
pressure (bar)	uptake (cm3(STP)/g)
0.007878	1.44105
0.017724	4.45415
0.037418	6.94323
0.055143	6.55022
0.072867	6.0262
0.092561	6.68122
0.110286	7.99127
0.137857	9.30131
0.151643	9.43231
0.167398	10.0873
0.191031	10.8734
0.212694	12.1834
0.263898	14.0175
0.32101	15.4585
0.356459	17.2926
0.407663	19.6507
0.456898	21.0917
0.508102	23.9738
0.559306	25.8079
0.61248	28.4279
0.659745	31.048
0.713903	34.3231
0.764122	35.7642
0.817296	38.9083
0.864561	41.5284
0.917735	44.8035
0.968939	47.1616
1.00833	54.6288
0.978786	50.9607
0.959092	48.7336
0.907888	47.8166
0.858653	46.6376
0.807449	45.3275
0.756245	44.0175
0.70701	43.1004
0.653837	41.6594
0.606571	40.4804
0.555367	38.2533
0.506133	37.3362
0.454929	35.7642
0.401755	32.7511
0.35449	29.345
0.303286	27.1179
0.271776	24.6288
0.242235	22.4017
