Adsorption isotherm of Nitrogen on COF-C6
DOI: 10.1021/acsami.1c09157
Article source: Figure 2B
Adsorbate Nitrogen: InChIKey IJGRMHOSHXDMSA-UHFFFAOYSA-N
Kind: experiment
Temperature: 77 K
Tabular data in the source: 0
pressure (bar)	uptake (cm3(STP)/g)
0.004814	54.2247
0.004814	9.5473
0.004814	33.2
0.017343	77.8774
0.044192	97.5881
0.056721	102.844
0.07641	112.043
0.097889	115.985
0.131897	118.613
0.160535	122.555
0.192754	126.497
0.216022	127.811
0.26614	131.753
0.298358	135.695
0.366374	147.522
0.387853	152.778
0.423651	158.034
0.471978	161.976
0.522095	167.232
0.575792	169.86
0.62233	176.431
0.674237	181.687
0.724354	188.257
0.769102	196.141
0.815639	205.339
0.856807	218.48
0.894395	238.19
0.912294	252.645
0.933773	271.041
0.944512	289.438
0.955251	305.207
0.962411	327.545
0.971361	342
0.97494	359.082
0.97852	374.851
0.98568	395.875
0.994629	411.644
0.996419	428.726
0.999999	443.181
1.00179	460.263
1.00537	483.916
0.998209	469.462
0.994629	455.007
0.98926	437.925
0.9821	418.214
0.97494	403.76
0.971361	386.677
0.957041	359.082
0.946302	338.058
0.935563	319.661
0.928403	302.578
0.919453	288.124
0.899765	264.471
0.878286	248.703
0.860387	238.19
0.826379	222.422
0.80669	214.538
0.758362	201.397
0.706455	193.513
0.649178	186.943
0.599061	180.373
0.543574	176.431
0.491667	172.488
0.44513	165.918
0.393223	160.662
0.343105	156.72
0.291198	154.092
0.26256	150.15
0.219602	147.522
0.190964	144.894
0.165905	143.579
0.142636	139.637
0.121158	139.637
0.101469	133.067
0.054931	122.555
0.040612	121.241
0.031663	117.299
0.026293	113.357
0.022713	108.1
0.019133	94.96
