Adsorption isotherm of Nitrogen on COF-F6 after 9M NaOH treatment
DOI: 10.1021/acsami.1c09157
Article source: Figure S13
Adsorbate Nitrogen: InChIKey IJGRMHOSHXDMSA-UHFFFAOYSA-N
Kind: experiment
Temperature: 77 K
Tabular data in the source: 0
pressure (bar)	uptake (cm3(STP)/g)
0.006229	2.32558
0.006229	9.30233
0.008305	18.0233
0.012458	30.814
0.014534	36.0465
0.02284	43.6047
0.043603	47.6744
0.058137	50.5814
0.072672	52.907
0.093435	55.2326
0.116275	56.9767
0.139114	58.7209
0.159878	60.4651
0.188946	62.2093
0.215939	65.1163
0.271999	66.2791
0.325984	68.6047
0.361282	70.9302
0.41319	74.4186
0.460946	76.7442
0.512854	78.4884
0.564762	81.9767
0.612518	84.8837
0.66235	87.2093
0.718411	90.6977
0.766166	95.3488
0.813922	100
0.867907	104.651
0.917739	111.628
0.965494	123.256
1.00287	149.419
1.00287	172.674
1.00495	190.116
0.977952	179.651
0.967571	159.884
0.938502	140.116
0.915662	127.907
0.859601	116.86
0.805617	112.791
0.757861	110.465
0.705953	106.977
0.658197	104.651
0.608365	102.326
0.556457	98.2558
0.510778	97.093
0.456793	93.6047
0.404885	90.6977
0.357129	87.7907
0.305221	85.4651
0.242931	81.3953
