Adsorption isotherm of Nitrogen on COF-F4
DOI: 10.1021/acsami.1c09157
Article source: Figure 2B
Adsorbate Nitrogen: InChIKey IJGRMHOSHXDMSA-UHFFFAOYSA-N
Kind: experiment
Temperature: 77 K
Tabular data in the source: 0
pressure (bar)	uptake (cm3(STP)/g)
0.004814	1.66305
0.003024	29.2579
0.010184	51.5966
0.024503	66.0511
0.035242	75.9064
0.044192	83.1336
0.054931	87.0757
0.067461	94.96
0.08178	101.53
0.106838	108.1
0.131897	108.1
0.160535	112.043
0.183804	117.299
0.212443	119.927
0.241081	119.927
0.26435	121.241
0.289408	122.555
0.316257	125.183
0.368164	126.497
0.420071	127.811
0.470188	129.125
0.520306	130.439
0.568633	133.067
0.62054	133.067
0.672447	133.067
0.722564	135.695
0.769102	139.637
0.817429	140.951
0.865756	143.579
0.914084	146.208
0.962411	158.034
0.98747	171.174
1.00358	190.885
0.98747	184.315
0.964201	171.174
0.915874	160.662
0.858597	156.72
0.80132	151.464
0.752993	146.208
0.702875	143.579
0.650968	139.637
0.604431	134.381
0.548944	133.067
0.500617	129.125
0.452289	129.125
0.398592	126.497
0.348475	125.183
0.296568	122.555
0.269719	122.555
0.248241	121.241
0.221392	117.299
0.198123	115.985
