Adsorption isotherm of Nitrogen on COF-F6
DOI: 10.1021/acsami.1c09157
Article source: Figure 2B
Adsorbate Nitrogen: InChIKey IJGRMHOSHXDMSA-UHFFFAOYSA-N
Kind: experiment
Temperature: 77 K
Tabular data in the source: 0
pressure (bar)	uptake (cm3(STP)/g)
0	13.4894
0.004814	24.0017
0.008394	33.2
0.011974	41.0843
0.022713	47.6545
0.033453	56.8528
0.058511	62.1089
0.090729	62.1089
0.119368	64.737
0.155166	64.737
0.201703	67.3651
0.2554	69.9932
0.303728	71.3072
0.382483	72.6213
0.4326	73.9353
0.479138	75.2494
0.532835	76.5634
0.584742	76.5634
0.631279	77.8774
0.684976	79.1915
0.735094	80.5055
0.783421	85.7617
0.828169	87.0757
0.880076	91.0178
0.923033	101.53
0.958831	112.043
0.97494	127.811
0.98747	144.894
0.992839	159.348
0.999999	176.431
1.00716	204.025
1.00716	217.166
0.994629	201.397
0.98031	159.348
0.97315	146.208
0.965991	133.067
0.937352	113.357
0.905134	105.472
0.853227	97.5881
0.79416	94.96
0.736884	91.0178
0.688556	89.7038
0.634859	88.3898
0.584742	85.7617
0.531045	85.7617
0.488087	83.1336
0.43439	80.5055
0.384273	80.5055
0.330576	80.5055
0.278669	80.5055
0.232132	76.5634
0.183804	76.5634
0.126527	72.6213
0.092519	71.3072
0.017343	58.1668
