Adsorption isotherm of Water on COF-F4
DOI: 10.1021/acsami.1c09157
Article source: Figure S8
Adsorbate Water: InChIKey XLYOFNOQVPJJNP-UHFFFAOYSA-N
Kind: experiment
Temperature: 293 K
Tabular data in the source: 0
pressure (bar)	uptake (ml/g)
0.000148	0
0.000246	1.53061
0.000296	4.59184
0.000443	7.65306
0.000591	9.18367
0.000813	13.7755
0.000985	19.898
0.001182	24.4898
0.001379	29.0816
0.001478	30.6122
0.001675	33.6735
0.001773	38.2653
0.00202	42.8571
0.002167	44.3878
0.002364	48.9796
0.002562	52.0408
0.002709	53.5714
0.002857	56.6327
0.003153	59.6939
0.003399	62.7551
0.003645	67.3469
0.003842	68.8775
0.004089	73.4694
0.004335	78.0612
0.00463	81.1225
0.005222	87.2449
0.005714	94.898
0.005911	97.9592
0.006552	105.612
0.006995	108.673
0.007488	116.327
0.007931	123.98
0.008226	125.51
0.008867	136.224
0.009162	140.816
0.009655	143.878
0.010148	151.531
0.010394	157.653
0.010837	163.776
0.01133	171.429
0.011527	176.02
0.011724	183.673
0.011921	189.796
0.012217	197.449
0.012315	203.571
0.012463	209.694
0.012611	215.816
0.012857	221.939
0.012906	231.122
0.013153	238.776
0.013251	244.898
0.013448	252.551
0.013547	258.673
0.013596	264.796
0.013694	270.918
0.013842	277.041
0.01399	286.224
0.014187	293.878
0.014335	300
0.014483	307.653
0.014581	313.776
0.014729	322.959
0.014877	326.02
0.014975	335.204
0.015123	341.327
0.015271	350.51
0.015468	356.633
0.015566	362.755
0.015665	368.878
0.015862	376.531
0.01596	382.653
0.016207	391.837
0.016256	394.898
0.016502	402.551
0.01665	408.673
0.016798	416.327
0.016946	422.449
0.017044	427.041
0.017241	434.694
0.017438	440.816
0.017586	446.939
0.017734	454.592
0.01798	460.714
0.018128	463.776
0.018276	469.898
0.018473	476.02
0.018719	485.204
0.018817	491.327
0.019014	497.449
0.019212	500.51
0.019409	506.633
0.019606	515.816
0.019803	521.939
0.02	528.061
0.020197	535.714
0.020394	538.776
0.020542	544.898
0.020739	552.551
0.021133	561.735
0.02128	566.327
0.021428	570.918
0.021576	577.041
0.021773	583.163
0.02197	589.286
0.021231	586.224
0.02064	577.041
0.02	570.918
0.019556	567.857
0.019014	558.673
0.018768	557.143
0.018325	547.959
0.017931	543.367
0.017635	535.714
0.01729	532.653
0.016946	521.939
0.01665	518.878
0.016354	511.224
0.016157	503.571
0.015862	498.98
0.015616	495.918
0.015418	489.796
0.015172	480.612
0.015024	472.959
0.014778	468.367
0.01468	462.245
0.014483	456.122
0.014384	451.531
0.014286	443.878
0.014187	437.755
0.014088	431.633
0.01399	425.51
0.013793	417.857
0.013694	410.204
0.013547	404.082
0.013497	399.49
0.013448	391.837
0.0133	382.653
0.013202	375
0.013103	368.878
0.013005	364.286
0.012906	358.163
0.012758	350.51
0.012709	341.327
0.012611	333.673
0.012512	327.551
0.012364	318.367
0.012217	313.776
0.012217	307.653
0.012069	300
0.01202	292.347
0.011872	287.755
0.011724	283.163
0.011625	270.918
0.011478	258.673
0.011084	241.837
0.010739	228.061
0.010295	214.286
0.009704	202.041
0.009064	191.327
0.008374	180.612
0.00798	172.959
0.007192	159.184
0.006798	154.592
0.006059	145.408
0.005763	140.816
0.005025	130.102
0.00463	120.918
0.004433	117.857
0.004089	113.265
0.00399	110.204
0.003793	107.143
0.003596	104.082
0.00335	101.02
0.003153	96.4286
0.003005	93.3673
0.002857	89.5408
0.002709	87.2449
0.002512	82.6531
0.002364	79.5918
0.002217	76.5306
0.002069	73.4694
0.001921	68.8775
0.001724	65.8163
0.001576	64.2857
0.001478	61.2245
0.00133	56.6327
0.001281	55.102
0.001182	52.0408
0.001084	50.5102
0.000936	44.3878
0.000837	38.2653
0.000739	36.7347
0.000542	30.6122
