Adsorption isotherm of Water on COF-C6
DOI: 10.1021/acsami.1c09157
Article source: Figure S8
Adsorbate Water: InChIKey XLYOFNOQVPJJNP-UHFFFAOYSA-N
Kind: experiment
Temperature: 293 K
Tabular data in the source: 0
pressure (bar)	uptake (ml/g)
0.001675	3.06122
0.004828	15.3061
0.008226	32.1429
0.011478	52.0408
0.014827	68.8775
0.018867	85.7143
0.022364	102.551
0.021034	99.4898
0.019655	90.3061
0.018276	87.2449
0.017093	81.1225
0.015911	75
0.014827	70.4082
0.013054	62.7551
0.012315	62.7551
0.011034	52.8061
0.009951	48.9796
0.008965	41.3265
0.008128	36.7347
0.006896	30.6122
0.006207	27.551
0.005616	22.9592
0.005222	22.9592
0.00463	21.4286
0.004089	18.3673
0.003399	13.7755
0.002808	10.7143
0.002266	10.7143
0.001724	7.65306
0.001182	4.59184
0.00069	4.59184
