Adsorption isotherm of Nitrogen on COF-F6-[dema]HSO4-1.0
DOI: 10.1021/acsami.1c09157
Article source: Figure S28
Adsorbate Nitrogen: InChIKey IJGRMHOSHXDMSA-UHFFFAOYSA-N
Kind: experiment
Temperature: 77 K
Tabular data in the source: 0
pressure (bar)	uptake (cm3(STP)/g)
0.01481	-1.43816
0.09918	-0.841317
0.12203	-0.841317
0.143122	-2.63186
0.16773	-0.841317
0.192338	-2.63186
0.213431	-0.841317
0.238039	-0.841317
0.269677	-0.841317
0.299559	-0.841317
0.345259	-0.244469
0.396232	-0.841317
0.443691	-1.43816
0.491149	-2.63186
0.538607	-1.43816
0.58958	-2.03501
0.638796	-2.03501
0.688012	-2.03501
0.738107	-2.03501
0.782928	-2.63186
0.83566	-3.22871
0.886633	-2.63186
0.934091	-3.22871
0.983307	-2.63186
1.00967	3.93347
0.992096	-3.22871
0.677466	-1.43816
0.630008	-2.03501
0.570246	-1.43816
0.519272	-1.43816
0.468299	-1.43816
0.417325	-2.63186
0.359321	-2.63186
0.294285	-1.43816
0.072814	-2.63186
0.048206	-1.43816
0.030629	-1.43816
0.132576	-2.03501
