Adsorption isotherm of Water on COF-F6
DOI: 10.1021/acsami.1c09157
Article source: Figure S8
Adsorbate Water: InChIKey XLYOFNOQVPJJNP-UHFFFAOYSA-N
Kind: experiment
Temperature: 293 K
Tabular data in the source: 0
pressure (bar)	uptake (ml/g)
0.001084	0
0.005911	13.7755
0.010936	26.0204
0.016551	35.2041
0.022167	45.9184
0.016847	38.2653
0.012611	30.6122
0.009803	26.0204
0.007783	19.898
0.006355	15.3061
0.005172	10.7143
0.004187	10.7143
0.003596	9.18367
0.002512	3.06122
0.001773	1.53061
0.001084	0
0.000566	0
