Adsorption isotherm of Nitrogen on COF-C6-[dema]HSO4-1.0
DOI: 10.1021/acsami.1c09157
Article source: Figure S28
Adsorbate Nitrogen: InChIKey IJGRMHOSHXDMSA-UHFFFAOYSA-N
Kind: experiment
Temperature: 77 K
Tabular data in the source: 0
pressure (bar)	uptake (cm3(STP)/g)
0.240402	21.1082
0.270675	22.4274
0.304509	25.066
0.35437	25.066
0.40067	30.343
0.454093	31.6623
0.503954	35.6201
0.555596	35.6201
0.605457	36.9393
0.65888	40.8971
0.708741	39.5778
0.75326	42.2164
0.810244	44.8549
0.860105	44.8549
0.908185	46.1741
0.959827	46.1741
0.979416	47.4934
1.00969	54.0897
0.970512	44.8549
0.91887	43.5356
0.867228	39.5778
0.812025	34.3008
0.767506	31.6623
0.712302	31.6623
0.662441	26.3852
0.61258	25.066
0.559157	23.7467
0.509296	22.4274
0.457654	17.1504
0.407793	14.5119
0.35437	13.1926
0.318755	10.5541
0.268894	10.5541
0.213691	9.23483
0.190541	7.91557
0.169172	6.59631
0.153145	7.91557
0.135337	6.59631
0.112188	6.59631
0.087257	3.95778
0.07123	3.95778
0.055203	3.95778
0.040957	1.31926
0.019588	2.63852
