Adsorption isotherm of Nitrogen on COF-F4-[dema]HSO4-1.0
DOI: 10.1021/acsami.1c09157
Article source: Figure S28
Adsorbate Nitrogen: InChIKey IJGRMHOSHXDMSA-UHFFFAOYSA-N
Kind: experiment
Temperature: 77 K
Tabular data in the source: 0
pressure (bar)	uptake (cm3(STP)/g)
0.012335	3.87597
0.082822	1.29199
0.123352	0
0.167407	0
0.213223	0
0.26785	0
0.317191	0
0.370057	-1.29199
0.415873	-1.29199
0.468738	0
0.519841	0
0.572707	0
0.620285	0
0.674913	0
0.724253	0
0.773594	0
0.824697	0
0.874038	-2.58398
0.949812	0
0.999153	-2.58398
0.893422	-1.29199
0.847606	-1.29199
0.79474	-1.29199
0.7454	-1.29199
0.696059	-1.29199
0.643193	-1.29199
0.597377	-2.58398
0.546274	0
0.493409	-1.29199
0.442306	-2.58398
0.391203	-2.58398
0.156833	-2.58398
0.093395	-2.58398
0.061676	-2.58398
0.029076	0
