Adsorption isotherm of Carbon Dioxide on Co3(HCOO)6
DOI: 10.1002/chem.201101733
Adsorbate Carbon Dioxide: InChIKey CURLTUGMZLYLDI-UHFFFAOYSA-N
Temperature: 333 K
Tabular data in the source: 0
pressure (bar)	uptake (cm3(STP)/g)
2.93653	3.41637
6.40192	6.69039
9.3328	9.25267
17.3147	14.5196
26.0885	19.3594
35.1205	23.2028
44.6768	26.1922
57.9445	29.6085
65.1062	31.032
68.0238	31.6014
75.1827	32.5979
83.4013	33.5943
