Adsorption isotherm of Methane on Co3(HCOO)6
DOI: 10.1002/chem.201101733
Adsorbate Methane: InChIKey VNWKTOKETHGBQD-UHFFFAOYSA-N
Temperature: 298 K
Tabular data in the source: 0
pressure (bar)	uptake (cm3(STP)/g)
2.39706	0.888722
4.64293	1.95297
7.18802	3.19432
12.2803	5.32493
17.6729	7.45659
22.9175	9.23563
28.1631	10.8386
33.5568	12.7942
39.1038	14.2222
44.5017	15.4736
49.8995	16.725
