Adsorption isotherm of Methane on Co3(HCOO)6
DOI: 10.1002/chem.201101733
Adsorbate Methane: InChIKey VNWKTOKETHGBQD-UHFFFAOYSA-N
Temperature: 273 K
Tabular data in the source: 0
pressure (bar)	uptake (cm3(STP)/g)
2.75719	1.92171
4.1366	3.20285
5.82237	4.69751
10.1113	7.68683
14.5532	10.6762
18.9929	12.8114
23.7389	15.1601
28.1786	17.2954
32.7707	19.2171
37.5146	20.7117
42.259	22.4199
47.6145	23.9146
