Adsorption isotherm of Methane on Co3(HCOO)6
DOI: 10.1002/chem.201101733
Adsorbate Methane: InChIKey VNWKTOKETHGBQD-UHFFFAOYSA-N
Temperature: 261 K
Tabular data in the source: 0
pressure (bar)	uptake (cm3(STP)/g)
0.789096	2.14765
1.29125	3.75839
1.7934	5.57047
2.29555	7.65101
3.08465	9.46309
4.08895	11.4765
4.94978	13.1544
5.88235	14.7651
7.89096	17.3826
10.1148	19.396
12.5538	21.5436
15.495	23.2215
18.1492	24.4966
21.2339	25.8389
24.2468	26.7785
27.3314	27.5839
30.2726	28.3221
33.5007	29.1275
36.5854	29.6644
39.7418	30.0671
42.8981	30.604
46.2697	31.0067
