Adsorption isotherm of Methane on Co3(HCOO)6
DOI: 10.1002/chem.201101733
Adsorbate Methane: InChIKey VNWKTOKETHGBQD-UHFFFAOYSA-N
Temperature: 333 K
Tabular data in the source: 0
pressure (bar)	uptake (cm3(STP)/g)
2.98367	0.854093
5.96734	1.70819
12.9286	3.55872
19.8882	4.98221
26.6827	6.54804
33.6423	7.97153
40.9323	9.25267
47.8913	10.5338
