Adsorption isotherm of Carbon Dioxide on Co3(HCOO)6
DOI: 10.1002/chem.201101733
Adsorbate Carbon Dioxide: InChIKey CURLTUGMZLYLDI-UHFFFAOYSA-N
Temperature: 273 K
Tabular data in the source: 0
pressure (bar)	uptake (cm3(STP)/g)
0.646758	5.5516
1.29352	11.1032
2.04492	15.8007
2.90097	19.6441
3.86317	23.4875
6.21031	30.1068
9.19024	34.3772
12.1679	37.3665
15.5694	39.9288
19.1817	41.637
22.7937	43.1317
26.1933	44.6263
33.5211	46.3345
