Adsorption isotherm of Carbon Dioxide on Co3(HCOO)6
DOI: 10.1002/chem.201101733
Adsorbate Carbon Dioxide: InChIKey CURLTUGMZLYLDI-UHFFFAOYSA-N
Temperature: 298 K
Tabular data in the source: 0
pressure (bar)	uptake (cm3(STP)/g)
1.51058	3.87739
3.40626	7.75583
5.11211	11.2816
7.01321	14.4559
11.3944	20.6299
16.5567	25.3976
21.9224	28.7574
28.0623	31.5911
34.7854	33.7223
41.3186	35.5008
48.2396	36.9282
54.9707	38.003
61.8972	38.7263
68.8236	39.4495
