Adsorption isotherm of Ethane, Ethene on NA-ETS-10
DOI: 10.1016/j.ces.2010.02.048
Article source: Table 2
Adsorbate Ethane: InChIKey OTMSDBZUPAUEDD-UHFFFAOYSA-N
Adsorbate Ethene: InChIKey VGGSQFUCUMXWEO-UHFFFAOYSA-N
Kind: experiment
Temperature: 298 K
Tabular data in the source: 0
pressure (bar)	Ethane fraction	Ethane uptake (ml/g)	Ethene fraction	Ethene uptake (ml/g)	total uptake (ml/g)
1.01325	0.41	4.8	0.59	35.2	40
