Adsorption isotherm of Carbon Dioxide on Zn2(pydc)2(DEF)
DOI: 10.1021/ic503047y
Article source: Figure 6b
Adsorbate Carbon Dioxide: InChIKey CURLTUGMZLYLDI-UHFFFAOYSA-N
Kind: experiment
Temperature: 296 K
Tabular data in the source: 0
pressure (bar)	uptake (ml/g)
0.022769	0.679245
0.045503	1.24528
0.075755	1.81132
0.098471	2.32075
0.124911	2.71698
0.151351	3.11321
0.177791	3.50943
0.204196	3.79245
0.230618	4.13208
0.253245	4.35849
0.27965	4.64151
0.302277	4.86792
0.339995	5.26415
0.358827	5.37736
0.377678	5.54717
0.404064	5.77358
0.434193	5.9434
0.464321	6.11321
0.483189	6.33962
0.505781	6.45283
0.535909	6.62264
0.562296	6.84906
0.588665	7.01887
0.615016	7.13208
0.637608	7.24528
0.6602	7.35849
0.686551	7.4717
0.712938	7.69811
0.739272	7.75472
0.765641	7.92453
0.791974	7.98113
0.818343	8.15094
0.844694	8.26415
0.867286	8.37736
0.893637	8.49057
0.91247	8.60377
0.938839	8.77358
0.965172	8.83019
0.995301	9
1.02162	9
