Adsorption isotherm of Carbon Dioxide on Zn4(pydc)4-(DMF)2-3DMF
DOI: 10.1021/ic503047y
Article source: Figure 6a
Adsorbate Carbon Dioxide: InChIKey CURLTUGMZLYLDI-UHFFFAOYSA-N
Kind: experiment
Temperature: 296 K
Tabular data in the source: 0
pressure (bar)	uptake (ml/g)
0.022575	3
0.052612	6
0.07517	8.72727
0.09771	11.1818
0.127697	13.3636
0.15022	15.5455
0.176459	17.4545
0.20268	19.0909
0.228901	20.7273
0.251391	22.3636
0.277595	23.7273
0.303799	25.0909
0.33002	26.7273
0.359939	27.8182
0.378664	28.9091
0.404851	30
0.434769	31.0909
0.457208	31.9091
0.483412	33.2727
0.509583	34.0909
0.535753	34.9091
0.561923	35.7273
0.588094	36.5455
0.606801	37.3636
0.632972	38.1818
0.659142	39
0.689026	39.5455
0.711431	39.8182
0.737619	40.9091
0.767486	41.1818
0.789925	42
0.816062	42.2727
0.834752	42.8182
0.860923	43.6364
0.890824	44.4545
0.909498	44.7273
0.939366	45
0.965536	45.8182
0.991672	46.0909
1.01036	46.6364
