Adsorption isotherm of Nitrogen on Zn2(pydc)2(DEF)
DOI: 10.1021/ic503047y
Article source: Figure S16
Adsorbate Nitrogen: InChIKey IJGRMHOSHXDMSA-UHFFFAOYSA-N
Kind: experiment
Temperature: 77 K
Tabular data in the source: 0
pressure (bar)	uptake (cm3(STP)/g)
0.026413	10.5624
0.05417	12.5961
0.057301	10.9877
0.072699	13.0123
0.07582	11.8066
0.103587	13.4376
0.103628	11.8269
0.125215	13.4535
0.128347	11.845
0.149934	13.4716
0.156145	12.2681
0.171552	13.8901
0.177774	12.2839
0.193171	14.3086
0.202482	12.7047
0.220959	15.1343
0.2272	12.7228
0.245677	15.1524
0.254999	13.1458
0.270396	15.1705
0.276627	13.1617
0.298194	15.5936
0.304425	13.5847
0.325992	16.0166
0.329144	13.6028
0.347621	16.0324
0.353852	14.0236
0.372329	16.4532
0.378571	14.0417
0.397048	16.4713
0.4002	14.0575
0.424846	16.8943
0.428008	14.0779
0.446464	17.3128
0.449627	14.4964
0.471173	17.7336
0.477435	14.5167
0.498991	17.3513
0.502143	14.9375
0.51753	17.3649
0.526852	15.3583
0.548429	17.3875
0.55157	15.3764
0.573137	17.8083
0.576289	15.3945
0.597845	18.2291
0.600997	15.8153
0.622564	18.2471
0.625706	16.236
0.647282	18.2652
0.650424	16.2541
0.672001	18.2833
0.675153	15.8695
0.69672	18.3014
0.699861	16.2903
0.724528	18.3218
0.72766	16.7134
0.746157	18.3376
0.749288	16.7292
0.770876	18.3557
0.773997	17.15
0.795584	18.7765
0.798705	17.5707
0.820303	18.7946
0.826513	17.5911
0.848101	19.2176
0.848132	18.0096
0.872819	19.2357
0.87594	18.03
0.894458	18.8489
0.897569	18.0458
0.919167	19.2697
0.925367	18.4688
0.946975	19.29
0.950075	18.8896
0.971673	20.1135
0.971694	19.3081
0.990181	21.3351
