Adsorption isotherm of Carbon Dioxide on Zn4(pydc)4-(DMF)2-3DMF
DOI: 10.1021/ic503047y
Article source: Figure S10
Adsorbate Carbon Dioxide: InChIKey CURLTUGMZLYLDI-UHFFFAOYSA-N
Kind: experiment
Temperature: 273 K
Tabular data in the source: 0
pressure (bar)	uptake (ml/g)
0.824371	12.87
1.72375	21.1771
1.72395	20.3027
2.62377	26.7152
2.69901	26.1323
3.44902	30.796
3.52427	30.213
4.4246	34.4395
4.42474	33.7108
5.25021	36.917
5.32541	36.4798
6.07587	39.2489
6.076	38.5202
6.82657	40.852
6.97682	40.7063
7.72734	43.0381
7.80261	42.4552
8.62843	44.0583
8.70342	44.4955
9.52928	45.9529
9.67963	45.37
10.3552	47.1188
10.5056	46.5359
11.2562	48.4305
11.3314	47.8475
12.0822	49.4507
12.1574	48.722
12.9082	50.3251
13.0585	49.7422
13.8092	51.3453
13.9596	50.7623
14.7103	52.074
14.7855	51.6368
15.6114	53.0942
15.6867	52.5112
16.5125	53.9686
16.5127	53.2399
17.3385	54.6973
17.4138	53.9686
18.1647	54.6973
18.2397	55.1345
19.0657	56.009
19.0658	55.426
19.8918	56.4462
19.8919	55.8632
20.793	56.8834
20.7931	56.4462
21.619	57.4664
21.6943	56.7377
22.5955	57.3206
22.6704	57.9036
23.4214	58.3408
23.4216	57.7578
24.2476	58.4865
24.3226	58.9238
25.0736	59.5067
25.1488	59.0695
25.9748	59.6525
25.9748	59.7982
26.876	60.2354
26.9511	59.9439
27.7021	60.5269
27.7773	60.0897
28.5282	60.9641
28.5283	60.6726
29.5045	61.2556
29.5046	60.9641
30.2555	61.8386
30.3307	61.2556
31.0816	61.9843
31.0817	61.5471
31.9829	62.13
32.2083	61.9843
32.809	62.4215
32.9593	62.13
33.7854	62.4215
33.7854	62.713
34.5364	62.8587
