Adsorption isotherm of Nitrogen on Zn2(pydc)2(DEF)-MeOH
DOI: 10.1021/ic503047y
Article source: Figure S16
Adsorbate Nitrogen: InChIKey IJGRMHOSHXDMSA-UHFFFAOYSA-N
Kind: experiment
Temperature: 77 K
Tabular data in the source: 0
pressure (bar)	uptake (cm3(STP)/g)
0.005033	0.88227
0.014303	0.889056
0.023572	0.895843
0.039022	0.907154
0.051381	0.916203
0.06374	0.925252
0.079189	0.936563
0.094628	1.35055
0.100808	1.35508
0.106987	1.3596
0.150245	1.39127
0.156425	1.3958
0.196582	1.82788
0.205852	1.83467
0.245999	2.66943
0.252199	1.8686
0.295436	2.70563
0.301626	2.30747
0.347953	3.14676
0.351043	3.14902
0.39429	3.58337
0.40048	3.18522
0.446806	4.02451
0.449917	3.22142
0.499323	4.46564
0.499354	3.25761
0.54876	4.50184
0.551861	4.10142
0.598187	4.94071
0.601288	4.5403
0.647614	5.37958
0.647625	4.97691
0.697041	5.81846
0.700152	5.01536
0.746468	6.25733
0.749589	5.05156
0.795895	6.6962
0.795905	6.29352
0.845322	7.13507
0.848432	6.33198
0.894759	7.17127
0.897849	7.17353
0.947266	8.01508
