Adsorption isotherm of Carbon Dioxide on Zn2(pydc)2(DEF)-MeOH
DOI: 10.1021/ic503047y
Article source: Figure 6b
Adsorbate Carbon Dioxide: InChIKey CURLTUGMZLYLDI-UHFFFAOYSA-N
Kind: experiment
Temperature: 273 K
Tabular data in the source: 0
pressure (bar)	uptake (ml/g)
0.030128	0.169811
0.052738	0.339623
0.082849	0.45283
0.101681	0.566038
0.128032	0.679245
0.154384	0.792453
0.176975	0.90566
0.207104	1.07547
0.229696	1.18868
0.256047	1.30189
0.278639	1.41509
0.305008	1.58491
0.331359	1.69811
0.35771	1.81132
0.380302	1.92453
0.406671	2.09434
0.440541	2.20755
0.463133	2.32075
0.489502	2.49057
0.504557	2.54717
0.530926	2.71698
0.561037	2.83019
0.587388	2.9434
0.617517	3.11321
0.636349	3.22642
0.658941	3.33962
0.685292	3.45283
0.711643	3.56604
0.737977	3.62264
0.764364	3.84906
0.790733	4.01887
0.809565	4.13208
0.83964	4.13208
0.866009	4.30189
0.888637	4.5283
0.918747	4.64151
0.941339	4.75472
0.96769	4.86792
0.990265	4.92453
1.01287	5.09434
