Adsorption isotherm of Carbon Dioxide on Zn4(pydc)4-(DMF)2-3DMF
DOI: 10.1021/ic503047y
Article source: Figure 6a
Adsorbate Carbon Dioxide: InChIKey CURLTUGMZLYLDI-UHFFFAOYSA-N
Kind: experiment
Temperature: 273 K
Tabular data in the source: 0
pressure (bar)	uptake (ml/g)
0.026543	6.81818
0.053036	12.8182
0.075729	17.7273
0.102103	21.8182
0.128443	25.3636
0.151018	28.3636
0.181038	31.0909
0.203562	33.2727
0.229817	35.4545
0.252307	37.0909
0.278528	38.7273
0.304732	40.0909
0.330953	41.7273
0.35714	42.8182
0.379596	43.9091
0.409532	45.2727
0.431971	46.0909
0.458158	47.1818
0.484328	48
0.510499	48.8182
0.536669	49.6364
0.562839	50.4545
0.588993	51
0.611415	51.5455
0.637585	52.3636
0.660007	52.9091
0.68616	53.4545
0.708565	53.7273
0.734735	54.5455
0.764603	54.8182
0.787025	55.3636
0.813178	55.9091
0.839332	56.4545
0.865468	56.7273
0.891604	57
0.914026	57.5455
0.94018	58.0909
0.966333	58.6364
0.988721	58.6364
1.01487	59.1818
