Adsorption isotherm of Carbon Dioxide on MOF-69c
DOI: 10.1021/ic503047y
Article source: Figure 6b
Adsorbate Carbon Dioxide: InChIKey CURLTUGMZLYLDI-UHFFFAOYSA-N
Kind: experiment
Temperature: 296 K
Tabular data in the source: 0
pressure (bar)	uptake (ml/g)
0.026369	0.169811
0.048925	0.169811
0.082778	0.226415
0.105334	0.226415
0.124149	0.283019
0.150482	0.339623
0.176851	0.509434
0.195648	0.509434
0.229518	0.622642
0.259611	0.679245
0.274667	0.735849
0.30476	0.792453
0.338612	0.849057
0.353667	0.90566
0.38376	0.962264
0.406334	1.01887
0.440187	1.07547
0.458984	1.07547
0.492836	1.13208
0.507891	1.18868
0.530483	1.30189
0.560576	1.35849
0.579391	1.41509
0.613225	1.41509
0.643336	1.5283
0.66591	1.58491
0.688466	1.58491
0.711041	1.64151
0.733615	1.69811
0.752447	1.81132
0.759948	1.75472
0.790059	1.86792
0.816392	1.92453
0.838967	1.98113
0.861523	1.98113
0.887839	1.98113
0.917949	2.09434
0.944283	2.15094
0.974376	2.20755
1.00073	2.32075
1.0158	2.43396
