Adsorption isotherm of Carbon Dioxide on Zn2(pydc)2(DEF)
DOI: 10.1021/ic503047y
Article source: Figure 6b
Adsorbate Carbon Dioxide: InChIKey CURLTUGMZLYLDI-UHFFFAOYSA-N
Kind: experiment
Temperature: 273 K
Tabular data in the source: 0
pressure (bar)	uptake (ml/g)
0.022524	2.18182
0.048728	3.54545
0.074932	4.90909
0.101085	5.45455
0.123507	6
0.149678	6.81818
0.175831	7.36364
0.201984	7.90909
0.228138	8.45455
0.254257	8.45455
0.280393	8.72727
0.302799	9
0.328935	9.27273
0.358803	9.54545
0.381208	9.81818
0.407327	9.81818
0.433463	10.0909
0.4596	10.3636
0.481988	10.3636
0.508124	10.6364
0.534244	10.6364
0.56038	10.9091
0.582768	10.9091
0.608921	11.4545
0.635041	11.4545
0.66116	11.4545
0.683565	11.7273
0.709685	11.7273
0.735804	11.7273
0.76194	12
0.78806	12
0.810448	12
0.836584	12.2727
0.862704	12.2727
0.888823	12.2727
0.914959	12.5455
0.937347	12.5455
0.963467	12.5455
0.989586	12.5455
1.01199	12.8182
