Adsorption isotherm of Carbon Dioxide on Zn2(pydc)2(DEF)-MeOH
DOI: 10.1021/ic503047y
Article source: Figure 6b
Adsorbate Carbon Dioxide: InChIKey CURLTUGMZLYLDI-UHFFFAOYSA-N
Kind: experiment
Temperature: 296 K
Tabular data in the source: 0
pressure (bar)	uptake (ml/g)
0.022574	0.056604
0.045184	0.226415
0.079018	0.226415
0.101592	0.283019
0.127908	0.283019
0.154242	0.339623
0.180593	0.45283
0.206927	0.509434
0.233278	0.622642
0.252075	0.622642
0.278408	0.679245
0.308519	0.792453
0.327316	0.792453
0.353632	0.792453
0.387502	0.90566
0.410076	0.962264
0.432632	0.962264
0.455206	1.01887
0.485282	1.01887
0.511651	1.18868
0.534207	1.18868
0.5643	1.24528
0.586892	1.35849
0.609466	1.41509
0.635799	1.4717
0.662133	1.5283
0.688449	1.5283
0.711005	1.5283
0.741116	1.64151
0.767467	1.75472
0.786264	1.75472
0.816339	1.75472
0.842673	1.81132
0.869042	1.98113
0.891616	2.03774
0.914172	2.03774
0.936729	2.03774
0.970581	2.09434
0.993155	2.15094
1.01952	2.32075
