Adsorption isotherm of Carbon Dioxide on MOF-69c
DOI: 10.1021/ic503047y
Article source: Figure 6b
Adsorbate Carbon Dioxide: InChIKey CURLTUGMZLYLDI-UHFFFAOYSA-N
Kind: experiment
Temperature: 273 K
Tabular data in the source: 0
pressure (bar)	uptake (ml/g)
0.052685	0.169811
0.079001	0.169811
0.101592	0.283019
0.127926	0.339623
0.154277	0.45283
0.176851	0.509434
0.203203	0.622642
0.229536	0.679245
0.255887	0.792453
0.278444	0.792453
0.308572	0.962264
0.331129	0.962264
0.361257	1.13208
0.380072	1.18868
0.406405	1.24528
0.436498	1.30189
0.45909	1.41509
0.485423	1.4717
0.508015	1.58491
0.534349	1.64151
0.560665	1.64151
0.586998	1.69811
0.60959	1.81132
0.635924	1.86792
0.662257	1.92453
0.684831	1.98113
0.714906	1.98113
0.737516	2.15094
0.763832	2.15094
0.786424	2.26415
0.812739	2.26415
0.839055	2.26415
0.865406	2.37736
0.887981	2.43396
0.914314	2.49057
0.940665	2.60377
0.966963	2.54717
0.993297	2.60377
1.01591	2.77358
