Adsorption isotherm of Nitrogen on Zn4(pydc)4-(DMF)2-3DMF
DOI: 10.1021/ic503047y
Article source: Figure S16
Adsorbate Nitrogen: InChIKey IJGRMHOSHXDMSA-UHFFFAOYSA-N
Kind: experiment
Temperature: 77 K
Tabular data in the source: 0
pressure (bar)	uptake (cm3(STP)/g)
0	78.194
0	80.2074
0	81.8181
0	83.8292
0	86.2453
0	87.8582
0	90.2743
0	93.4957
0.002576	96.3167
0.002638	93.9007
0.005635	97.527
0.014884	98.3391
0.027201	99.9589
0.036461	100.368
0.04572	100.778
0.061148	101.594
0.073497	102.006
0.082756	102.416
0.098205	102.427
0.147622	103.269
0.197038	104.11
0.246455	104.952
0.295871	105.793
0.345288	106.635
0.394715	107.074
0.447221	107.917
0.493548	108.757
0.549154	109.2
0.592402	109.634
0.644908	110.478
0.694335	110.917
0.743752	111.759
0.793178	112.198
0.839516	112.634
0.895122	113.078
0.950729	113.521
0.993914	116.371
