Adsorption isotherm of Nitrogen on MOF-69c
DOI: 10.1021/ic503047y
Article source: Figure S16
Adsorbate Nitrogen: InChIKey IJGRMHOSHXDMSA-UHFFFAOYSA-N
Kind: experiment
Temperature: 77 K
Tabular data in the source: 0
pressure (bar)	uptake (cm3(STP)/g)
0.001933	1.28268
0.011203	1.28947
0.048281	1.31662
0.079179	1.33924
0.100818	0.952399
0.147166	0.986332
0.205862	1.43199
0.255289	1.87086
0.301626	2.30747
0.347984	1.93873
0.40049	2.78254
0.449927	2.81874
0.496285	2.45
0.548802	2.89113
0.598239	2.92733
0.647677	2.96352
0.694014	3.40013
0.74961	4.24621
0.795957	4.28014
0.848495	3.91592
0.901022	3.95438
0.944269	4.38873
