Adsorption isotherm of Nitrogen on COF-TVBT-PA
DOI: 10.1039/d0cc02896g
Article source: Figure S5
Adsorbate Nitrogen: InChIKey IJGRMHOSHXDMSA-UHFFFAOYSA-N
Kind: experiment
Temperature: 77 K
Tabular data in the source: 0
pressure (bar)	uptake (cm3(STP)/g)
0.002012	53.5957
0.00211	44.462
0.001426	35.0575
0.000742	28.4677
0.000604	10.8362
0.000604	1.45631
0.010033	61.9478
0.048608	63.7728
0.082245	65.3329
0.12933	66.1144
0.148027	66.2706
0.179889	67.3344
0.250521	68.3148
0.281579	69.2766
0.327607	70.0092
0.349746	70.2577
0.380096	71.0736
0.42636	72.6385
0.45378	72.7995
0.485136	73.7326
0.510269	73.772
0.555768	74.5179
0.586826	75.2309
0.62986	75.9873
0.654228	76.5276
0.684706	77.3381
0.711304	77.7492
0.752694	78.2026
0.784637	79.2563
0.816091	79.6975
0.882419	82.4081
0.915046	85.8968
0.969261	92.3049
0.987723	104.544
0.004931	59.5455
0.002465	56.9697
0.000822	50.6061
0.000822	47.5758
0.000822	39.3939
0.022188	63.3333
0.048485	65.4545
0.102722	67.8788
0.101078	65.4545
0.150385	69.0909
0.204622	69.3939
0.204622	66.9697
0.231741	68.4848
0.252285	70.6061
0.306523	71.2121
0.306523	69.0909
0.352542	71.8182
0.401849	73.0303
0.401849	70.9091
0.454442	74.5455
0.507036	75.1515
0.533333	75.4545
0.557986	76.0606
0.585926	76.9697
0.605649	78.1818
0.607293	76.0606
0.630302	77.5758
0.659886	78.1818
0.68454	79.0909
0.71248	79.697
0.738777	79.697
0.737133	77.8788
0.76343	80
0.812737	81.2121
0.783153	80.6061
0.839033	82.1212
0.83739	80
0.863687	83.3333
0.863687	81.8182
0.886696	85.4545
0.910528	86.9697
0.937647	91.5152
0.933538	88.1818
0.965587	99.0909
0.99024	117.727
1.01325	144.242
