Adsorption isotherm of Carbon Dioxide on MUF-7a
DOI: 10.1021/Ja4100244
Adsorbate Carbon Dioxide: InChIKey CURLTUGMZLYLDI-UHFFFAOYSA-N
Temperature: 273 K
Tabular data in the source: 0
pressure (bar)	uptake (cm3(STP)/g)
0.0446357	1.62397
0.0608753	2.08863
0.0730473	2.55251
0.0852192	3.01639
0.101459	3.48105
0.117714	3.71495
0.129871	4.40959
0.146095	5.10502
0.16235	5.33891
0.182657	5.80436
0.202965	6.2698
0.231392	6.96758
0.255752	7.66457
0.288231	8.59389
0.328861	9.29401
0.365393	10.4549
0.41006	11.6173
0.462862	12.7813
0.519717	14.1769
0.584676	16.0355
0.653718	17.6642
0.738984	19.9883
0.828349	21.8516
0.933923	24.6411
1.05172	27.2023
