Adsorption isotherm of Carbon Dioxide on MUF-7b
DOI: 10.1021/Ja4100244
Adsorbate Carbon Dioxide: InChIKey CURLTUGMZLYLDI-UHFFFAOYSA-N
Temperature: 273 K
Tabular data in the source: 0
pressure (bar)	uptake (cm3(STP)/g)
0.0202761	0.926976
0.0487034	1.62475
0.0730629	2.32174
0.0852192	3.01639
0.109594	3.48261
0.125787	4.63957
0.142011	5.335
0.162334	5.56968
0.182642	6.03512
0.202918	6.9621
0.227277	7.65909
0.263824	8.5892
0.29222	9.7485
0.328768	10.6786
0.369367	11.8403
0.414002	13.4642
0.462737	14.6274
0.515493	16.4837
0.584535	18.1124
0.657613	20.2034
0.738827	22.2959
0.828177	24.39
0.933782	26.718
1.04751	29.2784
1.18157	31.8426
1.19778	32.7688
