Adsorption isotherm of Carbon Dioxide on MUF-7d
DOI: 10.1021/Ja4100244
Adsorbate Carbon Dioxide: InChIKey CURLTUGMZLYLDI-UHFFFAOYSA-N
Temperature: 273 K
Tabular data in the source: 0
pressure (bar)	uptake (cm3(STP)/g)
0.0487034	1.62475
0.0568076	2.08785
0.0771307	2.32253
0.0811515	3.01561
0.0933234	3.47949
0.109563	3.94415
0.125818	4.17804
0.137975	4.87269
0.16235	5.33891
0.182642	6.03512
0.198881	6.49978
0.227293	7.42833
0.263824	8.5892
0.296335	9.05699
0.328783	10.4478
0.365315	11.6087
0.414049	12.7719
0.462768	14.1659
0.519639	15.3307
0.584582	17.4201
0.657676	19.2803
0.734838	21.1413
0.832307	23.4678
0.933876	25.3334
1.05167	27.8946
1.1817	29.9965
1.20199	30.6927
