Adsorption isotherm of Carbon Dioxide on MUF-7h
DOI: 10.1021/Ja4100244
Adsorbate Carbon Dioxide: InChIKey CURLTUGMZLYLDI-UHFFFAOYSA-N
Temperature: 273 K
Tabular data in the source: 0
pressure (bar)	uptake (cm3(STP)/g)
0.00408163	0.689655
0.0122449	1.37931
0.0326531	2.06897
0.0408163	3.21839
0.0571429	4.13793
0.0734694	4.82759
0.0857143	5.74713
0.0938776	6.43678
0.114286	7.12644
0.126531	8.27586
0.138776	8.96552
0.159184	10.1149
0.179592	11.2644
0.204082	12.4138
0.22449	13.7931
0.257143	15.4023
0.285714	17.2414
0.322449	19.0805
0.363265	21.3793
0.408163	23.908
0.461224	26.4368
0.518367	29.1954
0.583673	32.4138
0.653061	35.8621
0.734694	39.5402
0.828571	43.6782
0.930612	48.046
1.04898	52.6437
1.17959	57.931
1.20408	58.8506
