Adsorption isotherm of Carbon Dioxide on MUF-7e
DOI: 10.1021/Ja4100244
Adsorbate Carbon Dioxide: InChIKey CURLTUGMZLYLDI-UHFFFAOYSA-N
Temperature: 273 K
Tabular data in the source: 0
pressure (bar)	uptake (cm3(STP)/g)
0.0202448	1.38851
0.036422	2.77623
0.0607815	3.47323
0.0891775	4.63253
0.113521	5.56029
0.137834	6.94958
0.154058	7.64501
0.17435	8.34122
0.198694	9.26898
0.223053	9.96597
0.255517	11.1261
0.292033	12.5177
0.328549	13.9093
0.365049	15.5317
0.409684	17.1557
0.462409	19.4735
0.519216	21.5614
0.584128	24.1123
0.657144	27.1264
0.738295	30.142
0.831619	33.6215
0.933062	37.3333
1.04668	41.509
1.17656	45.6878
1.19684	46.6148
