Adsorption isotherm of Carbon Dioxide on MUF-7g
DOI: 10.1021/Ja4100244
Adsorbate Carbon Dioxide: InChIKey CURLTUGMZLYLDI-UHFFFAOYSA-N
Temperature: 273 K
Tabular data in the source: 0
pressure (bar)	uptake (cm3(STP)/g)
0.00408163	0.45977
0.0204082	1.14943
0.0367347	2.52874
0.0530612	3.90805
0.0693878	4.5977
0.0897959	5.51724
0.110204	6.66667
0.130612	7.58621
0.142857	8.04598
0.155102	8.96552
0.179592	9.88506
0.2	11.0345
0.22449	12.4138
0.253061	13.7931
0.285714	15.1724
0.322449	17.0115
0.363265	18.8506
0.408163	20.9195
0.461224	23.4483
0.518367	25.7471
0.579592	28.7356
0.653061	31.7241
0.738776	35.1724
0.828571	38.8506
0.930612	42.7586
1.04898	47.1264
1.17959	51.7241
1.20408	52.8736
