Adsorption isotherm of Carbon Dioxide on MUF-7c
DOI: 10.1021/Ja4100244
Adsorbate Carbon Dioxide: InChIKey CURLTUGMZLYLDI-UHFFFAOYSA-N
Temperature: 273 K
Tabular data in the source: 0
pressure (bar)	uptake (cm3(STP)/g)
0.0568232	1.85708
0.077115	2.55329
0.10961	3.25185
0.121782	3.71573
0.138006	4.41116
0.158313	4.8766
0.186756	5.34361
0.198913	6.03825
0.22734	6.73603
0.255767	7.4338
0.284179	8.36234
0.324794	9.29323
0.365393	10.4549
0.410075	11.3866
0.466899	13.2436
0.519686	14.6384
0.588743	16.0363
0.661822	18.1273
0.747088	20.4514
0.82425	22.3124
1.18162	31.1503
1.19784	31.8457
