Adsorption isotherm of Carbon Dioxide on MUF-7f
DOI: 10.1021/Ja4100244
Adsorbate Carbon Dioxide: InChIKey CURLTUGMZLYLDI-UHFFFAOYSA-N
Temperature: 273 K
Tabular data in the source: 0
pressure (bar)	uptake (cm3(STP)/g)
0.0486095	3.00935
0.0689326	3.24403
0.0729691	3.70634
0.0851254	4.40099
0.101365	4.86565
0.117589	5.56107
0.141949	6.25807
0.162209	7.41581
0.182517	7.88125
0.202793	8.80823
0.231204	9.73677
0.259616	10.6653
0.288012	11.8246
0.328611	12.9863
0.369195	14.3787
0.409763	16.0019
0.462534	17.6274
0.519341	19.7153
0.5843	21.5739
0.653295	23.8949
0.738577	25.9882
0.827895	28.5438
0.933469	31.3334
1.04719	33.8937
1.18121	37.1502
1.2015	37.8464
