Adsorption isotherm of Nitrogen on {Cd2(H3O)2[{Cd4(mu4-O)}3(hett)8]*4H2O}
DOI: 10.1021/Ja808995d
Adsorbate Nitrogen: InChIKey IJGRMHOSHXDMSA-UHFFFAOYSA-N
Temperature: 77 K
Tabular data in the source: 0
pressure (bar)	uptake (cm3(STP)/g)
0.000865	59.7987
0.00229475	128.446
0.00944547	199.238
0.0180263	238.567
0.0366182	282.186
0.05521	326.52
0.0809526	352.263
0.15389	368.71
0.246849	381.581
0.35125	391.592
0.45279	399.458
0.55433	410.899
0.65158	418.05
0.75169	421.625
0.8518	425.2
0.909005	428.061
0.95906	429.491
1.00053	431.636
