Adsorption isotherm of Nitrogen on Cd1.5(H3O)3[(Cd4O)3(hett)8]*6H2O
DOI: 10.1021/Ja808995d
Adsorbate Nitrogen: InChIKey IJGRMHOSHXDMSA-UHFFFAOYSA-N
Temperature: 77 K
Tabular data in the source: 0
pressure (bar)	uptake (cm3(STP)/g)
0.000566	56.2234
0.00229475	122.01
0.00658518	194.232
0.0223168	284.331
0.0308976	322.23
0.0423388	342.967
0.0566402	366.564
0.0795225	375.86
0.15246	391.592
0.201085	395.167
0.302625	404.463
0.404165	408.039
0.505705	413.759
0.610106	415.904
0.704495	418.05
0.806035	422.34
0.906145	427.345
0.95477	428.061
1.00053	435.211
