Adsorption isotherm of Nitrogen on {[{Nd4(mu2-OH)}3(hett)8]*9NO3*6H2O}
DOI: 10.1021/Ja808995d
Adsorbate Nitrogen: InChIKey IJGRMHOSHXDMSA-UHFFFAOYSA-N
Temperature: 77 K
Tabular data in the source: 0
pressure (bar)	uptake (cm3(STP)/g)
0.00280166	19.0209
0.00280166	94.4435
0.00843546	148.951
0.0182946	185.077
0.0281538	215.5
0.0450552	263.035
0.0563228	283.317
0.0802664	302.331
0.142238	317.542
0.245055	325.148
0.349281	333.387
0.449281	342.894
0.552097	347.965
0.652097	353.669
0.753506	359.373
0.852097	363.81
0.95914	368.246
1.00421	372.049
