Adsorption isotherm of Nitrogen on Pb(H3O)4[{Pb4(mu4-O)}3(hett)8]*6H2O
DOI: 10.1021/Ja808995d
Adsorbate Nitrogen: InChIKey IJGRMHOSHXDMSA-UHFFFAOYSA-N
Temperature: 77 K
Tabular data in the source: 0
pressure (bar)	uptake (cm3(STP)/g)
0.00372489	4.73821
0.00515504	115.574
0.015166	148.468
0.0337579	189.227
0.0466292	208.534
0.0738019	220.69
0.105265	226.41
0.15103	232.131
0.254	239.997
0.35268	247.147
0.45708	252.868
0.55719	258.589
0.65873	263.594
0.75884	267.885
0.85895	273.605
0.95477	278.611
1.00196	282.901
