Adsorption isotherm of Nitrogen on Cd1.5(H3O)3[(Cd4O)3(hett)8]*6H2O
DOI: 10.1021/Ja808995d
Adsorbate Nitrogen: InChIKey IJGRMHOSHXDMSA-UHFFFAOYSA-N
Temperature: 77 K
Tabular data in the source: 0
pressure (bar)	uptake (cm3(STP)/g)
1.52e-05	117.26
0.00280166	52.6125
0.00421011	190.782
0.00984391	238.951
0.0197031	283.317
0.0436467	343.528
0.0774495	375.852
0.153506	394.232
0.249281	401.204
0.349281	408.176
0.454914	411.979
0.549281	413.246
0.653506	418.317
0.754914	422.12
0.853506	427.19
0.952097	430.993
0.999985	431.627
