Adsorption isotherm of Nitrogen on {[{Dy4(mu2-OH)}3(hett)8]*9NO3*6H2O}
DOI: 10.1021/Ja808995d
Adsorbate Nitrogen: InChIKey IJGRMHOSHXDMSA-UHFFFAOYSA-N
Temperature: 77 K
Tabular data in the source: 0
pressure (bar)	uptake (cm3(STP)/g)
1.52e-05	84.9364
0.00984391	147.683
0.0182946	200.289
0.035196	262.401
0.0549143	295.993
0.0774495	311.838
0.101393	319.443
0.150689	326.415
0.253506	338.458
0.354914	346.063
0.45914	352.401
0.55914	358.739
0.654914	366.979
0.756323	373.317
0.856323	380.289
0.952097	388.528
0.997168	392.965
