Adsorption isotherm of Nitrogen on {Pb2(H3O)2[{Pb4(mu4-O)}3(hett)8]*4H2O}
DOI: 10.1021/Ja808995d
Adsorbate Nitrogen: InChIKey IJGRMHOSHXDMSA-UHFFFAOYSA-N
Temperature: 77 K
Tabular data in the source: 0
pressure (bar)	uptake (cm3(STP)/g)
0.000566	76.9604
0.000865	33.3411
0.00515504	117.004
0.015166	144.177
0.0237469	168.49
0.035188	186.366
0.0523498	208.534
0.0738019	217.114
0.143879	226.41
0.25114	235.706
0.35125	242.857
0.45565	247.863
0.55433	254.298
0.6573	258.589
0.760271	263.594
0.85752	267.169
0.95763	273.605
0.999104	274.32
