Adsorption isotherm of N-Pentane on CuBTC
DOI: 10.1016/j.cattod.2014.07.003
Article source: Figure  6a
Adsorbate N-Pentane: InChIKey OFBQJSOFQDEBGM-UHFFFAOYSA-N
Kind: experiment
Temperature: 293 K
Tabular data in the source: 0
pressure (bar)	uptake (mmol/g)
6.3e-05	0.2382
8.8e-05	0.4641
0.00013	0.6796
0.000164	1.2852
0.000176	1.0782
0.000188	0.8618
0.0002	2.707
0.00022	2.2903
0.000223	1.6825
0.000223	1.9078
0.000224	2.5086
0.000227	1.4864
0.000234	3.5081
0.000238	3.1085
0.000238	3.1249
0.00024	2.0938
0.000259	3.7008
0.000262	3.6023
0.000268	3.8858
0.000293	4.0842
0.000323	4.2883
0.000344	4.461
0.00046	4.6376
0.000606	4.8663
0.001016	5.1017
0.002099	5.322
0.005784	5.5347
0.015025	5.6944
