Adsorption isotherm of 2-Methylbutane on CuBTC
DOI: 10.1016/j.cattod.2014.07.003
Article source: Figure  6a
Adsorbate 2-Methylbutane: InChIKey QWTDNUCVQCZILF-UHFFFAOYSA-N
Kind: experiment
Temperature: 293 K
Tabular data in the source: 0
pressure (bar)	uptake (mmol/g)
8.8e-05	0.2259
0.000138	0.4565
0.000163	0.6805
0.000184	0.9036
0.000205	1.3116
0.000205	1.3469
0.00023	3.3315
0.000232	3.7181
0.000235	3.7729
0.000238	3.5536
0.000241	2.4574
0.000241	2.8987
0.000244	1.7949
0.000244	2.0113
0.000246	3.1123
0.000248	4.219
0.000249	2.6728
0.000253	4.4468
0.000253	2.2239
0.000256	1.3292
0.000264	3.9921
0.00032	4.9689
0.000473	5.0818
0.000892	5.3826
0.003496	5.4777
0.023108	5.6653
