Adsorption isotherm of Cyclopentane on Fe-BTC
DOI: 10.1016/j.cattod.2014.07.003
Article source: Figure  6b
Adsorbate Cyclopentane: InChIKey RGSFGYAAUTVSQA-UHFFFAOYSA-N
Kind: experiment
Temperature: 293 K
Tabular data in the source: 0
pressure (bar)	uptake (mmol/g)
0.000442	0.20582
0.000919	0.39218
0.00153	0.61847
0.001993	0.84733
0.002471	1.06902
0.002808	1.303
0.003243	1.52725
0.003861	1.75354
0.004464	1.9824
0.005383	2.20613
0.006624	2.43652
0.00844	2.66485
0.011012	2.8942
0.015112	3.12558
0.023409	3.33848
0.04567	3.51233
