Adsorption isotherm of Cyclopentane on CuBTC
DOI: 10.1016/j.cattod.2014.07.003
Article source: Figure  6a
Adsorbate Cyclopentane: InChIKey RGSFGYAAUTVSQA-UHFFFAOYSA-N
Kind: experiment
Temperature: 293 K
Tabular data in the source: 0
pressure (bar)	uptake (mmol/g)
0.000146	0.2164
0.000254	0.8419
0.000283	0.4214
0.000294	4.536
0.000299	4.7429
0.000304	0.6274
0.000306	1.6601
0.000306	2.0682
0.000308	5.1492
0.000313	1.2387
0.000317	1.0374
0.000327	4.3433
0.000331	2.2685
0.000332	4.9441
0.000334	1.4427
0.000336	2.6814
0.000343	1.8594
0.000347	3.9115
0.000348	2.465
0.000349	2.8921
0.00035	3.2945
0.000355	3.6922
0.00036	4.1222
0.000362	3.08
0.000366	3.7833
0.000371	3.4929
0.000441	5.5526
0.00062	5.7272
0.001179	5.9398
0.002759	6.1648
0.008352	6.3681
0.022877	6.5375
