Adsorption isotherm of Nitrogen on F300-N2
DOI: 10.1016/j.cattod.2014.07.003
Article source: Figure  3
Adsorbate Nitrogen: InChIKey IJGRMHOSHXDMSA-UHFFFAOYSA-N
Kind: experiment
Temperature: 77 K
Tabular data in the source: 0
pressure (bar)	uptake (mmol/g)
0	0.2711
1e-06	0.4944
2e-06	0.7297
3e-06	0.9291
5e-06	1.1604
8e-06	1.3638
1.2e-05	1.5912
1.6e-05	1.8146
2.1e-05	2.0381
2.7e-05	2.2575
3.3e-05	2.4889
4.2e-05	2.7004
5.3e-05	2.9198
6.2e-05	3.1672
7.6e-05	3.3867
9.1e-05	3.5942
0.000112	3.8535
0.000139	4.057
0.000173	4.2525
0.000217	4.4839
0.000277	4.7034
0.000346	4.9388
0.000462	5.1462
0.000596	5.3777
0.000773	5.5931
0.000995	5.8086
0.001278	6.016
0.001662	6.2315
0.002123	6.415
0.002699	6.6105
0.003417	6.782
0.00428	6.9536
0.005288	7.1252
0.00639	7.2329
0.007826	7.3845
0.008864	7.4722
0.010378	7.572
0.011596	7.6957
0.012824	7.7874
0.014289	7.8992
0.016407	7.9909
0.018669	8.1385
0.021464	8.1944
0.027875	8.5335
0.032338	8.761
0.041929	9.0842
0.050213	9.5272
0.060676	9.8145
0.070391	9.998
0.080208	10.1416
0.091689	10.2853
0.100489	10.3651
0.124916	10.5606
0.150251	10.6803
0.175395	10.7281
0.200732	10.8079
0.229096	10.8518
0.249929	10.9196
0.271467	10.9515
0.300204	10.9914
0.347229	11.0472
0.382839	11.0831
0.431734	11.119
0.547289	11.2227
0.583736	11.2466
0.66331	11.3065
0.726803	11.3464
0.794176	11.3823
0.902229	11.4541
0.939759	11.6137
0.959658	11.7254
0.979979	11.8531
1.00999	12.1046
