Adsorption isotherm of Argon on C300-Ar
DOI: 10.1016/j.cattod.2014.07.003
Article source: Figure  3
Adsorbate Argon: InChIKey XKRFYHLGVUSROY-UHFFFAOYSA-N
Kind: experiment
Temperature: 87 K
Tabular data in the source: 0
pressure (bar)	uptake (mmol/g)
2e-06	0.3106
4e-06	0.6217
6e-06	0.905
8e-06	1.1882
1.1e-05	1.4675
1.4e-05	1.7867
1.9e-05	2.0301
2.5e-05	2.3932
3.6e-05	2.6366
8.4e-05	3.1871
0.000133	3.5063
0.000189	3.7456
0.000236	4.0928
0.000288	4.3282
0.00033	4.6953
0.000403	5.2421
0.000431	5.5334
0.000454	5.8087
0.000475	6.0282
0.000501	6.3794
0.000512	6.583
0.000537	6.8863
0.000556	7.1576
0.000562	7.5168
0.000578	7.8321
0.000587	8.0516
0.0006	8.6293
0.0006	8.6303
0.000622	9.2369
0.000625	8.8897
0.000641	9.5322
0.000641	9.5341
0.000662	10.055
0.000667	10.6098
0.000678	10.945
0.000686	11.2882
0.000699	11.9028
0.000708	11.5396
0.000717	12.1383
0.000735	12.4536
0.000739	12.9684
0.000774	13.3236
0.000796	13.591
0.000829	13.8544
0.000841	14.1936
0.000895	14.461
0.000937	14.7563
0.000995	15.0875
0.001078	15.2831
0.001197	15.6582
0.001304	15.8298
0.001471	16.2328
0.001689	16.4922
0.001885	16.7835
0.002196	17.0189
0.002476	17.406
0.002622	17.2743
0.002874	17.5856
0.003389	17.833
0.003875	18.1283
0.004489	18.3597
0.005176	18.5992
0.005979	18.9064
0.006991	19.1857
0.007953	19.4371
0.00901	19.5968
0.010314	19.7883
0.011594	19.9878
0.013311	20.1913
0.015192	20.3509
0.017081	20.4906
0.019201	20.6821
0.022653	20.8417
0.025045	20.9375
0.028459	21.0532
0.03166	21.1968
0.034587	21.2646
0.038425	21.3644
0.042113	21.4402
0.044578	21.528
0.049673	21.5998
0.053705	21.6477
0.061563	21.7434
0.070051	21.8392
0.081399	21.9748
0.088535	22.0426
0.101652	22.0785
0.126188	22.27
0.158313	22.4057
0.177958	22.5373
0.203103	22.5852
0.230418	22.7089
0.254048	22.8166
0.280942	22.8964
0.305997	22.9164
0.334362	22.9682
0.359929	23.0241
0.394382	23.0839
0.436131	23.1477
0.472299	23.2515
0.508296	23.3313
0.533355	23.3951
0.574138	23.435
0.626349	23.5308
0.645382	23.5787
0.690584	23.6465
0.716996	23.6944
0.778604	23.7662
0.83679	23.83
0.861027	23.8899
0.910158	23.9857
0.935226	24.0735
0.976825	24.1692
0.984275	24.285
1.0035	24.4925
