Adsorption isotherm of Nitrogen on C300-N2
DOI: 10.1016/j.cattod.2014.07.003
Article source: Figure  3
Adsorbate Nitrogen: InChIKey IJGRMHOSHXDMSA-UHFFFAOYSA-N
Kind: experiment
Temperature: 77 K
Tabular data in the source: 0
pressure (bar)	uptake (mmol/g)
0	0.331
0	0.6383
0	0.8777
0	1.2209
0	1.4603
1e-06	1.7875
1e-06	2.0469
1e-06	2.3582
1e-06	2.6216
1e-06	2.9409
1e-06	3.1883
1e-06	3.5075
1e-06	3.8428
1e-06	4.0822
1e-06	4.3935
1e-06	4.6649
1e-06	4.9961
1e-06	5.2395
1e-06	5.5428
1e-06	5.8062
1e-06	6.1295
2e-06	6.3649
2e-06	6.9914
3e-06	7.574
9e-06	8.1684
1.9e-05	8.7269
3.2e-05	9.3175
4.3e-05	9.908
5.1e-05	10.4707
5.9e-05	11.0374
6.5e-05	11.6201
7e-05	12.1987
7.7e-05	12.7973
8.2e-05	13.4
9.4e-05	13.9906
0.000109	14.5533
0.000143	15.1399
0.000211	15.6985
0.000308	16.2691
0.000605	16.8516
0.002661	17.2623
0.008084	17.5454
0.015164	17.685
0.022679	17.7447
0.030298	17.7925
0.037611	17.8524
0.044434	17.988
0.050935	18.1316
0.054578	18.1436
0.060536	18.2753
0.072496	18.395
0.081492	18.5147
0.0919	18.5705
0.100419	18.6902
0.122241	18.9057
0.152657	19.0613
0.181141	19.157
0.202729	19.2049
0.227257	19.2647
0.258593	19.3684
0.281266	19.4203
0.308189	19.4881
0.330763	19.536
0.358193	19.5879
0.371293	19.6158
0.397847	19.6557
0.431436	19.6676
0.451353	19.6836
0.47067	19.7355
0.495355	19.7514
0.527614	19.7634
0.538043	19.8232
0.557721	19.8472
0.586971	19.8392
0.622324	19.8392
0.627071	19.8631
0.675953	19.8671
0.726468	19.9349
0.792532	19.9588
0.869794	19.9708
0.907228	19.9907
0.957451	20.1224
0.995673	20.318
