Adsorption isotherm of Argon on F300-Ar
DOI: 10.1016/j.cattod.2014.07.003
Article source: Figure  3
Adsorbate Argon: InChIKey XKRFYHLGVUSROY-UHFFFAOYSA-N
Kind: experiment
Temperature: 87 K
Tabular data in the source: 0
pressure (bar)	uptake (mmol/g)
2e-06	0.2786
8e-06	0.4938
2.1e-05	0.6851
4.1e-05	0.9444
7.3e-05	1.1398
0.000114	1.3871
0.00016	1.5826
0.000219	1.7821
0.000275	1.9975
0.000356	2.2728
0.000425	2.5043
0.000521	2.7038
0.000603	2.9432
0.000708	3.1586
0.000835	3.418
0.000966	3.5816
0.001083	3.8689
0.00126	4.0605
0.001441	4.2839
0.001632	4.4635
0.001879	4.7109
0.002106	4.9224
0.00247	5.1059
0.002896	5.3773
0.003325	5.5848
0.003655	5.7524
0.00419	5.9998
0.004825	6.1673
0.005582	6.311
0.006304	6.4387
0.007065	6.6901
0.008209	6.8377
0.009454	7.0173
0.01079	7.1928
0.012204	7.3644
0.012883	7.4402
0.014569	7.5839
0.015919	7.6996
0.017763	7.8552
0.019526	7.9629
0.022249	8.1545
0.024312	8.2582
0.026725	8.3979
0.031004	8.5655
0.034184	8.7849
0.037189	8.9286
0.041373	9.1081
0.043734	9.2718
0.047931	9.5032
0.050748	9.6349
0.054202	9.7826
0.059227	10.1417
0.069249	10.6445
0.082057	11.0037
0.088842	11.2072
0.106541	11.4546
0.12759	11.7499
0.154389	11.9374
0.185147	12.0611
0.207547	12.1528
0.235406	12.2087
0.259966	12.2805
0.29048	12.3363
0.314063	12.4401
0.349395	12.5398
0.377761	12.6396
0.414683	12.7393
0.449694	12.7952
0.494216	12.867
0.552353	12.9428
0.608018	13.0266
0.662394	13.1144
0.731335	13.2022
0.78364	13.27
0.823601	13.3538
0.875824	13.4935
0.924521	13.6092
0.951298	13.7249
0.966978	13.8406
0.984729	13.9763
1.00558	14.4512
1.00859	14.4395
