Adsorption isotherm of N-Pentane on Fe-BTC
DOI: 10.1016/j.cattod.2014.07.003
Article source: Figure  6b
Adsorbate N-Pentane: InChIKey OFBQJSOFQDEBGM-UHFFFAOYSA-N
Kind: experiment
Temperature: 293 K
Tabular data in the source: 0
pressure (bar)	uptake (mmol/g)
0.000113	0.22272
0.000352	0.4183
0.000724	0.59237
0.001103	0.81969
0.00156	1.04394
0.001995	1.27485
0.002662	1.49807
0.003482	1.72385
0.004737	1.95117
0.006385	2.17079
0.008908	2.39912
0.012517	2.61566
0.017956	2.81733
0.027415	3.0082
0.045837	3.15547
