Adsorption isotherm of 2-Methylbutane on Fe-BTC
DOI: 10.1016/j.cattod.2014.07.003
Article source: Figure  6b
Adsorbate 2-Methylbutane: InChIKey QWTDNUCVQCZILF-UHFFFAOYSA-N
Kind: experiment
Temperature: 293 K
Tabular data in the source: 0
pressure (bar)	uptake (mmol/g)
0.000239	0.20889
0.000653	0.39474
0.001257	0.62411
0.00186	0.84529
0.002457	1.07363
0.003165	1.29736
0.00407	1.52314
0.005339	1.74841
0.007771	2.00797
0.01136	2.23628
0.016476	2.4487
0.025452	2.65751
0.040489	2.84116
