Adsorption isotherm of Carbon Dioxide on {[Zn(NO2-ip)(dpndi)]*(DMF)1.5(MeOH)1.5
DOI: 10.1039/C3dt50679g
Adsorbate Carbon Dioxide: InChIKey CURLTUGMZLYLDI-UHFFFAOYSA-N
Temperature: 195 K
Tabular data in the source: 0
pressure (bar)	uptake (ml/g)
0.0323278	0.465142
0.0838129	0.751171
0.15818	1.32323
0.209665	2.46734
0.233978	3.61146
0.309776	11.0482
0.3584	16.4827
0.408455	18.771
0.509996	23.0614
0.562911	42.5113
0.568631	65.1076
0.575782	85.7017
0.592944	112.016
0.615826	131.18
0.635848	143.765
0.663021	154.062
0.711646	163.501
0.823197	174.657
0.913296	179.519
0.966211	182.093
0.996244	182.951
