Adsorption isotherm of Carbon Dioxide on {[Zn(NO2-ip)-(bpy)]*(DMF)0.5(MeOH)0.5}
DOI: 10.1039/C3dt50679g
Adsorbate Carbon Dioxide: InChIKey CURLTUGMZLYLDI-UHFFFAOYSA-N
Temperature: 195 K
Tabular data in the source: 0
pressure (bar)	uptake (ml/g)
0.015166	0.392944
0.0194565	21.0592
0.0208866	6.75777
0.0266072	39.9371
0.0323278	43.3694
0.0523498	46.5157
0.0866732	49.376
0.136728	59.101
0.182493	67.1098
0.266871	71.9723
0.369842	74.2605
0.464231	75.6907
0.567201	77.6929
0.710216	79.9811
0.886123	83.1274
0.986233	85.7017
