Adsorption isotherm of Carbon Dioxide on C-1/2
DOI: 10.1039/C3dt50679g
Adsorbate Carbon Dioxide: InChIKey CURLTUGMZLYLDI-UHFFFAOYSA-N
Temperature: 195 K
Tabular data in the source: 0
pressure (bar)	uptake (ml/g)
0.00372489	1.53706
0.0208866	3.0394
0.0280373	10.7622
0.0509196	20.7732
0.105265	28.2099
0.185353	37.0768
0.25686	41.0812
0.314066	44.5135
0.505705	53.6665
0.55147	57.3848
0.592944	65.6797
0.604385	83.1274
0.615826	98.573
0.648719	112.016
0.685903	120.597
0.810326	132.038
0.860381	136.901
0.910436	139.189
0.993384	142.049
