Adsorption isotherm of Hydrogen on NU-100
DOI: 10.1038/Nchem.834
Adsorbate Hydrogen: InChIKey UFHFLCQGNIYNRP-UHFFFAOYSA-N
Temperature: 77 K
Tabular data in the source: 0
pressure (bar)	uptake (mg/g)
0.89606	20.0383
4.04228	44.9459
8.10614	65.9207
10.4658	75.9711
14.923	89.5173
19.9045	100.442
30.1297	114.862
39.9616	121.853
55.1683	125.786
70.1129	123.601
