Adsorption isotherm of Hydrogen on NU-100
DOI: 10.1038/Nchem.834
Adsorbate Hydrogen: InChIKey UFHFLCQGNIYNRP-UHFFFAOYSA-N
Temperature: 77 K
Tabular data in the source: 0
pressure (bar)	uptake (mg/g)
0.764968	14.7946
5.09102	41.0131
7.0574	48.0047
13.7431	63.2988
20.0356	73.7862
26.1969	80.7778
35.1112	89.9543
45.7297	96.9459
56.3482	100.005
70.3751	99.5678
