Adsorption isotherm of Carbon Dioxide on NU-100
DOI: 10.1038/Nchem.834
Adsorbate Carbon Dioxide: InChIKey CURLTUGMZLYLDI-UHFFFAOYSA-N
Temperature: 298 K
Tabular data in the source: 0
pressure (bar)	uptake (mg/g)
0.0193041	3.10872
0.0695562	10.4499
0.156951	21.4617
0.26401	35.3575
0.360144	47.6801
0.458464	60.265
0.556783	71.539
0.661657	83.8617
0.762161	93.3003
0.86485	104.836
1.0025	120.305
