Adsorption isotherm of Hydrogen on NU-100
DOI: 10.1038/Nchem.834
Adsorbate Hydrogen: InChIKey UFHFLCQGNIYNRP-UHFFFAOYSA-N
Temperature: 77 K
Tabular data in the source: 0
pressure (bar)	uptake (mg/g)
7.45068	54.1224
9.41707	62.4249
13.612	75.5341
19.7734	90.8283
26.4591	104.811
35.1112	121.853
45.7297	138.022
56.6103	152.442
70.7683	164.677
