Adsorption isotherm of Carbon Dioxide on NU-100
DOI: 10.1038/Nchem.834
Adsorbate Carbon Dioxide: InChIKey CURLTUGMZLYLDI-UHFFFAOYSA-N
Temperature: 298 K
Tabular data in the source: 0
pressure (bar)	uptake (mg/g)
0.946953	97.5381
2.08309	168.547
4.00578	272.328
7.67636	452.58
10.2108	550.899
14.8428	785.773
19.9991	1097.12
25.068	1484.93
30.1369	1807.2
35.031	2009.3
40.1873	2124.01
