Adsorption isotherm of Hydrogen on NU-100
DOI: 10.1038/Nchem.834
Adsorbate Hydrogen: InChIKey UFHFLCQGNIYNRP-UHFFFAOYSA-N
Temperature: 77 K
Tabular data in the source: 0
pressure (bar)	uptake (mg/g)
0.00619484	0.736607
0.0498923	2.6156
0.106699	4.71308
0.209388	7.46602
0.312077	9.43241
0.414766	11.0492
0.558968	13.103
0.757791	15.5938
0.862665	16.8173
1.00031	18.2593
