Adsorption isotherm of Carbon Dioxide on NU-100SP
DOI: 10.1038/Nchem.834
Adsorbate Carbon Dioxide: InChIKey CURLTUGMZLYLDI-UHFFFAOYSA-N
Temperature: 298 K
Tabular data in the source: 0
pressure (bar)	uptake (mg/g)
0.946953	48.3785
3.6562	212.244
7.93855	392.496
15.0175	703.841
20.0864	976.95
25.1554	1337.45
29.9621	1659.72
35.1184	1900.06
40.0125	2014.77
