Adsorption isotherm of Carbon Dioxide on NU-100
DOI: 10.1038/Nchem.834
Adsorbate Carbon Dioxide: InChIKey CURLTUGMZLYLDI-UHFFFAOYSA-N
Temperature: 298 K
Tabular data in the source: 0
pressure (bar)	uptake (mg/g)
0.00400996	1.27343
0.0935898	8.87679
0.198464	16.7423
0.292413	23.5591
0.399472	31.9491
0.493422	39.028
0.598296	47.418
0.692245	52.6617
0.740312	54.497
0.845186	65.7709
0.989388	75.7339
