Adsorption isotherm of Carbon Dioxide on NU-100
DOI: 10.1038/Nchem.834
Adsorbate Carbon Dioxide: InChIKey CURLTUGMZLYLDI-UHFFFAOYSA-N
Temperature: 298 K
Tabular data in the source: 0
pressure (bar)	uptake (mg/g)
10.3856	594.597
13.5318	725.689
17.8142	938.715
22.1839	1200.9
26.3789	1495.86
30.3991	1763.5
34.157	2014.77
38.1772	2195.02
41.0612	2304.26
