Adsorption isotherm of Hydrogen on NU-100
DOI: 10.1038/Nchem.834
Adsorbate Hydrogen: InChIKey UFHFLCQGNIYNRP-UHFFFAOYSA-N
Temperature: 77 K
Tabular data in the source: 0
pressure (bar)	uptake (mg/g)
0.00400996	0.0811453
0.0498923	1.82904
0.150397	4.75678
0.248716	7.07274
0.347035	9.12652
0.445354	10.5685
0.545859	12.666
0.692245	14.9383
0.840817	17.2106
0.991573	19.0895
