Adsorption isotherm of Hydrogen on NU-100SP
DOI: 10.1038/Nchem.834
Adsorbate Hydrogen: InChIKey UFHFLCQGNIYNRP-UHFFFAOYSA-N
Temperature: 77 K
Tabular data in the source: 0
pressure (bar)	uptake (mg/g)
3.51791	47.5678
7.97505	71.6014
9.94144	80.3409
14.7919	100.442
20.2977	116.61
25.0171	130.593
35.1112	150.257
45.2053	166.425
55.4305	177.786
65.5246	186.963
