Adsorption isotherm of Hydrogen on NU-100SP
DOI: 10.1038/Nchem.834
Adsorbate Hydrogen: InChIKey UFHFLCQGNIYNRP-UHFFFAOYSA-N
Temperature: 77 K
Tabular data in the source: 0
pressure (bar)	uptake (mg/g)
1.81371	27.4669
5.74648	53.2484
8.23724	64.1728
10.0725	71.1644
14.923	84.7106
25.4103	105.685
35.2423	114.862
45.0742	119.232
55.5616	121.416
70.3751	120.106
