Adsorption isotherm of Hydrogen on NU-100
DOI: 10.1038/Nchem.834
Adsorbate Hydrogen: InChIKey UFHFLCQGNIYNRP-UHFFFAOYSA-N
Temperature: 77 K
Tabular data in the source: 0
pressure (bar)	uptake (mg/g)
3.91119	48.4417
8.23724	75.5341
14.923	105.685
20.2977	123.601
25.2793	135.837
34.9801	156.374
45.5986	172.106
55.5616	184.341
60.0187	189.148
69.4574	196.139
