Adsorption isotherm of Carbon Dioxide on NU-100SP
DOI: 10.1038/Nchem.834
Adsorbate Carbon Dioxide: InChIKey CURLTUGMZLYLDI-UHFFFAOYSA-N
Temperature: 298 K
Tabular data in the source: 0
pressure (bar)	uptake (mg/g)
9.94863	550.899
14.7554	785.773
19.8243	1108.04
24.8932	1463.08
29.9621	1850.9
34.8562	2124.01
40.0125	2315.19
