Adsorption isotherm of Hydrogen on NU-100SP
DOI: 10.1038/Nchem.834
Adsorbate Hydrogen: InChIKey UFHFLCQGNIYNRP-UHFFFAOYSA-N
Temperature: 77 K
Tabular data in the source: 0
pressure (bar)	uptake (mg/g)
0.0782957	2.74669
0.198464	5.63072
0.342665	8.60215
0.399472	9.17022
0.447539	10.6122
0.548044	11.9232
0.646363	13.5837
0.746867	14.982
0.891069	16.7736
0.987203	18.1719
