Adsorption isotherm of Carbon Dioxide on NU-100
DOI: 10.1038/Nchem.834
Adsorbate Carbon Dioxide: InChIKey CURLTUGMZLYLDI-UHFFFAOYSA-N
Temperature: 298 K
Tabular data in the source: 0
pressure (bar)	uptake (mg/g)
0.597373	97.5381
2.69485	234.093
6.45284	392.496
10.2108	545.437
13.4444	643.757
17.9016	834.933
26.1167	1331.99
30.3991	1583.25
34.0696	1785.35
38.2646	1960.14
40.9738	2053
