Adsorption isotherm of Carbon Dioxide on NU-100
DOI: 10.1038/Nchem.834
Adsorbate Carbon Dioxide: InChIKey CURLTUGMZLYLDI-UHFFFAOYSA-N
Temperature: 298 K
Tabular data in the source: 0
pressure (bar)	uptake (mg/g)
5.92847	414.345
8.20074	523.589
10.2108	616.446
15.1923	889.555
20.0864	1244.6
24.9806	1637.87
29.9621	2009.3
35.031	2266.03
39.8377	2424.43
