Adsorption isotherm of Carbon Dioxide on NU-100SP
DOI: 10.1038/Nchem.834
Adsorbate Carbon Dioxide: InChIKey CURLTUGMZLYLDI-UHFFFAOYSA-N
Temperature: 298 K
Tabular data in the source: 0
pressure (bar)	uptake (mg/g)
0.0433377	2.84654
0.143842	9.13897
0.239976	13.8583
0.342665	19.3642
0.440985	25.3944
0.539304	28.0163
0.593926	32.2112
0.687876	37.1928
0.790565	44.2717
0.829892	44.2717
0.980649	53.4482
