Adsorption isotherm of Propene on COMOC-2
DOI: 10.1021/acs.langmuir.5b00655
Article source: Figure 3
Adsorbate Propene: InChIKey QQONPFPTGQHPMA-UHFFFAOYSA-N
Kind: experiment
Temperature: 303 K
Tabular data in the source: 0
pressure (bar)	uptake (mmol/g)
0.400151	2.50774
0.891407	3.31269
1.38105	3.68421
1.87715	4.4582
2.38257	8.69969
2.86907	9.3808
3.36089	9.65944
3.86384	10.0619
4.36102	10.2167
4.8314	10.3406
5.30391	10.2477
5.82062	10.5263
6.27095	10.5882
6.75591	10.6811
7.27859	10.743
7.76939	10.743
