Adsorption isotherm of Methane on COMOC-2
DOI: 10.1021/acs.langmuir.5b00655
Article source: Figure 3
Adsorbate Methane: InChIKey VNWKTOKETHGBQD-UHFFFAOYSA-N
Kind: experiment
Temperature: 303 K
Tabular data in the source: 0
pressure (bar)	uptake (mmol/g)
0.447102	0.093168
0.519334	0.093168
0.893757	0.217391
1.0189	0.186335
2.38808	0.403727
4.90972	0.776398
9.90684	1.36646
14.9555	1.8323
19.8039	2.26708
24.7919	2.51553
29.8958	2.76398
34.7256	2.95031
39.9604	3.07453
44.2935	3.19876
49.5587	3.26087
