Adsorption isotherm of Methane on COMOC-2
DOI: 10.1021/acs.langmuir.5b00655
Article source: Figure 3
Adsorbate Methane: InChIKey VNWKTOKETHGBQD-UHFFFAOYSA-N
Kind: experiment
Temperature: 303 K
Tabular data in the source: 0
pressure (bar)	uptake (mmol/g)
0.44474	0.095238
0.520004	0.095238
0.905076	0.238095
1.02859	0.238095
2.41295	0.380952
4.83981	0.809524
9.84553	1.33333
14.6504	1.85714
20.0198	2.28571
24.4219	2.52381
29.3697	2.80952
34.3352	2.95238
39.0149	3.09524
43.7029	3.33333
44.3364	3.14286
48.9655	3.33333
