Adsorption isotherm of Ethane on COMOC-2
DOI: 10.1021/acs.langmuir.5b00655
Article source: Figure 3
Adsorbate Ethane: InChIKey OTMSDBZUPAUEDD-UHFFFAOYSA-N
Kind: experiment
Temperature: 303 K
Tabular data in the source: 0
pressure (bar)	uptake (mmol/g)
0.444546	0.52381
0.904245	1.14286
2.34011	2.57143
4.82602	3.61905
9.67801	4.2381
14.572	7.14286
19.2921	10.7619
23.8671	11.1429
28.7071	11.2857
