Adsorption isotherm of N-propane on COMOC-2
DOI: 10.1021/acs.langmuir.5b00655
Article source: Figure 3
Adsorbate N-propane: InChIKey ATUOYWHBWRKTHZ-UHFFFAOYSA-N
Kind: experiment
Temperature: 303 K
Tabular data in the source: 0
pressure (bar)	uptake (mmol/g)
0.419389	1.90476
0.877204	3.04762
1.36249	3.33333
1.86222	3.57143
2.80119	7.42857
3.77183	8.38095
4.80113	8.71429
5.77439	8.90476
6.65503	9.09524
