Adsorption isotherm of N-propane on COMOC-2
DOI: 10.1021/acs.langmuir.5b00655
Article source: Figure 3
Adsorbate N-propane: InChIKey ATUOYWHBWRKTHZ-UHFFFAOYSA-N
Kind: experiment
Temperature: 303 K
Tabular data in the source: 0
pressure (bar)	uptake (mmol/g)
0.419474	0
0.900001	0
1.38145	0
1.87861	0
2.84762	0
3.83371	0
4.83874	0
5.82909	0
6.70315	0
