Adsorption isotherm of Ethane on COMOC-2
DOI: 10.1021/acs.langmuir.5b00655
Article source: Figure 2
Adsorbate Ethane: InChIKey OTMSDBZUPAUEDD-UHFFFAOYSA-N
Kind: experiment
Temperature: 303 K
Tabular data in the source: 0
pressure (bar)	uptake (mmol/g)
0	0
0.502371	0.455172
0.942888	1.03448
1.00733	1.4069
2.45065	2.52414
2.45216	2.81379
4.90323	5.42069
4.95603	3.55862
9.9597	4.26207
9.98987	10.0552
14.9935	10.7586
15.0369	7.07586
19.995	11.0483
20.0558	10.7172
24.8707	11.1724
24.9328	11.0897
29.8711	11.2552
