Adsorption isotherm of Ethane on COMOC-2
DOI: 10.1021/acs.langmuir.5b00655
Article source: Figure 3
Adsorbate Ethane: InChIKey OTMSDBZUPAUEDD-UHFFFAOYSA-N
Kind: experiment
Temperature: 303 K
Tabular data in the source: 0
pressure (bar)	uptake (mmol/g)
0.447264	0.466321
0.911375	1.02591
2.39283	2.54922
4.92343	3.57513
10.0332	4.25907
15.0383	7.08808
20.3484	10.7876
25.0075	11.0984
30.1592	11.2539
