Adsorption isotherm of N-propane on COMOC-2
DOI: 10.1021/acs.langmuir.5b00655
Article source: Figure 8
Adsorbate N-propane: InChIKey ATUOYWHBWRKTHZ-UHFFFAOYSA-N
Kind: experiment
Temperature: 303 K
Tabular data in the source: 0
pressure (bar)	uptake (mmol/g)
2.38983	0.977273
4.42373	1.70455
6.38983	2.22727
8.49153	3.47727
