Adsorption isotherm of Ethene on COMOC-2
DOI: 10.1021/acs.langmuir.5b00655
Article source: Figure 3
Adsorbate Ethene: InChIKey VGGSQFUCUMXWEO-UHFFFAOYSA-N
Kind: experiment
Temperature: 303 K
Tabular data in the source: 0
pressure (bar)	uptake (mmol/g)
0.402484	0.428571
0.891699	0.904762
2.37487	2.04762
4.82765	3.28571
9.67661	4.38095
14.5972	5.42857
19.281	11.3333
23.8419	12.1905
29.0797	12.5714
33.5151	12.7619
38.634	12.7619
