Adsorption isotherm of Propene on COMOC-2
DOI: 10.1021/acs.langmuir.5b00655
Article source: Figure 3
Adsorbate Propene: InChIKey QQONPFPTGQHPMA-UHFFFAOYSA-N
Kind: experiment
Temperature: 303 K
Tabular data in the source: 0
pressure (bar)	uptake (mmol/g)
0.395981	2.47619
0.889546	3.28571
1.36203	3.66667
1.8606	4.42857
2.32556	8.71429
2.8358	9.33333
3.31458	9.66667
3.76545	10.0476
4.27867	10.1905
4.79324	10.3333
5.29493	10.2857
5.76518	10.4762
6.27811	10.5238
6.83635	10.619
7.23592	10.6667
7.6585	10.7619
