Adsorption isotherm of Methane on COMOC-2
DOI: 10.1021/acs.langmuir.5b00655
Article source: Figure 3
Adsorbate Methane: InChIKey VNWKTOKETHGBQD-UHFFFAOYSA-N
Kind: experiment
Temperature: 303 K
Tabular data in the source: 0
pressure (bar)	uptake (mmol/g)
0	0.047619
0.086835	0.095238
0.449211	0.190476
0.532803	0.190476
1.11367	0.428571
1.61109	0.761905
2.13681	1.38095
2.44405	1.85714
2.66755	2.2381
2.84446	2.52381
2.9888	2.7619
3.10983	2.95238
3.20758	3.09524
3.30075	3.28571
3.36577	3.28571
