Adsorption isotherm of Ethane on COMOC-2
DOI: 10.1021/acs.langmuir.5b00655
Article source: Figure 2
Adsorbate Ethane: InChIKey OTMSDBZUPAUEDD-UHFFFAOYSA-N
Kind: experiment
Temperature: 281 K
Tabular data in the source: 0
pressure (bar)	uptake (mmol/g)
0	0.041379
0.19569	0.786207
0.256034	0.57931
0.388793	1.32414
0.511207	1.07586
1.02414	2.31724
1.02629	2.52414
1.97672	3.76552
2.03793	3.64138
3.0056	6.53793
3.04397	4.22069
4.10647	10.2207
5.04914	4.71724
5.11207	10.7586
7.11853	11.3793
7.1194	5.46207
10.1823	11.5034
10.1875	12
12.1901	12.2483
12.2504	12.0414
15.1918	12.4138
15.1927	12.4966
17.2565	12.6207
20.2586	12.8276
