Adsorption isotherm of Ethane on COMOC-2
DOI: 10.1021/acs.langmuir.5b00655
Article source: Figure 8
Adsorbate Ethane: InChIKey OTMSDBZUPAUEDD-UHFFFAOYSA-N
Kind: experiment
Temperature: 303 K
Tabular data in the source: 0
pressure (bar)	uptake (mmol/g)
2.42359	0.796537
4.44713	1.17749
6.40491	2.14719
8.54507	2.04329
