Adsorption isotherm of Ethane on COMOC-2
DOI: 10.1021/acs.langmuir.5b00655
Article source: Figure 8
Adsorbate Ethane: InChIKey OTMSDBZUPAUEDD-UHFFFAOYSA-N
Kind: experiment
Temperature: 303 K
Tabular data in the source: 0
pressure (bar)	uptake (mmol/g)
2.45289	0.334728
4.4811	0.585774
6.49279	1.04603
8.53767	1.21339
