Adsorption isotherm of Ethane on COMOC-2
DOI: 10.1021/acs.langmuir.5b00655
Article source: Figure 5
Adsorbate Ethane: InChIKey OTMSDBZUPAUEDD-UHFFFAOYSA-N
Kind: experiment
Temperature: 303 K
Tabular data in the source: 0
pressure (bar)	uptake (mmol/g)
0.015721	0
0.572418	0.218069
0.942874	0.903427
2.38014	2.42991
4.88624	3.4891
9.90071	4.1433
14.9118	7.00935
19.9681	10.6231
24.7508	10.9969
29.7661	11.1215
