Adsorption isotherm of N-propane on COMOC-2
DOI: 10.1021/acs.langmuir.5b00655
Article source: Figure 8
Adsorbate N-propane: InChIKey ATUOYWHBWRKTHZ-UHFFFAOYSA-N
Kind: experiment
Temperature: 303 K
Tabular data in the source: 0
pressure (bar)	uptake (mmol/g)
2.40398	1.67021
4.44963	3.05658
6.43224	5.00379
8.57245	5.54888
