Adsorption isotherm of Ethane on COMOC-2
DOI: 10.1021/acs.langmuir.5b00655
Article source: Figure 5
Adsorbate Ethane: InChIKey OTMSDBZUPAUEDD-UHFFFAOYSA-N
Kind: experiment
Temperature: 303 K
Tabular data in the source: 0
pressure (bar)	uptake (mmol/g)
1	0
3.30285	0.316623
9.81377	0.918206
286.167	2.43799
90096.9	3.45119
7915710000	4.11609
880643000000000.0	6.93404
8.86135e+19	10.6069
7.76784e+24	11.0185
6.09256e+29	11.1135
