Adsorption isotherm of Methane on COMOC-2
DOI: 10.1021/acs.langmuir.5b00655
Article source: Figure 3
Adsorbate Methane: InChIKey VNWKTOKETHGBQD-UHFFFAOYSA-N
Kind: experiment
Temperature: 303 K
Tabular data in the source: 0
pressure (bar)	uptake (mmol/g)
0.975524	0.047619
1.22134	0.095238
2.81327	0.190476
3.41038	0.190476
12.9918	0.428571
40.8404	0.761905
137.028	1.38095
278.003	1.85714
465.104	2.2381
698.972	2.52381
974.541	2.7619
1287.75	2.95238
1612.8	3.09524
1998.71	3.28571
2321.51	3.28571
