Adsorption isotherm of Ethane on COMOC-2
DOI: 10.1021/acs.langmuir.5b00655
Article source: Figure 2
Adsorbate Ethane: InChIKey OTMSDBZUPAUEDD-UHFFFAOYSA-N
Kind: experiment
Temperature: 293 K
Tabular data in the source: 0
pressure (bar)	uptake (mmol/g)
0.191116	0.578512
0.949122	1.8595
1.07386	1.81818
2.01834	2.93388
2.01937	3.09917
3.02195	3.5124
3.02428	3.8843
4.04365	6.98347
5.02583	4.13223
5.06018	9.6281
7.02815	4.50413
7.06534	10.4545
10.0377	6.03306
10.132	11.1157
12.126	10.1653
12.134	11.4463
15.1343	11.4876
15.1364	11.8182
17.1374	11.9835
17.1983	11.7355
20.1377	12.0248
20.1387	12.1901
25.202	12.314
25.2027	12.438
