Adsorption isotherm of Ethene on COMOC-2
DOI: 10.1021/acs.langmuir.5b00655
Article source: Figure 3
Adsorbate Ethene: InChIKey VGGSQFUCUMXWEO-UHFFFAOYSA-N
Kind: experiment
Temperature: 303 K
Tabular data in the source: 0
pressure (bar)	uptake (mmol/g)
0.4123	0.42415
0.90178	0.902028
2.39734	2.0679
4.90865	3.32371
9.77518	4.39222
14.7174	5.45694
19.5411	11.3486
24.4208	12.2239
29.4158	12.6003
34.1405	12.8204
38.8991	12.8533
