Adsorption isotherm of N-propane on COMOC-2
DOI: 10.1021/acs.langmuir.5b00655
Article source: Figure 8
Adsorbate N-propane: InChIKey ATUOYWHBWRKTHZ-UHFFFAOYSA-N
Kind: experiment
Temperature: 303 K
Tabular data in the source: 0
pressure (bar)	uptake (mmol/g)
2.43842	2.38494
4.48498	4.05858
6.49774	5.48117
8.52741	7.02929
