Adsorption isotherm of Carbon Dioxide on CuBTC
DOI: 10.1021/Ic500722n
Adsorbate Carbon Dioxide: InChIKey CURLTUGMZLYLDI-UHFFFAOYSA-N
Temperature: 298 K
Tabular data in the source: 0
pressure (bar)	uptake (mmol/g)
0.912515	5.36208
1.37089	5.98997
1.39835	7.24468
1.44482	7.98609
2.41648	8.89967
2.44816	9.75515
2.90864	10.2125
2.92554	11.0104
3.51065	11.4666
4.52244	12.2096
4.54779	12.894
5.06319	13.2938
6.15103	13.9222
7.24309	14.4365
8.33938	14.8368
9.9912	15.2376
12.1986	15.639
13.8525	15.9827
16.6217	16.2135
18.8312	16.5578
23.2628	16.9042
27.6986	17.1366
31.0255	17.3109
33.7969	17.4846
37.1237	17.6589
39.3396	17.8321
