Adsorption isotherm of Methane on NU-125
DOI: 10.1021/Ic500722n
Adsorbate Methane: InChIKey VNWKTOKETHGBQD-UHFFFAOYSA-N
Temperature: 270 K
Tabular data in the source: 0
pressure (bar)	uptake (mmol/g)
1.94529	3.12583
2.92039	4.08633
3.73036	5.52933
5.35815	6.48758
6.49643	7.44752
8.28837	8.16424
9.58884	9.36458
11.0535	10.3234
13.333	11.5204
15.1259	11.9961
16.4273	12.9555
18.0591	12.9499
19.0351	13.6694
20.3395	13.9059
21.4808	14.1429
23.1105	14.6192
24.7413	14.8546
26.0457	15.0911
27.3501	15.3275
28.3271	15.8061
29.6325	15.8016
30.6096	16.2802
31.5886	16.2768
33.0572	16.2717
33.872	16.5099
35.1755	16.9873
36.644	16.9823
37.7843	17.4603
39.0886	17.6968
40.394	17.6923
41.5362	17.6883
43.166	18.1647
45.4504	18.1568
46.917	18.6337
48.3855	18.6286
49.689	19.1061
51.647	19.0993
52.9514	19.3358
55.0717	19.5695
56.7024	19.8048
57.8437	20.0418
