Adsorption isotherm of Nitrogen on NU-125-F1-feed 1to1
DOI: 10.1021/Ic500722n
Adsorbate Nitrogen: InChIKey IJGRMHOSHXDMSA-UHFFFAOYSA-N
Temperature: 77 K
Tabular data in the source: 0
pressure (bar)	uptake (cm3(STP)/g)
-0.0023638	45.949
0.0023638	528.764
0.00472759	563.274
0.00709139	597.785
0.011819	620.829
0.0165465	655.368
0.0283656	689.991
0.0803691	811.296
0.108734	834.62
0.122918	840.535
0.144191	846.534
0.158374	846.701
0.167829	846.813
0.177285	852.672
0.18674	852.784
0.34275	871.871
0.437303	872.99
0.489306	879.352
0.508216	879.576
0.534217	879.884
0.583857	880.471
0.633497	881.058
0.680773	881.618
0.706775	887.672
0.777689	888.511
0.822601	889.043
0.87224	895.377
0.90297	889.994
