Adsorption isotherm of Methane on NU-125-F2
DOI: 10.1021/Ic500722n
Adsorbate Methane: InChIKey VNWKTOKETHGBQD-UHFFFAOYSA-N
Temperature: 298 K
Tabular data in the source: 0
pressure (bar)	uptake (mmol/g)
1.66596	0.870968
6.6729	3
8.33705	3.96774
12.246	4.83871
15.5888	6
21.1727	7.25806
28.9979	8.6129
31.2318	9.09677
36.8267	9.77419
42.4197	10.5484
49.1378	11.129
55.8523	11.9032
62.0115	12.3871
63.6901	12.5806
