Adsorption isotherm of Nitrogen on CuBTC
DOI: 10.1021/Ic500722n
Adsorbate Nitrogen: InChIKey IJGRMHOSHXDMSA-UHFFFAOYSA-N
Temperature: 77 K
Tabular data in the source: 0
pressure (bar)	uptake (cm3(STP)/g)
-0.00235805	272.405
0	300
0.00235805	382.767
0.00471612	413.81
0.0141483	427.636
0.0306548	431.143
0.0518773	441.563
0.080174	448.56
0.110829	455.566
0.120261	459.048
0.143841	462.58
0.167422	462.663
0.176855	462.697
0.191003	466.195
0.339561	473.619
0.389079	473.795
0.436241	473.962
0.48576	474.138
0.511699	474.23
0.535279	474.314
0.584799	477.938
0.634318	478.113
0.679121	481.721
0.702701	478.356
0.775801	485.512
0.822962	482.231
0.872481	482.407
0.903137	485.964
