Adsorption isotherm of Carbon Dioxide on NU-125-F2
DOI: 10.1021/Ic500722n
Adsorbate Carbon Dioxide: InChIKey CURLTUGMZLYLDI-UHFFFAOYSA-N
Temperature: 298 K
Tabular data in the source: 0
pressure (bar)	uptake (mmol/g)
0.52457	1.54839
0.531806	1.93548
1.06542	3
1.61893	3.3871
2.14893	4.06452
2.16702	5.03226
2.6934	5.90323
4.35393	7.06452
4.89117	8.32258
5.99457	9.29032
7.64787	10.8387
10.4227	12.3871
13.7546	14.129
19.3295	15.871
25.467	17.5161
28.817	18.2903
31.0546	18.5806
33.2903	18.9677
