Adsorption isotherm of Hydrogen on NU-125
DOI: 10.1021/Ic500722n
Adsorbate Hydrogen: InChIKey UFHFLCQGNIYNRP-UHFFFAOYSA-N
Temperature: 298 K
Tabular data in the source: 0
pressure (bar)	uptake (mmol/g)
11.6438	1.2353
14.9701	1.6158
18.2999	1.80338
21.0724	2.08831
23.8467	2.27677
27.1766	2.46435
29.3935	2.75017
32.166	3.0351
33.8292	3.22536
36.6034	3.41382
39.3759	3.69875
42.7058	3.88633
44.9227	4.17215
48.8064	4.4553
51.5789	4.74023
53.7976	4.92959
57.1292	5.02069
59.9017	5.30562
62.1187	5.59145
