Adsorption isotherm of Nitrogen on HKUST-1-F1
DOI: 10.1021/Ic500722n
Adsorbate Nitrogen: InChIKey IJGRMHOSHXDMSA-UHFFFAOYSA-N
Temperature: 77 K
Tabular data in the source: 0
pressure (bar)	uptake (cm3(STP)/g)
0	279.31
0	279.71
0.00235805	84.146
0.00235805	94.146
0.00235805	124.146
0.00235805	224.146
0.00235805	324.146
0.00235805	424.146
0.00943223	448.309
0.0212226	465.593
0.0282967	479.411
0.0448031	486.366
0.0778159	500.276
0.10847	503.833
0.167422	514.387
0.216941	518.011
0.275893	525.117
0.31598	525.259
0.35135	532.282
0.386721	532.407
0.436241	536.031
0.483402	536.199
0.506983	536.282
0.532921	536.374
0.577724	543.43
0.636676	540.191
0.681479	543.798
0.702701	540.425
0.778159	544.141
0.822962	544.3
0.867766	544.459
0.903137	548.033
