Adsorption isotherm of Carbon Dioxide on NU-125
DOI: 10.1021/Ic500722n
Adsorbate Carbon Dioxide: InChIKey CURLTUGMZLYLDI-UHFFFAOYSA-N
Temperature: 240 K
Tabular data in the source: 0
pressure (bar)	uptake (mmol/g)
1.11888	17.1352
1.3986	19.3102
1.67832	21.4852
1.95804	23.1159
2.23776	24.4746
2.61072	25.8326
2.98368	26.3743
3.35664	27.1881
4.00932	27.7278
4.56876	28.5403
5.31469	28.8074
5.96737	29.0751
6.71329	29.3421
7.45921	29.8812
8.20513	30.1483
8.95105	30.4153
9.60373	30.1388
10.1632	30.6792
