Adsorption isotherm of Nitrogen on NU-125-F1
DOI: 10.1021/Ic500722n
Adsorbate Nitrogen: InChIKey IJGRMHOSHXDMSA-UHFFFAOYSA-N
Temperature: 77 K
Tabular data in the source: 0
pressure (bar)	uptake (cm3(STP)/g)
0	0
0.0023638	500.028
0.00472759	546.033
0.00709139	592.038
0.011819	615.082
0.0212742	655.424
0.0283656	689.991
0.0401845	730.36
0.0496397	753.461
0.0590949	776.561
0.0756415	811.24
0.0827329	828.565
0.101643	851.777
0.113462	857.664
0.122918	852.029
0.148919	863.831
0.153647	869.634
0.167829	875.549
0.172558	875.605
0.189103	875.801
0.340387	894.832
0.390026	895.419
0.439666	907.501
0.489306	908.088
0.510579	908.34
0.534217	908.619
0.583857	914.954
0.633497	915.541
0.683137	916.128
0.702048	916.352
0.777689	922.994
0.824964	923.553
0.87224	929.86
0.90297	930.223
