Adsorption isotherm of Carbon Dioxide on NU-125
DOI: 10.1021/Ic500722n
Adsorbate Carbon Dioxide: InChIKey CURLTUGMZLYLDI-UHFFFAOYSA-N
Temperature: 298 K
Tabular data in the source: 0
pressure (bar)	uptake (mmol/g)
1.3986	5.16055
1.95804	6.7894
2.42424	8.41888
3.63636	10.3154
4.28904	11.1273
5.03497	12.4828
5.68765	13.0225
6.52681	14.6495
7.27273	15.1886
8.29837	16.2701
9.41725	16.8067
10.5361	17.6154
11.3753	18.1539
12.3077	18.6918
13.0536	19.503
13.986	20.0409
14.9184	20.3067
15.5711	20.5743
16.4103	21.385
17.2494	21.6514
18.0886	21.9178
18.648	22.4582
19.7669	22.4506
20.8858	22.7151
21.8182	23.2529
22.8438	23.5181
23.7762	23.7838
24.7086	24.3217
25.641	24.3154
26.4802	24.3097
27.7855	24.845
28.9977	24.8368
29.7436	25.3759
30.4895	25.3708
