Adsorption isotherm of Hydrogen on NU-125-F1
DOI: 10.1021/Ic500722n
Adsorbate Hydrogen: InChIKey UFHFLCQGNIYNRP-UHFFFAOYSA-N
Temperature: 100 K
Tabular data in the source: 0
pressure (bar)	uptake (mmol/g)
0.50075	3.27454
0.836291	6.08255
1.49329	6.5425
1.82627	8.41304
2.15668	9.34612
2.98145	11.2101
3.96758	12.1344
5.12148	14.4627
5.77976	15.3913
7.91467	16.769
10.7091	19.5441
14.4872	22.306
19.4114	24.5838
26.468	27.3018
30.5714	29.1218
35.4931	30.4621
40.5774	31.3316
46.3187	32.6609
52.881	34.448
60.2616	35.7554
63.3775	36.1824
