Adsorption isotherm of Carbon Dioxide on HKUST-1-F1
DOI: 10.1021/Ic500722n
Adsorbate Carbon Dioxide: InChIKey CURLTUGMZLYLDI-UHFFFAOYSA-N
Temperature: 298 K
Tabular data in the source: 0
pressure (bar)	uptake (mmol/g)
-0.0316846	0.855483
0.496391	1.25524
0.509065	1.59743
1.01813	1.94015
1.0308	2.16828
1.03925	2.51047
1.49129	2.96726
1.51663	3.30945
1.5272	3.76571
1.54409	4.05087
1.55677	4.73526
1.96444	5.07798
2.03415	5.93399
2.558	6.96004
3.03749	7.98768
3.54867	9.18588
4.05985	10.3841
5.12234	11.6969
5.66309	12.0966
8.3943	13.354
14.4249	15.527
19.9465	16.4448
27.141	17.1931
30.4615	17.5385
35.4487	17.8854
38.7735	18.1167
39.8782	18.2889
