Adsorption isotherm of Nitrogen on NU-125
DOI: 10.1021/Ic500722n
Adsorbate Nitrogen: InChIKey IJGRMHOSHXDMSA-UHFFFAOYSA-N
Temperature: 298 K
Tabular data in the source: 0
pressure (bar)	uptake (mmol/g)
8.83735	2.78322
12.1618	3.26019
14.3716	3.93188
16.5832	4.5071
20.4615	5.07964
23.2251	5.84691
26.5478	6.42034
29.3131	7.09114
