Adsorption isotherm of Nitrogen on HKUST-1-F1
DOI: 10.1021/Ic500722n
Adsorbate Nitrogen: InChIKey IJGRMHOSHXDMSA-UHFFFAOYSA-N
Temperature: 298 K
Tabular data in the source: 0
pressure (bar)	uptake (mmol/g)
1.65393	0.343778
6.60306	1.7173
8.80197	2.34677
12.6675	2.97782
17.0822	3.7805
23.7127	4.75638
29.7941	5.56064
34.2172	6.13519
39.198	6.65323
41.4138	6.82644
