Adsorption isotherm of Hydrogen on NU-125
DOI: 10.1021/Ic500722n
Adsorbate Hydrogen: InChIKey UFHFLCQGNIYNRP-UHFFFAOYSA-N
Temperature: 100 K
Tabular data in the source: 0
pressure (bar)	uptake (mmol/g)
0.83373	5.14508
0.998939	5.61162
1.16799	7.48436
2.4871	10.2792
3.80365	12.1366
5.1202	13.9939
6.27154	15.3848
7.4216	16.3069
8.40774	17.2311
9.88693	18.6176
11.2022	20.0062
12.8428	20.453
13.8276	20.9086
15.3043	21.3575
16.6182	22.2774
18.2588	22.7242
19.081	23.6507
20.8881	25.0327
22.8565	25.4751
23.8388	24.9932
25.4806	25.9087
26.6294	26.3621
28.2687	26.3402
29.7453	26.7891
31.058	27.2403
32.6973	27.2183
34.01	27.6695
35.1601	28.5916
36.9633	28.5675
37.619	28.5587
39.0956	29.0076
40.5723	29.4566
42.0476	29.4369
43.1964	29.8902
44.3452	30.3436
45.9845	30.3216
47.7877	30.2975
48.6086	30.7552
50.2492	31.202
51.3967	31.1867
53.3638	31.1603
55.1683	31.6049
56.3158	31.5895
57.9564	32.0363
59.2691	32.4875
61.0723	32.4633
62.2198	32.4479
63.5325	32.8991
