Adsorption isotherm of Methane on NU-125-F1
DOI: 10.1021/Ic500722n
Adsorbate Methane: InChIKey VNWKTOKETHGBQD-UHFFFAOYSA-N
Temperature: 298 K
Tabular data in the source: 0
pressure (bar)	uptake (mmol/g)
1.63813	1.05845
1.64707	1.54077
3.28341	2.69569
4.93584	3.46473
6.03626	4.04174
8.23533	5.29223
10.9864	6.73475
14.8415	8.56135
20.9188	10.3844
27.5499	12.303
31.4229	13.1649
35.8478	14.2189
41.9412	15.1737
47.4773	16.2259
54.6783	17.3719
61.8864	18.132
64.1016	18.5143
