Adsorption isotherm of Carbon Dioxide on NU-125-F1
DOI: 10.1021/Ic500722n
Adsorbate Carbon Dioxide: InChIKey CURLTUGMZLYLDI-UHFFFAOYSA-N
Temperature: 270 K
Tabular data in the source: 0
pressure (bar)	uptake (mmol/g)
0.27972	0.27972
0.559441	6.52681
0.932401	7.88481
1.11888	8.69987
1.30536	9.78704
1.58508	10.8736
1.77156	11.9607
2.331	13.5896
2.7972	15.7633
3.7296	17.6617
4.84848	19.831
5.87413	21.7287
7.45921	24.9833
9.88345	28.2321
13.1469	30.6589
17.6224	32.2611
23.8695	33.307
29.7436	34.3555
