Adsorption isotherm of Nitrogen on NU-125-F2
DOI: 10.1021/Ic500722n
Adsorbate Nitrogen: InChIKey IJGRMHOSHXDMSA-UHFFFAOYSA-N
Temperature: 77 K
Tabular data in the source: 0
pressure (bar)	uptake (cm3(STP)/g)
-0.00473912	126.339
-0.00236956	318.14
0	229.24
0.00236956	299.404
0.00473912	378.925
0.0118478	449.066
0.021326	477.09
0.0308043	495.758
0.0473912	528.427
0.0497608	542.45
0.080565	570.372
0.10663	579.603
0.113739	584.248
0.118478	584.225
0.146913	588.766
0.16113	602.733
0.172978	602.676
0.189565	597.918
0.341217	620.579
0.390978	625.018
0.440739	629.457
0.48813	629.228
0.509455	633.804
0.535521	633.679
0.582912	633.45
0.632673	637.889
0.680064	637.661
0.708498	637.524
0.732195	637.41
0.777216	637.193
0.826977	636.953
0.874368	636.725
0.905172	641.255
