Adsorption isotherm of Nitrogen on HKUST-1-F1
DOI: 10.1021/Ic500722n
Adsorbate Nitrogen: InChIKey IJGRMHOSHXDMSA-UHFFFAOYSA-N
Temperature: 77 K
Tabular data in the source: 0
pressure (bar)	uptake (cm3(STP)/g)
0.00235805	62.0773
0.00235805	100.343
0.00235805	149.899
0.00235863	205.12
0.00707417	417.266
0.0165064	444.886
0.0259386	458.713
0.0471612	472.581
0.0778159	486.483
0.10847	493.488
0.167422	510.939
0.224016	518.036
0.290041	514.823
0.306548	521.778
0.325412	525.293
0.334844	525.326
0.389079	528.967
0.438599	532.591
0.488118	536.215
0.587157	543.463
0.631959	540.174
0.681479	540.35
0.721565	543.94
0.745146	544.024
