Adsorption isotherm of Methane on NU-125
DOI: 10.1021/Ic500722n
Adsorbate Methane: InChIKey VNWKTOKETHGBQD-UHFFFAOYSA-N
Temperature: 298 K
Tabular data in the source: 0
pressure (bar)	uptake (mmol/g)
5.48426	3.8497
6.02019	4.90994
7.6744	5.58252
9.32682	6.35156
10.9775	7.21708
12.6281	8.08259
14.8415	8.56135
17.0477	9.42597
18.7019	10.0986
22.0228	10.7685
24.2326	11.4401
25.8868	12.1127
40.2799	14.887
43.6062	15.2675
45.8195	15.7463
49.144	16.2232
52.4721	16.5073
56.3522	16.9834
59.6784	17.3639
62.4509	17.6488
