Adsorption isotherm of Methane on NU-125-F1
DOI: 10.1021/Ic500722n
Adsorbate Methane: InChIKey VNWKTOKETHGBQD-UHFFFAOYSA-N
Temperature: 200 K
Tabular data in the source: 0
pressure (bar)	uptake (mmol/g)
0.151377	2.89105
0.302754	5.78209
0.307669	4.57725
0.458062	7.70927
0.781458	8.43104
0.940699	9.39435
1.42628	10.3565
1.58258	12.0427
1.90302	13.4874
2.54982	14.931
3.3588	16.6149
4.33095	18.2983
5.62945	19.9806
7.57867	22.1426
10.0184	24.0619
13.6003	25.9773
18.3254	27.6478
25.0096	29.0705
29.5755	29.7777
31.6958	30.0114
36.4268	30.2361
39.3629	30.4669
40.8305	30.7028
