Adsorption isotherm of Hydrogen on NU-125
DOI: 10.1021/Ic500722n
Adsorbate Hydrogen: InChIKey UFHFLCQGNIYNRP-UHFFFAOYSA-N
Temperature: 298 K
Tabular data in the source: 0
pressure (bar)	uptake (mmol/g)
2.13363	0.908925
3.60899	0.889165
5.24955	1.33594
7.05276	1.31179
8.69333	1.75857
10.0048	1.74101
11.6453	2.18779
13.2846	2.16583
14.9239	2.14388
16.7284	2.58846
18.3677	2.5665
20.007	2.54455
21.6475	2.99133
23.2868	2.96937
24.9261	2.94742
26.5667	3.3942
28.042	3.37444
29.6813	3.35248
31.3219	3.79926
32.9611	3.77731
34.6017	4.22408
36.241	4.20213
37.8803	4.18017
39.5196	4.15822
41.1601	4.605
42.7994	4.58304
44.4387	4.56109
46.0793	5.00787
47.2268	4.9925
48.866	4.97054
50.5053	4.94859
52.1446	4.92663
53.7852	5.37341
55.4245	5.35146
57.0637	5.3295
58.0486	5.78506
58.8682	5.77409
60.5075	5.75213
62.1468	5.73018
63.2943	5.71481
