Adsorption isotherm of Hydrogen on NU-125
DOI: 10.1021/Ic500722n
Adsorbate Hydrogen: InChIKey UFHFLCQGNIYNRP-UHFFFAOYSA-N
Temperature: 150 K
Tabular data in the source: 0
pressure (bar)	uptake (mmol/g)
1.48304	2.79264
2.96096	3.71034
3.94325	3.22844
5.25852	4.61707
6.24337	5.07263
7.72	5.52161
9.36185	6.43712
10.8385	6.88609
12.4791	7.33287
13.957	8.25058
15.5988	9.16609
16.9115	9.61726
17.7312	9.60628
19.3717	10.0531
20.8484	10.502
22.4902	11.4175
24.1308	11.8643
25.7713	12.3111
26.7562	12.7667
27.9037	12.7513
29.5443	13.1981
31.1848	13.6448
32.6615	14.0938
34.302	14.5406
35.2856	14.5274
35.9413	14.5186
37.5819	14.9654
39.2224	15.4122
40.6991	15.8612
42.3396	16.308
43.9789	16.286
45.2916	16.7372
46.2765	17.1927
47.9158	17.1708
49.5563	17.6175
51.1969	18.0643
52.8362	18.0424
54.3128	18.4913
55.9534	18.9381
57.1022	19.3915
57.5927	18.9162
59.2332	19.3629
60.8738	19.8097
62.1852	19.7922
63.3314	19.3081
