Adsorption isotherm of Hydrogen on NU-125-F1
DOI: 10.1021/Ic500722n
Adsorbate Hydrogen: InChIKey UFHFLCQGNIYNRP-UHFFFAOYSA-N
Temperature: 298 K
Tabular data in the source: 0
pressure (bar)	uptake (mmol/g)
9.98065	1.04505
12.1958	1.42734
16.6332	1.80606
27.7268	2.75285
36.6017	3.51029
58.2315	5.50124
62.1151	5.78438
