Adsorption isotherm of Carbon Dioxide on NU-125-F1
DOI: 10.1021/Ic500722n
Adsorbate Carbon Dioxide: InChIKey CURLTUGMZLYLDI-UHFFFAOYSA-N
Temperature: 298 K
Tabular data in the source: 0
pressure (bar)	uptake (mmol/g)
0.37296	1.90222
0.559441	2.44517
0.745921	3.53234
1.11888	4.34613
1.30536	5.16119
1.67832	5.70287
2.23776	7.33172
2.70396	8.68909
3.54312	10.0439
4.662	11.9411
5.78089	13.5661
7.64569	16.0024
10.1632	18.1622
13.5198	20.8604
18.0886	23.8225
24.2424	27.046
29.8368	28.6406
34.3124	29.6986
38.6014	30.2136
