Adsorption isotherm of Methane on HKUST-1-F1
DOI: 10.1021/Ic500722n
Adsorbate Methane: InChIKey VNWKTOKETHGBQD-UHFFFAOYSA-N
Temperature: 298 K
Tabular data in the source: 0
pressure (bar)	uptake (mmol/g)
1.63492	0.857067
2.17567	1.25682
2.70375	1.71361
2.71431	1.99877
3.79581	2.51311
4.87942	3.25559
7.07833	3.88506
11.9979	6.05703
15.8402	7.31544
21.3491	8.57543
30.1869	9.95265
35.1635	10.5848
40.6978	11.1604
47.3431	11.737
55.0995	12.3147
61.749	12.7773
64.5224	12.894
