Adsorption isotherm of Hydrogen on NU-125
DOI: 10.1021/Ic500722n
Adsorbate Hydrogen: InChIKey UFHFLCQGNIYNRP-UHFFFAOYSA-N
Temperature: 77 K
Tabular data in the source: 0
pressure (bar)	uptake (mmol/g)
2.34879	19.656
3.33748	21.5178
4.49138	23.8461
5.64144	24.7682
6.79406	26.6278
7.94541	28.0186
9.25939	28.9385
11.7222	30.3118
13.0362	31.2317
14.5128	31.6806
16.4825	32.5918
17.7952	33.0429
19.1079	33.4941
20.7472	33.4721
22.2225	33.4524
23.0448	34.3789
24.684	34.3569
25.6689	34.8125
27.3095	35.2592
28.457	35.2439
29.9323	35.2241
31.2463	36.144
32.5577	36.1265
34.5261	36.5688
36.0015	36.5491
37.4769	36.5293
38.6256	36.9827
39.9383	37.4339
41.7428	37.8784
42.5625	37.8675
43.8739	37.8499
44.6935	37.8389
45.6771	37.8258
46.8259	38.2791
48.6291	38.255
49.6127	38.2418
50.9241	38.2242
53.0565	38.6644
54.3679	38.6469
55.5154	38.6315
57.3186	38.6073
58.794	38.5876
60.4345	39.0344
61.582	39.019
63.3852	38.9948
