Adsorption isotherm of Hydrogen on NU-125-F1
DOI: 10.1021/Ic500722n
Adsorbate Hydrogen: InChIKey UFHFLCQGNIYNRP-UHFFFAOYSA-N
Temperature: 298 K
Tabular data in the source: 0
pressure (bar)	uptake (mmol/g)
1.97226	1.84859
3.28369	1.83102
5.25083	1.80468
9.34904	1.74979
16.2353	2.12631
27.5502	3.38102
35.7479	3.73998
46.5698	4.53255
58.2112	5.31414
62.9677	6.18793
