Adsorption isotherm of Hydrogen on NU-125-F1
DOI: 10.1021/Ic500722n
Adsorbate Hydrogen: InChIKey UFHFLCQGNIYNRP-UHFFFAOYSA-N
Temperature: 50 K
Tabular data in the source: 0
pressure (bar)	uptake (mmol/g)
-0.0186132	23.9076
-0.01	10.3143
-0.01	14.5329
-0.01	18.2828
-0.01	21.5639
0.0102455	3.74986
0.0192104	7.03099
0.238208	27.1843
0.40854	29.5258
0.578872	31.8672
0.914413	34.6753
1.24867	37.0145
1.7443	38.4141
2.40514	40.2803
3.22862	41.6755
4.37996	43.0663
5.36994	45.3968
6.02437	44.9193
7.99919	47.7054
10.6272	49.5452
14.0735	50.9053
18.5047	52.7209
24.246	54.0503
28.5107	54.9307
31.1362	55.833
35.4009	56.7134
39.8269	56.6541
45.0752	57.5213
50.814	57.9132
57.3724	58.2941
61.9649	59.1701
63.7682	59.146
