Adsorption isotherm of Carbon Dioxide on NU-125
DOI: 10.1021/Ic500722n
Adsorbate Carbon Dioxide: InChIKey CURLTUGMZLYLDI-UHFFFAOYSA-N
Temperature: 270 K
Tabular data in the source: 0
pressure (bar)	uptake (mmol/g)
0.37296	5.43964
0.745921	7.61397
1.21212	9.78767
1.95804	12.2316
2.331	14.1338
3.17016	16.305
3.7296	17.6617
4.56876	19.8329
5.68765	21.4579
6.34033	22.2698
7.17949	23.0804
8.29837	23.8891
9.04429	24.4283
9.79021	25.5116
10.4429	26.0514
11.1888	26.0463
12.2145	26.0394
12.7739	26.8519
13.986	27.1157
14.8252	27.3821
15.7576	27.6479
16.5967	27.6422
17.3427	27.9092
18.648	27.9004
19.5804	28.1661
20.5128	28.4319
21.5385	28.697
22.2844	28.6919
23.7762	28.6818
24.7086	29.2197
25.9207	29.2114
26.8531	29.2051
27.5991	29.2
28.6247	29.193
29.4639	29.4594
30.0233	29.7277
