Adsorption isotherm of Methane on NU-125-F1
DOI: 10.1021/Ic500722n
Adsorbate Methane: InChIKey VNWKTOKETHGBQD-UHFFFAOYSA-N
Temperature: 240 K
Tabular data in the source: 0
pressure (bar)	uptake (mmol/g)
0.807016	2.1659
1.12943	3.12864
1.28769	4.33292
1.77425	5.05413
2.42203	6.25672
3.23298	7.45875
4.20513	9.14215
5.50363	10.8244
5.9902	11.5456
8.26675	13.4655
11.3582	15.6236
15.1033	17.5384
20.9686	19.6869
28.1394	21.8308
31.0745	22.3027
36.2921	23.2486
41.9992	24.1928
48.1968	24.8943
55.3735	25.5925
61.2457	26.0542
63.6913	26.5277
