Adsorption isotherm of Methane on NU-125-F1
DOI: 10.1021/Ic500722n
Adsorbate Methane: InChIKey VNWKTOKETHGBQD-UHFFFAOYSA-N
Temperature: 270 K
Tabular data in the source: 0
pressure (bar)	uptake (mmol/g)
1.30046	1.20034
1.78507	2.40349
2.27065	3.36568
3.40795	4.56658
4.70841	5.76692
6.00887	6.96727
8.12422	8.40577
11.2156	10.5638
15.2871	12.4775
20.5008	14.3873
28.161	16.5296
31.0952	17.2424
36.1496	18.1888
41.6935	19.1336
48.0533	20.0755
55.0648	21.2562
61.2634	21.7168
63.709	22.1903
