Adsorption isotherm of Nitrogen on NU-125-F2-feed 1to1
DOI: 10.1021/Ic500722n
Adsorbate Nitrogen: InChIKey IJGRMHOSHXDMSA-UHFFFAOYSA-N
Temperature: 77 K
Tabular data in the source: 0
pressure (bar)	uptake (cm3(STP)/g)
0	0
0.00236956	187.123
0.00473912	491.205
0.00947825	528.609
0.021326	561.301
0.0284347	579.98
0.0402825	603.315
0.0450217	617.327
0.0639782	649.984
0.0781955	663.951
0.109	677.838
0.120847	677.781
0.146913	682.333
0.158761	691.633
0.16587	691.599
0.180087	691.53
0.191934	691.473
0.338847	704.801
0.438369	713.679
0.48813	713.439
0.509455	718.015
0.535521	717.889
0.587651	712.96
0.635043	717.41
0.680064	717.193
0.703759	721.757
0.732195	716.942
0.779586	716.714
0.824607	721.175
0.874368	720.936
0.905172	720.787
