Adsorption isotherm of Hydrogen on NU-125-F1
DOI: 10.1021/Ic500722n
Adsorbate Hydrogen: InChIKey UFHFLCQGNIYNRP-UHFFFAOYSA-N
Temperature: 77 K
Tabular data in the source: 0
pressure (bar)	uptake (mmol/g)
0.0128069	4.68733
0.016649	6.09353
0.35219	8.90153
0.68645	11.2408
1.02071	13.5801
1.02583	15.455
1.68667	17.3212
2.34623	18.7186
3.00834	21.0535
3.6679	22.4509
4.98445	24.3082
6.30228	26.6343
8.11062	28.4851
11.3969	31.2536
15.0084	33.0802
20.2618	35.8224
26.9893	38.076
30.7635	39.4317
35.5212	40.7743
40.2777	41.6481
46.0191	42.9774
52.2522	44.3002
59.6315	45.1389
63.0753	45.5615
64.3867	45.5439
