Adsorption isotherm of Methane on NU-125
DOI: 10.1021/Ic500722n
Adsorbate Methane: InChIKey VNWKTOKETHGBQD-UHFFFAOYSA-N
Temperature: 298 K
Tabular data in the source: 0
pressure (bar)	uptake (mmol/g)
2.11141	2.40237
3.41384	3.12078
5.20481	4.07847
6.99577	5.03616
9.43746	6.47354
11.3926	7.1897
13.5099	8.14627
15.464	9.10339
17.4221	9.09665
19.7026	10.0527
22.4716	11.2479
24.9182	11.4805
27.0345	12.678
29.1548	12.9117
31.2741	13.3863
32.9038	13.8626
35.5136	14.0946
38.4507	14.0845
41.2197	15.2798
43.341	15.2725
45.9498	15.7454
48.3964	15.978
50.1903	16.2128
52.6379	16.2043
54.4318	16.4391
56.2247	16.9149
58.5091	16.907
59.9777	16.902
61.9338	17.3772
63.2382	17.6136
