Adsorption isotherm of Carbon Dioxide on NU-125
DOI: 10.1021/Ic500722n
Adsorbate Carbon Dioxide: InChIKey CURLTUGMZLYLDI-UHFFFAOYSA-N
Temperature: 298 K
Tabular data in the source: 0
pressure (bar)	uptake (mmol/g)
5.85584	13.7848
6.3989	14.4592
6.9384	15.3265
8.03168	16.2893
9.68589	16.9619
10.7792	17.9248
12.4316	18.6938
13.5284	19.4638
14.0751	19.9452
15.7275	20.7143
17.3817	21.3868
18.475	22.3497
20.6866	22.9249
23.4537	23.4993
25.1079	24.1719
26.7657	24.6515
28.9809	25.0338
30.0849	25.4179
