Adsorption isotherm of Nitrogen on NU-125-F1
DOI: 10.1021/Ic500722n
Adsorbate Nitrogen: InChIKey IJGRMHOSHXDMSA-UHFFFAOYSA-N
Temperature: 298 K
Tabular data in the source: 0
pressure (bar)	uptake (mmol/g)
7.73514	2.30268
14.3681	4.12481
19.9023	5.27347
27.1016	6.51591
30.9781	7.18492
35.4083	7.9495
39.2866	8.52205
