Adsorption isotherm of Hydrogen on NU-125-F1
DOI: 10.1021/Ic500722n
Adsorbate Hydrogen: InChIKey UFHFLCQGNIYNRP-UHFFFAOYSA-N
Temperature: 30 K
Tabular data in the source: 0
pressure (bar)	uptake (mmol/g)
0.00896484	3.28113
0.0153683	5.62479
0.0422628	15.4682
0.0512276	18.7493
0.189542	19.3725
0.29712	48.746
0.472575	52.9624
0.808116	55.7704
1.1411	57.641
1.96586	59.5049
2.62285	59.9649
3.11976	61.8332
4.10333	61.82
5.41604	62.2712
7.2231	63.6533
8.86366	64.1
9.84979	65.0243
10.193	70.6447
