Adsorption isotherm of Methane on CuBTC
DOI: 10.1021/Ic500722n
Adsorbate Methane: InChIKey VNWKTOKETHGBQD-UHFFFAOYSA-N
Temperature: 298 K
Tabular data in the source: 0
pressure (bar)	uptake (mmol/g)
3.75568	2.74124
3.78736	3.59673
5.40961	3.9405
6.49745	4.56891
7.03609	5.0257
8.12815	5.54005
9.22232	5.99736
10.3102	6.62577
11.4086	6.96902
13.054	7.54093
14.1524	7.88418
15.8	8.39905
16.3471	8.62771
17.9968	9.08555
19.6487	9.48636
22.4158	9.77416
24.0697	10.1179
25.7236	10.4617
28.4908	10.7495
30.1426	11.1503
33.4673	11.3816
36.2324	11.7265
40.1105	12.0153
42.8777	12.3031
47.3114	12.5925
52.3007	12.8824
55.6254	13.1137
60.6168	13.3466
65.0526	13.5789
