Adsorption isotherm of Carbon Dioxide on NU-125
DOI: 10.1021/Ic500722n
Adsorbate Carbon Dioxide: InChIKey CURLTUGMZLYLDI-UHFFFAOYSA-N
Temperature: 220 K
Tabular data in the source: 0
pressure (bar)	uptake (mmol/g)
1.21212	28.019
1.49184	29.3776
2.14452	30.4616
2.89044	31.0007
3.63636	31.2678
4.1958	31.8082
4.84848	32.348
5.22145	32.8897
5.59441	34.2477
5.78089	38.6001
