Adsorption isotherm of Hydrogen on NU-125-F1
DOI: 10.1021/Ic500722n
Adsorbate Hydrogen: InChIKey UFHFLCQGNIYNRP-UHFFFAOYSA-N
Temperature: 150 K
Tabular data in the source: 0
pressure (bar)	uptake (mmol/g)
1.64569	2.32171
3.1236	3.23942
5.09331	4.15054
6.07816	4.6061
10.3454	6.42395
17.4033	9.61067
27.4132	13.2266
35.4508	14.994
45.7847	17.1993
57.1009	18.9228
62.0213	19.7944
