Adsorption isotherm of Hydrogen on NU-125
DOI: 10.1021/Ic500722n
Adsorbate Hydrogen: InChIKey UFHFLCQGNIYNRP-UHFFFAOYSA-N
Temperature: 200 K
Tabular data in the source: 0
pressure (bar)	uptake (mmol/g)
2.62542	0.902338
3.93941	1.82224
5.41604	2.27121
6.39833	1.78931
7.05661	2.71799
7.87625	2.70701
9.18896	3.15818
10.1738	3.61374
11.8131	3.59179
13.4537	4.03857
15.0942	4.48535
15.9139	4.47437
16.5696	4.46559
18.2101	4.91236
19.8507	5.35914
21.3273	5.80812
22.9666	5.78616
24.6072	6.23294
26.2465	6.21098
27.3953	6.66435
29.0358	7.11113
30.6751	7.08917
32.3157	7.53595
33.7923	7.98492
35.5955	7.96077
37.2361	8.40755
38.8767	8.85433
40.5159	8.83238
41.9926	9.28135
43.6319	9.25939
44.6167	9.71495
45.7642	9.69959
47.4035	9.67763
49.0441	10.1244
50.6846	10.5712
52.3239	10.5492
53.8005	10.9982
55.4398	10.9763
57.5722	11.4164
59.2115	11.3945
60.852	11.8413
62.3287	12.2902
63.3122	12.2771
