Adsorption isotherm of Hydrogen on NU-125
DOI: 10.1021/Ic500722n
Adsorbate Hydrogen: InChIKey UFHFLCQGNIYNRP-UHFFFAOYSA-N
Temperature: 50 K
Tabular data in the source: 0
pressure (bar)	uptake (mmol/g)
0.402137	27.1821
0.578872	31.8672
1.4062	34.6687
2.23352	37.4701
3.22094	38.8631
4.37228	40.2539
5.52234	41.176
6.34454	42.1025
7.16547	42.5603
7.98639	43.018
9.46302	43.467
10.4492	44.3913
11.4327	44.3781
12.5815	44.8315
13.7303	45.2849
15.6987	45.7272
17.1741	45.7075
18.6494	45.6877
20.1273	46.6054
21.7679	47.0522
23.5711	47.0281
25.2104	47.0061
27.0136	46.982
28.4902	47.4309
30.7852	47.4002
32.2606	47.3804
33.2455	47.836
34.8847	47.814
36.1962	47.7965
37.6715	47.7767
39.8013	47.2794
41.6045	47.2553
43.409	47.6999
44.5565	47.6845
47.0154	47.6516
48.6547	47.6296
50.9484	47.1302
52.7517	47.106
54.0631	47.0884
55.8676	47.533
57.5069	47.5111
58.9822	47.4913
60.4576	47.4716
61.9329	47.4518
63.4083	47.432
