Adsorption isotherm of Nitrogen on NU-125
DOI: 10.1021/Ic500722n
Adsorbate Nitrogen: InChIKey IJGRMHOSHXDMSA-UHFFFAOYSA-N
Temperature: 77 K
Tabular data in the source: 0
pressure (bar)	uptake (cm3(STP)/g)
0	0
0.0023638	425.315
0.00945518	580.572
0.0189103	626.661
0.0330932	655.564
0.0425483	678.664
0.0520035	696.018
0.0567311	730.556
0.0827329	753.852
0.104007	765.598
0.111098	765.682
0.122918	765.822
0.158374	771.989
0.167829	777.848
0.179649	777.988
0.191467	778.127
0.340387	791.384
0.390026	791.971
0.437303	798.277
0.486942	798.865
0.510579	804.891
0.534217	805.171
0.586221	800.039
0.631133	806.318
0.67841	806.877
0.706775	807.213
0.728049	807.464
0.775325	813.771
0.824964	814.358
0.874604	814.945
0.90297	815.281
