Adsorption isotherm of Hydrogen on NU-125-F2
DOI: 10.1021/Ic500722n
Adsorbate Hydrogen: InChIKey UFHFLCQGNIYNRP-UHFFFAOYSA-N
Temperature: 298 K
Tabular data in the source: 0
pressure (bar)	uptake (mmol/g)
9.52005	0.677419
17.3615	1.16129
28.0012	1.93548
35.8426	2.41935
47.0449	3.09677
57.6847	3.87097
62.167	4.06452
