Adsorption isotherm of Nitrogen on CuBTC
DOI: 10.1021/Ic500722n
Adsorbate Nitrogen: InChIKey IJGRMHOSHXDMSA-UHFFFAOYSA-N
Temperature: 298 K
Tabular data in the source: 0
pressure (bar)	uptake (mmol/g)
5.49199	1.71625
7.14593	2.06002
8.79775	2.46083
9.89403	2.86112
12.1014	3.26245
13.1998	3.6057
15.405	4.06407
17.6124	4.46541
20.3753	4.86728
22.5805	5.32565
24.7921	5.61292
27.0037	5.90019
28.6597	6.18694
32.5337	6.58986
35.3008	6.87766
38.6214	7.22302
40.833	7.5103
