Adsorption isotherm of Methane on NU-125
DOI: 10.1021/Ic500722n
Adsorbate Methane: InChIKey VNWKTOKETHGBQD-UHFFFAOYSA-N
Temperature: 125 K
Tabular data in the source: 0
pressure (bar)	uptake (mmol/g)
0.419727	17.107
0.570121	20.239
0.723463	22.6481
1.36632	25.0555
1.68579	26.7412
2.65892	28.1836
4.7782	28.6583
6.73332	29.3744
8.19991	29.8513
10.3202	30.085
12.6036	30.3181
14.3975	30.5528
15.8651	30.7888
17.3336	30.7837
