Adsorption isotherm of Hydrogen on NU-125
DOI: 10.1021/Ic500722n
Adsorbate Hydrogen: InChIKey UFHFLCQGNIYNRP-UHFFFAOYSA-N
Temperature: 30 K
Tabular data in the source: 0
pressure (bar)	uptake (mmol/g)
0.29584	48.2773
0.794028	50.6144
1.61751	52.0096
2.27451	52.4695
3.09543	52.9273
4.079	52.9141
4.73599	53.3741
5.39299	53.834
6.0487	53.8252
7.19748	54.2786
7.8532	54.2698
8.02353	56.6113
8.36035	59.888
8.69205	61.2898
8.69973	64.1022
8.87263	67.3812
8.88159	70.6623
9.05064	72.535
