Adsorption isotherm of Carbon Dioxide on NU-125-F1
DOI: 10.1021/Ic500722n
Adsorbate Carbon Dioxide: InChIKey CURLTUGMZLYLDI-UHFFFAOYSA-N
Temperature: 298 K
Tabular data in the source: 0
pressure (bar)	uptake (mmol/g)
1.02361	3.47009
1.55596	4.72504
1.60241	5.97821
2.61887	8.581
4.22485	11.8582
5.85941	13.5919
9.66445	18.1195
12.9461	20.9117
23.9486	26.7782
29.4721	28.5057
33.897	29.5597
38.3291	30.2278
