Adsorption isotherm of Hydrogen on NU-125-F1
DOI: 10.1021/Ic500722n
Adsorbate Hydrogen: InChIKey UFHFLCQGNIYNRP-UHFFFAOYSA-N
Temperature: 200 K
Tabular data in the source: 0
pressure (bar)	uptake (mmol/g)
1.97098	1.37985
3.7742	1.3557
5.25211	2.27341
9.19024	3.62692
16.0791	4.94091
27.0661	6.20001
35.105	8.43609
45.2711	9.23744
57.0804	11.423
61.9995	11.8259
