Adsorption isotherm of Carbon Dioxide on NU-125-F1
DOI: 10.1021/Ic500722n
Adsorbate Carbon Dioxide: InChIKey CURLTUGMZLYLDI-UHFFFAOYSA-N
Temperature: 220 K
Tabular data in the source: 0
pressure (bar)	uptake (mmol/g)
0.27972	0.27972
0.4662	17.5887
0.559441	18.2275
0.652681	22.3085
0.839161	23.6678
0.932401	26.9324
1.11888	28.0196
1.30536	30.1952
1.3986	33.1878
1.77156	34.5458
2.23776	35.3589
2.89044	36.4429
3.91608	37.2523
5.12821	38.3325
5.87413	39.4158
