Adsorption isotherm of Methane on NU-125
DOI: 10.1021/Ic500722n
Adsorbate Methane: InChIKey VNWKTOKETHGBQD-UHFFFAOYSA-N
Temperature: 200 K
Tabular data in the source: 0
pressure (bar)	uptake (mmol/g)
0.465926	5.78153
0.780475	8.67201
1.58159	12.2837
2.71299	14.9304
3.51902	17.3373
5.14386	19.0184
7.09604	20.4575
9.37554	21.6545
10.5148	22.3734
13.6121	23.0857
15.2409	23.803
17.5243	24.0361
19.3173	24.5118
20.947	24.9881
23.0673	25.2218
25.3517	25.2139
27.6351	25.447
29.429	25.6818
31.3851	26.157
33.0169	26.1514
35.1381	26.1441
36.6067	26.139
