Adsorption isotherm of Methane on NU-125
DOI: 10.1021/Ic500722n
Adsorbate Methane: InChIKey VNWKTOKETHGBQD-UHFFFAOYSA-N
Temperature: 240 K
Tabular data in the source: 0
pressure (bar)	uptake (mmol/g)
0.481654	1.92605
1.12746	3.61058
2.09765	5.77591
3.39615	7.45819
4.20415	9.38312
5.17729	10.8256
7.29165	12.505
8.75528	13.7048
10.8726	14.6614
12.3372	15.6202
14.2923	16.3363
15.7589	16.8132
17.5519	17.289
19.1826	17.5243
20.3209	18.4843
22.1148	18.7191
23.7455	18.9544
26.1911	19.4279
28.1472	19.9031
29.778	20.1385
30.756	20.3761
32.8763	20.6097
34.9975	20.6024
36.6253	21.5607
38.9097	21.5528
41.6827	21.7842
43.9661	22.0173
45.76	22.2521
47.3918	22.2465
48.8603	22.2414
51.4691	22.7144
52.7735	22.9509
54.7316	22.9441
56.035	23.4216
57.8299	23.4154
