Adsorption isotherm of Methane on NU-125-F1
DOI: 10.1021/Ic500722n
Adsorbate Methane: InChIKey VNWKTOKETHGBQD-UHFFFAOYSA-N
Temperature: 298 K
Tabular data in the source: 0
pressure (bar)	uptake (mmol/g)
1.46069	1.92268
2.60191	2.15972
3.57898	2.63828
4.55507	3.35781
5.8575	4.07622
7.97481	5.03279
10.7419	6.71001
14.9775	8.38218
20.1911	10.2919
27.6892	12.1938
31.275	13.1454
36.1663	14.0924
41.7092	15.2781
47.9049	16.4616
54.9174	17.4013
62.094	18.0995
65.0291	18.5713
