Adsorption isotherm of Carbon Dioxide on NU-125-F1
DOI: 10.1021/Ic500722n
Adsorbate Carbon Dioxide: InChIKey CURLTUGMZLYLDI-UHFFFAOYSA-N
Temperature: 240 K
Tabular data in the source: 0
pressure (bar)	uptake (mmol/g)
0.37296	0.37296
0.4662	12.2417
0.652681	13.601
0.839161	14.9603
1.02564	16.8638
1.30536	18.2224
1.3986	19.8544
1.67832	21.7573
2.05128	23.3874
2.51748	26.6495
3.07692	29.3668
4.00932	32.3537
5.22145	33.706
6.15385	34.2439
8.11189	35.5911
10.6294	36.3903
11.3753	36.3852
