Adsorption isotherm of Nitrogen on NU-125-F2
DOI: 10.1021/Ic500722n
Adsorbate Nitrogen: InChIKey IJGRMHOSHXDMSA-UHFFFAOYSA-N
Temperature: 298 K
Tabular data in the source: 0
pressure (bar)	uptake (mmol/g)
11.1733	2.22581
15.0841	3
20.1164	3.77419
27.388	4.74194
30.1827	5.22581
31.8613	5.41935
