Adsorption isotherm of Nitrogen on PI-2-COF
DOI: 10.1039/c6cc00853d
Article source: Figure S5a
Adsorbate Nitrogen: InChIKey IJGRMHOSHXDMSA-UHFFFAOYSA-N
Kind: experiment
Temperature: 77 K
Tabular data in the source: 0
pressure (bar)	uptake (cm3(STP)/g)
0	11.8033
0	36.7213
0.009149	61.6393
0.02516	77.3771
0.043458	87.8689
0.073192	100.984
0.098352	106.23
0.123511	108.852
0.148671	112.787
0.173831	116.721
0.205852	116.721
0.226437	121.967
0.253884	123.279
0.279044	127.213
0.301916	129.836
0.327076	132.459
0.352236	132.459
0.38197	135.082
0.403699	139.016
0.43229	140.328
0.452875	142.951
0.480322	145.574
0.505481	146.885
0.530641	149.508
0.560375	152.131
0.58096	153.443
0.608407	156.066
0.63128	157.377
0.65644	161.311
0.681599	161.311
0.709046	163.934
0.734206	166.557
0.759366	169.18
0.784525	171.803
0.807398	174.426
0.833701	177.705
0.860005	179.672
0.887451	182.295
0.910324	188.852
0.935484	194.098
0.960643	201.967
0.985803	229.508
0.994952	273.443
