Adsorption isotherm of Nitrogen on PI-3-COF
DOI: 10.1039/c6cc00853d
Article source: Figure S5a
Adsorbate Nitrogen: InChIKey IJGRMHOSHXDMSA-UHFFFAOYSA-N
Kind: experiment
Temperature: 77 K
Tabular data in the source: 0
pressure (bar)	uptake (cm3(STP)/g)
0	7.86885
0	15.7377
0	26.2295
0	38.0328
0	51.1475
0.009149	60.3279
0.009149	69.5082
0.027447	87.8689
0.048032	104.918
0.070905	116.721
0.100639	123.279
0.123511	127.213
0.150958	129.836
0.178405	133.77
0.201278	137.705
0.231012	140.328
0.251597	142.951
0.276757	146.885
0.301916	150.82
0.330507	152.787
0.354523	156.066
0.379683	158.033
0.404843	160
0.430002	163.934
0.452875	163.934
0.480322	167.869
0.507769	169.18
0.532928	173.115
0.558088	174.426
0.58096	177.049
0.603833	178.361
0.63128	180.984
0.658727	184.918
0.679312	187.541
0.709046	188.852
0.736493	191.475
0.759366	195.41
0.786813	196.721
0.809685	200.656
0.832558	203.279
0.860005	205.902
0.885164	209.836
0.910324	215.082
0.933196	222.951
0.960643	234.754
0.983516	267.541
0.997239	329.18
