Adsorption isotherm of Ethene on FIR-7a-ht
DOI: 10.1039/C3cc47286h
Adsorbate Ethene: InChIKey VGGSQFUCUMXWEO-UHFFFAOYSA-N
Temperature: 273 K
Tabular data in the source: 0
pressure (bar)	uptake (mmol/g)
0.0197031	0.169136
0.102802	0.484629
0.187309	0.800122
0.242238	1.02547
0.299985	1.22829
0.384492	1.49871
0.438013	1.65646
0.526745	1.91561
0.607027	2.1635
0.666182	2.32125
0.747872	2.53533
0.80421	2.71562
0.887309	2.88463
0.943647	3.00857
0.974633	3.07618
