Adsorption isotherm of Hydrogen on FIR-7a-ht
DOI: 10.1039/C3cc47286h
Adsorbate Hydrogen: InChIKey UFHFLCQGNIYNRP-UHFFFAOYSA-N
Temperature: 77 K
Tabular data in the source: 0
pressure (bar)	uptake (cm3(STP)/g)
0.00944547	2.593
0.0337579	12.604
0.0809526	29.0506
0.132438	43.3521
0.212526	56.9384
0.269731	65.5193
0.334088	74.1002
0.467091	89.8317
0.597234	101.988
0.731668	111.999
0.794594	115.574
0.85752	119.865
0.95906	125.585
0.989093	127.731
