Adsorption isotherm of Ethane on FIR-7a-ht
DOI: 10.1039/C3cc47286h
Adsorbate Ethane: InChIKey OTMSDBZUPAUEDD-UHFFFAOYSA-N
Temperature: 273 K
Tabular data in the source: 0
pressure (bar)	uptake (mmol/g)
0.0309707	0.304347
0.0859002	0.709981
0.136604	1.04801
0.201393	1.53252
0.283083	2.06209
0.357731	2.5804
0.461957	3.18885
0.595759	3.90998
0.792943	4.89026
0.857731	5.17195
0.928154	5.47618
