Adsorption isotherm of N-propane on FIR-7a-ht
DOI: 10.1039/C3cc47286h
Adsorbate N-propane: InChIKey ATUOYWHBWRKTHZ-UHFFFAOYSA-N
Temperature: 298 K
Tabular data in the source: 0
pressure (bar)	uptake (mmol/g)
0.0112524	0.29308
0.0337876	0.81139
0.0577312	1.48745
0.0859002	2.17477
0.136604	3.35787
0.20421	4.61984
0.280266	5.43111
0.357731	5.92688
0.466182	6.29871
0.594351	6.65928
0.72252	6.87336
0.854914	7.07618
0.921112	7.14378
1.00139	7.23392
