Adsorption isotherm of Ethene on FIR-7a-ht
DOI: 10.1039/C3cc47286h
Adsorbate Ethene: InChIKey VGGSQFUCUMXWEO-UHFFFAOYSA-N
Temperature: 298 K
Tabular data in the source: 0
pressure (bar)	uptake (mmol/g)
0.0239284	0.112798
0.101393	0.349418
0.163365	0.552235
0.218295	0.721249
0.301393	0.946601
0.383083	1.17195
0.442238	1.3297
0.52252	1.54378
0.580266	1.70153
0.666182	1.90435
0.742238	2.10716
0.807027	2.23111
0.883083	2.41139
0.945055	2.52407
1.0028	2.64801
