Adsorption isotherm of Methane on FIR-7a-ht
DOI: 10.1039/C3cc47286h
Adsorbate Methane: InChIKey VNWKTOKETHGBQD-UHFFFAOYSA-N
Temperature: 273 K
Tabular data in the source: 0
pressure (bar)	uptake (mmol/g)
0.035196	0.05646
0.166182	0.169136
0.24083	0.214206
0.315478	0.259277
0.35914	0.270544
0.464773	0.315615
0.598576	0.417023
0.726745	0.484629
0.790126	0.529699
0.861957	0.540967
0.923928	0.586037
