Adsorption isotherm of Ethane on FIR-7a-ht
DOI: 10.1039/C3cc47286h
Adsorbate Ethane: InChIKey OTMSDBZUPAUEDD-UHFFFAOYSA-N
Temperature: 298 K
Tabular data in the source: 0
pressure (bar)	uptake (mmol/g)
0.0422383	0.281812
0.0802664	0.495897
0.15914	0.90153
0.236604	1.27336
0.321112	1.65646
0.460548	2.24238
0.597168	2.72688
0.792943	3.41421
0.85914	3.65083
0.929562	3.84238
