Adsorption isotherm of Methane on FIR-7a-ht
DOI: 10.1039/C3cc47286h
Adsorbate Methane: InChIKey VNWKTOKETHGBQD-UHFFFAOYSA-N
Temperature: 298 K
Tabular data in the source: 0
pressure (bar)	uptake (mmol/g)
0.0182946	0.0113896
0.0844918	0.05646
0.173224	0.0902628
0.271816	0.146601
0.326745	0.191671
0.399985	0.225474
0.483083	0.248009
0.54083	0.29308
0.64083	0.326883
0.743647	0.360685
0.790126	0.394488
0.878858	0.417023
0.921112	0.450826
0.997168	0.473361
