Adsorption isotherm of N-propane on FIR-7a-ht
DOI: 10.1039/C3cc47286h
Adsorbate N-propane: InChIKey ATUOYWHBWRKTHZ-UHFFFAOYSA-N
Temperature: 273 K
Tabular data in the source: 0
pressure (bar)	uptake (mmol/g)
0.00702701	0.270544
0.0154777	0.766319
0.0323791	1.56632
0.0450552	2.29871
0.0718157	3.48181
0.109844	4.9804
0.138013	5.679
0.201393	6.38885
0.280266	6.91843
0.357731	7.22266
0.45914	7.49308
0.592942	7.74097
0.723928	7.92125
0.846464	8.09026
0.92252	8.15787
