Adsorption isotherm of Nitrogen on FIR-7a-ht
DOI: 10.1039/C3cc47286h
Adsorbate Nitrogen: InChIKey IJGRMHOSHXDMSA-UHFFFAOYSA-N
Temperature: 77 K
Tabular data in the source: 0
pressure (bar)	uptake (cm3(STP)/g)
0.00229475	5.45328
0.015166	335.101
0.0223168	358.699
0.0308976	380.151
0.0609306	398.743
0.119566	415.189
0.175342	420.91
0.298334	426.63
0.402735	432.351
0.502845	435.211
0.595804	438.787
0.703065	438.787
0.803175	439.502
0.85323	440.217
0.909005	441.647
0.95477	441.647
0.983373	442.362
