Adsorption isotherm of Carbon Dioxide on Zeolite 13X
DOI: 10.1016/S0040-6031(03)00133-3
Adsorbate Carbon Dioxide: InChIKey CURLTUGMZLYLDI-UHFFFAOYSA-N
Temperature: 298 K
Tabular data in the source: 0
pressure (bar)	uptake (mmol/g)
0.0118769	0.24948
0.0143137	0.711019
0.0485613	1.19751
0.0505371	1.57173
0.0725785	1.74636
0.0944881	1.89605
0.10597	2.07069
0.128077	2.2578
0.171962	2.56965
0.247526	2.8815
0.343617	3.08108
0.417996	3.1684
0.471453	3.29314
0.588399	3.44283
0.67314	3.49272
0.736959	3.58004
0.811074	3.61746
0.885321	3.67983
0.959371	3.70478
1.04418	3.76715
1.13935	3.7921
1.23465	3.842
1.34044	3.87942
1.39337	3.90437
1.48854	3.92931
1.57321	3.96674
1.66845	4.00416
1.76362	4.02911
1.82704	4.04158
1.93277	4.06653
2.02794	4.09148
2.11255	4.11642
2.20772	4.14137
2.31338	4.15385
2.40855	4.17879
2.50372	4.20374
2.60938	4.21622
2.70455	4.24116
2.81028	4.26611
2.91594	4.27859
2.95824	4.29106
3.0639	4.30353
3.15907	4.32848
3.2648	4.35343
3.35984	4.35343
3.4655	4.3659
3.57123	4.39085
3.75088	4.4158
3.85654	4.42827
3.9622	4.44075
4.05737	4.4657
4.15241	4.4657
4.25807	4.47817
4.36373	4.49064
4.47995	4.50312
4.58562	4.51559
4.68072	4.52807
4.78638	4.54054
4.88148	4.55301
4.98715	4.56549
5.09281	4.57796
5.18791	4.59044
5.28301	4.60291
5.38868	4.61538
5.49434	4.62786
5.58944	4.64033
5.6951	4.65281
5.80077	4.66528
5.90643	4.67775
6.01203	4.67775
6.10713	4.69023
6.15993	4.69023
6.26559	4.7027
6.37125	4.71518
6.46629	4.71518
6.49797	4.71518
6.60363	4.72765
6.70929	4.74012
6.8044	4.7526
6.97342	4.76507
7.07908	4.77755
7.18474	4.79002
7.27984	4.80249
7.38551	4.81497
7.4911	4.81497
7.58621	4.82744
7.6918	4.82744
7.78691	4.83992
7.89257	4.85239
7.99816	4.85239
8.10383	4.86486
8.19886	4.86486
8.29397	4.87734
8.39963	4.88981
8.50529	4.90229
8.60033	4.90229
8.69543	4.91476
8.80109	4.92723
8.90669	4.92723
9.02291	4.93971
9.12851	4.93971
9.23417	4.95218
9.33983	4.96466
9.44543	4.96466
9.54053	4.97713
9.64613	4.97713
