Adsorption isotherm of Carbon Dioxide on Wessalite DAY
DOI: 10.1016/S0040-6031(03)00133-3
Adsorbate Carbon Dioxide: InChIKey CURLTUGMZLYLDI-UHFFFAOYSA-N
Temperature: 298 K
Tabular data in the source: 0
pressure (bar)	uptake (mmol/g)
0.0636214	0.049896
0.2333	0.18711
0.392091	0.261954
0.550947	0.349272
0.709868	0.449064
0.910897	0.523909
1.0485	0.586279
1.11212	0.636175
1.20749	0.698545
1.30279	0.748441
1.42984	0.810811
1.51464	0.873181
1.60994	0.923077
1.83235	1.04782
1.92765	1.09771
2.0547	1.16008
2.13951	1.22245
2.23487	1.28482
2.36185	1.33472
2.44666	1.39709
2.54202	1.45946
2.66907	1.52183
2.76437	1.57173
2.84924	1.64657
2.9656	1.68399
3.0504	1.74636
3.14577	1.80873
3.25156	1.84615
3.34693	1.90852
3.56934	2.03326
3.66464	2.08316
3.85518	2.17048
3.95048	2.22037
4.15157	2.30769
4.24687	2.35759
4.44797	2.44491
4.54327	2.4948
4.6385	2.53222
4.75486	2.56965
4.85016	2.61954
4.94539	2.65696
5.0723	2.69439
5.1676	2.74428
5.26284	2.7817
5.38969	2.80665
5.48492	2.84407
5.58016	2.8815
6.06669	3.03119
6.17242	3.05613
6.37332	3.10603
6.47904	3.13098
6.57421	3.15593
6.70106	3.18087
6.7963	3.2183
6.90202	3.24324
7.04999	3.26819
7.15572	3.29314
7.25089	3.31809
7.38823	3.33056
7.48346	3.36798
7.57863	3.39293
7.74772	3.41788
7.85345	3.44283
7.94855	3.4553
8.10708	3.48025
8.2128	3.5052
8.30797	3.53015
8.4665	3.55509
8.57216	3.56757
8.66733	3.59252
8.82579	3.60499
8.93152	3.62994
9.02662	3.64241
9.18515	3.66736
9.28025	3.67983
9.38592	3.69231
9.56556	3.71726
9.67122	3.72973
9.76639	3.75468
9.88268	3.77963
