Adsorption isotherm of Nitrogen on BAM-CRM-PM-104
DOI: 10.1016/S0040-6031(03)00133-3
Adsorbate Nitrogen: InChIKey IJGRMHOSHXDMSA-UHFFFAOYSA-N
Temperature: 77 K
Tabular data in the source: 0
pressure (bar)	uptake (mmol/g)
0.0010778	0.146979
0.00216902	0.320684
0.00526825	0.494362
0.0133473	0.587795
0.0445252	0.694283
0.0616202	0.747506
0.0796991	0.760628
0.101807	0.800421
0.119893	0.826906
0.139993	0.866726
0.160087	0.893184
0.19927	0.946112
0.239457	0.999027
0.280655	1.06529
0.319845	1.13158
0.357027	1.1979
0.431384	1.31718
0.502756	1.48994
0.56712	1.70289
0.620446	1.92935
0.666758	2.18263
0.702066	2.51623
0.736384	2.87657
0.762676	3.25039
0.790976	3.62417
0.821264	3.95785
0.835387	4.09129
0.854557	4.27811
0.875709	4.41146
0.89686	4.54481
0.918018	4.69152
0.935173	4.86501
0.946298	5.02522
0.95844	5.21214
0.968594	5.43917
0.975736	5.66625
