Adsorption isotherm of Carbon Dioxide on Cl-Zn-CBTACN
DOI: 10.1021/jp209895d
Article source: Figure 6
Adsorbate Carbon Dioxide: InChIKey CURLTUGMZLYLDI-UHFFFAOYSA-N
Kind: experiment
Temperature: 273 K
Tabular data in the source: 0
pressure (bar)	uptake (molecules/unitcell)
0.008336	18.9831
0.061499	29.8305
0.550245	52.2034
0.876262	65.7627
1.47578	77.2881
2.29443	84.7458
3.65954	92.2034
5.62601	97.6271
8.41252	100.339
11.1446	101.695
13.8221	102.373
16.7728	103.051
