Adsorption isotherm of Carbon Dioxide on Cl-Zn-CBTACN
DOI: 10.1021/jp209895d
Article source: Figure 6
Adsorbate Carbon Dioxide: InChIKey CURLTUGMZLYLDI-UHFFFAOYSA-N
Kind: experiment
Temperature: 333 K
Tabular data in the source: 0
pressure (bar)	uptake (molecules/unitcell)
0	0
0.188631	0
0.350052	0
0.674738	0
0.891041	0
1.43272	0
2.24651	0
3.54895	0
5.45048	0
8.16926	0
10.7794	0
13.3361	0
16.274	0
