Adsorption isotherm of Carbon Dioxide on Cl-Zn-CBTACN
DOI: 10.1021/Jp209895d
Adsorbate Carbon Dioxide: InChIKey CURLTUGMZLYLDI-UHFFFAOYSA-N
Temperature: 274 K
Tabular data in the source: 0
pressure (bar)	uptake (molecules/unitcell)
0.0347826	4.48718
0.104348	17.3077
0.278261	35.2564
0.591304	53.5256
0.93913	66.3462
1.56522	77.8846
2.36522	86.2179
3.72174	93.9103
5.63478	99.0385
8.45217	103.205
11.2348	105.449
14.0174	107.051
16.8348	107.692
