Adsorption isotherm of Carbon Dioxide on Cl-Zn-CBTACN
DOI: 10.1021/Jp209895d
Adsorbate Carbon Dioxide: InChIKey CURLTUGMZLYLDI-UHFFFAOYSA-N
Temperature: 333 K
Tabular data in the source: 0
pressure (bar)	uptake (molecules/unitcell)
0.0980302	3.41257
0.536701	13.6554
0.926358	22.192
2.03947	31.8906
3.05619	41.5858
4.07099	47.3037
4.98886	51.8817
5.85744	54.1853
6.82268	57.0605
8.07763	61.0823
9.04287	63.9575
10.0555	65.1298
11.5027	68.0221
13.2872	70.9264
15.1199	73.8324
