Adsorption isotherm of Carbon Dioxide on Cl-Zn-CBTACN
DOI: 10.1021/Jp209895d
Adsorbate Carbon Dioxide: InChIKey CURLTUGMZLYLDI-UHFFFAOYSA-N
Temperature: 273 K
Tabular data in the source: 0
pressure (bar)	uptake (molecules/unitcell)
0.0467836	18.4276
0.233918	35.1225
0.608187	51.8106
0.935673	64.4689
1.54386	75.9654
2.38596	83.9979
3.74269	92.0119
4.67836	94.2819
5.66082	97.1261
7.15789	97.6481
8.37427	99.3321
9.59064	99.8642
11.1813	100.959
12.4912	100.912
13.8947	101.437
15.6257	101.375
16.7953	101.333
