Adsorption isotherm of Carbon Dioxide on Cl-Zn-CBTACN
DOI: 10.1021/jp209895d
Article source: Figure 5
Adsorbate Carbon Dioxide: InChIKey CURLTUGMZLYLDI-UHFFFAOYSA-N
Kind: experiment
Temperature: 274 K
Tabular data in the source: 0
pressure (bar)	uptake (molecules/unitcell)
0	0
0.083003	17.5701
0.23355	35.514
0.506384	53.0841
0.863615	66.1682
1.50635	78.1308
2.27391	85.9813
3.61121	93.4579
5.56021	98.6916
8.40437	103.551
11.2096	105.794
13.9747	107.29
16.8217	108.037
