Adsorption isotherm of Carbon Dioxide on Cl-Zn-CBTACN
DOI: 10.1021/Jp209895d
Adsorbate Carbon Dioxide: InChIKey CURLTUGMZLYLDI-UHFFFAOYSA-N
Temperature: 303 K
Tabular data in the source: 0
pressure (bar)	uptake (molecules/unitcell)
0.104348	9.9359
0.313043	20.8333
0.66087	31.7308
0.93913	38.7821
1.46087	49.359
1.8087	53.5256
2.29565	58.9744
2.85217	64.1026
3.65217	69.2308
4.55652	73.0769
5.56522	77.5641
6.64348	80.1282
8.31304	83.9744
9.63478	85.5769
10.9913	87.5
12.1043	88.4615
13.3913	89.7436
15.3043	91.0256
16.6609	91.3462
