Adsorption isotherm of Carbon Dioxide on Cl-Zn-CBTACN
DOI: 10.1021/jp209895d
Article source: Figure 7 (Top)
Adsorbate Carbon Dioxide: InChIKey CURLTUGMZLYLDI-UHFFFAOYSA-N
Kind: experiment
Temperature: 303 K
Tabular data in the source: 0
pressure (bar)	uptake (molecules/unitcell)
0.038879	8
0.49134	28.6667
0.998505	42
2.96536	64.6667
4.98592	74.6667
8.01545	82.6667
10.0349	86.6667
15.0269	94
