Adsorption isotherm of Carbon Dioxide on Cl-Zn-CBTACN
DOI: 10.1021/jp209895d
Article source: Figure 6
Adsorbate Carbon Dioxide: InChIKey CURLTUGMZLYLDI-UHFFFAOYSA-N
Kind: experiment
Temperature: 300 K
Tabular data in the source: 0
pressure (bar)	uptake (molecules/unitcell)
0.346362	0
0.669203	0
0.884584	0
1.47976	0
2.23844	0
3.5953	0
5.49752	0
8.2163	0
10.9362	0
13.2755	0
16.5947	0
