Adsorption isotherm of Carbon Dioxide on Cl-Zn-CBTACN
DOI: 10.1021/Jp209895d
Adsorbate Carbon Dioxide: InChIKey CURLTUGMZLYLDI-UHFFFAOYSA-N
Temperature: 303 K
Tabular data in the source: 0
pressure (bar)	uptake (molecules/unitcell)
0.248361	15.3497
0.495901	28.9949
0.984135	42.0804
2.14653	54.0535
3.11533	64.3152
4.13014	70.033
5.04855	75.7475
6.496	79.208
7.50916	81.5167
8.08804	82.6736
9.053	84.9806
10.0177	86.7194
11.4164	89.0418
12.5257	90.7857
13.9726	93.1098
15.0816	94.2856
