Adsorption isotherm of Carbon Dioxide on Cl-Zn-CBTACN
DOI: 10.1021/jp209895d
Article source: Figure 6 (Bottom)
Adsorbate Carbon Dioxide: InChIKey CURLTUGMZLYLDI-UHFFFAOYSA-N
Kind: experiment
Temperature: 333 K
Tabular data in the source: 0
pressure (bar)	uptake (molecules/unitcell)
0.00641	0
0.178873	5.74468
0.409097	10.8511
0.684193	15.9574
0.933715	20.4255
1.47784	27.4468
