Adsorption isotherm of Carbon Dioxide on Cl-Zn-CBTACN
DOI: 10.1021/Jp209895d
Adsorbate Carbon Dioxide: InChIKey CURLTUGMZLYLDI-UHFFFAOYSA-N
Temperature: 300 K
Tabular data in the source: 0
pressure (bar)	uptake (molecules/unitcell)
0.164835	17.7187
0.247253	25.5938
0.576923	46.4643
1.07143	52.3763
2.06044	58.6885
3.04945	63.0321
4.03846	66.5884
5.02747	68.9636
6.01648	70.1577
7.91209	72.1511
10.0549	74.5414
12.3626	76.1465
14.011	76.9555
15.0824	77.757
16.978	78.963
17.8022	79.3675
20.0275	80.5778
22.0879	80.6048
23.7363	81.0202
24.9725	81.0364
26.7857	82.2413
28.5989	83.0525
30	84.252
