Adsorption isotherm of Methane on Cl-Zn2-CBTACN
DOI: 10.1021/Jp209895d
Adsorbate Methane: InChIKey VNWKTOKETHGBQD-UHFFFAOYSA-N
Temperature: 303 K
Tabular data in the source: 0
pressure (bar)	uptake (molecules/unitcell)
1.12617	6.85484
1.83382	8.46774
3.25312	8.87097
4.67243	9.27419
5.9486	10.4839
7.22649	10.4839
8.64637	10.4839
10.0663	10.4839
11.4861	10.4839
12.906	10.4839
14.3259	10.4839
15.7458	10.4839
17.1662	10.0806
18.5861	10.0806
19.8646	9.67742
21.2839	10.0806
22.7032	10.4839
24.1225	10.8871
25.4009	10.4839
26.8208	10.4839
28.2407	10.4839
29.518	10.8871
30.7965	10.4839
32.2164	10.4839
33.6362	10.4839
35.0567	10.0806
36.4766	10.0806
37.897	9.67742
39.3169	9.67742
40.7373	9.27419
42.1566	9.67742
43.434	10.0806
44.8538	10.0806
46.2731	10.4839
47.693	10.4839
48.9703	10.8871
49.6803	10.8871
50.9582	10.8871
52.3781	10.8871
53.7974	11.2903
55.2172	11.2903
56.6371	11.2903
58.0564	11.6935
59.4763	11.6935
60.8962	11.6935
62.3166	11.2903
63.7365	11.2903
65.015	10.8871
66.4354	10.4839
67.8553	10.4839
69.2757	10.0806
