Adsorption isotherm of Carbon Dioxide on Cl-Zn-CBTACN
DOI: 10.1021/jp209895d
Article source: Figure 7 (Top)
Adsorbate Carbon Dioxide: InChIKey CURLTUGMZLYLDI-UHFFFAOYSA-N
Kind: experiment
Temperature: 333 K
Tabular data in the source: 0
pressure (bar)	uptake (molecules/unitcell)
0	0
0.084662	2.66667
0.479068	12.6667
0.984988	21.3333
3.00476	42
5.02154	52
7.98918	61.3333
10.0045	66
14.9855	73.3333
