Adsorption isotherm of Carbon Dioxide on Cl-Zn-CBTACN
DOI: 10.1021/jp209895d
Article source: Figure 5
Adsorbate Carbon Dioxide: InChIKey CURLTUGMZLYLDI-UHFFFAOYSA-N
Kind: experiment
Temperature: 274 K
Tabular data in the source: 0
pressure (bar)	uptake (molecules/unitcell)
0.09399	17.5701
0.252944	35.514
0.534002	52.7103
0.856546	65.7944
1.50467	77.0093
2.27551	84.486
3.65611	91.9626
5.60618	97.5701
8.41053	100.187
11.1337	102.056
13.7759	102.43
16.7433	102.804
