Adsorption isotherm of Carbon Dioxide on Cl-Zn-CBTACN
DOI: 10.1021/Jp209895d
Adsorbate Carbon Dioxide: InChIKey CURLTUGMZLYLDI-UHFFFAOYSA-N
Temperature: 274 K
Tabular data in the source: 0
pressure (bar)	uptake (molecules/unitcell)
0.0347826	7.05128
0.104348	17.6282
0.313043	35.2564
0.556522	53.5256
0.93913	65.7051
1.25217	72.1154
1.53043	76.9231
1.91304	80.4487
2.29565	83.9744
2.9913	88.4615
3.68696	91.9872
4.41739	93.9103
5.6	97.1154
6.81739	98.3974
7.61739	99.359
8.38261	100
9.66957	100.962
11.1304	101.923
12.2435	102.244
13.1478	102.564
13.8435	102.244
15.2348	102.885
15.5826	102.885
15.9304	102.885
16.2783	102.885
16.6261	102.885
16.8348	102.885
