Adsorption isotherm of Methane on Cl-Zn-CBTACN
DOI: 10.1021/jp209895d
Article source: Figure 8
Adsorbate Methane: InChIKey VNWKTOKETHGBQD-UHFFFAOYSA-N
Kind: experiment
Temperature: 303 K
Tabular data in the source: 0
pressure (bar)	uptake (molecules/unitcell)
1.19364	5.71429
2.02341	7.61905
6.00914	10
10.162	10
16.142	10
20.1289	9.52381
24.1153	10.4762
30.0953	10.4762
40.0627	9.04762
50.0289	10.4762
59.9953	11.4286
69.9626	10
