Adsorption isotherm of Carbon Dioxide on Cl-Zn-CBTACN
DOI: 10.1021/jp209895d
Article source: Figure 8
Adsorbate Carbon Dioxide: InChIKey CURLTUGMZLYLDI-UHFFFAOYSA-N
Kind: experiment
Temperature: 303 K
Tabular data in the source: 0
pressure (bar)	uptake (molecules/unitcell)
0	0
0	4.28571
0.166667	8.09524
1	25.2381
1.83333	36.1905
5.83333	54.7619
10	63.3333
15.8333	71.9048
19.8333	75.7143
24	78.0952
30	81.9048
40	87.1429
50	88.5714
60	90.4762
70.1667	94.7619
