Adsorption isotherm of Carbon Dioxide on Cl-Zn-CBTACN
DOI: 10.1021/jp209895d
Article source: Figure 7 (Bottom)
Adsorbate Carbon Dioxide: InChIKey CURLTUGMZLYLDI-UHFFFAOYSA-N
Kind: experiment
Temperature: 273 K
Tabular data in the source: 0
pressure (bar)	uptake (molecules/unitcell)
0.006579	1.46727
0.046053	10.8562
0.098684	19.6675
0.5	50.9268
1	65.8537
