Adsorption isotherm of Carbon Dioxide on Cl-Zn-CBTACN
DOI: 10.1021/Jp209895d
Adsorbate Carbon Dioxide: InChIKey CURLTUGMZLYLDI-UHFFFAOYSA-N
Temperature: 300 K
Tabular data in the source: 0
pressure (bar)	uptake (molecules/unitcell)
0.0824176	33.4656
0.32967	42.524
0.576923	53.1572
0.989011	61.0366
2.06044	67.3499
3.04945	71.6936
4.12088	74.4635
5.10989	76.8387
6.0989	78.8202
8.07692	81.2084
10.0549	83.2028
11.7857	84.4066
13.7637	86.4011
15	87.5984
17.1429	88.4139
18.544	89.2197
19.9451	90.0255
22.4176	90.8454
25.0549	91.2737
26.7857	91.6901
28.6813	92.5024
29.9176	92.9123
