Adsorption isotherm of Carbon Dioxide on Cl-Zn-CBTACN
DOI: 10.1021/Jp209895d
Adsorbate Carbon Dioxide: InChIKey CURLTUGMZLYLDI-UHFFFAOYSA-N
Temperature: 303 K
Tabular data in the source: 0
pressure (bar)	uptake (molecules/unitcell)
0.681199	24.8438
0.953678	35.625
2.99728	54.375
5.04087	63.2812
8.03815	71.25
10.0817	75
12.1253	78.2812
14.9864	80.625
19.891	87.6562
24.9319	87.6562
29.9728	90.4688
34.8774	93.75
39.9183	96.0938
44.9591	97.0312
50	99.375
