Adsorption isotherm of Carbon Dioxide on Cl-Zn-CBTACN
DOI: 10.1021/Jp209895d
Adsorbate Carbon Dioxide: InChIKey CURLTUGMZLYLDI-UHFFFAOYSA-N
Temperature: 300 K
Tabular data in the source: 0
pressure (bar)	uptake (molecules/unitcell)
0.374269	20.1436
0.51462	26.4736
0.748538	32.2244
0.982456	39.1269
1.54386	48.8973
2.2924	58.6609
2.8538	62.6721
3.64912	69.5545
4.53801	72.978
5.52047	76.9741
7.01754	79.2238
8.2807	83.2098
9.77778	84.8837
11.0409	86.5659
12.0234	87.6824
13.3801	88.7854
14.3626	89.326
15.345	89.8665
16.7018	90.9695
