Adsorption isotherm of Carbon Dioxide on Cl-Zn-CBTACN
DOI: 10.1021/Jp209895d
Adsorbate Carbon Dioxide: InChIKey CURLTUGMZLYLDI-UHFFFAOYSA-N
Temperature: 333 K
Tabular data in the source: 0
pressure (bar)	uptake (molecules/unitcell)
0.208696	5.44872
0.417391	10.8974
0.695652	16.3462
0.904348	20.8333
1.49565	28.2051
2.26087	35.8974
2.85217	40.3846
3.51304	46.1538
4.27826	49.6795
5.53043	55.1282
6.67826	58.6538
8.24348	62.8205
9.46087	65.7051
10.8174	68.5897
13.3217	72.4359
16.3478	74.6795
