Adsorption isotherm of Carbon Dioxide on Cl-Zn2-CBTACN
DOI: 10.1021/Jp209895d
Adsorbate Carbon Dioxide: InChIKey CURLTUGMZLYLDI-UHFFFAOYSA-N
Temperature: 303 K
Tabular data in the source: 0
pressure (bar)	uptake (molecules/unitcell)
0.273098	7.66129
0.958418	25
1.93687	35.8871
2.64338	38.3065
3.34874	41.5323
4.05352	45.1613
4.9003	48.7903
5.8862	54.4355
6.73583	56.0484
7.8683	58.4677
9.00077	60.8871
10.9834	64.5161
12.259	66.129
13.5341	68.1452
14.8097	69.7581
16.0853	71.371
20.0558	75
24.0269	78.2258
29.9858	81.4516
33.2492	83.0645
34.6685	83.4677
39.9169	87.0968
41.0528	87.0968
42.4727	87.0968
44.034	87.5
45.4539	87.5
46.8732	87.9032
48.293	87.9032
50.8482	88.3065
52.2681	88.3065
55.8167	89.1129
57.2366	89.1129
58.6564	89.1129
60.7851	89.9194
62.2038	90.7258
63.6226	91.5323
65.0419	91.9355
66.0352	92.3387
67.4545	92.7419
68.7313	93.5484
69.7246	93.9516
