Adsorption isotherm of Methane on Br-Zn-CBTACN
DOI: 10.1021/Jp209895d
Adsorbate Methane: InChIKey VNWKTOKETHGBQD-UHFFFAOYSA-N
Temperature: 303 K
Tabular data in the source: 0
pressure (bar)	uptake (molecules/unitcell)
0.544959	4.21875
1.63488	7.96875
2.86104	8.4375
5.17711	8.90625
8.03815	9.375
9.9455	8.90625
11.9891	8.90625
14.9864	8.90625
19.891	7.96875
25.0681	7.5
29.9728	9.375
35.0136	7.96875
39.9183	7.96875
44.6866	9.375
50	8.4375
