Adsorption isotherm of Carbon Dioxide on Br-Zn-CBTACN
DOI: 10.1021/Jp209895d
Adsorbate Carbon Dioxide: InChIKey CURLTUGMZLYLDI-UHFFFAOYSA-N
Temperature: 303 K
Tabular data in the source: 0
pressure (bar)	uptake (molecules/unitcell)
0.681199	22.0312
1.08992	32.3438
2.99728	48.75
5.17711	56.7188
8.03815	63.2812
9.9455	67.5
11.9891	68.9062
14.9864	72.6562
20.0272	78.2812
24.9319	80.625
30.109	81.5625
35.0136	83.9062
40.0545	87.1875
44.9591	86.7188
50	89.0625
