Adsorption isotherm of Carbon Dioxide on Cl-Zn-CBTACN
DOI: 10.1021/jp209895d
Article source: Figure 7 (Top)
Adsorbate Carbon Dioxide: InChIKey CURLTUGMZLYLDI-UHFFFAOYSA-N
Kind: experiment
Temperature: 273 K
Tabular data in the source: 0
pressure (bar)	uptake (molecules/unitcell)
0.039611	0
0.041097	0
0.495389	0
1.00279	0
2.96912	0
4.98942	0
8.01882	0
10.0381	0
15.0299	0
