Adsorption isotherm of Carbon Dioxide on Cl-Zn-CBTACN
DOI: 10.1021/Jp209895d
Adsorbate Carbon Dioxide: InChIKey CURLTUGMZLYLDI-UHFFFAOYSA-N
Temperature: 333 K
Tabular data in the source: 0
pressure (bar)	uptake (molecules/unitcell)
0.0935673	8.63538
0.140351	15.5447
0.561404	34.5348
1.07602	43.7309
2.0117	52.336
3.04094	57.4822
4.02339	59.7505
5.00585	62.0188
6.08187	64.2837
7.06433	64.8243
8.04678	67.0926
9.02924	68.209
10.0585	68.7479
12.0234	70.4049
15.0643	73.175
16.4211	74.278
