Adsorption isotherm of Carbon Dioxide on F-Zn-CBTACN
DOI: 10.1021/Jp209895d
Adsorbate Carbon Dioxide: InChIKey CURLTUGMZLYLDI-UHFFFAOYSA-N
Temperature: 303 K
Tabular data in the source: 0
pressure (bar)	uptake (molecules/unitcell)
0.544959	30.9375
0.953678	43.125
2.86104	65.625
5.04087	75
8.03815	83.4375
10.0817	86.7188
11.9891	89.5312
14.9864	95.1562
20.0272	100.312
25.0681	103.125
29.9728	106.406
35.0136	108.281
40.0545	113.438
42.2343	112.969
43.5967	112.969
44.9591	112.969
50	112.969
