Adsorption isotherm of Carbon Dioxide on Cl-Zn-CBTACN
DOI: 10.1021/Jp209895d
Adsorbate Carbon Dioxide: InChIKey CURLTUGMZLYLDI-UHFFFAOYSA-N
Temperature: 273 K
Tabular data in the source: 0
pressure (bar)	uptake (molecules/unitcell)
0.0467836	21.8831
0.0935673	42.0385
0.140351	51.8274
0.51462	68.5155
0.982456	74.2578
2.0117	81.1318
3.04094	83.9743
4.02339	85.0908
4.95906	88.5126
6.03509	90.7775
7.01754	91.3181
8	93.5864
9.02924	92.9734
10.0117	92.9381
10.9006	92.9061
12.0702	93.4399
13.6608	94.5345
15.0175	96.2134
15.9064	96.1814
17.0292	96.141
