Adsorption isotherm of Carbon Dioxide on Cl-Zn-CBTACN
DOI: 10.1021/jp209895d
Article source: Figure 5
Adsorbate Carbon Dioxide: InChIKey CURLTUGMZLYLDI-UHFFFAOYSA-N
Kind: experiment
Temperature: 303 K
Tabular data in the source: 0
pressure (bar)	uptake (molecules/unitcell)
0.136176	0
0.337208	0
0.660191	0
0.943289	0
1.46967	0
2.24004	0
3.62	0
5.4883	0
8.29178	0
10.974	0
13.3312	0
16.6642	0
