Adsorption isotherm of Carbon Dioxide on Cl-Zn-CBTACN
DOI: 10.1021/Jp209895d
Adsorbate Carbon Dioxide: InChIKey CURLTUGMZLYLDI-UHFFFAOYSA-N
Temperature: 273 K
Tabular data in the source: 0
pressure (bar)	uptake (molecules/unitcell)
0.106519	21.0265
0.257671	34.6682
0.554226	50.0197
0.994814	64.2399
2.01181	74.5033
3.077	84.7684
4.13972	89.9197
5.00885	93.3597
6.31199	97.3832
8.04833	100.286
8.67567	102.013
10.1228	104.905
11.7138	106.098
13.5944	108.437
15.089	109.627
