Adsorption isotherm of Methane on Cl-Zn-CBTACN
DOI: 10.1021/Jp209895d
Adsorbate Methane: InChIKey VNWKTOKETHGBQD-UHFFFAOYSA-N
Temperature: 303 K
Tabular data in the source: 0
pressure (bar)	uptake (molecules/unitcell)
1.08992	8.4375
2.99728	10.3125
5.04087	10.3125
8.03815	10.3125
9.9455	9.375
11.8529	10.3125
14.9864	10.3125
20.0272	9.84375
24.9319	10.7812
29.9728	11.7188
34.8774	10.3125
39.9183	9.375
44.9591	9.375
49.8638	9.375
