Adsorption isotherm of Carbon Dioxide on Cl-Zn-CBTACN
DOI: 10.1021/jp209895d
Article source: Figure 5
Adsorbate Carbon Dioxide: InChIKey CURLTUGMZLYLDI-UHFFFAOYSA-N
Kind: experiment
Temperature: 333 K
Tabular data in the source: 0
pressure (bar)	uptake (molecules/unitcell)
0.175321	5.60748
0.377824	10.8411
0.661619	16.4486
0.90499	20.5607
1.47321	28.0374
2.24476	35.8879
3.58543	45.9813
5.49571	55.3271
8.26054	62.8037
10.8222	68.785
13.3844	72.1495
16.3534	74.7664
