Adsorption isotherm of Methane on F-Zn-CBTACN
DOI: 10.1021/Jp209895d
Adsorbate Methane: InChIKey VNWKTOKETHGBQD-UHFFFAOYSA-N
Temperature: 303 K
Tabular data in the source: 0
pressure (bar)	uptake (molecules/unitcell)
0.27248	3.28125
0.544959	8.4375
1.08992	11.7188
3.13351	12.6562
5.04087	12.6562
8.03815	12.1875
9.9455	12.6562
11.9891	12.6562
14.9864	11.7188
20.0272	10.7812
24.9319	10.7812
29.9728	10.3125
35.0136	10.3125
39.9183	7.96875
44.9591	9.375
50	10.7812
