Adsorption isotherm of Carbon Dioxide on Cl-Zn-CBTACN
DOI: 10.1021/Jp209895d
Adsorbate Carbon Dioxide: InChIKey CURLTUGMZLYLDI-UHFFFAOYSA-N
Temperature: 300 K
Tabular data in the source: 0
pressure (bar)	uptake (molecules/unitcell)
0.0935673	23.6092
0.187135	32.8205
0.51462	52.3899
0.982456	61.0118
2.0117	67.8857
3.04094	71.8801
4.02339	73.5725
5.05263	75.8391
6.03509	78.1074
6.97076	79.2255
8.04678	79.7627
8.98246	82.6086
10.0585	82.5699
10.9942	83.1121
12.0702	84.2252
13.614	85.8974
15.0643	86.4211
15.9532	86.965
16.9357	87.5056
