Adsorption isotherm of Carbon Dioxide on UiO-66
DOI: 10.1504/ijnt.2015.067898
Article source: Figure 4
Adsorbate Carbon Dioxide: InChIKey CURLTUGMZLYLDI-UHFFFAOYSA-N
Kind: experiment
Temperature: 293 K
Tabular data in the source: 0
pressure (bar)	uptake (cm3(STP)/g)
1.1528	29.793
2.6708	52.5
4.0396	67.27
4.0512	67.348
5.0295	89.103
5.0408	89.283
6.2407	87.096
6.2411	87.106
7.476	95.686
7.4792	95.713
9.0195	116.157
9.0225	116.187
10.0184	121.24
10.0211	121.243
11.0851	116.168
11.0875	116.17
12.1822	121.296
12.1839	121.308
13.591	135.986
13.594	135.998
15.0623	140.819
15.0705	140.874
16.444	144.836
16.4498	144.884
18.2606	142.362
18.2721	142.309
20.0495	153.558
20.0497	153.558
21.689	150.38
21.6957	150.384
23.5817	154.12
23.5818	154.12
25.0928	162.412
25.0955	162.416
26.5692	159.326
26.5705	159.327
28.4233	162.13
28.4305	162.133
30.0414	164.395
30.0452	164.395
31.9577	167.185
31.9604	167.183
33.7125	170.145
33.7173	170.157
35.052	171.199
35.0589	171.204
