Adsorption isotherm of Hydrogen on UiO-66
DOI: 10.1504/ijnt.2015.067898
Article source: Figure 4
Adsorbate Hydrogen: InChIKey UFHFLCQGNIYNRP-UHFFFAOYSA-N
Kind: experiment
Temperature: 293 K
Tabular data in the source: 0
pressure (bar)	uptake (cm3(STP)/g)
0.0284	0.062
2.6748	0.668
2.6749	0.668
4.0577	2.726
4.0612	2.738
5.0489	1.962
5.059	1.952
6.2438	3.838
6.2524	3.836
7.4797	3.12
7.4798	4.645
9.0304	4.246
9.0544	4.262
10.0148	5.978
10.0251	5.989
11.0843	5.611
11.0878	6.835
12.1814	7.543
12.1845	7.545
13.5948	7.196
13.598	8.636
15.0558	9.048
15.0581	9.045
16.4314	9.884
16.4488	9.895
18.2505	10.144
18.2506	11.177
20.0401	11.453
20.0456	11.457
21.6784	13.529
21.6891	12.342
23.5844	13.829
23.5924	13.841
25.0933	15.462
25.0967	15.465
26.5783	16.718
26.5804	16.72
28.4108	17.485
28.4176	17.488
30.0422	18.496
30.049	18.499
