Adsorption isotherm of Methane on UiO-66
DOI: 10.1504/ijnt.2015.067898
Article source: Figure 4
Adsorbate Methane: InChIKey VNWKTOKETHGBQD-UHFFFAOYSA-N
Kind: experiment
Temperature: 293 K
Tabular data in the source: 0
pressure (bar)	uptake (cm3(STP)/g)
0.0429	0.206
1.1604	6.262
2.6725	12.2
4.0451	16.594
5.0489	19.29
6.2414	22.09
7.4741	24.518
9.0225	27.808
10.0061	29.563
11.0843	31.382
12.1841	33.072
13.5787	34.999
15.0607	36.652
16.4374	38.19
18.256	40.142
20.0387	41.939
21.6837	43.558
23.5689	45.145
25.0831	46.335
26.5522	47.457
28.4074	48.7
30.0224	49.599
