Adsorption isotherm of Nitrogen on DhaTab-PBA-5 cycles
DOI: 10.1021/acsami.9b17324
Article source: Figure S18
Adsorbate Nitrogen: InChIKey IJGRMHOSHXDMSA-UHFFFAOYSA-N
Kind: experiment
Temperature: 77 K
Tabular data in the source: 0
pressure (bar)	uptake ()
0.009409	17.1673
0.049512	26.0979
0.101955	35.0285
0.152855	43.9591
0.203756	52.8897
0.253114	58.8434
0.305556	61.8203
0.356457	66.2856
0.405815	72.2394
0.45363	73.7278
0.507615	82.6584
0.555431	82.6584
0.609416	88.6122
0.632552	90.1006
0.658774	91.589
0.683453	91.589
0.709674	97.5428
0.735895	100.52
0.762117	102.008
0.785253	104.985
0.813017	109.45
0.836153	109.45
0.860832	115.404
0.887054	118.381
0.913275	124.335
0.936412	131.777
0.965718	143.684
0.990397	171.965
1.00428	294.016
1.01199	384.811
1.00891	366.95
0.988854	283.597
0.965718	247.875
0.937954	213.641
0.911733	186.849
0.887054	168.988
0.867002	154.103
0.837696	143.684
0.806847	136.242
0.786796	130.288
0.757489	125.823
0.737438	124.335
0.709674	119.125
0.686537	115.404
0.657231	110.939
0.635637	109.45
0.606331	106.473
0.558515	103.497
0.509158	96.0543
0.45363	91.589
0.404272	84.1469
0.356457	79.6815
0.304014	75.2162
0.251571	72.2394
0.203756	67.7741
0.152855	57.355
0.100413	49.9128
0.051055	38.0054
