Adsorption isotherm of Nitrogen on DhaTab-PBA
DOI: 10.1021/acsami.9b17324
Article source: Figure 2
Adsorbate Nitrogen: InChIKey IJGRMHOSHXDMSA-UHFFFAOYSA-N
Kind: experiment
Temperature: 77 K
Tabular data in the source: 0
pressure (bar)	uptake (cm3(STP)/g)
0.001398	55.9306
0.001398	71.3597
0.001398	84.8602
0.006988	100.289
0.004892	93.5391
0.023759	117.647
0.04612	138.862
0.100626	171.649
0.148144	206.365
0.198457	239.151
0.250168	248.795
0.303276	258.438
0.352192	268.081
0.4053	273.867
0.452818	285.439
0.507324	291.225
0.554842	300.868
0.606552	306.654
0.658263	312.44
0.709974	320.154
0.73513	324.012
0.757492	327.869
0.785443	333.655
0.8106	335.583
0.830865	341.369
0.835757	343.298
0.85113	347.155
0.85672	349.084
0.860913	351.013
0.872094	354.87
0.883274	354.87
0.89725	358.727
0.909829	362.584
0.918214	364.513
0.933588	374.156
0.939178	374.156
0.960142	389.585
0.961539	393.443
0.979708	416.586
0.988093	437.801
1.00207	572.806
1.00569	644.909
1.00626	653.809
1.00347	640.309
0.989491	578.592
0.982503	555.448
0.961539	505.304
0.957347	497.589
0.939178	463.838
0.934985	455.159
0.916817	433.944
0.911226	432.015
0.894455	412.729
0.885371	409.836
0.872094	401.157
0.860913	395.371
0.852528	393.443
0.835757	387.657
0.827371	385.728
0.8106	379.942
0.785443	374.156
0.760287	370.299
0.73513	360.656
0.709974	356.798
0.659661	351.013
0.603757	343.298
0.556239	333.655
0.505926	327.869
0.452818	310.511
0.403902	302.797
0.354987	297.011
0.301879	287.367
0.254361	281.581
0.201252	270.01
0.150241	239.151
0.099229	202.507
0.048916	169.72
