Adsorption isotherm of Nitrogen on DhaTab-V
DOI: 10.1021/acsami.9b17324
Article source: Figure 2
Adsorbate Nitrogen: InChIKey IJGRMHOSHXDMSA-UHFFFAOYSA-N
Kind: experiment
Temperature: 77 K
Tabular data in the source: 0
pressure (bar)	uptake ()
0	52.0733
0	69.4311
0	88.7175
0.002795	127.29
0.004193	138.862
0.00559	152.363
0.006988	168.756
0.022361	204.436
0.050313	241.08
0.099229	298.939
0.152337	356.798
0.20265	426.23
0.251566	435.873
0.301879	445.516
0.352891	453.23
0.403902	459.016
0.454216	468.66
0.504529	472.517
0.556239	480.231
0.60795	487.946
0.658263	491.803
0.708576	497.589
0.73513	503.375
0.757492	503.375
0.785443	509.161
0.807805	513.018
0.834359	516.876
0.848335	522.661
0.860913	522.661
0.872094	524.59
0.884672	530.376
0.894455	534.233
0.911226	536.162
0.916817	540.019
0.940576	551.591
0.962937	570.878
0.986696	599.807
0.988093	617.165
1.00207	783.028
1.0038	861.619
1.00766	887.175
1.00347	864.031
0.988093	794.6
0.983901	777.242
0.961539	709.74
0.93778	648.023
0.921009	615.236
0.911226	601.736
0.89725	586.307
0.887467	582.449
0.879082	574.735
0.873491	574.735
0.860913	570.878
0.85113	565.092
0.835757	561.234
0.827371	559.306
0.809202	549.662
0.782648	549.662
0.760287	538.091
0.732335	536.162
0.709974	532.305
0.659661	524.59
0.606552	518.804
0.556239	514.947
0.504529	505.304
0.455613	486.017
0.404601	480.231
0.352192	474.446
0.301879	466.731
0.251566	455.159
0.199855	443.587
0.148144	370.299
0.097831	312.44
0.04612	254.581
