Adsorption isotherm of Nitrogen on Bio-MOF-14
DOI: 10.1021/Ja403008j
Adsorbate Nitrogen: InChIKey IJGRMHOSHXDMSA-UHFFFAOYSA-N
Temperature: 77 K
Tabular data in the source: 0
pressure (bar)	uptake (cm3(STP)/g)
0.00280166	0.566429
0.0197031	4.79178
0.0689988	6.20023
0.149281	7.32699
0.202802	7.89037
0.295759	8.17206
0.399985	8.45375
0.498576	10.1439
0.546464	10.4256
0.599985	10.7073
0.698576	12.3974
0.749281	12.6791
0.802802	12.9608
0.850689	14.6509
0.898576	15.7777
0.947872	18.5946
0.987309	29.5805
