Adsorption isotherm of Carbon Dioxide on Bio-MOF-14
DOI: 10.1021/Ja403008j
Adsorbate Carbon Dioxide: InChIKey CURLTUGMZLYLDI-UHFFFAOYSA-N
Temperature: 77 K
Tabular data in the source: 0
pressure (bar)	uptake (cm3(STP)/g)
0.00702701	0.000915
0.0154777	4.47979
0.0267453	7.015
0.0464636	12.1699
0.108435	21.8037
0.157731	27.8037
0.25914	37.015
0.305619	40.3953
0.411252	44.8742
0.564773	49.522
0.711252	53.5784
0.866182	56.4516
0.915478	57.3812
1.00984	59.2404
