Adsorption isotherm of Nitrogen on Bio-MOF-14
DOI: 10.1021/Ja403008j
Adsorbate Nitrogen: InChIKey IJGRMHOSHXDMSA-UHFFFAOYSA-N
Temperature: 77 K
Tabular data in the source: 0
pressure (bar)	uptake (cm3(STP)/g)
0.00280166	137.75
0.00421011	96.9045
0.00421011	146.764
0.00561856	163.947
0.0267453	172.961
0.0689988	178.595
0.0957594	181.693
0.252097	187.89
0.445055	192.397
0.543647	193.524
0.645055	195.778
0.747872	197.186
0.849281	199.158
0.997168	207.609
