Adsorption isotherm of Carbon Dioxide on Bio-MOF-14
DOI: 10.1021/Ja403008j
Adsorbate Carbon Dioxide: InChIKey CURLTUGMZLYLDI-UHFFFAOYSA-N
Temperature: 77 K
Tabular data in the source: 0
pressure (bar)	uptake (cm3(STP)/g)
0.156323	26.8742
0.208435	32.7896
0.25914	37.184
0.302802	40.1418
0.361957	42.846
0.505619	47.7474
0.615478	50.5361
0.661957	51.6347
0.75914	54.0854
0.819703	55.015
0.912661	56.4516
0.963365	57.3812
1.01407	58.2263
