Adsorption isotherm of Nitrogen on Bio-MOF-14
DOI: 10.1021/Ja403008j
Adsorbate Nitrogen: InChIKey IJGRMHOSHXDMSA-UHFFFAOYSA-N
Temperature: 77 K
Tabular data in the source: 0
pressure (bar)	uptake (cm3(STP)/g)
1.52e-05	8.45375
0.0239284	12.9608
0.0661819	15.7777
0.153506	18.8763
0.291534	23.1016
0.40421	26.7636
0.501393	29.8622
0.599985	33.2425
0.745055	38.3129
0.852097	41.6932
0.943647	47.0453
0.994351	54.0876
