Adsorption isotherm of Nitrogen on Bio-MOF-14
DOI: 10.1021/Ja403008j
Adsorbate Nitrogen: InChIKey IJGRMHOSHXDMSA-UHFFFAOYSA-N
Temperature: 273 K
Tabular data in the source: 0
pressure (bar)	uptake (cm3(STP)/g)
0.00561856	0.339858
0.00561856	8.11451
0.0267453	12.0018
0.0746326	14.7061
0.101393	16.2272
0.153506	18.0863
0.250689	21.8046
0.352097	24.8469
0.499985	29.9173
0.60421	33.2976
0.701393	37.1849
0.849281	41.5793
0.899985	43.6075
0.949281	46.3117
0.995759	53.9173
