Adsorption isotherm of Carbon Dioxide on Bio-MOF-14
DOI: 10.1021/Ja403008j
Adsorbate Carbon Dioxide: InChIKey CURLTUGMZLYLDI-UHFFFAOYSA-N
Temperature: 273 K
Tabular data in the source: 0
pressure (bar)	uptake (cm3(STP)/g)
0.00229475	4.523
0.0194565	8.67041
0.045199	13.5329
0.0981143	21.1127
0.15389	27.9773
0.203945	33.1259
0.25543	37.5593
0.299764	40.5626
0.405595	44.996
0.508565	48.4284
0.602955	51.0026
0.705925	52.8618
0.810326	55.1501
0.914726	56.7232
1.00769	58.7254
