Adsorption isotherm of Nitrogen on Bio-MOF-14
DOI: 10.1021/Ja403008j
Adsorbate Nitrogen: InChIKey IJGRMHOSHXDMSA-UHFFFAOYSA-N
Temperature: 273 K
Tabular data in the source: 0
pressure (bar)	uptake (cm3(STP)/g)
0.00421011	7.10042
0.00421011	19.6075
0.00561856	29.9173
0.0140693	38.03
0.0380129	41.2413
0.10421	46.3117
0.202802	51.0441
0.30421	55.7765
0.402802	60.1708
0.499985	64.7342
0.601393	69.1286
0.699985	73.0159
0.799985	77.9173
0.852097	80.6216
0.901393	83.1568
0.954914	87.8892
0.992943	108.002
