Adsorption isotherm of Carbon Dioxide on Bio-MOF-14
DOI: 10.1021/Ja403008j
Adsorbate Carbon Dioxide: InChIKey CURLTUGMZLYLDI-UHFFFAOYSA-N
Temperature: 273 K
Tabular data in the source: 0
pressure (bar)	uptake (cm3(STP)/g)
0.00372489	1.66271
0.035188	5.09506
0.102405	9.67152
0.15103	13.5329
0.202515	21.2557
0.254	29.9795
0.302625	32.2678
0.35268	34.27
0.45851	36.8442
0.55862	38.5604
0.661591	40.5626
0.761701	41.8497
0.811756	42.4218
0.863241	42.9938
0.964781	44.138
1.00482	44.71
