Adsorption isotherm of Carbon Dioxide on Bio-MOF-14
DOI: 10.1021/Ja403008j
Adsorbate Carbon Dioxide: InChIKey CURLTUGMZLYLDI-UHFFFAOYSA-N
Temperature: 273 K
Tabular data in the source: 0
pressure (bar)	uptake (cm3(STP)/g)
0.00658518	9.24247
0.0208866	15.9641
0.0337579	21.3987
0.0423388	24.974
0.0595005	31.2667
0.0809526	37.2733
0.102405	41.5637
0.15675	50.1446
0.205375	56.2942
0.25543	61.4427
0.34982	68.4504
0.45565	74.028
0.55719	78.6044
0.660161	82.4658
0.761701	85.7551
0.861811	88.4724
1.00626	92.3338
