Adsorption isotherm of Nitrogen on HPW(20)C9H3FeO6
DOI: 10.1039/C2dt31329d
Adsorbate Nitrogen: InChIKey IJGRMHOSHXDMSA-UHFFFAOYSA-N
Temperature: 77 K
Tabular data in the source: 0
pressure (bar)	uptake (cm3(STP)/g)
0.000358197	59.8086
0.000525753	63.3971
0.000742646	65.7895
0.000934936	69.378
0.00160001	75.3589
0.00284526	80.1435
0.00486913	86.1244
0.00661884	88.5167
0.00833262	90.9091
0.0193844	99.2823
0.0344708	105.263
0.0486913	113.636
0.0546326	116.029
0.0833262	122.01
0.104902	125.598
0.137231	126.794
0.201427	129.187
0.244035	130.383
0.319241	135.167
0.433962	137.56
0.589909	141.148
0.714692	147.129
0.833269	153.11
0.934943	159.091
0.97152	173.445
