Adsorption isotherm of Nitrogen on HPW(80)C9H3FeO6
DOI: 10.1039/C2dt31329d
Adsorbate Nitrogen: InChIKey IJGRMHOSHXDMSA-UHFFFAOYSA-N
Temperature: 77 K
Tabular data in the source: 0
pressure (bar)	uptake (cm3(STP)/g)
0.000372205	4.78469
0.000546326	5.98086
0.000742646	5.98086
0.00089975	7.17703
0.00179524	7.17703
0.00273811	7.17703
0.00450943	7.17703
0.00661884	9.56938
0.00833262	8.37321
0.0166258	8.37321
0.0284526	9.56938
0.0486913	10.7656
0.0661884	13.1579
0.0771706	10.7656
0.113271	10.7656
0.16	11.9617
0.273812	13.1579
0.401901	14.3541
0.661888	15.5502
0.865868	17.9426
0.97152	27.512
