Adsorption isotherm of Nitrogen on HPW(50)C9H3FeO6
DOI: 10.1039/C2dt31329d
Adsorbate Nitrogen: InChIKey IJGRMHOSHXDMSA-UHFFFAOYSA-N
Temperature: 77 K
Tabular data in the source: 0
pressure (bar)	uptake (cm3(STP)/g)
0.000372205	29.9043
0.000546326	33.4928
0.000714697	33.4928
0.00097152	34.689
0.00284526	40.6699
0.00468578	43.0622
0.00661884	45.4545
0.0089975	46.6507
0.0226007	51.4354
0.0401903	55.0239
0.0525753	57.4163
0.0742646	61.0048
0.100953	62.201
0.148178	63.3971
0.226005	65.7895
0.307222	66.9856
0.45094	69.378
0.661888	71.7703
0.801897	76.555
0.934943	81.3397
0.97152	93.3014
