Adsorption isotherm of Nitrogen on C9H3FeO6
DOI: 10.1039/C2dt31329d
Adsorbate Nitrogen: InChIKey IJGRMHOSHXDMSA-UHFFFAOYSA-N
Temperature: 77 K
Tabular data in the source: 0
pressure (bar)	uptake (cm3(STP)/g)
0.000368697	72.9665
0.000584346	80.1435
0.000735648	83.7321
0.000926126	88.5167
0.00171132	95.6938
0.00292867	104.067
0.00501187	110.048
0.00707946	114.833
0.00857689	118.421
0.0135935	123.206
0.0207334	126.794
0.0271225	132.775
0.0368697	136.364
0.0482314	145.933
0.0630957	151.914
0.0891251	156.699
0.107977	162.679
0.158489	165.072
0.215443	168.66
0.304322	174.641
0.398107	177.033
0.464159	180.622
0.562341	183.014
0.735643	190.191
0.825404	194.976
0.926119	208.134
0.962351	224.88
