Adsorption isotherm of Nitrogen on C9H3FeO6/EtOH
DOI: 10.1039/C2dt31329d
Adsorbate Nitrogen: InChIKey IJGRMHOSHXDMSA-UHFFFAOYSA-N
Temperature: 77 K
Tabular data in the source: 0
pressure (bar)	uptake (cm3(STP)/g)
0.000372205	93.3014
0.000567704	98.0861
0.000714697	102.871
0.000934936	106.459
0.00166258	116.029
0.00273811	124.402
0.00468578	132.775
0.00687783	137.56
0.00833262	141.148
0.0148177	149.522
0.0234845	156.699
0.0401903	171.053
0.0525753	178.23
0.0636974	183.014
0.0833262	187.799
0.109006	192.584
0.153976	198.565
0.209307	202.153
0.244035	203.349
0.295655	206.938
0.344708	210.526
0.468581	214.115
0.589909	218.9
0.714692	223.684
0.801897	229.665
0.899743	236.842
0.934943	242.823
1.00953	269.139
