Adsorption isotherm of Acetylene on [Cu3(TDPAH)(H2O)3] 13H2O 8DMA
DOI: 10.1039/C4cc00375f
Adsorbate Acetylene: InChIKey HSFWRNGVRCDJHI-UHFFFAOYSA-N
Temperature: 298 K
Tabular data in the source: 0
pressure (bar)	uptake (cm3(STP)/g)
0.156957	74.1506
0.227513	86.6147
0.294886	95.9235
0.362136	104.781
0.429013	112.283
0.495642	118.882
0.564335	124.571
0.632905	129.809
0.696724	134.608
0.767234	138.484
0.823865	142.399
0.894375	146.275
1.01383	151.375
