Adsorption isotherm of Ethane on [Cu3(TDPAH)(H2O)3] 13H2O 8DMA
DOI: 10.1039/C4cc00375f
Adsorbate Ethane: InChIKey OTMSDBZUPAUEDD-UHFFFAOYSA-N
Temperature: 298 K
Tabular data in the source: 0
pressure (bar)	uptake (cm3(STP)/g)
0.0148717	3.57549
0.024869	6.26024
0.0470524	11.1718
0.0912952	20.5434
0.113355	25.0033
0.140288	30.354
0.1716	34.7889
0.198161	38.7846
0.226912	42.3225
0.253597	46.7699
0.279786	49.4107
0.342037	56.9255
0.415605	63.5057
0.484547	70.0984
0.550803	75.3425
0.616935	80.1349
0.683067	84.9273
0.751513	89.7134
0.817272	93.1509
0.881091	97.9496
0.956104	101.362
1.01711	104.36
1.03343	104.768
