Adsorption isotherm of Carbon Dioxide on [Cu3(TDPAH)(H2O)3] 13H2O 8DMA
DOI: 10.1039/C4cc00375f
Adsorbate Carbon Dioxide: InChIKey CURLTUGMZLYLDI-UHFFFAOYSA-N
Temperature: 298 K
Tabular data in the source: 0
pressure (bar)	uptake (cm3(STP)/g)
0.0122205	2.96713
0.0223904	4.6133
0.0325769	7.25119
0.0468147	9.55583
0.0549561	11.2033
0.0712278	13.8372
0.0854655	16.1418
0.0976861	19.109
0.109895	21.4149
0.120071	23.3917
0.136326	25.0338
0.152592	27.3371
0.164796	29.3125
0.170903	30.6308
0.189203	33.2633
0.209543	36.5557
0.233945	40.1759
0.266471	44.4519
0.305089	49.0545
0.357933	55.3005
0.406703	60.5576
0.455485	66.4757
0.502227	71.7341
0.553009	75.998
0.605825	80.5912
0.654584	85.1871
0.705388	90.7733
0.754148	95.3692
0.804941	100.294
0.853706	105.221
0.904482	109.154
0.955253	112.757
1.00601	115.699
