Adsorption isotherm of Ethene on [Cu3(TDPAH)(H2O)3] 13H2O 8DMA
DOI: 10.1039/C4cc00375f
Adsorbate Ethene: InChIKey VGGSQFUCUMXWEO-UHFFFAOYSA-N
Temperature: 298 K
Tabular data in the source: 0
pressure (bar)	uptake (cm3(STP)/g)
0.15269	50.2074
0.217999	60.4258
0.287437	68.825
0.356379	75.4177
0.424949	80.6555
0.491205	85.8996
0.5549	90.2466
0.623097	94.1295
0.688981	98.0186
0.756929	100.998
0.813437	104.461
0.883823	107.886
1.00559	112.979
