Adsorption isotherm of Acetylene on [Cu3(TDPAH)(H2O)3] 13H2O 8DMA
DOI: 10.1039/C4cc00375f
Adsorbate Acetylene: InChIKey HSFWRNGVRCDJHI-UHFFFAOYSA-N
Temperature: 298 K
Tabular data in the source: 0
pressure (bar)	uptake (cm3(STP)/g)
0.0185962	17.1247
0.0195894	20.7378
0.0275219	24.3321
0.0545014	38.2703
0.102671	53.5069
0.132539	61.1095
0.149972	65.582
0.18653	72.2625
0.21334	77.1616
0.240026	81.609
0.266959	86.9597
0.293521	90.9554
0.355896	98.9219
0.429836	106.857
0.499026	114.353
0.563218	120.507
0.634225	126.19
0.698044	130.988
0.766365	135.323
0.830308	140.573
0.903131	144.443
0.969015	148.333
1.03721	152.215
1.05146	153.533
