Adsorption isotherm of Nitrogen on [Cu3(TDPAH)(H2O)3] 13H2O 8DMA
DOI: 10.1039/C4cc00375f
Adsorbate Nitrogen: InChIKey IJGRMHOSHXDMSA-UHFFFAOYSA-N
Temperature: 298 K
Tabular data in the source: 0
pressure (bar)	uptake (cm3(STP)/g)
0.837819	5.39648
0.904756	5.35223
0.967647	5.9718
