Adsorption isotherm of Methane on [Cu3(TDPAH)(H2O)3] 13H2O 8DMA
DOI: 10.1039/C4cc00375f
Adsorbate Methane: InChIKey VNWKTOKETHGBQD-UHFFFAOYSA-N
Temperature: 298 K
Tabular data in the source: 0
pressure (bar)	uptake (cm3(STP)/g)
0.0278812	0.376367
0.0488232	0.771553
0.0863292	2.47775
0.109708	3.3183
0.137466	3.24303
0.165471	4.07104
0.18885	4.91159
0.216731	5.28796
0.244613	5.66433
0.274931	6.48606
0.33532	7.22625
0.400583	8.85718
0.465722	10.0365
0.535735	12.1065
0.603187	13.2795
0.66845	14.9104
0.728963	16.1022
0.796415	17.2753
0.861306	17.5513
0.933633	19.615
0.996334	20.3489
1.00571	20.7755
