Adsorption isotherm of Ethane on [Cu3(TDPAH)(H2O)3] 13H2O 8DMA
DOI: 10.1039/C4cc00375f
Adsorbate Ethane: InChIKey OTMSDBZUPAUEDD-UHFFFAOYSA-N
Temperature: 298 K
Tabular data in the source: 0
pressure (bar)	uptake (cm3(STP)/g)
0.146528	36.2128
0.218652	45.9607
0.281276	54.8304
0.348029	61.8811
0.416971	68.4738
0.480914	73.7241
0.54717	78.9681
0.622555	83.7354
0.688687	88.5279
0.749696	91.5262
0.806204	94.9888
0.885966	98.8403
1.00774	103.934
