Adsorption isotherm of Ethene on [Cu3(TDPAH)(H2O)3] 13H2O 8DMA
DOI: 10.1039/C4cc00375f
Adsorbate Ethene: InChIKey VGGSQFUCUMXWEO-UHFFFAOYSA-N
Temperature: 298 K
Tabular data in the source: 0
pressure (bar)	uptake (cm3(STP)/g)
0.00136564	4.96805
0.0090498	7.65907
0.0171064	11.705
0.0224775	14.4023
0.0328472	18.442
0.0512735	26.5276
0.0910142	36.3634
0.120261	41.7078
0.149632	47.5038
0.176069	51.0479
0.200318	55.05
0.229192	59.0395
0.262568	62.5648
0.286444	65.2119
0.346134	71.8297
0.424328	78.3973
0.483645	83.6602
0.549653	88.0009
0.622724	92.7745
0.688733	97.1153
0.752179	100.559
0.817815	103.545
0.886012	107.428
0.953836	109.956
1.01935	112.49
1.03591	113.801
