Adsorption isotherm of Nitrogen on [Cu3(TDPAH)(H2O)3] 13H2O 8DMA
DOI: 10.1039/C4cc00375f
Adsorbate Nitrogen: InChIKey IJGRMHOSHXDMSA-UHFFFAOYSA-N
Temperature: 298 K
Tabular data in the source: 0
pressure (bar)	uptake (cm3(STP)/g)
0.0405731	0.303753
0.0527433	0.295707
0.0831745	0.606166
0.107526	1.25122
0.131861	0.904555
0.16027	1.54693
0.188672	1.85873
0.215052	2.50244
0.239387	2.15578
0.265756	2.13834
0.33067	2.426
0.395583	2.71366
0.460503	3.3319
0.525422	3.95013
0.594392	4.23511
0.66134	4.85201
0.724225	5.14101
0.791161	5.09675
0.856075	5.38441
0.925051	5.99997
0.985908	6.29031
1.00417	6.60881
