Adsorption isotherm of Carbon Dioxide on [Cu3(TDPAH)(H2O)3] 13H2O 8DMA
DOI: 10.1039/C4cc00375f
Adsorbate Carbon Dioxide: InChIKey CURLTUGMZLYLDI-UHFFFAOYSA-N
Temperature: 298 K
Tabular data in the source: 0
pressure (bar)	uptake (cm3(STP)/g)
0.136393	29.0007
0.199429	38.2153
0.266505	46.4354
0.331558	54.9874
0.400657	62.8756
0.455541	69.7815
0.526634	75.6849
0.595716	82.5813
0.662742	87.8263
0.727756	94.0643
0.784635	98.9854
0.857768	105.549
0.97961	113.732
