Adsorption isotherm of Methane on [Cu3(TDPAH)(H2O)3] 13H2O 8DMA
DOI: 10.1039/C4cc00375f
Adsorbate Methane: InChIKey VNWKTOKETHGBQD-UHFFFAOYSA-N
Temperature: 298 K
Tabular data in the source: 0
pressure (bar)	uptake (cm3(STP)/g)
0.0284028	0.3118
0.046675	1.29145
0.0811741	2.26038
0.109583	2.90276
0.133934	3.54781
0.162343	4.19019
0.188728	5.16448
0.21308	5.80953
0.235398	6.12536
0.2638	6.43716
0.326714	8.37903
0.395701	9.65574
0.458608	11.267
0.529624	12.5424
0.594554	13.8218
0.659484	15.1012
0.722392	16.7125
0.791379	17.9892
0.856315	19.5991
0.923274	20.8772
0.986176	22.1579
1.0024	22.1472
