Adsorption isotherm of Methane on Zeolite MFI
DOI: 10.1021/la980946a
Article source: Table 3
Adsorbate Methane: InChIKey VNWKTOKETHGBQD-UHFFFAOYSA-N
Kind: experiment
Temperature: 294 K
Tabular data in the source: 0
pressure (bar)	uptake (mmol/g)
0.050249	0.048
0.106485	0.098
0.164386	0.147
0.228288	0.199
0.298615	0.253
0.378782	0.313
0.386688	0.318
0.470295	0.376
0.480001	0.382
