Adsorption isotherm of Sulfur Hexafluoride, Methane on Zeolite MFI
DOI: 10.1021/la980946a
Article source: Table 5
Adsorbate Sulfur Hexafluoride: InChIKey SFZCNBIFKDRMGX-UHFFFAOYSA-N
Adsorbate Methane: InChIKey VNWKTOKETHGBQD-UHFFFAOYSA-N
Kind: experiment
Temperature: 294 K
Tabular data in the source: 0
pressure (bar)	Sulfur Hexafluoride fraction	Sulfur Hexafluoride uptake (mmol/g)	Methane fraction	Methane uptake (mmol/g)	total uptake (mmol/g)
0.153254	0.02	0.151536	0.98	0.135464	0.287
0.162587	0.048	0.3094	0.952	0.1326	0.442
0.174426	0.078	0.467264	0.922	0.128736	0.596
0.187945	0.11	0.61005	0.89	0.12495	0.735
0.20405	0.143	0.743904	0.857	0.120096	0.864
