Adsorption isotherm of Sulfur Hexafluoride, Methane on Zeolite MFI
DOI: 10.1021/la980946a
Article source: Table 5
Adsorbate Sulfur Hexafluoride: InChIKey SFZCNBIFKDRMGX-UHFFFAOYSA-N
Adsorbate Methane: InChIKey VNWKTOKETHGBQD-UHFFFAOYSA-N
Kind: experiment
Temperature: 294 K
Tabular data in the source: 0
pressure (bar)	Sulfur Hexafluoride fraction	Sulfur Hexafluoride uptake (mmol/g)	Methane fraction	Methane uptake (mmol/g)	total uptake (mmol/g)
0.113431	0.201	0.65016	0.799	0.06984	0.72
0.12187	0.225	0.746438	0.775	0.067562	0.814
0.229981	0.138	0.7436	0.862	0.1364	0.88
0.244367	0.152	0.83905	0.848	0.13095	0.97
0.360224	0.116	0.835548	0.884	0.193452	1.029
0.377982	0.126	0.917133	0.874	0.183867	1.101
0.48844	0.107	0.91476	0.893	0.24024	1.155
0.513038	0.114	0.99756	0.886	0.22644	1.224
0.633828	0.101	0.994213	0.899	0.278787	1.273
