Adsorption isotherm of Sulfur Hexafluoride on Zeolite MFI
DOI: 10.1021/la980946a
Article source: Table 4
Adsorbate Sulfur Hexafluoride: InChIKey SFZCNBIFKDRMGX-UHFFFAOYSA-N
Kind: experiment
Temperature: 294 K
Tabular data in the source: 0
pressure (bar)	uptake (mmol/g)
0.002946	0.131
0.006946	0.27
0.012079	0.411
0.017612	0.536
0.017945	0.54
0.024838	0.667
0.033784	0.8
0.044996	0.933
0.059875	1.072
0.08014	1.212
0.109404	1.351
0.154174	1.48
