Adsorption isotherm of Hydrogen on Carbon
DOI: 10.1016/j.micromeso.2008.09.029
Adsorbate Hydrogen: InChIKey UFHFLCQGNIYNRP-UHFFFAOYSA-N
Temperature: 77 K
Tabular data in the source: 0
pressure (bar)	uptake (mmol/g)
0.140083	0.374861
0.140083	2.40585
0.140083	3.865
0.140083	4.55514
0.210505	0.867819
0.35135	5.4819
0.35135	6.15233
0.492195	6.70444
0.633041	7.33542
0.914731	8.02557
0.985153	8.49881
