Adsorption isotherm of Hydrogen on Carbon
DOI: 10.1016/j.micromeso.2008.09.029
Adsorbate Hydrogen: InChIKey UFHFLCQGNIYNRP-UHFFFAOYSA-N
Temperature: 195 K
Tabular data in the source: 0
pressure (bar)	uptake (mmol/g)
0.985153	0.15796
2.88656	0.434016
4.85839	0.710073
7.32318	1.12416
10.5626	1.55796
14.9288	1.99176
19.9992	2.465
25.2105	3.2143
31.2668	4.06219
39.9992	4.92979
50.5626	5.52134
