Adsorption isotherm of Hydrogen on Carbon
DOI: 10.1016/j.micromeso.2008.09.029
Adsorbate Hydrogen: InChIKey UFHFLCQGNIYNRP-UHFFFAOYSA-N
Temperature: 195 K
Tabular data in the source: 0
pressure (bar)	uptake (mmol/g)
0.634952	0.163441
1.45176	0.287385
2.60266	0.456399
4.7422	0.766258
7.11273	1.16062
10.3278	1.59443
14.2841	2.01133
19.4382	2.4395
25.196	3.17189
30.6083	4.04513
