Adsorption isotherm of Nitrogen on Carbon
DOI: 10.1016/j.micromeso.2008.09.029
Adsorbate Nitrogen: InChIKey IJGRMHOSHXDMSA-UHFFFAOYSA-N
Temperature: 77 K
Tabular data in the source: 0
pressure (bar)	uptake (cm3(STP)/g)
0.000566	181.094
0.00372489	9.47643
0.00372489	212.557
0.0123058	265.472
0.035188	304.086
0.085243	357.001
0.169621	404.196
0.246849	445.67
0.324077	481.424
0.422757	520.037
0.525727	551.501
0.628697	581.534
0.728807	612.997
0.827487	641.6
0.904715	664.482
0.95334	690.224
0.973362	727.408
0.990524	850.401
