Adsorption isotherm of Hydrogen on Carbon
DOI: 10.1016/j.micromeso.2008.09.029
Adsorbate Hydrogen: InChIKey UFHFLCQGNIYNRP-UHFFFAOYSA-N
Temperature: 77 K
Tabular data in the source: 0
pressure (bar)	uptake (mmol/g)
0.00049	0.231047
0.00103278	0.343723
0.00489852	0.845131
0.0423335	2.36062
0.0878184	3.28457
0.127514	3.86485
0.162627	4.28175
