Adsorption isotherm of Hydrogen on Carbon
DOI: 10.1016/j.micromeso.2008.09.029
Adsorbate Hydrogen: InChIKey UFHFLCQGNIYNRP-UHFFFAOYSA-N
Temperature: 303 K
Tabular data in the source: 0
pressure (bar)	uptake (mmol/g)
0.633041	0.0396501
1.7598	0.098805
2.88656	0.217115
5.06966	0.335425
7.32318	0.434016
9.71755	0.611481
14.0133	0.848101
19.9992	1.30162
23.9429	1.53824
29.788	1.97204
34.6471	2.28754
39.5767	2.85937
46.3373	3.29317
52.2528	3.84528
