Adsorption isotherm of Hydrogen on Carbon
DOI: 10.1016/j.micromeso.2008.09.029
Adsorbate Hydrogen: InChIKey UFHFLCQGNIYNRP-UHFFFAOYSA-N
Temperature: 77 K
Tabular data in the source: 0
pressure (bar)	uptake (mmol/g)
0.421773	5.32416
1.68938	8.43965
3.16825	9.87909
4.92882	10.9242
7.18234	11.496
9.43586	11.7918
13.7316	11.9298
19.295	12.2256
27.5344	12.5016
36.9006	13.1523
46.8302	13.2312
