Adsorption isotherm of Hydrogen on Carbon
DOI: 10.1016/j.micromeso.2008.09.029
Adsorbate Hydrogen: InChIKey UFHFLCQGNIYNRP-UHFFFAOYSA-N
Temperature: 303 K
Tabular data in the source: 0
pressure (bar)	uptake (mmol/g)
0.722901	0.0507652
1.67987	0.084568
2.77706	0.202878
5.22677	0.293019
7.46729	0.360624
10.1617	0.585976
14.0544	0.845131
23.9997	1.50992
34.848	2.28738
43.0256	2.8395
57.6086	3.85922
