Adsorption isotherm of Carbon Dioxide on Carbon
DOI: 10.1016/j.micromeso.2008.09.029
Adsorbate Carbon Dioxide: InChIKey CURLTUGMZLYLDI-UHFFFAOYSA-N
Temperature: 273 K
Tabular data in the source: 0
pressure (bar)	uptake (cm3(STP)/g)
0.000526	0.846595
0.00100967	0.70575
0.0023311	1.40998
0.00507678	1.69167
0.00955512	3.10012
0.0148039	4.50857
0.0220605	7.04378
0.0348504	9.15645
0.0561371	13.241
0.115326	21.1283
0.210813	30.9874
0.293467	38.1705
0.441596	49.579
0.591269	59.0156
0.746782	67.748
0.872568	75.4945
0.961729	79.8607
