Adsorption isotherm of Hydrogen on ZIF-95
DOI: 10.1016/J.Ijhydene.2011.02.044
Adsorbate Hydrogen: InChIKey UFHFLCQGNIYNRP-UHFFFAOYSA-N
Temperature: 77 K
Tabular data in the source: 0
pressure (bar)	uptake (wt%)
0.0195288	0.26852
1.20742	1.60196
5.25054	2.19493
9.27346	2.51012
19.8392	2.78887
31.1228	2.93807
39.4959	3.06847
50.0481	3.16204
60.5997	3.24635
70.4247	3.33985
79.1554	3.38696
91.1575	3.41585
100.615	3.46302
