Adsorption isotherm of Hydrogen on ZIF-20
DOI: 10.1016/J.Ijhydene.2011.02.044
Adsorbate Hydrogen: InChIKey UFHFLCQGNIYNRP-UHFFFAOYSA-N
Temperature: 77 K
Tabular data in the source: 0
pressure (bar)	uptake (cm3(STP)/g)
0.00212314	21.3714
0.00636943	36.4571
0.00849257	64.1143
0.0976645	120.686
0.203822	142.686
0.303609	155.886
0.401274	166.571
0.501062	172.857
0.600849	178.514
0.694268	185.429
0.804671	191.086
0.993631	197.371
