Adsorption isotherm of Hydrogen on ZIF-8
DOI: 10.1016/J.Ijhydene.2011.02.044
Adsorbate Hydrogen: InChIKey UFHFLCQGNIYNRP-UHFFFAOYSA-N
Temperature: 77 K
Tabular data in the source: 0
pressure (bar)	uptake (cm3(STP)/g)
0.547945	63.0975
4.65753	267.113
10.137	304.971
15.0685	318.642
24.6575	332.314
32.8767	336.52
46.3014	342.83
51.7808	344.933
57.2603	345.985
68.2192	345.985
78.6301	347.036
