Adsorption isotherm of Hydrogen on ZIF-8
DOI: 10.1016/J.Ijhydene.2011.02.044
Adsorbate Hydrogen: InChIKey UFHFLCQGNIYNRP-UHFFFAOYSA-N
Temperature: 77 K
Tabular data in the source: 0
pressure (bar)	uptake (cm3(STP)/g)
0	15.7744
0.547945	37.8585
4.65753	171.415
9.58904	243.977
20	299.713
29.863	315.488
39.726	315.488
49.589	308.126
60	295.507
69.863	284.99
80	269.216
