Adsorption isotherm of Hydrogen on ZIF-8
DOI: 10.1016/J.Ijhydene.2011.02.044
Adsorbate Hydrogen: InChIKey UFHFLCQGNIYNRP-UHFFFAOYSA-N
Temperature: 77 K
Tabular data in the source: 0
pressure (bar)	uptake (cm3(STP)/g)
0.0566667	10.2014
0.103333	19.1295
0.206667	40.1785
0.3	58.0347
0.4	72.0475
0.51	89.2532
0.606667	99.429
0.713333	112.158
0.813333	122.332
0.91	135.707
1.00333	143.965
