Adsorption isotherm of Hydrogen on ZIF-20
DOI: 10.1016/J.Ijhydene.2011.02.044
Adsorbate Hydrogen: InChIKey UFHFLCQGNIYNRP-UHFFFAOYSA-N
Temperature: 77 K
Tabular data in the source: 0
pressure (bar)	uptake (wt%)
0.0108696	0.779006
0.101449	1.47514
0.192029	1.74033
0.300725	1.90608
0.398551	2.03315
0.5	2.1326
0.59058	2.1989
0.695652	2.27072
0.800725	2.33149
0.902174	2.39227
0.996377	2.42541
