Adsorption isotherm of Hydrogen on ZIF-8
DOI: 10.1016/J.Ijhydene.2011.02.044
Adsorbate Hydrogen: InChIKey UFHFLCQGNIYNRP-UHFFFAOYSA-N
Temperature: 300 K
Tabular data in the source: 0
pressure (bar)	uptake (wt%)
0	0.0192678
11.8321	0.125013
19.8473	0.219271
30.1527	0.309631
49.6183	0.467252
59.1603	0.532579
69.084	0.599825
79.3893	0.659357
88.9313	0.711196
100	0.764933
