Adsorption isotherm of Hydrogen on ZIF-8
DOI: 10.1016/J.Ijhydene.2011.02.044
Adsorbate Hydrogen: InChIKey UFHFLCQGNIYNRP-UHFFFAOYSA-N
Temperature: 77 K
Tabular data in the source: 0
pressure (bar)	uptake (cm3(STP)/g)
-0.273973	76.7686
0.547945	316.539
4.93151	455.354
10.411	496.367
20.274	513.193
29.3151	512.141
40.274	495.315
50.6849	477.438
60	459.56
69.589	437.476
79.726	422.753
