Adsorption isotherm of Hydrogen on ZIF-8
DOI: 10.1016/J.Ijhydene.2011.02.044
Adsorbate Hydrogen: InChIKey UFHFLCQGNIYNRP-UHFFFAOYSA-N
Temperature: 77 K
Tabular data in the source: 0
pressure (bar)	uptake (cm3(STP)/g)
0.547945	67.304
1.36986	149.331
3.0137	279.732
6.0274	350.191
8.76712	373.327
12.6027	393.308
18.9041	405.927
25.7534	412.237
34.5205	406.979
48.7671	399.618
53.6986	393.308
