Adsorption isotherm of Hydrogen on ZIF-20
DOI: 10.1016/J.Ijhydene.2011.02.044
Adsorbate Hydrogen: InChIKey UFHFLCQGNIYNRP-UHFFFAOYSA-N
Temperature: 300 K
Tabular data in the source: 0
pressure (bar)	uptake (wt%)
1.9084	0.0173043
11.8321	0.125013
19.8473	0.219271
28.626	0.300026
49.6183	0.467252
59.9237	0.52293
69.084	0.576704
79.0076	0.626609
88.9313	0.684221
99.6183	0.739892
