Adsorption isotherm of Hydrogen on ZIF-11
DOI: 10.1016/J.Ijhydene.2011.02.044
Adsorbate Hydrogen: InChIKey UFHFLCQGNIYNRP-UHFFFAOYSA-N
Temperature: 77 K
Tabular data in the source: 0
pressure (bar)	uptake (cm3(STP)/g)
0	2.23714
0.0074858	17.4497
0.0315166	41.6107
0.0737845	57.2707
0.117896	74.2729
0.226131	93.5123
0.330645	106.488
0.391155	114.094
0.477297	120.805
0.585446	130.649
0.682564	136.018
0.787009	141.387
1.01423	154.362
