Adsorption isotherm of Hydrogen on ZIF-20
DOI: 10.1016/J.Ijhydene.2011.02.044
Adsorbate Hydrogen: InChIKey UFHFLCQGNIYNRP-UHFFFAOYSA-N
Temperature: 77 K
Tabular data in the source: 0
pressure (bar)	uptake (wt%)
0.383168	0.268554
1.26263	2.36123
4.58791	3.08376
10.4216	3.29726
22.4338	3.46504
31.1692	3.57696
41.3558	3.64272
50.4495	3.6806
60.2698	3.70928
69.7277	3.75646
78.8201	3.77582
90.0969	3.83242
101.006	3.83343
