Adsorption isotherm of Hydrogen on ZIF-11
DOI: 10.1016/J.Ijhydene.2011.02.044
Adsorbate Hydrogen: InChIKey UFHFLCQGNIYNRP-UHFFFAOYSA-N
Temperature: 77 K
Tabular data in the source: 0
pressure (bar)	uptake (wt%)
0	6.74157
1.25	16.0112
4.5	19.2416
10.5	21.6292
20.25	24.0169
29.5	25.8427
39.75	27.2472
50	27.9494
59.5	28.9326
69.5	29.7753
79.5	30.0562
89.75	30.4775
99.5	31.0393
