Adsorption isotherm of Hydrogen on ZIF-20
DOI: 10.1016/J.Ijhydene.2011.02.044
Adsorbate Hydrogen: InChIKey UFHFLCQGNIYNRP-UHFFFAOYSA-N
Temperature: 300 K
Tabular data in the source: 0
pressure (bar)	uptake (g/l)
0	0.1079
20.229	1.92366
29.3893	2.56965
40.0763	3.2154
49.6183	3.81509
59.9237	4.30676
69.084	4.78319
90.458	5.61226
100	6.02697
