Adsorption isotherm of Hydrogen on ZIF-95
DOI: 10.1016/J.Ijhydene.2011.02.044
Adsorbate Hydrogen: InChIKey UFHFLCQGNIYNRP-UHFFFAOYSA-N
Temperature: 300 K
Tabular data in the source: 0
pressure (bar)	uptake (wt%)
1.9084	0.0173043
9.54198	0.132764
19.8473	0.219271
28.2443	0.307741
49.6183	0.43835
60.3053	0.494021
69.084	0.551655
79.3893	0.593846
90.0763	0.645663
100.382	0.689781
