Adsorption isotherm of Hydrogen on ZIF-11
DOI: 10.1016/J.Ijhydene.2011.02.044
Adsorbate Hydrogen: InChIKey UFHFLCQGNIYNRP-UHFFFAOYSA-N
Temperature: 77 K
Tabular data in the source: 0
pressure (bar)	uptake (wt%)
0.00362319	0.651934
0.108696	1.09392
0.195652	1.20994
0.297101	1.26519
0.398551	1.32044
0.496377	1.36464
0.601449	1.39779
0.692029	1.42541
0.797101	1.45304
0.891304	1.47514
1	1.46961
