Adsorption isotherm of Hydrogen on ZIF-11
DOI: 10.1016/J.Ijhydene.2011.02.044
Adsorbate Hydrogen: InChIKey UFHFLCQGNIYNRP-UHFFFAOYSA-N
Temperature: 77 K
Tabular data in the source: 0
pressure (bar)	uptake (cm3(STP)/g)
0	7.60626
0	26.8456
0.00804304	78.2998
0.0983152	136.018
0.199154	147.651
0.299969	156.6
0.400763	163.311
0.501528	166.89
0.600466	170.917
0.704891	174.049
0.801981	176.286
0.900915	179.866
1.00531	179.866
