Adsorption isotherm of Hydrogen on ZIF-11
DOI: 10.1016/J.Ijhydene.2011.02.044
Adsorbate Hydrogen: InChIKey UFHFLCQGNIYNRP-UHFFFAOYSA-N
Temperature: 300 K
Tabular data in the source: 0
pressure (bar)	uptake (wt%)
4.19847	0.0423083
19.084	0.1268
29.3893	0.182478
39.313	0.236237
48.855	0.282296
59.9237	0.320618
67.9389	0.360926
79.3893	0.405021
89.6947	0.441432
99.2366	0.472076
