Adsorption isotherm of Hydrogen on ZIF-95
DOI: 10.1016/J.Ijhydene.2011.02.044
Adsorbate Hydrogen: InChIKey UFHFLCQGNIYNRP-UHFFFAOYSA-N
Temperature: 77 K
Tabular data in the source: 0
pressure (bar)	uptake (wt%)
0.00724638	0.81768
0.108696	1.16022
0.195652	1.22652
0.297101	1.29282
0.402174	1.46961
0.5	1.51934
0.586957	1.50276
0.695652	1.55249
0.797101	1.58564
0.891304	1.61878
0.98913	1.64088
