Adsorption isotherm of Hydrogen on ZIF-8
DOI: 10.1016/J.Ijhydene.2011.02.044
Adsorbate Hydrogen: InChIKey UFHFLCQGNIYNRP-UHFFFAOYSA-N
Temperature: 77 K
Tabular data in the source: 0
pressure (bar)	uptake (wt%)
0	5.33708
0.25	16.573
4.75	36.0955
9.5	40.0281
20	43.118
30.25	44.9438
40	45.6461
49.75	46.3483
60.25	47.4719
70	47.4719
100	48.736
