Adsorption isotherm of Hydrogen on ZIF-95
DOI: 10.1016/J.Ijhydene.2011.02.044
Adsorbate Hydrogen: InChIKey UFHFLCQGNIYNRP-UHFFFAOYSA-N
Temperature: 300 K
Tabular data in the source: 0
pressure (bar)	uptake (g/l)
0.763359	0.200268
9.54198	1.18543
19.4656	2.24748
29.3893	3.17081
49.6183	4.66287
69.4656	5.97002
80.1527	6.52329
90.0763	7.07667
99.6183	7.63012
