Adsorption isotherm of Hydrogen on ZIF-20
DOI: 10.1016/J.Ijhydene.2011.02.044
Adsorbate Hydrogen: InChIKey UFHFLCQGNIYNRP-UHFFFAOYSA-N
Temperature: 77 K
Tabular data in the source: 0
pressure (bar)	uptake (wt%)
0	2.66854
0.5	25.4213
4.5	32.7247
9.5	35.6742
19.75	37.2191
29.5	38.764
39.75	39.1854
50	39.7472
59.25	40.309
70	40.7303
80.75	41.1517
99.75	41.7135
