Adsorption isotherm of Hydrogen on ZIF-11
DOI: 10.1016/J.Ijhydene.2011.02.044
Adsorbate Hydrogen: InChIKey UFHFLCQGNIYNRP-UHFFFAOYSA-N
Temperature: 300 K
Tabular data in the source: 0
pressure (bar)	uptake (g/l)
4.19847	0.384709
19.4656	1.30721
29.3893	1.8606
39.6947	2.38309
50.3817	2.85929
59.9237	3.32024
69.4656	3.70413
89.6947	4.44089
100	4.77842
