Adsorption isotherm of Hydrogen on ZIF-8
DOI: 10.1016/J.Ijhydene.2011.02.044
Adsorbate Hydrogen: InChIKey UFHFLCQGNIYNRP-UHFFFAOYSA-N
Temperature: 77 K
Tabular data in the source: 0
pressure (bar)	uptake (cm3(STP)/g)
0.01	8.3117
0.103333	77.996
0.196667	133.604
0.296667	176.41
0.393333	210.9
0.503333	237.064
0.596667	259.399
0.703333	275.967
0.796667	293.823
0.903333	306.552
1.00333	316.725
