Adsorption isotherm of Hydrogen on ZIF-8
DOI: 10.1016/J.Ijhydene.2011.02.044
Adsorbate Hydrogen: InChIKey UFHFLCQGNIYNRP-UHFFFAOYSA-N
Temperature: 77 K
Tabular data in the source: 0
pressure (bar)	uptake (cm3(STP)/g)
0.0266667	2.54235
0.103333	5.05271
0.196667	11.3915
0.296667	15.8065
0.396667	20.2215
0.503333	25.9119
0.6	30.3291
0.696667	34.7462
0.8	39.159
0.9	44.2139
0.993333	47.9933
