Adsorption isotherm of Hydrogen on ZIF-95
DOI: 10.1016/J.Ijhydene.2011.02.044
Adsorbate Hydrogen: InChIKey UFHFLCQGNIYNRP-UHFFFAOYSA-N
Temperature: 77 K
Tabular data in the source: 0
pressure (bar)	uptake (wt%)
0	0
4.75	20.927
10	23.4551
20	26.1236
30	27.5281
39.75	28.9326
50	29.6348
69.75	31.882
79.75	31.7416
89.5	32.3034
100	32.7247
