Adsorption isotherm of Hydrogen on ZIF-11
DOI: 10.1016/J.Ijhydene.2011.02.044
Adsorbate Hydrogen: InChIKey UFHFLCQGNIYNRP-UHFFFAOYSA-N
Temperature: 77 K
Tabular data in the source: 0
pressure (bar)	uptake (wt%)
0	1.09257
0.367679	0.0555896
0.408757	0.620408
4.13471	1.85223
19.8055	2.32591
30.0009	2.51204
40.5552	2.63338
50.3795	2.71763
60.9317	2.8112
69.2995	2.86753
80.575	2.90561
90.0316	2.93426
100.582	3.00005
