Adsorption isotherm of Hydrogen on ZIF-8
DOI: 10.1016/J.Ijhydene.2011.02.044
Adsorbate Hydrogen: InChIKey UFHFLCQGNIYNRP-UHFFFAOYSA-N
Temperature: 300 K
Tabular data in the source: 0
pressure (bar)	uptake (g/l)
1.52672	0.184736
19.4656	2.0471
30.5344	2.75445
40.458	3.53904
59.1603	4.8772
69.4656	5.49218
79.771	6.12258
90.458	6.55253
99.2366	7.13692
