Adsorption isotherm of Hydrogen on ZIF-8
DOI: 10.1016/J.Ijhydene.2011.02.044
Adsorbate Hydrogen: InChIKey UFHFLCQGNIYNRP-UHFFFAOYSA-N
Temperature: 77 K
Tabular data in the source: 0
pressure (bar)	uptake (wt%)
0.00724638	0.110497
0.105072	0.629834
0.202899	1.12155
0.289855	1.44199
0.391304	1.74033
0.48913	1.92818
0.59058	2.10497
0.688406	2.23757
0.793478	2.36464
0.898551	2.48619
0.992754	2.57459
