Adsorption isotherm of Hydrogen on ZIF-20
DOI: 10.1016/J.Ijhydene.2011.02.044
Adsorbate Hydrogen: InChIKey UFHFLCQGNIYNRP-UHFFFAOYSA-N
Temperature: 77 K
Tabular data in the source: 0
pressure (bar)	uptake (cm3(STP)/g)
0.0106157	16.3429
0.0382166	34.5714
0.10828	54.6857
0.220807	70.4
0.329087	82.3429
0.430998	91.7714
0.539278	99.3143
0.649682	102.457
0.764331	110
0.859873	114.4
0.963907	118.8
