Adsorption isotherm of Hydrogen on ZIF-8
DOI: 10.1016/J.Ijhydene.2011.02.044
Adsorbate Hydrogen: InChIKey UFHFLCQGNIYNRP-UHFFFAOYSA-N
Temperature: 77 K
Tabular data in the source: 0
pressure (bar)	uptake (wt%)
0.734685	0.10192
1.27947	2.59271
4.63505	3.73191
10.8459	4.13063
20.6877	4.45562
30.5194	4.64171
40.7067	4.71673
50.531	4.80098
61.0805	4.85751
70.9008	4.88619
81.4531	4.97976
90.5454	4.99912
100.362	4.98152
