Adsorption isotherm of Argon on KCl
DOI: 10.1006/jcis.1997.5099
Adsorbate Argon: InChIKey XKRFYHLGVUSROY-UHFFFAOYSA-N
Temperature: 85 K
Tabular data in the source: 0
pressure (bar)	uptake (cm3(STP)/g)
0.00786349	0.0213826
0.0235905	0.106701
0.0419386	0.16014
0.0602867	0.224217
0.0707714	0.266912
0.0891195	0.330989
0.11271	0.384498
0.165133	0.523503
0.186103	0.576977
0.209693	0.630487
0.230662	0.683961
0.264737	0.769527
0.285707	0.83364
0.306676	0.887114
0.327645	0.951226
0.351236	1.02601
0.372205	1.09013
0.390553	1.16484
0.408901	1.22892
0.42725	1.30363
0.442977	1.37831
0.469188	1.51696
0.484915	1.6342
0.505884	1.74086
0.51899	1.83679
0.532096	1.92207
0.537338	1.98597
