Adsorption isotherm of Argon on KCl
DOI: 10.1006/jcis.1997.5099
Adsorbate Argon: InChIKey XKRFYHLGVUSROY-UHFFFAOYSA-N
Temperature: 85 K
Tabular data in the source: 0
pressure (bar)	uptake (cm3(STP)/g)
0.00524233	0.106454
0.0209693	0.244964
0.0393174	0.319679
0.0629079	0.36255
0.0864984	0.405422
0.11271	0.43769
0.15727	0.480844
0.196587	0.523927
0.241147	0.57772
0.280464	0.620803
0.327645	0.706546
0.374826	0.78165
0.40628	0.845904
0.429871	0.910052
0.453461	0.974199
0.469188	1.0276
0.490157	1.10235
0.508506	1.16643
0.532096	1.27313
0.547823	1.35845
0.560929	1.44373
0.574035	1.52902
0.584519	1.6249
0.597625	1.72082
0.60811	1.81671
0.618594	1.9126
0.623837	1.98714
