Adsorption isotherm of Nitrogen on UiO-66
DOI: 10.1016/j.jhazmat.2014.10.002
Article source: Figure 1b- UiO66
Adsorbate Nitrogen: InChIKey IJGRMHOSHXDMSA-UHFFFAOYSA-N
Kind: experiment
Temperature: 77 K
Tabular data in the source: 0
pressure (bar)	uptake (cm3(STP)/g)
0.003627	226.657
0.009666	244.557
0.01527	252.086
0.0176	256.119
0.020184	259.154
0.0245	263.38
0.025362	264.34
0.033042	266.492
0.038818	268.299
0.049001	271.565
0.070573	275.601
0.093168	278.255
0.11163	280.14
0.132766	281.871
0.152352	282.835
0.173063	284.221
0.194372	285.491
0.214556	286.493
0.234051	287.226
0.253981	288.035
0.273821	289.191
0.293579	289.962
0.313854	290.349
0.336369	290.852
0.355438	291.738
0.375277	292.356
0.39615	292.973
0.415909	293.668
0.435667	294.017
0.457493	294.212
0.477849	295.367
0.496665	295.754
0.518571	295.95
0.538421	296.452
0.557652	297.261
0.577846	297.572
0.598111	298.266
0.618133	298.461
0.639097	298.887
0.658673	299.735
0.679556	300.045
0.700429	300.586
0.720279	301.165
0.741932	301.514
0.76168	302.094
0.781266	302.596
0.801369	303.214
0.823195	304.1
0.843125	304.756
0.8634	305.566
0.883757	306.26
0.905582	306.878
0.926121	308.571
0.944146	310.111
0.965374	311.842
0.984524	315.148
1.00445	321.988
