Adsorption isotherm of Nitrogen on UiO-66-NH2(100)
DOI: 10.1016/j.jhazmat.2014.10.002
Article source: Figure 1b- UiO66 NH2 100
Adsorbate Nitrogen: InChIKey IJGRMHOSHXDMSA-UHFFFAOYSA-N
Kind: experiment
Temperature: 77 K
Tabular data in the source: 0
pressure (bar)	uptake (cm3(STP)/g)
0.005309	181.602
0.009798	195.506
0.015827	203.803
0.017296	205.148
0.019454	211.255
0.022302	213.06
0.029121	213.944
0.034207	214.635
0.040419	216.403
0.050338	217.824
0.071302	220.782
0.093999	222.742
0.112977	224.01
0.133161	225.356
0.154217	226.585
0.173803	227.623
0.194595	228.623
0.215042	229.545
0.2348	230.276
0.254984	230.814
0.276475	231.391
0.296832	231.93
0.315901	232.852
0.336956	233.391
0.35714	233.814
0.377679	234.199
0.39769	234.238
0.41754	234.738
0.437987	235.469
0.459641	235.892
0.479652	236.392
0.499238	236.739
0.51848	237.431
0.539616	237.508
0.559547	238.239
0.580602	238.47
0.600361	238.932
0.620291	238.894
0.641256	239.394
0.661014	239.971
0.681887	240.049
0.702253	240.703
0.723045	240.934
0.742976	241.434
0.763251	241.896
0.784306	242.357
0.803538	242.742
0.824157	243.281
0.844696	243.858
0.864282	244.703
0.88551	245.088
0.904052	245.896
0.924418	246.703
0.945038	248.24
0.964796	249.624
0.984119	252.275
1.00413	257.307
