Adsorption isotherm of Nitrogen on UiO-66-NH2(33)
DOI: 10.1016/j.jhazmat.2014.10.002
Article source: Figure 1b- UiO66 NH2 33
Adsorbate Nitrogen: InChIKey IJGRMHOSHXDMSA-UHFFFAOYSA-N
Kind: experiment
Temperature: 77 K
Tabular data in the source: 0
pressure (bar)	uptake (cm3(STP)/g)
0.006647	172.213
0.01527	185.733
0.021653	191.494
0.0245	193.568
0.03209	196.333
0.03442	197.716
0.043397	201.903
0.049173	204.591
0.070917	207.742
0.091882	210.124
0.11319	212.045
0.133202	213.812
0.15296	215.272
0.173408	216.387
0.1935	217.232
0.21412	218.424
0.234831	219.615
0.254843	220.423
0.275726	221.268
0.296599	221.73
0.316874	222.576
0.336713	223.268
0.356299	223.806
0.376483	224.498
0.396849	225.498
0.417114	225.729
0.437481	226.382
0.457928	226.844
0.47794	227.152
0.49934	228.267
0.518835	228.575
0.539019	229.075
0.558605	229.805
0.58043	230.382
0.599925	230.92
0.620372	231.229
0.640648	231.997
0.659453	232.075
0.680934	232.537
0.702415	233.382
0.722082	233.537
0.742185	234.037
0.760819	234.23
0.78308	235.421
0.801369	235.498
0.822161	236.306
0.841575	236.806
0.862711	237.498
0.882723	238.075
0.904113	238.767
0.92456	239.613
0.946132	241.303
0.965627	242.763
0.987544	245.568
1.00799	251.253
