Adsorption isotherm of Nitrogen on UiO-66-NH2(67)
DOI: 10.1016/j.jhazmat.2014.10.002
Article source: Figure 1b- UiO66 NH2 67
Adsorbate Nitrogen: InChIKey IJGRMHOSHXDMSA-UHFFFAOYSA-N
Kind: experiment
Temperature: 77 K
Tabular data in the source: 0
pressure (bar)	uptake (cm3(STP)/g)
0.00841	203.827
0.008754	207.201
0.011429	200.229
0.011602	200.02
0.016435	214.115
0.021957	216.957
0.029374	218.801
0.036963	220.107
0.049903	222.258
0.070613	224.64
0.090544	226.484
0.112542	228.866
0.132472	229.559
0.153872	231.172
0.172769	231.788
0.19425	233.133
0.212712	233.594
0.234192	234.939
0.25464	235.9
0.275087	236.208
0.293204	236.785
0.314695	237.516
0.335143	238.092
0.352996	238.324
0.373879	238.939
0.395877	239.861
0.416669	239.785
0.436518	240.477
0.456702	241.169
0.477241	241.746
0.497171	241.67
0.517102	241.94
0.538411	242.747
0.559111	243.055
0.577147	243.363
0.598628	244.055
0.619339	244.555
0.638581	244.902
0.660061	245.095
0.678959	245.095
0.700348	246.133
0.720451	246.748
0.74099	247.21
0.761873	247.595
0.782401	247.826
0.802423	247.98
0.822435	248.25
0.842882	248.712
0.862904	250.018
0.883696	250.442
0.904224	251.364
0.924418	252.056
0.944947	252.748
0.963763	253.517
0.983947	253.172
1.00517	256.13
