Adsorption isotherm of Nitrogen on CuBTC
DOI: 10.1016/j.cattod.2012.03.034
Adsorbate Nitrogen: InChIKey IJGRMHOSHXDMSA-UHFFFAOYSA-N
Temperature: 77 K
Tabular data in the source: 0
pressure (bar)	uptake (mmol/g)
0.0782957	305.884
0.213758	315.715
0.277119	318.665
0.373254	321.287
0.44317	322.598
0.563338	324.783
0.668212	326.312
0.733758	326.968
0.794934	327.951
0.834262	328.606
0.86485	329.262
0.901993	330.682
0.932581	333.085
0.971909	335.598
0.985018	337.673
0.989388	339.64
