Adsorption isotherm of Nitrogen on [Zn3L2(btc)2(H2O)]
DOI: 10.1039/C3ce41002a
Adsorbate Nitrogen: InChIKey IJGRMHOSHXDMSA-UHFFFAOYSA-N
Temperature: 77 K
Tabular data in the source: 0
pressure (bar)	uptake (cm3(STP)/g)
0.000913211	4.69239
0.00213083	10.9489
0.00327234	16.8144
0.00563147	28.9364
0.00667405	22.2936
0.00677298	34.8019
0.0079906	41.0584
0.00890382	45.7508
0.00943652	48.488
0.0101976	52.3984
0.0203037	56.3275
0.041787	58.716
0.063042	59.9314
0.0938705	62.3387
0.108041	63.1489
0.126959	64.3596
0.145878	65.5703
0.169546	67.1815
0.183791	68.3828
0.205046	69.5982
0.266399	72.8486
0.299488	74.8696
0.351342	77.3192
0.403198	79.7688
0.450457	82.6
0.499975	85.0449
0.549495	87.4898
0.598937	89.5436
0.648457	91.9885
0.697975	94.4334
0.747418	96.4873
0.794676	99.3185
0.815855	100.143
0.846532	101.768
0.870199	103.379
0.896203	104.995
0.919719	105.824
0.945722	107.44
0.971724	109.056
