Adsorption isotherm of Carbon Dioxide on [Zn3L2(btc)2(H2O)]
DOI: 10.1039/C3ce41002a
Adsorbate Carbon Dioxide: InChIKey CURLTUGMZLYLDI-UHFFFAOYSA-N
Temperature: 273 K
Tabular data in the source: 0
pressure (bar)	uptake (cm3(STP)/g)
0.0122878	2.39437
0.022118	4.08451
0.0393209	6.47887
0.066354	10.7042
0.13025	17.7465
0.203977	21.831
0.267874	25.7746
0.326854	28.4507
0.398125	30.5634
0.469393	33.5211
0.533289	35.2113
0.599644	36.7606
0.668454	38.7324
0.734809	40
0.796248	41.2676
0.867517	42.6761
0.931414	44.0845
1.00268	45.3521
1.06658	46.1972
