Adsorption isotherm of Methane on [Zn3L2(btc)2(H2O)]
DOI: 10.1039/C3ce41002a
Adsorbate Methane: InChIKey VNWKTOKETHGBQD-UHFFFAOYSA-N
Temperature: 273 K
Tabular data in the source: 0
pressure (bar)	uptake (cm3(STP)/g)
0.044236	0.84507
0.0810993	1.5493
0.147453	2.67606
0.211349	3.80282
0.282619	4.64789
0.35143	5.77465
0.410412	6.76056
0.476766	7.88732
0.543119	8.73239
0.607017	9.85915
0.680743	10.7042
0.742182	11.831
0.806078	12.6761
0.874889	13.662
0.943701	14.7887
1.01006	15.7746
1.07641	17.1831
1.14276	18.169
