Adsorption isotherm of 1-Butanol on CMS 563
DOI: 10.1007/s10450-019-00191-6
Article source: Figure 8
Adsorbate 1-Butanol: InChIKey LRHPLDYGYMQRHN-UHFFFAOYSA-N
Kind: experiment
Temperature: 298 K
Tabular data in the source: 0
pressure (bar)	uptake (mol/g)
0.023856	0.000499
0.023903	0.000599
0.035854	0.000898
0.071331	0.000995
0.130427	0.00109
0.201332	0.001184
0.236762	0.001182
0.272191	0.001179
0.354859	0.001172
0.413908	0.001167
0.461147	0.001163
0.626483	0.001149
0.720961	0.001142
0.909917	0.001126
1.00444	0.001218
1.19344	0.001303
1.27611	0.001296
1.37064	0.001388
1.47693	0.00138
1.52416	0.001376
1.59502	0.00137
1.68945	0.001262
1.73669	0.001258
1.83122	0.00135
1.91389	0.001344
1.99655	0.001337
2.0556	0.001332
2.09108	0.001429
2.15018	0.001524
2.28013	0.001614
2.31561	0.001711
2.35104	0.001708
2.38646	0.001705
0.390335	0.001269
0.65015	0.001248
0.921821	0.001325
1.21716	0.001501
1.44164	0.001682
1.7486	0.001457
1.94936	0.001441
2.13841	0.001625
2.22122	0.001918
2.3276	0.00211
2.37484	0.002106
