Adsorption isotherm of Ethanol on CMS 563
DOI: 10.1007/s10450-019-00191-6
Article source: Figure 8
Adsorbate Ethanol: InChIKey LFQSCWFLJHTTHZ-UHFFFAOYSA-N
Kind: experiment
Temperature: 298 K
Tabular data in the source: 0
pressure (bar)	uptake (mol/g)
1.17989	0.000894
1.17018	0.001195
1.76498	0.001492
2.15504	0.001891
2.5548	0.001988
3.35434	0.002183
4.55689	0.002375
7.56973	0.002655
10.7905	0.002732
13.6019	0.003013
17.8302	0.003083
22.6598	0.003249
27.2912	0.003316
31.1068	0.003691
34.9321	0.003764
37.1422	0.003948
38.1367	0.004343
38.738	0.004439
39.3328	0.004736
39.5246	0.005036
39.9179	0.005334
40.7045	0.005931
41.0978	0.006229
2.73689	0.002589
4.54394	0.002777
6.35424	0.002865
8.16453	0.002952
11.5804	0.003229
15.8055	0.003399
20.0306	0.003569
24.4572	0.003738
29.082	0.004006
32.9074	0.004079
35.3222	0.004162
37.126	0.004451
37.7273	0.004547
38.5236	0.004842
38.7186	0.005042
39.1119	0.00534
40.1065	0.005734
40.5062	0.005832
41.1075	0.005928
