Adsorption isotherm of Nitrogen on CMS 572
DOI: 10.1007/s10450-019-00191-6
Article source: Figure 2
Adsorbate Nitrogen: InChIKey IJGRMHOSHXDMSA-UHFFFAOYSA-N
Kind: experiment
Temperature: 77 K
Tabular data in the source: 0
pressure (bar)	uptake (cm3(STP)/g)
0.006858	34.3049
0.008201	47.5183
0.008112	68.6832
0.008046	84.5569
0.00799	97.785
0.007912	116.304
0.009233	134.809
0.009133	158.62
0.009111	163.911
0.009033	182.43
0.008989	193.013
0.014504	211.473
0.015869	219.395
0.020042	224.642
0.028365	240.428
0.035334	245.646
0.045122	245.543
0.057706	245.411
0.067494	245.308
0.075883	245.22
0.082874	245.146
0.091264	245.058
0.096857	244.999
0.10245	244.94
0.109441	244.867
0.154141	254.979
0.210038	262.328
0.25476	267.149
0.299493	269.324
0.407137	273.484
0.511961	282.964
0.61258	295.134
0.709005	307.347
0.813807	322.119
0.852914	332.29
0.89201	345.106
0.925479	365.919
0.968559	428.958
0.980877	492.32
1.00583	542.323
0.015869	219.395
0.024203	232.535
0.03954	242.956
0.063266	253.289
0.077248	253.142
0.105191	258.139
0.149935	257.669
0.205821	267.663
0.27013	269.633
0.30088	271.955
0.400134	276.203
0.511906	296.192
0.605567	300.498
0.710403	307.333
0.802643	316.945
0.838931	332.437
0.886439	339.874
0.926733	400.297
0.949904	542.91
0.984816	553.125
1.00164	542.367
