Adsorption isotherm of 1-Propanol on CMS 572
DOI: 10.1007/s10450-019-00191-6
Article source: Figure 8
Adsorbate 1-Propanol: InChIKey BDERNNFJNOPAEC-UHFFFAOYSA-N
Kind: experiment
Temperature: 298 K
Tabular data in the source: 0
pressure (bar)	uptake (mol/g)
0.08723	0.001409
0.085003	0.002012
0.083889	0.002313
0.128618	0.002716
0.127876	0.002916
0.172975	0.003218
0.310873	0.003422
0.402558	0.003625
0.632882	0.003831
1.00222	0.003939
1.92463	0.00446
2.89474	0.004581
3.95728	0.004704
4.78875	0.004822
5.71264	0.004942
6.31267	0.005155
7.37558	0.005178
8.1601	0.005495
8.39116	0.0055
8.52869	0.005804
8.71317	0.005909
8.75864	0.00611
8.94238	0.006415
0.447657	0.003927
0.908678	0.004238
1.69356	0.004455
2.52466	0.004674
3.49514	0.004694
4.46488	0.004915
5.4812	0.005037
6.17403	0.005152
7.0983	0.005172
7.92903	0.00549
8.38968	0.005902
8.57416	0.006006
8.8507	0.006213
8.98822	0.006517
