Adsorption isotherm of 1-Propanol on CMS 563
DOI: 10.1007/s10450-019-00191-6
Article source: Figure 8
Adsorbate 1-Propanol: InChIKey BDERNNFJNOPAEC-UHFFFAOYSA-N
Kind: experiment
Temperature: 298 K
Tabular data in the source: 0
pressure (bar)	uptake (mol/g)
0.090942	0.000405
0.0902	0.000606
0.089457	0.000807
0.134557	0.001109
0.318668	0.001314
0.503151	0.001418
0.595577	0.00142
0.825902	0.001626
1.01075	0.00163
1.0566	0.001731
1.33314	0.001938
1.65774	0.001643
2.02708	0.001752
2.44189	0.002061
2.99682	0.001973
3.41311	0.001881
3.73586	0.002089
4.28968	0.002301
4.52075	0.002306
5.35221	0.002424
5.53744	0.002328
6.41512	0.002446
6.59998	0.00245
7.20038	0.002563
7.70836	0.002675
8.07806	0.002682
8.3546	0.002889
8.53908	0.002993
8.67735	0.003097
8.81525	0.0033
8.86146	0.003301
8.95278	0.003604
8.99862	0.003706
0.363026	0.001817
0.917586	0.001829
1.70284	0.001945
2.53431	0.002063
3.22677	0.002279
4.24309	0.002401
5.16699	0.002521
6.0443	0.00274
6.96857	0.002759
7.52276	0.002871
8.21448	0.003288
8.58381	0.003396
8.81414	0.003602
