Adsorption isotherm of Ethanol on CMS 1034
DOI: 10.1007/s10450-019-00191-6
Article source: Figure 8
Adsorbate Ethanol: InChIKey LFQSCWFLJHTTHZ-UHFFFAOYSA-N
Kind: experiment
Temperature: 298 K
Tabular data in the source: 0
pressure (bar)	uptake (mol/g)
0.981621	0.000795
0.965436	0.001297
1.15723	0.001597
1.34255	0.002097
1.3296	0.002499
1.52139	0.002799
1.51168	0.0031
1.70347	0.0034
1.88555	0.004001
2.07087	0.004502
2.2659	0.004701
2.45122	0.005202
2.83481	0.005801
3.02336	0.006202
3.01689	0.006403
3.40047	0.007002
3.58255	0.007603
3.57608	0.007804
3.56637	0.008105
3.75492	0.008506
3.94348	0.008906
4.13851	0.009105
4.7236	0.009704
5.11366	0.010102
5.70522	0.0105
6.69979	0.010894
7.29459	0.011191
7.68788	0.011489
8.28592	0.011686
9.47875	0.012179
11.6856	0.012465
12.6866	0.012658
17.5065	0.013126
21.5269	0.013398
25.9438	0.013868
30.1689	0.014039
34.784	0.014608
36.9811	0.015195
37.3777	0.015393
38.1643	0.015989
38.3625	0.016088
38.7429	0.016788
38.9379	0.016988
39.3215	0.017587
39.7083	0.018087
40.0984	0.018485
40.2805	0.019087
40.2675	0.019488
40.2546	0.01989
40.4399	0.020391
40.4269	0.020792
40.4172	0.021094
40.4043	0.021495
40.3913	0.021897
40.3848	0.022098
40.5669	0.022699
40.7587	0.022999
40.9473	0.023399
41.1423	0.023598
2.96509	0.008009
3.14718	0.00861
3.32602	0.009312
3.51134	0.009813
4.30117	0.010309
4.89273	0.010706
5.28279	0.011105
6.27088	0.0117
8.06176	0.01239
10.6619	0.012974
15.6865	0.01334
19.0991	0.013717
23.5257	0.013886
28.9534	0.014248
32.3627	0.014726
34.1666	0.015014
35.9574	0.015704
36.7473	0.0162
37.5241	0.017098
38.2978	0.018097
38.8667	0.019197
39.0423	0.019999
39.0132	0.020903
38.7728	0.022109
38.7469	0.022913
39.1208	0.023814
