Adsorption isotherm of Argon on CMS 572
DOI: 10.1007/s10450-019-00191-6
Article source: Figure 3
Adsorbate Argon: InChIKey XKRFYHLGVUSROY-UHFFFAOYSA-N
Kind: experiment
Temperature: 87 K
Tabular data in the source: 0
pressure (bar)	uptake (cm3(STP)/g)
0.009351	177.369
0.01228	196.705
0.018077	222.475
0.022379	232.125
0.032402	251.416
0.039526	257.822
0.056566	260.939
0.07504	267.273
0.08639	267.201
0.099173	270.345
0.104848	270.309
0.111942	270.264
0.155938	273.209
0.212763	288.977
0.262418	288.66
0.309282	298.039
0.361729	288.028
0.410027	300.623
0.46252	300.289
0.515012	299.955
0.561815	296.431
0.617191	305.756
0.668296	311.882
0.716578	321.252
0.760528	314.52
0.811648	323.872
0.838619	326.926
0.879869	349.244
0.859946	336.468
0.915383	358.695
0.925344	365.083
0.932453	368.264
0.93674	374.688
0.941042	384.338
0.946747	390.754
0.955336	406.828
0.959622	413.252
0.966808	432.561
0.974008	455.096
0.97834	471.198
0.984122	493.741
0.987066	516.303
0.989995	535.639
0.998706	577.519
1.00444	590.386
1.0116	603.244
0.410042	303.849
0.515043	306.406
0.614338	302.548
0.712307	318.053
0.813051	320.637
0.840068	333.368
0.868488	342.865
0.897031	378.167
0.929844	416.668
0.938525	452.096
0.944489	513.349
0.951812	561.689
0.959043	590.675
0.998843	606.551
