Adsorption isotherm of Water on CMS 563
DOI: 10.1007/s10450-019-00191-6
Article source: Figure 6
Adsorbate Water: InChIKey XLYOFNOQVPJJNP-UHFFFAOYSA-N
Kind: experiment
Temperature: 298 K
Tabular data in the source: 0
pressure (bar)	uptake (mol/g)
0.001668	0.000719
0.00235	0.000714
0.004777	0.000817
0.005231	0.001057
0.008189	0.001035
0.011829	0.001372
0.014862	0.001349
0.017061	0.001454
0.019563	0.001801
0.0207	0.002036
0.021838	0.002027
0.023278	0.002382
0.025325	0.002854
0.026007	0.003093
0.027978	0.003809
0.028888	0.003924
0.030404	0.004156
0.031086	0.004273
0.031314	0.004393
0.031465	0.004392
0.001591	0.001207
0.003108	0.001074
0.005231	0.001179
0.008644	0.000909
0.009099	0.001271
0.011374	0.001254
0.015013	0.00147
0.018426	0.001809
0.020776	0.002279
0.021306	0.002397
0.021837	0.002393
0.023202	0.002748
0.025324	0.00322
0.027371	0.003692
0.030101	0.004159
