Adsorption isotherm of Argon on CMS 1032
DOI: 10.1007/s10450-019-00191-6
Article source: Figure 3
Adsorbate Argon: InChIKey XKRFYHLGVUSROY-UHFFFAOYSA-N
Kind: experiment
Temperature: 87 K
Tabular data in the source: 0
pressure (bar)	uptake (cm3(STP)/g)
0.012311	203.156
0.018108	228.926
0.026681	241.775
0.039511	254.596
0.04662	257.777
0.060822	260.912
0.067916	260.867
0.082133	267.228
0.099189	273.571
0.109135	276.733
0.151758	289.365
0.205715	298.699
0.26251	308.015
0.30794	314.177
0.361882	320.285
0.403025	320.023
0.458355	319.671
0.5137	322.544
0.560549	328.697
0.60739	333.237
0.662773	344.175
0.712368	330.956
0.764876	333.847
0.813189	349.669
0.834454	346.307
0.867146	359.002
0.89131	368.526
0.909784	374.86
0.924047	390.898
0.934055	406.963
0.938342	413.388
0.946915	426.236
0.959775	445.509
0.971216	464.791
0.981361	509.888
0.988622	545.326
0.998797	596.874
1.00882	616.165
0.411537	319.969
0.512305	327.391
0.617328	334.787
0.713786	330.947
0.813189	349.669
0.844462	362.373
0.87009	381.564
0.895703	397.53
0.921469	445.753
0.930104	471.505
0.912804	413.55
0.943116	523.035
0.946198	574.628
0.95201	603.623
0.974801	622.833
1.00032	619.445
1.01453	622.58
