Adsorption isotherm of Water on CMS 572
DOI: 10.1007/s10450-019-00191-6
Article source: Figure 6
Adsorbate Water: InChIKey XLYOFNOQVPJJNP-UHFFFAOYSA-N
Kind: experiment
Temperature: 298 K
Tabular data in the source: 0
pressure (bar)	uptake (mol/g)
0.000378	0.000973
0.004625	0.000696
0.009024	0.000784
0.011071	0.000647
0.013952	0.001356
0.015014	0.001348
0.015696	0.001709
0.01615	0.002071
0.016377	0.002679
0.016604	0.002799
0.016907	0.003163
0.016982	0.003284
0.017285	0.003769
0.017512	0.004134
0.017512	0.004256
0.017587	0.004621
0.017662	0.004986
0.017965	0.005593
0.017965	0.005593
0.01804	0.006081
0.018116	0.006202
0.018191	0.006445
0.018266	0.006689
0.018342	0.007054
0.018493	0.007175
0.018644	0.007539
0.01872	0.007905
0.018871	0.008269
0.01887	0.008879
0.018869	0.009611
0.019019	0.01022
0.019171	0.010584
0.019322	0.010705
0.019473	0.010948
0.019852	0.011555
0.020003	0.011553
0.020382	0.011916
0.02076	0.012523
0.021139	0.012886
0.021821	0.013247
0.023185	0.01348
0.023943	0.01384
0.026294	0.014066
0.029857	0.01477
0.030767	0.014885
0.031069	0.015371
0.031145	0.015492
0.031221	0.015613
0.017129	0.006576
0.017432	0.007183
0.017582	0.00767
0.017733	0.008278
0.017733	0.0084
0.017808	0.008887
0.017883	0.009375
0.017958	0.00974
0.018034	0.010105
0.018109	0.01047
0.018185	0.010714
0.018184	0.011202
0.018183	0.011567
0.018182	0.012055
0.018333	0.012542
0.018409	0.012785
0.018787	0.01327
0.020151	0.013869
0.023108	0.014334
0.025838	0.014313
0.028112	0.015028
0.029553	0.015382
