Adsorption isotherm of Nitrogen on CMS 1032
DOI: 10.1007/s10450-019-00191-6
Article source: Figure 2
Adsorbate Nitrogen: InChIKey IJGRMHOSHXDMSA-UHFFFAOYSA-N
Kind: experiment
Temperature: 77 K
Tabular data in the source: 0
pressure (bar)	uptake (cm3(STP)/g)
0.00819	50.1639
0.008134	63.392
0.009455	81.8966
0.009366	103.062
0.009322	113.644
0.009255	129.518
0.009222	137.455
0.009189	145.391
0.009155	153.328
0.009089	169.202
0.009055	177.139
0.008989	193.013
0.008955	200.949
0.013106	211.488
0.015847	224.687
0.019975	240.516
0.026944	245.734
0.031128	248.335
0.036721	248.277
0.040916	248.233
0.052079	253.406
0.056274	253.362
0.068836	258.521
0.08141	261.034
0.086992	263.621
0.091186	263.577
0.096779	263.518
0.154052	276.144
0.204356	283.552
0.254671	288.314
0.310546	300.954
0.408413	302.571
0.504893	301.557
0.605489	319.018
0.706142	323.251
0.809513	345.974
0.845834	353.528
0.886306	371.621
0.922594	387.113
0.960091	447.565
0.980743	524.068
0.998732	568.852
0.014449	224.701
0.046486	253.465
0.070224	261.152
0.102361	266.105
0.15686	273.469
0.20156	283.581
0.260253	290.901
0.303577	295.736
0.404218	302.615
0.507634	314.755
0.608264	324.279
0.707495	333.818
0.796895	354.043
0.845823	356.174
0.890467	379.514
0.934923	447.83
0.966594	563.899
