Adsorption isotherm of Water on CMS 1032
DOI: 10.1007/s10450-019-00191-6
Article source: Figure 6
Adsorbate Water: InChIKey XLYOFNOQVPJJNP-UHFFFAOYSA-N
Kind: experiment
Temperature: 298 K
Tabular data in the source: 0
pressure (bar)	uptake (mol/g)
0.000985	0.00109
0.003487	0.000949
0.005686	0.001542
0.007202	0.002018
0.008035	0.002499
0.008414	0.002984
0.008944	0.003102
0.009172	0.003222
0.009626	0.003828
0.009777	0.004193
0.010155	0.0048
0.010231	0.004921
0.010836	0.00577
0.010912	0.005892
0.011214	0.006377
0.011365	0.007108
0.011591	0.007716
0.011969	0.008688
0.012196	0.009174
0.012423	0.009539
0.012801	0.010023
0.013104	0.010509
0.013406	0.010994
0.013785	0.011479
0.013936	0.011844
0.014238	0.012573
0.01439	0.012816
0.014541	0.013059
0.015071	0.013665
0.015298	0.013907
0.015677	0.01427
0.016055	0.014633
0.01651	0.014995
0.016964	0.015601
0.017646	0.016084
0.018327	0.016444
0.01954	0.016801
0.021359	0.017519
0.022875	0.017873
0.02515	0.018221
0.025757	0.018216
0.027121	0.018572
0.02841	0.018806
0.029395	0.019286
0.029698	0.019771
0.029849	0.020014
0.030076	0.0205
0.030303	0.020742
0.030604	0.02196
0.030604	0.022082
0.030603	0.022691
0.030603	0.023057
0.030602	0.023423
0.030601	0.024033
0.0306	0.024521
0.030675	0.025374
0.030976	0.026713
0.031052	0.026956
0.031052	0.027078
0.030973	0.028664
0.030973	0.029152
0.030972	0.029274
0.030972	0.029762
0.030971	0.030493
0.030969	0.031347
0.031044	0.031834
0.031194	0.032931
0.031269	0.033662
0.031344	0.034149
0.031344	0.034393
0.031343	0.034759
0.03119	0.035858
0.031188	0.037199
0.031035	0.03781
0.031034	0.038786
0.031108	0.039883
0.031183	0.040492
0.030898	0.028055
0.030826	0.026104
0.005757	0.004224
0.00644	0.004341
0.00841	0.005179
0.009243	0.006148
0.010151	0.007483
0.010832	0.008697
0.011285	0.009791
0.011284	0.010523
0.011585	0.011862
0.012038	0.013444
0.012265	0.01393
0.012567	0.014781
0.013322	0.016727
0.014458	0.017816
0.016732	0.018652
0.026587	0.020405
0.028255	0.021124
0.028557	0.021975
0.02901	0.023435
0.029084	0.024654
0.029234	0.025629
0.02946	0.026359
0.02961	0.027699
0.029608	0.028797
0.029682	0.030016
0.029681	0.030625
0.029756	0.031356
0.029907	0.031965
0.029905	0.033063
0.029904	0.033916
0.029902	0.03538
0.029976	0.036233
0.030126	0.037451
0.030124	0.038549
0.030425	0.04001
