Adsorption isotherm of 1-Propanol on CMS 1034
DOI: 10.1007/s10450-019-00191-6
Article source: Figure 8
Adsorbate 1-Propanol: InChIKey BDERNNFJNOPAEC-UHFFFAOYSA-N
Kind: experiment
Temperature: 298 K
Tabular data in the source: 0
pressure (bar)	uptake (mol/g)
0.137527	0.000306
0.136413	0.000607
0.089086	0.000907
0.088344	0.001108
0.133072	0.001511
0.132701	0.001611
0.131588	0.001912
0.177059	0.002114
0.175945	0.002415
0.127876	0.002916
0.12602	0.003418
0.124164	0.00392
0.122679	0.004322
0.119709	0.005125
0.118967	0.005326
0.164438	0.005528
0.255009	0.006031
0.300109	0.006334
0.390679	0.006837
0.435779	0.00714
0.57145	0.007946
0.617292	0.008047
0.662392	0.008349
0.799918	0.008653
0.937816	0.008857
1.675	0.009475
2.4584	0.010094
3.19707	0.01031
4.21377	0.010332
4.85964	0.010647
5.87597	0.010768
6.56805	0.011084
7.35257	0.011402
7.81322	0.011813
8.13486	0.012322
8.22691	0.012424
8.41102	0.012629
8.59402	0.013135
8.54855	0.012933
8.59328	0.013336
8.68422	0.013739
8.72932	0.014041
8.82063	0.014345
8.81989	0.014545
8.81915	0.014746
8.86425	0.015048
8.86276	0.01545
8.86165	0.015751
0.256122	0.00573
1.0295	0.00906
1.58258	0.009473
2.55157	0.009895
4.21377	0.010332
5.92218	0.010769
6.84496	0.01119
7.58326	0.011507
7.85943	0.011814
8.22691	0.012424
8.64023	0.013136
8.7759	0.013942
8.77405	0.014444
8.86276	0.01545
