Adsorption isotherm of Argon on CMS 1034
DOI: 10.1007/s10450-019-00191-6
Article source: Figure 3
Adsorbate Argon: InChIKey XKRFYHLGVUSROY-UHFFFAOYSA-N
Kind: experiment
Temperature: 87 K
Tabular data in the source: 0
pressure (bar)	uptake (cm3(STP)/g)
0.00868	35.4376
0.010206	58.0086
0.011701	74.1281
0.011807	96.708
0.011884	112.837
0.011945	125.739
0.012021	141.868
0.012113	161.222
0.012204	180.576
0.010846	193.488
0.009565	222.529
0.009672	245.109
0.009748	261.237
0.012677	280.573
0.014157	293.467
0.017116	319.255
0.018596	332.149
0.030144	374.011
0.038763	396.536
0.050266	428.721
0.05739	435.127
0.068831	454.409
0.075986	467.267
0.084559	480.116
0.097419	499.389
0.104558	509.021
0.15725	550.62
0.211298	579.308
0.269588	604.744
0.327725	597.922
0.367495	607.346
0.410118	619.978
0.462657	629.32
0.519406	628.959
0.560564	631.923
0.618778	641.229
0.668479	650.59
0.718134	650.274
0.765028	666.104
0.817536	668.996
0.840297	681.754
0.86022	694.53
0.882965	704.063
0.907191	726.489
0.911493	736.139
0.928594	752.159
0.921454	742.528
0.935733	761.791
0.947159	777.848
0.952895	790.714
0.957243	810.042
0.961606	832.594
0.974649	890.576
0.981849	913.111
0.987753	961.46
0.995121	1019.48
1.01096	1067.76
0.413032	636.088
0.520886	641.853
0.611714	647.726
0.72535	676.035
0.819062	691.567
0.831846	694.711
0.871707	723.49
0.900219	752.34
0.924642	816.701
0.939059	864.996
0.939348	926.285
0.946732	987.528
0.949752	1026.22
0.956983	1055.2
0.986837	1067.92
1.00813	1071.01
