Adsorption isotherm of Ethanol on CMS 1032
DOI: 10.1007/s10450-019-00191-6
Article source: Figure 8
Adsorbate Ethanol: InChIKey LFQSCWFLJHTTHZ-UHFFFAOYSA-N
Kind: experiment
Temperature: 298 K
Tabular data in the source: 0
pressure (bar)	uptake (mol/g)
1.11191	0.003003
1.49873	0.003502
1.48902	0.003803
1.87584	0.004302
2.07087	0.004502
2.2659	0.004701
2.8607	0.004998
3.4555	0.005295
4.64834	0.005788
5.44788	0.005983
9.05875	0.00646
13.0791	0.006732
18.315	0.006795
22.7383	0.007064
26.3622	0.007138
29.3815	0.007217
33.6001	0.007588
36.4082	0.00797
38.0073	0.00836
38.9986	0.008855
39.1904	0.009155
39.3789	0.009555
39.5643	0.010056
39.5578	0.010256
39.5481	0.010558
39.5222	0.011361
39.9122	0.01176
40.2958	0.01236
40.6794	0.012959
41.0565	0.01376
41.2516	0.013959
2.23677	0.005605
5.43817	0.006285
9.0458	0.006861
12.0554	0.007241
14.4734	0.007224
19.5046	0.007388
21.1133	0.007477
27.75	0.007831
32.3749	0.008099
36.3823	0.008773
37.3769	0.009168
38.5567	0.010063
38.3326	0.010767
38.7097	0.011568
38.8821	0.01247
39.2657	0.01307
39.2495	0.013572
