Adsorption isotherm of 1-Propanol on CMS 1032
DOI: 10.1007/s10450-019-00191-6
Article source: Figure 8
Adsorbate 1-Propanol: InChIKey BDERNNFJNOPAEC-UHFFFAOYSA-N
Kind: experiment
Temperature: 298 K
Tabular data in the source: 0
pressure (bar)	uptake (mol/g)
0.089086	0.000907
0.109594	0.001611
0.130845	0.002113
0.128989	0.002615
0.128247	0.002816
0.172975	0.003218
0.172604	0.003319
0.217333	0.003721
0.308646	0.004025
0.538599	0.004331
0.952293	0.004942
1.78413	0.004959
2.10726	0.005066
2.93835	0.005285
3.86188	0.005505
4.83236	0.005526
5.75552	0.005846
6.54077	0.005963
7.3715	0.006282
7.97116	0.006596
8.34012	0.006804
8.43181	0.007007
8.61518	0.007413
8.70649	0.007716
8.89023	0.008021
8.9808	0.008525
0.352261	0.004728
0.905337	0.005142
1.69022	0.005359
2.42889	0.005575
3.07551	0.005689
3.95319	0.005808
5.10779	0.006033
6.07827	0.006054
6.90937	0.006272
7.83215	0.006693
8.24547	0.007405
8.47542	0.007711
8.61258	0.008115
8.70352	0.008519
