Adsorption isotherm of N-Octane on CMS 1032
DOI: 10.1007/s10450-019-00191-6
Article source: Figure 8
Adsorbate N-Octane: InChIKey TVMXDCGIABBOFY-UHFFFAOYSA-N
Kind: experiment
Temperature: 298 K
Tabular data in the source: 0
pressure (bar)	uptake (mol/g)
0.000424	0.001897
0.000508	0.002297
0.000684	0.002496
0.000862	0.002595
0.001131	0.002593
0.0014	0.002592
0.001669	0.002591
0.002027	0.002589
0.002207	0.002588
0.003369	0.002782
0.005342	0.002771
0.006597	0.002764
0.009105	0.002851
0.010628	0.002943
0.01233	0.003034
0.013942	0.003125
0.015193	0.003418
0.016175	0.003713
0.016708	0.00401
0.016974	0.004209
0.017149	0.004508
0.017326	0.004707
0.017504	0.004806
0.017949	0.005004
0.018396	0.005101
0.00068	0.002796
0.001218	0.002793
0.001844	0.00289
0.003189	0.002883
0.004892	0.002873
0.007039	0.003162
0.008923	0.003052
0.010447	0.003044
0.012863	0.003331
0.014295	0.003523
0.014827	0.00392
0.015093	0.004119
0.015267	0.004518
0.015531	0.004817
0.016781	0.00521
0.017946	0.005204
