Adsorption isotherm of 1-Butanol on CMS 572
DOI: 10.1007/s10450-019-00191-6
Article source: Figure 8
Adsorbate 1-Butanol: InChIKey LRHPLDYGYMQRHN-UHFFFAOYSA-N
Kind: experiment
Temperature: 298 K
Tabular data in the source: 0
pressure (bar)	uptake (mol/g)
0.048325	0.002297
0.095706	0.002593
0.14304	0.002789
0.190278	0.002785
0.249422	0.00298
0.32028	0.002975
0.485711	0.003161
0.615665	0.00325
0.899193	0.003427
1.14725	0.003507
1.37172	0.003688
1.57254	0.003772
1.83245	0.00395
2.05683	0.003932
2.2576	0.003915
2.29307	0.004012
2.31674	0.004111
2.34041	0.004209
2.36417	0.004507
2.38788	0.004705
0.296897	0.003477
0.603997	0.003551
0.887525	0.003728
1.14748	0.004007
1.33658	0.004291
1.59625	0.00397
1.92702	0.004143
2.12783	0.004226
2.25793	0.004615
2.32888	0.00481
