Adsorption isotherm of 1-Butanol on CMS 1032
DOI: 10.1007/s10450-019-00191-6
Article source: Figure 8
Adsorbate 1-Butanol: InChIKey LRHPLDYGYMQRHN-UHFFFAOYSA-N
Kind: experiment
Temperature: 298 K
Tabular data in the source: 0
pressure (bar)	uptake (mol/g)
0.035807	0.000798
0.035996	0.001198
0.042043	0.001498
0.03628	0.001798
0.036374	0.001998
0.060182	0.002396
0.083944	0.002694
0.107752	0.003092
0.131513	0.00339
0.167084	0.003687
0.23799	0.003781
0.297133	0.003977
0.486183	0.004161
0.580661	0.004153
0.828713	0.004233
1.07681	0.004412
1.28939	0.004395
1.58468	0.004471
1.83273	0.00455
2.00992	0.004636
2.17531	0.004722
2.2344	0.004817
2.28173	0.005013
2.31721	0.00511
2.34093	0.005309
2.40002	0.005404
2.44731	0.0055
0.060844	0.003796
0.072701	0.003895
0.238132	0.004081
0.438944	0.004165
0.6989	0.004444
0.899666	0.004427
1.07686	0.004512
1.28943	0.004495
1.58473	0.004571
1.8683	0.004847
2.14002	0.005025
2.29369	0.005312
2.41197	0.005703
