Adsorption isotherm of Water on CMS 1034
DOI: 10.1007/s10450-019-00191-6
Article source: Figure 6
Adsorbate Water: InChIKey XLYOFNOQVPJJNP-UHFFFAOYSA-N
Kind: experiment
Temperature: 298 K
Tabular data in the source: 0
pressure (bar)	uptake (mol/g)
0.002047	0.000838
0.010313	0.000774
0.014711	0.000619
0.017365	0.000842
0.018654	0.001198
0.01926	0.001437
0.019563	0.001557
0.019715	0.001678
0.020018	0.002163
0.020244	0.002649
0.020623	0.003256
0.020849	0.003986
0.021	0.004473
0.021151	0.005081
0.021453	0.005567
0.021604	0.006175
0.021679	0.006541
0.021754	0.007272
0.021905	0.00788
0.02198	0.008489
0.022055	0.008611
0.02213	0.009586
0.022205	0.010073
0.022583	0.010802
0.022809	0.011776
0.022655	0.012996
0.022655	0.013362
0.022653	0.01446
0.022652	0.014948
0.022728	0.015313
0.022878	0.016043
0.022954	0.016287
0.023105	0.016773
0.023331	0.017747
0.023406	0.018113
0.023405	0.0186
0.02348	0.01921
0.023631	0.01994
0.023781	0.020915
0.02393	0.022255
0.02393	0.022621
0.024004	0.023962
0.024154	0.025058
0.024229	0.025667
0.024228	0.026033
0.024303	0.026398
0.024302	0.02713
0.024302	0.027374
0.024452	0.028226
0.024603	0.028835
0.024904	0.030296
0.024979	0.030905
0.025206	0.031391
0.025281	0.031635
0.025432	0.031999
0.025508	0.032243
0.025583	0.032608
0.026036	0.033702
0.026566	0.034308
0.026869	0.034671
0.027475	0.035033
0.028612	0.03539
0.029446	0.035871
0.030279	0.03623
0.031265	0.036467
0.031795	0.036707
0.002575	0.002785
0.006366	0.002756
0.008414	0.002862
0.011978	0.002835
0.013267	0.002947
0.017286	0.003282
0.018347	0.003883
0.018876	0.004611
0.019179	0.005218
0.019178	0.005828
0.019328	0.006559
0.019555	0.007167
0.01963	0.007776
0.019628	0.008873
0.019627	0.009605
0.019626	0.010459
0.019625	0.010825
0.01966	0.012776
0.019548	0.011801
0.019621	0.01363
0.01962	0.014117
0.019619	0.014849
0.019542	0.015947
0.01954	0.017167
0.019539	0.017655
0.019538	0.018508
0.019537	0.01924
0.019536	0.01985
0.019535	0.020459
0.019534	0.020947
0.019534	0.021191
0.019533	0.021801
0.019608	0.022166
0.019683	0.022653
0.019758	0.023385
0.019757	0.023994
0.019832	0.024604
0.019831	0.025091
0.01983	0.025701
0.019829	0.026555
0.019828	0.026799
0.019827	0.02753
0.019826	0.02814
0.019826	0.028506
0.019825	0.02936
0.019898	0.030701
0.019973	0.031432
0.020124	0.031918
0.020351	0.032404
0.02088	0.03362
0.021789	0.034223
0.022926	0.034336
0.024139	0.03457
0.026111	0.034799
0.028384	0.035879
0.030431	0.036473
