Adsorption isotherm of 1-Butanol on CMS 1034
DOI: 10.1007/s10450-019-00191-6
Article source: Figure 8
Adsorbate 1-Butanol: InChIKey LRHPLDYGYMQRHN-UHFFFAOYSA-N
Kind: experiment
Temperature: 298 K
Tabular data in the source: 0
pressure (bar)	uptake (mol/g)
0.023856	0.000499
0.029949	0.000899
0.024186	0.001199
0.024328	0.001499
0.02447	0.001799
0.024517	0.001899
0.024659	0.002199
0.024848	0.002599
0.025037	0.002999
0.025084	0.003099
0.037224	0.003798
0.037319	0.003998
0.06108	0.004296
0.061222	0.004596
0.085077	0.005094
0.096982	0.005293
0.108933	0.005592
0.132741	0.00599
0.15655	0.006388
0.180358	0.006786
0.204072	0.006984
0.251453	0.00728
0.298881	0.007676
0.511503	0.007759
0.688649	0.007744
0.877747	0.008029
1.14942	0.008106
1.32656	0.008092
1.59833	0.00837
1.83452	0.00835
2.04724	0.008633
2.15362	0.008824
2.26005	0.009115
2.35467	0.009407
2.41386	0.009703
0.239879	0.007781
0.499741	0.00786
0.73603	0.00804
0.913223	0.008126
1.20856	0.008302
1.37394	0.008388
1.71652	0.00856
1.94105	0.008841
2.10657	0.009228
2.24843	0.009516
2.39038	0.010004
