Adsorption isotherm of N-Octane on CMS 563
DOI: 10.1007/s10450-019-00191-6
Article source: Figure 8
Adsorbate N-Octane: InChIKey TVMXDCGIABBOFY-UHFFFAOYSA-N
Kind: experiment
Temperature: 298 K
Tabular data in the source: 0
pressure (bar)	uptake (mol/g)
0.00044	0.000797
0.000435	0.001097
0.001148	0.001393
0.001419	0.001292
0.002045	0.001389
0.004283	0.001577
0.005628	0.001569
0.0076	0.001559
0.009572	0.001548
0.010379	0.001544
0.011545	0.001538
0.013155	0.001729
0.014408	0.001923
0.015213	0.002018
0.015929	0.002115
0.016196	0.002213
0.016374	0.002312
0.016462	0.002412
0.016728	0.00261
0.016815	0.00281
0.016992	0.003009
0.017169	0.003108
0.017433	0.003506
0.017609	0.003706
0.018414	0.003801
0.00715	0.001661
0.008404	0.001755
0.010106	0.001846
0.011987	0.001936
0.014136	0.002124
0.015298	0.002318
0.015473	0.002617
0.015826	0.003015
0.016179	0.003413
0.016535	0.003611
0.017068	0.003908
0.017875	0.003904
0.018503	0.003901
