Adsorption isotherm of Argon on CMS 563
DOI: 10.1007/s10450-019-00191-6
Article source: Figure 3
Adsorbate Argon: InChIKey XKRFYHLGVUSROY-UHFFFAOYSA-N
Kind: experiment
Temperature: 87 K
Tabular data in the source: 0
pressure (bar)	uptake (cm3(STP)/g)
0.007628	112.864
0.01048	116.071
0.013348	122.505
0.019054	128.92
0.024759	135.335
0.034721	141.723
0.038992	144.922
0.056017	144.814
0.067397	151.193
0.078747	151.12
0.088678	151.057
0.100028	150.985
0.107121	150.94
0.14831	160.355
0.206493	163.21
0.259016	169.327
0.31157	181.896
0.361195	175.128
0.415183	190.913
0.45207	190.678
0.505997	193.561
0.557025	183.558
0.616688	199.307
0.666343	198.991
0.707517	205.18
0.759979	198.395
0.816758	204.485
0.825316	214.108
0.833829	214.053
0.845194	217.207
0.865071	220.306
0.879258	220.216
0.890608	220.143
0.897732	226.55
0.903423	229.739
0.921897	236.073
0.93613	245.66
0.941835	252.075
0.948974	261.707
0.957563	277.781
0.963299	290.648
0.971903	309.948
0.974801	322.833
0.983512	364.713
0.986487	393.726
0.99085	416.279
0.99538	474.315
1.01391	493.552
0.156868	169.978
0.410957	197.392
0.514539	199.958
0.56842	193.163
0.612431	199.334
0.664955	205.451
0.72027	201.873
0.764266	204.819
0.81119	227.101
0.840999	230.137
0.869388	233.182
0.897839	249.13
0.923514	277.998
0.933506	290.838
0.936389	300.497
0.943635	332.709
0.950851	358.469
0.958188	410.036
0.959744	439.058
0.962734	471.297
0.97561	493.796
1.00118	500.084
1.01253	500.012
