Adsorption isotherm of Nitrogen on CMS 563
DOI: 10.1007/s10450-019-00191-6
Article source: Figure 2
Adsorbate Nitrogen: InChIKey IJGRMHOSHXDMSA-UHFFFAOYSA-N
Kind: experiment
Temperature: 77 K
Tabular data in the source: 0
pressure (bar)	uptake (cm3(STP)/g)
0.008267	31.6445
0.008212	44.8726
0.008112	68.6832
0.008012	92.4938
0.010731	110.984
0.013505	116.246
0.014893	118.876
0.020463	124.109
0.024636	129.356
0.031605	134.574
0.046975	137.058
0.056729	144.892
0.069314	144.759
0.074907	144.701
0.079101	144.657
0.087491	144.568
0.091697	141.879
0.15737	151.77
0.203502	153.931
0.252374	169.29
0.306928	163.426
0.404773	170.334
0.501242	171.965
0.604679	178.814
0.706696	190.97
0.807349	195.203
0.847887	197.422
0.886983	210.239
0.924669	225.715
0.967726	294.046
0.985604	365.287
1.00347	439.173
0.013417	137.411
0.045521	150.301
0.072077	152.667
0.107	160.236
0.150313	167.718
0.206232	169.775
0.304087	174.038
0.403297	188.868
0.508166	187.765
0.608785	199.935
0.706641	204.198
0.803098	208.475
0.846444	208.019
0.885518	226.127
0.923171	249.541
0.957373	429.075
0.983917	434.087
1.00346	441.818
