Adsorption isotherm of N-Octane on CMS 1034
DOI: 10.1007/s10450-019-00191-6
Article source: Figure 8
Adsorbate N-Octane: InChIKey TVMXDCGIABBOFY-UHFFFAOYSA-N
Kind: experiment
Temperature: 298 K
Tabular data in the source: 0
pressure (bar)	uptake (mol/g)
0.00035	0.000798
0.000344	0.001198
0.000428	0.001597
0.000425	0.001797
0.00042	0.002197
0.000415	0.002497
0.000414	0.002597
0.00041	0.002897
0.000407	0.003097
0.000401	0.003497
0.000398	0.003697
0.000483	0.003997
0.000656	0.004496
0.000654	0.004596
0.00092	0.004795
0.001276	0.004993
0.001545	0.004991
0.001903	0.004989
0.002172	0.004988
0.004143	0.005077
0.006204	0.005166
0.008263	0.005355
0.010232	0.005545
0.011844	0.005636
0.013724	0.005826
0.014975	0.00612
0.015419	0.006417
0.015863	0.006715
0.016038	0.007014
0.016214	0.007213
0.016479	0.007512
0.016655	0.007711
0.016832	0.00791
0.017007	0.008209
0.017184	0.008308
0.017361	0.008507
0.017808	0.008604
0.018346	0.008602
0.000562	0.004797
0.000738	0.004996
0.001097	0.004994
0.001633	0.005091
0.003336	0.005082
0.004949	0.005173
0.007008	0.005362
0.008799	0.005453
0.011306	0.005639
0.013273	0.006029
0.013807	0.006326
0.014162	0.006524
0.01443	0.006623
0.014781	0.007121
0.014781	0.007121
0.014865	0.00752
0.014952	0.00772
0.015039	0.007919
0.015212	0.008318
0.015298	0.008618
0.01637	0.008812
