Adsorption isotherm of N-Octane on CMS 572
DOI: 10.1007/s10450-019-00191-6
Article source: Figure 8
Adsorbate N-Octane: InChIKey TVMXDCGIABBOFY-UHFFFAOYSA-N
Kind: experiment
Temperature: 298 K
Tabular data in the source: 0
pressure (bar)	uptake (mol/g)
0.000518	0.001597
0.0006	0.002096
0.001046	0.002294
0.001942	0.002289
0.002301	0.002287
0.006602	0.002364
0.007228	0.002461
0.008842	0.002452
0.010188	0.002345
0.011623	0.002337
0.012249	0.002434
0.013501	0.002627
0.014931	0.00292
0.015914	0.003115
0.016448	0.003412
0.016538	0.003411
0.016714	0.00361
0.016892	0.003709
0.01698	0.003809
0.017245	0.004107
0.017423	0.004207
0.017689	0.004405
0.018493	0.004601
0.006689	0.002564
0.00875	0.002653
0.009825	0.002647
0.011436	0.002838
0.012869	0.002931
0.014392	0.003023
0.015016	0.003219
0.015193	0.003418
0.015457	0.003717
0.015632	0.004016
0.015807	0.004315
0.015984	0.004514
