Adsorption isotherm of Nitrogen on CMS 1034
DOI: 10.1007/s10450-019-00191-6
Article source: Figure 2
Adsorbate Nitrogen: InChIKey IJGRMHOSHXDMSA-UHFFFAOYSA-N
Kind: experiment
Temperature: 77 K
Tabular data in the source: 0
pressure (bar)	uptake (cm3(STP)/g)
0.006891	26.368
0.006825	42.2417
0.008168	55.4551
0.008145	60.7464
0.008123	66.0376
0.00809	73.9745
0.006669	79.2804
0.006658	81.926
0.006603	95.1541
0.00657	103.091
0.006525	113.673
0.006492	121.61
0.006459	129.547
0.006414	140.13
0.006381	148.066
0.007735	158.634
0.007702	166.571
0.007657	177.154
0.007613	187.736
0.007579	195.673
0.007557	200.964
0.007502	214.192
0.007457	224.775
0.007435	230.066
0.00597	245.954
0.007269	269.75
0.008567	293.546
0.008512	306.774
0.008467	317.357
0.011219	327.91
0.011197	333.201
0.01669	356.953
0.02356	385.981
0.029075	404.442
0.038785	422.858
0.048506	438.629
0.063809	456.987
0.073553	467.466
0.0805	477.975
0.084683	480.577
0.100031	488.352
0.107011	490.924
0.151644	516.91
0.207508	532.196
0.260553	552.802
0.309458	560.225
0.411498	567.089
0.506524	579.317
0.607143	591.487
0.700815	593.148
0.811188	613.152
0.848886	625.983
0.890756	644.061
0.925568	678.087
0.962844	791.452
0.98061	889.149
1.00412	949.748
0.011375	290.871
0.011108	354.366
0.027699	399.165
0.040139	433.426
0.059615	457.031
0.077714	475.359
0.101407	493.628
0.154407	524.817
0.206076	540.147
0.250776	550.259
0.309458	560.225
0.403097	569.822
0.499533	579.391
0.607154	588.841
0.70218	601.07
0.797161	623.881
0.84327	631.333
0.892032	673.148
0.931949	823.523
0.949616	945.03
0.98314	952.614
1.00412	949.748
