Adsorption isotherm of Ethanol on CMS 572
DOI: 10.1007/s10450-019-00191-6
Article source: Figure 8
Adsorbate Ethanol: InChIKey LFQSCWFLJHTTHZ-UHFFFAOYSA-N
Kind: experiment
Temperature: 298 K
Tabular data in the source: 0
pressure (bar)	uptake (mol/g)
1.11838	0.002802
1.90174	0.003499
1.88879	0.003901
2.48359	0.004198
3.06868	0.004796
3.86498	0.005091
4.86279	0.005385
5.66556	0.00548
8.88315	0.005658
11.493	0.00594
14.5091	0.006119
19.3387	0.006285
20.9475	0.006374
22.9593	0.00646
26.5895	0.006334
31.6271	0.006297
35.238	0.006773
37.2433	0.00706
38.4459	0.007252
38.6441	0.007351
39.0374	0.00765
39.4275	0.008048
39.6225	0.008248
40.4124	0.008744
40.6042	0.009044
41.1892	0.009642
41.3778	0.010042
41.5631	0.010543
41.7517	0.010943
41.7387	0.011345
7.66441	0.005968
12.0878	0.006237
4.0503	0.005592
6.45539	0.005976
16.3129	0.006407
19.5305	0.006585
23.7653	0.006454
26.3783	0.006636
31.8125	0.006798
36.4276	0.007367
39.0342	0.00775
39.2163	0.008351
39.8014	0.008949
40.1914	0.009348
40.5718	0.010048
40.7603	0.010449
40.9392	0.01115
41.1277	0.01155
