Adsorption isotherm of Nitrogen on [Cd2(sdb)2(4-bpmh)2(H2O)]n.1n(H2O)
DOI: 10.1039/c5dt01976a
Article source: Figure 3
Adsorbate Nitrogen: InChIKey IJGRMHOSHXDMSA-UHFFFAOYSA-N
Kind: experiment
Temperature: 77 K
Tabular data in the source: 0
pressure (bar)	uptake (cm3(STP)/g)
0	0
0.013629	0.8
0.033715	0.8
0.058313	0.96
0.085095	0.96
0.111925	1.12
0.136522	1.28
0.163352	1.44
0.185575	1.12
0.216916	1.44
0.239139	1.12
0.265968	1.28
0.286055	1.28
0.317395	1.6
0.337387	1.28
0.368728	1.6
0.386487	1.28
0.420012	1.44
0.440051	1.28
0.473528	1.28
0.52486	1.28
0.573961	1.28
0.59191	1.6
0.623061	1.28
0.64101	1.6
0.674393	1.28
0.690016	1.28
0.725725	1.28
0.741347	1.28
0.770362	1.28
0.795007	1.6
0.85294	1.28
0.897623	1.44
0.944492	1.44
0.995872	1.6
