Adsorption isotherm of Carbon Dioxide on [Cd2(sdb)2(4-bpmh)2(H2O)]n.2n(H2O)
DOI: 10.1039/c5dt01976a
Article source: Figure 4
Adsorbate Carbon Dioxide: InChIKey CURLTUGMZLYLDI-UHFFFAOYSA-N
Kind: experiment
Temperature: 273 K
Tabular data in the source: 0
pressure (bar)	uptake (cm3(STP)/g)
0	0
0.012098	0.146005
0.026576	0.583026
0.058015	1.0693
0.082197	1.45828
0.101354	3.01067
0.106378	1.84726
0.132969	2.33332
0.149665	4.12802
0.159575	2.72241
0.186179	3.11149
0.198013	5.00294
0.212793	3.4521
0.246369	5.82938
0.26358	4.23016
0.294717	6.70431
0.316806	4.91137
0.347935	7.434
0.365183	5.59236
0.401139	8.26066
0.413561	6.27335
0.447094	8.94154
0.466787	6.95455
0.49063	9.57382
0.517603	7.53868
0.539037	10.0609
0.575655	8.36556
0.589839	10.742
0.628866	9.14374
0.645488	11.4233
0.674834	9.72765
0.691472	11.9102
0.728067	10.3604
0.742303	12.3974
0.778876	10.993
0.795573	12.7877
0.829678	11.6741
0.841548	13.3231
0.868177	13.5667
0.88048	12.3552
0.907077	12.7927
0.916613	13.8598
0.931245	13.2787
0.952914	14.2494
0.98688	14.057
1.03285	14.6409
