Adsorption isotherm of Carbon Dioxide on [Cd2(sdb)2(4-bpmh)2(H2O)].2n(H2O)
DOI: 10.1039/c5dt01976a
Article source: Figure 3
Adsorbate Carbon Dioxide: InChIKey CURLTUGMZLYLDI-UHFFFAOYSA-N
Kind: experiment
Temperature: 195 K
Tabular data in the source: 0
pressure (bar)	uptake (cm3(STP)/g)
0.005249	5.92081
0.026612	12.8041
0.046018	22.5671
0.05209	15.688
0.073617	24.0114
0.079744	17.6123
0.101143	24.8156
0.109575	18.5769
0.130242	19.3801
0.151532	25.6234
0.15316	19.8637
0.182972	20.6683
0.197312	26.1105
0.208195	21.3122
0.249987	26.9186
0.263156	22.1207
0.304912	27.4071
0.318099	22.7691
0.357587	28.2152
0.366238	23.8966
0.414816	28.8641
0.421163	24.3851
0.460797	31.1112
0.473819	25.0332
0.511405	33.839
0.526513	26.0013
0.559544	34.9664
0.574652	27.1288
0.612238	35.9346
0.62515	28.8966
0.662608	36.5824
0.684867	31.3058
0.712979	37.2301
0.737725	33.714
0.765618	37.7183
0.785919	35.3214
0.815988	38.3661
0.834095	36.7689
0.868627	38.8542
0.891397	38.0577
0.902956	39.1795
0.923459	38.5427
0.946413	39.3462
0.95779	38.868
0.985279	39.3522
0.987566	39.3526
1.03108	39.9993
