Adsorption isotherm of Methane on [Cd2(sdb)2-(3-bpmh)2]n.3n(H2O).n(C6H5NO)
DOI: 10.1039/c5dt01976a
Article source: Figure 5
Adsorbate Methane: InChIKey VNWKTOKETHGBQD-UHFFFAOYSA-N
Kind: experiment
Temperature: 273 K
Tabular data in the source: 0
pressure (bar)	uptake (cm3(STP)/g)
0	0
0.039666	0.107944
0.06611	0.218779
0.092554	0.562851
0.127813	0.555141
0.141035	1.01872
0.178497	0.777293
0.187313	1.59169
0.207146	1.12088
0.237996	1.93046
0.262237	1.57531
0.286478	2.61957
0.310718	1.79794
0.345977	2.95641
0.359198	2.25381
0.394458	3.5289
0.40768	2.70968
0.434124	4.10332
0.464975	3.16363
0.489216	4.79098
0.511253	3.50336
0.537697	5.36347
0.566344	4.30764
0.588381	5.81886
0.621437	4.87868
0.643474	6.62314
0.674325	5.33359
0.694158	7.07852
0.722806	5.90608
0.744843	7.76715
0.77349	6.36147
0.788916	8.10737
0.821971	7.28381
0.846212	8.79454
0.870452	7.73968
0.88147	9.25331
0.899099	8.43313
0.918932	9.47835
0.929952	8.89285
0.960802	9.93567
0.963006	9.3521
1.00488	10.3925
