Adsorption isotherm of Nitrogen on [Cd2(sdb)2-(3-bpmh)]n.3n(H2O).n(C6H5NO)
DOI: 10.1039/c5dt01976a
Article source: Figure 3
Adsorbate Nitrogen: InChIKey IJGRMHOSHXDMSA-UHFFFAOYSA-N
Kind: experiment
Temperature: 77 K
Tabular data in the source: 0
pressure (bar)	uptake (cm3(STP)/g)
0.011435	2.24181
0.036182	3.52571
0.040531	2.4064
0.060787	3.5296
0.067408	2.73064
0.085428	3.85349
0.094268	2.89489
0.11447	3.53808
0.136892	4.02162
0.143548	3.54267
0.168189	3.86656
0.186155	4.5094
0.192776	3.71044
0.217416	4.03433
0.237638	4.83752
0.266644	4.20211
0.286847	4.8453
0.31809	4.21023
0.336092	5.17307
0.36959	4.69836
0.385301	5.18084
0.421037	4.70648
0.438984	5.18932
0.470335	5.51427
0.521781	5.52239
0.523983	5.20274
0.570991	5.53016
0.591122	5.53334
0.62471	5.85865
0.642586	5.70147
0.673937	6.02642
0.696287	5.86995
0.725402	6.19455
0.745515	6.03772
0.776866	6.36267
0.801452	6.20656
0.82833	6.5308
0.850697	6.53433
0.897688	6.70175
0.949188	7.18988
1.00067	7.51801
