Adsorption isotherm of Carbon Dioxide on [Cd2(sdb)2-(3-bpmh)2]n.3n(H2O).n(C6H5NO)
DOI: 10.1039/c5dt01976a
Article source: Figure 5
Adsorbate Carbon Dioxide: InChIKey CURLTUGMZLYLDI-UHFFFAOYSA-N
Kind: experiment
Temperature: 298 K
Tabular data in the source: 0
pressure (bar)	uptake (cm3(STP)/g)
0	0
0.002204	1.51555
0.019833	3.02773
0.044074	4.53847
0.070518	6.16534
0.090351	7.32718
0.123406	8.83599
0.143239	10.1144
0.174091	11.2739
0.200534	12.3177
0.246812	14.0568
0.255627	13.9383
0.297496	15.795
0.304107	15.4437
0.345977	17.1838
0.356996	16.8316
0.396662	18.4555
0.40768	17.9867
0.451754	19.3764
0.489216	20.7677
0.509049	20.5301
0.544307	22.0384
0.566344	21.5671
0.594992	22.8436
0.619233	22.4885
0.64127	23.7665
0.669917	23.4104
0.698565	24.8035
0.718398	24.3327
0.744843	25.6097
0.771286	25.0208
0.79773	26.4145
0.821971	25.9427
0.846212	26.987
0.874859	26.7475
0.877063	27.4467
0.899099	27.092
0.927748	27.4356
0.934358	28.2505
0.963006	28.1276
0.991654	28.5878
1.03352	29.395
