Adsorption isotherm of Methane on [Cd2(sdb)2(4-bpmh)2(H2O)]n.2n(H2O)
DOI: 10.1039/c5dt01976a
Article source: Figure 4
Adsorbate Methane: InChIKey VNWKTOKETHGBQD-UHFFFAOYSA-N
Kind: experiment
Temperature: 273 K
Tabular data in the source: 0
pressure (bar)	uptake (cm3(STP)/g)
0	0
0.056152	0.316727
0.080783	0.929902
0.104935	0.49248
0.139435	1.38913
0.153717	0.668234
0.178152	0.851619
0.185805	1.6134
0.204978	0.938733
0.205371	1.79831
0.23711	1.97941
0.258652	1.16071
0.290827	2.2969
0.312325	1.3827
0.342109	2.61515
0.36113	1.6062
0.390957	2.93417
0.409956	1.87747
0.44224	3.25242
0.466087	2.14644
0.486219	3.57296
0.512478	2.41846
0.535045	3.84423
0.573499	2.73366
0.586305	4.11472
0.624738	2.95641
0.640023	4.43222
0.673565	3.22767
0.688849	4.70348
0.727304	3.59292
0.742567	5.02097
0.778587	3.91117
0.786414	5.05498
0.832326	4.27641
0.837696	5.37324
0.866914	5.36408
0.876304	4.59696
0.903195	4.82733
0.913261	5.5406
0.932478	4.96144
0.954652	5.52762
0.993565	5.4199
1.04491	5.88142
