Adsorption isotherm of Carbon Dioxide on [Cd2(sdb)2(3-bmph)2]n.3n(H2O).n(C6H5NO)
DOI: 10.1039/c5dt01976a
Article source: Figure 3
Adsorbate Carbon Dioxide: InChIKey CURLTUGMZLYLDI-UHFFFAOYSA-N
Kind: experiment
Temperature: 195 K
Tabular data in the source: 0
pressure (bar)	uptake (cm3(STP)/g)
0	12.3199
0.000311	22.72
0.003804	33.2806
0.008633	35.5213
0.029648	39.3646
0.052638	40.4881
0.077915	41.612
0.107782	42.8967
0.13765	44.1813
0.158263	44.5045
0.188112	45.6291
0.206421	45.7919
0.217906	46.2737
0.256864	47.0797
0.268313	47.2415
0.307271	48.0475
0.321026	48.3696
0.359983	49.1756
0.373737	49.4977
0.41039	50.1434
0.42643	50.4659
0.465369	51.1119
0.479141	51.594
0.511204	52.079
0.529531	52.4018
0.56163	53.2068
0.584528	53.5303
0.614304	54.0149
0.637203	54.3384
0.666979	54.823
0.687592	55.1462
0.717368	55.6308
0.740286	56.1144
0.772348	56.5993
0.792961	56.9225
0.825041	57.5675
0.845636	57.7306
0.873144	58.3749
0.900616	58.6991
0.932677	59.1841
0.96474	59.669
0.994516	60.1536
1.0197	60.4775
1.05178	61.1225
