Adsorption isotherm of Methane on [Cd2(sdb)2-(3-bpmh)2]n.3n(H2O).n(C6H5NO)
DOI: 10.1039/c5dt01976a
Article source: Figure 5
Adsorbate Methane: InChIKey VNWKTOKETHGBQD-UHFFFAOYSA-N
Kind: experiment
Temperature: 298 K
Tabular data in the source: 0
pressure (bar)	uptake (cm3(STP)/g)
0	0
0.044074	0.690071
0.063907	1.03559
0.094758	1.3787
0.127813	1.02161
0.145443	1.9507
0.189516	2.52415
0.207146	1.93721
0.2402	3.09616
0.257829	2.3926
0.293089	3.66769
0.308515	2.84799
0.343773	4.12308
0.363606	3.30241
0.392254	4.81218
0.412087	3.8749
0.440736	5.38467
0.462771	4.21367
0.493623	5.9562
0.513456	4.78568
0.542105	6.41207
0.568548	5.2401
0.592789	6.86746
0.623641	5.69453
0.64127	7.32333
0.674325	6.26653
0.691954	7.77871
0.722806	6.72241
0.744843	8.35024
0.771286	7.29489
0.795527	8.68901
0.819767	7.75077
0.846212	9.1444
0.879266	9.25379
1.00488	9.80941
