Adsorption isotherm of Methane on [Cd2(sdb)2-(3-bpmh)2]n.3n(H2O).n(C6H5NO)
DOI: 10.1039/c5dt01976a
Article source: Figure 5
Adsorbate Methane: InChIKey VNWKTOKETHGBQD-UHFFFAOYSA-N
Kind: experiment
Temperature: 273 K
Tabular data in the source: 0
pressure (bar)	uptake (cm3(STP)/g)
0	0
0.002204	2.68173
0.019833	7.57584
0.046277	12.1182
0.074925	15.4938
0.099165	17.9375
0.130017	19.9133
0.141035	21.7767
0.14985	21.0751
0.176294	22.5854
0.19833	24.563
0.202738	23.7458
0.244608	26.3022
0.251219	25.2512
0.295293	27.8071
0.304107	26.9889
0.345977	29.3121
0.356996	28.2601
0.396662	30.3506
0.409884	29.2981
0.445142	31.1563
0.462771	30.3361
0.49142	32.0791
0.511253	31.2585
0.544307	32.8839
0.568548	32.2955
0.590585	33.5735
0.619233	32.8675
0.643474	34.3782
0.672121	33.6723
0.696361	34.9498
0.722806	34.4775
0.744843	35.6389
0.77349	35.1661
0.795527	36.0943
0.821971	35.8552
0.846212	36.6663
0.874859	36.3101
0.883674	37.2412
0.903507	36.7704
0.927748	37.2315
0.936562	37.6961
0.96521	37.5732
0.991654	37.9173
1.03132	38.6083
