Adsorption isotherm of Carbon Dioxide on [Cd2(sdb)2(4-bpmh)2(H2O)]n.2n(H2O)
DOI: 10.1039/c5dt01976a
Article source: Figure 4
Adsorbate Carbon Dioxide: InChIKey CURLTUGMZLYLDI-UHFFFAOYSA-N
Kind: experiment
Temperature: 298 K
Tabular data in the source: 0
pressure (bar)	uptake (cm3(STP)/g)
0	0
0.031334	0.239575
0.043334	0.674848
0.057849	0.431104
0.072247	0.963129
0.081951	0.622852
0.093928	1.20358
0.108473	0.765896
0.134981	1.00591
0.149342	1.78036
0.161503	1.14895
0.188003	1.43745
0.192705	2.26127
0.209692	1.62942
0.2433	2.79
0.262706	2.10945
0.293894	3.31873
0.315745	2.44402
0.346917	3.75028
0.366354	2.87578
0.392693	4.23096
0.416963	3.30755
0.443296	4.71121
0.462761	3.64278
0.489085	5.09493
0.515776	4.1228
0.534876	5.47864
0.573633	4.50542
0.590311	5.90997
0.62664	5.03394
0.638501	6.39043
0.674836	5.46592
0.686705	6.77393
0.727859	5.89746
0.737322	7.15721
0.778461	6.37771
0.787946	7.492
0.826651	6.85818
0.838562	7.87528
0.862678	7.97005
0.877252	7.33843
0.901347	7.57866
0.908476	8.30528
0.925427	7.91586
0.949463	8.54398
0.988072	8.54047
1.04109	9.0205
