Adsorption isotherm of Methane on [Cd2(sdb)2(4-bpmh)2(H2O)]n.2n(H2O)
DOI: 10.1039/c5dt01976a
Article source: Figure 4
Adsorbate Methane: InChIKey VNWKTOKETHGBQD-UHFFFAOYSA-N
Kind: experiment
Temperature: 273 K
Tabular data in the source: 0
pressure (bar)	uptake (cm3(STP)/g)
0	0
0.036587	0.131815
0.061	0.267446
0.073065	0.024858
0.090326	0.49706
0.099869	0.064218
0.126695	0.151331
0.141587	0.767559
0.155955	0.237682
0.182804	0.372549
0.188001	1.08734
0.20476	0.461189
0.239283	1.40559
0.260868	0.682408
0.293023	1.77084
0.314521	0.856635
0.339435	2.09062
0.363303	1.03239
0.390717	2.40887
0.416955	1.20662
0.442001	2.72712
0.465782	1.47788
0.4835	2.95292
0.51952	1.84312
0.539674	3.3174
0.573194	2.0651
0.586044	3.54167
0.626955	2.4781
0.637349	3.90768
0.680695	2.84335
0.691066	4.22517
0.727086	3.11537
0.739892	4.49643
0.780846	3.52837
0.793609	4.81392
0.82976	3.99065
0.842392	4.98968
0.874131	5.17077
0.881086	4.40441
0.908305	5.3511
0.910413	4.63403
0.932434	4.86593
0.952174	5.43288
0.993609	5.51541
