Adsorption isotherm of Nitrogen on Molecular sieve 3a
DOI: 10.1007/s10450-019-00068-8
Article source: Figure 6 (b)
Adsorbate Nitrogen: InChIKey IJGRMHOSHXDMSA-UHFFFAOYSA-N
Kind: experiment
Temperature: 77 K
Tabular data in the source: 0
pressure (bar)	uptake (cm3(STP)/g)
0.05437	6.73004
0.092179	6.73493
0.118843	7.78757
0.152946	8.18542
0.202221	8.84754
0.247691	9.37801
0.266645	9.64276
0.29316	9.90849
0.327288	10.4375
0.384149	11.2317
0.418227	11.4984
0.452404	12.2898
0.486431	12.2942
0.528145	12.9553
0.569859	13.6164
0.60018	14.0138
0.62294	14.4102
0.668533	15.5964
0.706441	16.1259
0.740841	18.0976
0.778873	19.2828
0.809467	21.1229
0.863093	24.8019
0.905576	29.5287
0.937409	37.9263
