Adsorption isotherm of Nitrogen on Zeolite 5A
DOI: 10.1007/s10450-019-00068-8
Article source: Figure 6 (a)
Adsorbate Nitrogen: InChIKey IJGRMHOSHXDMSA-UHFFFAOYSA-N
Kind: experiment
Temperature: 77 K
Tabular data in the source: 0
pressure (bar)	uptake (cm3(STP)/g)
0.004162	2.85
0.021448	31.383
0.006881	88.2979
0.010072	102.128
0.00985	106.383
0.001609	114.362
0.002497	118.085
0.002719	122.34
0.000916	127.66
0.020116	134.574
0.023972	135.638
0.031658	138.298
0.062928	138.83
0.074609	139.894
0.101966	140.426
0.113675	140.957
0.125383	141.489
0.172329	141.489
0.199687	142.021
0.234924	141.489
0.285754	142.021
0.348377	141.489
0.367937	141.489
0.438329	142.021
0.504808	142.553
0.567347	143.617
0.598644	143.617
0.657299	144.149
0.676804	145.213
0.712014	145.213
0.766784	145.213
0.813674	146.277
0.844888	147.872
0.895691	148.936
0.907427	148.936
0.92696	149.468
0.934757	150
0.946383	152.128
0.958064	153.191
0.989167	156.915
