Adsorption isotherm of Nitrogen on hopcalite (200 mg)
DOI: 10.1007/s10450-019-00068-8
Article source: Figure 2 (a+b)
Adsorbate Nitrogen: InChIKey IJGRMHOSHXDMSA-UHFFFAOYSA-N
Kind: experiment
Temperature: 77 K
Tabular data in the source: 0
pressure (bar)	uptake (cm3(STP)/g)
2e-06	0.191571
4e-06	14.5594
1.7e-05	18.7739
3e-05	20.6897
5.4e-05	22.6054
9.9e-05	23.9464
0.000309	27.2031
0.000537	28.7356
0.001758	31.6092
0.002923	32.9502
0.00552	34.6743
0.008433	35.249
0.014022	36.59
0.021422	38.3142
0.030068	40.2299
0.04403	42.1456
0.067267	44.636
0.098502	47.5096
0.12711	48.3656
0.151322	50.6676
0.223956	56.4227
0.323828	63.3287
0.369225	67.3573
0.420674	70.8103
0.472124	75.4144
0.520547	79.4429
0.56897	87.5
0.60226	90.953
0.65371	99.0101
0.668842	96.7081
0.705159	109.945
0.717265	105.916
0.756608	132.965
0.765688	118.577
0.808058	136.418
0.808058	180.732
0.862534	166.92
0.874639	267.634
0.877666	192.242
0.886745	283.172
0.892798	289.503
0.901877	213.536
0.932142	246.34
0.938194	261.303
0.947274	295.833
0.9503	272.813
0.962406	279.144
0.965432	286.05
0.971485	296.409
0.974512	289.503
0.980565	292.38
0.986617	294.107
0.99267	297.56
