Adsorption isotherm of Nitrogen on ACF-20
DOI: 10.1007/s10450-019-00068-8
Article source: Figure 5 (a)
Adsorbate Nitrogen: InChIKey IJGRMHOSHXDMSA-UHFFFAOYSA-N
Kind: experiment
Temperature: 77 K
Tabular data in the source: 0
pressure (bar)	uptake (cm3(STP)/g)
2e-06	15.9218
4e-06	42.0983
6e-06	57.8081
9e-06	63.1475
1.6e-05	78.9343
2.7e-05	99.8678
5e-05	115.655
9.3e-05	152.182
0.000155	173.116
0.00026	194.049
0.000457	215.002
0.000804	246.325
0.001489	267.297
0.002489	288.231
0.00461	314.388
0.005661	314.465
0.006953	324.913
0.008111	330.156
0.010485	345.808
0.01427	356.294
0.017524	366.741
0.021521	372.003
0.030831	392.879
0.035967	398.122
0.039858	408.531
0.060111	429.426
0.070124	439.854
0.07771	445.078
0.095432	460.71
0.111329	471.139
0.136719	491.956
0.151509	512.736
0.159493	528.311
0.176747	538.72
0.217056	590.648
0.266558	627.022
0.310961	647.82
0.36276	658.249
0.402003	663.472
0.468969	673.901
0.493684	679.105
0.519701	679.124
0.606273	684.367
0.783777	684.464
0.868565	684.502
