Adsorption isotherm of Nitrogen on ACF-10
DOI: 10.1007/s10450-019-00068-8
Article source: Figure 5 (b)
Adsorbate Nitrogen: InChIKey IJGRMHOSHXDMSA-UHFFFAOYSA-N
Kind: experiment
Temperature: 77 K
Tabular data in the source: 0
pressure (bar)	uptake (cm3(STP)/g)
2e-06	-0.116531
2e-06	56.2261
3e-06	62.9516
5e-06	69.6354
8e-06	83.0864
1.5e-05	94.2567
2.7e-05	107.691
4.5e-05	121.142
6.1e-05	132.371
0.000138	143.516
0.000207	161.495
0.000491	170.376
0.000859	177.052
0.001289	188.264
0.002256	192.684
0.004148	208.374
0.005927	208.315
0.008041	212.777
0.010368	217.247
0.014068	221.708
0.015566	226.203
0.021119	230.664
0.023386	230.648
0.03339	235.101
0.03696	237.34
0.047654	241.81
0.058411	244.032
0.068038	246.263
0.087691	252.988
0.113108	255.202
0.13175	257.433
0.13175	257.433
0.178894	257.383
0.178894	257.383
0.313313	259.547
0.36509	259.522
0.47091	261.736
0.672859	261.678
0.825064	261.645
