Adsorption isotherm of Nitrogen on ACF-5
DOI: 10.1007/s10450-019-00068-8
Article source: Figure 5 (c)
Adsorbate Nitrogen: InChIKey IJGRMHOSHXDMSA-UHFFFAOYSA-N
Kind: experiment
Temperature: 77 K
Tabular data in the source: 0
pressure (bar)	uptake (cm3(STP)/g)
2e-06	0.204082
2e-06	56.3265
4e-06	66.5306
1.2e-05	76.7347
1.8e-05	82.8571
3.3e-05	87.9592
5.8e-05	94.0816
0.000121	102.245
0.000202	104.286
0.000338	107.347
0.000625	110.408
0.001043	112.449
0.001835	115.51
0.003222	117.551
0.005976	121.633
0.007323	121.633
0.008545	122.653
0.009973	123.673
0.011062	124.694
0.013554	124.694
0.015003	124.694
0.020391	125.714
0.025037	126.735
0.029157	126.735
0.033957	126.735
0.039628	127.755
0.048556	127.755
0.059494	127.755
0.069431	128.776
0.08969	129.796
0.094364	129.796
0.115622	129.796
0.141669	129.796
0.156817	129.796
0.202156	129.796
0.247185	128.776
0.287871	128.776
0.302243	127.755
0.351992	127.755
0.431289	127.755
0.453761	127.755
0.52845	127.755
0.615432	127.755
0.716731	127.755
0.795013	128.776
0.923955	127.755
1.02275	127.755
