Adsorption isotherm of Hydrogen on {[Zn4O(bfbpdc)3-(bpy)0.5(H2O)]*(3DMF)(H2O)}n
DOI: 10.1021/ic302645r
Adsorbate Hydrogen: InChIKey UFHFLCQGNIYNRP-UHFFFAOYSA-N
Temperature: 77 K
Tabular data in the source: 0
pressure (bar)	uptake (wt%)
0.505213	0.00427109
0.674227	0.291595
2.02634	1.0099
3.54747	1.39019
5.23761	1.73667
7.6038	1.96906
12.3362	2.28596
17.2376	2.493
22.308	2.59864
27.5475	2.67892
32.6179	2.71272
42.7587	2.7423
52.8996	2.74652
63.0404	2.7254
73.0123	2.70005
83.4911	2.67469
94.139	2.62821
104.28	2.56061
