Adsorption isotherm of Carbon Dioxide on {[Zn4O(bfbpdc)3-(bpy)0.5(H2O)]*(3DMF)(H2O)}n
DOI: 10.1021/ic302645r
Adsorbate Carbon Dioxide: InChIKey CURLTUGMZLYLDI-UHFFFAOYSA-N
Temperature: 262 K
Tabular data in the source: 0
pressure (bar)	uptake (cm3(STP)/g)
0.0294675	0.487186
0.0881033	1.73856
0.15246	2.95418
0.226827	4.38433
0.326937	6.27926
0.419897	8.28147
0.475672	9.31832
0.572922	11.1418
0.620117	12.2144
0.723087	14.2166
0.771712	15.2177
0.824627	16.326
0.874682	17.2914
0.924737	18.2567
0.974792	19.2936
