Adsorption isotherm of Methane on {[Zn4O(bfbpdc)3-(bpy)0.5(H2O)]*(3DMF)(H2O)}n
DOI: 10.1021/ic302645r
Adsorbate Methane: InChIKey VNWKTOKETHGBQD-UHFFFAOYSA-N
Temperature: 298 K
Tabular data in the source: 0
pressure (bar)	uptake (g/g)
4.0539	0.0130729
10.1384	0.0254672
20.2793	0.0455236
29.9694	0.0597207
38.9835	0.0685095
50.4764	0.0759461
60.8426	0.0793264
70.3074	0.0820306
79.5469	0.0836081
87.2088	0.0836081
96.4483	0.0831574
104.336	0.0827067
113.124	0.0815799
120.786	0.0804531
129.35	0.0786503
