Adsorption isotherm of Hydrogen on {[Zn4O(bfbpdc)3-(bpy)0.5(H2O)]*(3DMF)(H2O)}n
DOI: 10.1021/ic302645r
Adsorbate Hydrogen: InChIKey UFHFLCQGNIYNRP-UHFFFAOYSA-N
Temperature: 77 K
Tabular data in the source: 0
pressure (bar)	uptake (cm3(STP)/g)
0.00658518	2.39743
0.0223168	5.22912
0.0480593	9.86278
0.103835	18.2291
0.15246	24.7935
0.206805	30.4568
0.259721	35.4766
0.306915	39.8529
0.385573	46.5459
0.45708	52.2093
0.534308	56.9717
0.610106	61.7341
0.691624	66.4964
0.763131	70.6153
0.840359	74.7341
0.887553	77.3083
0.943329	79.8826
0.989093	82.0707
