Adsorption isotherm of Water on {[Zn4O(bfbpdc)3-(bpy)0.5(H2O)]*(3DMF)(H2O)}n
DOI: 10.1021/ic302645r
Adsorbate Water: InChIKey XLYOFNOQVPJJNP-UHFFFAOYSA-N
Temperature: 298 K
Tabular data in the source: 0
pressure (bar)	uptake (cm3(STP)/g)
0.000591	2.54436
0.00206997	2.54436
0.00439391	2.54436
0.00608405	1.69929
0.00832349	3.38943
0.0103517	5.07957
0.0130559	5.07957
0.0161826	5.92464
0.0189714	5.92464
0.0208728	5.07957
0.0231545	5.92464
0.0245911	7.61478
0.0255629	10.15
0.0268305	16.9106
0.0277179	48.1782
0.0284362	307.615
0.0292812	507.896
