Adsorption isotherm of Hydrogen on {[Zn4O(bfbpdc)3-(bpy)0.5(H2O)]*(3DMF)(H2O)}n
DOI: 10.1021/ic302645r
Adsorbate Hydrogen: InChIKey UFHFLCQGNIYNRP-UHFFFAOYSA-N
Temperature: 87 K
Tabular data in the source: 0
pressure (bar)	uptake (cm3(STP)/g)
0.00944547	0.209314
0.0494895	3.041
0.105265	6.38753
0.149599	8.83308
0.228257	12.5657
0.282603	15.3974
0.328367	17.5856
0.388433	19.9024
0.434198	21.9618
0.487113	23.8925
0.540029	25.9519
0.588653	27.6252
0.641569	29.8133
0.690194	31.2291
0.741679	32.7737
0.793164	34.5756
0.846079	36.2489
0.888983	37.536
0.943329	39.0806
0.994814	40.4964
