Adsorption isotherm of Carbon Dioxide on {[Zn4O(bfbpdc)3-(bpy)0.5(H2O)]*(3DMF)(H2O)}n
DOI: 10.1021/ic302645r
Adsorbate Carbon Dioxide: InChIKey CURLTUGMZLYLDI-UHFFFAOYSA-N
Temperature: 283 K
Tabular data in the source: 0
pressure (bar)	uptake (cm3(STP)/g)
0.0308976	0.344171
0.109555	1.30952
0.181063	2.0961
0.229687	2.66815
0.275452	3.24021
0.378422	4.42008
0.475672	5.52844
0.578642	6.70831
0.673032	7.88818
0.727377	8.60325
0.777432	9.24681
0.828917	9.85462
0.877542	10.4267
0.980513	11.6423
