Adsorption isotherm of Nitrogen on {[Zn4O(bfbpdc)3-(bpy)0.5(H2O)]*(3DMF)(H2O)}n
DOI: 10.1021/ic302645r
Adsorbate Nitrogen: InChIKey IJGRMHOSHXDMSA-UHFFFAOYSA-N
Temperature: 77 K
Tabular data in the source: 0
pressure (bar)	uptake (cm3(STP)/g)
0.00837971	297.767
0.0193041	327.263
0.0455226	344.96
0.0695562	351.843
0.121993	360.691
0.146027	361.674
0.202833	364.624
0.281489	368.557
0.351405	370.523
0.502161	374.456
0.598296	373.473
0.696615	376.422
0.746867	376.422
0.792749	377.406
0.893254	379.372
