Adsorption isotherm of Carbon Dioxide on {[Zn4O(bfbpdc)3-(bpy)0.5(H2O)]*(3DMF)(H2O)}n
DOI: 10.1021/ic302645r
Adsorbate Carbon Dioxide: InChIKey CURLTUGMZLYLDI-UHFFFAOYSA-N
Temperature: 273 K
Tabular data in the source: 0
pressure (bar)	uptake (cm3(STP)/g)
0.200498	2.43436
1.29294	37.8293
2.27613	73.2243
3.6963	133.527
4.89798	189.897
5.77193	244.955
6.86436	302.636
8.06604	359.006
10.0324	403.577
13.419	444.216
17.2425	479.611
20.7383	505.829
24.4526	534.67
27.9484	568.754
