Adsorption isotherm of Methane on {[Zn4O(bfbpdc)3-(bpy)0.5(H2O)]*(3DMF)(H2O)}n
DOI: 10.1021/ic302645r
Adsorbate Methane: InChIKey VNWKTOKETHGBQD-UHFFFAOYSA-N
Temperature: 298 K
Tabular data in the source: 0
pressure (bar)	uptake (g/g)
1.80038	0.00360807
4.72996	0.0155517
20.5046	0.0536362
30.1947	0.0712137
40.5609	0.0854109
49.8004	0.0962278
60.3919	0.105467
69.8567	0.112002
79.3215	0.117636
96.4483	0.1262
104.786	0.12958
112.448	0.132059
121.012	0.135664
129.35	0.137918
