Adsorption isotherm of Carbon Dioxide on {[Zn4O(bfbpdc)3-(bpy)0.5(H2O)]*(3DMF)(H2O)}n
DOI: 10.1021/ic302645r
Adsorbate Carbon Dioxide: InChIKey CURLTUGMZLYLDI-UHFFFAOYSA-N
Temperature: 273 K
Tabular data in the source: 0
pressure (bar)	uptake (cm3(STP)/g)
0.0523498	0.808968
0.15532	2.23911
0.196794	2.88268
0.226827	3.31172
0.326937	4.74186
0.376992	5.49269
0.427047	6.27926
0.475672	6.95858
0.527157	7.74516
0.625837	9.24681
0.677322	9.96188
0.774572	11.535
0.824627	12.2144
0.874682	13.0009
0.977652	14.5026
