Adsorption isotherm of Carbon Dioxide on {[Zn4O(bfbpdc)3-(bpy)0.5(H2O)]*(3DMF)(H2O)}n
DOI: 10.1021/ic302645r
Adsorbate Carbon Dioxide: InChIKey CURLTUGMZLYLDI-UHFFFAOYSA-N
Temperature: 298 K
Tabular data in the source: 0
pressure (bar)	uptake (cm3(STP)/g)
0.418986	3.74528
3.15008	52.2495
5.00722	88.9554
6.86436	130.905
8.61226	174.165
10.4694	218.737
13.856	288.216
17.2425	334.098
20.7383	362.939
24.5618	383.913
28.2761	399.644
31.8812	408.821
35.377	416.686
38.982	421.93
43.024	425.863
46.6291	428.485
49.4694	429.796
