Adsorption isotherm of Carbon Dioxide on {[Zn4O(bfbpdc)3-(bpy)0.5(H2O)]*(3DMF)(H2O)}n
DOI: 10.1021/ic302645r
Adsorbate Carbon Dioxide: InChIKey CURLTUGMZLYLDI-UHFFFAOYSA-N
Temperature: 196 K
Tabular data in the source: 0
pressure (bar)	uptake (cm3(STP)/g)
0.00536124	0.358227
0.042545	15.2317
0.0886528	34.6817
0.109476	44.9787
0.128811	59.8522
0.157071	163.967
0.160046	179.984
0.182356	265.221
0.212103	285.243
0.271597	296.112
0.340015	305.265
0.398021	309.841
0.478338	316.134
0.558655	321.854
0.6122	322.999
0.662769	325.287
0.719289	326.431
0.795143	328.147
0.85315	329.291
0.90372	329.863
0.960239	331.579
1.00635	333.296
1.03461	335.012
