Adsorption isotherm of Nitrogen on PCN-20
DOI: 10.1021/Ic901073w
Adsorbate Nitrogen: InChIKey IJGRMHOSHXDMSA-UHFFFAOYSA-N
Temperature: 77 K
Tabular data in the source: 0
pressure (bar)	uptake (cm3(STP)/g)
0.000744514	125.373
0.00375802	232.836
0.00428982	322.388
0.00500597	42.9851
0.00740969	447.761
0.0101467	508.657
0.0119264	408.358
0.0128624	565.97
0.0155568	619.701
0.018315	684.179
0.0256964	727.164
0.0282419	755.821
0.0332266	795.224
0.0405654	831.045
0.0479042	866.866
0.0575758	895.522
0.0601426	927.761
0.074501	945.672
0.093589	960
0.10553	970.746
0.115052	974.328
0.134098	981.493
0.141245	985.075
0.157894	988.657
0.176939	995.821
0.198317	995.821
0.231594	999.403
0.269642	1006.57
0.307647	1006.57
0.348071	1013.73
0.393203	1013.73
0.547665	1024.48
0.576148	1020.9
0.785221	1028.06
0.830353	1028.06
0.87786	1028.06
0.903989	1028.06
0.937265	1031.64
0.965791	1035.22
