Adsorption isotherm of Hydrogen on PCN-20
DOI: 10.1021/Ic901073w
Adsorbate Hydrogen: InChIKey UFHFLCQGNIYNRP-UHFFFAOYSA-N
Temperature: 77 K
Tabular data in the source: 0
pressure (bar)	uptake (wt%)
0.228659	0.0487434
0.337063	0.486486
0.67552	0.875708
0.900345	1.19193
1.12412	1.58109
1.23671	1.72705
1.46293	1.946
1.68915	2.16496
2.14368	2.45697
2.3699	2.67592
2.7108	2.89494
3.16567	3.16263
3.50622	3.40596
3.9611	3.67366
4.76141	3.84426
5.67604	4.03923
6.93367	4.30732
7.62034	4.40492
8.53637	4.50263
9.45101	4.69761
11.5121	4.91745
12.7725	4.99101
14.2612	5.13763
15.9796	5.26005
17.5841	5.33378
19.3032	5.40756
21.1363	5.53004
22.7418	5.53082
23.7732	5.57995
25.4923	5.65373
27.2122	5.67889
28.4722	5.77676
30.3067	5.80197
31.6825	5.82696
33.517	5.85217
34.5488	5.87698
36.3829	5.92651
37.8731	5.97587
39.4785	5.97665
40.854	6.02595
42.8035	6.0269
43.9496	6.07608
44.9814	6.1009
46.9309	6.10185
48.1916	6.1511
49.7968	6.17619
