Adsorption isotherm of Carbon Dioxide on CD-MOF-2
DOI: 10.1021/Ja402315d
Adsorbate Carbon Dioxide: InChIKey CURLTUGMZLYLDI-UHFFFAOYSA-N
Temperature: 298 K
Tabular data in the source: 0
pressure (bar)	uptake (cm3(STP)/g)
0.000161	0.000160973
0.000241	8.27362
0.000402	10.2149
0.000483	11.7472
0.000563406	13.1775
0.000724379	14.0975
0.000885353	14.9153
0.00104633	15.8353
0.00160973	16.6554
0.00201217	17.2703
0.00257557	17.7839
0.00313898	18.0933
0.00394384	18.3018
0.00490968	18.5112
0.00579504	18.7201
0.00676088	18.9295
0.00885353	19.1449
0.00998034	19.253
0.0112681	19.2598
0.0123949	19.3679
0.0137632	19.5795
0.0149705	19.688
0.0161778	19.6944
0.0174656	19.7012
0.0186729	19.9119
0.0199607	19.9187
0.021168	19.9251
0.0223753	19.9316
0.0224558	19.932
