Adsorption isotherm of Carbon Dioxide on CD-MOF-2
DOI: 10.1021/Ja402315d
Adsorbate Carbon Dioxide: InChIKey CURLTUGMZLYLDI-UHFFFAOYSA-N
Temperature: 298 K
Tabular data in the source: 0
pressure (bar)	uptake (cm3(STP)/g)
0.00024146	2.75873
0.000321946	5.72086
0.000402433	4.08724
0.00048292	7.1515
0.000804866	9.50215
0.000965839	10.8307
0.00104633	11.6481
0.00136827	12.569
0.00144876	13.3864
0.00169022	14.0005
0.00193168	14.6145
0.00249508	15.4345
0.002978	15.8456
0.00354141	16.3592
0.0048292	16.9788
0.00563406	17.1874
0.00668039	17.4993
0.00812915	17.7112
0.00933645	17.9219
0.0104633	18.1321
0.0116706	18.2407
0.0128779	18.2471
0.0141656	18.3561
0.0154534	18.3629
0.0166607	18.4714
0.0179485	18.5804
0.0191558	18.6889
0.0204436	18.6958
0.0217314	18.7026
