Adsorption isotherm of Acetylene on MOF-505
DOI: 10.1021/Ja904782h
Adsorbate Acetylene: InChIKey HSFWRNGVRCDJHI-UHFFFAOYSA-N
Temperature: 295 K
Tabular data in the source: 0
pressure (bar)	uptake (cm3(STP)/g)
0.0128752	20.263
0.0713396	45.2132
0.127788	59.7296
0.178188	69.7097
0.233628	79.463
0.288061	87.6285
0.346525	95.5672
0.402973	102.825
0.462446	109.403
0.51083	114.166
0.567278	119.61
0.622719	123.693
0.678159	128.91
0.733599	132.539
0.788032	135.941
0.843472	139.117
0.89992	142.519
0.954353	145.241
1.00979	147.963
1.06523	150.684
