Adsorption isotherm of Acetylene on ZIF-8
DOI: 10.1021/Ja904782h
Adsorbate Acetylene: InChIKey HSFWRNGVRCDJHI-UHFFFAOYSA-N
Temperature: 295 K
Tabular data in the source: 0
pressure (bar)	uptake (cm3(STP)/g)
11.9254	0.529641
57.2894	1.66374
92.8245	3.70512
134.408	5.06604
176.748	5.7465
219.088	7.10742
259.915	8.69516
301.499	10.5097
343.083	11.6438
383.91	13.0047
425.494	14.3657
467.077	15.7266
507.905	16.407
551.001	18.9021
592.584	19.8093
632.656	21.1703
674.24	22.5312
715.823	24.5726
757.407	25.7067
800.503	27.0676
