Adsorption isotherm of Acetylene on MOF-508
DOI: 10.1021/Ja904782h
Adsorbate Acetylene: InChIKey HSFWRNGVRCDJHI-UHFFFAOYSA-N
Temperature: 290 K
Tabular data in the source: 0
pressure (bar)	uptake (cm3(STP)/g)
0.00279517	0.756461
0.0652915	3.25148
0.112668	4.83922
0.161052	6.20014
0.211452	6.65378
0.260845	7.78788
0.311245	9.37562
0.359629	10.2829
0.409021	11.1902
0.458414	11.8706
0.507806	13.0047
0.55619	14.5925
0.606591	15.4998
0.654975	19.1289
0.704367	24.7994
0.750735	37.2745
0.79912	58.5955
0.870688	78.1021
0.914032	83.9994
0.967457	88.0821
0.999713	89.4431
1.05112	91.2576
1.10152	93.0722
