Adsorption isotherm of Acetylene on IRMOF-1
DOI: 10.1021/Ja904782h
Adsorbate Acetylene: InChIKey HSFWRNGVRCDJHI-UHFFFAOYSA-N
Temperature: 295 K
Tabular data in the source: 0
pressure (bar)	uptake (cm3(STP)/g)
0.0148912	0.302821
0.0783956	2.11738
0.123756	3.02466
0.18222	4.83922
0.23766	6.42696
0.291085	7.78788
0.347533	8.24152
0.402973	9.82926
0.456398	11.1902
0.511838	12.7779
0.568286	13.6852
0.623727	16.407
0.681183	17.5411
0.732591	19.1289
0.791056	20.7166
0.845488	22.3044
0.900928	23.4385
0.955361	25.0262
1.01282	26.6139
1.06826	27.748
