Adsorption isotherm of Acetylene on MIL-53
DOI: 10.1021/Ja904782h
Adsorbate Acetylene: InChIKey HSFWRNGVRCDJHI-UHFFFAOYSA-N
Temperature: 295 K
Tabular data in the source: 0
pressure (bar)	uptake (cm3(STP)/g)
0.0138832	3.4783
0.0753716	11.6438
0.135852	19.1289
0.180204	23.8921
0.236652	29.7894
0.292093	34.5526
0.347533	39.3158
0.404989	43.1718
0.461438	47.935
0.511838	50.6568
0.568286	54.0591
0.622719	57.2346
0.679167	59.7296
0.733599	62.6783
0.78904	64.4929
0.84448	66.7611
0.89992	69.0293
0.954353	70.8438
1.01282	72.6584
1.06624	74.6998
