Adsorption isotherm of Acetylene on CuBTC
DOI: 10.1021/Ja904782h
Adsorbate Acetylene: InChIKey HSFWRNGVRCDJHI-UHFFFAOYSA-N
Temperature: 295 K
Tabular data in the source: 0
pressure (bar)	uptake (cm3(STP)/g)
0.0128752	25.0262
0.0673075	72.4316
0.124764	96.0208
0.180204	113.259
0.236652	125.734
0.295117	136.395
0.352573	145.014
0.412045	152.953
0.468494	159.077
0.51083	163.613
0.568286	169.284
0.623727	173.82
0.679167	178.583
0.734607	182.893
0.790048	186.976
0.845488	190.378
0.898912	194.461
0.955361	197.863
1.00979	201.265
1.06624	204.441
