Adsorption isotherm of Nitrogen on MIL-101-D
DOI: 10.1021/Am302359b
Adsorbate Nitrogen: InChIKey IJGRMHOSHXDMSA-UHFFFAOYSA-N
Temperature: 77 K
Tabular data in the source: 0
pressure (bar)	uptake (cm3(STP)/g)
0.0935538	452.033
0.133134	464.228
0.194304	468.293
0.241081	472.358
0.287858	468.293
0.341831	476.423
0.388608	472.358
0.431787	476.423
0.482162	480.488
0.536135	476.423
0.568519	484.553
0.611698	476.423
0.683662	476.423
0.705252	480.488
0.773618	480.488
0.820395	484.553
0.867172	484.553
0.903154	480.488
0.939136	496.748
0.967922	508.943
