Adsorption isotherm of Nitrogen on MIL-101-A
DOI: 10.1021/Am302359b
Adsorbate Nitrogen: InChIKey IJGRMHOSHXDMSA-UHFFFAOYSA-N
Temperature: 77 K
Tabular data in the source: 0
pressure (bar)	uptake (cm3(STP)/g)
0.032384	378.862
0.064768	411.382
0.097152	431.707
0.169116	452.033
0.219492	456.098
0.582912	480.488
0.726841	476.423
0.780814	480.488
0.834788	480.488
0.903154	492.683
0.939136	504.878
0.964324	529.268
