Adsorption isotherm of Nitrogen on MIL-101-B
DOI: 10.1021/Am302359b
Adsorbate Nitrogen: InChIKey IJGRMHOSHXDMSA-UHFFFAOYSA-N
Temperature: 77 K
Tabular data in the source: 0
pressure (bar)	uptake (cm3(STP)/g)
0.0755627	370.732
0.097152	378.862
0.133134	427.642
0.194304	447.967
0.244679	452.033
0.291456	456.098
0.331036	456.098
0.38501	460.163
0.431787	468.293
0.482162	464.228
0.52534	464.228
0.579314	468.293
0.626091	468.293
0.680064	472.358
0.726841	468.293
0.773618	468.293
0.820395	472.358
0.881564	476.423
0.960725	504.878
