Adsorption isotherm of Nitrogen on MIL-101 Activated
DOI: 10.1021/Am302359b
Adsorbate Nitrogen: InChIKey IJGRMHOSHXDMSA-UHFFFAOYSA-N
Temperature: 77 K
Tabular data in the source: 0
pressure (bar)	uptake (cm3(STP)/g)
0.140331	854.472
0.194304	923.577
0.237483	1025.2
0.287858	1037.4
0.338233	1045.53
0.388608	1049.59
0.438983	1053.66
0.478564	1057.72
0.532537	1061.79
0.579314	1069.92
0.626091	1069.92
0.680064	1069.92
0.70885	1078.05
0.773618	1078.05
0.798805	1078.05
0.845582	1086.18
0.877966	1090.24
0.906752	1094.31
0.946332	1106.5
0.964324	1126.83
