Adsorption isotherm of Nitrogen on MIL-101-C
DOI: 10.1021/Am302359b
Adsorbate Nitrogen: InChIKey IJGRMHOSHXDMSA-UHFFFAOYSA-N
Temperature: 77 K
Tabular data in the source: 0
pressure (bar)	uptake (cm3(STP)/g)
0.133134	419.512
0.187108	415.447
0.241081	423.577
0.291456	427.642
0.338233	431.707
0.392206	431.707
0.435385	427.642
0.48576	431.707
0.528939	435.772
0.579314	435.772
0.626091	439.837
0.669269	439.837
0.723243	439.837
0.777216	447.967
0.816796	447.967
0.867172	443.902
0.903154	447.967
0.964324	472.358
