Adsorption isotherm of Nitrogen on UiO-66
DOI: 10.1002/chem.201300326
Adsorbate Nitrogen: InChIKey IJGRMHOSHXDMSA-UHFFFAOYSA-N
Temperature: 77 K
Tabular data in the source: 0
pressure (bar)	uptake (mmol/g)
0.0105646	0.0749056
0.0586318	10.0641
0.100144	10.1952
0.146027	10.2739
0.202833	10.3526
0.248716	10.3526
0.288044	10.3788
0.342665	10.3788
0.388548	10.3788
0.449724	10.3788
0.530565	10.405
0.652918	10.4312
0.711909	10.4312
0.801489	10.405
0.840817	10.405
0.901993	10.4312
