Adsorption isotherm of Nitrogen on UiO-66
DOI: 10.1002/chem.201300326
Adsorbate Nitrogen: InChIKey IJGRMHOSHXDMSA-UHFFFAOYSA-N
Temperature: 77 K
Tabular data in the source: 0
pressure (bar)	uptake (mmol/g)
0.0651864	3.82415
0.106699	4.11255
0.146027	4.21743
0.200649	4.26986
0.248716	4.3223
0.292413	4.42717
0.34922	4.42717
0.449724	4.58449
0.52838	4.63692
0.587371	4.68936
0.648548	4.79423
0.746867	4.84667
0.834262	4.89911
0.910733	4.89911
