Adsorption isotherm of Nitrogen on CH3(2)-PCN-125
DOI: 10.1021/Ja3085884
Adsorbate Nitrogen: InChIKey IJGRMHOSHXDMSA-UHFFFAOYSA-N
Temperature: 77 K
Tabular data in the source: 0
pressure (bar)	uptake (cm3(STP)/g)
0.00488201	0.00488201
0.014646	297.207
0.0292921	305.028
0.0878762	316.76
0.165988	320.67
0.234336	324.581
0.375915	328.492
0.497965	328.492
0.595605	332.402
0.673717	332.402
0.756712	336.313
0.893408	336.313
0.932464	332.402
