Adsorption isotherm of Carbon Dioxide on CH3(2)-PCN-125
DOI: 10.1021/Ja3085884
Adsorbate Carbon Dioxide: InChIKey CURLTUGMZLYLDI-UHFFFAOYSA-N
Temperature: 273 K
Tabular data in the source: 0
pressure (bar)	uptake (cm3(STP)/g)
0.118023	-3.68098
0.12804	-1.47239
0.136236	0.490798
0.144433	2.69939
0.148986	3.43558
0.155816	5.15337
0.16128	6.38037
0.166744	7.60736
0.172208	8.83436
0.185413	11.7791
0.194975	13.7423
0.200894	14.9693
0.20818	16.6871
0.214099	17.9141
