Adsorption isotherm of Nitrogen on PCN-125/NO2
DOI: 10.1021/Ja3085884
Adsorbate Nitrogen: InChIKey IJGRMHOSHXDMSA-UHFFFAOYSA-N
Temperature: 77 K
Tabular data in the source: 0
pressure (bar)	uptake (cm3(STP)/g)
0.00522323	0.00522323
0.047009	236.486
0.0887948	243.243
0.156697	246.622
0.255938	250
0.33951	253.378
0.423081	253.378
0.511876	256.757
0.574555	256.757
0.658126	260.135
0.757368	263.514
0.861832	266.892
0.924511	273.649
