Adsorption isotherm of Nitrogen on PCN-125
DOI: 10.1021/Ja3085884
Adsorbate Nitrogen: InChIKey IJGRMHOSHXDMSA-UHFFFAOYSA-N
Temperature: 77 K
Tabular data in the source: 0
pressure (bar)	uptake (cm3(STP)/g)
0.00488201	508.38
0.00976402	555.307
0.014646	586.592
0.0341741	602.235
0.0732302	613.966
0.126932	617.877
0.175752	621.788
0.244101	625.698
0.283157	621.788
0.356387	625.698
0.449145	625.698
0.556549	629.609
0.663953	629.609
0.742066	625.698
0.795768	625.698
0.868998	625.698
0.932464	625.698
