Adsorption isotherm of Nitrogen on NO2-NH2-PCN-125
DOI: 10.1021/Ja3085884
Adsorbate Nitrogen: InChIKey IJGRMHOSHXDMSA-UHFFFAOYSA-N
Temperature: 77 K
Tabular data in the source: 0
pressure (bar)	uptake (cm3(STP)/g)
0.00489431	0.00489431
0.0122358	376.562
0.0244715	388.901
0.0538374	403.03
0.100333	410.152
0.161512	413.782
0.225138	417.417
0.26674	419.251
0.310789	421.091
0.35239	422.926
0.40378	424.778
0.445382	423.094
0.499219	423.192
0.553057	425.049
0.592211	425.119
0.643601	428.732
0.70478	432.361
0.753723	430.691
0.797772	434.289
0.844268	437.893
0.900553	446.792
0.922577	450.351
