Adsorption isotherm of Nitrogen on PCN-125/NH2
DOI: 10.1021/Ja3085884
Adsorbate Nitrogen: InChIKey IJGRMHOSHXDMSA-UHFFFAOYSA-N
Temperature: 77 K
Tabular data in the source: 0
pressure (bar)	uptake (cm3(STP)/g)
0.00456113	443.192
0.00474521	493.366
0.00487816	529.603
0.0137754	554.664
0.0255873	574.143
0.0638149	593.545
0.122567	607.314
0.201825	609.874
0.269352	615.255
0.345674	617.824
0.424921	617.596
0.471882	617.461
0.530594	620.08
0.592241	622.691
0.650942	622.523
0.756605	622.219
0.803587	627.66
0.865223	627.483
0.891649	630.194
0.92101	632.898
