Adsorption isotherm of Nitrogen on PCN-125
DOI: 10.1021/Ja3085884
Adsorbate Nitrogen: InChIKey IJGRMHOSHXDMSA-UHFFFAOYSA-N
Temperature: 77 K
Tabular data in the source: 0
pressure (bar)	uptake (cm3(STP)/g)
5.55e-17	634.783
0.00961901	669.565
0.0240475	686.957
0.0529046	695.652
0.0865711	704.348
0.134666	704.348
0.173142	708.696
0.226047	713.043
0.274142	713.043
0.317427	713.043
0.38476	713.043
0.447284	717.391
0.509808	717.391
0.557903	717.391
0.620426	717.391
0.663712	713.043
0.721426	717.391
0.788759	717.391
0.860901	717.391
0.928234	717.391
