Adsorption isotherm of Nitrogen on PCN-125/SO3Na
DOI: 10.1021/Ja3085884
Adsorbate Nitrogen: InChIKey IJGRMHOSHXDMSA-UHFFFAOYSA-N
Temperature: 77 K
Tabular data in the source: 0
pressure (bar)	uptake (cm3(STP)/g)
0.00464842	156.069
0.00929684	249.711
0.0278905	260.116
0.0743747	277.457
0.134804	284.393
0.199882	291.329
0.26496	294.798
0.325389	294.798
0.385819	298.266
0.455545	301.734
0.520623	298.266
0.585701	301.734
0.646131	301.734
0.711208	308.671
0.771638	308.671
0.818122	312.139
0.864606	312.139
0.920387	319.075
