Adsorption isotherm of Carbon Dioxide on NO2(4)-PCN-125
DOI: 10.1021/Ja3085884
Adsorbate Carbon Dioxide: InChIKey CURLTUGMZLYLDI-UHFFFAOYSA-N
Temperature: 298 K
Tabular data in the source: 0
pressure (bar)	uptake (cm3(STP)/g)
0.062373	7.27273
0.137221	12.4675
0.199594	17.1429
0.23078	19.7403
0.293153	22.3377
0.349289	26.4935
0.39295	28.5714
0.455323	31.6883
0.505222	33.7662
0.542645	36.3636
0.592544	38.4416
0.642442	40.5195
0.711053	44.1558
0.792138	47.7922
0.860748	50.3896
0.904409	51.9481
1.08529	57.1429
