Adsorption isotherm of Nitrogen on PCN-125
DOI: 10.1021/Ja3085884
Adsorbate Nitrogen: InChIKey IJGRMHOSHXDMSA-UHFFFAOYSA-N
Temperature: 77 K
Tabular data in the source: 0
pressure (bar)	uptake (cm3(STP)/g)
2.59293e-06	112.994
3.93396e-06	117.514
7.57373e-06	122.034
1.45811e-05	126.554
2.34796e-05	140.113
3.78085e-05	162.712
5.09214e-05	185.311
7.72556e-05	225.989
0.00010405	262.147
0.000148734	298.305
0.000200318	325.424
0.000322567	366.102
0.000409327	397.74
0.000519422	442.938
0.000699568	492.655
0.00106135	537.853
0.00161028	569.492
0.00275207	596.61
0.00443149	614.689
0.00905524	637.288
0.0174333	655.367
0.0401282	668.927
0.11721	696.045
0.188739	700.565
0.519418	718.644
0.88772	718.644
