Adsorption isotherm of Nitrogen on NO2(2)-PCN-125
DOI: 10.1021/Ja3085884
Adsorbate Nitrogen: InChIKey IJGRMHOSHXDMSA-UHFFFAOYSA-N
Temperature: 77 K
Tabular data in the source: 0
pressure (bar)	uptake (cm3(STP)/g)
0.00244715	325.518
0.00489431	376.548
0.0122358	397.676
0.031813	410.028
0.0660731	418.888
0.127252	427.796
0.23248	431.506
0.323024	436.949
0.408675	437.104
0.442935	438.925
0.460065	435.437
0.496772	440.782
0.545715	440.871
0.597105	442.724
0.660731	442.839
0.72191	444.709
0.770853	446.557
0.827138	448.419
0.883422	452.04
0.922577	460.908
