Adsorption isotherm of Carbon Dioxide on H(1)-PCN-125
DOI: 10.1021/Ja3085884
Adsorbate Carbon Dioxide: InChIKey CURLTUGMZLYLDI-UHFFFAOYSA-N
Temperature: 298 K
Tabular data in the source: 0
pressure (bar)	uptake (cm3(STP)/g)
0.336814	23.3766
0.436611	28.0519
0.55512	34.2857
0.654917	39.4805
0.754714	44.1558
0.835799	47.7922
0.866985	49.3506
0.910646	51.9481
0.954307	53.5065
1.01044	55.0649
1.04163	56.6234
1.07905	58.1818
