Adsorption isotherm of Nitrogen on H(1)-PCN-125
DOI: 10.1021/Ja3085884
Adsorbate Nitrogen: InChIKey IJGRMHOSHXDMSA-UHFFFAOYSA-N
Temperature: 77 K
Tabular data in the source: 0
pressure (bar)	uptake (cm3(STP)/g)
5.55e-17	5.55e-17
0.0048095	439.13
0.0240475	478.261
0.0529046	500
0.0865711	504.348
0.139476	513.043
0.230856	517.391
0.283761	517.391
0.365522	526.087
0.437665	526.087
0.504998	526.087
0.572331	526.087
0.644474	526.087
0.716616	530.435
0.812806	530.435
0.87052	534.783
0.923425	530.435
