Adsorption isotherm of Nitrogen on PCN-125/NH2
DOI: 10.1021/Ja3085884
Adsorbate Nitrogen: InChIKey IJGRMHOSHXDMSA-UHFFFAOYSA-N
Temperature: 77 K
Tabular data in the source: 0
pressure (bar)	uptake (cm3(STP)/g)
0.00507246	582.564
0.00517473	610.438
0.0111369	635.508
0.0171093	663.366
0.0318665	685.623
0.0583333	699.484
0.131731	704.849
0.181637	707.493
0.28731	709.977
0.375373	712.512
0.47224	715.021
0.557347	711.99
0.66888	711.67
0.739332	714.255
0.806829	711.274
0.839114	711.181
0.87727	711.072
0.921296	710.945
