Adsorption isotherm of Carbon Dioxide on CH2NH2(1)-PCN-125
DOI: 10.1021/Ja3085884
Adsorbate Carbon Dioxide: InChIKey CURLTUGMZLYLDI-UHFFFAOYSA-N
Temperature: 273 K
Tabular data in the source: 0
pressure (bar)	uptake (cm3(STP)/g)
0.117112	3.43558
0.122121	5.15337
0.129862	7.60736
0.136236	9.32515
0.144888	12.0245
0.150807	13.4969
0.156727	15.2147
0.162646	16.6871
0.16811	18.1595
0.171753	19.1411
0.177217	20.6135
0.184957	22.5767
0.193154	24.7853
0.200894	26.5031
0.208635	28.4663
0.214099	29.6933
