Adsorption isotherm of Nitrogen on NO2(2)-PCN-125
DOI: 10.1021/Ja3085884
Adsorbate Nitrogen: InChIKey IJGRMHOSHXDMSA-UHFFFAOYSA-N
Temperature: 77 K
Tabular data in the source: 0
pressure (bar)	uptake (cm3(STP)/g)
2.36837e-05	114.286
3.55353e-05	123.81
4.35281e-05	135.714
6.20798e-05	154.762
8.41608e-05	178.571
0.000108453	197.619
0.000139756	211.905
0.000189465	226.19
0.000256856	242.857
0.000348217	257.143
0.000448725	278.571
0.000549655	297.619
0.000673271	314.286
0.00096024	333.333
0.00144075	347.619
0.00216172	359.524
0.00293062	366.667
0.00538617	378.571
0.00850198	390.476
0.0134199	400
0.0211831	407.143
0.0501695	419.048
0.0833106	421.429
0.138347	428.571
0.241691	435.714
0.737634	445.238
0.950547	459.524
