Adsorption isotherm of Carbon Dioxide on SO3H-CH2NH2-PCN-125
DOI: 10.1021/Ja3085884
Adsorbate Carbon Dioxide: InChIKey CURLTUGMZLYLDI-UHFFFAOYSA-N
Temperature: 298 K
Tabular data in the source: 0
pressure (bar)	uptake (cm3(STP)/g)
0.193356	15.0649
0.32434	23.3766
0.399187	27.013
0.505222	32.2078
0.548883	34.8052
0.62373	38.961
0.891934	50.9091
0.960545	54.026
0.997969	55.5844
1.04163	57.1429
1.07905	58.1818
