Adsorption isotherm of Nitrogen on PCN-125/NO2
DOI: 10.1021/Ja3085884
Adsorbate Nitrogen: InChIKey IJGRMHOSHXDMSA-UHFFFAOYSA-N
Temperature: 77 K
Tabular data in the source: 0
pressure (bar)	uptake (cm3(STP)/g)
0.00522323	378.378
0.0156697	405.405
0.0313394	412.162
0.0835716	422.297
0.130581	429.054
0.219375	432.432
0.334286	439.189
0.412635	439.189
0.480537	442.568
0.611117	442.568
0.673796	445.946
0.830493	449.324
0.893172	459.459
0.929734	459.459
