Adsorption isotherm of Carbon Dioxide on NH2(1)-PCN-125
DOI: 10.1021/Ja3085884
Adsorbate Carbon Dioxide: InChIKey CURLTUGMZLYLDI-UHFFFAOYSA-N
Temperature: 273 K
Tabular data in the source: 0
pressure (bar)	uptake (cm3(STP)/g)
0.117112	10.3067
0.123487	12.5153
0.12804	14.2331
0.133049	15.9509
0.138513	17.9141
0.143067	19.3865
0.148075	21.3497
0.153539	23.0675
0.159459	25.0307
0.164923	26.9939
0.170842	28.9571
0.176306	30.9202
0.181315	32.638
0.186323	34.3558
0.190877	35.8282
0.197252	37.7914
0.204082	40
