Adsorption isotherm of Nitrogen on PCN-125/NO2
DOI: 10.1021/Ja3085884
Adsorbate Nitrogen: InChIKey IJGRMHOSHXDMSA-UHFFFAOYSA-N
Temperature: 77 K
Tabular data in the source: 0
pressure (bar)	uptake (cm3(STP)/g)
0.00522323	0.00522323
0.0104465	378.378
0.0261161	391.892
0.0522323	402.027
0.443974	425.676
0.490983	425.676
0.537992	429.054
0.605894	429.054
0.668573	429.054
0.736475	432.432
0.773037	432.432
0.846163	439.189
0.882725	442.568
0.929734	445.946
