Adsorption isotherm of Carbon Dioxide on SO3Na(2)-PCN-125
DOI: 10.1021/Ja3085884
Adsorbate Carbon Dioxide: InChIKey CURLTUGMZLYLDI-UHFFFAOYSA-N
Temperature: 298 K
Tabular data in the source: 0
pressure (bar)	uptake (cm3(STP)/g)
0.293153	19.7403
0.368001	23.8961
0.442849	27.5325
0.505222	30.6494
0.580069	33.7662
0.62373	35.3247
0.661154	37.4026
0.71729	39.4805
0.729765	40
0.754714	41.039
0.792138	42.5974
0.848273	44.6753
0.910646	46.7532
0.94807	47.7922
0.991731	49.3506
1.01668	50.3896
1.04787	51.4286
1.08529	52.4675
