Adsorption isotherm of Carbon Dioxide on PCN-125
DOI: 10.1021/Ja3085884
Adsorbate Carbon Dioxide: InChIKey CURLTUGMZLYLDI-UHFFFAOYSA-N
Temperature: 273 K
Tabular data in the source: 0
pressure (bar)	uptake (cm3(STP)/g)
0.118023	-2.69939
0.121666	-1.71779
0.126219	-0.245399
0.133049	1.71779
0.138058	3.19018
0.144433	4.90798
0.150352	6.62577
0.156727	8.34356
0.164467	10.5521
0.169021	11.5337
0.174485	13.2515
0.179949	14.9693
0.186323	16.6871
0.192243	18.1595
0.196341	19.3865
0.199073	20.1227
0.204537	21.5951
0.209546	23.0675
0.214099	24.2945
