Adsorption isotherm of Nitrogen on PCN-125/NO2
DOI: 10.1021/Ja3085884
Adsorbate Nitrogen: InChIKey IJGRMHOSHXDMSA-UHFFFAOYSA-N
Temperature: 77 K
Tabular data in the source: 0
pressure (bar)	uptake (cm3(STP)/g)
0.00464842	378.035
0.0185937	402.312
0.0511326	419.653
0.111562	426.59
0.195234	433.526
0.283554	436.994
0.371874	440.462
0.436952	440.462
0.483436	440.462
0.539217	440.462
0.613592	443.931
0.683318	443.931
0.757693	447.399
0.804177	447.399
0.869255	450.867
0.920387	461.272
