Adsorption isotherm of Nitrogen on PCN-125/H
DOI: 10.1021/Ja3085884
Adsorbate Nitrogen: InChIKey IJGRMHOSHXDMSA-UHFFFAOYSA-N
Temperature: 77 K
Tabular data in the source: 0
pressure (bar)	uptake (cm3(STP)/g)
5.55e-17	430.435
0.0048095	513.043
0.00961901	639.13
0.028857	656.522
0.0673331	673.913
0.110619	678.261
0.163523	682.609
0.221237	682.609
0.278951	678.261
0.351094	678.261
0.413617	678.261
0.49057	678.261
0.562712	673.913
0.620426	673.913
0.67814	673.913
0.750283	669.565
0.788759	665.217
0.87052	665.217
0.923425	665.217
