Adsorption isotherm of Nitrogen on PCN-125/NH2
DOI: 10.1021/Ja3085884
Adsorbate Nitrogen: InChIKey IJGRMHOSHXDMSA-UHFFFAOYSA-N
Temperature: 77 K
Tabular data in the source: 0
pressure (bar)	uptake (cm3(STP)/g)
0.000357936	97.5599
0.00425432	359.57
0.00441795	404.169
0.00745529	432.034
0.0164139	473.821
0.0517371	501.594
0.0723031	507.11
0.10462	515.379
0.131056	520.878
0.157482	523.59
0.198593	529.047
0.236759	531.725
0.269066	537.207
0.310167	539.877
0.371814	542.487
0.430525	545.106
0.474562	547.767
0.521523	547.633
0.574354	547.481
0.624261	550.125
0.697648	552.702
0.744609	552.567
0.803311	552.399
0.864937	549.435
0.906038	552.104
0.923669	557.629
