Adsorption isotherm of Carbon Dioxide on NO2(1)-PCN-125
DOI: 10.1021/Ja3085884
Adsorbate Carbon Dioxide: InChIKey CURLTUGMZLYLDI-UHFFFAOYSA-N
Temperature: 273 K
Tabular data in the source: 0
pressure (bar)	uptake (cm3(STP)/g)
0.0121663	1.45631
0.0243326	6.5534
0.0486652	10.1942
0.0689424	13.835
0.0892195	18.2039
0.113552	21.8447
0.133829	25.4854
0.150051	29.1262
0.174384	32.0388
0.194661	35.6796
0.214938	38.5922
0.23116	40.7767
0.271714	47.3301
0.312268	53.1553
0.332546	56.068
0.3731	61.8932
0.41771	66.9903
0.454209	71.3592
0.478541	74.2718
0.51504	78.6408
0.555594	83.7379
0.596149	88.1068
0.632648	92.4757
0.677257	96.8447
0.717812	101.214
0.758366	104.854
0.79892	109.223
0.815142	111.408
0.855696	115.049
0.924639	121.602
0.961138	125.243
0.989526	128.155
1.03819	131.796
1.09902	136.893
