Adsorption isotherm of Carbon Dioxide on NH2(2)-PCN-125
DOI: 10.1021/Ja3085884
Adsorbate Carbon Dioxide: InChIKey CURLTUGMZLYLDI-UHFFFAOYSA-N
Temperature: 298 K
Tabular data in the source: 0
pressure (bar)	uptake (cm3(STP)/g)
0.318102	28.0519
0.374238	32.7273
0.498984	41.5584
0.617493	50.3896
0.698578	55.5844
0.773426	60.7792
0.842036	64.9351
0.873223	66.4935
0.898172	68.5714
0.923121	70.6494
0.973019	73.7662
1.00421	75.8442
1.03539	77.4026
1.06034	78.961
1.08529	80.5195
