Adsorption isotherm of Nitrogen on SO3H(1)-PCN-125
DOI: 10.1021/Ja3085884
Adsorbate Nitrogen: InChIKey IJGRMHOSHXDMSA-UHFFFAOYSA-N
Temperature: 77 K
Tabular data in the source: 0
pressure (bar)	uptake (cm3(STP)/g)
0.00489431	198.836
0.0122358	242.837
0.0269187	258.7
0.0489431	267.537
0.0832032	276.397
0.122358	281.747
0.166406	287.105
0.225138	290.73
0.276528	292.583
0.340154	296.217
0.38665	299.821
0.416016	299.874
0.440488	299.918
0.469854	299.971
0.523691	300.069
0.599553	303.725
0.658284	305.591
0.70478	305.675
0.761065	307.537
0.814902	311.153
0.841821	312.962
0.88587	316.56
0.922577	318.386
