Adsorption isotherm of Carbon Dioxide on H(1)-PCN-125
DOI: 10.1021/Ja3085884
Adsorbate Carbon Dioxide: InChIKey CURLTUGMZLYLDI-UHFFFAOYSA-N
Temperature: 273 K
Tabular data in the source: 0
pressure (bar)	uptake (cm3(STP)/g)
0.117112	1.22699
0.123942	3.19018
0.131683	5.39877
0.138058	7.11656
0.144433	9.07975
0.149441	10.3067
0.152629	11.2883
0.155816	12.0245
0.159914	13.0061
0.164012	14.2331
0.167655	15.2147
0.171753	16.1963
0.176761	17.6687
0.18177	18.8957
0.186779	20.3681
0.190877	21.3497
0.19452	22.3313
0.199073	23.5583
0.20818	25.7669
0.214099	27.4847
