Adsorption isotherm of Carbon Dioxide on NH2(2)-PCN-125
DOI: 10.1021/Ja3085884
Adsorbate Carbon Dioxide: InChIKey CURLTUGMZLYLDI-UHFFFAOYSA-N
Temperature: 273 K
Tabular data in the source: 0
pressure (bar)	uptake (cm3(STP)/g)
0.117112	4.17178
0.123032	5.88957
0.130317	8.09816
0.139424	10.3067
0.144433	12.0245
0.149897	13.7423
0.163101	17.6687
0.171297	20.1227
0.177217	21.8405
0.183591	23.8037
0.191787	26.0123
0.199984	28.4663
0.207724	30.6748
0.214099	32.3926
