Adsorption isotherm of Carbon Dioxide on SO3H(2)-PCN-125
DOI: 10.1021/Ja3085884
Adsorbate Carbon Dioxide: InChIKey CURLTUGMZLYLDI-UHFFFAOYSA-N
Temperature: 298 K
Tabular data in the source: 0
pressure (bar)	uptake (cm3(STP)/g)
0.0561357	3.63636
0.106034	6.75325
0.168407	10.3896
0.224543	12.4675
0.255729	14.026
0.311865	16.1039
0.343052	17.1429
0.386713	18.7013
0.417899	19.7403
0.46156	21.2987
0.517696	23.3766
0.580069	24.9351
0.629968	26.4935
0.679866	28.5714
0.711053	29.0909
0.736002	29.0909
0.767188	31.1688
0.7859	31.1688
0.810849	31.6883
0.842036	32.7273
0.898172	34.2857
0.94807	35.3247
0.979257	35.8442
1.01044	36.3636
1.02916	37.4026
1.06034	37.9221
1.07905	38.4416
