Adsorption isotherm of Carbon Dioxide on NO2(1)-PCN-125
DOI: 10.1021/Ja3085884
Adsorbate Carbon Dioxide: InChIKey CURLTUGMZLYLDI-UHFFFAOYSA-N
Temperature: 298 K
Tabular data in the source: 0
pressure (bar)	uptake (cm3(STP)/g)
0.286916	25.974
0.355526	30.6494
0.405425	34.2857
0.474035	39.4805
0.536408	44.1558
0.617493	48.8312
0.692341	54.026
0.767188	59.2208
0.835799	64.4156
0.891934	67.5325
0.954307	71.6883
0.991731	74.8052
1.02292	76.8831
1.06034	78.4416
1.08529	80
