Adsorption isotherm of Carbon Dioxide on CH3(1)-PCN-125
DOI: 10.1021/Ja3085884
Adsorbate Carbon Dioxide: InChIKey CURLTUGMZLYLDI-UHFFFAOYSA-N
Temperature: 273 K
Tabular data in the source: 0
pressure (bar)	uptake (cm3(STP)/g)
0.117112	7.85276
0.125308	10.5521
0.131683	12.7607
0.138968	15.2147
0.144433	17.1779
0.152629	19.8773
0.159003	22.0859
0.166744	24.7853
0.172663	26.7485
0.179493	28.9571
0.184047	30.4294
0.1886	31.9018
0.19543	34.1104
0.199984	35.8282
0.205448	37.546
0.210456	38.773
0.214099	40
