Adsorption isotherm of Nitrogen on CH2NH2(1)-PCN-125
DOI: 10.1021/Ja3085884
Adsorbate Nitrogen: InChIKey IJGRMHOSHXDMSA-UHFFFAOYSA-N
Temperature: 77 K
Tabular data in the source: 0
pressure (bar)	uptake (cm3(STP)/g)
2.52523e-05	130.337
4.09168e-05	148.876
5.87641e-05	170.506
9.52186e-05	201.404
0.000136748	226.124
0.000184898	244.663
0.000265541	263.202
0.000381366	287.921
0.000485447	309.551
0.000617934	328.09
0.000887466	346.629
0.00127453	368.258
0.00219362	386.798
0.00355444	405.337
0.00611761	420.787
0.0118793	439.326
0.0217166	454.775
0.0447932	470.225
0.0981338	479.494
0.214996	498.034
0.348367	510.393
0.531426	525.843
0.810679	550.562
