Adsorption isotherm of Carbon Dioxide on NO2(2)-PCN-125
DOI: 10.1021/Ja3085884
Adsorbate Carbon Dioxide: InChIKey CURLTUGMZLYLDI-UHFFFAOYSA-N
Temperature: 298 K
Tabular data in the source: 0
pressure (bar)	uptake (cm3(STP)/g)
0.23078	20.2597
0.305628	25.974
0.39295	33.2468
0.46156	37.9221
0.548883	44.6753
0.661154	51.4286
0.742239	56.1039
0.823324	61.2987
0.866985	64.4156
0.929358	68.5714
1.04163	73.7662
1.07905	76.3636
