Adsorption isotherm of Nitrogen on NO2-NH2-PCN-125
DOI: 10.1021/Ja3085884
Adsorbate Nitrogen: InChIKey IJGRMHOSHXDMSA-UHFFFAOYSA-N
Temperature: 77 K
Tabular data in the source: 0
pressure (bar)	uptake (cm3(STP)/g)
6.43e-05	141.604
7.45e-05	156.181
0.0001	175.636
0.000121649	190.223
0.000163219	204.83
0.000208521	217.003
0.000293826	234.045
0.000375379	251.066
0.000456636	268.077
0.000555495	285.088
0.000675756	302.099
0.001	319.152
0.00140909	331.345
0.00208521	345.973
0.00279776	353.308
0.00394221	358.228
0.00503651	367.977
0.00745315	372.908
0.00952182	380.232
0.0155414	390.032
0.0241535	397.398
0.0555495	407.27
0.0863316	412.211
0.140908	419.587
0.229986	424.539
0.324069	427.035
0.45664	431.956
0.782739	439.342
