Adsorption isotherm of Carbon Dioxide on CH2NH2(2)-PCN-125
DOI: 10.1021/Ja3085884
Adsorbate Carbon Dioxide: InChIKey CURLTUGMZLYLDI-UHFFFAOYSA-N
Temperature: 273 K
Tabular data in the source: 0
pressure (bar)	uptake (cm3(STP)/g)
0.117112	1.22699
0.126219	3.19018
0.131683	4.66258
0.138968	6.38037
0.146709	8.09816
0.153084	9.57055
0.158548	10.7975
0.165378	12.0245
0.174029	13.9877
0.183591	15.9509
0.192243	17.9141
0.196341	18.6503
0.202716	19.8773
0.207724	20.8589
0.214099	22.3313
