Adsorption isotherm of Carbon Dioxide on NH2(1)-PCN-125
DOI: 10.1021/Ja3085884
Adsorbate Carbon Dioxide: InChIKey CURLTUGMZLYLDI-UHFFFAOYSA-N
Temperature: 298 K
Tabular data in the source: 0
pressure (bar)	uptake (cm3(STP)/g)
0.0187119	2.07792
0.0748476	7.79221
0.155933	15.5844
0.218306	20.7792
0.299391	29.0909
0.355526	34.2857
0.411662	38.961
0.48651	44.6753
0.517696	47.7922
0.567595	50.9091
0.629968	55.5844
0.673629	58.7013
0.71729	61.8182
0.792138	67.013
0.87946	72.2078
0.960545	77.9221
1.02292	81.5584
1.07905	85.1948
