Adsorption isotherm of Carbon Dioxide on SO3Na(1)-PCN-125
DOI: 10.1021/Ja3085884
Adsorbate Carbon Dioxide: InChIKey CURLTUGMZLYLDI-UHFFFAOYSA-N
Temperature: 298 K
Tabular data in the source: 0
pressure (bar)	uptake (cm3(STP)/g)
0.224543	20.2597
0.286916	25.4545
0.374238	30.6494
0.411662	33.7662
0.467798	37.9221
0.523934	41.5584
0.567595	45.1948
0.629968	48.3117
0.679866	51.9481
0.711053	53.5065
0.760951	56.6234
0.817087	60.2597
0.842036	61.8182
0.898172	64.9351
0.929358	66.4935
0.94807	68.0519
0.979257	70.1299
1.00421	71.1688
1.02916	72.7273
1.08529	75.8442
