Adsorption isotherm of Nitrogen on PCN-125/H
DOI: 10.1021/Ja3085884
Adsorbate Nitrogen: InChIKey IJGRMHOSHXDMSA-UHFFFAOYSA-N
Temperature: 77 K
Tabular data in the source: 0
pressure (bar)	uptake (cm3(STP)/g)
0.00599704	0.00599704
0.00899556	629.155
0.0119941	666.157
0.0269867	683.195
0.0539733	697.351
0.0779615	705.821
0.113944	708.563
0.143929	711.322
0.176913	716.919
0.227887	716.77
0.269867	716.647
0.32384	719.336
0.38381	719.16
0.437784	721.849
0.500753	721.664
0.536735	724.406
0.58771	727.103
0.611698	724.186
0.64768	724.081
0.698655	726.778
0.752628	726.62
0.797606	729.335
0.839585	729.212
0.881564	729.089
0.923544	728.966
