Adsorption isotherm of Nitrogen on SO3Na(2)-PCN-125
DOI: 10.1021/Ja3085884
Adsorbate Nitrogen: InChIKey IJGRMHOSHXDMSA-UHFFFAOYSA-N
Temperature: 77 K
Tabular data in the source: 0
pressure (bar)	uptake (cm3(STP)/g)
2.58845e-05	110.465
3.86331e-05	117.442
6.06192e-05	129.651
8.60558e-05	143.605
0.00012844	157.558
0.000222756	175
0.000349526	188.953
0.000521663	202.907
0.000704417	215.116
0.00105133	225.581
0.00164964	232.558
0.00246207	239.535
0.00386331	246.512
0.00471965	250
0.00548441	262.209
0.00740577	270.93
0.00951174	283.14
0.013503	288.372
0.0191695	295.349
0.0234191	297.093
0.0300788	302.326
0.0406163	307.558
0.0860558	318.023
0.14925	326.744
0.349525	338.953
0.670019	347.674
0.818547	354.651
0.951176	373.837
