Adsorption isotherm of Nitrogen on CH2NH2(1)-PCN-125
DOI: 10.1021/Ja3085884
Adsorbate Nitrogen: InChIKey IJGRMHOSHXDMSA-UHFFFAOYSA-N
Temperature: 77 K
Tabular data in the source: 0
pressure (bar)	uptake (cm3(STP)/g)
0.00734146	408.224
0.00978861	424.065
0.0171301	443.433
0.0367073	461.064
0.063626	473.429
0.124805	487.616
0.173748	492.983
0.21535	498.337
0.254504	501.927
0.301	505.53
0.349943	510.898
0.411122	514.528
0.460065	519.895
0.494325	521.716
0.533479	527.066
0.570187	528.892
0.604447	534.233
0.631366	537.8
0.677862	541.404
0.719463	546.758
0.758618	550.348
0.785536	550.396
0.858951	550.529
0.922577	552.404
