Adsorption isotherm of Carbon Dioxide on NO2(1)-PCN-125
DOI: 10.1021/Ja3085884
Adsorbate Carbon Dioxide: InChIKey CURLTUGMZLYLDI-UHFFFAOYSA-N
Temperature: 273 K
Tabular data in the source: 0
pressure (bar)	uptake (cm3(STP)/g)
0.117112	7.60736
0.121666	9.32515
0.126674	11.0429
0.131228	12.7607
0.136692	14.4785
0.141245	15.7055
0.144888	17.1779
0.149897	18.6503
0.152629	19.3865
0.155361	20.3681
0.160369	21.8405
0.165378	23.5583
0.169476	24.7853
0.174029	26.2577
0.179949	27.9755
0.185413	29.6933
0.189966	31.1656
0.19543	32.638
0.199984	34.1104
0.204537	35.5828
0.20909	36.8098
0.213644	38.2822
