Adsorption isotherm of Carbon Dioxide on SO3Na(2)-PCN-125
DOI: 10.1021/Ja3085884
Adsorbate Carbon Dioxide: InChIKey CURLTUGMZLYLDI-UHFFFAOYSA-N
Temperature: 273 K
Tabular data in the source: 0
pressure (bar)	uptake (cm3(STP)/g)
0.117112	-1.47239
0.122121	-0.245399
0.12804	0.981595
0.135326	2.69939
0.140334	4.17178
0.146254	5.39877
0.151263	6.62577
0.157182	8.09816
0.162646	9.32515
0.168565	10.7975
0.173574	12.0245
0.180859	13.4969
0.186323	14.7239
0.190421	15.7055
0.195886	16.9325
0.201805	18.1595
0.207724	19.3865
0.214554	21.1043
