Adsorption isotherm of Carbon Dioxide on CH2NH2(2)-PCN-125
DOI: 10.1021/Ja3085884
Adsorbate Carbon Dioxide: InChIKey CURLTUGMZLYLDI-UHFFFAOYSA-N
Temperature: 298 K
Tabular data in the source: 0
pressure (bar)	uptake (cm3(STP)/g)
0.143458	10.9091
0.199594	14.026
0.237018	16.6234
0.280679	18.7013
0.32434	21.2987
0.386713	23.8961
0.436611	27.013
0.498984	29.0909
0.55512	31.1688
0.617493	33.2468
0.667392	35.3247
0.711053	36.3636
0.754714	37.9221
0.810849	39.4805
0.854511	41.039
0.898172	42.0779
0.954307	43.6364
0.991731	44.6753
1.02916	45.1948
1.08529	46.2338
