Adsorption isotherm of Carbon Dioxide on SO3Na(1)-PCN-125
DOI: 10.1021/Ja3085884
Adsorbate Carbon Dioxide: InChIKey CURLTUGMZLYLDI-UHFFFAOYSA-N
Temperature: 273 K
Tabular data in the source: 0
pressure (bar)	uptake (cm3(STP)/g)
0.117112	4.90798
0.121666	6.38037
0.126219	7.60736
0.130317	8.83436
0.135326	10.3067
0.139879	11.7791
0.148986	14.4785
0.154905	16.4417
0.158093	17.4233
0.164012	19.1411
0.169931	20.8589
0.176306	22.8221
0.180859	24.0491
0.184957	25.2761
0.191332	26.9939
0.196796	28.7117
0.202716	30.184
0.207724	31.6564
0.214099	33.3742
