Adsorption isotherm of Carbon Dioxide on CH3(1)-PCN-125
DOI: 10.1021/Ja3085884
Adsorbate Carbon Dioxide: InChIKey CURLTUGMZLYLDI-UHFFFAOYSA-N
Temperature: 273 K
Tabular data in the source: 0
pressure (bar)	uptake (cm3(STP)/g)
0.0162217	5.09709
0.137885	26.2136
0.214938	40.7767
0.300102	53.1553
0.356878	61.8932
0.409599	69.9029
0.437987	73.5437
0.462319	77.1845
0.490707	80.8252
0.519095	83.7379
0.547483	87.3786
0.571816	90.2913
0.600204	94.6602
0.648869	100.485
0.70159	107.767
0.758366	113.592
0.811087	119.417
0.84353	123.058
0.892195	128.883
0.944916	134.709
1.00169	141.99
1.05441	148.544
1.0828	150.728
