Adsorption isotherm of Nitrogen on PCN-125/H
DOI: 10.1021/Ja3085884
Adsorbate Nitrogen: InChIKey IJGRMHOSHXDMSA-UHFFFAOYSA-N
Temperature: 77 K
Tabular data in the source: 0
pressure (bar)	uptake (cm3(STP)/g)
0.00299852	577.927
0.00599704	626.317
0.00899556	640.543
0.0119941	666.157
0.0239881	683.204
0.0569719	697.342
0.0779615	705.821
0.113944	708.563
0.158921	711.278
0.212895	711.12
0.269867	716.647
0.305849	713.694
0.338833	716.445
0.395804	716.278
0.467769	716.067
0.530738	715.882
0.611698	715.645
0.683662	718.281
0.764622	715.197
0.824593	717.868
0.881564	714.854
0.926542	714.723
