Adsorption isotherm of Carbon Dioxide on SO3H-CH2NH2-PCN-125
DOI: 10.1021/Ja3085884
Adsorbate Carbon Dioxide: InChIKey CURLTUGMZLYLDI-UHFFFAOYSA-N
Temperature: 273 K
Tabular data in the source: 0
pressure (bar)	uptake (cm3(STP)/g)
0.117112	3.68098
0.125764	6.13497
0.134415	8.83436
0.142611	11.2883
0.148075	12.5153
0.158548	15.7055
0.163101	16.9325
0.168565	18.4049
0.178127	20.8589
0.184502	22.3313
0.189055	23.5583
0.195886	25.0307
0.200439	26.2577
0.206814	27.9755
0.210456	28.7117
0.214099	29.6933
