Adsorption isotherm of Nitrogen on PCN-125/CH2NH2:SO3H
DOI: 10.1021/Ja3085884
Adsorbate Nitrogen: InChIKey IJGRMHOSHXDMSA-UHFFFAOYSA-N
Temperature: 77 K
Tabular data in the source: 0
pressure (bar)	uptake (cm3(STP)/g)
0.00860203	203.797
0.00943038	88.6076
0.00987641	26.5823
0.0132854	252.532
0.0383587	265.823
0.11377	279.114
0.184179	287.975
0.259654	292.405
0.335161	292.405
0.405634	292.405
0.460973	296.835
0.521379	296.835
0.581752	301.266
0.63209	301.266
0.707565	305.696
0.77807	301.266
0.858547	310.127
0.918888	318.987
