Adsorption isotherm of Carbon Dioxide on NO2(4)-PCN-125
DOI: 10.1021/Ja3085884
Adsorbate Carbon Dioxide: InChIKey CURLTUGMZLYLDI-UHFFFAOYSA-N
Temperature: 273 K
Tabular data in the source: 0
pressure (bar)	uptake (cm3(STP)/g)
0.117112	3.68098
0.124398	5.64417
0.131683	7.85276
0.143977	11.5337
0.153084	13.9877
0.164467	17.1779
0.170842	19.1411
0.178127	21.1043
0.182681	22.3313
0.187234	23.5583
0.193154	25.0307
0.196341	26.0123
0.201805	27.4847
0.206814	28.7117
0.210912	29.9387
0.214099	30.9202
