Adsorption isotherm of Nitrogen on PCN-125/H
DOI: 10.1021/Ja3085884
Adsorbate Nitrogen: InChIKey IJGRMHOSHXDMSA-UHFFFAOYSA-N
Temperature: 77 K
Tabular data in the source: 0
pressure (bar)	uptake (cm3(STP)/g)
0.00299852	0.00299852
0.00599704	538.061
0.0119941	569.36
0.0179911	589.271
0.0449778	611.968
0.0689659	626.132
0.0929541	626.062
0.131935	631.642
0.164919	637.239
0.203899	637.125
0.24288	639.858
0.278862	639.752
0.317843	642.485
0.362821	645.2
0.401801	645.086
0.437784	644.98
0.476764	647.713
0.512747	647.608
0.557724	647.476
0.593707	650.217
0.632687	652.95
0.689659	652.783
0.746631	655.463
0.794607	655.323
0.845582	655.173
0.887561	660.744
0.926542	663.477
