Adsorption isotherm of Nitrogen on PCN-125/SO3Na
DOI: 10.1021/Ja3085884
Adsorbate Nitrogen: InChIKey IJGRMHOSHXDMSA-UHFFFAOYSA-N
Temperature: 77 K
Tabular data in the source: 0
pressure (bar)	uptake (cm3(STP)/g)
0.00929684	287.861
0.0464842	308.671
0.111562	322.543
0.167343	329.48
0.232421	332.948
0.330038	339.884
0.381171	343.353
0.432303	343.353
0.469491	339.884
0.515975	343.353
0.557811	343.353
0.599646	346.821
0.646131	346.821
0.687966	346.821
0.729802	350.289
0.771638	353.757
0.813474	357.225
0.855309	360.694
0.892497	367.63
0.920387	374.566
