Adsorption isotherm of Carbon Dioxide on CH3(1)-PCN-125
DOI: 10.1021/Ja3085884
Adsorbate Carbon Dioxide: InChIKey CURLTUGMZLYLDI-UHFFFAOYSA-N
Temperature: 298 K
Tabular data in the source: 0
pressure (bar)	uptake (cm3(STP)/g)
0.23078	22.3377
0.368001	33.2468
0.405425	36.3636
0.467798	40.5195
0.505222	43.1169
0.548883	47.2727
0.605018	51.4286
0.654917	55.0649
0.704815	59.2208
0.760951	62.8571
0.7859	64.9351
0.842036	69.6104
0.891934	72.2078
0.923121	74.2857
0.94807	76.3636
0.979257	77.9221
1.02916	81.039
1.09153	84.6753
