Adsorption isotherm of Nitrogen on PCN-125/CH2NH2:SO3H
DOI: 10.1021/Ja3085884
Adsorbate Nitrogen: InChIKey IJGRMHOSHXDMSA-UHFFFAOYSA-N
Temperature: 77 K
Tabular data in the source: 0
pressure (bar)	uptake (cm3(STP)/g)
0.00783741	310.127
0.008156	265.823
0.0176501	345.57
0.0426597	367.722
0.0979357	381.013
0.148242	385.443
0.213649	389.873
0.274054	389.873
0.354563	394.304
0.435104	394.304
0.535747	398.734
0.641425	403.165
0.711898	403.165
0.80754	403.165
0.878013	403.165
0.923317	403.165
