Adsorption isotherm of Nitrogen on PCN-125/CH2N3
DOI: 10.1021/Ja3085884
Adsorbate Nitrogen: InChIKey IJGRMHOSHXDMSA-UHFFFAOYSA-N
Temperature: 77 K
Tabular data in the source: 0
pressure (bar)	uptake (cm3(STP)/g)
0.00669047	469.62
0.0113419	522.785
0.0115968	487.342
0.0212183	549.367
0.0411942	571.519
0.0763988	575.949
0.111603	580.38
0.166943	584.81
0.23235	589.241
0.28769	593.671
0.34303	598.101
0.413471	602.532
0.47891	602.532
0.53425	606.962
0.599689	606.962
0.660095	606.962
0.7205	606.962
0.780905	606.962
0.85638	611.392
0.916817	606.962
