Adsorption isotherm of Carbon Dioxide on CH3(2)-PCN-125
DOI: 10.1021/Ja3085884
Adsorbate Carbon Dioxide: InChIKey CURLTUGMZLYLDI-UHFFFAOYSA-N
Temperature: 298 K
Tabular data in the source: 0
pressure (bar)	uptake (cm3(STP)/g)
0.374238	25.974
0.455323	30.1299
0.517696	32.7273
0.580069	35.3247
0.62373	37.9221
0.679866	40.5195
0.798375	45.7143
0.866985	48.8312
0.935596	51.9481
0.991731	54.026
1.04163	56.6234
1.08529	57.6623
