Adsorption isotherm of Carbon Dioxide on NH2(1)-PCN-125
DOI: 10.1021/Ja3085884
Adsorbate Carbon Dioxide: InChIKey CURLTUGMZLYLDI-UHFFFAOYSA-N
Temperature: 273 K
Tabular data in the source: 0
pressure (bar)	uptake (cm3(STP)/g)
0.154106	29.8544
0.174384	33.4951
0.210883	40.7767
0.251437	48.0583
0.300102	54.6117
0.332546	60.4369
0.377155	66.2621
0.413654	72.0874
0.458264	77.9126
0.490707	82.2816
0.51504	86.6505
0.551539	90.2913
0.600204	96.1165
0.616426	98.301
0.65698	103.398
0.697535	109.223
0.734033	113.592
0.778643	118.689
0.815142	123.058
0.863807	128.155
0.896251	131.796
0.940861	136.893
0.973304	140.534
1.02197	145.631
1.05036	148.544
1.07875	150.728
