Adsorption isotherm of Carbon Dioxide on PCN-125
DOI: 10.1021/Ja3085884
Adsorbate Carbon Dioxide: InChIKey CURLTUGMZLYLDI-UHFFFAOYSA-N
Temperature: 273 K
Tabular data in the source: 0
pressure (bar)	uptake (cm3(STP)/g)
0.0202772	2.91262
0.0405543	5.09709
0.0608315	8.73786
0.0892195	13.835
0.117608	17.4757
0.145996	21.1165
0.170328	25.4854
0.198716	29.1262
0.227104	32.767
0.251437	36.4078
0.279825	40.0485
0.308213	44.4175
0.32849	48.0583
0.356878	51.699
0.385266	55.3398
0.413654	58.9806
0.437987	61.8932
0.47043	65.534
0.494763	68.4466
0.51504	72.0874
0.543428	76.4563
0.571816	79.3689
0.600204	83.0097
0.652925	89.5631
0.705645	95.3883
0.738089	99.0291
0.762421	101.942
0.782699	105.583
0.811087	108.495
0.839475	112.136
0.896251	118.689
0.948971	124.515
0.977359	127.427
1.02602	133.252
1.05036	136.893
1.0828	139.078
