Adsorption isotherm of Nitrogen on PCN-125/H
DOI: 10.1021/Ja3085884
Adsorbate Nitrogen: InChIKey IJGRMHOSHXDMSA-UHFFFAOYSA-N
Temperature: 77 K
Tabular data in the source: 0
pressure (bar)	uptake (cm3(STP)/g)
0.00299852	0.00299852
0.00599704	446.958
0.0179911	472.545
0.0389807	492.412
0.0629689	503.73
0.0899556	506.498
0.113944	512.122
0.143929	514.881
0.176913	517.631
0.197902	517.57
0.230886	517.473
0.272865	520.197
0.32384	522.894
0.374815	522.745
0.422791	525.451
0.497754	525.232
0.554726	527.912
0.611698	527.745
0.683662	530.381
0.737636	530.223
0.794607	527.209
0.842584	529.915
0.872569	529.827
0.926542	529.669
