Adsorption isotherm of Nitrogen on CH3(1)-PCN-125
DOI: 10.1021/Ja3085884
Adsorbate Nitrogen: InChIKey IJGRMHOSHXDMSA-UHFFFAOYSA-N
Temperature: 77 K
Tabular data in the source: 0
pressure (bar)	uptake (cm3(STP)/g)
0.00488201	477.095
0.019528	508.38
0.0341741	524.022
0.0781122	539.665
0.126932	547.486
0.190398	547.486
0.239218	555.307
0.307567	555.307
0.375915	559.218
0.434499	559.218
0.497965	559.218
0.561431	559.218
0.624897	559.218
0.703009	559.218
0.77624	559.218
0.854352	563.128
0.9227	563.128
