Adsorption isotherm of Carbon Dioxide on NO2(2)-PCN-125
DOI: 10.1021/Ja3085884
Adsorbate Carbon Dioxide: InChIKey CURLTUGMZLYLDI-UHFFFAOYSA-N
Temperature: 273 K
Tabular data in the source: 0
pressure (bar)	uptake (cm3(STP)/g)
0.117112	2.69939
0.12121	3.92638
0.125308	5.15337
0.131228	6.62577
0.136236	8.09816
0.14079	9.57055
0.145799	11.0429
0.152629	12.5153
0.160369	14.7239
0.164923	15.9509
0.169476	17.1779
0.174029	18.4049
0.178127	19.3865
0.183136	20.8589
0.186779	21.8405
0.191787	23.0675
0.196341	24.2945
0.200439	25.2761
0.204537	26.2577
0.20909	27.4847
0.214099	28.7117
