Adsorption isotherm of Nitrogen on PCN-125/NO2
DOI: 10.1021/Ja3085884
Adsorbate Nitrogen: InChIKey IJGRMHOSHXDMSA-UHFFFAOYSA-N
Temperature: 77 K
Tabular data in the source: 0
pressure (bar)	uptake (cm3(STP)/g)
0.00522323	388.514
0.0104465	422.297
0.0208929	439.189
0.0313394	452.703
0.0626787	462.838
0.0992413	466.216
0.125357	469.595
0.156697	472.973
0.198483	472.973
0.235045	476.351
0.282054	476.351
0.33951	476.351
0.391742	479.73
0.480537	479.73
0.579778	479.73
0.642457	479.73
0.720805	479.73
0.783484	479.73
0.856609	479.73
0.893172	479.73
0.924511	483.108
