Adsorption isotherm of Carbon Dioxide on CH2NH2(1)-PCN-125
DOI: 10.1021/Ja3085884
Adsorbate Carbon Dioxide: InChIKey CURLTUGMZLYLDI-UHFFFAOYSA-N
Temperature: 298 K
Tabular data in the source: 0
pressure (bar)	uptake (cm3(STP)/g)
0.23078	20.2597
0.280679	23.8961
0.299391	25.974
0.336814	28.0519
0.374238	30.1299
0.436611	34.8052
0.492747	37.9221
0.542645	41.039
0.605018	44.1558
0.636205	46.2338
0.686103	48.8312
0.729765	51.4286
0.773426	53.5065
0.792138	54.5455
0.817087	56.1039
0.866985	58.7013
0.929358	61.8182
0.966782	63.8961
1.02292	65.974
1.04787	67.5325
1.07905	68.5714
