Adsorption isotherm of Nitrogen on SO3Na(2)-PCN-125
DOI: 10.1021/Ja3085884
Adsorbate Nitrogen: InChIKey IJGRMHOSHXDMSA-UHFFFAOYSA-N
Temperature: 77 K
Tabular data in the source: 0
pressure (bar)	uptake (cm3(STP)/g)
0.0146829	286.83
0.0464959	309.762
0.0685203	315.08
0.124805	322.22
0.163959	327.57
0.217797	331.186
0.278976	333.057
0.323024	338.415
0.401333	340.316
0.460065	342.182
0.486984	343.99
0.509008	344.03
0.535927	345.839
0.582423	345.923
0.621577	345.994
0.67052	349.601
0.712122	349.677
0.746382	351.498
0.783089	355.084
0.827138	356.923
0.851609	358.727
0.883422	365.823
0.922577	374.691
