Adsorption isotherm of Nitrogen on PCN-125
DOI: 10.1021/Ja3085884
Adsorbate Nitrogen: InChIKey IJGRMHOSHXDMSA-UHFFFAOYSA-N
Temperature: 77 K
Tabular data in the source: 0
pressure (bar)	uptake (cm3(STP)/g)
0.00605328	558.228
0.0106092	624.684
0.0253282	677.848
0.0554035	695.57
0.105678	704.43
0.166051	708.861
0.211355	708.861
0.266695	713.291
0.332134	713.291
0.397573	713.291
0.503283	713.291
0.563688	713.291
0.664364	713.291
0.754972	713.291
0.83548	717.722
0.921087	713.291
