Adsorption isotherm of Carbon Dioxide on PCN-125
DOI: 10.1021/Ja3085884
Adsorbate Carbon Dioxide: InChIKey CURLTUGMZLYLDI-UHFFFAOYSA-N
Temperature: 298 K
Tabular data in the source: 0
pressure (bar)	uptake (cm3(STP)/g)
0.280679	25.974
0.417899	36.3636
0.598781	48.8312
0.71729	56.6234
0.860748	67.013
0.891934	69.0909
0.954307	72.7273
0.979257	74.2857
1.00421	76.3636
1.02916	77.9221
1.0541	79.4805
1.09153	81.5584
