Adsorption isotherm of Nitrogen on PCN-125/CH2NH2
DOI: 10.1021/Ja3085884
Adsorbate Nitrogen: InChIKey IJGRMHOSHXDMSA-UHFFFAOYSA-N
Temperature: 77 K
Tabular data in the source: 0
pressure (bar)	uptake (cm3(STP)/g)
0.00464842	412.717
0.00929684	440.462
0.0325389	461.272
0.0557811	471.676
0.111562	489.017
0.181288	495.954
0.26496	502.89
0.297499	506.358
0.371874	513.295
0.427655	520.231
0.464842	520.231
0.511326	527.168
0.562459	530.636
0.613592	534.104
0.678669	544.509
0.734451	547.977
0.780935	551.445
0.850661	551.445
0.920387	554.913
