Adsorption isotherm of Carbon Dioxide on SO3H(1)-PCN-125
DOI: 10.1021/Ja3085884
Adsorbate Carbon Dioxide: InChIKey CURLTUGMZLYLDI-UHFFFAOYSA-N
Temperature: 273 K
Tabular data in the source: 0
pressure (bar)	uptake (cm3(STP)/g)
0.149897	-3.92638
0.156727	-2.69939
0.163101	-1.71779
0.169021	-0.736196
0.177672	0.490798
0.184957	1.47239
0.192698	2.69939
0.199984	3.68098
0.207269	4.90798
0.214099	5.64417
