Adsorption isotherm of Nitrogen on PCN-125/CH2NH2
DOI: 10.1021/Ja3085884
Adsorbate Nitrogen: InChIKey IJGRMHOSHXDMSA-UHFFFAOYSA-N
Temperature: 77 K
Tabular data in the source: 0
pressure (bar)	uptake (cm3(STP)/g)
0.00726394	389.873
0.0127438	327.848
0.0169811	438.608
0.0369569	460.759
0.067064	474.051
0.112304	482.911
0.162578	491.772
0.238021	500.633
0.313464	509.494
0.383937	509.494
0.42921	513.924
0.484549	518.354
0.539857	527.215
0.590163	531.646
0.640469	536.076
0.680708	540.506
0.746115	544.937
0.841757	544.937
0.882059	540.506
0.922265	549.367
