Adsorption isotherm of Nitrogen on SO3H-PCN-125
DOI: 10.1021/Ja3085884
Adsorbate Nitrogen: InChIKey IJGRMHOSHXDMSA-UHFFFAOYSA-N
Temperature: 77 K
Tabular data in the source: 0
pressure (bar)	uptake (cm3(STP)/g)
2.63932e-06	39.548
3.9831e-06	53.3898
5.66776e-06	61.2994
9.07114e-06	69.209
1.53976e-05	79.096
2.4644e-05	90.9605
3.50673e-05	96.8927
5.29202e-05	110.734
7.10038e-05	120.621
0.000107152	134.463
0.000181883	150.282
0.000308732	164.124
0.000524037	181.921
0.000662967	189.831
0.00100051	199.718
0.00150988	207.627
0.00214848	215.537
0.00343868	225.424
0.00518933	231.356
0.0140978	247.175
0.0225638	257.062
0.0513868	270.904
0.104049	280.791
0.210679	290.678
0.31794	296.61
0.572354	302.542
0.86375	314.407
