Adsorption isotherm of Benzene on C112H120Cl4Eu2N18O21Zn2
DOI: 10.1039/C2jm00001f
Adsorbate Benzene: InChIKey UHOVQNZJYSORNB-UHFFFAOYSA-N
Temperature: 295 K
Tabular data in the source: 0
pressure (bar)	uptake (cm3(STP)/g)
0.0120338	1.62295
0.0336948	3.2459
0.0457286	4.72131
0.0746099	6.34426
0.115525	7.52459
0.158847	8.40984
0.197355	9.29508
0.23827	10.1803
0.279185	10.918
0.317694	11.9508
0.351388	12.6885
0.392303	13.4262
0.435625	14.459
0.474134	15.0492
0.515049	15.9344
0.553557	16.6721
0.594472	17.5574
0.63298	18.2951
0.673895	19.0328
0.70759	19.918
0.750912	20.5082
0.796641	21.3934
0.830336	21.9836
0.880878	22.8689
