Adsorption isotherm of Nitrogen on C48H36EuN7O6
DOI: 10.1039/C2jm00001f
Adsorbate Nitrogen: InChIKey IJGRMHOSHXDMSA-UHFFFAOYSA-N
Temperature: 77 K
Tabular data in the source: 0
pressure (bar)	uptake (cm3(STP)/g)
0.00120391	86.6485
0.0013081	76.8392
0.00530185	100.817
0.00946925	108.447
0.0263877	115.531
0.0518378	119.346
0.0751752	122.071
0.100643	124.251
0.123997	125.341
0.149471	126.975
0.179204	127.52
0.200434	128.61
0.223783	130.245
0.249268	130.79
0.274747	131.88
0.300238	131.88
0.325717	132.97
0.35332	134.06
0.37881	134.06
0.400041	135.15
0.429768	136.24
0.448886	136.24
0.478602	138.42
0.499839	138.965
0.531684	140.599
0.555051	140.599
0.576293	140.599
0.603896	141.689
0.629375	142.779
0.65699	142.779
0.678215	144.414
0.707959	143.869
0.735563	144.959
0.756787	146.594
0.786521	147.139
0.807757	147.684
0.831117	148.229
0.856602	148.774
0.879957	149.864
0.90969	150.409
0.933045	151.499
0.962761	153.678
0.981809	160.218
0.988124	165.668
1.00277	186.376
