Adsorption isotherm of Cyclohexane on C48H36EuN7O6
DOI: 10.1039/C2jm00001f
Adsorbate Cyclohexane: InChIKey XDTMQSROBMDMFD-UHFFFAOYSA-N
Temperature: 295 K
Tabular data in the source: 0
pressure (bar)	uptake (cm3(STP)/g)
0.00481354	2.36066
0.0120338	3.68852
0.0144406	7.52459
0.0192542	6.4918
0.0216609	13.1311
0.0288812	17.2623
0.0361015	24.3443
0.0385083	22.5738
0.0409151	27.1475
0.0481354	28.3279
0.0529489	28.918
0.0649828	29.8033
0.0866437	30.8361
0.129966	32.3115
0.146813	32.7541
0.192542	33.6393
0.226236	34.9672
0.250304	36
0.293626	36.5902
0.322507	37.623
0.373049	38.2131
0.423591	38.6557
0.474134	38.9508
0.524676	39.3934
0.577625	39.6885
0.628167	40.1311
0.688336	40.8689
0.743692	41.1639
0.7822	41.3115
0.794234	41.7541
0.832742	42.0492
0.85681	41.9016
0.866437	42.3443
0.921793	42.3443
