Adsorption isotherm of Cyclohexane on C112H120Cl4Eu2N18O21Zn2
DOI: 10.1039/C2jm00001f
Adsorbate Cyclohexane: InChIKey XDTMQSROBMDMFD-UHFFFAOYSA-N
Temperature: 295 K
Tabular data in the source: 0
pressure (bar)	uptake (cm3(STP)/g)
0.0433219	0.737705
0.0866437	1.03279
0.120338	1.47541
0.15644	1.62295
0.197355	1.91803
0.235863	2.21311
0.274372	2.5082
0.31288	2.65574
0.351388	2.80328
0.389897	3.09836
0.433219	3.39344
0.4621	3.54098
0.510235	3.54098
0.54393	3.83607
0.582438	4.13115
0.62576	4.13115
0.659455	4.27869
0.705183	4.27869
0.743692	4.57377
0.784607	4.86885
0.820708	5.01639
0.85681	5.16393
0.897725	5.45902
0.93142	6.04918
