Adsorption isotherm of Nitrogen on C112H120Cl4Eu2N18O21Zn2
DOI: 10.1039/C2jm00001f
Adsorbate Nitrogen: InChIKey IJGRMHOSHXDMSA-UHFFFAOYSA-N
Temperature: 77 K
Tabular data in the source: 0
pressure (bar)	uptake (cm3(STP)/g)
0.00755919	88.2834
0.00773283	71.9346
0.00964289	92.0981
0.0202408	94.2779
0.0435782	97.0027
0.103027	99.7275
0.1285	101.362
0.156092	103.542
0.200677	105.722
0.25163	108.447
0.302588	110.627
0.3408	112.807
0.370522	114.441
0.404492	116.076
0.476669	120.436
0.508515	122.071
0.578579	125.341
0.646508	129.7
0.684732	130.79
0.714448	132.97
0.754779	135.695
0.790879	136.785
0.824837	139.51
0.858807	141.144
0.890648	143.324
0.926736	145.504
0.9607	147.684
0.986168	149.864
0.996754	153.134
1.00946	156.948
