Adsorption isotherm of Benzene on C48H36EuN7O6
DOI: 10.1039/C2jm00001f
Adsorbate Benzene: InChIKey UHOVQNZJYSORNB-UHFFFAOYSA-N
Temperature: 295 K
Tabular data in the source: 0
pressure (bar)	uptake (cm3(STP)/g)
0.0120338	9.88525
0.0144406	7.22951
0.0192542	13.2787
0.0216609	16.6721
0.0385083	18.5902
0.0577625	20.0656
0.0962708	20.9508
0.125152	21.6885
0.14922	22.5738
0.180508	22.7213
0.214202	22.8689
0.240677	22.8689
0.271965	23.6066
0.317694	24.0492
0.370643	24.0492
0.409151	24.9344
0.474134	24.9344
0.519862	25.2295
0.570404	25.5246
0.620947	25.5246
0.673895	26.1148
0.724438	26.4098
0.777387	26.7049
0.827929	27.2951
0.854403	27.4426
0.880878	27.2951
0.904945	27.5902
0.929013	27.7377
