Adsorption isotherm of O-Xylene on MOF-monoclinic
DOI: 10.1021/Jp9063017
Adsorbate O-Xylene: InChIKey CTQNGGLPUBDAKN-UHFFFAOYSA-N
Temperature: 423 K
Tabular data in the source: 0
pressure (bar)	uptake (mg/g)
0.00290686	1.53824
0.00534066	4.55514
0.00780827	4.21993
0.0107491	4.47627
0.0133857	4.12134
