Adsorption isotherm of Ethylbenzene on IRMOF-1
DOI: 10.1021/Jp9063017
Adsorbate Ethylbenzene: InChIKey YNQLUTRBYVCPMQ-UHFFFAOYSA-N
Temperature: 423 K
Tabular data in the source: 0
pressure (bar)	uptake (mg/g)
0.00157914	56.57
0.00644162	75.2333
0.00901588	78.4512
0.0115901	79.3092
0.0151369	93.8967
0.0216011	93.6822
0.0239466	95.3984
0.0281226	100.118
