Adsorption isotherm of P-Xylene on IRMOF-1
DOI: 10.1021/Jp9063017
Adsorbate P-Xylene: InChIKey URLKBWYHVLBVBO-UHFFFAOYSA-N
Temperature: 423 K
Tabular data in the source: 0
pressure (bar)	uptake (mg/g)
0.00278046	57.8571
0.00535472	88.5337
0.00970235	110.2
0.0147937	137.016
0.0214867	140.662
0.0261776	137.016
