Adsorption isotherm of P-Xylene on MOF-monoclinic
DOI: 10.1021/Jp9063017
Adsorbate P-Xylene: InChIKey URLKBWYHVLBVBO-UHFFFAOYSA-N
Temperature: 423 K
Tabular data in the source: 0
pressure (bar)	uptake (mg/g)
0.00265334	2.12979
0.00532376	4.02275
0.00775756	6.36923
0.0106646	9.09035
0.0129632	12.403
