Adsorption isotherm of Ethylbenzene on MOF-monoclinic
DOI: 10.1021/Jp9063017
Adsorbate Ethylbenzene: InChIKey YNQLUTRBYVCPMQ-UHFFFAOYSA-N
Temperature: 423 K
Tabular data in the source: 0
pressure (bar)	uptake (mg/g)
0.00268714	2.6819
0.00552658	3.25373
0.00836601	3.35233
0.0112562	3.35233
0.014028	4.45655
