Adsorption isotherm of M-Xylene on MOF-monoclinic
DOI: 10.1021/Jp9063017
Adsorbate M-Xylene: InChIKey IVSZLXZYQVIEFR-UHFFFAOYSA-N
Temperature: 423 K
Tabular data in the source: 0
pressure (bar)	uptake (mg/g)
0.00278855	1.3805
0.00567869	1.3805
0.00836601	1.36078
0.0111378	2.34669
0.0138759	4.10162
