Adsorption isotherm of O-Xylene on IRMOF-1
DOI: 10.1021/Jp9063017
Adsorbate O-Xylene: InChIKey CTQNGGLPUBDAKN-UHFFFAOYSA-N
Temperature: 423 K
Tabular data in the source: 0
pressure (bar)	uptake (mg/g)
0.00266605	58.5007
0.00872985	74.1607
0.0136495	104.408
0.0190269	126.504
0.0336715	129.507
