Adsorption isotherm of M-Xylene on IRMOF-1
DOI: 10.1021/Jp9063017
Adsorbate M-Xylene: InChIKey IVSZLXZYQVIEFR-UHFFFAOYSA-N
Temperature: 423 K
Tabular data in the source: 0
pressure (bar)	uptake (mg/g)
0.00186517	66.6525
0.00501148	115.563
0.0106748	132.511
0.0166242	147.956
0.0312689	141.52
