Adsorption isotherm of Methanol on [M(H2biim)3][M(Hbiim)(btc)]*2H2O
DOI: 10.1021/Ic051195k
Adsorbate Methanol: InChIKey OKKJLVBELUTLKV-UHFFFAOYSA-N
Temperature: 298 K
Tabular data in the source: 0
pressure (bar)	uptake (mg/g)
0.00182509	0.149791
0.00400996	9.93803
0.00619484	17.1044
0.0324133	31.612
0.0520772	37.9044
0.0651864	41.7498
0.0914049	45.2456
0.115439	47.8674
0.18317	50.4893
0.554598	58.7044
0.738128	63.9481
