Adsorption isotherm of Methane on Activated Carbon L1
DOI: 10.1016/j.jpcs.2013.01.036
Adsorbate Methane: InChIKey VNWKTOKETHGBQD-UHFFFAOYSA-N
Temperature: 863 K
Tabular data in the source: 0
pressure (bar)	uptake (mmol/g)
0.360897	0.117056
11.3727	1.63084
16.4853	2.23168
22.3844	2.61404
29.6601	2.72328
32.2164	3.05101
34.7727	3.97958
36.1491	6.05521
38.7054	9.87874
41.0651	13.2653
44.6046	14.6855
49.1273	15.9418
56.5996	17.4712
66.0382	18.6182
76.4601	19.7107
