Adsorption isotherm of Methane on Activated Carbon L7
DOI: 10.1016/j.jpcs.2013.01.036
Adsorbate Methane: InChIKey VNWKTOKETHGBQD-UHFFFAOYSA-N
Temperature: 1003 K
Tabular data in the source: 0
pressure (bar)	uptake (mmol/g)
0.557535	0.156053
7.83317	2.23168
15.3054	3.70647
18.0584	5.23589
23.171	9.66026
25.1374	12.009
30.8399	16.5426
33.3962	18.3998
36.3458	19.7653
40.6718	20.2023
48.1441	20.4754
54.8298	21.4586
79.8029	24.0804
