Adsorption isotherm of Nitrogen on Activated Carbon L7
DOI: 10.1016/j.jpcs.2013.01.036
Adsorbate Nitrogen: InChIKey IJGRMHOSHXDMSA-UHFFFAOYSA-N
Temperature: 77 K
Tabular data in the source: 0
pressure (bar)	uptake (mmol/g)
0.00619484	0.0187491
0.0389679	11.6485
0.0520772	14.6636
0.100144	16.63
0.146027	17.9409
0.253086	21.0871
0.309892	22.1359
0.408212	24.3644
0.493422	26.7241
0.61359	29.2149
0.69443	31.5745
0.792749	33.9342
0.895439	35.6384
0.985018	38.1292
