Adsorption isotherm of Methane on Activated Carbon L5
DOI: 10.1016/j.jpcs.2013.01.036
Adsorbate Methane: InChIKey VNWKTOKETHGBQD-UHFFFAOYSA-N
Temperature: 863 K
Tabular data in the source: 0
pressure (bar)	uptake (mmol/g)
0.360897	0.156053
13.929	1.19387
21.7945	1.74009
26.5138	2.55941
30.25	6.21908
31.4298	7.03841
38.1155	8.78631
44.0147	10.0972
49.9138	11.2443
56.4029	12.1182
63.4819	12.7191
72.134	13.1561
76.8533	13.2107
