Adsorption isotherm of Methane on Activated Carbon L4
DOI: 10.1016/j.jpcs.2013.01.036
Adsorbate Methane: InChIKey VNWKTOKETHGBQD-UHFFFAOYSA-N
Temperature: 1073 K
Tabular data in the source: 0
pressure (bar)	uptake (mmol/g)
0.557535	0.00781213
5.08022	2.28631
11.176	5.29051
15.3054	7.25689
20.8113	9.60563
25.334	11.2989
30.4466	12.1729
37.329	12.6645
44.408	12.6098
48.9306	12.6098
55.2231	13.3199
61.7122	14.7401
77.8365	17.7989
