Adsorption isotherm of Methane on Activated Carbon L15
DOI: 10.1016/j.jpcs.2013.01.036
Adsorbate Methane: InChIKey VNWKTOKETHGBQD-UHFFFAOYSA-N
Temperature: 1003 K
Tabular data in the source: 0
pressure (bar)	uptake (mmol/g)
0.164258	0.156053
6.06342	0.319919
9.20964	0.756894
14.7155	1.46698
19.0416	3.87034
24.3508	6.71068
26.3172	7.53
33.5928	9.38715
37.329	10.6434
41.4584	12.009
50.7004	13.3745
57.3861	14.03
65.055	14.1939
79.8029	14.7401
83.9323	14.904
