Adsorption isotherm of Methane on Activated Carbon L10
DOI: 10.1016/j.jpcs.2013.01.036
Adsorbate Methane: InChIKey VNWKTOKETHGBQD-UHFFFAOYSA-N
Temperature: 933 K
Tabular data in the source: 0
pressure (bar)	uptake (mmol/g)
0.950813	0.101432
11.7659	1.08462
20.418	2.12244
32.6096	3.37874
39.6886	4.5258
42.8348	6.65605
46.1777	9.7695
50.3071	12.6645
53.65	14.6855
58.7626	15.6687
65.6449	16.6519
71.1508	17.4712
79.0164	18.4544
