Adsorption isotherm of Methane on Activated Carbon L14
DOI: 10.1016/j.jpcs.2013.01.036
Adsorbate Methane: InChIKey VNWKTOKETHGBQD-UHFFFAOYSA-N
Temperature: 933 K
Tabular data in the source: 0
pressure (bar)	uptake (mmol/g)
0.164258	0.319919
10.1928	1.63084
13.929	2.55941
20.8113	7.80311
24.3508	10.8619
25.5306	11.8451
29.6601	13.3745
34.9693	14.1939
41.2617	14.904
48.9306	15.7779
55.4197	17.3073
61.1222	17.9628
66.0382	18.0174
79.8029	18.3451
