Adsorption isotherm of Methane on Activated Carbon L16
DOI: 10.1016/j.jpcs.2013.01.036
Adsorbate Methane: InChIKey VNWKTOKETHGBQD-UHFFFAOYSA-N
Temperature: 1073 K
Tabular data in the source: 0
pressure (bar)	uptake (mmol/g)
0.950813	0.101432
7.63653	0.593028
10.3895	0.756894
15.1088	2.45017
19.8281	5.50899
23.7609	8.40395
25.9239	9.82412
33.0029	11.1897
40.0819	13.4292
43.818	14.5762
51.6836	15.0132
60.5323	15.8325
66.6281	16.8157
73.9038	17.5258
83.539	18.7821
