Adsorption isotherm of Nitrogen on Activated Carbon L11
DOI: 10.1016/j.jpcs.2013.01.036
Adsorbate Nitrogen: InChIKey IJGRMHOSHXDMSA-UHFFFAOYSA-N
Temperature: 77 K
Tabular data in the source: 0
pressure (bar)	uptake (mmol/g)
0.00619484	0.243436
0.0433377	15.4502
0.0804806	17.4165
0.152581	19.7762
0.253086	22.3981
0.320817	23.9712
0.412581	25.8065
0.506531	27.1174
0.657287	30.0014
0.77964	31.5745
0.897623	33.9342
0.993758	37.2115
