Adsorption isotherm of Nitrogen on Activated Carbon L15
DOI: 10.1016/j.jpcs.2013.01.036
Adsorbate Nitrogen: InChIKey IJGRMHOSHXDMSA-UHFFFAOYSA-N
Temperature: 77 K
Tabular data in the source: 0
pressure (bar)	uptake (mmol/g)
0.00619484	0.112343
0.0542621	6.66697
0.0957747	7.45352
0.152581	8.10898
0.244346	8.63335
0.305523	9.15772
0.406027	9.551
0.504346	10.2065
0.593926	10.7308
0.700985	11.2552
0.808044	11.9107
0.888884	13.0905
0.995943	15.7123
