Adsorption isotherm of Methane on Activated Carbon L12
DOI: 10.1016/j.jpcs.2013.01.036
Adsorbate Methane: InChIKey VNWKTOKETHGBQD-UHFFFAOYSA-N
Temperature: 1073 K
Tabular data in the source: 0
pressure (bar)	uptake (mmol/g)
0.754174	0.101432
9.99619	1.19387
12.9458	1.84933
17.0752	4.68967
21.7945	7.58462
25.5306	9.93336
30.25	10.7527
34.7727	11.1897
43.0315	12.2275
50.897	12.8283
57.5827	13.3745
65.055	13.9754
77.05	14.4124
