Adsorption isotherm of Methane on Activated Carbon L2
DOI: 10.1016/j.jpcs.2013.01.036
Adsorbate Methane: InChIKey VNWKTOKETHGBQD-UHFFFAOYSA-N
Temperature: 933 K
Tabular data in the source: 0
pressure (bar)	uptake (mmol/g)
0.164258	0.0468097
13.5357	1.13925
21.008	1.84933
24.9407	2.55941
27.1038	3.92496
28.4802	6.38294
30.25	8.73168
31.8231	11.572
32.413	13.0468
36.5424	14.904
41.2617	15.7233
47.5542	16.9796
54.2399	17.6897
59.5491	18.0174
64.4651	18.072
68.7911	18.2359
75.0836	18.7821
