Adsorption isotherm of Methane on Activated Carbon L3
DOI: 10.1016/j.jpcs.2013.01.036
Adsorbate Methane: InChIKey VNWKTOKETHGBQD-UHFFFAOYSA-N
Temperature: 1003 K
Tabular data in the source: 0
pressure (bar)	uptake (mmol/g)
0.360897	0.00781213
5.08022	1.19387
12.9458	2.99639
23.5643	4.96278
26.9071	5.94597
31.0365	7.47538
34.1827	9.55101
37.329	12.6645
40.6718	15.9964
43.6214	17.5804
48.734	19.1645
56.2063	19.7107
61.1222	19.9292
67.6113	20.3661
76.4601	21.1855
