Adsorption isotherm of Methane on Activated Carbon L13
DOI: 10.1016/j.jpcs.2013.01.036
Adsorbate Methane: InChIKey VNWKTOKETHGBQD-UHFFFAOYSA-N
Temperature: 863 K
Tabular data in the source: 0
pressure (bar)	uptake (mmol/g)
0.164258	0.156053
11.3727	1.68547
18.4517	6.05521
21.2046	8.67706
24.5475	10.6434
26.7105	11.7359
32.6096	12.8283
36.1491	13.4292
42.2449	14.1939
49.9138	14.2485
57.3861	15.0132
64.0718	15.614
79.213	17.5804
