Adsorption isotherm of Methane on Activated Carbon L11
DOI: 10.1016/j.jpcs.2013.01.036
Adsorbate Methane: InChIKey VNWKTOKETHGBQD-UHFFFAOYSA-N
Temperature: 1003 K
Tabular data in the source: 0
pressure (bar)	uptake (mmol/g)
0.950813	0.101432
6.65333	1.03
10.7827	2.17706
14.3222	4.79891
17.6651	8.07622
21.008	11.135
23.9575	12.7737
28.2836	13.8115
32.0197	14.1939
39.0987	15.3955
42.2449	15.8871
46.571	17.1434
50.897	17.5258
57.5827	17.7989
65.6449	18.8367
79.213	19.9838
