Adsorption isotherm of Methane on Activated Carbon L8
DOI: 10.1016/j.jpcs.2013.01.036
Adsorbate Methane: InChIKey VNWKTOKETHGBQD-UHFFFAOYSA-N
Temperature: 1073 K
Tabular data in the source: 0
pressure (bar)	uptake (mmol/g)
0.557535	0.210675
7.24325	2.50479
12.1592	4.08883
19.0416	5.83673
25.334	7.53
29.4634	8.0216
32.8063	8.34933
35.9525	9.00479
38.1155	11.9544
40.2785	14.8493
42.8348	16.7065
47.1609	18.8913
50.3071	19.8745
58.5659	21.5132
79.213	24.4628
