Adsorption isotherm of Methane on Activated Carbon L9
DOI: 10.1016/j.jpcs.2013.01.036
Adsorbate Methane: InChIKey VNWKTOKETHGBQD-UHFFFAOYSA-N
Temperature: 863 K
Tabular data in the source: 0
pressure (bar)	uptake (mmol/g)
0.754174	0.101432
10.1928	1.30311
18.255	2.7779
27.1038	3.97958
32.2164	4.96278
33.0029	5.56362
35.1659	8.24009
39.2953	12.9376
40.8685	13.8115
44.2113	14.5216
47.9475	15.0132
56.4029	16.051
61.5155	15.9964
68.9878	16.2695
79.4096	17.5258
