Adsorption isotherm of Methane on Activated Carbon L6
DOI: 10.1016/j.jpcs.2013.01.036
Adsorbate Methane: InChIKey VNWKTOKETHGBQD-UHFFFAOYSA-N
Temperature: 933 K
Tabular data in the source: 0
pressure (bar)	uptake (mmol/g)
0.557535	0.156053
12.3559	1.68547
26.7105	3.48799
33.3962	5.45437
35.9525	8.0216
38.1155	11.1897
40.6718	13.3199
44.2113	14.6308
48.9306	15.5048
56.9928	16.7611
65.2517	17.2527
76.2634	18.3451
