Adsorption isotherm of Nitrogen on Activated Carbon L8
DOI: 10.1016/j.jpcs.2013.01.036
Adsorbate Nitrogen: InChIKey IJGRMHOSHXDMSA-UHFFFAOYSA-N
Temperature: 77 K
Tabular data in the source: 0
pressure (bar)	uptake (mmol/g)
0.00619484	0.636713
0.0433377	18.9897
0.102329	21.6115
0.196279	26.1997
0.309892	30.2636
0.403842	33.672
0.504346	37.7359
0.596111	41.4065
0.709724	44.946
0.803674	46.2569
0.912918	49.0098
0.982834	50.3207
