Adsorption isotherm of Nitric oxide on [Co2(C8H2O6)-(H2O)2]*8H2O
DOI: 10.1021/Ja801997r
Adsorbate Nitric oxide: InChIKey MWUXSHHQAYIFBG-UHFFFAOYSA-N
Temperature: 298 K
Tabular data in the source: 0
pressure (bar)	uptake (mmol/g)
0.00328254	0.195122
0.0162978	1.24878
0.0326941	2.26341
0.0357797	2.92683
0.042197	3.66829
0.075564	4.33171
0.112378	4.8
0.149323	4.9561
0.19298	5.15122
0.236638	5.34634
0.276948	5.50244
0.360932	5.81463
0.411368	5.89268
0.485323	6.04878
0.525682	6.0878
0.599654	6.20488
0.640013	6.2439
0.700559	6.28293
0.750996	6.36098
0.804813	6.4
0.861995	6.43902
0.942712	6.51707
1.00664	6.51707
