Adsorption isotherm of Nitric oxide on [Ni2(C8H2O6)-(H2O)2]*8H2O
DOI: 10.1021/Ja801997r
Adsorbate Nitric oxide: InChIKey MWUXSHHQAYIFBG-UHFFFAOYSA-N
Temperature: 298 K
Tabular data in the source: 0
pressure (bar)	uptake (mmol/g)
0	0.585366
0.0101257	1.6
0.0202515	2.96585
0.027002	4.29268
0.0337525	5.07317
0.0573792	5.30732
0.081006	5.46341
0.108008	5.58049
0.14176	5.77561
0.178888	5.89268
0.212641	6.04878
0.246393	6.0878
0.283521	6.2439
0.324024	6.36098
0.367902	6.43902
0.374653	6.47805
0.418531	6.5561
0.489411	6.67317
0.556916	6.79024
0.631172	6.82927
0.702052	6.86829
0.793184	6.98537
0.867439	7.06341
0.961946	7.18049
1.01933	7.25854
