Adsorption isotherm of Xenon on Co3(HCOO)6
DOI: 10.1039/c3sc52348a
Article source: Figure 2
Adsorbate Xenon: InChIKey FHNFHKCVQCLJFQ-UHFFFAOYSA-N
Kind: experiment
Temperature: 288 K
Tabular data in the source: 0
pressure (bar)	uptake (mmol/g)
0.00659	0.15745
0.01978	0.30638
0.04286	0.57447
0.04945	0.69362
0.10055	1.14894
0.15	1.40851
0.2011	1.56596
0.2522	1.67234
0.3033	1.74894
0.3511	1.80426
0.3989	1.84255
0.45165	1.88511
0.50275	1.90638
0.5522	1.9234
0.60165	1.93617
0.6511	1.95319
0.70055	1.96596
0.7533	1.97021
0.8011	1.97872
0.8522	1.97872
0.9	1.98723
0.95275	1.98298
0.98242	1.98298
0.99725	1.98298
