Adsorption isotherm of Argon on Co3(HCOO)6
DOI: 10.1039/c3sc52348a
Article source: Figure 2
Adsorbate Argon: InChIKey XKRFYHLGVUSROY-UHFFFAOYSA-N
Kind: experiment
Temperature: 288 K
Tabular data in the source: 0
pressure (bar)	uptake (mmol/g)
0.00494	0.00459
0.02141	0.00714
0.04446	0.01173
0.10045	0.02602
0.14985	0.03622
0.1976	0.04694
0.24865	0.05918
0.2997	0.06888
0.35404	0.07908
0.40015	0.08929
0.44955	0.09898
0.49731	0.10612
0.55329	0.1148
0.59775	0.12449
0.6521	0.13163
0.70314	0.13827
0.75254	0.14592
0.80195	0.15204
0.85299	0.15816
0.9024	0.16327
0.95344	0.16837
0.9765	0.1699
0.9979	0.17245
