Adsorption isotherm of Krypton on Co3(HCOO)6
DOI: 10.1039/C3sc52348a
Adsorbate Krypton: InChIKey DNNSSWSSYDEUBZ-UHFFFAOYSA-N
Temperature: 298 K
Tabular data in the source: 0
pressure (bar)	uptake (mmol/g)
0.0135929	0.00694867
0.0271857	0.0138973
0.0358852	0.0423445
0.049478	0.0492932
0.0990648	0.0914419
0.148543	0.140735
0.202697	0.182819
0.242932	0.239387
0.297086	0.28147
0.346672	0.323619
0.396151	0.372912
0.441279	0.407982
0.495433	0.450065
0.545237	0.477925
0.594824	0.520074
0.644628	0.547934
0.689648	0.590148
0.744128	0.610798
0.798282	0.652882
0.843519	0.680807
0.943127	0.736527
0.970313	0.750424
