Adsorption isotherm of Krypton on Co3(HCOO)6
DOI: 10.1039/c3sc52348a
Article source: Figure 2
Adsorbate Krypton: InChIKey DNNSSWSSYDEUBZ-UHFFFAOYSA-N
Kind: experiment
Temperature: 288 K
Tabular data in the source: 0
pressure (bar)	uptake (mmol/g)
0.03191	0.06429
0.10182	0.14762
0.15198	0.22619
0.20061	0.29286
0.24772	0.36667
0.30243	0.42619
0.35106	0.48333
0.44681	0.58333
0.50152	0.62381
0.55015	0.66429
0.59726	0.70238
0.64742	0.74048
0.69453	0.76667
0.75228	0.80476
0.79939	0.82857
0.85106	0.85476
0.95137	0.90476
0.97568	0.9119
