Adsorption isotherm of Xenon on Co3(HCOO)6
DOI: 10.1039/C3sc52348a
Adsorbate Xenon: InChIKey FHNFHKCVQCLJFQ-UHFFFAOYSA-N
Temperature: 298 K
Tabular data in the source: 0
pressure (bar)	uptake (mmol/g)
-0.000125046	0.0253217
0.00925337	0.126192
0.00944094	0.0882092
0.0185693	0.239723
0.0375137	0.40348
0.0518314	0.504142
0.0944719	0.869432
0.147366	1.15834
0.195821	1.34617
0.249591	1.45782
0.293545	1.55723
0.347502	1.63091
0.391643	1.69234
0.445788	1.72803
0.49493	1.77659
0.544198	1.79982
0.588527	1.82327
0.642672	1.85896
0.696942	1.86933
0.741333	1.88011
0.790663	1.89069
0.844871	1.91372
0.894264	1.91163
0.938717	1.90976
0.968291	1.92117
0.988048	1.92034
