Adsorption isotherm of Argon on Co3(HCOO)6
DOI: 10.1039/C3sc52348a
Adsorbate Argon: InChIKey XKRFYHLGVUSROY-UHFFFAOYSA-N
Temperature: 298 K
Tabular data in the source: 0
pressure (bar)	uptake (mmol/g)
0.0523783	0.0096647
0.100412	0.0101058
0.148446	0.010547
0.205236	0.00188482
0.301281	0.0119505
0.406082	0.012913
0.497783	0.0137552
0.602584	0.0147176
0.703019	0.01564
0.803453	0.0165623
0.899521	0.0174446
0.999955	0.0183669
