Adsorption isotherm of Xenon on Co3(HCOO)6
DOI: 10.1039/C3sc52348a
Adsorbate Xenon: InChIKey FHNFHKCVQCLJFQ-UHFFFAOYSA-N
Temperature: 190 K
Tabular data in the source: 0
pressure (bar)	uptake (mmol/g)
3.83275e-06	1.51202
5.71676e-06	2.05842
7.11263e-06	2.46843
8.53297e-06	2.8101
1.02332e-05	3.04914
1.18364e-05	3.28826
1.27321e-05	3.45915
1.76608e-05	3.93731
2.54062e-05	4.4838
3.1606e-05	4.8596
3.93097e-05	5.16697
4.71476e-05	5.44022
5.45268e-05	5.64513
6.08205e-05	5.85014
7.03218e-05	5.98663
7.84296e-05	6.15742
8.74722e-05	6.32821
9.75461e-05	6.46479
0.000112769	6.56707
0.000130419	6.77198
0.000162084	6.87408
0.000201516	7.07881
0.000250444	7.18091
0.000289494	7.24898
0.000359832	7.38529
0.000386874	7.41932
0.000463671	7.4873
0.000597324	7.52088
0.000827218	7.55429
0.00114559	7.58769
0.002362	7.65433
0.00378068	7.72159
0.00523516	7.72078
0.00968144	7.71926
0.0139014	7.75257
0.042655	7.7498
0.0635038	7.78303
0.1813	7.84885
0.269914	7.88208
0.536668	7.91459
0.770499	7.91369
