Adsorption isotherm of Argon on Co3(HCOO)6
DOI: 10.1039/C3sc52348a
Adsorbate Argon: InChIKey XKRFYHLGVUSROY-UHFFFAOYSA-N
Temperature: 288 K
Tabular data in the source: 0
pressure (bar)	uptake (mmol/g)
0.0097561	0.00609756
0.029449	0.00914634
0.0491117	0.0137195
0.0589581	0.0152439
0.103192	0.0259146
0.147395	0.0381098
0.201506	0.0487805
0.255616	0.0594512
0.299849	0.070122
0.35396	0.0807927
0.398223	0.089939
0.452334	0.10061
0.501566	0.108232
0.550798	0.115854
0.6	0.125
0.649232	0.132622
0.698494	0.13872
0.747727	0.146341
0.796989	0.152439
0.851159	0.160061
0.900482	0.16311
0.949744	0.169207
0.974375	0.172256
0.994128	0.172256
