Adsorption isotherm of Xenon on Co3(HCOO)6
DOI: 10.1039/C3sc52348a
Adsorbate Xenon: InChIKey FHNFHKCVQCLJFQ-UHFFFAOYSA-N
Temperature: 298 K
Tabular data in the source: 0
pressure (bar)	uptake (mmol/g)
0.00862203	0.0459975
0.051955	0.184151
0.103955	0.349934
0.15161	0.506494
0.203698	0.635544
0.303576	0.866053
0.407976	1.03232
0.494998	1.16169
0.59951	1.28204
0.704088	1.37483
0.795656	1.43078
0.900301	1.49602
0.991913	1.5336
