Adsorption isotherm of Xenon on Co3(HCOO)6
DOI: 10.1039/C3sc52348a
Adsorbate Xenon: InChIKey FHNFHKCVQCLJFQ-UHFFFAOYSA-N
Temperature: 288 K
Tabular data in the source: 0
pressure (bar)	uptake (mmol/g)
0.00906581	0.164174
0.0231334	0.31548
0.0416402	0.567863
0.0458917	0.706924
0.0979732	1.16042
0.141176	1.41176
0.194821	1.54874
0.238712	1.66081
0.287667	1.74736
0.341812	1.78305
0.390955	1.83161
0.445162	1.85463
0.494368	1.89053
0.543698	1.90111
0.588027	1.92456
0.63742	1.92247
0.686688	1.94571
0.745959	1.94321
0.795352	1.94112
0.844745	1.93904
0.879258	1.95024
0.93853	1.94774
0.987923	1.94566
