Adsorption isotherm of Argon on Co3(HCOO)6
DOI: 10.1039/C3sc52348a
Adsorbate Argon: InChIKey XKRFYHLGVUSROY-UHFFFAOYSA-N
Temperature: 298 K
Tabular data in the source: 0
pressure (bar)	uptake (mmol/g)
0	-5.55112e-17
0.0196628	0.00457317
0.0442939	0.00762195
0.103403	0.0152439
0.152635	0.0228659
0.201897	0.0289634
0.251129	0.0365854
0.300391	0.0426829
0.349624	0.0503049
0.403794	0.0579268
0.453026	0.0655488
0.502319	0.070122
0.551521	0.0792683
0.600813	0.0838415
0.654953	0.0929878
0.699277	0.0990854
0.753478	0.105183
0.80274	0.11128
0.847034	0.118902
0.896296	0.125
0.955405	0.132622
0.985005	0.134146
0.999789	0.135671
