Adsorption isotherm of Xenon on Co3(HCOO)6
DOI: 10.1039/c3sc52348a
Article source: Figure 2
Adsorbate Xenon: InChIKey FHNFHKCVQCLJFQ-UHFFFAOYSA-N
Kind: experiment
Temperature: 278 K
Tabular data in the source: 0
pressure (bar)	uptake (mmol/g)
0.00165	0.1234
0.00824	0.23404
0.01978	0.4383
0.03791	0.8383
0.04945	0.94894
0.10055	1.42979
0.15	1.64681
0.2011	1.76596
0.2522	1.84255
0.30165	1.88936
0.3511	1.9234
0.40055	1.95745
0.45165	1.97447
0.49945	1.99149
0.5522	2
0.6	2.00851
0.65275	2.00851
0.7022	2.01277
0.75165	2.00851
0.79945	2.01277
0.8522	2.00851
0.90165	2.00426
0.9511	1.99574
0.97747	1.99149
0.9956	1.99574
