Adsorption isotherm of Xenon on Co3(HCOO)6
DOI: 10.1039/C3sc52348a
Adsorbate Xenon: InChIKey FHNFHKCVQCLJFQ-UHFFFAOYSA-N
Temperature: 278 K
Tabular data in the source: 0
pressure (bar)	uptake (mmol/g)
0.00418903	0.151722
0.00875319	0.227479
0.0225082	0.442088
0.0353879	0.83395
0.0495806	0.959933
0.0917209	1.42651
0.144928	1.65211
0.193758	1.76398
0.242839	1.8252
0.291919	1.88642
0.346126	1.90945
0.390392	1.94555
0.434784	1.95634
0.489116	1.95405
0.543323	1.97707
0.592716	1.97499
0.642109	1.97291
0.686563	1.97103
0.740833	1.9814
0.790226	1.97932
0.84462	1.96436
0.889074	1.96249
0.943406	1.96019
0.973105	1.94628
