Adsorption isotherm of Xenon on Co3(HCOO)6
DOI: 10.1039/C3sc52348a
Adsorbate Xenon: InChIKey FHNFHKCVQCLJFQ-UHFFFAOYSA-N
Temperature: 180 K
Tabular data in the source: 0
pressure (bar)	uptake (mmol/g)
1.93006e-06	1.82163
2.98628e-06	2.50479
3.71544e-06	2.9148
4.62157e-06	3.25638
5.54383e-06	3.56384
6.18443e-06	3.80306
6.65258e-06	3.97394
7.69378e-06	4.17885
8.58065e-06	4.34964
9.56996e-06	4.52043
1.0676e-05	4.75965
1.23515e-05	5.0672
1.32831e-05	5.16966
1.7764e-05	5.54527
2.13088e-05	5.85273
2.55511e-05	6.05756
3.06387e-05	6.26238
3.41712e-05	6.43317
3.95239e-05	6.6723
4.73762e-05	6.77449
5.47772e-05	6.91098
6.10928e-05	7.08177
7.59259e-05	7.18387
9.10081e-05	7.28606
0.000113078	7.31973
0.000151074	7.42165
0.000216955	7.48918
0.000373267	7.52205
0.000922359	7.65666
0.00219715	7.65451
0.00406378	7.6872
0.0185682	7.78607
0.0789024	7.8167
0.168649	7.84903
0.360522	7.91557
0.499282	7.94898
0.666805	7.94826
0.957339	7.94737
