Adsorption isotherm of Xenon on Co3(HCOO)6
DOI: 10.1039/c3sc52348a
Article source: Figure 3
Adsorbate Xenon: InChIKey FHNFHKCVQCLJFQ-UHFFFAOYSA-N
Kind: experiment
Temperature: 180 K
Tabular data in the source: 0
pressure (bar)	uptake (mmol/g)
2e-06	0.034685
3e-06	0.05535
4e-06	0.075386
4e-06	0.094855
5e-06	0.11841
6e-06	0.135482
7e-06	0.153791
7e-06	0.175958
8e-06	0.198162
9e-06	0.217921
9e-06	0.241563
1e-05	0.263554
1.1e-05	0.287554
1.2e-05	0.308802
1.2e-05	0.331619
1.3e-05	0.358963
1.7e-05	0.469916
2.1e-05	0.572836
2.4e-05	0.681899
2.9e-05	0.767927
3.4e-05	0.899767
3.9e-05	1.00529
4.4e-05	1.07107
4.9e-05	1.18724
5.8e-05	1.28511
7e-05	1.36921
8.2e-05	1.49386
0.000107	1.60428
0.000144	1.72282
0.000212	1.82104
0.00037	1.89461
0.00085	2.0186
0.00205	2.08358
0.003791	2.11685
0.005576	2.11685
0.008712	2.15065
0.018845	2.18499
0.03838	2.20237
0.078181	2.29134
0.169122	2.3651
0.34033	2.42198
0.471303	2.46071
0.65268	2.5
0.971628	2.56012
