Adsorption isotherm of Xenon on Co3(HCOO)6
DOI: 10.1039/c3sc52348a
Article source: Figure 3
Adsorbate Xenon: InChIKey FHNFHKCVQCLJFQ-UHFFFAOYSA-N
Kind: experiment
Temperature: 190 K
Tabular data in the source: 0
pressure (bar)	uptake (mmol/g)
4e-06	0.028006
5e-06	0.041948
7e-06	0.05448
9e-06	0.06801
1e-05	0.082905
1.1e-05	0.093364
1.2e-05	0.110263
1.7e-05	0.148994
2.4e-05	0.221401
3.1e-05	0.289841
3.7e-05	0.353321
4.4e-05	0.420581
5.1e-05	0.496707
5.8e-05	0.572836
6.7e-05	0.624986
7.2e-05	0.715089
8.3e-05	0.774034
9.1e-05	0.837857
0.000102	0.921404
0.000112	0.973935
0.00012	1.05424
0.000141	1.14114
0.000151	1.2062
0.000171	1.27497
0.00019	1.31604
0.000212	1.41329
0.000242	1.49386
0.000264	1.50574
0.000312	1.61704
0.00037	1.68236
0.00046	1.76425
0.000571	1.80667
0.000753	1.87966
0.001069	1.87966
0.00223	2.00267
0.003401	2.05083
0.004381	2.05083
0.007721	2.08358
0.009592	2.08358
0.013938	2.08358
0.023692	2.13368
0.041257	2.15065
0.06368	2.18499
0.167071	2.30956
0.25787	2.3651
0.494538	2.42198
0.693107	2.44124
0.830615	2.48028
