Adsorption isotherm of Krypton on Co3(HCOO)6
DOI: 10.1039/c3sc52348a
Article source: Figure 2
Adsorbate Krypton: InChIKey DNNSSWSSYDEUBZ-UHFFFAOYSA-N
Kind: experiment
Temperature: 298 K
Tabular data in the source: 0
pressure (bar)	uptake (mmol/g)
0.01368	0.0119
0.03799	0.03333
0.04863	0.04762
0.09726	0.09048
0.14742	0.1381
0.19605	0.18333
0.2462	0.23333
0.29635	0.28333
0.34802	0.33095
0.39666	0.37381
0.44985	0.4119
0.49848	0.45
0.54863	0.4881
0.59726	0.52143
0.6459	0.55952
0.69757	0.59762
0.74924	0.62381
0.80091	0.6619
0.84954	0.68095
0.90122	0.71667
0.94529	0.74286
0.97568	0.75952
