Adsorption isotherm of Krypton on Co3(HCOO)6
DOI: 10.1039/C3sc52348a
Adsorbate Krypton: InChIKey DNNSSWSSYDEUBZ-UHFFFAOYSA-N
Temperature: 288 K
Tabular data in the source: 0
pressure (bar)	uptake (mmol/g)
0.00413223	0.0285124
0.0309917	0.063843
0.102653	0.155676
0.151805	0.226403
0.200957	0.297129
0.250217	0.360711
0.299478	0.424293
0.348847	0.480731
0.393867	0.522945
0.443345	0.572238
0.492823	0.621531
0.542518	0.656535
0.592214	0.69154
0.64191	0.726544
0.687038	0.761614
0.741409	0.789408
0.791214	0.817268
0.841018	0.845128
0.940735	0.893704
0.96803	0.900457
