Adsorption isotherm of Krypton on Co3(HCOO)6
DOI: 10.1039/c3sc52348a
Article source: Figure 2
Adsorbate Krypton: InChIKey DNNSSWSSYDEUBZ-UHFFFAOYSA-N
Kind: experiment
Temperature: 278 K
Tabular data in the source: 0
pressure (bar)	uptake (mmol/g)
0.0152	0.05238
0.03799	0.0881
0.05015	0.10952
0.1003	0.2119
0.14894	0.31429
0.20061	0.40476
0.24924	0.49286
0.30091	0.56429
0.34954	0.62619
0.39818	0.68571
0.45137	0.74286
0.54863	0.83333
0.59878	0.87143
0.64742	0.9119
0.70213	0.94286
0.74772	0.97381
0.80091	1.00238
0.84802	1.02857
0.94833	1.06667
0.97416	1.07619
