Adsorption isotherm of Xenon on Co3(HCOO)6
DOI: 10.1039/c3sc52348a
Article source: Figure 2
Adsorbate Xenon: InChIKey FHNFHKCVQCLJFQ-UHFFFAOYSA-N
Kind: experiment
Temperature: 298 K
Tabular data in the source: 0
pressure (bar)	uptake (mmol/g)
0.00165	0.00426
0.00824	0.10638
0.02473	0.24255
0.03791	0.39574
0.05275	0.48936
0.0989	0.86809
0.15165	1.15319
0.2011	1.35319
0.2522	1.46809
0.30659	1.57447
0.35275	1.64255
0.40385	1.71064
0.45	1.75319
0.49945	1.79574
0.55055	1.82553
0.6	1.85106
0.65275	1.8766
0.70385	1.89787
0.75495	1.91064
0.80275	1.93191
0.8522	1.94043
0.90165	1.95745
0.9544	1.96596
0.98242	1.97021
0.99725	1.97447
