Adsorption isotherm of Argon on Co3(HCOO)6
DOI: 10.1039/C3sc52348a
Adsorbate Argon: InChIKey XKRFYHLGVUSROY-UHFFFAOYSA-N
Temperature: 278 K
Tabular data in the source: 0
pressure (bar)	uptake (mmol/g)
0.00972599	0.00762195
0.0244806	0.0106707
0.0440229	0.0213415
0.0538994	0.0213415
0.0980126	0.0381098
0.152033	0.0533537
0.196146	0.070122
0.250166	0.0853659
0.299307	0.097561
0.348389	0.112805
0.402439	0.126524
0.446643	0.13872
0.500723	0.150915
0.544926	0.16311
0.599006	0.175305
0.648208	0.184451
0.69738	0.195122
0.746582	0.204268
0.795784	0.213415
0.849895	0.224085
0.894219	0.230183
0.948389	0.237805
0.97299	0.242378
0.992713	0.243902
