Adsorption isotherm of Krypton on Co3(HCOO)6
DOI: 10.1039/C3sc52348a
Adsorbate Krypton: InChIKey DNNSSWSSYDEUBZ-UHFFFAOYSA-N
Temperature: 278 K
Tabular data in the source: 0
pressure (bar)	uptake (mmol/g)
0.0531753	0.106383
0.101783	0.212832
0.145933	0.312201
0.199326	0.404295
0.24826	0.489311
0.292953	0.552958
0.342105	0.623684
0.391366	0.687266
0.440844	0.736559
0.490431	0.778708
0.539909	0.828001
0.589604	0.863006
0.6393	0.89801
0.684319	0.940224
0.738691	0.968019
0.783928	0.995944
0.838408	1.01659
0.938343	1.05088
0.965528	1.06478
