Adsorption isotherm of Xenon on Co3(HCOO)6
DOI: 10.1039/C3sc52348a
Adsorbate Xenon: InChIKey FHNFHKCVQCLJFQ-UHFFFAOYSA-N
Temperature: 200 K
Tabular data in the source: 0
pressure (bar)	uptake (mmol/g)
1.01878e-05	1.81751
1.57609e-05	2.46646
2.03367e-05	2.9448
2.62247e-05	3.25208
3.03326e-05	3.49121
3.50849e-05	3.73033
4.05854e-05	4.00367
5.04894e-05	4.37947
7.53165e-05	4.96009
0.00010446	5.40404
0.000129903	5.67719
0.000155826	5.98465
0.000193731	6.18939
0.000224053	6.3943
0.00025909	6.56501
0.000299564	6.7015
0.00035912	6.8379
0.000415174	6.94017
0.000462978	7.07675
0.000575466	7.21306
0.0006897	7.28104
0.000826609	7.34902
0.00114504	7.45085
0.0021186	7.58617
0.00391895	7.65307
0.00583364	7.65209
0.00837645	7.6854
0.0120262	7.68451
0.0172703	7.75204
0.0239144	7.75123
0.0355943	7.71603
0.0511093	7.74935
0.0733871	7.78267
0.109244	7.78168
0.151271	7.78088
0.217236	7.8484
0.290125	7.84769
0.46427	7.84652
0.666641	7.87984
0.858694	7.87921
