Adsorption isotherm of Argon on Co3(HCOO)6
DOI: 10.1039/c3sc52348a
Article source: Figure 2
Adsorbate Argon: InChIKey XKRFYHLGVUSROY-UHFFFAOYSA-N
Kind: experiment
Temperature: 278 K
Tabular data in the source: 0
pressure (bar)	uptake (mmol/g)
0.00494	0.00459
0.02305	0.01173
0.03952	0.01888
0.05105	0.02143
0.10045	0.03776
0.1482	0.05357
0.2009	0.06786
0.24865	0.08367
0.29805	0.09847
0.35075	0.11224
0.40015	0.125
0.44955	0.13827
0.49731	0.15102
0.55	0.16327
0.59775	0.17398
0.6521	0.18469
0.69656	0.19439
0.7476	0.20459
0.79865	0.21276
0.8497	0.22347
0.89746	0.23163
0.95015	0.23878
0.9765	0.24235
1.0012	0.2449
