Adsorption isotherm of Xenon on Co3(HCOO)6
DOI: 10.1039/c3sc52348a
Article source: Figure 3
Adsorbate Xenon: InChIKey FHNFHKCVQCLJFQ-UHFFFAOYSA-N
Kind: experiment
Temperature: 200 K
Tabular data in the source: 0
pressure (bar)	uptake (mmol/g)
1e-05	0.03414
1.5e-05	0.05535
2e-05	0.074201
2.5e-05	0.094107
2.9e-05	0.113813
3.4e-05	0.135482
3.8e-05	0.153791
4.9e-05	0.204541
7.3e-05	0.311258
9.8e-05	0.410705
0.000124	0.516773
0.000151	0.620055
0.000181	0.715089
0.000212	0.82467
0.000251	0.936117
0.00028	1.02134
0.000335	1.12321
0.000383	1.22546
0.000465	1.33706
0.00055	1.43585
0.000692	1.52978
0.000829	1.65592
0.001149	1.73652
0.002	1.87966
0.003791	1.97115
0.005574	1.98687
0.007909	2.05083
0.01122	2.05083
0.016501	2.06714
0.023126	2.11685
0.032412	2.11685
0.047676	2.15065
0.070974	2.15065
0.10067	2.20237
0.148081	2.21988
0.2231	2.23754
0.305281	2.25533
0.427858	2.3651
0.621727	2.38391
0.914534	2.42198
