Adsorption isotherm of Krypton on Co3(HCOO)6
DOI: 10.1039/C3sc52348a
Adsorbate Krypton: InChIKey DNNSSWSSYDEUBZ-UHFFFAOYSA-N
Temperature: 298 K
Tabular data in the source: 0
pressure (bar)	uptake (mmol/g)
0.052356	0.0188482
0.0959786	0.0376161
0.152746	0.0381375
0.200757	0.0477621
0.301103	0.0854183
0.405882	0.0955642
0.49756	0.10559
0.602339	0.115736
0.702751	0.125842
0.803186	0.126764
0.903598	0.13687
0.995299	0.137712
