Adsorption isotherm of Argon on Co3(HCOO)6
DOI: 10.1039/c3sc52348a
Article source: Figure 2
Adsorbate Argon: InChIKey XKRFYHLGVUSROY-UHFFFAOYSA-N
Kind: experiment
Temperature: 298 K
Tabular data in the source: 0
pressure (bar)	uptake (mmol/g)
0.00165	0.00102
0.02305	0.00306
0.04117	0.00663
0.1021	0.01378
0.14985	0.02041
0.2009	0.02755
0.25359	0.03622
0.29641	0.04184
0.3491	0.05051
0.3985	0.05714
0.45284	0.06378
0.49895	0.07092
0.55165	0.07806
0.5994	0.08367
0.6488	0.09184
0.69985	0.09745
0.74925	0.10408
0.8003	0.11173
0.85299	0.11837
0.8991	0.12347
0.95344	0.13112
0.97979	0.13367
1.00449	0.13418
