Adsorption isotherm of Hydrogen on [Zn(trz)(tfpth)]
DOI: 10.1021/acs.langmuir.5b01664
Article source: Figure 2a
Adsorbate Hydrogen: InChIKey UFHFLCQGNIYNRP-UHFFFAOYSA-N
Kind: experiment
Temperature: 77 K
Tabular data in the source: 0
pressure (bar)	uptake (cm3(STP)/g)
0	0
0.003038	8.56164
0.004557	10.1027
0.007594	13.5274
0.009113	16.0103
0.010632	16.7808
0.012151	17.4658
0.015189	18.3219
0.016707	20.5479
0.021264	21.5753
0.024302	22.4315
0.027339	23.0308
0.028858	23.8014
0.033415	24.9144
0.037972	25.6849
0.042528	26.5411
0.047085	27.0548
0.051641	27.7397
0.056198	28.1678
0.057717	28.4247
0.062273	28.7671
0.065311	29.1096
0.068349	29.3664
0.071387	29.6233
0.075943	29.9658
0.0805	30.2226
0.085056	30.4795
0.088094	30.8219
0.094169	31.1644
0.098726	31.4212
0.101764	31.6781
0.107839	31.9349
0.112396	32.1918
0.118471	32.4486
0.124547	32.7055
0.132141	32.9623
0.138217	33.2192
0.144292	33.3904
0.150368	33.6473
0.157962	33.8185
0.164037	34.0753
0.171631	34.2466
0.176188	34.4178
0.183782	34.589
0.189858	34.7603
0.197452	34.9315
0.208084	35.1884
0.215678	35.3596
0.223272	35.5308
0.230868	35.7021
0.238462	35.8733
0.249093	36.0445
0.258207	36.2158
0.264282	36.3014
0.271876	36.4726
0.27947	36.5582
0.287064	36.7295
0.29466	36.9007
0.305291	36.9863
0.312886	37.0719
0.321999	37.2432
0.331111	37.3288
0.338707	37.4144
0.347819	37.5856
0.356933	37.6712
0.364527	37.8425
0.37364	37.9281
0.379715	38.0137
0.385791	38.0993
0.397942	38.2705
0.407055	38.3562
0.422244	38.5274
0.432876	38.6986
0.441989	38.7842
0.448064	38.8699
0.460215	38.9555
0.469328	39.0411
0.479961	39.1267
0.489073	39.2123
0.498187	39.3836
0.508819	39.3836
0.517932	39.4692
0.525526	39.5548
0.536159	39.726
0.545271	39.8116
0.555904	39.8973
0.565016	39.9829
0.575649	39.9829
0.586281	40.1541
0.598432	40.2397
0.606026	40.3253
0.616659	40.411
0.625771	40.4966
0.636404	40.5822
0.645516	40.6678
0.65311	40.6678
0.660706	40.7534
0.6683	40.839
0.678932	40.9247
0.686526	40.9247
0.695639	41.0103
0.704753	41.0959
0.715384	41.1815
0.726016	41.2671
0.735129	41.3527
0.745761	41.4384
0.753355	41.524
0.765506	41.6096
0.776139	41.6952
0.78829	41.7808
0.801959	41.9521
0.812592	42.0377
0.82778	42.1233
0.838412	42.1233
0.849044	42.2089
0.858157	42.2945
0.865751	42.3801
0.876384	42.3801
0.883978	42.4658
0.893091	42.5514
0.903723	42.5514
0.911317	42.7226
0.923468	42.7226
0.931062	42.8082
0.940176	42.8938
0.952327	42.8938
0.962958	43.0651
0.976629	43.1507
0.993336	43.2363
1.007	43.2363
1.01916	43.3219
1.02979	43.4075
1.04194	43.4932
1.05561	43.4932
1.06776	43.5788
1.07991	43.75
1.09662	43.8356
1.10877	43.9212
1.12244	44.0068
1.13307	44.0925
1.1437	44.1781
1.15585	44.2637
1.16649	44.3493
1.17712	44.3493
1.18471	44.4349
1.19231	44.5205
1.19838	44.6062
