Adsorption isotherm of Hydrogen on [Zn(trz)(tfpth)]
DOI: 10.1021/acs.langmuir.5b01664
Article source: Figure 2a
Adsorbate Hydrogen: InChIKey UFHFLCQGNIYNRP-UHFFFAOYSA-N
Kind: experiment
Temperature: 87 K
Tabular data in the source: 0
pressure (bar)	uptake (cm3(STP)/g)
0	0
0.006075	5.05137
0.012151	7.19178
0.018226	9.93151
0.024302	12.2432
0.030377	13.6986
0.03949	15.9247
0.051641	17.9795
0.059236	19.1781
0.071387	20.7192
0.085056	21.9178
0.100245	23.2877
0.115434	24.4863
0.13366	25.5137
0.154925	26.5411
0.176188	27.4829
0.197452	28.4247
0.220235	29.1952
0.243017	29.9658
0.265801	30.6507
0.290103	31.25
0.315923	31.8493
0.338707	32.4486
0.363007	32.9623
0.390348	33.5616
0.41465	33.9897
0.44047	34.4178
0.464772	34.8459
0.489073	35.274
0.517932	35.7021
0.543753	36.0445
0.568055	36.387
0.592357	36.7295
0.619696	37.0719
0.647035	37.4144
0.672857	37.7568
0.698677	38.0993
0.724498	38.3562
0.751837	38.6986
0.779176	38.9555
0.803478	39.3836
0.829298	39.6404
0.8536	39.8973
0.88094	40.2397
0.90828	40.5822
0.934101	40.839
0.959921	41.1815
0.98878	41.3527
1.01308	41.6096
1.04042	41.8664
1.06472	42.2089
1.09206	42.4658
1.11788	42.637
1.1437	42.8938
1.168	43.1507
1.19231	43.4932
