Adsorption isotherm of Carbon Dioxide on Activated DCPCBim-MOF-Zn
DOI: 10.1021/Ic301781n
Adsorbate Carbon Dioxide: InChIKey CURLTUGMZLYLDI-UHFFFAOYSA-N
Temperature: 298 K
Tabular data in the source: 0
pressure (bar)	uptake (cm3(STP)/g)
0.0217683	2.34091
0.0970197	5.74932
0.174484	9.15772
0.327201	12.9594
0.453357	15.4502
0.575088	17.2855
0.705671	18.8586
0.805268	20.0384
0.918146	21.2182
0.971264	22.0048
