Adsorption isotherm of Methanol on DCPCBim-MOF-Zn
DOI: 10.1021/Ic301781n
Adsorbate Methanol: InChIKey OKKJLVBELUTLKV-UHFFFAOYSA-N
Temperature: 298 K
Tabular data in the source: 0
pressure (bar)	uptake (cm3(STP)/g)
0.00184882	0.284008
0.00184882	11.9075
0.00184882	26.7428
0.00848865	37.9075
0.0173418	41.2722
0.0461144	44.637
0.0793135	45.8605
0.145712	47.3899
0.240883	48.4605
0.338267	49.9899
0.429011	50.6017
0.517542	51.8252
0.599434	53.0487
0.674685	54.1193
0.761003	55.4958
0.836254	56.8722
0.915932	58.5546
