Adsorption isotherm of Carbon Dioxide on Activated DCPCBim-MOF-Zn
DOI: 10.1021/Ic301781n
Adsorbate Carbon Dioxide: InChIKey CURLTUGMZLYLDI-UHFFFAOYSA-N
Temperature: 195 K
Tabular data in the source: 0
pressure (bar)	uptake (cm3(STP)/g)
0.00184882	0.112343
0.00184882	19.514
0.00848865	31.8367
0.0173418	44.1594
0.0306214	47.5678
0.0461144	50.3207
0.0726737	52.156
0.134645	53.7291
0.21211	54.5157
0.324987	54.7779
0.466637	55.3023
0.59722	55.6955
0.754363	55.8266
0.884946	55.9577
0.966838	56.2199
