Adsorption isotherm of Hydrogen on Activated DCPCBim-MOF-Zn
DOI: 10.1021/Ic301781n
Adsorbate Hydrogen: InChIKey UFHFLCQGNIYNRP-UHFFFAOYSA-N
Temperature: 87 K
Tabular data in the source: 0
pressure (bar)	uptake (cm3(STP)/g)
0.00184882	0.742832
0.0416878	5.78989
0.132432	13.8958
0.21875	19.0958
0.322774	24.2958
0.457784	29.1899
0.564021	32.8605
0.670259	36.0722
0.796415	39.5899
0.920359	42.4958
0.982331	43.7193
