Adsorption isotherm of Nitrogen on Activated DCPCBim-MOF-Zn
DOI: 10.1021/Ic301781n
Adsorbate Nitrogen: InChIKey IJGRMHOSHXDMSA-UHFFFAOYSA-N
Temperature: 77 K
Tabular data in the source: 0
pressure (bar)	uptake (cm3(STP)/g)
0.0151285	0.505621
0.0925932	1.16108
0.203257	2.07873
0.305068	2.73419
0.444504	3.78293
0.555168	4.17621
0.656979	4.70058
0.74551	5.22495
0.849534	5.74932
0.920359	6.27369
0.977904	6.92915
1.00004	7.58461
1.0111	8.76444
