Adsorption isotherm of Hydrogen on Activated DCPCBim-MOF-Zn
DOI: 10.1021/Ic301781n
Adsorbate Hydrogen: InChIKey UFHFLCQGNIYNRP-UHFFFAOYSA-N
Temperature: 77 K
Tabular data in the source: 0
pressure (bar)	uptake (cm3(STP)/g)
0.0328347	0.0936194
0.207684	0.312107
0.318347	0.858325
0.420158	2.16925
0.559595	3.48017
0.694605	4.7911
0.761003	5.66505
0.836254	7.08522
0.909293	8.17765
0.973478	9.27009
1.00446	10.2533
