Adsorption isotherm of Hydrogen on Activated DCPCBim-MOF-Zn
DOI: 10.1021/Ic301781n
Adsorbate Hydrogen: InChIKey UFHFLCQGNIYNRP-UHFFFAOYSA-N
Temperature: 77 K
Tabular data in the source: 0
pressure (bar)	uptake (cm3(STP)/g)
0.00184882	-0.327756
0.0173418	12.2134
0.0461144	22.3075
0.0881666	29.9546
0.128006	35.3075
0.20547	40.8134
0.336054	47.084
0.464424	51.8252
0.588367	55.9546
0.718951	59.4722
0.847321	63.1428
0.971264	65.7428
