Adsorption isotherm of Carbon Dioxide on Activated DCPCBim-MOF-Zn
DOI: 10.1021/Ic301781n
Adsorbate Carbon Dioxide: InChIKey CURLTUGMZLYLDI-UHFFFAOYSA-N
Temperature: 195 K
Tabular data in the source: 0
pressure (bar)	uptake (cm3(STP)/g)
0.00184882	0.0936194
0.00184882	12.1104
0.00848865	17.0264
0.0217683	23.3625
0.0483276	27.4045
0.0925932	30.5726
0.20547	33.9592
0.305068	36.144
0.457784	39.0936
0.572874	40.7323
0.674685	42.4802
0.75879	43.9003
0.865027	45.6482
0.962411	46.9592
