Adsorption isotherm of Carbon Dioxide on Activated DCPCBim-MOF-Zn
DOI: 10.1021/Ic301781n
Adsorbate Carbon Dioxide: InChIKey CURLTUGMZLYLDI-UHFFFAOYSA-N
Temperature: 273 K
Tabular data in the source: 0
pressure (bar)	uptake (cm3(STP)/g)
0.00848865	1.55436
0.0394745	6.40478
0.0903799	11.9107
0.128006	15.0569
0.209897	18.4653
0.331627	21.8737
0.455571	24.4955
0.619353	26.9863
0.75879	28.6905
0.865027	30.0014
0.955771	31.0502
