Adsorption isotherm of Methane on Activated DCPCBim-MOF-Zn
DOI: 10.1021/Ic301781n
Adsorbate Methane: InChIKey VNWKTOKETHGBQD-UHFFFAOYSA-N
Temperature: 195 K
Tabular data in the source: 0
pressure (bar)	uptake (cm3(STP)/g)
0.0107019	0.284008
0.0151285	8.54283
0.035048	15.4252
0.0660339	21.2369
0.134645	28.1193
0.22539	34.2369
0.338267	39.284
0.48213	43.4134
0.637059	46.9311
0.774283	48.9193
0.957985	51.6722
