Adsorption isotherm of Methane on Activated DCPCBim-MOF-Zn
DOI: 10.1021/Ic301781n
Adsorbate Methane: InChIKey VNWKTOKETHGBQD-UHFFFAOYSA-N
Temperature: 195 K
Tabular data in the source: 0
pressure (bar)	uptake (cm3(STP)/g)
0.0173418	0.149791
0.0925932	1.19853
0.178911	2.77164
0.296215	4.86912
0.411305	7.49097
0.513116	9.76324
0.63042	12.5599
0.761003	16.0557
0.851747	18.3279
0.940278	20.775
0.969051	21.4742
