Adsorption isotherm of Hydrogen on Activated DCPCBim-MOF-Zn
DOI: 10.1021/Ic301781n
Adsorbate Hydrogen: InChIKey UFHFLCQGNIYNRP-UHFFFAOYSA-N
Temperature: 77 K
Tabular data in the source: 0
pressure (bar)	uptake (cm3(STP)/g)
0.00184882	0.530594
0.00848865	5.33732
0.0151285	9.48858
0.0416878	14.8415
0.0925932	21.6146
0.207684	28.7155
0.313921	32.7575
0.395812	35.0516
0.497623	37.1272
0.581727	38.7659
0.654766	39.5306
0.794202	41.8247
0.8938	43.2449
0.960198	44.1188
1.00225	44.4466
