Adsorption isotherm of Carbon Dioxide on Activated DCPCBim-MOF-Zn
DOI: 10.1021/Ic301781n
Adsorbate Carbon Dioxide: InChIKey CURLTUGMZLYLDI-UHFFFAOYSA-N
Temperature: 195 K
Tabular data in the source: 0
pressure (bar)	uptake (cm3(STP)/g)
0.00184882	-0.0156243
0.00184882	9.16085
0.00184882	14.623
0.0107019	20.1945
0.0306214	25.0012
0.0571807	28.1693
0.0815268	30.5726
0.165631	33.1945
0.271869	35.5978
0.375893	37.6735
0.530822	40.4045
0.687965	43.2449
0.820761	45.2113
0.964624	47.2869
