Adsorption isotherm of Carbon Dioxide on Activated DCPCBim-MOF-Zn
DOI: 10.1021/Ic301781n
Adsorbate Carbon Dioxide: InChIKey CURLTUGMZLYLDI-UHFFFAOYSA-N
Temperature: 195 K
Tabular data in the source: 0
pressure (bar)	uptake (cm3(STP)/g)
0.00184882	1.81655
0.00184882	15.4502
0.00184882	25.8065
0.00848865	33.1476
0.0173418	39.8334
0.0284081	45.077
0.0726737	49.4031
0.172271	51.5006
0.378106	54.2535
0.552955	55.9577
0.683538	57.2686
0.822975	58.4485
0.991184	60.2838
