Adsorption isotherm of Methane on Activated DCPCBim-MOF-Zn
DOI: 10.1021/Ic301781n
Adsorbate Methane: InChIKey VNWKTOKETHGBQD-UHFFFAOYSA-N
Temperature: 195 K
Tabular data in the source: 0
pressure (bar)	uptake (cm3(STP)/g)
0.00406209	0.674161
0.00848865	9.41366
0.0261949	15.0069
0.0394745	21.8237
0.0771002	30.0389
0.136859	36.5061
0.20547	41.7498
0.33384	47.6926
0.457784	53.1111
0.619353	58.8792
0.736657	63.249
0.858387	66.9195
0.933639	69.3666
1.00446	71.6389
