Adsorption isotherm of Ethanol on DCPCBim-MOF-Zn
DOI: 10.1021/Ic301781n
Adsorbate Ethanol: InChIKey LFQSCWFLJHTTHZ-UHFFFAOYSA-N
Temperature: 298 K
Tabular data in the source: 0
pressure (bar)	uptake (cm3(STP)/g)
0.00184882	0.131067
0.00184882	16.3428
0.0107019	20.4722
0.0439011	39.7428
0.0948065	47.6958
0.158992	49.8369
0.247523	51.2134
0.3604	52.1311
0.462211	52.8958
0.552955	53.2017
0.690178	53.6605
0.774283	53.6605
0.820761	53.6605
0.871667	53.6605
0.953558	53.6605
