Adsorption isotherm of Nitrogen on UiO-66(Ce0.05Zr0.95)
DOI: 10.1039/c5cc05072c
Article source: Figure 2
Adsorbate Nitrogen: InChIKey IJGRMHOSHXDMSA-UHFFFAOYSA-N
Kind: experiment
Temperature: 77 K
Tabular data in the source: 0
pressure (bar)	uptake (cm3(STP)/g)
0	0
0.002203	172.043
0.004405	212.366
0.011014	245.968
0.035243	267.473
0.059473	272.849
0.107933	279.57
0.160799	283.602
0.187231	283.602
0.213664	284.946
0.237894	288.978
0.264327	288.978
0.301772	293.011
0.312786	290.323
0.348029	293.011
0.363449	294.355
0.398692	298.387
0.409706	294.355
0.449354	298.387
0.462571	295.699
0.515436	299.731
0.550679	303.763
0.563896	301.075
0.616761	302.419
0.665221	303.763
0.704869	309.14
0.715883	306.452
0.764343	309.14
0.815006	314.516
0.863465	318.548
0.909722	322.581
0.944966	337.366
0.96479	338.71
0.98902	416.667
1.00003	485.215
