Adsorption isotherm of Cadmium(II) Ion, Water on Compost from Poultry Hatchery Waste
DOI: 10.1002/cjce.22761
Article source: Figure 3
Adsorbate Cadmium(II) Ion: InChIKey WLZRMCYVCSSEQC-UHFFFAOYSA-N
Adsorbate Water: InChIKey XLYOFNOQVPJJNP-UHFFFAOYSA-N
Kind: experiment
Temperature: 308 K
Tabular data in the source: 0
pressure (bar)	Cadmium(II) Ion fraction	Cadmium(II) Ion uptake (mg/g)	Water fraction	Water uptake (mg/g)	total uptake (mg/g)
1.01325	8.76	13.469			
1.01325	40.88	26.819			
1.01325	151.84	35.399			
1.01325	392.75	40.25			
1.01325	677.46	40.853			
1.01325	1182.64	42.059			
