Adsorption isotherm of Lead(II) Ion, Water on Compost from Poultry Hatchery Waste
DOI: 10.1002/cjce.22761
Article source: Figure 3
Adsorbate Lead(II) Ion: InChIKey RVPVRDXYQKGNMQ-UHFFFAOYSA-N
Adsorbate Water: InChIKey XLYOFNOQVPJJNP-UHFFFAOYSA-N
Kind: experiment
Temperature: 308 K
Tabular data in the source: 0
pressure (bar)	Lead(II) Ion fraction	Lead(II) Ion uptake (mg/g)	Water fraction	Water uptake (mg/g)	total uptake (mg/g)
1.01325	5.49	102.465			
1.01325	118.57	142.964			
1.01325	203.58	158.221			
1.01325	458.16	155.257			
1.01325	1041.64	153.974			
1.01325	1485.9	154.98			
