Adsorption isotherm of Cadmium(II) Ion, Water on Compost from Poultry Hatchery Waste
DOI: 10.1002/cjce.22761
Article source: Figure 3
Adsorbate Cadmium(II) Ion: InChIKey WLZRMCYVCSSEQC-UHFFFAOYSA-N
Adsorbate Water: InChIKey XLYOFNOQVPJJNP-UHFFFAOYSA-N
Kind: experiment
Temperature: 298 K
Tabular data in the source: 0
pressure (bar)	Cadmium(II) Ion fraction	Cadmium(II) Ion uptake (mg/g)	Water fraction	Water uptake (mg/g)	total uptake (mg/g)
1.01325	7.3	13.469			
1.01325	74.46	23.611			
1.01325	189.81	28.03			
1.01325	492.03	27.852			
1.01325	713.96	30.883			
1.01325	1235.2	31.308			
