Adsorption isotherm of Lead(II) Ion, Water on Compost from Poultry Hatchery Waste
DOI: 10.1002/cjce.22761
Article source: Figure 3
Adsorbate Lead(II) Ion: InChIKey RVPVRDXYQKGNMQ-UHFFFAOYSA-N
Adsorbate Water: InChIKey XLYOFNOQVPJJNP-UHFFFAOYSA-N
Kind: experiment
Temperature: 318 K
Tabular data in the source: 0
pressure (bar)	Lead(II) Ion fraction	Lead(II) Ion uptake (mg/g)	Water fraction	Water uptake (mg/g)	total uptake (mg/g)
1.01325	5.49	102.465			
1.01325	57.62	149.092			
1.01325	80.35	169.834			
1.01325	183.9	182.672			
1.01325	730.28	185.42			
1.01325	1214.31	185.129			
