Adsorption isotherm of Lead(II) Ion, Water on Compost from Poultry Hatchery Waste
DOI: 10.1002/cjce.22761
Article source: Figure 3
Adsorbate Lead(II) Ion: InChIKey RVPVRDXYQKGNMQ-UHFFFAOYSA-N
Adsorbate Water: InChIKey XLYOFNOQVPJJNP-UHFFFAOYSA-N
Kind: experiment
Temperature: 298 K
Tabular data in the source: 0
pressure (bar)	Lead(II) Ion fraction	Lead(II) Ion uptake (mg/g)	Water fraction	Water uptake (mg/g)	total uptake (mg/g)
1.01325	4.13	98.766			
1.01325	74.81	142.655			
1.01325	529.65	141.728			
1.01325	812.12	142.295			
1.01325	1156.89	139.951			
1.01325	1565.37	144.505			
