Adsorption isotherm of Nitrogen, Oxygen on Li100%LSX + graphite
DOI: 10.1016/j.micromeso.2011.03.008
Article source: Table 7
Adsorbate Nitrogen: InChIKey IJGRMHOSHXDMSA-UHFFFAOYSA-N
Adsorbate Oxygen: InChIKey MYMOFIZGZYHOMD-UHFFFAOYSA-N
Kind: experiment
Temperature: 303 K
Tabular data in the source: 0
pressure (bar)	Nitrogen fraction	Nitrogen uptake (mmol/g)	Oxygen fraction	Oxygen uptake (mmol/g)	total uptake (mmol/g)
4	0.826	1.239	0.174	0.061	
4	0.715	1.158	0.285	0.099	
4	0.456	0.891	0.544	0.225	
4	0.308	0.7	0.692	0.288	
4	0.168	0.452	0.832	0.373	
