Adsorption isotherm of Nitrogen, Oxygen on Zeolite Li100%LSX
DOI: 10.1016/j.micromeso.2011.03.008
Article source: Table 4
Adsorbate Nitrogen: InChIKey IJGRMHOSHXDMSA-UHFFFAOYSA-N
Adsorbate Oxygen: InChIKey MYMOFIZGZYHOMD-UHFFFAOYSA-N
Kind: experiment
Temperature: 303 K
Tabular data in the source: 0
pressure (bar)	Nitrogen fraction	Nitrogen uptake (mmol/g)	Oxygen fraction	Oxygen uptake (mmol/g)	total uptake (mmol/g)
4	0.818	1.827	0.182	0.08	
4	0.689	1.675	0.311	0.137	
4	0.435	1.302	0.565	0.263	
4	0.274	0.993	0.726	0.371	
4	0.16	0.684	0.84	0.447	
