Adsorption isotherm of Nitrogen, Oxygen on Li100%LSX + bentonite
DOI: 10.1016/j.micromeso.2011.03.008
Article source: Table 6
Adsorbate Nitrogen: InChIKey IJGRMHOSHXDMSA-UHFFFAOYSA-N
Adsorbate Oxygen: InChIKey MYMOFIZGZYHOMD-UHFFFAOYSA-N
Kind: experiment
Temperature: 303 K
Tabular data in the source: 0
pressure (bar)	Nitrogen fraction	Nitrogen uptake (mmol/g)	Oxygen fraction	Oxygen uptake (mmol/g)	total uptake (mmol/g)
4	0.796	1.765	0.204	0.07	
4	0.794	1.745	0.206	0.078	
4	0.562	1.459	0.438	0.188	
4	0.438	1.267	0.562	0.258	
4	0.159	0.66	0.841	0.414	
