Adsorption isotherm of Oxygen on Zeolite Li100%LSX
DOI: 10.1016/j.micromeso.2011.03.008
Article source: Figure 5
Adsorbate Oxygen: InChIKey MYMOFIZGZYHOMD-UHFFFAOYSA-N
Kind: experiment
Temperature: 303 K
Tabular data in the source: 0
pressure (bar)	uptake (mmol/g)
2.48	0.369
3.13	0.465
4.28	0.643
4.93	0.727
6.57	0.936
7.16	1.01
7.89	1.1
8.4	1.17
8.95	1.23
9.57	1.3
10.1	1.35
10.8	1.41
11.3	1.46
11.9	1.51
12.4	1.56
13	1.61
13.7	1.67
14.4	1.72
15.1	1.78
15.9	1.82
16.6	1.88
17.4	1.94
18.2	1.98
19.1	2.04
20.1	2.1
21.1	2.16
22.4	2.24
24	2.32
