Adsorption isotherm of Oxygen on Li100%LSX + bentonite
DOI: 10.1016/j.micromeso.2011.03.008
Article source: Figure 10
Adsorbate Oxygen: InChIKey MYMOFIZGZYHOMD-UHFFFAOYSA-N
Kind: experiment
Temperature: 303 K
Tabular data in the source: 0
pressure (bar)	uptake (mmol/g)
0.199	0.016
0.565	0.0695
0.93	0.112
1.28	0.161
1.61	0.209
1.94	0.257
2.41	0.316
2.77	0.364
3.3	0.444
3.74	0.511
4.13	0.54
4.67	0.607
5.16	0.653
5.61	0.712
6.08	0.76
6.59	0.819
7.14	0.869
7.52	0.931
8.02	0.958
8.48	1.02
9.05	1.09
9.61	1.12
10.1	1.16
10.5	1.22
11.1	1.24
11.6	1.3
12.1	1.35
12.6	1.39
13.1	1.42
13.7	1.46
14.2	1.5
14.7	1.54
15.3	1.58
15.9	1.62
16.5	1.67
17	1.68
17.7	1.73
18.4	1.77
19.1	1.83
19.8	1.86
20.5	1.9
21.4	1.96
