Adsorption isotherm of Nitrogen on Zeolite Li100%LSX
DOI: 10.1016/j.micromeso.2011.03.008
Article source: Figure 4
Adsorbate Nitrogen: InChIKey IJGRMHOSHXDMSA-UHFFFAOYSA-N
Kind: experiment
Temperature: 303 K
Tabular data in the source: 0
pressure (bar)	uptake (mmol/g)
0.0847	0.18
0.421	0.479
0.641	0.799
0.776	0.936
1.04	1.06
1.21	1.15
1.48	1.29
1.67	1.41
2.05	1.57
2.66	1.79
3.31	1.95
3.82	2.1
4.51	2.21
5.01	2.32
5.53	2.4
6.12	2.49
6.81	2.57
7.36	2.64
8	2.7
8.43	2.77
9.27	2.83
9.79	2.87
10.3	2.93
10.8	2.98
11.3	3
11.9	3.04
12.6	3.09
13.3	3.12
13.9	3.16
14.6	3.21
15.2	3.24
15.9	3.27
16.6	3.29
17.3	3.31
18.1	3.34
18.9	3.38
20	3.41
21.3	3.43
22.4	3.47
24.5	3.53
