Adsorption isotherm of Oxygen on Zeolite Li99.7%LSX
DOI: 10.1016/j.micromeso.2011.03.008
Article source: Figure 5
Adsorbate Oxygen: InChIKey MYMOFIZGZYHOMD-UHFFFAOYSA-N
Kind: experiment
Temperature: 303 K
Tabular data in the source: 0
pressure (bar)	uptake (mmol/g)
0.216	0.0248
0.416	0.0646
0.699	0.108
0.898	0.167
1.28	0.21
1.55	0.273
1.86	0.297
2.15	0.338
2.43	0.376
2.61	0.424
2.94	0.467
3.29	0.499
3.46	0.538
3.78	0.562
4.09	0.61
4.43	0.654
4.86	0.711
5.16	0.757
5.56	0.795
5.91	0.838
6.26	0.884
6.59	0.932
7.17	0.982
7.72	1.05
8.04	1.08
8.47	1.14
8.97	1.18
9.4	1.21
9.85	1.26
10.5	1.32
11	1.37
11.4	1.4
11.9	1.44
12.3	1.48
12.8	1.51
13.4	1.56
14	1.61
14.6	1.64
15.1	1.68
15.7	1.73
16.2	1.76
16.8	1.8
