Adsorption isotherm of Nitrogen on Zeolite Li99.7%LSX
DOI: 10.1016/j.micromeso.2011.03.008
Article source: Figure 4
Adsorbate Nitrogen: InChIKey IJGRMHOSHXDMSA-UHFFFAOYSA-N
Kind: experiment
Temperature: 303 K
Tabular data in the source: 0
pressure (bar)	uptake (mmol/g)
0.118	0.132
0.354	0.344
0.455	0.541
0.741	0.71
0.977	0.844
1.16	0.96
1.38	1.07
1.52	1.19
1.8	1.31
2.37	1.48
2.83	1.63
3.31	1.74
3.72	1.83
4.17	1.95
4.71	2.04
5.16	2.11
5.73	2.2
6.23	2.26
6.67	2.35
7.17	2.4
7.59	2.43
8.06	2.48
8.43	2.53
9.04	2.58
9.54	2.62
10	2.65
10.5	2.69
10.9	2.71
11.5	2.75
12.1	2.79
12.7	2.83
13.3	2.85
13.9	2.88
14.4	2.91
14.9	2.95
15.5	2.97
16.2	3
16.7	3.02
17.3	3.04
17.9	3.07
18.7	3.12
19.4	3.12
20.1	3.14
20.8	3.17
21.5	3.19
22.3	3.22
23.2	3.25
24.3	3.27
