Adsorption isotherm of Nitrogen on Li100%LSX + graphite
DOI: 10.1016/j.micromeso.2011.03.008
Article source: Figure 10
Adsorbate Nitrogen: InChIKey IJGRMHOSHXDMSA-UHFFFAOYSA-N
Kind: experiment
Temperature: 303 K
Tabular data in the source: 0
pressure (bar)	uptake (mmol/g)
0.497	0.286
0.663	0.415
0.945	0.522
1.09	0.605
1.33	0.696
1.61	0.787
1.94	0.875
2.55	1.04
3.13	1.16
3.67	1.25
4.26	1.35
4.88	1.44
5.48	1.51
6.14	1.6
6.75	1.66
7.32	1.72
7.98	1.79
8.68	1.84
9.39	1.9
10	1.94
10.7	1.99
11.4	2.04
12.1	2.08
12.9	2.12
13.6	2.16
14.2	2.19
15.1	2.24
15.9	2.26
16.7	2.31
17.4	2.34
18.3	2.37
19.2	2.39
20.2	2.44
21.2	2.48
22.2	2.5
23.5	2.53
25	2.57
