Adsorption isotherm of Oxygen on Li100%LSX + graphite
DOI: 10.1016/j.micromeso.2011.03.008
Article source: Figure 10
Adsorbate Oxygen: InChIKey MYMOFIZGZYHOMD-UHFFFAOYSA-N
Kind: experiment
Temperature: 303 K
Tabular data in the source: 0
pressure (bar)	uptake (mmol/g)
0.482	0.0294
0.764	0.0749
0.996	0.107
1.25	0.134
1.49	0.16
1.73	0.187
1.98	0.222
2.39	0.27
2.89	0.316
3.4	0.356
3.74	0.399
4.08	0.447
4.68	0.497
5.08	0.535
5.55	0.564
5.96	0.604
6.49	0.65
6.89	0.695
7.34	0.738
7.85	0.778
8.29	0.816
8.87	0.853
9.25	0.896
9.75	0.923
10.3	0.957
10.7	0.989
11.3	1.03
11.8	1.08
12.5	1.11
13.1	1.15
13.6	1.2
14.1	1.23
14.7	1.26
15.3	1.3
15.9	1.33
16.5	1.37
17.1	1.39
17.7	1.43
18.4	1.46
19.1	1.5
19.8	1.53
20.6	1.57
21.5	1.61
22.3	1.65
23.2	1.69
24.2	1.73
