Adsorption isotherm of Nitrogen on Li100%LSX + bentonite
DOI: 10.1016/j.micromeso.2011.03.008
Article source: Figure 10
Adsorbate Nitrogen: InChIKey IJGRMHOSHXDMSA-UHFFFAOYSA-N
Kind: experiment
Temperature: 303 K
Tabular data in the source: 0
pressure (bar)	uptake (mmol/g)
0.166	0.128
0.347	0.343
0.579	0.541
0.629	0.661
0.794	0.814
1.06	0.95
1.29	1.07
1.59	1.24
1.87	1.34
2.22	1.49
2.8	1.62
3.28	1.74
3.68	1.84
4.14	1.94
4.68	2.02
5.07	2.11
5.61	2.17
6.02	2.22
6.37	2.28
6.85	2.33
7.42	2.41
7.91	2.43
8.46	2.49
8.91	2.53
9.47	2.56
10	2.6
10.7	2.66
11.2	2.69
11.7	2.72
12.2	2.76
12.7	2.79
13.4	2.83
14	2.85
14.7	2.89
15.4	2.91
16	2.96
16.7	2.99
17.3	2.99
18	3.02
18.9	3.06
19.5	3.08
20.5	3.11
21.4	3.13
22.5	3.16
24.3	3.2
