Adsorption isotherm of Nitrogen, Oxygen on Zeolite Li99.7%LSX
DOI: 10.1016/j.micromeso.2011.03.008
Article source: Table 5
Adsorbate Nitrogen: InChIKey IJGRMHOSHXDMSA-UHFFFAOYSA-N
Adsorbate Oxygen: InChIKey MYMOFIZGZYHOMD-UHFFFAOYSA-N
Kind: experiment
Temperature: 303 K
Tabular data in the source: 0
pressure (bar)	Nitrogen fraction	Nitrogen uptake (mmol/g)	Oxygen fraction	Oxygen uptake (mmol/g)	total uptake (mmol/g)
4	0.821	1.712	0.179	0.075	
4	0.737	1.605	0.263	0.116	
4	0.552	1.389	0.448	0.202	
4	0.411	1.165	0.589	0.276	
4	0.275	0.922	0.725	0.369	
4	0.099	0.488	0.901	0.458	
