Adsorption isotherm of Nitrogen on [Nd(ndc)1.5(DMA)0.5(H2O)]â€¢1.5DMA
DOI: 10.1039/c5ra10799g
Article source: Figure 7a- 2
Adsorbate Nitrogen: InChIKey IJGRMHOSHXDMSA-UHFFFAOYSA-N
Kind: experiment
Temperature: 78 K
Tabular data in the source: 0
pressure (bar)	uptake (cm3(STP)/g)
6.6e-05	2.1593
9.8e-05	13.3024
9.8e-05	12.3193
0.000131	4.3811
0.000131	3.9313
0.000131	3.256
0.000142	1.5286
0.000164	13.9388
0.000186	8.0746
0.000186	6.6825
0.000197	4.9777
0.000197	4.4947
0.000208	0.983
0.000208	0.3978
0.000229	14.5071
0.00024	12.683
0.00024	12.0409
0.00024	11.9045
0.00024	11.5011
0.000251	9.6998
0.000251	9.3403
0.000262	7.5973
0.000306	14.7741
0.000306	13.5695
0.000317	10.4555
0.000317	10.0294
0.000339	5.0774
0.000339	5.6255
0.000382	14.1888
0.000382	14.469
0.000382	13.0637
0.000393	11.1033
0.000393	10.8363
0.000393	9.1827
0.000393	9.0975
0.000393	6.7102
0.000404	7.245
0.000448	15.0351
0.000448	15.0071
0.000798	17.0755
0.001715	17.9733
0.001999	18.5867
0.002218	18.712
0.003638	19.9564
0.004064	19.5928
0.004349	19.8697
0.011112	20.6554
0.047178	21.1668
0.056793	21.1384
0.088009	21.5589
0.107818	24.1784
0.111456	21.6043
0.133253	24.1784
0.14053	21.7577
0.158558	24.0818
0.167397	21.7634
0.188703	24.1557
0.199257	21.9282
0.213931	24.1443
0.223557	21.9907
0.238449	24.2182
0.253418	21.9339
0.267239	24.275
0.276078	22.1726
0.291615	24.1671
0.305655	22.2635
0.320263	24.1614
0.332456	22.3373
0.372719	24.2125
0.3889	22.3544
0.424453	24.1841
0.441563	22.3601
0.476264	24.2352
0.496226	22.6158
0.529212	24.4
0.552593	22.7862
0.581449	24.633
0.606404	22.9965
0.634407	24.6785
0.662487	23.167
0.687431	24.7467
0.717292	23.4227
0.740094	24.8717
0.772031	23.7466
0.793905	25.116
0.826967	24.0989
0.845563	25.4058
0.883487	24.4341
0.900084	26.0536
0.937287	24.9683
0.961084	27.7413
0.990944	26.7639
1.04144	35.1852
1.04175	35.2139
1.06795	37.9525
1.08389	44.6747
