Adsorption isotherm of Nitrogen on Nd(ndc)1.5(H2O)2]â€¢2DMA
DOI: 10.1039/c5ra10799g
Article source: Figure 7a- 3
Adsorbate Nitrogen: InChIKey IJGRMHOSHXDMSA-UHFFFAOYSA-N
Kind: experiment
Temperature: 78 K
Tabular data in the source: 0
pressure (bar)	uptake (cm3(STP)/g)
0.000852	16.0593
0.000929	15.7398
0.001639	16.6487
0.003922	16.927
0.006982	17.2166
0.009549	15.2683
0.010981	17.4154
0.014827	17.6028
0.015395	15.2455
0.018815	17.7164
0.023731	17.7788
0.024594	15.4499
0.029085	17.8128
0.032723	15.3419
0.036427	18.0229
0.042699	15.5292
0.046829	18.0342
0.051177	15.6314
0.057241	18.0568
0.059667	15.7847
0.063513	18.1646
0.067785	15.7505
0.071423	18.1759
0.075695	15.7504
0.076274	18.2156
0.07941	18.2724
0.084895	15.773
0.089244	18.3518
0.090959	15.8184
0.102071	15.9206
0.104005	18.2949
0.1102	15.875
0.123387	18.2833
0.127736	15.9884
0.141994	18.3683
0.144485	16.0678
0.164371	18.3965
0.167015	16.0505
0.184048	18.5894
0.189184	16.1412
0.201945	18.5835
0.203584	16.1524
0.220825	16.6938
0.222038	16.2772
0.243639	18.6985
0.244065	18.6797
0.266026	16.2767
0.268299	18.81
0.287977	16.4298
0.295603	18.8154
0.317204	16.6113
0.326185	18.8151
0.343645	16.5826
0.35869	18.883
0.359476	16.6733
0.375439	16.7641
0.392975	16.7525
0.393828	18.8769
0.410654	16.883
0.429468	16.9623
0.433751	18.9617
0.448927	17.0643
0.46925	17.1209
0.477084	18.9669
0.493626	17.2286
0.513293	17.342
0.522492	19.2505
0.536467	17.427
0.548791	19.3695
0.561695	17.4949
0.573746	19.3692
0.587283	17.6764
0.60211	19.3973
0.614085	17.7499
0.630769	19.4822
0.642962	17.8746
0.661493	19.8227
0.672178	18.0333
0.692566	19.8792
0.703328	18.1409
0.727639	20.106
0.734981	18.4303
0.75986	20.2988
0.768906	18.7992
0.798417	20.412
0.805192	18.9522
0.836058	20.6957
0.843476	19.3323
0.876473	21.0304
0.881608	19.4342
0.918811	21.3594
0.922449	19.9904
0.96529	22.2872
0.965651	22.2904
1.00807	22.0003
1.02047	24.6585
1.05162	25.7147
1.06416	31.4118
1.07785	34.4847
1.08398	40.2671
