Adsorption isotherm of Hydrogen on [Nd(ndc)1.5(DMF)2]•DMF•CH3OH•H2O
DOI: 10.1039/c5ra10799g
Article source: Figure 7b- 1
Adsorbate Hydrogen: InChIKey UFHFLCQGNIYNRP-UHFFFAOYSA-N
Kind: experiment
Temperature: 78 K
Tabular data in the source: 0
pressure (bar)	uptake (wt%)
0.000892	0.01855
0.001449	0.04614
0.002097	0.09741
0.002341	0.07766
0.002503	0.10483
0.004124	0.13289
0.004367	0.12804
0.004448	0.12345
0.004519	0.14456
0.004843	0.15481
0.005492	0.17796
0.005573	0.1791
0.007843	0.19596
0.008815	0.20939
0.00921	0.23171
0.009302	0.23129
0.009464	0.21579
0.010507	0.23785
0.010994	0.2444
0.011318	0.25661
0.01148	0.26517
0.011723	0.2763
0.012615	0.28764
0.014885	0.30032
0.016668	0.31428
0.019171	0.3286
0.019333	0.32912
0.024277	0.34713
0.028249	0.36352
0.03287	0.37432
0.033924	0.37958
0.038868	0.3932
0.044786	0.40494
0.05273	0.4183
0.061565	0.42963
0.070472	0.44271
0.075913	0.44562
0.080604	0.45391
0.086278	0.45877
0.09179	0.46477
0.099977	0.46976
0.107192	0.47664
0.119351	0.48467
0.124782	0.48878
0.144074	0.49856
0.146182	0.49985
0.1675	0.51044
0.187857	0.5186
0.197097	0.52123
0.212012	0.52716
0.222956	0.53026
0.235844	0.53512
0.254083	0.53964
0.259351	0.5422
0.276941	0.54571
0.28294	0.5478
0.303691	0.55178
0.312689	0.55474
0.330117	0.55791
0.349328	0.56169
0.358001	0.5623
0.381114	0.56742
0.391489	0.5687
0.413943	0.57288
0.424157	0.57322
0.443935	0.5774
0.462741	0.57942
0.483087	0.58226
0.506027	0.58455
0.531237	0.58799
0.575181	0.59203
0.581747	0.59493
0.602174	0.595
0.611658	0.59682
0.629978	0.5981
0.661429	0.60046
0.668887	0.60241
0.689973	0.60295
0.719559	0.60545
0.731394	0.607
0.74866	0.60801
0.771033	0.60989
0.78846	0.6109
0.823803	0.61347
0.841889	0.61488
0.862397	0.61589
0.883635	0.61764
0.901874	0.61811
0.943133	0.62128
0.960723	0.62229
0.986672	0.62398
1.02169	0.62553
