Adsorption isotherm of Hydrogen on Nd(ndc)1.5(H2O)2]â€¢2DMA
DOI: 10.1039/c5ra10799g
Article source: Figure 7b- 3
Adsorbate Hydrogen: InChIKey UFHFLCQGNIYNRP-UHFFFAOYSA-N
Kind: experiment
Temperature: 78 K
Tabular data in the source: 0
pressure (bar)	uptake (wt%)
0.000324	0.03723
0.000476	0.04634
0.002178	0.08465
0.004205	0.11716
0.005654	0.16067
0.006059	0.14785
0.008167	0.17564
0.008977	0.19237
0.009626	0.20565
0.01222	0.21806
0.014733	0.22926
0.016354	0.24201
0.020245	0.2528
0.021299	0.2582
0.027135	0.27061
0.030458	0.27904
0.032566	0.28497
0.036295	0.29374
0.038878	0.30001
0.042202	0.30837
0.046995	0.31431
0.052182	0.32058
0.057857	0.32746
0.063125	0.33454
0.070016	0.33919
0.07415	0.34405
0.079986	0.35046
0.087281	0.35626
0.095549	0.36037
0.105196	0.3665
0.109168	0.36745
0.116301	0.37372
0.120445	0.375
0.126525	0.37844
0.133009	0.38154
0.137387	0.38383
0.147843	0.38714
0.158705	0.39226
0.17128	0.39597
0.175738	0.39785
0.193004	0.40251
0.204595	0.40621
0.213512	0.40864
0.222196	0.40985
0.231842	0.41214
0.243028	0.41524
0.252755	0.41726
0.258673	0.41841
0.273192	0.41962
0.280488	0.42131
0.288108	0.42265
0.296051	0.42495
0.301645	0.42596
0.313003	0.42737
0.323298	0.42777
0.339429	0.43067
0.349804	0.43141
0.361487	0.43296
0.371214	0.43444
0.380536	0.43626
0.392776	0.43734
0.395046	0.43747
0.412241	0.43848
0.415645	0.43915
0.431938	0.44097
0.436883	0.44124
0.45116	0.44306
0.4711	0.444
0.49397	0.44629
0.495429	0.44716
0.518044	0.4481
0.542616	0.45093
0.568717	0.45201
0.570338	0.45167
0.592234	0.45355
0.620524	0.45523
0.645906	0.45469
0.649797	0.45698
0.675747	0.45704
0.680286	0.45846
0.708505	0.45859
0.712963	0.4598
0.741091	0.4604
0.747657	0.46155
0.777011	0.46154
0.78228	0.46269
0.812687	0.46322
0.819415	0.46416
0.850715	0.46517
0.85801	0.46591
0.890687	0.46651
0.898064	0.46725
0.931146	0.46853
0.941198	0.46933
0.975902	0.47014
1.00988	0.47141
