Adsorption isotherm of Hydrogen on [Nd(ndc)1.5(DMA)0.5(H2O)]â€¢1.5DMA
DOI: 10.1039/c5ra10799g
Article source: Figure 7b- 2
Adsorbate Hydrogen: InChIKey UFHFLCQGNIYNRP-UHFFFAOYSA-N
Kind: experiment
Temperature: 78 K
Tabular data in the source: 0
pressure (bar)	uptake (wt%)
0.006485	0.01477
0.009808	0.01848
0.014186	0.02071
0.020346	0.02341
0.027327	0.02556
0.036244	0.0284
0.043539	0.03096
0.052213	0.03298
0.052547	0.03144
0.056833	0.03265
0.063004	0.03474
0.068435	0.03629
0.078	0.03757
0.085954	0.0174
0.08643	0.03926
0.094222	0.03932
0.105165	0.04135
0.115946	0.0431
0.122279	0.0203
0.12697	0.04661
0.140112	0.04829
0.153892	0.05012
0.160387	0.0232
0.168493	0.05322
0.177653	0.05335
0.186327	0.0547
0.195578	0.02725
0.196064	0.05733
0.204089	0.05909
0.215437	0.06172
0.225651	0.06286
0.235793	0.06401
0.238955	0.03217
0.247061	0.06711
0.260192	0.06934
0.271065	0.06961
0.285088	0.07123
0.288503	0.03555
0.298068	0.07393
0.311767	0.07554
0.325233	0.03926
0.327411	0.07817
0.34258	0.08094
0.358792	0.0835
0.372987	0.04546
0.376635	0.08647
0.394793	0.08782
0.413284	0.09038
0.427723	0.05153
0.43283	0.09409
0.453581	0.09564
0.474829	0.09989
0.482783	0.05861
0.498914	0.10313
0.521287	0.10603
0.527052	0.06313
0.546669	0.10886
0.567916	0.06988
0.572051	0.11163
0.599378	0.11521
0.616411	0.0775
0.628894	0.11905
0.6584	0.12229
0.677783	0.08796
0.68978	0.12579
0.72116	0.12876
0.735761	0.09625
0.755297	0.13187
0.790487	0.13537
0.800792	0.10704
0.827957	0.13875
0.838414	0.11413
0.867849	0.14313
0.874496	0.12269
0.90847	0.14279
0.914955	0.13106
0.956721	0.14443
0.957045	0.14455
0.998153	0.14657
