Adsorption isotherm of Nitrogen on [Nd(ndc)1.5(DMF)2]•DMF•CH3OH•H2O
DOI: 10.1039/c5ra10799g
Article source: Figure 7a- 1
Adsorbate Nitrogen: InChIKey IJGRMHOSHXDMSA-UHFFFAOYSA-N
Kind: experiment
Temperature: 78 K
Tabular data in the source: 0
pressure (bar)	uptake (cm3(STP)/g)
9e-06	25.1016
1.1e-05	24.9683
1.1e-05	24.8556
2.2e-05	19.0416
3.3e-05	18.9698
8.7e-05	18.3333
0.013526	35.4352
0.043092	39.4471
0.05935	40.5098
0.082153	41.0555
0.107162	45.2833
0.112942	41.2659
0.132106	45.3288
0.143589	41.3285
0.158689	45.329
0.167823	41.4139
0.184988	45.3178
0.198176	41.5277
0.212139	45.3122
0.22312	41.6358
0.238231	45.3351
0.251637	41.6871
0.264671	45.2784
0.278864	41.7781
0.29097	45.2615
0.307938	41.8578
0.318056	45.2048
0.333735	41.9034
0.37108	45.2164
0.388834	41.989
0.424104	45.1542
0.441356	42.0688
0.47692	45.1147
0.496172	42.177
0.530304	45.0979
0.552113	42.2796
0.582465	45.1323
0.606775	42.3822
0.636352	45.161
0.661941	42.4847
0.689092	45.1101
0.71597	42.6782
0.741766	45.099
0.771703	42.8888
0.795642	45.1391
0.826934	43.0538
0.849103	45.2985
0.881608	43.361
0.90098	45.5317
0.93555	43.759
0.962417	46.0094
0.990649	44.4412
1.02685	47.5951
1.0401	45.9984
1.06391	48.4703
1.06561	49.1935
1.07778	53.9596
1.08155	57.9998
