Adsorption isotherm of Krypton on SWCNT
DOI: 10.1021/la991670p
Article source: Figure 2
Adsorbate Krypton: InChIKey DNNSSWSSYDEUBZ-UHFFFAOYSA-N
Kind: experiment
Temperature: 77 K
Tabular data in the source: 0
pressure (bar)	uptake (mmol/g)
0	0.082192
0	0.191781
0	0.292237
0	0.401826
0	0.538813
0	0.657534
0	0.776256
0	0.858447
0	0.949772
0	1.02283
0	1.14155
1e-06	1.26027
2e-06	1.36986
3e-06	1.45205
5e-06	1.54338
6e-06	1.61644
8e-06	1.69863
1e-05	1.78082
1.2e-05	1.85388
1.4e-05	1.93607
1.7e-05	2.03653
2e-05	2.11872
2.3e-05	2.20091
2.6e-05	2.27397
3.2e-05	2.34703
4e-05	2.43836
5.6e-05	2.52968
7.9e-05	2.60274
0.000111	2.69406
0.00015	2.75799
0.000196	2.83105
0.000302	2.91324
0.000319	2.9863
0.000342	2.94977
0.000448	2.9863
0.000586	3.05023
0.000665	3.14155
0.000767	3.11416
0.000951	3.19635
0.001119	3.27854
0.00134	3.379
0.001416	3.47032
0.001495	3.51598
0.001791	3.6621
0.001999	3.79909
0.002355	3.98174
0.00263	4.17352
