Adsorption isotherm of Methane on SWCNT
DOI: 10.1021/la991670p
Article source: Figure 1
Adsorbate Methane: InChIKey VNWKTOKETHGBQD-UHFFFAOYSA-N
Kind: experiment
Temperature: 79 K
Tabular data in the source: 0
pressure (bar)	uptake (mmol/g)
0	0.152044
0	0.534839
0	0.900726
0	1.02853
0	1.0595
2e-06	1.23373
2e-06	1.2658
8e-06	1.40827
1.3e-05	1.52774
1.6e-05	1.55147
2.4e-05	1.67899
3.1e-05	1.8467
3.3e-05	1.79861
4.4e-05	1.93429
5.9e-05	2.06995
9.8e-05	2.22135
0.000212	2.40446
0.000486	2.5475
0.000663	2.61914
0.000905	2.65878
0.00116	2.69849
0.001341	2.72233
0.001457	2.72223
0.00165	2.76209
0.002206	2.81775
0.002715	2.87351
0.003274	2.93729
0.004204	3.041
0.004968	3.12081
0.005748	3.18464
0.006659	3.31247
0.00756	3.45632
0.008581	3.59218
0.009545	3.74405
0.01041	3.94395
0.01261	4.23173
0.014707	4.67955
