Adsorption isotherm of N-Butane on Silicalite MFI
DOI: 10.1021/Jp034401n
Adsorbate N-Butane: InChIKey IJDNQMDRQITEOD-UHFFFAOYSA-N
Temperature: 301 K
Tabular data in the source: 0
pressure (bar)	uptake (mmol/g)
1.12e-05	0.0319919
2.95e-05	0.0483785
6.09e-05	0.0920759
0.000102	0.119387
0.000723	0.687454
0.00100822	0.834933
0.00308033	1.23367
0.00470032	1.33199
0.00761859	1.34838
0.00999673	1.51771
0.0314782	1.57779
0.0755401	1.62149
0.321678	1.63787
0.553844	1.66519
1.04395	1.5614
10.351	1.6488
