Adsorption isotherm of Isobutane on Silicalite MFI
DOI: 10.1021/Jp034401n
Adsorbate Isobutane: InChIKey NNPPMTNAJDCUHE-UHFFFAOYSA-N
Temperature: 308 K
Tabular data in the source: 0
pressure (bar)	uptake (mmol/g)
0.000617	0.27779
0.001	0.365185
0.00155625	0.458042
0.0136756	0.742076
0.071217	0.769387
0.146962	0.840395
0.219784	0.905941
0.57742	1.15174
0.678278	1.22275
0.796752	1.29922
1.01437	1.34838
