Adsorption isotherm of N-propane on Silicalite MFI
DOI: 10.1021/Jp034401n
Adsorbate N-propane: InChIKey ATUOYWHBWRKTHZ-UHFFFAOYSA-N
Temperature: 308 K
Tabular data in the source: 0
pressure (bar)	uptake (mmol/g)
0.0214585	1.12443
0.0284415	1.32107
0.0351331	1.37569
0.0555316	1.50678
0.0789735	1.58325
0.108425	1.65972
0.190473	1.74166
0.243721	1.76897
0.399035	1.83998
0.528888	1.87821
0.865927	1.90552
1.41775	1.97107
2.49061	1.99292
3.54198	1.99838
5.40475	2.03115
7.42032	2.03661
8.54278	2.03115
