Adsorption isotherm of N-Butane on Silicalite MFI
DOI: 10.1021/Jp034401n
Adsorbate N-Butane: InChIKey IJDNQMDRQITEOD-UHFFFAOYSA-N
Temperature: 301 K
Tabular data in the source: 0
pressure (bar)	uptake (mmol/g)
0.000586	0.605521
0.000894	0.785773
0.00173589	1.00972
0.00289987	1.16266
0.00380507	1.25006
0.00969949	1.36477
0.0131172	1.403
0.0206291	1.43031
0.0366063	1.46855
0.0711146	1.50132
0.13006	1.54502
0.204542	1.57233
0.422089	1.59418
0.663809	1.59964
1.07595	1.62149
