Adsorption isotherm of Isobutane on Silicalite MFI
DOI: 10.1021/Jp034401n
Adsorbate Isobutane: InChIKey NNPPMTNAJDCUHE-UHFFFAOYSA-N
Temperature: 301 K
Tabular data in the source: 0
pressure (bar)	uptake (mmol/g)
9.77e-06	0.0156053
2.78e-05	0.0319919
6.74e-05	0.0811516
0.000114	0.0975381
0.000696	0.348799
0.00104061	0.392496
0.00321145	0.561824
0.00480277	0.583673
0.00636567	0.62737
0.0107417	0.660143
0.0318423	0.769387
0.0495762	0.845857
0.0741418	0.862244
0.102305	0.966026
0.303269	0.97695
0.511746	1.06981
0.974358	1.20636
3.00698	1.36477
4.87392	1.38661
7.289	1.52317
10.9008	1.62149
52.3767	1.73073
108.084	1.61603
