Adsorption isotherm of N-propane on Silicalite MFI
DOI: 10.1021/Jp034401n
Adsorbate N-propane: InChIKey ATUOYWHBWRKTHZ-UHFFFAOYSA-N
Temperature: 301 K
Tabular data in the source: 0
pressure (bar)	uptake (mmol/g)
0.000105	0.0265297
0.000282	0.0593028
0.000478	0.0920759
0.000657	0.103
0.000968	0.124849
0.00309331	0.490815
0.00524607	0.769387
0.00695324	1.00426
0.00988846	1.10258
0.0305169	1.57233
0.0499641	1.75804
0.0710557	1.76897
0.104673	1.90006
0.301063	1.92737
0.492919	1.92737
0.676741	1.97653
1.108	1.97653
