Adsorption isotherm of Nitrogen on MCM-41
DOI: 10.1021/acs.langmuir.6b01669
Article source: Figure 5- MCM 41
Adsorbate Nitrogen: InChIKey IJGRMHOSHXDMSA-UHFFFAOYSA-N
Kind: experiment
Temperature: 77 K
Tabular data in the source: 0
pressure (bar)	uptake (cm3(STP)/g)
0.009423	129.956
0.034562	165.673
0.068536	189.843
0.118469	214.863
0.162627	232.067
0.207078	249.515
0.247111	264.889
0.266667	273.931
0.285959	285.638
0.300287	295.037
0.304877	305.418
0.322457	322.144
0.327503	341.929
0.341982	356.703
0.347322	379.541
0.359248	402.249
0.370302	406.953
0.38162	433.209
0.39303	435.875
0.397609	446.149
0.415524	451.334
0.418999	457.562
0.447127	462.68
0.455101	461.089
0.475326	464.135
0.497425	485.36
0.517821	508.639
0.523759	468.268
0.559121	470.452
0.562485	511.98
0.616897	516.416
0.622024	474.336
0.669829	519.448
0.678938	478.405
0.720471	522.604
0.733127	482.352
0.778794	526.428
0.78768	486.117
0.835485	531.413
0.843794	492.324
0.883189	538.233
0.896736	501.341
0.920548	548.234
0.93831	516.959
0.953782	564.954
0.96734	541.559
0.978465	590.106
0.990999	575.627
0.995609	616.543
1.00247	604.143
1.00803	631.561
