Adsorption isotherm of Nitrogen on MCM-41-ALD
DOI: 10.1021/acs.langmuir.6b01669
Article source: Figure 5- MCM 41 ALD
Adsorbate Nitrogen: InChIKey IJGRMHOSHXDMSA-UHFFFAOYSA-N
Kind: experiment
Temperature: 77 K
Tabular data in the source: 0
pressure (bar)	uptake (cm3(STP)/g)
0.011075	99.659
0.038828	123.427
0.083694	142.367
0.130476	156.479
0.178221	170.775
0.202275	179.023
0.205821	173.34
0.226036	187.943
0.239461	190.569
0.25312	203.034
0.273415	214.459
0.295555	229.062
0.323521	243.725
0.360636	255.394
0.401733	263.824
0.44203	271.888
0.444979	268.771
0.462103	277.63
0.464312	271.092
0.481061	285.756
0.484678	273.23
0.498843	300.909
0.502906	274.268
0.521722	303.657
0.526069	276.711
0.553964	306.467
0.558909	279.398
0.582892	309.704
0.586733	281.596
0.612996	311.78
0.614911	283.611
0.639786	314.406
0.641185	285.626
0.669454	316.726
0.673132	287.763
0.699781	319.169
0.70199	289.656
0.733644	322.528
0.735042	321.417
0.762643	326.315
0.766037	293.502
0.797255	330.285
0.802707	296.005
0.836732	336.087
0.843591	299.853
0.875103	343.174
0.885945	305.411
0.922037	357.042
0.936344	319.768
0.966752	380.931
0.979884	351.234
0.991404	400.116
1.00018	383.679
1.00631	402.437
1.00757	411.419
