Adsorption isotherm of Nitrogen on CuBTC
DOI: 10.1039/C2jm15596f
Adsorbate Nitrogen: InChIKey IJGRMHOSHXDMSA-UHFFFAOYSA-N
Temperature: 77 K
Tabular data in the source: 0
pressure (bar)	uptake (cm3(STP)/g)
0.000603521	163.22
0.00076744	146.441
0.000998418	122.797
0.00268232	175.424
0.00482072	181.525
0.0201695	185.339
0.0596815	190.678
0.0706641	191.441
0.0926293	192.966
0.105802	194.492
0.116793	194.492
0.127775	195.254
0.143161	195.254
0.156334	196.78
0.169522	196.78
0.20247	199.068
0.22445	199.068
0.244225	199.831
0.26619	201.356
0.288178	200.593
0.312341	202.119
0.334321	202.119
0.349707	202.119
0.398056	202.881
0.404635	204.407
0.426622	203.644
0.446404	203.644
0.459585	204.407
0.481565	204.407
0.492548	205.169
0.543095	205.932
0.591451	205.932
0.595832	207.458
0.617819	206.695
0.639792	207.458
0.661772	207.458
0.703527	208.22
0.710113	208.983
0.732101	208.22
0.754081	208.22
0.804635	208.22
0.811214	209.746
0.833202	208.983
0.855182	208.983
0.877155	209.746
0.901325	210.508
