Adsorption isotherm of Nitrogen on CuBTC
DOI: 10.1039/C2jm15596f
Adsorbate Nitrogen: InChIKey IJGRMHOSHXDMSA-UHFFFAOYSA-N
Temperature: 77 K
Tabular data in the source: 0
pressure (bar)	uptake (cm3(STP)/g)
5.24e-05	4.31651
0.000366938	30.2156
0.000629036	51.7981
0.0112178	123.733
0.035558	128.031
0.0695959	130.884
0.0890436	132.308
0.110929	134.45
0.137654	135.15
0.169246	136.565
0.19598	137.984
0.247001	139.385
0.288308	140.794
0.334472	142.198
0.380637	143.603
0.429221	144.286
0.475377	144.972
0.52155	147.096
0.565276	147.783
0.611441	149.188
0.813195	162.707
