Adsorption isotherm of Nitrogen on CuBTC
DOI: 10.1039/C2jm15596f
Adsorbate Nitrogen: InChIKey IJGRMHOSHXDMSA-UHFFFAOYSA-N
Temperature: 77 K
Tabular data in the source: 0
pressure (bar)	uptake (cm3(STP)/g)
0.00113998	108.305
0.00544659	117.458
0.0185527	125.847
0.0514781	130.424
0.0822204	133.475
0.117374	135
0.148131	136.525
0.189886	137.288
0.23164	138.051
0.258002	139.576
0.286576	139.576
0.310746	140.339
0.343716	140.339
0.365667	143.39
0.398622	144.915
0.427196	144.915
0.45577	144.915
0.508508	146.441
0.56345	147.203
0.613997	147.966
0.651341	150.254
0.710657	153.305
0.776575	155.593
0.846852	161.695
0.895148	167.797
0.919222	178.475
