Adsorption isotherm of Nitrogen on CuBTC
DOI: 10.1039/C2jm15596f
Adsorbate Nitrogen: InChIKey IJGRMHOSHXDMSA-UHFFFAOYSA-N
Temperature: 77 K
Tabular data in the source: 0
pressure (bar)	uptake (cm3(STP)/g)
0.00980536	121.271
0.0339238	127.373
0.0580796	129.661
0.0800373	131.949
0.0998045	133.475
0.13276	135
0.148123	137.288
0.17669	138.051
0.19867	138.051
0.249195	141.102
0.304122	143.39
0.341466	145.678
0.394204	147.203
0.438156	147.966
0.486483	151.017
0.512822	154.831
0.543586	155.593
0.57216	155.593
0.600727	156.356
0.627096	157.119
0.736944	162.458
0.837978	170.085
0.912539	187.627
0.921234	197.542
0.942931	226.525
