Adsorption isotherm of Carbon Dioxide on NH2-MIL-53
DOI: 10.1016/j.micromeso.2012.10.002
Adsorbate Carbon Dioxide: InChIKey CURLTUGMZLYLDI-UHFFFAOYSA-N
Temperature: 303 K
Tabular data in the source: 0
pressure (bar)	uptake (molecules/unitcell)
0.0112126	0.306804
0.0323136	0.74831
0.0634125	1.40096
0.103515	2.32199
0.306392	4.82545
0.508206	5.83836
