Adsorption isotherm of Carbon Dioxide on MIL-53
DOI: 10.1016/j.micromeso.2012.10.002
Adsorbate Carbon Dioxide: InChIKey CURLTUGMZLYLDI-UHFFFAOYSA-N
Temperature: 303 K
Tabular data in the source: 0
pressure (bar)	uptake (molecules/unitcell)
0.0621773	0.540972
0.102533	0.888777
0.304285	2.60869
0.509716	3.88946
