Adsorption isotherm of Carbon Dioxide on COOH-MIL-53
DOI: 10.1016/j.micromeso.2012.10.002
Adsorbate Carbon Dioxide: InChIKey CURLTUGMZLYLDI-UHFFFAOYSA-N
Temperature: 303 K
Tabular data in the source: 0
pressure (bar)	uptake (molecules/unitcell)
0.0330615	0.519082
0.0620058	1.17153
0.104681	1.63421
0.306323	3.27767
0.507726	4.00392
