Adsorption isotherm of Carbon Dioxide on MIL-53
DOI: 10.1016/j.micromeso.2012.10.002
Adsorbate Carbon Dioxide: InChIKey CURLTUGMZLYLDI-UHFFFAOYSA-N
Temperature: 303 K
Tabular data in the source: 0
pressure (bar)	uptake (molecules/unitcell)
0.0612821	0.525403
0.102825	0.856591
0.305331	2.62688
0.505982	3.9177
