Adsorption isotherm of Carbon Dioxide on (CH3)2-MIL-53
DOI: 10.1016/j.micromeso.2012.10.002
Adsorbate Carbon Dioxide: InChIKey CURLTUGMZLYLDI-UHFFFAOYSA-N
Temperature: 303 K
Tabular data in the source: 0
pressure (bar)	uptake (molecules/unitcell)
0.0108867	0.0588993
0.0316428	0.214906
0.0601097	0.467746
0.100387	0.683756
0.302452	1.51469
0.503033	2.09623
