Adsorption isotherm of Carbon Dioxide on COOH-MIL-53
DOI: 10.1016/j.micromeso.2012.10.002
Adsorbate Carbon Dioxide: InChIKey CURLTUGMZLYLDI-UHFFFAOYSA-N
Temperature: 303 K
Tabular data in the source: 0
pressure (bar)	uptake (molecules/unitcell)
0.0354085	0.541266
0.0634167	1.17743
0.104129	1.66187
0.306418	3.29794
0.507185	3.99453
