Adsorption isotherm of Carbon Dioxide on (OH)2-MIL-53
DOI: 10.1016/j.micromeso.2012.10.002
Adsorbate Carbon Dioxide: InChIKey CURLTUGMZLYLDI-UHFFFAOYSA-N
Temperature: 303 K
Tabular data in the source: 0
pressure (bar)	uptake (molecules/unitcell)
0.0123385	0.289117
0.03026	0.693963
0.0648685	1.40765
0.105184	2.31376
0.308931	4.85098
0.510227	5.87351
