Adsorption isotherm of Carbon Dioxide on (CH3)2-MIL-53
DOI: 10.1016/j.micromeso.2012.10.002
Adsorbate Carbon Dioxide: InChIKey CURLTUGMZLYLDI-UHFFFAOYSA-N
Temperature: 303 K
Tabular data in the source: 0
pressure (bar)	uptake (molecules/unitcell)
0.0120155	0.115798
0.0315999	0.251427
0.0620401	0.445418
0.104441	0.716985
0.303743	1.48125
0.502853	2.11174
