Adsorption isotherm of Carbon Dioxide on NH2-MIL-53
DOI: 10.1016/j.micromeso.2012.10.002
Adsorbate Carbon Dioxide: InChIKey CURLTUGMZLYLDI-UHFFFAOYSA-N
Temperature: 303 K
Tabular data in the source: 0
pressure (bar)	uptake (molecules/unitcell)
0.0320463	0.464159
0.0617787	0.832176
0.103601	1.33592
0.305004	3.75783
0.508861	5.02989
