Adsorption isotherm of Carbon Dioxide on Ni3(pzdc)2(7Hade)2(H2O)0.6
DOI: 10.1039/C0cc05559j
Adsorbate Carbon Dioxide: InChIKey CURLTUGMZLYLDI-UHFFFAOYSA-N
Temperature: 298 K
Tabular data in the source: 0
pressure (bar)	uptake (cm3(STP)/g)
0.00597199	0.840336
0.0118936	3.19328
0.0237983	6.05042
0.0337087	8.7395
0.0476246	11.2605
0.0575518	13.4454
0.0714846	15.4622
0.0834062	17.8151
0.0932941	21.1765
0.10498	30.5882
0.126706	38.8235
0.152583	42.521
0.180499	45.042
0.200443	46.7227
0.228392	48.2353
0.256359	49.2437
0.278331	50.084
0.302308	50.7563
0.354275	51.7647
0.402252	52.437
0.45223	53.1092
0.502202	53.9496
0.55619	54.2857
0.602174	54.7899
0.654157	55.2941
0.706162	55.1261
0.754146	55.6303
0.798129	56.1345
0.856118	56.4706
0.904112	56.6387
0.956112	56.6387
1.00611	56.8067
