Adsorption isotherm of Carbon Dioxide on Ni3(pzdc)2(7Hade)2(H2O)0.6
DOI: 10.1039/C0cc05559j
Adsorbate Carbon Dioxide: InChIKey CURLTUGMZLYLDI-UHFFFAOYSA-N
Temperature: 273 K
Tabular data in the source: 0
pressure (bar)	uptake (cm3(STP)/g)
0.00579272	6.21849
0.00971989	8.40336
0.0216639	10.084
0.0235798	12.605
0.0274846	15.4622
0.0294118	17.6471
0.0368011	35.9664
0.0370588	28.2353
0.0372885	21.3445
0.0466835	39.4958
0.0485938	42.1849
0.054493	45.2101
0.0664146	47.563
0.0843193	50.4202
0.11028	51.5966
0.132258	52.2689
0.152213	53.6134
0.180179	54.6218
0.208151	55.4622
0.232151	55.4622
0.252134	55.9664
0.272118	56.4706
0.304112	56.6387
0.354106	56.8067
0.402095	57.1429
0.456084	57.479
0.506084	57.479
0.560078	57.6471
0.604067	57.9832
0.652062	58.1513
0.70405	58.4874
0.756045	58.6555
0.804045	58.6555
0.854034	58.9916
0.904022	59.3277
0.954039	58.8235
1.01004	58.8235
