Adsorption isotherm of Carbon Dioxide on Ni3(pzdc)2(7Hade)2(H2O)0.6
DOI: 10.1039/C0cc05559j
Adsorbate Carbon Dioxide: InChIKey CURLTUGMZLYLDI-UHFFFAOYSA-N
Temperature: 195 K
Tabular data in the source: 0
pressure (bar)	uptake (cm3(STP)/g)
0.00613445	55.9664
0.020112	56.6387
0.0320728	57.8151
0.0440672	57.9832
0.062056	58.3193
0.0780392	58.8235
0.0940392	58.8235
0.152028	59.1597
0.200006	59.8319
0.299994	60.1681
0.403989	60.3361
0.501966	61.0084
0.601978	60.6723
0.701961	61.1765
0.801961	61.1765
0.89995	61.5126
1.00194	61.8487
