Adsorption isotherm of Carbon Dioxide on Ni3(pzdc)2(7Hade)2(H2O)0.6
DOI: 10.1039/C0cc05559j
Adsorbate Carbon Dioxide: InChIKey CURLTUGMZLYLDI-UHFFFAOYSA-N
Temperature: 298 K
Tabular data in the source: 0
pressure (bar)	uptake (wt%)
0.0192505	0.160123
0.111395	6.04871
0.215477	9.15338
0.302066	9.92193
0.408267	10.4026
0.485656	10.5631
0.61147	10.7559
0.708239	10.9165
0.805086	10.9812
0.901907	11.0778
0.989039	11.1743
1.25056	11.304
1.50242	11.4016
1.74459	11.4992
2.00611	11.6288
2.50991	11.7281
3.00404	11.7952
3.49815	11.8944
4.00192	12.0256
4.48641	12.0287
4.99021	12.1279
