Adsorption isotherm of Methane on Ni3(pzdc)2(7Hade)2(H2O)0.6
DOI: 10.1039/C0cc05559j
Adsorbate Methane: InChIKey VNWKTOKETHGBQD-UHFFFAOYSA-N
Temperature: 273 K
Tabular data in the source: 0
pressure (bar)	uptake (wt%)
0.255918	0.539827
0.52262	0.979367
0.766921	1.31854
1.02204	1.56996
1.27713	1.80885
1.5103	2.12291
1.76535	2.34925
2.02047	2.60068
2.51923	2.95303
3.01775	3.2176
3.51627	3.48217
4.01468	3.70913
4.52406	3.89849
