Adsorption isotherm of Carbon Dioxide on Ni3(pzdc)2(7Hade)2(H2O)0.6
DOI: 10.1039/C0cc05559j
Adsorbate Carbon Dioxide: InChIKey CURLTUGMZLYLDI-UHFFFAOYSA-N
Temperature: 273 K
Tabular data in the source: 0
pressure (bar)	uptake (wt%)
0.0383045	7.48976
0.0615912	8.76704
0.0778428	9.40552
0.0986755	9.90182
0.119447	10.0786
0.140232	10.3264
0.160976	10.3611
0.181733	10.4669
0.202491	10.5727
0.220931	10.6075
0.241682	10.6778
0.257824	10.7482
0.283183	10.8183
0.301623	10.8532
0.352328	10.9224
0.403032	10.9916
0.451412	10.9544
0.502123	11.0591
0.555119	11.0572
0.603512	11.091
0.70261	11.194
0.803992	11.1904
0.905381	11.2223
1.00678	11.2897
