Adsorption isotherm of Nitrogen on Ni3(pzdc)2(7Hade)2(H2O)0.6
DOI: 10.1039/C0cc05559j
Adsorbate Nitrogen: InChIKey IJGRMHOSHXDMSA-UHFFFAOYSA-N
Temperature: 77 K
Tabular data in the source: 0
pressure (bar)	uptake (cm3(STP)/g)
1.49e-05	0.367647
0.0237526	34.3137
0.0481428	34.3137
0.0745955	35.049
0.0989907	35.1716
0.151856	35.6618
0.196582	35.9069
0.298223	36.2745
0.399854	36.3971
0.497429	36.7647
0.597048	37.3775
0.698684	37.6225
0.798302	38.2353
0.897951	39.5833
0.999796	44.9755
