Adsorption isotherm of Methane on Ni3(pzdc)2(7Hade)2(H2O)0.6
DOI: 10.1039/C0cc05559j
Adsorbate Methane: InChIKey VNWKTOKETHGBQD-UHFFFAOYSA-N
Temperature: 298 K
Tabular data in the source: 0
pressure (bar)	uptake (wt%)
0.266737	0.45208
0.521961	0.741121
0.777012	0.967466
1.02086	1.14363
1.51959	1.48343
3.02666	2.44019
3.51408	2.6922
4.02363	2.94426
