Adsorption isotherm of Methane on Ni3(pzdc)2(7Hade)2(H2O)0.6
DOI: 10.1039/C0cc05559j
Adsorbate Methane: InChIKey VNWKTOKETHGBQD-UHFFFAOYSA-N
Temperature: 298 K
Tabular data in the source: 0
pressure (bar)	uptake (cm3(STP)/g)
0.262136	5.02269
0.495145	9.04162
0.75728	12.2259
1	15.2423
1.24272	18.5931
1.50486	20.7745
1.7767	23.4577
2.01941	25.8057
2.53398	30.0011
3.01941	33.5271
3.51456	37.0534
4.00971	40.2454
4.50486	42.9361
5.02915	45.2935
