Adsorption isotherm of Methane on Ni3(pzdc)2(7Hade)2(H2O)0.6
DOI: 10.1039/C0cc05559j
Adsorbate Methane: InChIKey VNWKTOKETHGBQD-UHFFFAOYSA-N
Temperature: 273 K
Tabular data in the source: 0
pressure (bar)	uptake (cm3(STP)/g)
0.0194175	1.00343
0.252427	8.53211
0.514565	14.3905
0.747575	18.9108
1.00971	22.9307
1.25242	26.2814
1.50486	29.9667
1.75728	32.6493
2.00971	35.8332
2.51456	40.3626
3.00971	44.5574
3.53398	48.0847
4.01941	51.1093
4.51456	53.9671
5.03885	56.8258
