Adsorption isotherm of Carbon Dioxide on Ni3(pzdc)2(7Hade)2(H2O)0.6
DOI: 10.1039/C0cc05559j
Adsorbate Carbon Dioxide: InChIKey CURLTUGMZLYLDI-UHFFFAOYSA-N
Temperature: 298 K
Tabular data in the source: 0
pressure (bar)	uptake (wt%)
0.0209417	1.06435
0.0395111	1.77375
0.0580873	2.51865
0.0789336	3.08596
0.0998821	4.1858
0.116475	6.59942
0.139714	7.62818
0.158256	8.19556
0.181379	8.62078
0.19988	8.97515
0.222969	9.22285
0.239125	9.36429
0.262201	9.54099
0.280661	9.68234
0.301425	9.82362
0.354461	10.0348
0.40518	10.175
0.453587	10.2798
0.501994	10.3845
0.552698	10.4538
0.603417	10.594
0.704812	10.6614
0.80162	10.8354
0.905319	10.9028
1.00441	10.9703
