Adsorption isotherm of Carbon Dioxide on Ni3(pzdc)2(7Hade)2(H2O)0.6
DOI: 10.1039/C0cc05559j
Adsorbate Carbon Dioxide: InChIKey CURLTUGMZLYLDI-UHFFFAOYSA-N
Temperature: 273 K
Tabular data in the source: 0
pressure (bar)	uptake (wt%)
0.0987592	9.69663
0.204495	10.7533
0.281833	10.9778
0.388267	11.1705
0.494778	11.2672
0.601263	11.3958
0.698136	11.4285
0.833691	11.5573
0.901468	11.6218
0.988625	11.6863
1.25015	11.816
1.50201	11.9136
1.75392	11.9472
1.99611	12.0128
2.5096	12.1121
3.00368	12.2432
3.5075	12.3104
4.00163	12.3776
4.50543	12.4768
4.99961	12.48
