Adsorption isotherm of Methanol on Mn(HCO2)2
DOI: 10.1002/ejic.200600698
Adsorbate Methanol: InChIKey OKKJLVBELUTLKV-UHFFFAOYSA-N
Temperature: 298 K
Tabular data in the source: 0
pressure (bar)	uptake (cm3(STP)/g)
0.00837971	7.17884
0.0149343	17.4477
0.0258587	30.994
0.0411528	43.2293
0.0717411	53.9351
0.176615	70.3217
0.323002	78.6242
0.482497	84.0864
0.652918	86.9267
0.773086	89.7671
0.871405	93.6998
0.943506	95.6662
