Adsorption isotherm of Methanol on Mn(HCO2)2
DOI: 10.1002/ejic.200600698
Adsorbate Methanol: InChIKey OKKJLVBELUTLKV-UHFFFAOYSA-N
Temperature: 313 K
Tabular data in the source: 0
pressure (bar)	uptake (cm3(STP)/g)
0.0127495	2.15363
0.0258587	10.2377
0.0411528	28.1536
0.0608167	41.4814
0.08922	54.8091
0.128548	65.2965
0.244346	76.8763
0.381993	83.4309
0.499976	89.1116
0.740312	96.3217
0.860481	98.0696
0.939136	98.5066
