Adsorption isotherm of Nitrogen on BFTB-BFTB COF
DOI: 10.1039/d0ta07281h
Article source: Figure 1b
Adsorbate Nitrogen: InChIKey IJGRMHOSHXDMSA-UHFFFAOYSA-N
Kind: experiment
Temperature: 77 K
Tabular data in the source: 0
pressure (bar)	uptake (cm3(STP)/g)
0	109.509
0.017894	156.748
0.067103	191.104
0.134205	199.693
0.196834	203.988
0.268411	212.577
0.313146	216.871
0.366828	219.018
0.4138	225.46
0.469719	225.46
0.518927	229.755
0.565899	231.902
0.617344	234.049
0.671026	238.344
0.717998	240.491
0.769444	246.933
0.820889	255.521
0.863387	264.11
0.908123	281.288
0.961805	322.086
0.988646	388.65
1.00207	491.718
0.004474	113.804
0.008947	152.454
0.031315	182.515
0.062629	203.988
0.129732	219.018
0.187887	225.46
0.24157	229.755
0.297488	234.049
0.351171	236.196
0.407089	238.344
0.465245	242.638
0.50998	242.638
0.561425	246.933
0.608397	251.227
0.657606	255.521
0.711288	255.521
0.767207	266.258
0.823126	272.699
0.885755	289.877
0.948384	328.528
0.984172	392.945
1.00654	491.718
