Adsorption isotherm of Nitrogen on BFTB-PyTA COF
DOI: 10.1039/d0ta07281h
Article source: Figure 1b
Adsorbate Nitrogen: InChIKey IJGRMHOSHXDMSA-UHFFFAOYSA-N
Kind: experiment
Temperature: 77 K
Tabular data in the source: 0
pressure (bar)	uptake (cm3(STP)/g)
0.008947	130.982
0.017894	182.515
0.044735	216.871
0.116311	242.638
0.192361	251.227
0.263937	259.816
0.313146	264.11
0.364591	270.552
0.411563	274.847
0.465245	276.994
0.514454	279.141
0.563662	281.288
0.617344	287.73
0.666553	292.025
0.720235	294.172
0.769444	302.761
0.816416	311.35
0.858914	319.939
0.905886	334.969
0.946147	365.031
0.975225	416.564
0.997593	496.012
1.00654	594.785
0.008947	173.926
0.017894	212.577
0.040262	242.638
0.08947	259.816
0.138679	268.405
0.17894	272.699
0.214728	272.699
0.24157	272.699
0.295252	276.994
0.348934	283.436
0.402616	285.583
0.465245	289.877
0.50327	294.172
0.563662	300.613
0.601687	300.613
0.650896	302.761
0.713525	311.35
0.762733	317.791
0.818652	337.117
0.881281	354.294
0.957331	418.712
0.984172	500.307
1.00207	594.785
