Adsorption isotherm of Nitrogen on BFTB-BCTA COF
DOI: 10.1039/d0ta07281h
Article source: Figure 1b
Adsorbate Nitrogen: InChIKey IJGRMHOSHXDMSA-UHFFFAOYSA-N
Kind: experiment
Temperature: 77 K
Tabular data in the source: 0
pressure (bar)	uptake (cm3(STP)/g)
0	19.3252
0	70.8589
0.026841	105.215
0.093944	122.393
0.196834	130.982
0.268411	135.276
0.322093	139.571
0.366828	139.571
0.4138	141.718
0.469719	148.16
0.518927	150.307
0.565899	154.601
0.617344	156.748
0.666553	161.043
0.720235	165.337
0.769444	167.485
0.827599	182.515
0.870098	193.252
0.903649	203.988
0.948384	225.46
0.984172	276.994
0.997593	362.883
0.999829	438.037
0.004474	19.3252
0.004474	70.8589
0.022368	113.804
0.064866	130.982
0.129732	139.571
0.192361	146.012
0.250517	148.16
0.297488	152.454
0.348934	154.601
0.411563	156.748
0.460772	158.896
0.50327	163.19
0.559189	165.337
0.608397	169.632
0.659843	171.779
0.713525	176.074
0.762733	184.663
0.814179	195.399
0.876808	208.282
0.921543	234.049
0.966278	285.583
0.984172	362.883
1.00207	442.331
