Adsorption isotherm of Nitrogen on TiO2-P2O5
DOI: 10.1016/j.ceramint.2016.09.050
Article source: Figure 8a
Adsorbate Nitrogen: InChIKey IJGRMHOSHXDMSA-UHFFFAOYSA-N
Kind: experiment
Temperature: 77 K
Tabular data in the source: 0
pressure (bar)	uptake (cm3(STP)/g)
0.010244	8.465
0.031917	9.893
0.067108	11.297
0.080979	11.638
0.101659	12.22
0.122259	12.752
0.14222	13.245
0.162637	13.827
0.182861	14.232
0.203096	14.7
0.25314	15.7
0.303995	16.978
0.355651	17.94
0.405695	18.776
0.456013	19.258
0.507213	19.563
0.55672	19.868
0.607474	20.211
0.65842	20.617
0.708637	20.985
0.759927	21.354
0.790457	21.86
0.809708	21.987
0.81669	22.366
0.830926	22.481
0.84122	22.683
0.86029	22.936
0.867636	23.316
0.886432	23.708
0.897354	24.277
0.911945	24.48
0.934429	26.805
0.936486	25.845
0.962101	28.322
0.970815	34.374
0.983521	34.538
0.987149	62.105
0.989601	69.52
0.992874	42.207
0.995549	76.191
0.998224	56.104
1.0064	80.676
