Adsorption isotherm of Nitrogen on SiO2-P2O5
DOI: 10.1016/j.ceramint.2016.09.050
Article source: Figure 8b
Adsorbate Nitrogen: InChIKey IJGRMHOSHXDMSA-UHFFFAOYSA-N
Kind: experiment
Temperature: 77 K
Tabular data in the source: 0
pressure (bar)	uptake (cm3(STP)/g)
0.010659	50.749
0.031005	60.08
0.063814	67.094
0.078324	69.613
0.101882	72.609
0.121114	75.162
0.142179	77.817
0.162231	80.098
0.183307	82.208
0.203917	84.625
0.249381	89.697
0.296791	95.382
0.307146	95.858
0.340969	100.658
0.360099	102.19
0.407043	107.466
0.407874	107.709
0.456398	127.64
0.458161	128.954
0.506676	121.39
0.507496	121.492
0.557693	136.986
0.557956	137.025
0.606947	134.101
0.608791	133.917
0.658329	142.054
0.659889	142.238
0.709143	140.892
0.709336	140.924
0.760616	143.886
0.808675	145.688
0.829092	145.755
0.835566	146.572
0.843703	146.844
0.861252	147.183
0.869946	147.489
0.886573	148.203
0.897577	149.19
0.91153	149.155
0.929545	151.198
0.936567	150.959
0.960044	156.407
0.961149	156.715
0.982873	161.072
0.9903	198.844
0.991202	168.905
0.992337	207.12
0.994738	214.681
0.996572	182.971
1.00223	219.245
