Adsorption isotherm of Carbon Dioxide on Cd-4TP-1
DOI: 10.1021/Cg201054f
Adsorbate Carbon Dioxide: InChIKey CURLTUGMZLYLDI-UHFFFAOYSA-N
Temperature: 273 K
Tabular data in the source: 0
pressure (bar)	uptake (mmol/g)
0.0240689	0.190872
0.0435104	0.323721
0.0820332	0.547298
0.102555	0.653146
0.128837	0.769794
0.150438	0.878882
0.17564	0.97609
0.201922	1.08086
0.223884	1.15646
0.262046	1.26555
0.278248	1.32712
0.31281	1.41676
0.331892	1.46645
0.356733	1.52909
0.379775	1.58201
0.405697	1.63818
0.432339	1.7019
0.483463	1.80559
0.506504	1.85635
0.534586	1.90388
0.563749	1.9568
0.58571	1.99352
0.609832	2.04753
0.634674	2.08425
0.688318	2.1739
0.71568	2.21602
0.739442	2.26462
0.767524	2.30891
0.819728	2.39747
0.84961	2.44176
0.867971	2.48388
0.896413	2.52816
0.919815	2.56813
0.946457	2.61565
0.971299	2.65345
