Adsorption isotherm of Hydrogen on Cd-4TP-1
DOI: 10.1021/Cg201054f
Adsorbate Hydrogen: InChIKey UFHFLCQGNIYNRP-UHFFFAOYSA-N
Temperature: 77 K
Tabular data in the source: 0
pressure (bar)	uptake (wt%)
0.0048196	0.00414361
0.0286386	0.359651
0.0521021	0.464526
0.0794761	0.539182
0.109694	0.599618
0.125692	0.630281
0.160887	0.674275
0.18044	0.697383
0.209947	0.727601
0.230922	0.74671
0.263629	0.772928
0.280338	0.788037
0.310911	0.805368
0.332242	0.820033
0.364593	0.841363
0.385923	0.853806
0.410809	0.867582
0.438183	0.886246
0.457736	0.897356
0.492931	0.917353
0.514973	0.920908
0.536303	0.93424
0.562611	0.946682
0.593184	0.968457
0.608827	0.983122
0.640822	0.996898
0.664641	1.01245
0.700903	1.02667
0.718323	1.03511
0.75103	1.05067
0.772716	1.05956
0.826397	1.08266
0.847372	1.09733
0.880079	1.11022
0.896432	1.11999
0.944426	1.14221
0.977843	1.15821
