Adsorption isotherm of Nitrogen on Cd-4TP-1
DOI: 10.1021/Cg201054f
Adsorbate Nitrogen: InChIKey IJGRMHOSHXDMSA-UHFFFAOYSA-N
Temperature: 77 K
Tabular data in the source: 0
pressure (bar)	uptake (cm3(STP)/g)
0.00288287	0.881577
0.0111018	145.545
0.0321651	150.557
0.0517467	153.447
0.0691115	155.273
0.0898015	156.49
0.109753	157.326
0.124162	158.695
0.148177	159.304
0.170345	159.836
0.195099	160.673
0.211725	161.205
0.23574	161.586
0.257169	162.27
0.283031	162.727
0.308155	163.411
0.329953	163.715
0.351752	164.324
0.372442	164.704
0.395718	165.008
0.420842	165.769
0.448551	165.693
0.472197	166.149
0.498799	166.301
0.520966	166.53
0.547198	166.834
0.579342	167.442
0.609638	167.214
0.63587	167.975
0.660624	168.203
0.692028	168.811
0.716783	169.8
0.749665	171.093
0.768508	171.778
0.795109	172.995
0.840923	177.254
0.857179	179.764
0.871219	182.046
0.89117	184.708
0.907426	187.598
0.929594	188.282
