Adsorption isotherm of Carbon Dioxide on UTSA-40
DOI: 10.1039/C2ta01260j
Adsorbate Carbon Dioxide: InChIKey CURLTUGMZLYLDI-UHFFFAOYSA-N
Temperature: 300 K
Tabular data in the source: 0
pressure (bar)	uptake (mmol/g)
0.393299	1.065
0.984848	2.58331
1.37921	3.27345
1.87217	4.33824
2.7595	5.61993
3.44964	6.34951
4.13978	7.0988
5.81583	8.32134
7.78767	9.20866
12.3229	10.5298
15.9708	11.1608
25.6327	12.3242
30.4637	12.7777
