Adsorption isotherm of Methane on UTSA-40
DOI: 10.1039/C2ta01260j
Adsorbate Methane: InChIKey VNWKTOKETHGBQD-UHFFFAOYSA-N
Temperature: 300 K
Tabular data in the source: 0
pressure (bar)	uptake (mmol/g)
0.590482	0.256551
1.97076	1.22275
4.82992	2.76078
5.81583	3.15514
9.7595	4.57486
16.2665	6.05373
27.2102	7.53261
35.4919	8.47909
46.1398	9.28754
57.3792	10.0171
61.6187	10.2537
63.2947	10.3523
