Adsorption isotherm of Hydrogen on UTSA-40
DOI: 10.1039/C2ta01260j
Adsorbate Hydrogen: InChIKey UFHFLCQGNIYNRP-UHFFFAOYSA-N
Temperature: 300 K
Tabular data in the source: 0
pressure (bar)	uptake (mmol/g)
0.689074	0.000213
2.85809	0.138242
5.52006	0.335425
9.36513	0.572044
16.6609	1.02557
27.4074	1.5974
36.182	2.09035
46.5341	2.70162
57.4778	3.2143
61.8158	3.39176
63.5905	3.47064
