Adsorption isotherm of Nitrogen on UTSA-40
DOI: 10.1039/C2ta01260j
Adsorbate Nitrogen: InChIKey IJGRMHOSHXDMSA-UHFFFAOYSA-N
Temperature: 77 K
Tabular data in the source: 0
pressure (bar)	uptake (cm3(STP)/g)
0.000865	320.138
0.00515504	337.872
0.00944547	359.61
0.0194565	375.628
0.0308976	385.925
0.0609306	395.078
0.0995445	400.798
0.162471	408.235
0.228257	411.667
0.265441	412.811
0.326937	413.956
0.392724	416.244
0.459941	417.96
0.522867	418.532
0.590084	420.82
0.65444	420.82
0.690194	421.392
0.787443	421.964
0.881833	422.536
0.917586	422.536
