Adsorption isotherm of Carbon Dioxide on MIL-47
DOI: 10.1039/C2cp42137b
Adsorbate Carbon Dioxide: InChIKey CURLTUGMZLYLDI-UHFFFAOYSA-N
Temperature: 303 K
Tabular data in the source: 0
pressure (bar)	uptake (mmol/g)
0.394766	0.424028
0.712511	0.961131
1.02722	1.18728
1.26436	1.46996
1.58017	1.80919
1.97604	2.34629
2.68606	3.053
2.92292	3.30742
3.23818	3.59011
3.47504	3.84452
4.18424	4.46643
4.6552	4.69258
5.04803	4.91873
5.51927	5.17314
5.9121	5.39929
6.38306	5.62544
7.08895	5.90813
7.79345	6.04947
8.49768	6.16254
9.12406	6.30389
10.376	6.50177
11.0024	6.64311
11.7842	6.69965
12.4884	6.81272
13.6614	6.9258
14.4432	6.98233
15.1466	7.0106
15.9284	7.06714
17.0227	7.12367
17.8045	7.18021
18.5079	7.20848
19.2897	7.26502
20.3837	7.29329
21.0877	7.37809
21.7914	7.43463
22.5732	7.49117
23.6675	7.5477
24.3714	7.63251
25.1529	7.66078
25.7782	7.68905
