Adsorption isotherm of Methane on MIL-47
DOI: 10.1039/C2cp42137b
Adsorbate Methane: InChIKey VNWKTOKETHGBQD-UHFFFAOYSA-N
Temperature: 303 K
Tabular data in the source: 0
pressure (bar)	uptake (mmol/g)
0.86324	0.39576
1.8819	0.706714
2.43126	0.961131
3.37125	1.21555
4.23338	1.49823
5.01684	1.72438
5.64322	1.86572
6.26988	2.03534
7.83597	2.40283
8.54019	2.5159
9.24442	2.62898
9.9481	2.68551
11.043	2.79859
11.7472	2.91166
12.3727	2.9682
13.0764	3.02473
14.9539	3.27915
15.6579	3.36396
16.4397	3.42049
17.6126	3.53357
18.3944	3.59011
19.0981	3.64664
19.8799	3.70318
20.5833	3.73145
20.9748	3.81625
21.7566	3.87279
22.4602	3.92933
23.242	3.98587
24.2585	4.07067
25.04	4.09894
25.7437	4.15548
26.5252	4.18375
27.4636	4.26855
28.2454	4.32509
28.6365	4.38163
