Adsorption isotherm of Carbon Dioxide on NH2-MIL-47
DOI: 10.1039/C2cp42137b
Adsorbate Carbon Dioxide: InChIKey CURLTUGMZLYLDI-UHFFFAOYSA-N
Temperature: 303 K
Tabular data in the source: 0
pressure (bar)	uptake (mmol/g)
0.712511	0.961131
1.02722	1.18728
1.26436	1.46996
1.50232	1.83746
2.05444	2.37456
2.6049	2.74205
2.91851	2.85512
3.46731	3.053
4.0164	3.27915
4.40923	3.5053
4.87881	3.59011
5.42734	3.75972
6.05427	3.9576
6.6028	4.12721
7.22919	4.26855
7.85584	4.43816
8.4825	4.60777
9.10888	4.74912
9.73498	4.86219
10.4392	4.97527
11.1434	5.08834
11.8477	5.20141
12.3951	5.25795
13.1769	5.31449
13.8806	5.37102
14.6627	5.45583
15.3666	5.54064
16.0706	5.62544
16.7745	5.71025
17.4785	5.79505
18.104	5.85159
18.8858	5.90813
19.5892	5.9364
20.2926	5.96466
21.0741	5.99293
21.8557	6.0212
22.5591	6.04947
23.2622	6.04947
24.0437	6.07774
24.7469	6.07774
25.4503	6.10601
26.1537	6.13428
26.9352	6.16254
27.5602	6.16254
28.2641	6.24735
