Adsorption isotherm of Nitrogen on NH2-MIL-47
DOI: 10.1039/C2cp42137b
Adsorbate Nitrogen: InChIKey IJGRMHOSHXDMSA-UHFFFAOYSA-N
Temperature: 77 K
Tabular data in the source: 0
pressure (bar)	uptake (cm3(STP)/g)
0.00292748	133.134
0.00295394	139.761
0.0113563	143.983
0.0257411	146.402
0.0401259	148.82
0.0533104	150.635
0.0652921	151.245
0.0772738	151.855
0.106027	152.475
0.118006	152.483
0.168331	155.526
0.180313	156.136
0.192292	156.143
0.204271	156.151
0.216253	156.761
0.225839	157.369
0.255787	157.388
0.267767	157.395
0.279748	158.005
0.291728	158.012
0.303707	158.02
0.315689	158.629
0.327668	158.637
0.338449	158.644
0.350429	158.651
0.379184	159.874
0.391163	159.881
0.401947	160.49
0.412728	160.497
0.424708	160.504
0.436687	160.512
0.448669	161.122
0.503786	164.168
0.515767	164.778
0.525351	164.784
0.554103	165.404
0.566083	165.411
0.578064	166.021
0.604419	166.037
0.616401	166.647
0.640362	167.265
0.654739	167.876
0.675107	168.491
0.695476	169.708
0.714645	170.323
0.736213	171.541
0.754182	171.552
0.804514	176.402
0.829678	178.225
0.84885	179.442
0.863235	181.861
0.87881	182.473
0.894393	184.892
0.92316	189.127
0.925551	187.923
