Adsorption isotherm of Methane on NH2-MIL-47
DOI: 10.1039/C2cp42137b
Adsorbate Methane: InChIKey VNWKTOKETHGBQD-UHFFFAOYSA-N
Temperature: 303 K
Tabular data in the source: 0
pressure (bar)	uptake (mmol/g)
1.02087	0.537102
1.41315	0.706714
2.04064	0.961131
2.98145	1.30035
3.76436	1.46996
4.31344	1.69611
5.01822	1.86572
5.6446	2.00707
6.34911	2.14841
6.81979	2.34629
7.83597	2.40283
8.54019	2.5159
9.24442	2.62898
9.9481	2.68551
11.043	2.79859
11.7472	2.91166
12.3727	2.9682
13.0764	3.02473
14.9528	3.16608
15.7346	3.22261
16.4383	3.27915
17.611	3.36396
18.3925	3.39223
19.174	3.42049
19.8777	3.47703
20.6592	3.5053
21.4408	3.53357
22.1442	3.56184
22.8476	3.59011
23.6291	3.61837
24.4109	3.67491
25.1146	3.73145
25.8958	3.73145
26.6773	3.75972
27.4586	3.75972
27.693	3.75972
