Adsorption isotherm of Nitrogen on MIL-47
DOI: 10.1039/C2cp42137b
Adsorbate Nitrogen: InChIKey IJGRMHOSHXDMSA-UHFFFAOYSA-N
Temperature: 77 K
Tabular data in the source: 0
pressure (bar)	uptake (cm3(STP)/g)
0.00340617	253.014
0.0106924	277.717
0.0227006	284.954
0.0334843	285.563
0.0430774	287.979
0.055064	289.793
0.0658501	291.005
0.0766363	292.216
0.0886229	294.031
0.100602	294.038
0.106594	294.644
0.118574	294.652
0.168896	297.093
0.180878	297.703
0.192857	297.71
0.203641	298.319
0.214423	298.326
0.226404	298.936
0.256355	299.557
0.267136	299.563
0.279116	299.571
0.291097	300.181
0.303077	300.188
0.31386	300.797
0.32584	300.804
0.337819	300.812
0.348603	301.421
0.379751	302.043
0.391731	302.05
0.403713	302.66
0.415692	302.667
0.427671	302.675
0.437255	302.681
0.448036	302.687
0.483976	303.312
0.494758	303.319
0.505542	303.928
0.517521	303.935
0.5295	303.943
0.554659	304.561
0.566636	303.966
0.578618	304.576
0.631329	305.211
0.640915	305.819
0.651696	305.826
0.663676	305.833
0.66847	306.439
0.679249	305.843
0.706806	307.065
0.718783	306.47
0.727171	307.077
0.73915	307.085
0.745142	307.691
0.757122	307.698
0.763114	308.305
0.773895	308.311
0.785874	308.319
0.797856	308.928
0.808637	308.935
0.819421	309.544
0.830203	309.551
0.842187	310.763
0.854166	310.771
0.861358	311.98
0.87334	312.59
0.882924	312.596
0.893712	314.41
0.903293	313.813
0.916497	320.448
0.928474	319.853
