Adsorption isotherm of Nitrogen on PCN-53
DOI: 10.1039/C2cc17168f
Adsorbate Nitrogen: InChIKey IJGRMHOSHXDMSA-UHFFFAOYSA-N
Temperature: 77 K
Tabular data in the source: 0
pressure (bar)	uptake (cm3(STP)/g)
0.0025641	0.0025641
0.00512821	361.702
0.00769231	404.255
0.0102564	439.716
0.0153846	478.723
0.0205128	510.638
0.0333333	535.461
0.0538462	560.284
0.0717949	581.56
0.0871795	599.291
0.102564	617.021
0.112821	634.752
0.120513	656.028
0.130769	741.135
0.141026	794.326
0.153846	812.057
0.174359	822.695
0.197436	829.787
0.215385	833.333
0.274359	840.426
0.312821	847.518
0.353846	851.064
0.402564	854.61
0.453846	861.702
0.502564	865.248
0.55641	865.248
0.6	865.248
0.641026	865.248
0.7	872.34
0.751282	872.34
0.802564	879.433
0.858974	875.887
0.905128	879.433
