Adsorption isotherm of Hydrogen on PCN-53
DOI: 10.1039/C2cc17168f
Adsorbate Hydrogen: InChIKey UFHFLCQGNIYNRP-UHFFFAOYSA-N
Temperature: 77 K
Tabular data in the source: 0
pressure (bar)	uptake (mmol/g)
0.63986	2.73493
0.864866	4.92319
2.53734	8.5324
2.96023	9.95446
4.2048	11.5945
5.44434	12.6874
6.68287	13.6708
7.51258	14.7642
9.56877	15.5279
11.2141	16.1827
12.4517	17.0567
13.8911	17.6023
15.7404	18.1474
17.9985	18.5826
19.4369	19.0187
20.6704	19.4551
22.9255	19.562
26.2102	20.215
29.4938	20.7585
32.7765	21.1926
36.6719	21.4072
40.9772	21.6214
44.8726	21.836
49.5856	21.8308
55.937	21.7144
57.9862	21.7122
60.4452	21.7095
65.1573	21.5949
69.4595	21.4808
71.9165	21.2592
74.3745	21.1471
76.8334	21.1444
81.9533	20.8106
87.0752	20.6955
91.5804	20.3623
96.9052	20.0282
99.773	19.9156
102.639	19.5842
