Adsorption isotherm of Argon on PCN-53
DOI: 10.1039/C2cc17168f
Adsorbate Argon: InChIKey XKRFYHLGVUSROY-UHFFFAOYSA-N
Temperature: 87 K
Tabular data in the source: 0
pressure (bar)	uptake (cm3(STP)/g)
0.00154844	49.6973
0.00457495	92.2874
0.00759705	131.327
0.0106148	166.817
0.0196371	248.434
0.0301287	315.843
0.0390894	347.756
0.0465633	379.675
0.0540284	404.494
0.0659628	436.394
0.0793842	468.287
0.0868448	489.555
0.0972705	503.71
0.104731	524.979
0.122609	553.302
0.141973	581.618
0.159859	617.042
0.170302	645.398
0.185197	666.634
0.197128	694.983
0.204584	712.701
0.216584	797.855
0.22558	858.17
0.236023	886.526
0.252405	907.756
0.271761	928.971
0.291112	946.637
0.310467	967.853
0.322389	989.102
0.328371	1017.48
0.329929	1074.28
0.346394	1162.96
0.368706	1169.96
0.391013	1173.41
0.410351	1180.43
0.429684	1183.89
0.451987	1183.79
0.465369	1183.73
0.490654	1190.72
0.504041	1194.21
0.526343	1194.11
0.541212	1194.05
0.565006	1197.49
0.578392	1200.98
0.605156	1200.86
0.622998	1200.79
0.636384	1204.28
0.663148	1204.16
0.682481	1207.62
0.691407	1211.13
0.718175	1214.56
0.749399	1214.43
0.808882	1221.26
0.83118	1217.61
0.853492	1224.61
0.863896	1221.02
0.89215	1224.44
0.923379	1227.85
0.948655	1227.74
0.967984	1227.66
