Adsorption isotherm of Carbon Dioxide on PCN-53
DOI: 10.1039/C2cc17168f
Adsorbate Carbon Dioxide: InChIKey CURLTUGMZLYLDI-UHFFFAOYSA-N
Temperature: 195 K
Tabular data in the source: 0
pressure (bar)	uptake (cm3(STP)/g)
0.00497626	0.00497626
0.0298576	93.2049
0.0514214	108.143
0.0746439	129.096
0.0962077	144.035
0.112795	155.989
0.134359	167.916
0.152605	182.873
0.174169	194.799
0.194074	206.735
0.213979	221.683
0.233884	236.631
0.255448	254.581
0.275353	269.529
0.295258	284.477
0.316822	302.427
0.340045	323.381
0.361608	341.331
0.388148	362.266
0.408054	380.225
0.429617	401.188
0.447864	419.157
0.472745	440.101
0.489332	458.08
0.510896	524.223
0.529143	614.481
0.567294	659.446
0.583881	668.389
0.602128	677.322
0.617057	686.274
0.641938	698.182
0.656867	707.133
0.67843	719.06
0.699994	767.131
0.718241	836.305
0.741463	884.366
0.764686	911.344
0.779614	920.295
0.811131	932.166
0.829377	935.075
0.864211	937.89
0.885775	940.78
0.907339	940.658
0.935537	943.511
0.970371	943.314
1.00023	949.17
1.0334	951.995
