Adsorption isotherm of Methane on PCN-53
DOI: 10.1039/C2cc17168f
Adsorbate Methane: InChIKey VNWKTOKETHGBQD-UHFFFAOYSA-N
Temperature: 295 K
Tabular data in the source: 0
pressure (bar)	uptake (mmol/g)
1.98849	0.949273
3.97243	1.68261
6.35098	2.45896
9.12323	3.23515
11.5009	3.96831
13.8785	4.70148
16.648	5.3481
19.0211	5.86533
21.9857	6.42549
24.5574	7.02901
27.5229	7.63236
30.2915	8.23579
32.8587	8.62337
35.4277	9.09733
38.3923	9.65749
40.9595	10.0451
44.12	10.562
47.4792	11.1651
50.6396	11.682
53.4028	12.0263
56.5597	12.3705
60.1111	12.7576
63.4666	13.1881
66.8221	13.6185
70.1786	14.0921
73.5314	14.393
77.0819	14.7369
80.8302	15.124
84.1876	15.6408
87.7436	16.2439
91.2941	16.5879
95.2384	16.9317
98.9839	17.1892
102.339	17.5764
