Adsorption isotherm of Carbon Dioxide on PCN-53
DOI: 10.1039/C2cc17168f
Adsorbate Carbon Dioxide: InChIKey CURLTUGMZLYLDI-UHFFFAOYSA-N
Temperature: 295 K
Tabular data in the source: 0
pressure (bar)	uptake (mmol/g)
0.615254	0.949591
1.72022	2.10267
2.57957	2.98443
3.56081	3.79837
4.78615	4.54447
5.6452	5.35841
6.62644	6.17234
7.60677	6.7828
8.95492	7.66456
9.69116	8.34284
11.039	9.15677
12.3856	9.6994
13.4891	10.5133
14.9585	11.1916
16.5507	12.0055
17.6545	12.8873
19.1236	13.4978
20.5937	14.3117
22.0634	15.0578
23.5325	15.6683
24.8801	16.4144
26.472	17.1605
27.9418	17.9066
29.4109	18.517
31.0025	19.1953
32.3492	19.7379
34.0633	20.484
35.7771	21.1623
37.2453	21.5693
38.9592	22.2476
40.6733	22.9937
42.3856	23.3328
44.5873	23.8076
46.5444	24.2146
48.5008	24.4859
50.2134	24.8929
52.4154	25.4355
54.6168	25.8425
56.6961	26.2494
58.7759	26.792
60.4894	27.4025
