Adsorption isotherm of Methane on PCN-53
DOI: 10.1039/C2cc17168f
Adsorbate Methane: InChIKey VNWKTOKETHGBQD-UHFFFAOYSA-N
Temperature: 295 K
Tabular data in the source: 0
pressure (bar)	uptake (mmol/g)
1.98667	0.862898
3.96789	1.46667
6.34371	2.11346
8.91365	2.63061
11.4836	3.14775
13.6617	3.75144
16.4284	4.2685
18.9966	4.69927
21.7606	5.08677
24.5229	5.38789
27.4838	5.7753
30.051	6.16288
32.6173	6.50727
34.984	6.72219
38.3387	7.10943
41.1	7.36737
44.255	7.62513
47.0173	7.92625
50.3701	8.22712
52.9336	8.44195
56.4787	8.5268
59.8288	8.6981
63.1779	8.82622
66.7249	8.99744
70.2727	9.21184
73.4223	9.21048
76.9664	9.25214
80.5143	9.46655
84.4549	9.6376
87.6108	9.93855
91.3546	10.1097
94.701	10.1082
98.6362	10.0202
102.575	10.1048
