Adsorption isotherm of Hydrogen on PCN-53
DOI: 10.1039/C2cc17168f
Adsorbate Hydrogen: InChIKey UFHFLCQGNIYNRP-UHFFFAOYSA-N
Temperature: 77 K
Tabular data in the source: 0
pressure (bar)	uptake (mmol/g)
0.435949	2.84458
0.866875	5.14204
1.4997	7.111
2.13052	8.86112
2.96827	10.8299
4.41875	12.5791
5.4584	14.2193
6.69995	15.5311
7.73457	16.6242
9.58987	17.8258
11.2412	19.1371
12.4808	20.23
14.3331	21.1034
15.9804	21.977
17.6288	22.96
19.0692	23.615
20.9225	24.5978
22.7728	25.2523
24.2162	26.2356
25.8606	26.7809
27.9168	27.5446
29.7671	28.1991
31.4104	28.6351
33.0568	29.3992
35.112	30.0535
36.9622	30.7081
38.8105	31.1437
40.6628	32.0171
43.5346	32.3422
45.1789	32.8876
47.4401	33.6511
51.5504	34.9597
53.8075	35.2855
56.0666	35.8301
58.3267	36.4842
60.5848	36.9194
63.0488	37.4639
69.8231	38.7696
71.6714	39.2052
74.7491	39.6396
76.5974	40.0753
79.0614	40.6197
81.7273	40.8356
86.4494	41.8153
89.5272	42.2496
91.9902	42.6846
94.862	43.0098
97.1191	43.3356
99.992	43.7701
102.25	44.2054
