Adsorption isotherm of Nitrogen on PCN-53
DOI: 10.1039/C2cc17168f
Adsorbate Nitrogen: InChIKey IJGRMHOSHXDMSA-UHFFFAOYSA-N
Temperature: 77 K
Tabular data in the source: 0
pressure (bar)	uptake (cm3(STP)/g)
0.00123162	0.00123162
0.00307904	211.597
0.00554227	264.226
0.00985292	293.223
0.0203217	356.585
0.0295588	393.096
0.048033	438.19
0.0615808	457.51
0.0812866	495.085
0.0911395	510.112
0.11023	540.168
0.118235	551.975
0.12932	571.298
0.138557	587.401
0.14841	601.354
0.168731	636.78
0.178584	653.955
0.1792	655.029
0.18659	675.43
0.19829	726.975
0.216764	776.366
0.231544	792.463
0.249402	803.186
0.259871	809.62
0.272803	819.274
0.278961	822.49
0.290045	831.072
0.296819	835.362
0.303593	847.17
0.30852	861.129
0.318988	936.306
0.334999	962.069
0.357168	967.417
0.381185	971.689
0.402738	975.964
0.423676	979.165
0.424292	978.09
0.437223	980.226
0.465551	982.345
0.477251	984.482
0.505578	987.676
0.516663	987.664
0.545606	989.784
0.557922	989.771
0.584402	990.819
0.606571	994.019
0.620118	994.005
0.644751	996.128
0.679236	996.094
0.7051	1002.51
0.738969	1002.48
0.767296	1001.38
0.768528	1002.45
0.789465	1002.43
0.801166	1004.56
0.827646	1004.54
0.849815	1006.66
0.861515	1007.73
0.888611	1005.55
0.91078	1008.75
0.921864	1008.74
0.947728	1008.71
0.956349	1009.78
0.99145	1010.82
1.01362	1012.94
