Adsorption isotherm of Hydrogen on PCN-53
DOI: 10.1039/C2cc17168f
Adsorbate Hydrogen: InChIKey UFHFLCQGNIYNRP-UHFFFAOYSA-N
Temperature: 87 K
Tabular data in the source: 0
pressure (bar)	uptake (mmol/g)
0.00218399	0.297366
0.0107293	0.594733
0.0171426	0.838033
0.0405425	1.18947
0.0681775	1.51387
0.0873018	1.7031
0.121269	1.89233
0.144634	2.08157
0.172235	2.24376
0.20195	2.37893
0.225303	2.5141
0.255018	2.64926
0.280498	2.81146
0.303846	2.9196
0.333567	3.0818
0.36115	3.1629
0.386624	3.29806
0.416339	3.43323
0.439693	3.5684
0.467282	3.67653
0.496997	3.8117
0.522471	3.94686
0.547933	4.02796
0.573407	4.16313
0.603117	4.27126
0.628579	4.35236
0.654047	4.4605
0.681642	4.59566
0.709231	4.7038
0.736819	4.81193
0.760162	4.89303
0.794117	5.0282
0.813224	5.13633
0.838687	5.21743
0.868396	5.32556
0.891738	5.40666
0.921448	5.5148
0.94691	5.5959
0.974493	5.677
1.00208	5.78513
1.0233	5.8392
1.05301	5.94733
