Adsorption isotherm of Argon on PCN-53
DOI: 10.1039/C2cc17168f
Adsorbate Argon: InChIKey XKRFYHLGVUSROY-UHFFFAOYSA-N
Temperature: 87 K
Tabular data in the source: 0
pressure (bar)	uptake (cm3(STP)/g)
0.00278552	382.418
0.0139276	457.143
0.0167131	540.659
0.0278552	593.407
0.0417827	632.967
0.0640669	650.549
0.086351	676.923
0.103064	703.297
0.108635	734.066
0.111421	800
0.114206	896.703
0.116992	980.22
0.133705	997.802
0.158774	1006.59
0.181058	1015.38
0.203343	1024.18
0.250696	1032.97
0.29805	1041.76
0.35376	1050.55
0.392758	1054.95
0.448468	1063.74
0.495822	1063.74
0.543175	1063.74
0.584958	1068.13
0.632312	1068.13
0.67688	1076.92
0.718663	1076.92
0.785515	1076.92
0.841226	1081.32
0.902507	1081.32
0.952646	1085.71
0.997214	1085.71
