Adsorption isotherm of Carbon Dioxide on PCN-53
DOI: 10.1039/C2cc17168f
Adsorbate Carbon Dioxide: InChIKey CURLTUGMZLYLDI-UHFFFAOYSA-N
Temperature: 195 K
Tabular data in the source: 0
pressure (bar)	uptake (cm3(STP)/g)
0.00833333	33.7556
0.0111111	57.3949
0.0277778	84.3656
0.0361111	101.229
0.0527778	128.2
0.0638889	175.46
0.0722222	222.729
0.0888889	256.456
0.102778	273.301
0.136111	300.216
0.161111	323.78
0.197222	354.063
0.222222	381.006
0.255556	411.299
0.286111	434.844
0.316667	461.768
0.352778	495.43
0.358333	542.708
0.369444	600.103
0.380556	664.255
0.391667	714.893
0.402778	782.423
0.45	789.02
0.505556	792.211
0.55	802.196
0.602778	805.396
0.65	805.236
0.702778	811.815
0.75	808.277
0.8	808.108
0.852778	811.308
0.902778	814.518
0.95	821.115
1.00278	814.18
