Adsorption isotherm of Carbon Dioxide on PCN-53
DOI: 10.1039/C2cc17168f
Adsorbate Carbon Dioxide: InChIKey CURLTUGMZLYLDI-UHFFFAOYSA-N
Temperature: 295 K
Tabular data in the source: 0
pressure (bar)	uptake (mmol/g)
1.59771	2.03484
2.45645	2.78095
3.43709	3.45923
4.66334	4.40882
5.88838	5.0871
6.62492	5.8332
7.72684	6.308
8.82998	7.05411
9.81062	7.73239
11.035	8.27501
12.2601	8.95329
13.4848	9.56374
15.0765	10.242
16.4237	10.9203
17.6481	11.4629
19.1175	12.1412
20.587	12.8195
21.9339	13.4299
23.5252	14.0404
24.7497	14.583
26.3407	15.1256
27.8098	15.7361
29.4012	16.3465
31.1141	16.8213
32.5829	17.364
34.1742	17.9744
35.7644	18.3135
37.2323	18.6527
38.9452	19.1275
40.4134	19.5345
42.6139	19.7379
44.5697	19.8736
46.4033	20.0092
48.4813	20.1449
50.193	20.3484
52.3935	20.5519
54.3481	20.4162
56.5477	20.4162
58.7476	20.484
60.4587	20.5519
