Adsorption isotherm of Carbon Dioxide on Fe3[(Fe4Cl)3(BTT)8(MeOH)4]2
DOI: 10.1039/C0sc00179a
Adsorbate Carbon Dioxide: InChIKey CURLTUGMZLYLDI-UHFFFAOYSA-N
Temperature: 298 K
Tabular data in the source: 0
pressure (bar)	uptake (wt%)
0.000104624	0.632768
0.000254088	1.53672
0.00280991	0.99435
0.00561982	1.9887
0.016299	2.57627
0.0322766	3.20904
0.0535378	3.79661
0.111903	4.79096
0.170239	5.60452
0.228552	6.28249
0.284235	7.05085
0.345171	7.59322
0.400831	8.22599
0.456491	8.85876
0.520073	9.40113
0.573073	9.9435
0.631356	10.4407
0.689639	10.9379
0.745269	11.3898
0.803545	11.8418
0.859176	12.2938
0.917451	12.7458
0.975727	13.1977
1.034	13.6045
1.09226	14.0113
