Adsorption isotherm of Hydrogen on Fe3[(Fe4Cl)3(BTT)8(MeOH)4]2
DOI: 10.1039/C0sc00179a
Adsorbate Hydrogen: InChIKey UFHFLCQGNIYNRP-UHFFFAOYSA-N
Temperature: 87 K
Tabular data in the source: 0
pressure (bar)	uptake (wt%)
0	0.10479
0.00538117	0.194577
0.0134529	0.276862
0.0188341	0.336709
0.0349776	0.411458
0.0511211	0.471238
0.096861	0.583228
0.131839	0.680315
0.201794	0.79964
0.266368	0.896542
0.328251	0.985976
0.398206	1.08285
0.46278	1.15729
0.524664	1.22427
0.594619	1.28372
0.659193	1.35068
0.723767	1.40267
0.791031	1.46213
0.858296	1.51411
0.920179	1.55115
0.984753	1.60314
1.04933	1.64016
1.10852	1.66973
1.16771	1.71427
