Adsorption isotherm of Hydrogen on Fe3[(Fe4Cl)3(BTT)8(MeOH)4]2
DOI: 10.1039/C0sc00179a
Adsorbate Hydrogen: InChIKey UFHFLCQGNIYNRP-UHFFFAOYSA-N
Temperature: 298 K
Tabular data in the source: 0
pressure (bar)	uptake (wt%)
1.63488	0.00862018
4.08719	0.0173768
5.99455	0.042737
8.31063	0.0431236
10.3542	0.0601593
12.3978	0.077195
14.3052	0.102555
18.5286	0.144996
22.752	0.195785
26.703	0.246528
30.7902	0.280599
34.7411	0.322995
38.6921	0.390433
42.5068	0.416111
46.1853	0.458462
50	0.48414
53.6785	0.543185
57.3569	0.577188
61.1717	0.619561
64.9864	0.661934
68.6649	0.704285
72.2071	0.738265
76.0218	0.780638
79.564	0.856355
82.8338	0.881942
86.376	0.899228
90.327	0.958318
93.4605	1.00058
97.2752	1.0513
