Adsorption isotherm of Nitrogen on Fe3[(Fe4Cl)3(BTT)8(MeOH)4]2
DOI: 10.1039/C0sc00179a
Adsorbate Nitrogen: InChIKey IJGRMHOSHXDMSA-UHFFFAOYSA-N
Temperature: 298 K
Tabular data in the source: 0
pressure (bar)	uptake (wt%)
0.0211715	0.0451977
0.0476265	0.0451977
0.074089	0.0903955
0.132298	0.135593
0.26461	0.361582
0.39427	0.542373
0.526575	0.723164
0.661518	0.858757
0.788524	0.99435
0.920829	1.17514
1.05312	1.26554
