Adsorption isotherm of Hydrogen on Fe3[(Fe4Cl)3(BTT)8(MeOH)4]2
DOI: 10.1039/C0sc00179a
Adsorbate Hydrogen: InChIKey UFHFLCQGNIYNRP-UHFFFAOYSA-N
Temperature: 77 K
Tabular data in the source: 0
pressure (bar)	uptake (wt%)
0.544959	2.07856
1.49864	2.82162
2.58856	3.13065
3.67847	3.36455
5.58583	3.48173
6.94823	3.56543
8.17439	3.62407
8.44687	3.64081
10.0817	3.64943
11.7166	3.6664
13.3515	3.66667
14.9864	3.6586
16.7575	3.6422
18.5286	3.6091
19.891	3.58429
21.7984	3.55122
23.1608	3.5431
25.0681	3.49333
26.703	3.45187
28.7466	3.41048
30.5177	3.38573
32.1526	3.35261
34.4687	3.31961
36.921	3.26994
39.1008	3.21187
41.6894	3.17057
43.733	3.16256
46.049	3.10452
47.9564	3.07145
50	3.0217
55.3134	2.93912
57.9019	2.89781
60.8992	2.83154
63.624	2.77356
66.2125	2.71556
68.9373	2.65759
71.6621	2.58292
74.3869	2.53329
77.1117	2.47531
79.8365	2.40899
83.2425	2.35947
86.7847	2.29329
90.327	2.20206
94.0054	2.11085
