Adsorption isotherm of Hydrogen on Fe3[(Fe4Cl)3(BTT)8(MeOH)4]2
DOI: 10.1039/C0sc00179a
Adsorbate Hydrogen: InChIKey UFHFLCQGNIYNRP-UHFFFAOYSA-N
Temperature: 298 K
Tabular data in the source: 0
pressure (bar)	uptake (wt%)
9.9455	0.00166035
12.3978	0.010417
14.3052	0.0190827
18.5286	0.0364822
22.6158	0.0538591
26.5668	0.0962549
30.7902	0.122002
34.7411	0.139356
38.4196	0.148317
42.3706	0.182366
46.594	0.208113
50	0.225376
53.8147	0.259401
57.3569	0.285035
61.1717	0.302366
64.9864	0.31135
68.6649	0.337006
72.3433	0.362662
75.8856	0.379948
79.564	0.397256
83.2425	0.422912
86.7847	0.440198
90.0545	0.474133
93.733	0.491441
97.2752	0.533769
