Adsorption isotherm of Hydrogen on Fe3[(Fe4Cl)3(BTT)8(MeOH)4]2
DOI: 10.1039/C0sc00179a
Adsorbate Hydrogen: InChIKey UFHFLCQGNIYNRP-UHFFFAOYSA-N
Temperature: 77 K
Tabular data in the source: 0
pressure (bar)	uptake (wt%)
0.544959	2.07856
1.63488	2.86338
2.86104	3.20582
3.95095	3.48146
5.17711	3.61522
7.08447	3.72405
8.44687	3.84114
10.0817	3.89985
11.7166	3.95855
13.3515	3.98387
15.1226	4.0092
16.6213	4.02615
18.2561	4.03477
20.2997	4.04346
21.5259	4.05201
23.297	4.06065
24.6594	4.06088
26.703	4.06122
28.4741	4.06151
30.3815	4.07853
32.2888	4.09554
34.4687	4.10425
36.921	4.11301
39.1008	4.11337
41.4169	4.13045
43.4605	4.15584
45.6403	4.17289
47.9564	4.18998
49.8638	4.18195
52.7248	4.19077
55.1771	4.19953
58.0381	4.2167
60.8992	4.22553
63.4877	4.20092
66.2125	4.22641
68.3924	4.21008
71.7984	4.2023
74.3869	4.20274
77.1117	4.21989
79.7003	4.22032
83.2425	4.22926
86.6485	4.24652
90.327	4.23879
93.8692	4.25607
