Adsorption isotherm of Hydrogen on Na-FAU(2.7)
DOI: 10.1260/0263-6174.32.5.413
Adsorbate Hydrogen: InChIKey UFHFLCQGNIYNRP-UHFFFAOYSA-N
Temperature: 77 K
Tabular data in the source: 0
pressure (bar)	uptake (wt%)
0.0288476	0.0736842
0.0543024	0.261988
0.0831501	0.335673
0.103234	0.41345
0.155218	0.532164
0.207389	0.605848
0.253764	0.671345
0.303054	0.736842
0.398854	0.835088
0.503418	0.92924
0.602254	0.99883
0.704056	1.05614
0.800078	1.10117
0.901915	1.15029
0.99497	1.2076
