Adsorption isotherm of Hydrogen on Li-BEA(5.0)
DOI: 10.1260/0263-6174.32.5.413
Adsorbate Hydrogen: InChIKey UFHFLCQGNIYNRP-UHFFFAOYSA-N
Temperature: 77 K
Tabular data in the source: 0
pressure (bar)	uptake (wt%)
0.0216959	0.164173
0.0238256	0.18763
0.0324395	0.264696
0.0325912	0.23788
0.0388857	0.325009
0.0389995	0.304897
0.0409207	0.365226
0.0564547	0.418805
0.0787952	0.46901
0.105604	0.529255
0.150512	0.58944
0.204471	0.649594
0.258543	0.689636
0.301265	0.73642
0.39821	0.796431
0.501849	0.873178
0.594364	0.916443
0.695835	0.976439
0.797457	1.00962
0.899041	1.0495
0.993895	1.07935
