Adsorption isotherm of Hydrogen on Li-MOR(91)
DOI: 10.1260/0263-6174.32.5.413
Adsorbate Hydrogen: InChIKey UFHFLCQGNIYNRP-UHFFFAOYSA-N
Temperature: 77 K
Tabular data in the source: 0
pressure (bar)	uptake (wt%)
-0.00254203	0.0476271
0.00225742	0.0920563
0.00953422	0.120605
0.0143725	0.145986
0.0167593	0.17455
0.0240037	0.218971
0.0580721	0.298228
0.258006	0.57061
0.301939	0.608565
0.409396	0.668542
0.507086	0.7222
0.607228	0.772675
0.70497	0.800937
0.80026	0.83238
0.902879	0.866975
0.998189	0.888895
