Adsorption isotherm of Hydrogen on Li-FAU(1.0)
DOI: 10.1260/0263-6174.32.5.413
Adsorbate Hydrogen: InChIKey UFHFLCQGNIYNRP-UHFFFAOYSA-N
Temperature: 77 K
Tabular data in the source: 0
pressure (bar)	uptake (wt%)
0.00509778	0.176023
0.00537057	0.110526
0.00772339	0.245614
0.0110992	0.135088
0.0163504	0.274269
0.0218915	0.34386
0.0220108	0.315205
0.0302798	0.429825
0.0532795	0.507602
0.08211	0.58538
0.102297	0.638596
0.151467	0.732749
0.252826	0.896491
0.406646	1.06433
0.499668	1.12982
0.6043	1.2076
0.700288	1.26082
0.796311	1.30585
0.898147	1.35497
0.991305	1.38772
