Adsorption isotherm of Hydrogen on Na-MOR(8.9)
DOI: 10.1260/0263-6174.32.5.413
Adsorbate Hydrogen: InChIKey UFHFLCQGNIYNRP-UHFFFAOYSA-N
Temperature: 77 K
Tabular data in the source: 0
pressure (bar)	uptake (wt%)
0.00421731	0.330145
0.00453425	0.174589
0.00456659	0.158716
0.00918493	0.292034
0.011714	0.250756
0.0163388	0.380901
0.018648	0.44756
0.0187386	0.403115
0.0234604	0.48564
0.0550773	0.568079
0.08672	0.63782
0.103764	0.672686
0.154986	0.732841
0.216001	0.786616
0.257489	0.824579
0.30633	0.852996
0.401582	0.903487
0.494415	0.941288
0.604369	0.975859
0.704562	1.00094
0.799859	1.02921
0.902491	1.05745
0.997807	1.0762
