Adsorption isotherm of Hydrogen on Li-FAU(2.9)
DOI: 10.1260/0263-6174.32.5.413
Adsorbate Hydrogen: InChIKey UFHFLCQGNIYNRP-UHFFFAOYSA-N
Temperature: 77 K
Tabular data in the source: 0
pressure (bar)	uptake (wt%)
0.10198	0.17193
0.157425	0.225146
0.207038	0.270175
0.250821	0.307018
0.306265	0.360234
0.405544	0.425731
0.510653	0.499415
0.607041	0.548538
0.70632	0.614035
0.802734	0.650877
0.904979	0.695906
0.995529	0.740936
