Adsorption isotherm of Hydrogen on H-MOR(91)
DOI: 10.1260/0263-6174.32.5.413
Adsorbate Hydrogen: InChIKey UFHFLCQGNIYNRP-UHFFFAOYSA-N
Temperature: 77 K
Tabular data in the source: 0
pressure (bar)	uptake (wt%)
0.0386091	0.250671
0.0604783	0.317268
0.0823539	0.380691
0.106707	0.428233
0.15062	0.475712
0.199417	0.526351
0.250639	0.586506
0.301893	0.630788
0.404441	0.700303
0.507021	0.753946
0.602292	0.794913
0.697563	0.835881
0.800195	0.864126
0.900382	0.89238
0.998131	0.917466
