Adsorption isotherm of Hydrogen on H-FAU(47.5)
DOI: 10.1260/0263-6174.32.5.413
Adsorbate Hydrogen: InChIKey UFHFLCQGNIYNRP-UHFFFAOYSA-N
Temperature: 77 K
Tabular data in the source: 0
pressure (bar)	uptake (wt%)
0.0525375	0.0450292
0.0788191	0.0614035
0.110949	0.0777778
0.151824	0.106433
0.207337	0.126901
0.25112	0.163743
0.297878	0.176023
0.408886	0.225146
0.505292	0.266082
0.604613	0.311111
0.706876	0.347953
0.806231	0.376608
0.911426	0.409357
0.996127	0.454386
