Adsorption isotherm of Hydrogen on H-FAU(6.8)
DOI: 10.1260/0263-6174.32.5.413
Adsorbate Hydrogen: InChIKey UFHFLCQGNIYNRP-UHFFFAOYSA-N
Temperature: 77 K
Tabular data in the source: 0
pressure (bar)	uptake (wt%)
0.248179	0.17193
0.300768	0.192398
0.408844	0.245614
0.5023	0.29883
0.607452	0.352047
0.706773	0.397076
0.80317	0.442105
0.911289	0.474854
0.99894	0.507602
