Adsorption isotherm of Hydrogen on Li-MFI(12)
DOI: 10.1260/0263-6174.32.5.413
Adsorbate Hydrogen: InChIKey UFHFLCQGNIYNRP-UHFFFAOYSA-N
Temperature: 77 K
Tabular data in the source: 0
pressure (bar)	uptake (wt%)
0.00433973	0.0901024
0.00625563	0.161092
0.00859926	0.188396
0.0110231	0.207509
0.0116914	0.139249
0.0160312	0.229352
0.0183748	0.256655
0.0207452	0.281229
0.0283374	0.305802
0.033292	0.333106
0.0535916	0.393174
0.0792468	0.43959
0.0997603	0.477816
0.156613	0.537884
0.19543	0.573379
0.247302	0.608874
0.29667	0.633447
0.39807	0.677133
0.502107	0.718089
0.593197	0.748123
0.694784	0.772696
0.793734	0.8
0.89279	0.816382
0.986624	0.832765
