Adsorption isotherm of Hydrogen on Li-MOR(8.9)
DOI: 10.1260/0263-6174.32.5.413
Adsorbate Hydrogen: InChIKey UFHFLCQGNIYNRP-UHFFFAOYSA-N
Temperature: 77 K
Tabular data in the source: 0
pressure (bar)	uptake (wt%)
0.0044437	0.219034
0.00694691	0.190454
0.00946307	0.155526
0.0138291	0.412655
0.0186092	0.466608
0.0477099	0.583976
0.0647085	0.641064
0.142729	0.748753
0.203737	0.805702
0.250108	0.846825
0.303834	0.878401
0.406407	0.935218
0.499201	0.992066
0.604265	1.02665
0.704459	1.05173
0.807084	1.08315
0.902394	1.10507
0.995265	1.12382
