Adsorption isotherm of Hydrogen on Li-FAU(47.5)
DOI: 10.1260/0263-6174.32.5.413
Adsorbate Hydrogen: InChIKey UFHFLCQGNIYNRP-UHFFFAOYSA-N
Temperature: 77 K
Tabular data in the source: 0
pressure (bar)	uptake (wt%)
0.0963373	0.0736842
0.251103	0.17193
0.297835	0.196491
0.40592	0.245614
0.505215	0.302924
0.613308	0.347953
0.709723	0.384795
0.809035	0.433918
0.90545	0.47076
0.993109	0.499415
