Adsorption isotherm of Hydrogen on H-BEA(174)
DOI: 10.1260/0263-6174.32.5.413
Adsorbate Hydrogen: InChIKey UFHFLCQGNIYNRP-UHFFFAOYSA-N
Temperature: 77 K
Tabular data in the source: 0
pressure (bar)	uptake (wt%)
0.0157236	0.020059
0.0268654	0.0501893
0.0514684	0.100386
0.0602908	0.14058
0.084799	0.207537
0.107215	0.244333
0.15876	0.331311
0.206006	0.37808
0.255478	0.431546
0.305025	0.471603
0.401933	0.538318
0.501217	0.584912
0.604969	0.641548
0.704272	0.68479
0.80135	0.721336
0.90071	0.754523
0.988833	0.774339
