Adsorption isotherm of Hydrogen on Na-BEA(5.0)
DOI: 10.1260/0263-6174.32.5.413
Adsorbate Hydrogen: InChIKey UFHFLCQGNIYNRP-UHFFFAOYSA-N
Temperature: 77 K
Tabular data in the source: 0
pressure (bar)	uptake (wt%)
-0.000455025	0.0804485
0.00388035	0.113953
0.00597221	0.144114
0.0168107	0.227877
0.0187129	0.291557
0.0188835	0.261389
0.0206152	0.355238
0.0208237	0.318366
0.0357511	0.47921
0.059918	0.606503
0.0822205	0.663412
0.102261	0.720328
0.147055	0.800624
0.207858	0.8507
0.255029	0.910877
0.306896	0.940871
0.40386	0.997529
0.498619	1.04414
0.600279	1.07061
0.692814	1.11053
0.79898	1.14034
0.898397	1.16347
0.986501	1.18664
