Adsorption isotherm of Hydrogen on Li-MOR(10.3)
DOI: 10.1260/0263-6174.32.5.413
Adsorbate Hydrogen: InChIKey UFHFLCQGNIYNRP-UHFFFAOYSA-N
Temperature: 77 K
Tabular data in the source: 0
pressure (bar)	uptake (wt%)
0.0309054	0.431648
0.0503878	0.469681
0.0552066	0.504587
0.0795144	0.574351
0.103906	0.602845
0.150225	0.669364
0.203893	0.729511
0.252722	0.764277
0.299112	0.795876
0.406576	0.852678
0.499369	0.909526
0.604433	0.944113
0.702156	0.981898
0.804801	1.00379
0.904988	1.03205
0.99784	1.06032
