Adsorption isotherm of Hydrogen on Na-FAU(1.0)
DOI: 10.1260/0263-6174.32.5.413
Adsorbate Hydrogen: InChIKey UFHFLCQGNIYNRP-UHFFFAOYSA-N
Temperature: 77 K
Tabular data in the source: 0
pressure (bar)	uptake (wt%)
0.00262561	0.0695906
0.0282338	0.221053
0.0568257	0.35614
0.0795867	0.491228
0.108451	0.560819
0.151569	0.708187
0.212385	0.806433
0.24991	0.896491
0.302218	0.937427
0.403833	1.03977
0.499855	1.0848
0.60164	1.1462
0.703459	1.19942
0.799499	1.24035
0.898488	1.2731
0.99168	1.29766
