Adsorption isotherm of Hydrogen on H-MOR(10.3)
DOI: 10.1260/0263-6174.32.5.413
Adsorbate Hydrogen: InChIKey UFHFLCQGNIYNRP-UHFFFAOYSA-N
Temperature: 77 K
Tabular data in the source: 0
pressure (bar)	uptake (wt%)
0.00464421	0.12062
0.0165717	0.266614
0.0262094	0.336425
0.0602583	0.425206
0.0797213	0.472763
0.104087	0.513955
0.152852	0.580467
0.201648	0.631106
0.260238	0.675364
0.304164	0.716495
0.404312	0.763796
0.506905	0.811089
0.599757	0.839366
0.707272	0.870771
0.800124	0.899047
0.902756	0.927293
1.00054	0.936506
