Adsorption isotherm of Hydrogen on Na-MFI(12)
DOI: 10.1260/0263-6174.32.5.413
Adsorbate Hydrogen: InChIKey UFHFLCQGNIYNRP-UHFFFAOYSA-N
Temperature: 77 K
Tabular data in the source: 0
pressure (bar)	uptake (wt%)
0.00918739	0.128328
0.0099894	0.0464164
0.0103548	0.275768
0.0116112	0.14744
0.012538	0.319454
0.0153361	0.300341
0.0188025	0.212969
0.0190966	0.182935
0.0200857	0.0819113
0.0272948	0.412287
0.0449567	0.475085
0.0809221	0.535154
0.10418	0.559727
0.150696	0.608874
0.194762	0.641638
0.249352	0.666212
0.296055	0.696246
0.400146	0.731741
0.493847	0.761775
0.59285	0.783618
0.694464	0.805461
0.788191	0.832765
0.900249	0.854608
0.988888	0.868259
