Adsorption isotherm of Hydrogen on Li-FAU(2.7)
DOI: 10.1260/0263-6174.32.5.413
Adsorbate Hydrogen: InChIKey UFHFLCQGNIYNRP-UHFFFAOYSA-N
Temperature: 77 K
Tabular data in the source: 0
pressure (bar)	uptake (wt%)
0.0257105	0.126901
0.0343887	0.143275
0.060372	0.204678
0.0862701	0.28655
0.109338	0.347953
0.158526	0.438012
0.201899	0.523977
0.25419	0.569006
0.306395	0.634503
0.405146	0.724561
0.503964	0.798246
0.611546	0.867836
0.704602	0.925146
0.803522	0.974269
0.90246	1.0193
0.989753	1.06023
