Adsorption isotherm of Hydrogen on H-FAU(2.9)
DOI: 10.1260/0263-6174.32.5.413
Adsorbate Hydrogen: InChIKey UFHFLCQGNIYNRP-UHFFFAOYSA-N
Temperature: 77 K
Tabular data in the source: 0
pressure (bar)	uptake (wt%)
0.0491876	0.0900585
0.0723919	0.118713
0.110156	0.151462
0.159531	0.196491
0.211788	0.249708
0.249552	0.282456
0.310538	0.339766
0.400593	0.417544
0.496599	0.466667
0.607164	0.519883
0.706	0.589474
0.802039	0.630409
0.903875	0.679532
0.991151	0.724561
