Adsorption isotherm of Hydrogen on H-BEA(5.0)
DOI: 10.1260/0263-6174.32.5.413
Adsorbate Hydrogen: InChIKey UFHFLCQGNIYNRP-UHFFFAOYSA-N
Temperature: 77 K
Tabular data in the source: 0
pressure (bar)	uptake (wt%)
0.0600444	0.184156
0.0913589	0.247738
0.118243	0.294576
0.163038	0.374872
0.210209	0.43505
0.257437	0.485171
0.309133	0.545333
0.401459	0.622118
0.496142	0.682136
0.599913	0.735419
0.699178	0.785366
0.798557	0.8152
0.897935	0.845035
0.992789	0.874885
