Adsorption isotherm of Hydrogen on Li-FAU(6.8)
DOI: 10.1260/0263-6174.32.5.413
Adsorbate Hydrogen: InChIKey UFHFLCQGNIYNRP-UHFFFAOYSA-N
Temperature: 77 K
Tabular data in the source: 0
pressure (bar)	uptake (wt%)
0.107982	0.0982456
0.154689	0.135088
0.204345	0.159649
0.248145	0.188304
0.294834	0.233333
0.405826	0.290643
0.499273	0.347953
0.601493	0.405263
0.703746	0.446199
0.803042	0.503509
0.902363	0.548538
0.998795	0.577193
