Adsorption isotherm of Nitrogen on FDM-4
DOI: 10.1021/jacs.7b03578
Article source: Figure 4
Adsorbate Nitrogen: InChIKey IJGRMHOSHXDMSA-UHFFFAOYSA-N
Kind: experiment
Temperature: 77 K
Tabular data in the source: 0
pressure (bar)	uptake (cm3(STP)/g)
0.000172	10.5
0.001236	46.38
0.002108	140.87
0.003759	263.27
0.006191	374.59
0.008167	474.58
0.010477	529.25
0.012027	548.46
0.021521	622.81
0.025584	637.09
0.030417	653.83
0.040722	677.2
0.050864	702.8
0.061169	725.43
0.070997	763.1
0.078171	795.34
0.081291	804.2
0.091576	866.49
0.10187	911.3
0.129835	942.76
0.152339	947.89
0.177082	959.58
0.202393	965
0.230186	970.42
0.251778	975.46
0.277088	977.75
0.302145	980.83
0.328205	985.07
0.354762	985.41
0.378583	988.88
0.405961	989.56
0.429984	993.85
0.455589	996.9
0.483169	1001.19
0.505622	999.9
0.533192	1002.95
0.557226	1001.04
0.58204	1005.33
0.604888	1005.28
0.632073	1011.43
0.656887	1011.38
0.684467	1013.18
0.70692	1014.38
0.734886	1015.56
0.760095	1014.27
0.783338	1017.32
0.811314	1018.5
0.834547	1020.32
0.860506	1022.76
0.887397	1022.71
0.909901	1025.61
0.934917	1030.49
0.963055	1025.5
0.987443	1030.38
1.00495	1035.27
