Adsorption isotherm of Nitrogen on FDM-5
DOI: 10.1021/jacs.7b03578
Article source: Figure 4
Adsorbate Nitrogen: InChIKey IJGRMHOSHXDMSA-UHFFFAOYSA-N
Kind: experiment
Temperature: 77 K
Tabular data in the source: 0
pressure (bar)	uptake (cm3(STP)/g)
0.001196	7.58
0.001246	32.35
0.001439	48.95
0.001621	71.29
0.001905	96.42
0.002077	123.73
0.002462	148.4
0.003323	187.81
0.007032	207.35
0.014216	226.1
0.024875	247.58
0.042231	282.73
0.052647	294.44
0.066042	305.35
0.077948	310.8
0.09036	311.56
0.103755	313.88
0.125093	320.09
0.15239	318.47
0.179686	323.88
0.202028	323.84
0.230317	326.91
0.254635	328.42
0.280938	333.06
0.305752	333.79
0.332552	336.86
0.354397	335.25
0.379708	339.11
0.403529	338.27
0.432315	341.34
0.45415	340.51
0.481446	348.28
0.505774	344.32
0.532077	352.08
0.557884	344.99
0.583195	351.19
0.609509	343.32
0.632326	356.56
0.660129	347.12
0.682958	356.46
0.71225	349.36
0.733082	357.92
0.759396	350.04
0.785699	364.06
0.80952	353.85
0.835327	367.09
0.859655	358.44
0.885948	372.46
0.911765	366.15
0.936569	379.39
0.962386	380.12
0.987697	380.84
1.00556	381.59
