Adsorption isotherm of Nitrogen on FDM-7
DOI: 10.1021/jacs.7b03578
Article source: Figure 4
Adsorbate Nitrogen: InChIKey IJGRMHOSHXDMSA-UHFFFAOYSA-N
Kind: experiment
Temperature: 77 K
Tabular data in the source: 0
pressure (bar)	uptake (cm3(STP)/g)
0.0008	2.62
0.001246	32.35
0.001621	71.29
0.001905	96.42
0.004387	227.98
0.006677	356.13
0.007234	408.26
0.01075	452.01
0.019383	513.74
0.027246	538.24
0.03216	558.71
0.0406	611.13
0.050813	657.35
0.059669	680.91
0.078566	696.7
0.092933	710.94
0.101992	713.71
0.127008	721.73
0.155956	730.05
0.177619	737.14
0.206375	739.87
0.230398	743.24
0.255385	749.09
0.276723	752.17
0.306006	753.67
0.327344	755.19
0.35762	762.17
0.382434	763.68
0.402293	759.73
0.431575	756.54
0.452914	763.53
0.4817	766.6
0.5085	766.54
0.529352	765.72
0.56211	768
0.582952	771.86
0.609255	768.68
0.633076	774.1
0.6579	772.49
0.680232	777.91
0.707528	773.95
0.734328	776.24
0.760632	777.75
0.784959	779.26
0.813249	775.29
0.835084	776.03
0.857426	777.55
0.885512	779.42
0.912697	778.74
0.93514	782.42
0.962325	782.98
0.988325	786.65
1.00566	785.37
