Adsorption isotherm of Nitrogen on FDM-6
DOI: 10.1021/jacs.7b03578
Article source: Figure 4
Adsorbate Nitrogen: InChIKey IJGRMHOSHXDMSA-UHFFFAOYSA-N
Kind: experiment
Temperature: 77 K
Tabular data in the source: 0
pressure (bar)	uptake (cm3(STP)/g)
0.000172	10.7
0.001641	89.09
0.002736	123.69
0.004266	237.47
0.005644	426.11
0.007569	509.73
0.009605	568.69
0.021166	643.63
0.025878	659.64
0.030579	677.62
0.040489	718.26
0.050884	758.11
0.061787	781.16
0.069467	812.42
0.076408	829.21
0.101445	863.57
0.127495	879.93
0.154295	883.79
0.179605	891.16
0.201937	894.63
0.226477	899.95
0.255243	899.89
0.275244	908.72
0.30401	905.7
0.328398	911.56
0.359038	915.44
0.378421	917.37
0.401563	920.28
0.430947	923.17
0.455964	924.1
0.482227	927.99
0.505987	927.94
0.527244	933.81
0.556638	930.79
0.584776	933.69
0.608536	935.61
0.632306	938.51
0.656684	941.42
0.682329	943.34
0.707964	944.27
0.732353	946.19
0.756741	945.15
0.782376	948.05
0.808021	949.97
0.834902	952.87
0.861175	951.83
0.887427	957.69
0.913072	958.62
0.938089	956.59
0.962477	959.5
0.984981	961.42
1.00499	964.34
