Adsorption isotherm of M-Xylene on MIL-47
DOI: 10.1021/Jp908247w
Adsorbate M-Xylene: InChIKey IVSZLXZYQVIEFR-UHFFFAOYSA-N
Temperature: 423 K
Tabular data in the source: 0
pressure (bar)	uptake (mmol/g)
9.58064e-05	0.0599265
0.000255532	0.182279
0.00101926	0.654212
0.00245832	1.25724
0.0074355	1.94766
0.0135986	2.18362
0.0230625	2.41959
0.0680229	2.71673
0.195649	2.98766
0.52183	3.14497
0.978674	3.23236
