Adsorption isotherm of M-Xylene on MIL-47
DOI: 10.1021/Jp908247w
Adsorbate M-Xylene: InChIKey IVSZLXZYQVIEFR-UHFFFAOYSA-N
Temperature: 343 K
Tabular data in the source: 0
pressure (bar)	uptake (mmol/g)
1.01695e-05	0.383288
4.69356e-05	1.75539
9.11812e-05	2.31472
0.000239553	2.76917
0.000456105	2.92648
0.000695976	3.02262
0.000979864	3.09253
0.00206313	3.18867
0.0027901	3.2848
0.00392818	3.2848
0.045752	3.6169
0.092532	3.72178
