Adsorption isotherm of P-Xylene on MIL-47
DOI: 10.1021/Jp908247w
Adsorbate P-Xylene: InChIKey URLKBWYHVLBVBO-UHFFFAOYSA-N
Temperature: 383 K
Tabular data in the source: 0
pressure (bar)	uptake (mmol/g)
0.000351117	1.28346
0.0010201	2.01757
0.0014654	2.23606
0.00206313	2.44581
0.00284681	2.54194
0.00417263	2.70799
0.00520648	2.92648
0.00676328	3.02262
0.00971557	3.11875
0.0255249	3.38093
