Adsorption isotherm of M-Xylene on MIL-47
DOI: 10.1021/Jp908247w
Adsorbate M-Xylene: InChIKey IVSZLXZYQVIEFR-UHFFFAOYSA-N
Temperature: 343 K
Tabular data in the source: 0
pressure (bar)	uptake (mmol/g)
1.05872e-05	0.23456
0.000100833	0.834308
0.000514638	0.79498
0.0010201	0.716325
0.00314816	0.519686
0.00510275	0.323048
0.010744	0.254224
0.0208723	0.195232
0.0312147	0.205064
0.0430716	0.273888
