Adsorption isotherm of O-Xylene on MIL-47
DOI: 10.1021/Jp908247w
Adsorbate O-Xylene: InChIKey CTQNGGLPUBDAKN-UHFFFAOYSA-N
Temperature: 343 K
Tabular data in the source: 0
pressure (bar)	uptake (mmol/g)
9.96692e-06	0.372207
0.000104974	2.00431
0.000504385	2.69254
0.000999782	2.89901
0.00302397	3.41027
0.00531231	3.87238
0.0103202	3.99036
0.0212965	4.16733
0.0312147	4.07885
0.0430716	4.09851
