Adsorption isotherm of P-Xylene on MIL-47
DOI: 10.1021/Jp908247w
Adsorbate P-Xylene: InChIKey URLKBWYHVLBVBO-UHFFFAOYSA-N
Temperature: 343 K
Tabular data in the source: 0
pressure (bar)	uptake (mmol/g)
0.00115102	1.6243
0.00152558	3.58194
0.00247276	3.6169
0.00400803	3.63438
0.00490146	3.63438
0.0128772	3.64312
0.0217294	3.65186
0.0338312	3.6606
