Adsorption isotherm of O-Xylene on MIL-47
DOI: 10.1021/Jp908247w
Adsorbate O-Xylene: InChIKey CTQNGGLPUBDAKN-UHFFFAOYSA-N
Temperature: 343 K
Tabular data in the source: 0
pressure (bar)	uptake (mmol/g)
1.01695e-05	0.802784
4.69356e-05	2.76917
9.30347e-05	3.25858
0.000230103	3.92278
0.000372967	4.15875
0.000941211	4.18497
0.00175635	4.19371
0.00327745	4.21993
0.0061159	4.27236
0.0276645	4.2811
