Adsorption isotherm of M-Xylene on MIL-47
DOI: 10.1021/Jp908247w
Adsorbate M-Xylene: InChIKey IVSZLXZYQVIEFR-UHFFFAOYSA-N
Temperature: 343 K
Tabular data in the source: 0
pressure (bar)	uptake (mmol/g)
1.05959e-05	0.1236
0.000101937	0.588979
0.000504803	0.523432
0.00299618	0.169483
0.00508135	0.143264
0.010174	0.1236
0.0206804	0.202256
0.0288244	0.149819
0.038981	0.0973819
