Adsorption isotherm of O-Xylene on MIL-47
DOI: 10.1021/Jp908247w
Adsorbate O-Xylene: InChIKey CTQNGGLPUBDAKN-UHFFFAOYSA-N
Temperature: 423 K
Tabular data in the source: 0
pressure (bar)	uptake (mmol/g)
0.000969251	1.55438
0.0018178	2.09623
0.00340922	2.41959
0.00623505	2.62934
0.0105743	2.79539
0.017488	2.92648
0.0282034	3.00514
