Adsorption isotherm of M-Xylene on MIL-47
DOI: 10.1021/Jp908247w
Adsorbate M-Xylene: InChIKey IVSZLXZYQVIEFR-UHFFFAOYSA-N
Temperature: 343 K
Tabular data in the source: 0
pressure (bar)	uptake (mmol/g)
0.000695976	2.93522
0.000979864	2.98766
0.00194227	3.10127
0.00362437	3.18867
0.00636706	3.2411
0.0109624	3.3285
0.0196495	3.45085
0.0312147	3.51203
