Adsorption isotherm of O-Xylene on MIL-47
DOI: 10.1021/Jp908247w
Adsorbate O-Xylene: InChIKey CTQNGGLPUBDAKN-UHFFFAOYSA-N
Temperature: 383 K
Tabular data in the source: 0
pressure (bar)	uptake (mmol/g)
4.98564e-05	0.330851
0.000102883	0.732868
0.000239553	1.64178
0.000494337	2.30598
0.000754315	2.5769
0.00108359	2.73421
0.00302397	3.07505
0.0056429	3.24984
0.00733019	3.5732
0.0174146	3.86161
0.0217294	4.25488
