Adsorption isotherm of P-Xylene on MIL-47
DOI: 10.1021/Jp908247w
Adsorbate P-Xylene: InChIKey URLKBWYHVLBVBO-UHFFFAOYSA-N
Temperature: 343 K
Tabular data in the source: 0
pressure (bar)	uptake (mmol/g)
1.01695e-05	0.505641
4.88631e-05	2.29724
9.68554e-05	3.31102
0.000239553	3.77421
0.000456105	4.12379
0.000710124	4.15875
0.00247276	4.26362
0.0040895	4.24615
0.013406	4.28984
0.0352206	4.28984
