Adsorption isotherm of M-Xylene on MIL-47
DOI: 10.1021/Jp908247w
Adsorbate M-Xylene: InChIKey IVSZLXZYQVIEFR-UHFFFAOYSA-N
Temperature: 423 K
Tabular data in the source: 0
pressure (bar)	uptake (mmol/g)
0.00148645	1.25724
0.00252094	1.59808
0.00416917	1.92144
0.0074355	2.18362
0.0116936	2.3322
0.020855	2.47203
0.0344903	2.55942
