Adsorption isotherm of M-Xylene on MIL-47
DOI: 10.1021/Jp908247w
Adsorbate M-Xylene: InChIKey IVSZLXZYQVIEFR-UHFFFAOYSA-N
Temperature: 383 K
Tabular data in the source: 0
pressure (bar)	uptake (mmol/g)
0.000298907	1.69421
0.000960343	2.35841
0.00137955	2.49825
0.00194227	2.5769
0.00257432	2.68178
0.00355217	2.73421
0.00676328	2.83035
0.0116446	2.94396
0.0200489	3.01388
0.0318492	3.11875
