Adsorption isotherm of P-Xylene on MIL-47
DOI: 10.1021/Jp908247w
Adsorbate P-Xylene: InChIKey URLKBWYHVLBVBO-UHFFFAOYSA-N
Temperature: 343 K
Tabular data in the source: 0
pressure (bar)	uptake (mmol/g)
1.04372e-05	0.169483
0.000103487	0.824945
0.000497242	1.15268
0.00313496	1.7557
0.00493026	1.67705
0.00972363	1.8999
0.0203706	1.83436
0.0288244	1.78192
0.0420365	1.64427
