Adsorption isotherm of M-Xylene on MIL-47
DOI: 10.1021/Jp908247w
Adsorbate M-Xylene: InChIKey IVSZLXZYQVIEFR-UHFFFAOYSA-N
Temperature: 383 K
Tabular data in the source: 0
pressure (bar)	uptake (mmol/g)
4.69356e-05	0.199758
9.49258e-05	0.409506
0.000244422	0.933876
0.000304983	1.13488
0.00137955	2.18362
0.00355217	2.60312
0.00690076	2.79539
0.0157477	3.03136
0.0712325	3.17119
0.183415	3.38093
