Adsorption isotherm of P-Xylene on MIL-47
DOI: 10.1021/Jp908247w
Adsorbate P-Xylene: InChIKey URLKBWYHVLBVBO-UHFFFAOYSA-N
Temperature: 383 K
Tabular data in the source: 0
pressure (bar)	uptake (mmol/g)
1.10219e-05	0.033708
4.88631e-05	0.234716
0.000100833	0.488162
0.000259633	1.15236
0.000344122	1.41455
0.001062	2.30598
0.00296373	2.87404
0.0074792	3.41589
0.0160678	3.93152
0.0260438	4.18497
0.0559506	4.30732
