Adsorption isotherm of O-Xylene on MIL-47
DOI: 10.1021/Jp908247w
Adsorbate O-Xylene: InChIKey CTQNGGLPUBDAKN-UHFFFAOYSA-N
Temperature: 343 K
Tabular data in the source: 0
pressure (bar)	uptake (mmol/g)
1.05959e-05	0.235029
0.000103487	1.38209
0.000528185	1.79503
0.0029513	2.29318
0.00485641	2.45705
0.00972363	2.30629
0.0203706	2.26696
0.0288244	2.32595
0.0383971	2.57503
