Adsorption isotherm of O-Xylene on MIL-47
DOI: 10.1021/Jp908247w
Adsorbate O-Xylene: InChIKey CTQNGGLPUBDAKN-UHFFFAOYSA-N
Temperature: 423 K
Tabular data in the source: 0
pressure (bar)	uptake (mmol/g)
0.000236958	0.269674
0.000491449	0.549338
0.000993941	1.07371
0.00245832	1.87774
0.00639387	2.41959
0.0213862	2.8653
0.0515806	3.13623
0.205744	3.38967
0.323568	3.55572
0.820668	3.82665
