Adsorption isotherm of P-Xylene on MIL-47
DOI: 10.1021/Jp908247w
Adsorbate P-Xylene: InChIKey URLKBWYHVLBVBO-UHFFFAOYSA-N
Temperature: 423 K
Tabular data in the source: 0
pressure (bar)	uptake (mmol/g)
1.10128e-05	0.00748956
5.1084e-05	0.051187
0.00010075	0.0599265
0.000503968	0.383288
0.00258516	1.37085
0.00864682	2.16615
0.0230625	2.64682
0.0697556	3.03136
0.200633	3.56446
0.761017	3.9053
