Adsorption isotherm of P-Xylene on MIL-47
DOI: 10.1021/Jp908247w
Adsorbate P-Xylene: InChIKey URLKBWYHVLBVBO-UHFFFAOYSA-N
Temperature: 423 K
Tabular data in the source: 0
pressure (bar)	uptake (mmol/g)
0.00152432	0.811523
0.0028588	1.34463
0.00472794	1.9127
0.00822257	2.2448
0.013945	2.40211
0.0224896	2.56816
0.0362698	2.68178
