Adsorption isotherm of O-Xylene on MIL-47
DOI: 10.1021/Jp908247w
Adsorbate O-Xylene: InChIKey CTQNGGLPUBDAKN-UHFFFAOYSA-N
Temperature: 383 K
Tabular data in the source: 0
pressure (bar)	uptake (mmol/g)
0.00023478	2.17488
0.000754315	2.68178
0.00104084	2.80413
0.0014654	2.87404
0.00210507	2.94396
0.00302397	3.01388
0.00425745	3.04009
0.00763123	3.18867
0.00971557	3.22362
0.0255249	3.35472
