Adsorption isotherm of O-Xylene on MIL-47
DOI: 10.1021/Jp908247w
Adsorbate O-Xylene: InChIKey CTQNGGLPUBDAKN-UHFFFAOYSA-N
Temperature: 343 K
Tabular data in the source: 0
pressure (bar)	uptake (mmol/g)
0.00110561	3.17993
0.00168707	3.31976
0.00321215	3.42463
0.0056429	3.42463
0.0101146	3.45085
0.0160678	3.45959
0.0265732	3.50329
