Adsorption isotherm of Nitrogen on Cellular Carbon Foam (4% Aluminum Nitrate)
DOI: 10.1039/c3ra46240d
Article source: Figure 1d
Adsorbate Nitrogen: InChIKey IJGRMHOSHXDMSA-UHFFFAOYSA-N
Kind: experiment
Temperature: 77 K
Tabular data in the source: 0
pressure (bar)	uptake (cm3(STP)/g)
0.001236	0.00122
0.002471	65.0865
0.003707	123.993
0.006178	144.353
0.049427	160.275
0.080319	163.492
0.097618	164.916
0.113682	165.614
0.142102	166.29
0.158166	167.353
0.185351	167.667
0.206357	168.357
0.232306	168.674
0.255784	168.996
0.280497	168.588
0.305211	168.907
0.327453	168.867
0.347224	169.559
0.386765	169.851
0.426307	169.78
0.465848	170.073
0.506625	170
0.548637	170.288
0.589415	170.215
0.628957	170.144
0.669734	170.071
0.709275	170
0.733988	169.956
0.750052	169.563
0.772294	169.887
0.788358	169.494
0.813071	169.814
0.850141	169.747
0.892154	169.672
0.914396	169.632
0.924282	169.614
0.935403	169.594
0.944052	169.579
0.961351	169.184
0.986066	169.503
1.01078	170.186
