Adsorption isotherm of Carbon Dioxide on Cellular Carbon Foam (2% Aluminum Nitrate)
DOI: 10.1039/c3ra46240d
Article source: Figure 4b
Adsorbate Carbon Dioxide: InChIKey CURLTUGMZLYLDI-UHFFFAOYSA-N
Kind: experiment
Temperature: 273 K
Tabular data in the source: 0
pressure (bar)	uptake (mmol/g)
0.002381	0.049168
0.017856	0.382422
0.035711	0.60091
0.049996	0.786629
0.067852	0.934079
0.084517	1.06514
0.103563	1.18526
0.119038	1.29447
0.136894	1.39274
0.155939	1.491
0.172604	1.57289
0.19046	1.66023
0.208316	1.73117
0.224981	1.80213
0.241647	1.88401
0.260693	1.93856
0.278549	2.0095
0.296404	2.06406
0.314259	2.12407
0.330925	2.1677
0.352352	2.21677
0.367827	2.27134
0.383302	2.31498
0.403539	2.35312
0.422584	2.39674
0.439249	2.44037
0.457105	2.47853
0.474961	2.51123
0.492817	2.55485
0.513052	2.58754
0.529718	2.62024
0.547574	2.66386
0.56662	2.69109
0.583285	2.72379
0.599951	2.75102
0.620188	2.77824
0.635662	2.80002
0.651137	2.83819
0.671373	2.86541
0.689229	2.88718
0.707085	2.91441
0.72494	2.94164
0.741606	2.96888
0.761843	2.98517
0.778508	3.00694
0.796363	3.03417
0.814218	3.05594
0.830884	3.07771
0.84874	3.09401
0.866595	3.12124
0.884451	3.14847
0.902307	3.16478
0.921352	3.18107
0.936828	3.20285
0.954683	3.21369
0.973729	3.24638
0.990395	3.26269
1.00944	3.28445
1.0273	3.29528
