Adsorption isotherm of Carbon Dioxide on Cellular Carbon Foam (1% Aluminum Nitrate)
DOI: 10.1039/c3ra46240d
Article source: Figure 4b
Adsorbate Carbon Dioxide: InChIKey CURLTUGMZLYLDI-UHFFFAOYSA-N
Kind: experiment
Temperature: 273 K
Tabular data in the source: 0
pressure (bar)	uptake (mmol/g)
0.002381	0.049168
0.015475	0.284074
0.035711	0.508014
0.049996	0.644553
0.067852	0.786538
0.086898	0.906659
0.103563	1.02679
0.117848	1.11961
0.138083	1.23973
0.154749	1.31068
0.173795	1.40895
0.19046	1.47443
0.208316	1.56177
0.223791	1.6218
0.245218	1.6982
0.260693	1.7473
0.277359	1.80186
0.294024	1.85642
0.31188	1.91643
0.330925	1.97098
0.348781	2.01461
0.366637	2.0637
0.384492	2.10186
0.399967	2.14549
0.419014	2.17818
0.436869	2.22727
0.455915	2.26542
0.47377	2.30358
0.490436	2.33629
0.508292	2.36898
0.527338	2.40713
0.544003	2.43437
0.563048	2.47253
0.579714	2.49976
0.59757	2.52699
0.615425	2.55422
0.634472	2.59238
0.651137	2.60869
0.668993	2.63592
0.686849	2.66315
0.703514	2.68492
0.721369	2.70669
0.741606	2.73391
0.75708	2.75568
0.774936	2.78291
0.791602	2.80469
0.810648	2.83191
0.827313	2.84822
0.847549	2.86451
0.864214	2.88628
0.879689	2.90806
0.899926	2.92435
0.917782	2.94065
0.934447	2.96243
0.953494	2.98419
0.970159	3.00049
0.988013	3.0168
1.00706	3.02763
1.02373	3.0494
