Adsorption isotherm of Carbon Dioxide on Cellular Carbon Foam (5% Aluminum Nitrate)
DOI: 10.1039/c3ra46240d
Article source: Figure 4b
Adsorbate Carbon Dioxide: InChIKey CURLTUGMZLYLDI-UHFFFAOYSA-N
Kind: experiment
Temperature: 273 K
Tabular data in the source: 0
pressure (bar)	uptake (mmol/g)
0.002381	0.049168
0.019046	0.371487
0.035711	0.606374
0.052377	0.792081
0.069042	0.923144
0.086898	1.07606
0.103563	1.19073
0.120228	1.29447
0.135704	1.40368
0.153559	1.50195
0.169034	1.57837
0.185699	1.67664
0.207126	1.75304
0.224981	1.81305
0.244028	1.884
0.260693	1.94402
0.277359	2.00951
0.295214	2.06953
0.313069	2.12408
0.329734	2.17864
0.351162	2.23864
0.364255	2.29322
0.384492	2.33136
0.404728	2.38044
0.421393	2.41861
0.44044	2.47315
0.455915	2.48947
0.476152	2.53308
0.491626	2.57125
0.510673	2.61487
0.532099	2.65848
0.549955	2.68024
0.56662	2.72387
0.585666	2.75656
0.603522	2.78926
0.618997	2.8165
0.635662	2.84374
0.652328	2.87097
0.671373	2.90913
0.688038	2.92544
0.705894	2.95813
0.72494	2.97989
0.742796	3.00712
0.763032	3.03434
0.778508	3.06159
0.796363	3.07789
0.814218	3.10512
0.834455	3.13234
0.851121	3.16504
0.866595	3.19228
0.884451	3.20312
0.899926	3.24676
0.921352	3.2685
0.935638	3.29029
0.954683	3.30658
0.973729	3.32834
0.991585	3.35558
1.00825	3.37188
1.02968	3.38817
