Adsorption isotherm of Carbon Dioxide on Cellular Carbon Foam (4% Aluminum Nitrate)
DOI: 10.1039/c3ra46240d
Article source: Figure 4a
Adsorbate Carbon Dioxide: InChIKey CURLTUGMZLYLDI-UHFFFAOYSA-N
Kind: experiment
Temperature: 298 K
Tabular data in the source: 0
pressure (bar)	uptake (mmol/g)
0.001191	0.03252
0.033122	0.313008
0.068568	0.54065
0.099274	0.703252
0.126426	0.821138
0.158296	0.947154
0.193699	1.06504
0.224382	1.16667
0.257419	1.26423
0.290451	1.34959
0.323483	1.43089
0.356512	1.50813
0.38954	1.5813
0.422565	1.65041
0.455588	1.70732
0.487432	1.76829
0.520453	1.8252
0.553474	1.88211
0.58649	1.92276
0.617151	1.97154
0.651346	2.01626
0.684362	2.06098
0.71738	2.10569
0.748037	2.14634
0.781053	2.18699
0.815246	2.22764
0.845902	2.26423
0.878914	2.29675
0.914285	2.33333
0.946118	2.36585
0.979133	2.40244
1.00979	2.44309
