Adsorption isotherm of Carbon Dioxide on Cellular Carbon Foam (2% Aluminum Nitrate)
DOI: 10.1039/c3ra46240d
Article source: Figure 4a
Adsorbate Carbon Dioxide: InChIKey CURLTUGMZLYLDI-UHFFFAOYSA-N
Kind: experiment
Temperature: 298 K
Tabular data in the source: 0
pressure (bar)	uptake (mmol/g)
0.001191	0.03252
0.031937	0.296748
0.063833	0.487805
0.094536	0.642276
0.126414	0.788618
0.160645	0.926829
0.191334	1.04472
0.223192	1.14228
0.259769	1.24797
0.291625	1.3374
0.323476	1.41463
0.356505	1.49187
0.388347	1.54472
0.420191	1.60569
0.453217	1.6748
0.483882	1.73171
0.516903	1.78862
0.549925	1.84553
0.582943	1.89431
0.617139	1.93902
0.646623	1.99187
0.68082	2.04065
0.712659	2.08943
0.744495	2.12602
0.779869	2.1748
0.809343	2.19919
0.842359	2.2439
0.876555	2.28862
0.909567	2.32114
0.9414	2.35366
0.974411	2.38211
1.00742	2.4187
