Adsorption isotherm of Nitrogen on Cellular Carbon Foam (2% Aluminum Nitrate)
DOI: 10.1039/c3ra46240d
Article source: Figure 1d
Adsorbate Nitrogen: InChIKey IJGRMHOSHXDMSA-UHFFFAOYSA-N
Kind: experiment
Temperature: 77 K
Tabular data in the source: 0
pressure (bar)	uptake (cm3(STP)/g)
0.002471	0.002439
0.043248	126.831
0.054369	128.266
0.081554	129.308
0.090204	129.656
0.117389	130.698
0.138395	131.024
0.154459	132.086
0.177937	132.044
0.20265	132
0.205121	135.268
0.228599	132.681
0.253312	132.636
0.254549	135.18
0.280497	132.951
0.305211	134.361
0.324982	132.871
0.344752	135.018
0.345987	132.47
0.365759	134.98
0.384293	132.401
0.406536	134.907
0.423835	132.694
0.446077	134.836
0.465848	132.982
0.486854	135.126
0.505389	132.911
0.527632	134.326
0.567173	133.164
0.569644	134.251
0.60795	132.727
0.648727	133.018
0.689504	132.945
0.731517	132.506
0.771059	132.435
0.811836	132.725
0.852612	132.288
0.883504	132.596
0.892154	131.49
0.914396	132.541
0.92181	131.437
0.942817	131.399
0.96753	131.718
0.986066	131.322
0.995951	131.667
1.0046	133.106
1.01201	134.184
