Adsorption isotherm of Carbon Dioxide on Cellular Carbon Foam
DOI: 10.1039/c3ra46240d
Article source: Figure 4b
Adsorbate Carbon Dioxide: InChIKey CURLTUGMZLYLDI-UHFFFAOYSA-N
Kind: experiment
Temperature: 273 K
Tabular data in the source: 0
pressure (bar)	uptake (mmol/g)
0.002381	0.049168
0.019046	0.278591
0.038092	0.497073
0.052377	0.628147
0.070232	0.764667
0.084517	0.884813
0.104753	1.00493
0.120228	1.11414
0.141655	1.21785
0.15832	1.3052
0.170225	1.37071
0.19046	1.45804
0.205935	1.51807
0.227363	1.59993
0.242837	1.64903
0.263073	1.72543
0.279738	1.76906
0.295214	1.82362
0.31545	1.8727
0.332115	1.91633
0.348781	1.9545
0.366637	2.00359
0.384492	2.04721
0.402348	2.07991
0.420204	2.11807
0.438059	2.15623
0.454724	2.17253
0.471389	2.2107
0.491626	2.24885
0.510673	2.28154
0.527338	2.30331
0.544003	2.33601
0.564239	2.36869
0.580904	2.39047
0.59876	2.4177
0.615425	2.4504
0.634472	2.47216
0.651137	2.49393
0.670184	2.51569
0.686849	2.53746
0.704703	2.55923
0.72494	2.58645
0.740415	2.5973
0.758271	2.6136
0.777317	2.64083
0.792792	2.65714
0.811839	2.6789
0.829693	2.70067
0.847549	2.7115
0.864214	2.73328
0.88207	2.76051
0.898735	2.77135
0.917782	2.78218
0.936828	2.80394
0.953494	2.81479
0.970159	2.8311
0.990395	2.84738
1.00706	2.85823
1.02373	2.87454
