Adsorption isotherm of Nitrogen on Cellular Carbon Foam (1% Aluminum Nitrate)
DOI: 10.1039/c3ra46240d
Article source: Figure 1d
Adsorbate Nitrogen: InChIKey IJGRMHOSHXDMSA-UHFFFAOYSA-N
Kind: experiment
Temperature: 77 K
Tabular data in the source: 0
pressure (bar)	uptake (cm3(STP)/g)
0.002471	86.541
0.035834	103.208
0.04572	104.645
0.053134	104.632
0.084026	106.395
0.088968	106.749
0.117389	107.426
0.13716	107.39
0.153224	109.543
0.158166	107.716
0.177937	108.408
0.201414	109.093
0.205121	110.177
0.229834	108.678
0.255784	109.359
0.279262	108.59
0.302739	109.275
0.326217	109.596
0.343516	108.838
0.364523	110.255
0.385529	108.763
0.406536	110.18
0.444841	109.384
0.484383	109.313
0.526396	108.874
0.568409	109.162
0.609186	109.089
0.648727	109.018
0.689504	108.945
0.72781	108.876
0.771059	108.798
0.8106	108.364
0.851377	108.29
0.888447	107.86
0.90204	108.2
0.920575	107.075
0.929224	108.514
0.944052	107.033
0.955174	108.104
0.963824	106.634
0.982358	108.783
0.983594	106.962
1.00337	107.29
1.00831	109.1
