Adsorption isotherm of Carbon Dioxide on Cellular Carbon Foam (3% Aluminum Nitrate)
DOI: 10.1039/c3ra46240d
Article source: Figure 4a
Adsorbate Carbon Dioxide: InChIKey CURLTUGMZLYLDI-UHFFFAOYSA-N
Kind: experiment
Temperature: 298 K
Tabular data in the source: 0
pressure (bar)	uptake (mmol/g)
0.001191	0.03252
0.034293	0.292683
0.06738	0.51626
0.100446	0.686992
0.128776	0.800813
0.159468	0.930894
0.194871	1.04878
0.226731	1.14634
0.259769	1.24797
0.291625	1.3374
0.323476	1.41463
0.356505	1.49187
0.390711	1.56098
0.42256	1.63415
0.454404	1.69512
0.487425	1.75203
0.520453	1.8252
0.552292	1.86992
0.58649	1.92276
0.618332	1.97561
0.650169	2.02033
0.684362	2.06098
0.71738	2.10569
0.748037	2.14634
0.781053	2.18699
0.815246	2.22764
0.84945	2.29268
0.882465	2.33333
0.917837	2.37398
0.947318	2.4187
0.979154	2.45935
1.01217	2.49593
