Adsorption isotherm of Carbon Dioxide on Cellular Carbon Foam (5% Aluminum Nitrate)
DOI: 10.1039/c3ra46240d
Article source: Figure 4a
Adsorbate Carbon Dioxide: InChIKey CURLTUGMZLYLDI-UHFFFAOYSA-N
Kind: experiment
Temperature: 298 K
Tabular data in the source: 0
pressure (bar)	uptake (mmol/g)
0.001191	0.03252
0.033117	0.300813
0.066198	0.50813
0.099269	0.691057
0.126415	0.792683
0.162996	0.910569
0.193683	1.02439
0.229081	1.13008
0.260941	1.23171
0.291615	1.31301
0.327004	1.39431
0.355324	1.48374
0.390707	1.55285
0.423734	1.62602
0.456758	1.68699
0.489781	1.74797
0.519264	1.79675
0.552288	1.86179
0.586486	1.91463
0.617151	1.97154
0.651349	2.02439
0.685545	2.06911
0.716208	2.12195
0.749226	2.17073
0.78342	2.21138
0.816436	2.2561
0.849451	2.29675
0.881288	2.3374
0.913126	2.38211
0.947319	2.42276
0.980333	2.45935
1.01099	2.49593
