Adsorption isotherm of Carbon Dioxide on Cellular Carbon Foam (4% Aluminum Nitrate)
DOI: 10.1039/c3ra46240d
Article source: Figure 4b
Adsorbate Carbon Dioxide: InChIKey CURLTUGMZLYLDI-UHFFFAOYSA-N
Kind: experiment
Temperature: 273 K
Tabular data in the source: 0
pressure (bar)	uptake (mmol/g)
0.002381	0.049168
0.016665	0.387893
0.033331	0.639173
0.051186	0.835803
0.066661	0.994194
0.086898	1.14163
0.102373	1.25631
0.120228	1.37097
0.138083	1.4747
0.154749	1.56751
0.172604	1.65485
0.18927	1.7422
0.208316	1.81314
0.227363	1.88408
0.245218	1.96049
0.263073	2.02051
0.280929	2.07506
0.297594	2.14055
0.316641	2.1951
0.334496	2.24965
0.349971	2.29329
0.369018	2.34784
0.386874	2.386
0.402348	2.42963
0.422584	2.47324
0.439249	2.52234
0.457105	2.55504
0.477342	2.60958
0.494007	2.63681
0.510673	2.66951
0.529718	2.69674
0.547574	2.7349
0.564239	2.76214
0.580904	2.78937
0.599951	2.82753
0.615425	2.85477
0.634472	2.89292
0.651137	2.90377
0.666612	2.93648
0.688038	2.97462
0.707085	3.00731
0.722559	3.02362
0.740415	3.03992
0.759462	3.07261
0.774936	3.09985
0.793983	3.11069
0.811839	3.14338
0.830884	3.16514
0.845169	3.17053
0.864214	3.20869
0.88207	3.21952
0.901117	3.24675
0.917782	3.26852
0.936828	3.29575
0.954683	3.31205
0.973729	3.34474
0.988013	3.35559
1.00944	3.36641
1.02849	3.38817
