Adsorption isotherm of Carbon Dioxide on Cellular Carbon Foam (cycle 3)
DOI: 10.1039/c3ra46240d
Article source: Figure 5c
Adsorbate Carbon Dioxide: InChIKey CURLTUGMZLYLDI-UHFFFAOYSA-N
Kind: experiment
Temperature: 298 K
Tabular data in the source: 0
pressure (bar)	uptake (mmol/g)
0.036944	0.336183
0.064892	0.513543
0.105477	0.705723
0.127024	0.794432
0.159966	0.916419
0.192888	1.01994
0.227058	1.1087
0.259961	1.19376
0.292858	1.27143
0.32448	1.33803
0.354815	1.37876
0.388955	1.43798
0.423099	1.50089
0.454706	1.55271
0.488839	1.60454
0.521717	1.66375
0.554583	1.71188
0.583663	1.76
0.62157	1.80076
0.655695	1.84151
0.686024	1.88225
0.71888	1.9193
0.751735	1.95266
0.784591	1.98972
0.816177	2.02307
0.850289	2.05275
0.881882	2.0898
0.914731	2.11946
0.946311	2.14544
0.977897	2.1751
1.01201	2.20477
1.04358	2.22705
1.0777	2.26042
1.10927	2.279
1.14085	2.30128
