Adsorption isotherm of Nitrogen on Cellular Carbon Foam
DOI: 10.1039/c3ra46240d
Article source: Figure 1d
Adsorbate Nitrogen: InChIKey IJGRMHOSHXDMSA-UHFFFAOYSA-N
Kind: experiment
Temperature: 77 K
Tabular data in the source: 0
pressure (bar)	uptake (cm3(STP)/g)
0	37.0909
0.001236	18.5432
0.017299	99.969
0.060548	105.71
0.076612	106.772
0.092675	107.106
0.112446	107.798
0.13716	108.118
0.153224	111.725
0.155695	108.084
0.179172	108.042
0.203886	111.271
0.229834	109.406
0.254549	108.998
0.279262	108.953
0.284204	111.49
0.302739	108.911
0.324982	108.871
0.326217	111.415
0.345987	109.561
0.366994	111.705
0.385529	109.126
0.407771	111.268
0.444841	109.02
0.446077	111.2
0.485618	108.947
0.48809	111.124
0.526396	108.51
0.527632	111.053
0.567173	109.164
0.569644	110.978
0.609186	107.998
0.648727	108.29
0.649962	110.834
0.689504	108.217
0.69074	110.761
0.730282	107.78
0.769823	107.71
0.772294	110.251
0.8106	106.909
0.811836	109.816
0.851377	107.563
0.853849	110.104
0.892154	106.763
0.89339	109.306
0.911925	109.636
0.944052	108.851
0.968766	108.08
0.987301	107.683
0.998422	108.39
1.00213	109.838
1.00707	110.92
1.00954	112.734
