Adsorption isotherm of Carbon Dioxide on Cellular Carbon Foam
DOI: 10.1039/c3ra46240d
Article source: Figure 4a
Adsorbate Carbon Dioxide: InChIKey CURLTUGMZLYLDI-UHFFFAOYSA-N
Kind: experiment
Temperature: 298 K
Tabular data in the source: 0
pressure (bar)	uptake (mmol/g)
0.001191	0.03252
0.035446	0.227642
0.067336	0.406504
0.095676	0.544715
0.128731	0.686992
0.161777	0.808943
0.192463	0.918699
0.225501	1.02033
0.262073	1.11382
0.295108	1.20325
0.325779	1.27642
0.358808	1.35366
0.390656	1.42276
0.424857	1.48374
0.457878	1.54065
0.488545	1.60163
0.522745	1.65854
0.555764	1.70732
0.588781	1.7561
0.620621	1.80488
0.652461	1.85366
0.686657	1.89837
0.718493	1.93902
0.752686	1.97967
0.784523	2.02033
0.817537	2.05691
0.84937	2.08943
0.883561	2.12195
0.910678	2.15041
0.947227	2.18699
0.976702	2.21545
1.01325	2.24797
