Adsorption isotherm of Nitrogen on Cellular Carbon Foam (5% Aluminum Nitrate)
DOI: 10.1039/c3ra46240d
Article source: Figure 1d
Adsorbate Nitrogen: InChIKey IJGRMHOSHXDMSA-UHFFFAOYSA-N
Kind: experiment
Temperature: 77 K
Tabular data in the source: 0
pressure (bar)	uptake (cm3(STP)/g)
0	72.7295
0	93.0909
0.00865	162.894
0.053134	179.177
0.08279	180.942
0.093911	182.013
0.118624	183.06
0.140866	183.747
0.154459	184.814
0.179172	184.406
0.201414	185.457
0.228599	185.408
0.254549	186.089
0.280497	185.678
0.303975	186.364
0.326217	186.324
0.347224	187.013
0.386765	186.942
0.427542	187.233
0.468319	187.16
0.507861	187.089
0.547402	187.381
0.572115	187.337
0.588179	186.581
0.610421	187.268
0.628957	186.508
0.649962	187.197
0.669734	186.435
0.691976	187.122
0.710511	186.725
0.733988	187.047
0.771059	186.253
0.811836	186.18
0.852612	186.106
0.887212	186.408
0.89339	186.033
0.905746	186.375
0.923046	185.98
0.944052	185.942
0.963824	185.543
0.986066	185.867
1.00584	187.65
1.00831	189.463
