Adsorption isotherm of Nitrogen on Cellular Carbon Foam (3% Aluminum Nitrate)
DOI: 10.1039/c3ra46240d
Article source: Figure 1d
Adsorbate Nitrogen: InChIKey IJGRMHOSHXDMSA-UHFFFAOYSA-N
Kind: experiment
Temperature: 77 K
Tabular data in the source: 0
pressure (bar)	uptake (cm3(STP)/g)
0.002471	62.1774
0.003707	42.9024
0.007414	126.532
0.046956	143.188
0.079083	145.676
0.096382	146.736
0.114918	147.43
0.138395	147.752
0.153224	150.271
0.15693	147.355
0.180408	148.404
0.20265	148.727
0.203886	150.907
0.231071	149.04
0.253312	149.364
0.254549	151.18
0.280497	148.951
0.303975	149.273
0.306446	151.086
0.324982	149.235
0.345987	149.561
0.347224	151.013
0.384293	150.583
0.407771	151.268
0.425071	149.419
0.448549	151.195
0.467084	149.344
0.486854	150.763
0.506625	148.909
0.527632	150.69
0.547402	148.836
0.568409	150.98
0.588179	149.126
0.609186	150.18
0.648727	150.109
0.689504	150.035
0.730282	149.962
0.769823	149.164
0.811836	149.089
0.851377	149.018
0.884741	149.685
0.892154	148.581
0.914396	149.268
0.924282	148.887
0.934167	149.233
0.945288	148.849
0.963824	149.18
0.983594	149.144
1.0046	148.743
1.00831	150.191
