Adsorption isotherm of Carbon Dioxide on Cellular Carbon Foam (1% Aluminum Nitrate)
DOI: 10.1039/c3ra46240d
Article source: Figure 4a
Adsorbate Carbon Dioxide: InChIKey CURLTUGMZLYLDI-UHFFFAOYSA-N
Kind: experiment
Temperature: 298 K
Tabular data in the source: 0
pressure (bar)	uptake (mmol/g)
0.001191	0.03252
0.034267	0.227642
0.064981	0.410569
0.094497	0.544715
0.128731	0.686992
0.161775	0.800813
0.194817	0.910569
0.227855	1.00813
0.260891	1.10163
0.292743	1.18293
0.328133	1.26829
0.359982	1.34146
0.391828	1.4065
0.423674	1.47154
0.456696	1.52846
0.483822	1.57724
0.521558	1.63821
0.549861	1.68293
0.587598	1.7439
0.617076	1.78049
0.653633	1.8374
0.681932	1.87398
0.718485	1.9187
0.747962	1.95528
0.783334	1.99593
0.813992	2.03252
0.849361	2.06504
0.87766	2.10163
0.910672	2.13415
0.948402	2.17886
0.977877	2.20732
1.01325	2.23984
