Adsorption isotherm of Carbon Dioxide on Cellular Carbon Foam (3% Aluminum Nitrate)
DOI: 10.1039/c3ra46240d
Article source: Figure 4b
Adsorbate Carbon Dioxide: InChIKey CURLTUGMZLYLDI-UHFFFAOYSA-N
Kind: experiment
Temperature: 273 K
Tabular data in the source: 0
pressure (bar)	uptake (mmol/g)
0.002381	0.049168
0.019046	0.393345
0.039283	0.682859
0.052377	0.808475
0.067852	0.934079
0.085707	1.0706
0.102373	1.21805
0.117848	1.34366
0.134513	1.44193
0.155939	1.52926
0.172604	1.633
0.19046	1.70394
0.208316	1.78582
0.224981	1.87316
0.244028	1.93864
0.261884	2.00959
0.279738	2.06414
0.296404	2.12416
0.314259	2.17872
0.330925	2.22235
0.34759	2.27691
0.366637	2.33692
0.385683	2.386
0.401158	2.42964
0.420204	2.46779
0.439249	2.51688
0.457105	2.5605
0.47377	2.5932
0.492817	2.63682
0.509482	2.68045
0.524957	2.71316
0.544003	2.74585
0.559478	2.77855
0.578524	2.81671
0.59757	2.83847
0.614235	2.87117
0.633281	2.90386
0.651137	2.93109
0.665421	2.95834
0.684468	2.98556
0.704703	3.01278
0.721369	3.04002
0.739225	3.06179
0.75708	3.08902
0.776127	3.11078
0.791602	3.13256
0.810648	3.14885
0.827313	3.18702
0.845169	3.19786
0.861834	3.23056
0.879689	3.24686
0.897545	3.27409
0.916591	3.28492
0.935638	3.30122
0.953494	3.32298
0.970159	3.33383
0.989204	3.36105
1.00349	3.38284
1.02253	3.39367
