Adsorption isotherm of Carbon Dioxide on Cellular Carbon Foam (cycle 1)
DOI: 10.1039/c3ra46240d
Article source: Figure 5c
Adsorbate Carbon Dioxide: InChIKey CURLTUGMZLYLDI-UHFFFAOYSA-N
Kind: experiment
Temperature: 298 K
Tabular data in the source: 0
pressure (bar)	uptake (mmol/g)
0.036918	0.310334
0.066132	0.491391
0.105448	0.67618
0.128254	0.761201
0.159902	0.853642
0.195353	0.960868
0.225739	1.0533
0.261156	1.1273
0.292791	1.20496
0.325676	1.27156
0.354792	1.35661
0.391468	1.42691
0.423091	1.4935
0.454706	1.55271
0.488839	1.60454
0.521717	1.66375
0.554583	1.71188
0.583663	1.76
0.62157	1.80076
0.654445	1.85628
0.683517	1.89701
0.718905	1.94146
0.750498	1.97851
0.783353	2.01926
0.817472	2.05631
0.849065	2.08967
0.880657	2.12672
0.90971	2.15268
0.943823	2.18235
0.975409	2.21202
1.01078	2.24169
1.03857	2.26765
1.07648	2.30472
1.10554	2.32699
1.14342	2.35299
