Adsorption isotherm of Nitrogen on Ti-POM/MIL-101
DOI: 10.1016/j.jcat.2008.05.014
Adsorbate Nitrogen: InChIKey IJGRMHOSHXDMSA-UHFFFAOYSA-N
Temperature: 77 K
Tabular data in the source: 0
pressure (bar)	uptake (cm3(STP)/g)
0.00596025	0.00613497
0.0208609	315.412
0.0268211	345.436
0.047682	397.938
0.0596025	427.939
0.0774832	454.161
0.0983441	484.127
0.146026	540.281
0.196688	592.667
0.223509	611.342
0.262251	614.949
0.292052	618.589
0.318873	622.241
0.366555	625.813
0.387416	625.732
0.438078	629.292
0.48576	629.108
0.536422	632.668
0.584104	636.24
0.634766	636.044
0.667548	639.673
0.721189	635.71
0.768872	639.281
0.810594	642.876
0.840395	642.76
0.867216	646.413
0.885096	646.344
0.908938	646.251
0.929798	653.682
0.95066	661.114
0.95662	672.358
