Adsorption isotherm of Nitrogen on MIL-101
DOI: 10.1016/j.jcat.2008.05.014
Adsorbate Nitrogen: InChIKey IJGRMHOSHXDMSA-UHFFFAOYSA-N
Temperature: 77 K
Tabular data in the source: 0
pressure (bar)	uptake (cm3(STP)/g)
0.00298012	345.528
0.0149006	375.529
0.0268211	413.042
0.0447019	446.776
0.0596025	480.521
0.0715229	503.01
0.0923838	540.488
0.146026	622.91
0.202648	682.785
0.211588	716.553
0.274172	723.823
0.283112	727.544
0.300992	727.475
0.324834	727.383
0.342714	731.069
0.363575	734.745
0.387416	730.897
0.411257	734.56
0.435098	738.224
0.4649	738.109
0.48278	741.796
0.533442	741.6
0.584104	745.16
0.628806	744.987
0.71821	748.397
0.786752	755.644
0.834435	755.46
0.870196	759.077
0.888076	759.008
0.899997	762.718
0.926818	762.614
0.95066	773.79
0.95662	781.278
0.96854	815.035
