Adsorption isotherm of Nitrogen on Co-POM/MIL-101
DOI: 10.1016/j.jcat.2008.05.014
Adsorbate Nitrogen: InChIKey IJGRMHOSHXDMSA-UHFFFAOYSA-N
Temperature: 77 K
Tabular data in the source: 0
pressure (bar)	uptake (cm3(STP)/g)
0.00306748	0.00306748
0.00613497	217.817
0.0153374	319.191
0.0276074	360.46
0.0306748	379.228
0.0368098	401.74
0.0460123	420.484
0.0613497	450.474
0.0766871	480.463
0.0981595	514.185
0.147239	574.095
0.202454	633.981
0.233129	660.157
0.269939	660.019
0.294479	663.683
0.309816	663.625
0.331288	671.056
0.352761	670.976
0.377301	670.883
0.40184	670.791
0.42638	674.455
0.453988	674.351
0.478528	674.259
0.5	674.178
0.552147	677.738
0.601227	681.31
0.653374	684.87
0.684049	684.755
0.745399	692.036
0.794479	688.096
0.806748	691.806
0.831288	691.713
0.865031	691.587
0.868098	695.331
0.895706	691.472
0.923313	691.368
0.947853	695.032
0.95092	698.776
0.97546	709.951
0.990798	724.917
0.996933	747.429
