Adsorption isotherm of Arsenate, Water on Iron-Zirconium Binary Oxide-Coated Sand (IZBOCS)
DOI: 10.1016/j.molliq.2016.12.048
Article source: Figure 5
Adsorbate Arsenate: InChIKey HAYXDMNJJFVXCI-UHFFFAOYSA-N
Adsorbate Water: InChIKey XLYOFNOQVPJJNP-UHFFFAOYSA-N
Kind: experiment
Temperature: 308 K
Tabular data in the source: 0
pressure (bar)	Arsenate fraction	Arsenate uptake (mg/g)	Water fraction	Water uptake (mg/g)	total uptake (mg/g)
1.01325	1.68	1.57939			
1.01325	5.53	3.29834			
1.01325	13.14	6.73639			
1.01325	39.82	13.2747			
1.01325	99.44	25.1677			
1.01325	239.18	47.9117			
