Adsorption isotherm of Arsenate, Water on Iron-Zirconium Binary Oxide-Coated Sand (IZBOCS)
DOI: 10.1016/j.molliq.2016.12.048
Article source: Figure 5
Adsorbate Arsenate: InChIKey HAYXDMNJJFVXCI-UHFFFAOYSA-N
Adsorbate Water: InChIKey XLYOFNOQVPJJNP-UHFFFAOYSA-N
Kind: experiment
Temperature: 300 K
Tabular data in the source: 0
pressure (bar)	Arsenate fraction	Arsenate uptake (mg/g)	Water fraction	Water uptake (mg/g)	total uptake (mg/g)
1.01325	1.52	1.35111			
1.01325	6.33	3.0531			
1.01325	17.23	6.40568			
1.01325	49.12	12.2628			
1.01325	135.18	22.6702			
1.01325	398.72	37.5082			
