Adsorption isotherm of Arsenate, Water on Iron-Zirconium Binary Oxide-Coated Sand (IZBOCS)
DOI: 10.1016/j.molliq.2016.12.048
Article source: Figure 5
Adsorbate Arsenate: InChIKey HAYXDMNJJFVXCI-UHFFFAOYSA-N
Adsorbate Water: InChIKey XLYOFNOQVPJJNP-UHFFFAOYSA-N
Kind: experiment
Temperature: 318 K
Tabular data in the source: 0
pressure (bar)	Arsenate fraction	Arsenate uptake (mg/g)	Water fraction	Water uptake (mg/g)	total uptake (mg/g)
1.01325	0.16	0.778589			
1.01325	1.52	2.75512			
1.01325	5.61	6.94651			
1.01325	19.79	14.0744			
1.01325	59.7	27.2827			
1.01325	159.29	52.4256			
