Adsorption isotherm of Nitrogen on [Cu3L3(hmt)]n
DOI: 10.1002/anie.200905497
Adsorbate Nitrogen: InChIKey IJGRMHOSHXDMSA-UHFFFAOYSA-N
Temperature: 77 K
Tabular data in the source: 0
pressure (bar)	uptake (cm3(STP)/g)
0.0127495	6.49213
0.0761108	15.2316
0.1788	22.2232
0.296783	30.5257
0.399472	39.7022
0.508716	86.0215
0.659472	101.753
0.714094	109.618
0.803674	121.416
0.906363	134.526
