Adsorption isotherm of Argon on [Cu3L3(hmt)]n
DOI: 10.1002/anie.200905497
Adsorbate Argon: InChIKey XKRFYHLGVUSROY-UHFFFAOYSA-N
Temperature: 87 K
Tabular data in the source: 0
pressure (bar)	uptake (cm3(STP)/g)
0.00619484	4.30725
0.0171192	40.5762
0.0455226	58.4921
0.0695562	86.4585
0.104514	104.374
0.163506	123.164
0.194094	131.03
0.364514	152.879
0.626699	172.98
0.862665	186.963
