Adsorption isotherm of Nitrogen on [Cd4Cl(Ni-L)3(Ni-HL)(H2O)6(DMF)]*4DMF
DOI: 10.1039/C3dt50664a
Adsorbate Nitrogen: InChIKey IJGRMHOSHXDMSA-UHFFFAOYSA-N
Temperature: 77 K
Tabular data in the source: 0
pressure (bar)	uptake (cm3(STP)/g)
0.00837971	4.77547
0.00837971	21.599
0.0149343	44.7587
0.0193041	58.9603
0.021489	72.7251
0.0455226	75.7839
0.102329	79.0612
0.176615	80.8091
0.294598	81.9015
0.552413	82.557
0.768716	82.557
0.995943	83.2124
