Adsorption isotherm of Carbon Dioxide on [Cd4Cl(Ni-L)3(Ni-HL)(H2O)6(DMF)]*4DMF
DOI: 10.1039/C3dt50664a
Adsorbate Carbon Dioxide: InChIKey CURLTUGMZLYLDI-UHFFFAOYSA-N
Temperature: 273 K
Tabular data in the source: 0
pressure (bar)	uptake (cm3(STP)/g)
0.0129184	1.55905
0.0284152	7.55653
0.0461257	15.5204
0.0726916	19.6498
0.0992575	23.6809
0.145748	25.8439
0.18781	28.3019
0.229873	29.2851
0.313998	31.3498
0.398124	33.0212
0.49996	34.791
0.599582	35.8725
0.736839	36.8557
0.964863	38.3305
1.01135	38.5271
