Adsorption isotherm of Hydrogen on Al-TCBPB
DOI: 10.1016/j.ijhydene.2011.12.072
Adsorbate Hydrogen: InChIKey UFHFLCQGNIYNRP-UHFFFAOYSA-N
Temperature: 77 K
Tabular data in the source: 0
pressure (bar)	uptake (wt%)
0.00217669	0.0045621
0.106658	0.369829
0.198079	0.57058
0.30256	0.748417
0.404865	0.885122
0.504992	1.01726
0.60512	1.13569
0.711778	1.23123
0.809729	1.33596
0.914211	1.43608
0.999102	1.518
