Adsorption isotherm of Hydrogen on Al-TCBPB
DOI: 10.1016/j.ijhydene.2011.12.072
Adsorbate Hydrogen: InChIKey UFHFLCQGNIYNRP-UHFFFAOYSA-N
Temperature: 77 K
Tabular data in the source: 0
pressure (bar)	uptake (wt%)
5.53191	2.8688
7.23404	3.06122
8.51064	3.23615
10.4255	3.44606
11.9149	3.56851
14.2553	3.72595
16.5957	3.8484
19.1489	3.95335
21.0638	4.0758
24.6809	4.19825
28.2979	4.28571
31.2766	4.35569
35.1064	4.42566
38.2979	4.47813
41.2766	4.51312
44.0426	4.5481
47.234	4.60058
51.2766	4.61808
54.4681	4.63557
58.5106	4.65306
62.5532	4.68805
66.8085	4.68805
69.5745	4.70554
73.8298	4.70554
75.5319	4.72303
77.6596	4.72303
79.7872	4.72303
81.9149	4.72303
84.0426	4.72303
86.1702	4.72303
88.2979	4.72303
90.4255	4.72303
92.5532	4.72303
94.6809	4.72303
