Adsorption isotherm of Nitrogen on Al-TCBPB
DOI: 10.1016/j.ijhydene.2011.12.072
Adsorbate Nitrogen: InChIKey IJGRMHOSHXDMSA-UHFFFAOYSA-N
Temperature: 77 K
Tabular data in the source: 0
pressure (bar)	uptake (mmol/g)
0	0
0.00214938	12.8947
0.0107469	15.7193
0.017195	16.8246
0.0257926	18.0526
0.0365395	19.1579
0.0515851	20.2632
0.0644814	21.2456
0.0730789	22.3509
0.0816765	23.5789
0.090274	24.5614
0.113917	25.2982
0.133262	25.7895
0.154755	26.1579
0.1741	26.5263
0.195594	26.7719
0.221386	26.8947
0.253627	27.1404
0.305212	27.386
0.343901	27.2632
0.376142	27.5088
0.41698	27.7544
0.447071	27.8772
0.475013	27.8772
0.494358	28.3684
0.515851	28.3684
0.537345	28.4912
0.558839	28.614
0.580333	28.614
0.599677	28.7368
0.621171	28.8596
0.642665	28.8596
0.664159	28.8596
0.685652	28.9825
0.707146	28.9825
0.72864	29.1053
0.756582	28.8596
0.795271	29.2281
0.840408	29.4737
0.883395	29.7193
0.911337	30.2105
0.930682	30.5789
0.950026	31.193
0.962922	32.1754
