Adsorption isotherm of Hydrogen on Al-TCBPB
DOI: 10.1016/j.ijhydene.2011.12.072
Adsorbate Hydrogen: InChIKey UFHFLCQGNIYNRP-UHFFFAOYSA-N
Temperature: 77 K
Tabular data in the source: 0
pressure (bar)	uptake (wt%)
5.10638	2.83382
9.3617	3.41108
12.9787	3.65598
22.1277	4.04082
25.3191	4.14577
31.9149	4.26822
42.5532	4.5481
47.0213	4.65306
51.9149	4.77551
61.4894	4.82799
70.8511	4.72303
72.3404	4.68805
94.6809	4.60058
