Adsorption isotherm of Hydrogen on Al-TCBPB
DOI: 10.1016/j.ijhydene.2011.12.072
Adsorbate Hydrogen: InChIKey UFHFLCQGNIYNRP-UHFFFAOYSA-N
Temperature: 88 K
Tabular data in the source: 0
pressure (bar)	uptake (wt%)
0.00217669	0.0045621
0.115365	0.168648
0.202432	0.27799
0.306914	0.36897
0.407041	0.450827
0.509346	0.523531
0.61165	0.596236
0.707425	0.659825
0.811906	0.718806
0.909857	0.777815
1.00563	0.823118
