Adsorption isotherm of Hydrogen on Al-TCBPB
DOI: 10.1016/j.ijhydene.2011.12.072
Adsorbate Hydrogen: InChIKey UFHFLCQGNIYNRP-UHFFFAOYSA-N
Temperature: 298 K
Tabular data in the source: 0
pressure (bar)	uptake (wt%)
9.57447	0.0349854
20.8511	0.157434
24.2553	0.157434
35.3191	0.314869
39.1489	0.279883
51.4894	0.577259
61.2766	0.559767
66.1702	0.83965
74.8936	0.874636
87.6596	1.207
89.7872	1.39942
