Adsorption isotherm of Hydrogen on Al-TCBPB
DOI: 10.1016/j.ijhydene.2011.12.072
Adsorbate Hydrogen: InChIKey UFHFLCQGNIYNRP-UHFFFAOYSA-N
Temperature: 298 K
Tabular data in the source: 0
pressure (bar)	uptake (wt%)
10.2128	0.0174927
14.4681	0.0524781
17.6596	0.0524781
21.4894	0.104956
25.9574	0.157434
29.5745	0.209913
33.1915	0.279883
36.5957	0.297376
39.7872	0.367347
41.9149	0.402332
45.3191	0.472303
48.5106	0.507289
50.8511	0.559767
52.9787	0.594752
55.9574	0.64723
58.5106	0.682216
61.9149	0.752187
64.8936	0.804665
67.6596	0.874636
70.6383	0.927114
74.0426	0.997085
77.6596	1.04956
80.4255	1.10204
83.4043	1.15452
86.5957	1.22449
89.5745	1.25948
