Adsorption isotherm of Nitrogen on TbL
DOI: 10.1039/c5ta00720h
Article source: Figure 7
Adsorbate Nitrogen: InChIKey IJGRMHOSHXDMSA-UHFFFAOYSA-N
Kind: experiment
Temperature: 77 K
Tabular data in the source: 0
pressure (bar)	uptake (cm3(STP)/g)
0.001064	19.42
0.004955	34.802
0.010325	50.183
0.014479	72.343
0.023335	93.571
0.032333	109.177
0.050186	130.034
0.069256	142.958
0.088599	150.073
0.099785	194.705
0.11009	158.343
0.119827	196.48
0.131307	164.006
0.138582	198.137
0.152454	168.107
0.156922	199.38
0.172921	172.483
0.175475	200.387
0.193804	201.808
0.194027	200.983
0.213846	202.696
0.21492	178.458
0.229835	203.348
0.234963	180.588
0.244973	203.941
0.254579	183.014
0.264803	204.888
0.27377	185.262
0.284206	205.422
0.294238	187.333
0.302546	205.956
0.313854	188.576
0.32195	206.372
0.333896	189.879
0.339216	206.787
0.356066	191.241
0.358194	207.321
0.373119	192.602
0.378023	207.973
0.394691	208.145
0.394864	208.448
0.413842	209.1
0.414429	207.956
0.431746	209.338
0.435383	196.286
0.449022	209.694
0.455395	197.33
0.469064	209.519
0.476217	198.077
0.48633	209.461
0.496634	199.159
0.506584	209.995
0.516383	199.943
0.523435	210.115
0.537063	201.025
0.542616	210.53
0.557075	201.473
0.559892	210.828
0.577492	202.667
0.578231	210.888
0.59724	203.265
0.599125	211.304
0.617242	211.188
0.617515	210.931
0.633666	211.78
0.637932	204.46
0.652847	211.841
0.65768	205.468
0.672464	211.843
0.678492	205.954
0.690378	212.258
0.698109	206.589
0.709782	212.438
0.718789	206.851
0.726409	212.616
0.740047	208.003
0.742824	212.677
0.760019	208.38
0.761802	212.679
0.780324	212.522
0.780993	212.976
0.799545	213.274
0.800123	212.944
0.817875	213.216
0.818736	209.887
0.836215	213.159
0.840562	210.077
0.854768	213.456
0.859854	210.407
0.873948	213.931
0.879825	210.831
0.891863	213.814
0.901661	211.678
0.911692	213.993
0.921713	212.339
0.933011	214.468
0.942606	214.437
0.943245	214.528
0.961372	213.761
0.968829	214.885
0.979276	214.946
0.984828	214.237
1.00209	215.361
