Adsorption isotherm of Hydrogen on TbL
DOI: 10.1039/c5ta00720h
Article source: Figure 7
Adsorbate Hydrogen: InChIKey UFHFLCQGNIYNRP-UHFFFAOYSA-N
Kind: experiment
Temperature: 87 K
Tabular data in the source: 0
pressure (bar)	uptake (cm3(STP)/g)
0.010546	6.813
0.037784	13.773
0.059435	17.825
0.088326	21.724
0.115884	24.578
0.142708	27.114
0.169666	29.446
0.196491	31.574
0.222275	33.511
0.249539	35.269
0.276657	36.837
0.302735	38.353
0.331333	39.755
0.356384	41.131
0.383355	42.558
0.410166	43.794
0.438324	45.018
0.464108	46.267
0.491226	47.299
0.518197	48.446
0.543835	49.414
0.56962	50.37
0.597764	51.211
0.623415	52.065
0.651266	52.995
0.677344	53.849
0.703729	54.792
0.73114	55.544
0.757804	56.385
0.785362	57.023
0.81012	57.851
0.837824	58.667
0.865382	59.24
0.890873	59.839
0.919178	60.553
0.945109	61.177
0.9706	61.738
0.996691	62.312
1.02557	62.911
1.05195	63.395
1.07774	63.956
