Adsorption isotherm of Carbon Dioxide on TbL
DOI: 10.1039/c5ta00720h
Article source: Figure 8
Adsorbate Carbon Dioxide: InChIKey CURLTUGMZLYLDI-UHFFFAOYSA-N
Kind: experiment
Temperature: 293 K
Tabular data in the source: 0
pressure (bar)	uptake (cm3(STP)/g)
0.011479	2.336
0.041263	6.3944
0.064715	8.9839
0.092952	11.4647
0.11891	13.5212
0.145308	15.4035
0.171493	17.0465
0.199504	18.559
0.226355	19.93
0.252539	21.1813
0.279404	22.3783
0.303308	23.4337
0.331759	24.4348
0.359304	25.5121
0.386622	26.4479
0.412353	27.3075
0.439671	28.1019
0.466535	28.9289
0.492479	29.7667
0.518664	30.4632
0.546208	31.1161
0.572833	31.769
0.599017	32.4002
0.627242	33.0748
0.653653	33.6625
0.679144	34.174
0.706915	34.729
0.733326	35.3275
0.759271	35.8281
0.785682	36.2199
0.81368	36.7966
0.840997	37.2646
0.865809	37.6999
0.894033	38.1678
0.919538	38.5705
0.945482	38.9623
0.97508	39.5064
0.998971	39.8764
1.02516	40.1921
1.05406	40.5839
1.07751	40.8451
