Adsorption isotherm of Hydrogen on TbL
DOI: 10.1039/c5ta00720h
Article source: Figure 7
Adsorbate Hydrogen: InChIKey UFHFLCQGNIYNRP-UHFFFAOYSA-N
Kind: experiment
Temperature: 77 K
Tabular data in the source: 0
pressure (bar)	uptake (cm3(STP)/g)
0.012812	11.316
0.03805	21.533
0.070768	28.07
0.092726	31.867
0.118804	34.809
0.144601	37.657
0.172146	40.198
0.19881	42.428
0.225181	44.301
0.251419	46.199
0.278697	47.903
0.305722	49.44
0.332853	50.997
0.358584	52.433
0.385715	53.798
0.412499	55.254
0.439404	56.599
0.466762	57.883
0.492146	59.117
0.518931	60.361
0.545155	61.372
0.57254	62.432
0.599004	63.644
0.626015	64.727
0.65192	65.626
0.680504	66.525
0.705195	67.488
0.73226	68.47
0.759751	69.37
0.786882	70.371
0.812147	71.099
0.839078	71.908
0.866489	72.609
0.893167	73.373
0.919244	74.112
0.946362	74.838
0.972733	75.526
0.998971	76.227
1.0258	76.775
1.05261	77.425
1.08031	78.164
