Adsorption isotherm of Methane on TbL
DOI: 10.1039/c5ta00720h
Article source: Figure 8
Adsorbate Methane: InChIKey VNWKTOKETHGBQD-UHFFFAOYSA-N
Kind: experiment
Temperature: 293 K
Tabular data in the source: 0
pressure (bar)	uptake (cm3(STP)/g)
0.008039	0.2073
0.04145	0.9327
0.062755	1.3645
0.092379	1.7705
0.117484	2.2628
0.142042	2.66
0.171853	3.2041
0.19749	3.6705
0.224222	4.016
0.251859	4.4565
0.279137	4.897
0.303335	5.2079
0.32916	5.657
0.358784	6.1234
0.383168	6.4085
0.409526	6.6417
0.438044	7.1035
0.464562	7.4463
0.492439	7.7238
0.518944	8.1537
0.545568	8.4584
0.570486	8.6815
0.598244	8.959
0.624642	9.2148
0.65048	9.4923
0.680051	9.7916
0.704182	10.0909
0.73182	10.3412
0.757884	10.6731
0.784735	10.8691
0.811707	11.0867
0.838558	11.3099
0.864609	11.6527
0.891687	11.8432
0.918538	12.0554
0.944936	12.2731
0.972133	12.4745
0.997625	12.616
1.02526	12.9207
1.05063	13.171
1.07693	13.318
