Adsorption isotherm of Nitrogen on TbL
DOI: 10.1039/c5ta00720h
Article source: Figure 8
Adsorbate Nitrogen: InChIKey IJGRMHOSHXDMSA-UHFFFAOYSA-N
Kind: experiment
Temperature: 293 K
Tabular data in the source: 0
pressure (bar)	uptake (cm3(STP)/g)
0.011559	0.1683
0.031344	0.1812
0.062955	0.2761
0.087073	0.3537
0.117884	0.5176
0.142082	0.5564
0.170266	0.7505
0.19929	0.983
0.222088	1.0582
0.250473	1.0787
0.277151	1.2362
0.305828	1.3732
0.331053	1.3868
0.357611	1.4449
0.384168	1.5225
0.411086	1.5914
0.440164	1.7122
0.464735	1.8243
0.493999	1.9192
0.519837	1.9882
0.544942	2.109
0.5715	2.1607
0.596431	2.2555
0.625522	2.3331
0.65424	2.4107
0.681877	2.497
0.706089	2.5919
0.730473	2.5831
0.760284	2.7298
0.785402	2.7556
0.81304	2.885
0.837971	3.0144
0.865795	3.0488
0.8907	3.1044
0.920058	3.1478
0.947602	3.1912
0.972867	3.3326
0.998585	3.3542
1.02566	3.5064
1.0523	3.5172
1.07711	3.5062
