Adsorption isotherm of Carbon Dioxide on Zr-btdc
DOI: 10.1016/j.micromeso.2015.05.030
Article source: Figure 9
Adsorbate Carbon Dioxide: InChIKey CURLTUGMZLYLDI-UHFFFAOYSA-N
Kind: experiment
Temperature: 298 K
Tabular data in the source: 0
pressure (bar)	uptake (mmol/g)
0.007822	0.03814
0.016164	0.06499
0.026658	0.10312
0.034153	0.13153
0.039889	0.14982
0.046668	0.17473
0.052469	0.20158
0.066092	0.25372
0.080039	0.30276
0.11336	0.41644
0.132656	0.76231
0.14828	0.54053
0.173847	0.91019
0.181521	0.66117
0.21489	1.0531
0.21517	1.05262
0.248521	0.87598
0.25597	1.18571
0.282022	0.9865
0.298205	1.32736
0.315522	1.09391
0.33679	1.45189
0.3515	1.21299
0.37837	1.57409
0.38487	1.3095
0.417458	1.40523
0.421647	1.70018
0.452	1.50486
0.462967	1.8107
0.486672	1.60215
0.502803	1.92309
0.519337	1.69703
0.543565	2.02873
0.553376	1.79711
0.584511	2.13145
0.58778	1.90104
0.620953	1.98636
0.624746	2.22658
0.654949	2.0805
0.66728	2.33347
0.687137	2.16483
0.706714	2.4178
0.721495	2.2505
0.747667	2.51146
0.755374	2.33988
0.78864	2.59874
0.789204	2.60178
0.822778	2.51866
0.829926	2.68852
0.855367	2.60885
0.870479	2.76945
0.889817	2.68916
0.892929	2.81578
0.923533	2.7856
0.932598	2.89261
0.956903	2.87083
0.974111	2.96578
0.990597	2.9545
1.02416	3.03272
1.03439	3.07475
