Adsorption isotherm of Hydrogen on UiO-67
DOI: 10.1016/j.micromeso.2015.05.030
Article source: Figure 8
Adsorbate Hydrogen: InChIKey UFHFLCQGNIYNRP-UHFFFAOYSA-N
Kind: experiment
Temperature: 87 K
Tabular data in the source: 0
pressure (bar)	uptake (wt%)
0.002496	0.00741
0.012446	0.04232
0.027047	0.09666
0.040566	0.13157
0.052572	0.16756
0.065984	0.19743
0.066416	0.20089
0.080152	0.22911
0.113789	0.29391
0.132716	0.35869
0.148832	0.3544
0.173924	0.4199
0.183117	0.40445
0.214374	0.47229
0.214916	0.47285
0.250066	0.49161
0.256123	0.52183
0.282189	0.52691
0.296574	0.56578
0.317773	0.56618
0.339624	0.60792
0.351042	0.5988
0.380229	0.64624
0.385466	0.62883
0.417571	0.65858
0.420661	0.68314
0.452619	0.68891
0.462021	0.71884
0.484845	0.71774
0.502697	0.74972
0.517619	0.74454
0.543305	0.78219
0.553321	0.77292
0.584195	0.81131
0.5878	0.79618
0.620506	0.82079
0.625057	0.83878
0.6539	0.84654
0.666176	0.86426
0.686178	0.86858
0.707038	0.89202
0.720773	0.88919
0.7488	0.91759
0.755341	0.91125
0.787227	0.93125
0.789135	0.94122
0.821294	0.95079
0.828789	0.96485
0.856179	0.97532
0.87076	0.9903
0.890111	0.99215
0.911777	1.01212
0.923769	1.00988
0.931809	1.02303
0.957188	1.03091
0.973327	1.04435
0.990753	1.04638
1.01548	1.06669
1.02586	1.06813
1.05831	1.08475
