Adsorption isotherm of Carbon Dioxide on UiO-67
DOI: 10.1016/j.micromeso.2015.05.030
Article source: Figure 7
Adsorbate Carbon Dioxide: InChIKey CURLTUGMZLYLDI-UHFFFAOYSA-N
Kind: experiment
Temperature: 195 K
Tabular data in the source: 0
pressure (bar)	uptake (cm3(STP)/g)
0.002918	10.108
0.003952	19.983
0.004154	25.434
0.005492	31.991
0.007964	40.206
0.011673	45.735
0.014966	52.687
0.024754	65.483
0.031968	75.673
0.039172	84.836
0.04587	94.789
0.052365	104.504
0.05968	103.476
0.064007	128.439
0.078942	164.54
0.114153	338.178
0.135735	326.136
0.17515	435.732
0.181848	460.31
0.215376	461.685
0.229602	477.358
0.25462	475.599
0.264965	484.733
0.295464	484.728
0.299618	491.496
0.314411	493.783
0.337382	492.187
0.350493	499.152
0.379563	498.451
0.384103	502.929
0.417976	507.302
0.419121	503.916
0.450846	511.059
0.459843	507.797
0.485347	513.938
0.502683	512.054
0.518865	516.692
0.54373	515.56
0.552069	519.07
0.584605	518.438
0.586733	521.196
0.619764	523.825
0.626138	523.448
0.654266	525.701
0.664074	525.574
0.686315	527.703
0.706924	528.076
0.719671	529.203
0.747475	531.707
0.754182	530.201
0.788592	533.122
0.821766	533.67
0.82969	535.249
0.855244	535.956
0.869146	537.297
0.888002	536.979
0.891295	537.847
0.922199	538.948
0.931775	539.816
0.956194	539.733
0.973298	540.916
0.990138	540.951
0.999784	541.639
