Adsorption isotherm of Nitrogen on Zr-btdc
DOI: 10.1016/j.micromeso.2015.05.030
Article source: Figure 6
Adsorbate Nitrogen: InChIKey IJGRMHOSHXDMSA-UHFFFAOYSA-N
Kind: experiment
Temperature: 77 K
Tabular data in the source: 0
pressure (bar)	uptake (cm3(STP)/g)
0.003192	126.702
0.003394	163.073
0.003607	102.58
0.00381	11.934
0.004012	250.892
0.004225	25.502
0.004428	362.645
0.004641	312.139
0.004843	443.679
0.005046	239.773
0.005259	38.883
0.005664	453.667
0.006282	409.004
0.006495	422.007
0.007731	478.732
0.008349	470.817
0.009788	483.631
0.012473	488.343
0.020518	507.188
0.027743	515.668
0.034552	523.018
0.040327	526.787
0.050642	533.948
0.060957	539.979
0.085913	549.778
0.101183	558.447
0.113139	557.128
0.131915	565.608
0.139342	562.028
0.163478	570.131
0.164714	565.231
0.188029	567.87
0.193389	572.204
0.214221	571.45
0.224952	575.596
0.240221	574.277
0.256312	578.046
0.267447	576.539
0.28674	580.53
0.291816	576.969
0.316377	577.087
0.318454	581.599
0.34262	580.886
0.349642	583.023
0.36861	582.786
0.380313	585.635
0.394215	583.617
0.411238	586.466
0.420205	584.329
0.443206	587.297
0.445415	586.826
0.45503	587.535
0.471404	586.347
0.497141	587.535
0.505065	589.197
0.521955	588.603
0.536779	590.265
0.548209	590.384
0.549637	588.722
0.572638	589.197
0.580045	591.096
0.598892	590.384
0.610463	591.215
0.642167	591.69
0.643464	591.606
0.667772	591.571
0.673224	592.046
0.695191	591.69
0.704543	592.283
0.7204	591.927
0.735082	592.758
0.746522	592.402
0.766402	592.877
0.773029	592.046
0.797073	592.877
0.821766	592.877
0.828909	592.877
0.848141	592.758
0.859966	592.877
0.874526	593.233
0.890637	593.708
0.89934	593.589
0.921693	593.708
0.926121	593.589
0.948341	593.233
0.952891	593.352
0.976277	593.589
0.985112	593.352
0.999926	593.827
1.00824	594.302
