Adsorption isotherm of Hydrogen on Zr-btdc
DOI: 10.1016/j.micromeso.2015.05.030
Article source: Figure 8
Adsorbate Hydrogen: InChIKey UFHFLCQGNIYNRP-UHFFFAOYSA-N
Kind: experiment
Temperature: 77 K
Tabular data in the source: 0
pressure (bar)	uptake (wt%)
0.001023	0.01835
0.001979	0.06184
0.002592	0.09356
0.003412	0.14362
0.005116	0.17737
0.007502	0.20932
0.008934	0.24352
0.011187	0.32638
0.012343	0.3022
0.024543	0.43291
0.032245	0.50111
0.039334	0.54869
0.045674	0.59649
0.052625	0.63773
0.065876	0.8168
0.065879	0.81683
0.079399	0.7737
0.114343	0.91793
0.132952	1.06503
0.148852	1.03161
0.173303	1.18194
0.18228	1.12981
0.214302	1.28304
0.215166	1.28614
0.248377	1.3007
0.25541	1.37262
0.282993	1.37518
0.296084	1.4561
0.315987	1.44606
0.339031	1.53562
0.351036	1.51514
0.378948	1.60615
0.383706	1.57236
0.416591	1.63029
0.420163	1.67237
0.452181	1.68967
0.461377	1.7375
0.485391	1.73933
0.502808	1.79329
0.518168	1.78792
0.543914	1.84872
0.552027	1.83219
0.584588	1.89911
0.586318	1.8779
0.620285	1.92253
0.62537	1.94843
0.65317	1.96141
0.665719	1.99666
0.686813	2.001
0.706717	2.04058
0.721319	2.03665
0.747932	2.08199
0.754962	2.07121
0.787739	2.10613
0.78893	2.10951
0.820948	2.14177
0.829278	2.16048
0.855672	2.17597
0.870492	2.19757
0.889314	2.20586
0.910789	2.2339
0.923067	2.2322
0.932597	2.25133
0.956251	2.26191
0.972879	2.283
0.990256	2.28913
1.01458	2.31544
1.02426	2.31681
1.05745	2.34426
