Adsorption isotherm of Hydrogen on UiO-67
DOI: 10.1016/j.micromeso.2015.05.030
Article source: Figure 8
Adsorbate Hydrogen: InChIKey UFHFLCQGNIYNRP-UHFFFAOYSA-N
Kind: experiment
Temperature: 77 K
Tabular data in the source: 0
pressure (bar)	uptake (wt%)
0.001197	0.00648
0.002929	0.03453
0.007258	0.07624
0.010288	0.11651
0.013102	0.14168
0.016997	0.18412
0.01981	0.19203
0.026086	0.24597
0.031928	0.27905
0.039067	0.31214
0.045342	0.34378
0.052698	0.3704
0.065677	0.4078
0.065679	0.4078
0.078443	0.45671
0.085365	0.48547
0.109811	0.54805
0.115219	0.55309
0.149398	0.62358
0.151778	0.62991
0.173158	0.68508
0.18188	0.69459
0.214721	0.75826
0.21622	0.75214
0.249266	0.81173
0.255195	0.82216
0.284275	0.86132
0.295198	0.87859
0.317479	0.90772
0.33976	0.94009
0.351224	0.95412
0.379995	0.99333
0.384322	0.99765
0.417202	1.04009
0.421528	1.04441
0.451487	1.07498
0.462086	1.08757
0.485124	1.11599
0.502969	1.13578
0.520383	1.15196
0.544997	1.18235
0.553065	1.19006
0.584656	1.21726
0.585944	1.21862
0.619509	1.25944
0.624831	1.26401
0.654618	1.29057
0.666465	1.30142
0.687754	1.3234
0.707155	1.34282
0.723808	1.35509
0.748188	1.37965
0.756171	1.38736
0.791624	1.41706
0.824759	1.44504
0.829052	1.44847
0.855491	1.46845
0.871286	1.4833
0.88897	1.49758
0.89515	1.50272
0.92262	1.52499
0.934982	1.5347
0.955927	1.55183
0.98065	1.57125
0.989235	1.57868
1.03542	1.61466
