Adsorption isotherm of Carbon Dioxide on Zr-btdc
DOI: 10.1016/j.micromeso.2015.05.030
Article source: Figure 7
Adsorbate Carbon Dioxide: InChIKey CURLTUGMZLYLDI-UHFFFAOYSA-N
Kind: experiment
Temperature: 195 K
Tabular data in the source: 0
pressure (bar)	uptake (cm3(STP)/g)
0.001419	16.235
0.002401	31.407
0.005664	41.815
0.008288	53.852
0.010244	63.507
0.012696	73.163
0.026426	117.551
0.032961	141.125
0.039507	164.448
0.046528	187.395
0.052902	209.965
0.063693	260.122
0.068597	273.664
0.080523	331.846
0.122046	392.286
0.133323	408.086
0.163397	412.351
0.173853	427.147
0.199681	420.753
0.213897	439.312
0.234983	426.398
0.255258	449.094
0.265877	440.443
0.288766	447.717
0.295464	458.501
0.334859	457.499
0.336977	466.653
0.369502	464.523
0.377517	471.945
0.385035	467.157
0.416577	471.798
0.41903	479.698
0.452213	476.565
0.461201	485.092
0.485772	480.236
0.502562	488.925
0.518419	483.476
0.543649	492.877
0.552495	486.716
0.583389	496.744
0.586378	489.579
0.619714	492.915
0.625682	499.832
0.654418	496.051
0.666161	502.62
0.686984	498.79
0.706894	505.26
0.721576	500.903
0.747566	507.864
0.754831	503.664
0.787528	505.86
0.788673	506.37
0.821553	509.321
0.828859	512.323
0.855842	511.455
0.870665	514.852
0.889096	511.931
0.891771	515.959
0.922898	515.073
0.932494	518.059
0.956822	517.563
0.972973	520.052
0.990219	519.953
1.0008	521.148
