Adsorption isotherm of Carbon Dioxide on UiO-67
DOI: 10.1016/j.micromeso.2015.05.030
Article source: Figure 9
Adsorbate Carbon Dioxide: InChIKey CURLTUGMZLYLDI-UHFFFAOYSA-N
Kind: experiment
Temperature: 273 K
Tabular data in the source: 0
pressure (bar)	uptake (mmol/g)
0.008059	0.04568
0.019128	0.12652
0.035782	0.18759
0.045196	0.23633
0.052956	0.27952
0.065576	0.34192
0.065783	0.3406
0.077886	0.40415
0.085541	0.4924
0.105713	0.5831
0.111402	0.54605
0.146625	0.693
0.152165	0.76998
0.173083	0.85314
0.180056	0.81425
0.214269	1.00714
0.2144	1.00743
0.248286	1.05207
0.254216	1.14072
0.280674	1.15894
0.295468	1.274
0.316517	1.26657
0.337174	1.39912
0.350013	1.36916
0.379206	1.52346
0.383703	1.46474
0.41772	1.63183
0.418176	1.63265
0.451478	1.65319
0.460405	1.74299
0.485429	1.74488
0.500483	1.85061
0.518468	1.82764
0.543233	1.96018
0.552616	1.91544
0.585265	2.06547
0.586242	2.00053
0.618956	2.08445
0.624365	2.15715
0.652844	2.16798
0.665991	2.25838
0.687667	2.25148
0.706715	2.35775
0.722115	2.3362
0.747271	2.44853
0.75483	2.41118
0.788976	2.5437
0.789238	2.54461
0.821691	2.56619
0.82925	2.62917
0.854666	2.64933
0.870566	2.7224
0.889204	2.72781
0.893113	2.76824
0.923091	2.80239
0.935211	2.85214
0.957239	2.8867
0.976984	2.94343
0.989887	2.96401
1.03316	3.0658
