Adsorption isotherm of Hydrogen on Zr-btdc
DOI: 10.1016/j.micromeso.2015.05.030
Article source: Figure 8
Adsorbate Hydrogen: InChIKey UFHFLCQGNIYNRP-UHFFFAOYSA-N
Kind: experiment
Temperature: 87 K
Tabular data in the source: 0
pressure (bar)	uptake (wt%)
0.001568	0.01539
0.003817	0.0335
0.006951	0.05003
0.008997	0.06225
0.011244	0.07515
0.012066	0.10053
0.013631	0.09394
0.025489	0.17475
0.032712	0.2087
0.039186	0.24537
0.046	0.27276
0.052542	0.30083
0.065352	0.34926
0.065899	0.35354
0.079253	0.39567
0.114684	0.49933
0.132469	0.56836
0.148752	0.58036
0.173996	0.65841
0.181205	0.64985
0.214342	0.73739
0.215886	0.716
0.248294	0.77296
0.255178	0.80555
0.282361	0.82863
0.298305	0.87277
0.316018	0.87842
0.338366	0.92889
0.350219	0.92866
0.379585	0.98343
0.383944	0.97211
0.418078	1.01397
0.420668	1.03072
0.452204	1.05445
0.461389	1.07783
0.486024	1.09094
0.502163	1.12231
0.518643	1.12943
0.543709	1.1645
0.55212	1.16107
0.584725	1.20813
0.585677	1.2089
0.620084	1.22532
0.624445	1.24297
0.653604	1.25654
0.665935	1.27963
0.685965	1.28392
0.707154	1.31424
0.720165	1.31582
0.748302	1.34682
0.754502	1.34365
0.787681	1.36673
0.789384	1.3794
0.82161	1.39931
0.827945	1.40565
0.856662	1.42472
0.871046	1.43585
0.889971	1.44303
0.911493	1.4671
0.923172	1.46673
0.932906	1.47859
0.956368	1.49003
0.973536	1.50542
0.990364	1.51288
1.01489	1.5312
1.02443	1.53641
1.05747	1.55201
