Adsorption isotherm of Carbon Dioxide on UiO-67
DOI: 10.1016/j.micromeso.2015.05.030
Article source: Figure 9
Adsorbate Carbon Dioxide: InChIKey CURLTUGMZLYLDI-UHFFFAOYSA-N
Kind: experiment
Temperature: 298 K
Tabular data in the source: 0
pressure (bar)	uptake (mmol/g)
0.027187	0.05112
0.037126	0.08875
0.044891	0.10972
0.054102	0.11834
0.066119	0.14413
0.066317	0.143
0.080396	0.17815
0.086717	0.24049
0.106178	0.28365
0.112692	0.24906
0.147507	0.31851
0.152926	0.38033
0.173663	0.42344
0.180958	0.38376
0.214082	0.44084
0.214614	0.50617
0.248905	0.51503
0.255695	0.58229
0.281769	0.57406
0.296776	0.66035
0.31848	0.6358
0.337138	0.72908
0.348802	0.69172
0.377893	0.80326
0.383034	0.74413
0.418246	0.80588
0.419819	0.81779
0.452283	0.86646
0.460079	0.93649
0.486363	0.92284
0.503656	1.00675
0.520829	0.97523
0.543817	1.07147
0.553745	1.02885
0.585179	1.13134
0.587778	1.073
0.620773	1.13319
0.62541	1.19307
0.654549	1.18405
0.666553	1.25091
0.688129	1.23258
0.707436	1.30992
0.721774	1.28305
0.748253	1.36542
0.755223	1.33313
0.788868	1.37816
0.789852	1.38312
0.823035	1.42862
0.830342	1.47566
0.856354	1.47637
0.87129	1.52611
0.889672	1.52062
0.893459	1.55483
0.923644	1.57576
0.934079	1.60801
0.956963	1.6204
0.975482	1.66079
0.990933	1.66853
1.03442	1.72403
