Adsorption isotherm of Carbon Dioxide on Zr-btdc
DOI: 10.1016/j.micromeso.2015.05.030
Article source: Figure 9
Adsorbate Carbon Dioxide: InChIKey CURLTUGMZLYLDI-UHFFFAOYSA-N
Kind: experiment
Temperature: 273 K
Tabular data in the source: 0
pressure (bar)	uptake (mmol/g)
0.006521	0.05175
0.014022	0.11168
0.024977	0.18989
0.032213	0.23192
0.03867	0.27939
0.045712	0.32375
0.052885	0.37317
0.0656	0.45139
0.0789	0.53077
0.113001	0.72456
0.132512	1.02496
0.147296	0.90473
0.17354	1.23355
0.180752	1.06295
0.214446	1.22583
0.214841	1.22131
0.24819	1.37085
0.254942	1.60175
0.281621	1.51646
0.295828	1.77055
0.315369	1.64994
0.336524	1.93268
0.35079	1.79124
0.377918	2.08896
0.382457	1.91293
0.418112	2.2386
0.418454	2.2387
0.45162	2.16673
0.461947	2.38857
0.486251	2.28666
0.503133	2.52571
0.519572	2.40527
0.543181	2.66284
0.552687	2.5214
0.583904	2.7909
0.586693	2.63721
0.619809	2.74501
0.624582	2.92127
0.654098	2.85591
0.665911	3.04697
0.687541	2.96449
0.706849	3.16956
0.720395	3.06995
0.748276	3.2911
0.754991	3.17992
0.788416	3.29049
0.788943	3.29719
0.822147	3.39235
0.82971	3.51835
0.855328	3.49581
0.870336	3.63149
0.890211	3.67096
0.892369	3.6887
0.922609	3.707
0.933241	3.79844
0.956377	3.81246
0.974503	3.90819
0.990471	3.91481
1.02378	4.01443
1.03375	4.05491
