Adsorption isotherm of Nitrogen on UiO-67
DOI: 10.1016/j.micromeso.2015.05.030
Article source: Figure 6
Adsorbate Nitrogen: InChIKey IJGRMHOSHXDMSA-UHFFFAOYSA-N
Kind: experiment
Temperature: 77 K
Tabular data in the source: 0
pressure (bar)	uptake (cm3(STP)/g)
0.004874	27.31
0.004884	27.542
0.005157	63.039
0.005451	163.474
0.005532	39.533
0.005573	151.127
0.005674	77.76
0.005684	114.546
0.005715	202.057
0.005735	249.901
0.005816	114.8
0.005836	176.652
0.005877	289.315
0.005938	89.632
0.006049	433.557
0.00611	208.244
0.00612	223.011
0.00612	238.623
0.006201	471.072
0.006211	102.691
0.006272	300.949
0.006323	50.93
0.006343	127.028
0.006353	138.068
0.006363	187.336
0.006404	313.415
0.006465	508.231
0.006515	262.129
0.006556	453.715
0.006576	443.173
0.006809	350.573
0.00685	484.487
0.00691	275.662
0.006941	374.08
0.006971	465.017
0.007062	325.999
0.007346	397.942
0.007478	410.288
0.007579	337.514
0.007589	363.157
0.007741	420.854
0.007751	424.48
0.007903	519.628
0.008947	533.043
0.010771	544.558
0.014023	561.706
0.01454	563.315
0.021957	575.662
0.025726	580.054
0.030539	582.547
0.036254	585.396
0.040419	587.532
0.049771	590.975
0.05965	594.892
0.085437	601.913
0.10017	606.25
0.115075	607.895
0.131611	611.035
0.140457	611.483
0.162231	614.473
0.168291	615.37
0.190238	616.865
0.19351	617.612
0.215944	618.209
0.224455	619.555
0.242146	618.806
0.256058	620.002
0.265228	620.749
0.286355	621.197
0.291593	621.346
0.317765	621.944
0.341941	621.943
0.348436	623.011
0.361305	622.891
0.372349	622.772
0.392361	622.89
0.419911	623.125
0.444482	623.955
0.470077	623.597
0.476967	625.615
0.485681	629.532
0.496594	622.646
0.519078	630.005
0.521935	622.645
0.548189	622.643
0.548969	623.162
0.573398	622.998
0.579376	629.052
0.599398	623.471
0.612135	629.05
0.624861	623.232
0.642542	629.761
0.650598	623.112
0.67373	628.572
0.676851	623.585
0.701149	623.465
0.704533	628.807
0.726754	623.464
0.736633	628.687
0.753139	624.056
0.767436	628.566
0.77848	623.579
0.79837	628.208
0.803953	623.934
0.828778	628.088
0.82969	628.089
0.85573	625.109
0.860168	626.994
0.880697	625.673
0.891944	627.746
0.907001	626.52
0.922676	628.121
0.931957	627.178
0.953934	627.962
0.958605	627.486
0.981029	628.435
0.98571	628.197
1.00845	629.383
