Adsorption isotherm of Nitrogen on AZO-1
DOI: 10.1002/aenm.202003735
Article source: Figure S2 (a)
Adsorbate Nitrogen: InChIKey IJGRMHOSHXDMSA-UHFFFAOYSA-N
Kind: experiment
Temperature: 77 K
Tabular data in the source: 0
pressure (bar)	uptake (cm3(STP)/g)
0	0.25287
0	0.55172
0	0.82759
0	1.09195
0.001915	1.31034
0.00765	1.4023
0.01914	1.44828
0.03062	1.52874
0.045931	1.55747
0.078456	1.5977
0.110029	1.62644
0.136819	1.63793
0.163609	1.64943
0.187532	1.66667
0.214323	1.66667
0.240161	1.68391
0.265988	1.68391
0.294694	1.71264
0.315739	1.71264
0.3655	1.71264
0.41525	1.72414
0.466916	1.72989
0.517629	1.74713
0.568342	1.74713
0.620008	1.75862
0.669758	1.77011
0.717604	1.77586
0.76927	1.78736
0.817105	1.81034
0.863988	1.85057
0.908956	1.91954
0.962537	2.18391
0.987412	2.70115
1.00177	3.82184
0.00765	1.51724
0.095681	1.70115
0.120556	1.71264
0.145432	1.72414
0.170307	1.73563
0.196145	1.74713
0.221973	1.75287
0.247811	1.75862
0.273648	1.77011
0.294694	1.77011
0.345407	1.77586
0.39611	1.78161
0.451606	1.78736
0.501366	1.81034
0.549202	1.82759
0.598952	1.82759
0.650628	1.83333
0.702294	1.83908
0.755874	1.86207
0.80754	1.88506
0.859206	1.94253
0.912786	2.02299
0.964452	2.35632
0.989327	3.10345
