Adsorption isotherm of Nitrogen on AZO-2
DOI: 10.1002/aenm.202003735
Article source: Figure S2 (a)
Adsorbate Nitrogen: InChIKey IJGRMHOSHXDMSA-UHFFFAOYSA-N
Kind: experiment
Temperature: 77 K
Tabular data in the source: 0
pressure (bar)	uptake (cm3(STP)/g)
0	0.2069
0	0.37931
0	0.45977
0	0.57471
-0.005745	0.93103
0.00383	1.2069
0.051666	1.5977
0.317654	1.82759
0.363584	1.83908
0.413335	1.88506
0.465001	1.91954
0.514761	1.94828
0.565464	1.97701
0.614263	2
0.664023	2.05747
0.715689	2.09195
0.759694	2.13793
0.809455	2.2069
0.861121	2.32184
0.910871	2.49425
0.966367	2.86207
0.98646	3.22989
1.00081	3.65517
0.100464	1.8046
0.122472	1.81609
0.149262	1.83908
0.176052	1.83908
0.199012	1.85057
0.223888	1.87356
0.246858	1.87356
0.273648	1.89655
0.300439	1.91954
0.350189	1.93103
0.401855	1.95402
0.451606	1.96552
0.503271	2.03448
0.554947	2.05747
0.607565	2.08621
0.658278	2.12069
0.704209	2.16092
0.759694	2.21264
0.809455	2.28161
0.860158	2.39655
0.911834	2.60345
0.952972	2.93103
0.989327	3.45977
