Adsorption isotherm of Nitrogen on AZO-3
DOI: 10.1002/aenm.202003735
Article source: Figure S2 (a)
Adsorbate Nitrogen: InChIKey IJGRMHOSHXDMSA-UHFFFAOYSA-N
Kind: experiment
Temperature: 77 K
Tabular data in the source: 0
pressure (bar)	uptake (cm3(STP)/g)
0	0.2931
0	0.65517
0.00765	0.98851
0.021045	1.24138
0.024875	1.37931
0.036355	1.45977
0.047836	1.54023
0.061231	1.68966
0.072721	1.7931
0.078456	1.85057
0.088021	1.91954
0.101416	2.03448
0.116726	2.16092
0.126302	2.26437
0.151177	2.35632
0.187532	2.41379
0.215275	2.46552
0.243028	2.48276
0.265988	2.50575
0.294694	2.52874
0.320532	2.55172
0.368367	2.57471
0.428645	2.6092
0.477443	2.64368
0.528157	2.65517
0.580775	2.67816
0.62862	2.71264
0.678371	2.73563
0.729084	2.77011
0.778835	2.8046
0.825718	2.85057
0.865903	2.89655
0.920436	3.01149
0.964452	3.31034
0.984545	3.78161
1.00177	5.18391
0	0.27586
0.005745	1.44828
0.103331	2.36782
0.128207	2.55172
0.147347	2.62069
0.17127	2.64368
0.196145	2.66667
0.22102	2.67816
0.246858	2.68966
0.271733	2.70115
0.294694	2.71264
0.342529	2.73563
0.394205	2.75287
0.443955	2.75862
0.494669	2.77586
0.545372	2.78161
0.596085	2.79885
0.64775	2.81034
0.697511	2.82759
0.751092	2.85057
0.804672	2.88506
0.842943	2.92529
0.908004	3.03448
0.948189	3.21839
0.98646	4.11494
