Adsorption isotherm of Nitrogen on Carbon NPC (Middle Size)
DOI: 10.1039/C3cc38955c
Adsorbate Nitrogen: InChIKey IJGRMHOSHXDMSA-UHFFFAOYSA-N
Temperature: 77 K
Tabular data in the source: 0
pressure (bar)	uptake (cm3(STP)/g)
0.00785596	329.71
0.0130933	362.319
0.0261865	391.304
0.0549917	431.159
0.0733223	434.783
0.0890342	445.652
0.115221	452.899
0.141407	463.768
0.162356	463.768
0.183306	463.768
0.204255	471.014
0.222585	474.638
0.240916	474.638
0.261865	481.884
0.280196	481.884
0.301145	489.13
0.322094	485.507
0.340425	485.507
0.358755	492.754
0.400654	500
0.416366	496.377
0.434696	503.623
0.481832	507.246
0.515875	510.87
0.555154	514.493
0.594434	521.739
0.652044	528.986
0.727985	536.232
0.767265	539.855
0.79607	543.478
0.827494	547.101
0.858918	554.348
0.879867	554.348
0.89296	561.594
0.924384	568.841
0.937478	612.319
0.947952	648.551
0.963664	695.652
