Adsorption isotherm of Nitrogen on ZIF-8 (Small Size)
DOI: 10.1039/C3cc38955c
Adsorbate Nitrogen: InChIKey IJGRMHOSHXDMSA-UHFFFAOYSA-N
Temperature: 77 K
Tabular data in the source: 0
pressure (bar)	uptake (cm3(STP)/g)
0.00519529	335.74
0.0129882	400.722
0.0181835	415.162
0.0259765	462.094
0.0415624	476.534
0.0571482	480.144
0.0857224	487.365
0.114296	494.585
0.137675	498.195
0.168847	505.415
0.194824	512.635
0.225995	519.856
0.246776	523.466
0.275351	530.686
0.306522	541.516
0.342889	545.126
0.376659	548.736
0.413026	559.567
0.439002	566.787
0.464979	566.787
0.493553	574.007
0.516932	577.617
0.535115	581.227
0.579275	595.668
0.61824	602.888
0.652009	606.498
0.675388	617.329
0.696169	620.939
0.719548	624.549
0.732536	628.159
0.748122	635.379
0.761111	638.989
0.779294	642.599
0.805271	660.65
0.833845	678.7
0.862419	700.361
0.888395	747.292
0.898786	787.004
0.909176	833.935
0.916969	870.036
0.940348	906.137
0.961129	935.018
