Adsorption isotherm of Nitrogen on Carbon NPC (Small Size)
DOI: 10.1039/C3cc38955c
Adsorbate Nitrogen: InChIKey IJGRMHOSHXDMSA-UHFFFAOYSA-N
Temperature: 77 K
Tabular data in the source: 0
pressure (bar)	uptake (cm3(STP)/g)
0.00261865	210.145
0.00785596	260.87
0.0209492	293.478
0.0340425	315.217
0.0576104	326.087
0.0811782	340.58
0.112602	355.072
0.138789	358.696
0.159738	365.942
0.185924	373.188
0.204255	376.812
0.227823	380.435
0.261865	391.304
0.282814	394.928
0.31162	405.797
0.343043	405.797
0.379705	416.667
0.398035	420.29
0.437315	431.159
0.458264	431.159
0.476595	438.406
0.515875	449.275
0.555154	452.899
0.594434	467.391
0.618002	467.391
0.652044	478.261
0.686087	489.13
0.717511	500
0.743697	503.623
0.764646	510.87
0.788214	521.739
0.809164	528.986
0.866774	572.464
0.89296	641.304
0.908672	742.754
0.921766	807.971
0.942715	829.71
0.968901	847.826
