Adsorption isotherm of Nitrogen on Carbon NPC (Large Size)
DOI: 10.1039/C3cc38955c
Adsorbate Nitrogen: InChIKey IJGRMHOSHXDMSA-UHFFFAOYSA-N
Temperature: 77 K
Tabular data in the source: 0
pressure (bar)	uptake (cm3(STP)/g)
2.22e-16	177.536
0.00261865	253.623
0.0052373	333.333
0.0157119	373.188
0.0261865	398.551
0.0392798	413.043
0.0549917	431.159
0.0654663	442.029
0.0811782	452.899
0.0968901	467.391
0.125695	481.884
0.149263	503.623
0.178068	514.493
0.199018	525.362
0.222585	532.609
0.251391	539.855
0.274958	539.855
0.298526	543.478
0.322094	550.725
0.348281	557.971
0.377086	561.594
0.395416	568.841
0.405891	568.841
0.418984	572.464
0.434696	576.087
0.479213	586.957
0.492307	586.957
0.513256	594.203
0.536824	597.826
0.555154	601.449
0.573485	608.696
0.594434	612.319
0.615383	615.942
0.628477	619.565
0.662519	626.812
0.683468	630.435
0.709655	637.681
0.733223	641.304
0.759409	648.551
0.785596	655.797
0.811782	659.42
0.837969	666.667
0.872011	677.536
0.895579	684.783
0.921766	688.406
0.945333	702.899
0.968901	721.014
