Adsorption isotherm of Nitrogen on ZIF-8 (Large Size)
DOI: 10.1039/C3cc38955c
Adsorbate Nitrogen: InChIKey IJGRMHOSHXDMSA-UHFFFAOYSA-N
Temperature: 77 K
Tabular data in the source: 0
pressure (bar)	uptake (cm3(STP)/g)
0.00259765	0.00259765
0.00519529	469.314
0.0103906	624.549
0.0129882	649.819
0.0285741	657.04
0.0493553	660.65
0.0753318	664.26
0.0961129	671.48
0.124687	671.48
0.153261	675.09
0.187031	682.31
0.225995	685.921
0.275351	696.751
0.30912	696.751
0.340292	703.971
0.363671	703.971
0.39744	711.191
0.439002	722.022
0.470174	725.632
0.496151	729.242
0.519529	732.852
0.540311	736.462
0.568885	736.462
0.592264	743.682
0.623435	747.292
0.654607	754.513
0.664998	754.513
0.698767	758.123
0.711755	761.733
0.732536	765.343
0.761111	768.953
0.79488	776.173
0.820856	776.173
0.852028	783.394
0.878005	783.394
0.903981	790.614
0.935153	801.444
0.966325	815.884
