Adsorption isotherm of Nitrogen on ZIF-8 (Middle Size)
DOI: 10.1039/C3cc38955c
Adsorbate Nitrogen: InChIKey IJGRMHOSHXDMSA-UHFFFAOYSA-N
Temperature: 77 K
Tabular data in the source: 0
pressure (bar)	uptake (cm3(STP)/g)
0.00519529	407.942
0.00779294	436.823
0.0129882	476.534
0.0207812	541.516
0.0415624	541.516
0.0805271	545.126
0.109101	545.126
0.129882	548.736
0.153261	552.347
0.181835	552.347
0.200019	555.957
0.225995	555.957
0.246776	555.957
0.275351	555.957
0.324706	563.177
0.350682	563.177
0.379256	563.177
0.407831	566.787
0.436405	566.787
0.457186	566.787
0.493553	570.397
0.555896	577.617
0.589666	577.617
0.626033	577.617
0.649412	581.227
0.677986	581.227
0.701365	581.227
0.735134	584.838
0.774099	592.058
0.813064	592.058
0.83904	595.668
0.870212	595.668
0.885798	599.278
0.919567	602.888
0.937751	617.329
0.961129	635.379
