Adsorption isotherm of Nitrogen on (Me2NH2)[Cd(TTCA)(H2O)].3DMF.H2O
DOI: 10.1021/acs.cgd.5b00634
Article source: Figure 2
Adsorbate Nitrogen: InChIKey IJGRMHOSHXDMSA-UHFFFAOYSA-N
Kind: experiment
Temperature: 77 K
Tabular data in the source: 0
pressure (bar)	uptake (cm3(STP)/g)
0.000718	40.8335
0.00091	30.3335
0.000929	50.6665
0.001097	20.1668
0.001283	10.0002
0.001833	60.0003
0.007057	64.9988
0.010029	67.165
0.021751	66.6631
0.048166	67.8254
0.068708	68.4887
0.080448	68.9868
0.099519	69.4836
0.101022	71.4834
0.120054	69.8136
0.140586	69.9769
0.150896	72.4752
0.161124	70.4735
0.180193	70.8037
0.199259	70.9672
0.202231	73.1334
0.250593	71.6254
0.253569	73.9583
0.284371	74.4532
0.301924	72.117
0.335711	75.4448
0.354725	72.775
0.400243	76.1008
0.406057	73.2665
0.448636	76.2595
0.454461	74.0919
0.507259	74.5832
0.507302	76.9166
0.555695	77.0753
0.558594	75.2415
0.609934	76.233
0.609949	77.0663
0.659805	77.0581
0.693537	77.3859
0.709673	77.7166
0.760998	77.8748
0.810863	78.3666
0.813805	78.8661
0.832868	78.863
0.862201	79.1915
0.86807	79.3572
0.88419	78.8546
0.895933	79.5193
0.919398	79.6821
0.938454	79.3456
0.945795	79.8444
0.964854	79.6746
0.975124	80.0063
0.989782	79.6705
1.00299	80.0017
