Adsorption isotherm of Carbon Dioxide on (Me2NH2)[Cd(TTCA)(H2O)].3DMF.H2O
DOI: 10.1021/acs.cgd.5b00634
Article source: Figure 2
Adsorbate Carbon Dioxide: InChIKey CURLTUGMZLYLDI-UHFFFAOYSA-N
Kind: experiment
Temperature: 195 K
Tabular data in the source: 0
pressure (bar)	uptake (cm3(STP)/g)
0.000137	7.33331
0.000565	30.1666
0.00124	13.8335
0.001911	21.9997
0.002195	37.1663
0.008328	44.4987
0.008349	45.6653
0.011306	43.4982
0.020355	46.4967
0.032473	53.3281
0.042924	51.1598
0.059511	56.4904
0.069952	53.8221
0.080465	54.9871
0.083535	58.8199
0.097043	59.8177
0.104477	56.6499
0.11198	57.1486
0.115044	60.6482
0.127049	61.4796
0.135983	58.3114
0.146549	62.3097
0.161549	62.974
0.165983	59.64
0.173549	63.4721
0.181052	63.9709
0.207976	61.1332
0.241038	65.7945
0.261958	62.4578
0.305516	67.4508
0.31444	63.7827
0.363925	65.1081
0.401469	69.1021
0.414902	66.0999
0.467374	66.9248
0.500422	70.9195
0.519847	67.7497
0.543837	68.2458
0.570827	68.9081
0.597868	72.2371
0.600809	69.2366
0.621798	69.5666
0.648785	70.0623
0.675769	70.3912
0.69531	73.3881
0.701258	70.8871
0.725248	71.3833
0.77772	72.2082
0.789752	74.3729
0.827189	72.7002
0.881156	73.1915
0.887181	74.8572
0.933631	74.1831
0.984602	74.8415
