Adsorption isotherm of Carbon Dioxide on (Me2NH2)[Cd(TTCA)(H2O)].3DMF.H2O
DOI: 10.1021/acs.cgd.5b00634
Article source: Figure 3a
Adsorbate Carbon Dioxide: InChIKey CURLTUGMZLYLDI-UHFFFAOYSA-N
Kind: experiment
Temperature: 298 K
Tabular data in the source: 0
pressure (bar)	uptake (cm3(STP)/g)
0	0.867679
0.007005	0.520607
0.012259	0.780911
0.028021	1.56182
0.052539	5.03254
0.054291	3.21041
0.08056	4.77223
0.10683	6.16052
0.1331	7.54881
0.15937	8.67679
0.187391	9.89154
0.211909	11.0195
0.2662	12.8416
0.318739	17.6139
0.371278	16.1388
0.37303	19.0889
0.425569	17.4403
0.42732	20.4772
0.47986	18.7419
0.534151	22.5597
0.58669	20.7375
0.637478	21.7787
0.642732	24.295
0.691769	22.7332
0.69352	24.8156
0.747811	23.4273
0.749562	25.423
0.80035	24.1215
0.802102	25.8568
0.833625	26.1171
0.85289	24.8156
0.887916	26.4642
0.90718	25.423
0.942207	26.6377
0.95972	26.0304
1.01401	26.551
