Adsorption isotherm of Carbon Dioxide on (Me2NH2)[Cd(TTCA)(H2O)].3DMF.H2O
DOI: 10.1021/acs.cgd.5b00634
Article source: Figure 3a
Adsorbate Carbon Dioxide: InChIKey CURLTUGMZLYLDI-UHFFFAOYSA-N
Kind: experiment
Temperature: 273 K
Tabular data in the source: 0
pressure (bar)	uptake (cm3(STP)/g)
0.001751	0.780911
0.005254	1.73536
0.008757	1.21475
0.012259	2.34273
0.014011	3.12364
0.02627	4.42516
0.052539	9.63124
0.078809	11.2798
0.105079	13.7961
0.10683	15.9653
0.131349	15.8785
0.15937	17.8742
0.185639	19.436
0.21366	23.6009
0.2662	23.2538
0.318739	28.1996
0.32049	25.2495
0.371278	29.8482
0.37303	26.9848
0.425569	28.3731
0.42732	31.3232
0.47986	29.6746
0.532399	33.5792
0.534151	30.8026
0.58669	31.8438
0.639229	35.2278
0.640981	32.885
0.69352	35.8351
0.74606	36.4425
0.747811	34.4469
0.80035	35.2278
0.833625	37.2234
0.854641	36.0087
0.887916	37.4837
0.90718	36.5293
0.940455	37.744
0.961471	37.2234
1.01401	37.744
