Adsorption isotherm of Carbon Dioxide on IRMOF-1
DOI: 10.1039/C0jm02891f
Adsorbate Carbon Dioxide: InChIKey CURLTUGMZLYLDI-UHFFFAOYSA-N
Temperature: 298 K
Tabular data in the source: 0
pressure (bar)	uptake (mg/g)
1.9992	93.0322
8.16603	360.937
11.9941	565.647
17.8313	792.581
20.0024	855.788
30.0478	966.908
40.6093	984.826
49.6633	991.666
54.6985	957.784
