Adsorption isotherm of Carbon Dioxide on COF-108
DOI: 10.1039/C0jm02891f
Adsorbate Carbon Dioxide: InChIKey CURLTUGMZLYLDI-UHFFFAOYSA-N
Temperature: 298 K
Tabular data in the source: 0
pressure (bar)	uptake (mg/g)
5.00266	202.019
10.0065	494.741
19.8862	1352.35
29.9133	3411.7
40.0505	3838.36
50.1814	3788.83
55.1808	3741.42
