Adsorption isotherm of Carbon Dioxide on COF-5
DOI: 10.1039/C0jm02891f
Adsorbate Carbon Dioxide: InChIKey CURLTUGMZLYLDI-UHFFFAOYSA-N
Temperature: 298 K
Tabular data in the source: 0
pressure (bar)	uptake (mg/g)
1.33679	33.4498
11.8718	241.432
19.5649	386.252
29.5916	631.535
35.2736	769.038
39.7917	835.813
44.6515	857.844
49.6836	846.323
54.8833	834.791
