Adsorption isotherm of Carbon Dioxide on COF-10
DOI: 10.1039/C0jm02891f
Adsorbate Carbon Dioxide: InChIKey CURLTUGMZLYLDI-UHFFFAOYSA-N
Temperature: 298 K
Tabular data in the source: 0
pressure (bar)	uptake (mg/g)
4.00828	115.256
11.5322	271.268
15.7139	345.519
19.5592	427.246
29.2464	702.366
39.9209	1111.58
43.7709	1159.77
49.8075	1159.36
54.6698	1162.76
