Adsorption isotherm of Carbon Dioxide on COF-102
DOI: 10.1039/C0jm02891f
Adsorbate Carbon Dioxide: InChIKey CURLTUGMZLYLDI-UHFFFAOYSA-N
Temperature: 298 K
Tabular data in the source: 0
pressure (bar)	uptake (mg/g)
0.527506	90.4855
6.58756	654.88
19.8832	1125.59
30.0171	1302.82
40.0174	1321.37
50.148	1249.17
54.8848	1247.21
