Adsorption isotherm of Carbon Dioxide on COF-05
DOI: 10.1039/C0jm02891f
Adsorbate Carbon Dioxide: InChIKey CURLTUGMZLYLDI-UHFFFAOYSA-N
Temperature: 298 K
Tabular data in the source: 0
pressure (bar)	uptake (mg/g)
2.63276	89.6175
12.1091	289.792
19.6114	468.105
29.6141	668.063
40.0174	1321.37
50.2817	1407.84
54.8866	1383.27
