Adsorption isotherm of Carbon Dioxide on COF-05
DOI: 10.1039/C0jm02891f
Adsorbate Carbon Dioxide: InChIKey CURLTUGMZLYLDI-UHFFFAOYSA-N
Temperature: 298 K
Tabular data in the source: 0
pressure (bar)	uptake (mg/g)
14.0869	606.437
15.7986	696.434
18.037	808.89
20.4075	966.643
29.8963	2119.19
40.3665	7851.84
44.0626	8757.34
50.6487	9298.85
55.3855	9296.89
