Adsorption isotherm of Carbon Dioxide on COF-05
DOI: 10.1039/C0jm02891f
Adsorbate Carbon Dioxide: InChIKey CURLTUGMZLYLDI-UHFFFAOYSA-N
Temperature: 298 K
Tabular data in the source: 0
pressure (bar)	uptake (mg/g)
12.5071	539.061
24.8907	1690.42
30.0383	2912.79
39.8425	8033.46
50.2444	8573.39
55.1125	8548.71
