Adsorption isotherm of Carbon Dioxide on COF-8
DOI: 10.1039/C0jm02891f
Adsorbate Carbon Dioxide: InChIKey CURLTUGMZLYLDI-UHFFFAOYSA-N
Temperature: 298 K
Tabular data in the source: 0
pressure (bar)	uptake (mg/g)
0.834777	26.0304
11.7004	267.53
15.7124	356.699
19.7222	460.775
25.5776	557.273
30.0962	620.321
39.987	638.284
49.3779	633.921
54.5782	618.662
