Adsorption isotherm of Carbon Dioxide on TP-COF
DOI: 10.1039/C0jm02891f
Adsorbate Carbon Dioxide: InChIKey CURLTUGMZLYLDI-UHFFFAOYSA-N
Temperature: 298 K
Tabular data in the source: 0
pressure (bar)	uptake (mg/g)
2.00128	78.1253
8.85968	196.915
11.7046	237.716
15.5525	300.81
19.9029	367.596
29.7635	601.71
40.1167	910.325
49.833	976.748
54.6985	957.784
