Adsorption isotherm of Xenon on MIL-53(Al)
DOI: 10.1021/Ja103105y
Adsorbate Xenon: InChIKey FHNFHKCVQCLJFQ-UHFFFAOYSA-N
Temperature: 293 K
Tabular data in the source: 0
pressure (bar)	uptake (atoms/unit cell)
0.0137495	0.0256126
0.072287	0.26832
0.144584	0.549387
0.179035	0.715403
0.23065	0.881564
0.285657	0.996762
0.313234	1.14997
0.351118	1.31602
0.378637	1.39274
0.478384	1.66129
0.540315	1.85303
0.578141	1.94259
0.640257	2.37655
0.681612	2.59361
0.740179	2.87456
0.781496	3.04064
0.843398	3.19414
0.901896	3.38585
0.984413	3.56502
1.08065	3.73156
1.14249	3.80858
1.23182	3.91132
1.3005	3.95015
