Adsorption isotherm of Xenon on MIL-53(Al)
DOI: 10.1021/Ja103105y
Adsorbate Xenon: InChIKey FHNFHKCVQCLJFQ-UHFFFAOYSA-N
Temperature: 220 K
Tabular data in the source: 0
pressure (bar)	uptake (cm3(STP)/g)
5.55e-17	5.48246
0.0075	20.8265
0.01125	57.0073
0.02625	61.3795
0.0375	64.6587
0.06375	69.0207
0.08625	69.0001
0.1425	73.3347
0.1875	74.3901
0.21	74.3695
0.26625	76.5111
0.3075	98.4032
0.31875	115.937
0.345	129.071
0.3675	144.401
0.40875	157.521
0.435	164.076
0.4875	170.607
0.53625	173.852
0.6	177.083
0.64875	180.328
0.6675	183.601
0.72	184.649
0.79875	187.867
0.86625	191.094
0.93	192.133
1.005	194.257
1.065	194.202
1.1325	197.43
1.1925	196.279
