Adsorption isotherm of Xenon on MIL-53(Al)
DOI: 10.1021/Ja103105y
Adsorbate Xenon: InChIKey FHNFHKCVQCLJFQ-UHFFFAOYSA-N
Temperature: 292 K
Tabular data in the source: 0
pressure (bar)	uptake (cm3(STP)/g)
0.0375	1.10132
0.07875	6.60793
0.11625	9.91189
0.13875	14.3172
0.2175	20.9251
0.27	27.533
0.3375	31.9383
0.405	39.6476
0.44625	44.0529
0.4875	51.7621
0.53625	56.1674
0.615	59.4714
0.71625	62.7753
0.8175	63.8767
0.8625	62.7753
0.91125	63.8767
0.945	63.8767
1.01625	63.8767
1.08	62.7753
