Adsorption isotherm of Xenon on MIL-53(Al)
DOI: 10.1021/Ja103105y
Adsorbate Xenon: InChIKey FHNFHKCVQCLJFQ-UHFFFAOYSA-N
Temperature: 293 K
Tabular data in the source: 0
pressure (bar)	uptake (atoms/unit cell)
0.575342	2.29816
0.681507	1.91645
0.835616	2.02135
1.07534	1.85924
1.2911	1.77343
