Adsorption isotherm of Xenon on MIL-53(Al)
DOI: 10.1021/Ja103105y
Adsorbate Xenon: InChIKey FHNFHKCVQCLJFQ-UHFFFAOYSA-N
Temperature: 293 K
Tabular data in the source: 0
pressure (bar)	uptake (atoms/unit cell)
0.0787671	0.269809
0.109589	0.410959
0.140411	0.539325
0.202055	0.77049
0.280822	1.01473
0.335616	1.22021
0.383562	1.42557
0.479452	1.74681
0.534247	1.90115
0.575342	2.01691
0.623288	2.15835
0.674658	2.22315
0.773973	2.31433
0.835616	2.34095
0.893836	2.38029
1.02397	2.38251
1.07534	2.38339
1.2089	2.38566
1.29452	2.39991
