Adsorption isotherm of Xenon on MIL-53(Al)
DOI: 10.1021/Ja103105y
Adsorbate Xenon: InChIKey FHNFHKCVQCLJFQ-UHFFFAOYSA-N
Temperature: 293 K
Tabular data in the source: 0
pressure (bar)	uptake (atoms/unit cell)
0.00342466	0.0256266
0.0308219	0.128366
0.0650685	0.256791
0.0958904	0.397941
0.126712	0.513524
0.184932	0.719061
0.229452	0.834877
0.267123	1.0145
0.308219	1.13025
0.335616	1.24578
0.40411	1.45149
0.428082	1.60531
0.458904	1.78481
0.486301	1.96426
0.527397	2.11836
0.582192	2.22157
0.633562	2.27358
0.722603	2.31345
0.770548	2.35262
0.945205	2.38117
1.08562	2.38356
