Adsorption isotherm of Xenon on MIL-53(Al)
DOI: 10.1021/Ja103105y
Adsorbate Xenon: InChIKey FHNFHKCVQCLJFQ-UHFFFAOYSA-N
Temperature: 323 K
Tabular data in the source: 0
pressure (bar)	uptake (cm3(STP)/g)
0.0525	2.20264
0.06375	1.10132
0.10125	3.30396
0.13125	5.50661
0.2025	9.91189
0.26625	12.1145
0.29625	14.3172
0.33375	15.4185
0.39	17.6211
0.4275	20.9251
0.46125	20.9251
0.5325	24.2291
0.59625	26.4317
0.63	27.533
0.6675	28.6344
0.73125	31.9383
0.765	33.0396
0.8025	34.141
0.8625	34.141
0.92625	38.5463
0.9975	40.7489
1.065	41.8502
