Adsorption isotherm of Xenon on MIL-53(Al)
DOI: 10.1021/Ja103105y
Adsorbate Xenon: InChIKey FHNFHKCVQCLJFQ-UHFFFAOYSA-N
Temperature: 195 K
Tabular data in the source: 0
pressure (bar)	uptake (cm3(STP)/g)
0.00375	67.979
0.03	75.6305
0.0675	81.0787
0.07875	95.3228
0.0825	106.284
0.09	117.242
0.09375	128.204
0.0975	139.165
0.10125	150.127
0.10875	161.085
0.1125	170.95
0.12	181.908
0.13125	199.441
0.14625	207.103
0.17625	213.655
0.21375	219.103
0.2475	223.458
0.28125	226.717
0.315	229.975
0.34125	233.241
0.375	234.306
0.40875	236.469
0.44625	237.531
0.48375	238.593
0.5175	240.755
0.555	242.914
0.5925	243.976
0.61125	243.959
0.645	245.025
0.6825	246.087
0.735	247.135
0.7725	247.101
0.80625	247.07
0.85875	249.215
0.89625	249.181
0.93375	251.34
0.9675	250.212
0.99	250.192
1.0275	250.158
1.065	250.123
1.1025	250.089
1.14	250.055
1.1775	250.021
