Adsorption isotherm of Xenon on MIL-53(Al)
DOI: 10.1021/Ja103105y
Adsorbate Xenon: InChIKey FHNFHKCVQCLJFQ-UHFFFAOYSA-N
Temperature: 273 K
Tabular data in the source: 0
pressure (bar)	uptake (cm3(STP)/g)
0.04125	5.50661
0.05625	8.81057
0.0825	13.2159
0.105	17.6211
0.13875	26.4317
0.21	49.5595
0.22875	56.1674
0.2625	61.674
0.28125	62.7753
0.33	67.1806
0.3675	68.2819
0.4125	67.1806
0.4575	68.2819
0.495	69.3833
0.525	69.3833
0.55125	68.2819
0.585	70.4846
0.615	71.5859
0.66375	69.3833
0.705	71.5859
0.7425	72.6872
0.79875	70.4846
0.85875	72.6872
0.89625	72.6872
0.93	72.6872
0.97125	73.7885
1.0275	73.7885
1.06875	73.7885
