Adsorption isotherm of Carbon Dioxide on MIL-53(Cr)
DOI: 10.1021/Jp303686m
Adsorbate Carbon Dioxide: InChIKey CURLTUGMZLYLDI-UHFFFAOYSA-N
Temperature: 300 K
Tabular data in the source: 0
pressure (bar)	uptake (molecules/unitcell)
0.0758327	0.346154
0.113006	0.692308
0.304277	1.16434
0.456753	1.66783
0.649106	1.88811
0.918778	2.10839
1.42081	2.23427
1.76835	2.32867
2.19333	2.39161
2.57953	2.48601
3.00384	2.70629
3.3903	2.73776
3.81542	2.76923
4.20162	2.86364
4.35612	2.8951
4.70352	3.02098
4.93453	3.24126
5.20407	3.49301
5.39669	3.65035
5.55025	3.9021
5.74233	4.18531
5.89575	4.46853
6.08784	4.75175
6.24125	5.03497
6.43334	5.31818
6.62555	5.56993
6.8563	5.85315
7.08732	6.07343
7.35699	6.29371
7.62665	6.51399
7.93513	6.7028
8.28252	6.82867
8.63006	6.92308
8.97746	7.04895
9.36351	7.17483
9.7109	7.3007
10.2904	7.3951
10.9472	7.48951
11.6426	7.61538
12.3377	7.77273
12.84	7.83566
13.5739	7.99301
14.3469	8.05594
14.8875	8.18182
14.8878	8.11888
