Adsorption isotherm of Carbon Dioxide on MIL-53(Cr)
DOI: 10.1021/Jp303686m
Adsorbate Carbon Dioxide: InChIKey CURLTUGMZLYLDI-UHFFFAOYSA-N
Temperature: 300 K
Tabular data in the source: 0
pressure (bar)	uptake (molecules/unitcell)
0.0377136	0.22028
0.0735347	0.881119
0.30279	1.51049
0.76441	2.04545
1.6133	2.42308
2.42475	2.51748
3.12009	2.64336
4.08618	2.73776
4.8591	2.8007
5.28206	3.33566
5.43386	3.9965
5.58526	4.75175
5.69894	5.28671
5.85034	6.04196
5.92549	6.54545
5.96294	6.82867
6.38792	6.89161
6.85157	6.95455
7.23803	6.98601
7.70141	7.11189
8.04908	7.17483
8.39675	7.23776
8.82187	7.26923
9.2082	7.33217
9.63332	7.36364
10.0968	7.45804
10.5606	7.48951
10.7923	7.55245
11.1788	7.58392
11.6038	7.64685
11.913	7.64685
12.3765	7.74126
12.7631	7.74126
13.1883	7.77273
13.5747	7.8042
13.9612	7.83566
14.4248	7.8986
14.8501	7.8986
