Adsorption isotherm of Arsenate on Co-Al-Fe
DOI: 10.1021/acsami.6b16414
Article source: Figure 7
Adsorbate Arsenate: InChIKey HAYXDMNJJFVXCI-UHFFFAOYSA-N
Kind: experiment
Temperature: 298 K
Tabular data in the source: 0
pressure (bar)	uptake (mg/g)
1.01325	3.771
1.01325	12.633
1.01325	25.065
1.01325	47.784
1.01325	80.556
1.01325	79.354
