Adsorption isotherm of As(III) on Co-Al-Fe
DOI: 10.1021/acsami.6b16414
Article source: Figure 7
Adsorbate As(III): InChIKey LULLIKNODDLMDQ-UHFFFAOYSA-N
Kind: experiment
Temperature: 298 K
Tabular data in the source: 0
pressure (bar)	uptake (mg/g)
1.01325	0.424
1.01325	2.036
1.01325	6.588
1.01325	11.117
1.01325	28.489
1.01325	53.294
1.01325	112.666
1.01325	128.824
