Adsorption isotherm of Sodium Chloride, Bovine Serum Albumin, Water on Toyopearl PPG-600M
DOI: 10.1016/j.chroma.2017.09.024
Article source: Figure 2
Adsorbate Sodium Chloride: InChIKey FAPWRFPIFSIZLT-UHFFFAOYSA-M
Adsorbate Bovine Serum Albumin: InChIKey NIST-ISODB-52CDAC8E72899271CC9F
Adsorbate Water: InChIKey XLYOFNOQVPJJNP-UHFFFAOYSA-N
Kind: experiment
Temperature: 298 K
Tabular data in the source: 0
pressure (bar)	Sodium Chloride fraction	Sodium Chloride uptake (mmol adsorbed)	Bovine Serum Albumin fraction	Bovine Serum Albumin uptake (mmol adsorbed)	Water fraction	Water uptake (mmol adsorbed)	total uptake (mmol adsorbed)
1.01325			0.001735	0.00202			
1.01325			0.002346	0.00989			
1.01325			0.003354	0.01662			
1.01325			0.004774	0.02359			
1.01325			0.007748	0.03475			
1.01325			0.010061	0.03842			
1.01325			0.013134	0.04881			
1.01325			0.017115	0.06695			
1.01325			0.023002	0.0756			
1.01325			0.031709	0.08521			
1.01325			0.03879	0.1142			
1.01325			0.051275	0.11248			
1.01325			0.065909	0.14664			
1.01325			0.081908	0.15861			
