Adsorption isotherm of Bovine Serum Albumin, Water on Toyopearl PPG-600M
DOI: 10.1016/j.chroma.2017.09.024
Article source: Figure 2
Adsorbate Bovine Serum Albumin: InChIKey NIST-ISODB-52CDAC8E72899271CC9F
Adsorbate Water: InChIKey XLYOFNOQVPJJNP-UHFFFAOYSA-N
Kind: experiment
Temperature: 298 K
Tabular data in the source: 0
pressure (bar)	Bovine Serum Albumin fraction	Bovine Serum Albumin uptake (mmol adsorbed)	Water fraction	Water uptake (mmol adsorbed)	total uptake (mmol adsorbed)
1.01325	0.000495	0.00051			
1.01325	0.001468	0.00367			
1.01325	0.002293	0.00634			
1.01325	0.003299	0.009			
1.01325	0.004404	0.01229			
1.01325	0.005724	0.01648			
1.01325	0.007885	0.02028			
1.01325	0.00998	0.02992			
1.01325	0.013889	0.03434			
1.01325	0.0241	0.04774			
1.01325	0.030434	0.05507			
1.01325	0.047062	0.07682			
1.01325	0.057652	0.0854			
1.01325	0.072894	0.10741			
1.01325	0.086321	0.12588			
