Adsorption isotherm of Ammonium Sulfate, Bovine Serum Albumin, Ammonium Chloride, Water on Toyopearl PPG-600M
DOI: 10.1016/j.chroma.2017.09.024
Article source: Figure 2
Adsorbate Ammonium Sulfate: InChIKey BFNBIHQBYMNNAN-UHFFFAOYSA-N
Adsorbate Bovine Serum Albumin: InChIKey NIST-ISODB-52CDAC8E72899271CC9F
Adsorbate Ammonium Chloride: InChIKey NLXLAEXVIDQMFP-UHFFFAOYSA-N
Adsorbate Water: InChIKey XLYOFNOQVPJJNP-UHFFFAOYSA-N
Kind: experiment
Temperature: 298 K
Tabular data in the source: 0
pressure (bar)	Ammonium Sulfate fraction	Ammonium Sulfate uptake (mmol adsorbed)	Bovine Serum Albumin fraction	Bovine Serum Albumin uptake (mmol adsorbed)	Ammonium Chloride fraction	Ammonium Chloride uptake (mmol adsorbed)	Water fraction	Water uptake (mmol adsorbed)	total uptake (mmol adsorbed)
1.01325			-2.9e-05	0.02319					
1.01325			-1.5e-05	0.00777					
1.01325			0.000172	0.03682					
1.01325			0.000355	0.046					
1.01325			0.000956	0.07913					
1.01325			0.001043	0.10181					
1.01325			0.001677	0.13519					
1.01325			0.003153	0.15876					
1.01325			0.005096	0.20119					
1.01325			0.008509	0.23164					
1.01325			0.011872	0.26018					
1.01325			0.020379	0.28132					
1.01325			0.029019	0.2998					
1.01325			0.04142	0.32931					
1.01325			0.054395	0.339					
1.01325			0.070779	0.31875					
