Adsorption isotherm of Sodium Chloride, Bovine Serum Albumin, Sodium Sulfate, Water on Toyopearl PPG-600M
DOI: 10.1016/j.chroma.2017.09.024
Article source: Figure 2
Adsorbate Sodium Chloride: InChIKey FAPWRFPIFSIZLT-UHFFFAOYSA-M
Adsorbate Bovine Serum Albumin: InChIKey NIST-ISODB-52CDAC8E72899271CC9F
Adsorbate Sodium Sulfate: InChIKey PMZURENOXWZQFD-UHFFFAOYSA-L
Adsorbate Water: InChIKey XLYOFNOQVPJJNP-UHFFFAOYSA-N
Kind: experiment
Temperature: 298 K
Tabular data in the source: 0
pressure (bar)	Sodium Chloride fraction	Sodium Chloride uptake (mmol adsorbed)	Bovine Serum Albumin fraction	Bovine Serum Albumin uptake (mmol adsorbed)	Sodium Sulfate fraction	Sodium Sulfate uptake (mmol adsorbed)	Water fraction	Water uptake (mmol adsorbed)	total uptake (mmol adsorbed)
1.01325			0.00313	0.0078					
1.01325			0.00629	0.02045					
1.01325			0.009952	0.03279					
1.01325			0.0134	0.03759					
1.01325			0.018536	0.03854					
1.01325			0.024291	0.056					
1.01325			0.030333	0.06865					
1.01325			0.036349	0.10183					
1.01325			0.049541	0.10536					
1.01325			0.070819	0.15289					
1.01325			0.083992	0.19612					
