Adsorption isotherm of Ammonium Sulfate, Bovine Serum Albumin, Ammonium Chloride, Water on Toyopearl PPG-600M
DOI: 10.1016/j.chroma.2017.09.024
Article source: Figure 2
Adsorbate Ammonium Sulfate: InChIKey BFNBIHQBYMNNAN-UHFFFAOYSA-N
Adsorbate Bovine Serum Albumin: InChIKey NIST-ISODB-52CDAC8E72899271CC9F
Adsorbate Ammonium Chloride: InChIKey NLXLAEXVIDQMFP-UHFFFAOYSA-N
Adsorbate Water: InChIKey XLYOFNOQVPJJNP-UHFFFAOYSA-N
Kind: experiment
Temperature: 298 K
Tabular data in the source: 0
pressure (bar)	Ammonium Sulfate fraction	Ammonium Sulfate uptake (mmol adsorbed)	Bovine Serum Albumin fraction	Bovine Serum Albumin uptake (mmol adsorbed)	Ammonium Chloride fraction	Ammonium Chloride uptake (mmol adsorbed)	Water fraction	Water uptake (mmol adsorbed)	total uptake (mmol adsorbed)
1.01325			0.000316	0.00815					
1.01325			0.000583	0.02319					
1.01325			0.000686	0.04765					
1.01325			0.001601	0.07951					
1.01325			0.002597	0.09977					
1.01325			0.003793	0.12843					
1.01325			0.005882	0.15099					
1.01325			0.009775	0.18551					
1.01325			0.014643	0.20755					
1.01325			0.019692	0.23022					
1.01325			0.02901	0.24996					
1.01325			0.038213	0.27518					
1.01325			0.070805	0.27615					
