Adsorption isotherm of Bovine Serum Albumin, Ammonium Chloride, Water on Toyopearl PPG-600M
DOI: 10.1016/j.chroma.2017.09.024
Article source: Figure 2
Adsorbate Bovine Serum Albumin: InChIKey NIST-ISODB-52CDAC8E72899271CC9F
Adsorbate Ammonium Chloride: InChIKey NLXLAEXVIDQMFP-UHFFFAOYSA-N
Adsorbate Water: InChIKey XLYOFNOQVPJJNP-UHFFFAOYSA-N
Kind: experiment
Temperature: 298 K
Tabular data in the source: 0
pressure (bar)	Bovine Serum Albumin fraction	Bovine Serum Albumin uptake (mmol adsorbed)	Ammonium Chloride fraction	Ammonium Chloride uptake (mmol adsorbed)	Water fraction	Water uptake (mmol adsorbed)	total uptake (mmol adsorbed)
1.01325	0.000133	0.00395					
1.01325	0.000733	0.03083					
1.01325	0.001032	0.04052					
1.01325	0.001432	0.05517					
1.01325	0.002113	0.07301					
1.01325	0.002993	0.0911					
1.01325	0.005081	0.11263					
1.01325	0.00664	0.13646					
1.01325	0.011425	0.15786					
1.01325	0.016325	0.17735					
1.01325	0.021424	0.19696					
1.01325	0.030362	0.21887					
1.01325	0.039563	0.23618					
1.01325	0.05439	0.25578					
1.01325	0.067305	0.27527					
1.01325	0.084425	0.25825					
