Adsorption isotherm of Bovine Serum Albumin, Sodium Sulfate, Water on Toyopearl PPG-600M
DOI: 10.1016/j.chroma.2017.09.024
Article source: Figure 2
Adsorbate Bovine Serum Albumin: InChIKey NIST-ISODB-52CDAC8E72899271CC9F
Adsorbate Sodium Sulfate: InChIKey PMZURENOXWZQFD-UHFFFAOYSA-L
Adsorbate Water: InChIKey XLYOFNOQVPJJNP-UHFFFAOYSA-N
Kind: experiment
Temperature: 298 K
Tabular data in the source: 0
pressure (bar)	Bovine Serum Albumin fraction	Bovine Serum Albumin uptake (mmol adsorbed)	Sodium Sulfate fraction	Sodium Sulfate uptake (mmol adsorbed)	Water fraction	Water uptake (mmol adsorbed)	total uptake (mmol adsorbed)
1.01325	0.000316	0.00114					
1.01325	0.000334	0.02456					
1.01325	0.000345	0.03779					
1.01325	0.00042	0.0495					
1.01325	0.00052	0.09175					
1.01325	0.000599	0.10753					
1.01325	0.000829	0.06274					
1.01325	0.001152	0.13655					
1.01325	0.001974	0.16912					
1.01325	0.007204	0.24648					
1.01325	0.012876	0.29431					
1.01325	0.019447	0.33109					
1.01325	0.030222	0.35389					
1.01325	0.04533	0.39457					
1.01325	0.078302	0.43296					
