Adsorption isotherm of Ammonium Sulfate, Bovine Serum Albumin, Ammonium Chloride, Water on Toyopearl PPG-600M
DOI: 10.1016/j.chroma.2017.09.024
Article source: Figure 2
Adsorbate Ammonium Sulfate: InChIKey BFNBIHQBYMNNAN-UHFFFAOYSA-N
Adsorbate Bovine Serum Albumin: InChIKey NIST-ISODB-52CDAC8E72899271CC9F
Adsorbate Ammonium Chloride: InChIKey NLXLAEXVIDQMFP-UHFFFAOYSA-N
Adsorbate Water: InChIKey XLYOFNOQVPJJNP-UHFFFAOYSA-N
Kind: experiment
Temperature: 298 K
Tabular data in the source: 0
pressure (bar)	Ammonium Sulfate fraction	Ammonium Sulfate uptake (mmol adsorbed)	Bovine Serum Albumin fraction	Bovine Serum Albumin uptake (mmol adsorbed)	Ammonium Chloride fraction	Ammonium Chloride uptake (mmol adsorbed)	Water fraction	Water uptake (mmol adsorbed)	total uptake (mmol adsorbed)
1.01325			0.000399	0.01109					
1.01325			0.00131	0.02026					
1.01325			0.002272	0.03351					
1.01325			0.002654	0.03937					
1.01325			0.003996	0.05479					
1.01325			0.005785	0.06816					
1.01325			0.007658	0.08664					
1.01325			0.010373	0.10141					
1.01325			0.014812	0.12765					
1.01325			0.01948	0.14791					
1.01325			0.025058	0.16345					
1.01325			0.034549	0.18398					
1.01325			0.045534	0.18428					
1.01325			0.059067	0.21766					
