Adsorption isotherm of Sodium Chloride, Bovine Serum Albumin, Sodium Sulfate, Water on Toyopearl PPG-600M
DOI: 10.1016/j.chroma.2017.09.024
Article source: Figure 2
Adsorbate Sodium Chloride: InChIKey FAPWRFPIFSIZLT-UHFFFAOYSA-M
Adsorbate Bovine Serum Albumin: InChIKey NIST-ISODB-52CDAC8E72899271CC9F
Adsorbate Sodium Sulfate: InChIKey PMZURENOXWZQFD-UHFFFAOYSA-L
Adsorbate Water: InChIKey XLYOFNOQVPJJNP-UHFFFAOYSA-N
Kind: experiment
Temperature: 298 K
Tabular data in the source: 0
pressure (bar)	Sodium Chloride fraction	Sodium Chloride uptake (mmol adsorbed)	Bovine Serum Albumin fraction	Bovine Serum Albumin uptake (mmol adsorbed)	Sodium Sulfate fraction	Sodium Sulfate uptake (mmol adsorbed)	Water fraction	Water uptake (mmol adsorbed)	total uptake (mmol adsorbed)
1.01325			0.00428	0.01014					
1.01325			0.00597	0.017					
1.01325			0.009157	0.02568					
1.01325			0.011898	0.03234					
1.01325			0.016195	0.04505					
1.01325			0.020802	0.0513					
1.01325			0.026768	0.07856					
1.01325			0.033645	0.0945					
1.01325			0.044067	0.09825					
1.01325			0.056944	0.12239					
1.01325			0.084271	0.15056					
