Adsorption isotherm of Sodium Chloride, Bovine Serum Albumin, Sodium Sulfate, Water on Toyopearl PPG-600M
DOI: 10.1016/j.chroma.2017.09.024
Article source: Figure 2
Adsorbate Sodium Chloride: InChIKey FAPWRFPIFSIZLT-UHFFFAOYSA-M
Adsorbate Bovine Serum Albumin: InChIKey NIST-ISODB-52CDAC8E72899271CC9F
Adsorbate Sodium Sulfate: InChIKey PMZURENOXWZQFD-UHFFFAOYSA-L
Adsorbate Water: InChIKey XLYOFNOQVPJJNP-UHFFFAOYSA-N
Kind: experiment
Temperature: 298 K
Tabular data in the source: 0
pressure (bar)	Sodium Chloride fraction	Sodium Chloride uptake (mmol adsorbed)	Bovine Serum Albumin fraction	Bovine Serum Albumin uptake (mmol adsorbed)	Sodium Sulfate fraction	Sodium Sulfate uptake (mmol adsorbed)	Water fraction	Water uptake (mmol adsorbed)	total uptake (mmol adsorbed)
1.01325			0.000537	0.00903					
1.01325			0.001292	0.02023					
1.01325			0.002211	0.03028					
1.01325			0.003164	0.04071					
1.01325			0.004496	0.04924					
1.01325			0.006074	0.05407					
1.01325			0.00743	0.07188					
1.01325			0.01039	0.08587					
1.01325			0.014714	0.10622					
1.01325			0.019853	0.13026					
1.01325			0.026857	0.15989					
1.01325			0.034564	0.19065					
1.01325			0.048132	0.19029					
1.01325			0.065352	0.21365					
