Adsorption isotherm of Sodium Chloride, Bovine Serum Albumin, Water on Toyopearl PPG-600M
DOI: 10.1016/j.chroma.2017.09.024
Article source: Figure 2
Adsorbate Sodium Chloride: InChIKey FAPWRFPIFSIZLT-UHFFFAOYSA-M
Adsorbate Bovine Serum Albumin: InChIKey NIST-ISODB-52CDAC8E72899271CC9F
Adsorbate Water: InChIKey XLYOFNOQVPJJNP-UHFFFAOYSA-N
Kind: experiment
Temperature: 298 K
Tabular data in the source: 0
pressure (bar)	Sodium Chloride fraction	Sodium Chloride uptake (mmol adsorbed)	Bovine Serum Albumin fraction	Bovine Serum Albumin uptake (mmol adsorbed)	Water fraction	Water uptake (mmol adsorbed)	total uptake (mmol adsorbed)
1.01325			0.000314	0.00699			
1.01325			0.000395	0.03253			
1.01325			0.000429	0.01842			
1.01325			0.000559	0.08271			
1.01325			0.000608	0.10177			
1.01325			0.000609	0.06238			
1.01325			0.000624	0.1263			
1.01325			0.000626	0.04269			
1.01325			0.000672	0.16429			
1.01325			0.001183	0.20939			
1.01325			0.003081	0.25766			
1.01325			0.011392	0.2675			
1.01325			0.017587	0.29782			
1.01325			0.029252	0.30039			
1.01325			0.04551	0.31041			
1.01325			0.060281	0.31995			
1.01325			0.075944	0.33887			
