Adsorption isotherm of Sodium Chloride, Bovine Serum Albumin, Sodium Sulfate, Water on Toyopearl PPG-600M
DOI: 10.1016/j.chroma.2017.09.024
Article source: Figure 2
Adsorbate Sodium Chloride: InChIKey FAPWRFPIFSIZLT-UHFFFAOYSA-M
Adsorbate Bovine Serum Albumin: InChIKey NIST-ISODB-52CDAC8E72899271CC9F
Adsorbate Sodium Sulfate: InChIKey PMZURENOXWZQFD-UHFFFAOYSA-L
Adsorbate Water: InChIKey XLYOFNOQVPJJNP-UHFFFAOYSA-N
Kind: experiment
Temperature: 298 K
Tabular data in the source: 0
pressure (bar)	Sodium Chloride fraction	Sodium Chloride uptake (mmol adsorbed)	Bovine Serum Albumin fraction	Bovine Serum Albumin uptake (mmol adsorbed)	Sodium Sulfate fraction	Sodium Sulfate uptake (mmol adsorbed)	Water fraction	Water uptake (mmol adsorbed)	total uptake (mmol adsorbed)
1.01325			0.00374	0.00864					
1.01325			0.00633	0.02238					
1.01325			0.011092	0.03038					
1.01325			0.018589	0.0609					
1.01325			0.024564	0.07463					
1.01325			0.031118	0.10668					
1.01325			0.038958	0.1316					
1.01325			0.050107	0.15091					
1.01325			0.064392	0.19441					
1.01325			0.083997	0.17556					
