Adsorption isotherm of Sodium Chloride, Bovine Serum Albumin, Water on Toyopearl PPG-600M
DOI: 10.1016/j.chroma.2017.09.024
Article source: Figure 2
Adsorbate Sodium Chloride: InChIKey FAPWRFPIFSIZLT-UHFFFAOYSA-M
Adsorbate Bovine Serum Albumin: InChIKey NIST-ISODB-52CDAC8E72899271CC9F
Adsorbate Water: InChIKey XLYOFNOQVPJJNP-UHFFFAOYSA-N
Kind: experiment
Temperature: 298 K
Tabular data in the source: 0
pressure (bar)	Sodium Chloride fraction	Sodium Chloride uptake (mmol adsorbed)	Bovine Serum Albumin fraction	Bovine Serum Albumin uptake (mmol adsorbed)	Water fraction	Water uptake (mmol adsorbed)	total uptake (mmol adsorbed)
1.01325			0.000698	0.00229			
1.01325			0.00231	0.00572			
1.01325			0.003108	0.01259			
1.01325			0.00449	0.02124			
1.01325			0.007218	0.03408			
1.01325			0.009855	0.03815			
1.01325			0.012929	0.04819			
1.01325			0.016737	0.06613			
1.01325			0.022783	0.07652			
1.01325			0.031725	0.08644			
1.01325			0.038468	0.1124			
1.01325			0.051285	0.113			
1.01325			0.066009	0.14727			
1.01325			0.081741	0.15681			
