Adsorption isotherm of Ammonium Sulfate, Bovine Serum Albumin, Water on Toyopearl PPG-600M
DOI: 10.1016/j.chroma.2017.09.024
Article source: Figure 2
Adsorbate Ammonium Sulfate: InChIKey BFNBIHQBYMNNAN-UHFFFAOYSA-N
Adsorbate Bovine Serum Albumin: InChIKey NIST-ISODB-52CDAC8E72899271CC9F
Adsorbate Water: InChIKey XLYOFNOQVPJJNP-UHFFFAOYSA-N
Kind: experiment
Temperature: 298 K
Tabular data in the source: 0
pressure (bar)	Ammonium Sulfate fraction	Ammonium Sulfate uptake (mmol adsorbed)	Bovine Serum Albumin fraction	Bovine Serum Albumin uptake (mmol adsorbed)	Water fraction	Water uptake (mmol adsorbed)	total uptake (mmol adsorbed)
1.01325			0.000464	0.00293			
1.01325			0.00179	0.00395			
1.01325			0.00235	0.0065			
1.01325			0.003525	0.0079			
1.01325			0.005577	0.01222			
1.01325			0.008175	0.01541			
1.01325			0.010393	0.02025			
1.01325			0.014182	0.02444			
1.01325			0.018071	0.02813			
1.01325			0.024458	0.03402			
1.01325			0.030867	0.03846			
1.01325			0.075095	0.05944			
1.01325			0.089994	0.06231			
