Adsorption isotherm of Nitrogen on CALF-33-Et2H
DOI: 10.1002/anie.201607745
Article source: Figure 4
Adsorbate Nitrogen: InChIKey IJGRMHOSHXDMSA-UHFFFAOYSA-N
Kind: experiment
Temperature: 77 K
Tabular data in the source: 0
pressure (bar)	uptake (mmol/g)
0.002361	2.0204
0.002574	3.5384
0.002594	3.6169
0.002979	4.8509
0.00303	5.7689
0.003141	1.0229
0.003435	3.964
0.003992	5.653
0.004205	7.0538
0.00456	7.4346
0.007042	7.7894
0.009666	8.0646
0.011642	8.1983
0.015584	8.3449
0.023619	8.5764
0.037237	8.9134
0.05199	9.0062
0.061656	9.0938
0.077716	9.1943
0.101153	9.277
0.124265	9.3622
0.145563	9.414
0.192274	9.5202
0.236026	9.6135
0.282565	9.6657
0.30436	9.6712
0.328121	9.7153
0.370394	9.7469
0.402017	9.7295
0.418077	9.7709
0.463086	9.789
0.496736	9.7475
0.507881	9.8125
0.583652	9.8365
0.600989	9.8368
0.645379	9.8407
0.687085	9.8285
0.720522	9.842
0.765328	9.8396
0.781226	9.8431
0.786799	9.8464
0.824573	9.8503
0.879075	9.8804
0.897243	9.8742
0.91768	9.8648
0.96125	9.9595
