Adsorption isotherm of Carbon Dioxide on CALF-33-Et3
DOI: 10.1002/anie.201607745
Article source: Figure 4
Adsorbate Carbon Dioxide: InChIKey CURLTUGMZLYLDI-UHFFFAOYSA-N
Kind: experiment
Temperature: 288 K
Tabular data in the source: 0
pressure (bar)	uptake (mmol/g)
0.00157	0.00238
0.02031	0.01819
0.04277	0.03637
0.05821	0.05235
0.08133	0.06578
0.09825	0.07887
0.15142	0.10078
0.20021	0.13528
0.25033	0.16519
0.29887	0.1934
0.34958	0.22442
0.39952	0.25194
0.44958	0.28512
0.50019	0.31631
0.5522	0.35014
0.59755	0.37369
0.64831	0.40409
0.70053	0.43107
0.74858	0.4589
0.79955	0.4893
0.85073	0.51842
0.89837	0.54496
0.94809	0.56851
0.99885	0.59763
1.04961	0.62246
1.09995	0.64729
1.14801	0.67426
1.1969	0.69567
