Adsorption isotherm of Methane on CALF-33-Et2H
DOI: 10.1002/anie.201607745
Article source: Figure 4
Adsorbate Methane: InChIKey VNWKTOKETHGBQD-UHFFFAOYSA-N
Kind: experiment
Temperature: 293 K
Tabular data in the source: 0
pressure (bar)	uptake (mmol/g)
0.00374	0.00558
0.02287	0.01546
0.04969	0.02922
0.07548	0.04512
0.10064	0.05544
0.12642	0.07091
0.15303	0.0851
0.20023	0.10917
0.30149	0.15604
0.40067	0.19992
0.50109	0.23908
0.59964	0.26795
0.70006	0.29726
0.79986	0.31757
0.89861	0.33573
1.00007	0.3569
1.10049	0.36264
1.19883	0.37952
