Adsorption isotherm of Nitrogen on CALF-33-Et2H
DOI: 10.1002/anie.201607745
Article source: Figure 4
Adsorbate Nitrogen: InChIKey IJGRMHOSHXDMSA-UHFFFAOYSA-N
Kind: experiment
Temperature: 293 K
Tabular data in the source: 0
pressure (bar)	uptake (mmol/g)
0.01305	0.00547
0.03176	0.00763
0.0822	0.01797
0.10071	0.02227
0.12962	0.03044
0.18075	0.03741
0.21987	0.04425
0.30173	0.05937
0.32139	0.0637
0.34995	0.0694
0.40008	0.07097
0.47142	0.07896
0.51103	0.08371
0.56136	0.09019
0.60119	0.09022
0.68042	0.09672
0.77931	0.10388
0.82922	0.10263
0.89764	0.10655
0.94859	0.10831
1.01971	0.1118
