Adsorption isotherm of Nitrogen on CALF-33-Et3
DOI: 10.1002/anie.201607745
Article source: Figure 4
Adsorbate Nitrogen: InChIKey IJGRMHOSHXDMSA-UHFFFAOYSA-N
Kind: experiment
Temperature: 293 K
Tabular data in the source: 0
pressure (bar)	uptake (mmol/g)
0.01073	0.00242
0.02617	0.00367
0.05497	0.00514
0.11027	0.00956
0.22573	0.02049
0.30461	0.02728
0.3861	0.0338
0.46654	0.04308
0.71456	0.05087
0.8593	0.05515
0.9633	0.06048
