Adsorption isotherm of Carbon Dioxide on CALF-33-Et2H
DOI: 10.1002/anie.201607745
Article source: Figure 4
Adsorbate Carbon Dioxide: InChIKey CURLTUGMZLYLDI-UHFFFAOYSA-N
Kind: experiment
Temperature: 288 K
Tabular data in the source: 0
pressure (bar)	uptake (mmol/g)
0.0019	0.00239
0.01869	0.05026
0.04052	0.09712
0.06211	0.13216
0.08024	0.16824
0.10024	0.20904
0.15104	0.30251
0.19972	0.38111
0.2522	0.46295
0.30006	0.53916
0.3487	0.6118
0.39867	0.67885
0.44865	0.74329
0.4998	0.81152
0.55082	0.86435
0.59794	0.92415
0.64883	0.97468
0.69889	1.0252
0.7483	1.07538
0.79995	1.11852
0.8495	1.16498
0.89883	1.20673
0.94836	1.24075
0.99894	1.27778
1.04996	1.31556
1.09886	1.34634
1.14759	1.38018
1.19631	1.40552
