Adsorption isotherm of Carbon Dioxide on CALF-33-Et2H
DOI: 10.1002/anie.201607745
Article source: Figure 4
Adsorbate Carbon Dioxide: InChIKey CURLTUGMZLYLDI-UHFFFAOYSA-N
Kind: experiment
Temperature: 283 K
Tabular data in the source: 0
pressure (bar)	uptake (mmol/g)
0.00173	0.00307
0.01576	0.03337
0.02657	0.06078
0.03935	0.1047
0.06064	0.15305
0.07879	0.19409
0.09961	0.24378
0.1521	0.34205
0.19982	0.4431
0.24966	0.5316
0.30066	0.61676
0.34802	0.69681
0.39904	0.77227
0.4496	0.85122
0.50051	0.92115
0.5501	0.98845
0.59882	1.05131
0.64811	1.10714
0.69835	1.16362
0.7493	1.22367
0.79921	1.27508
0.8465	1.31946
0.89722	1.37084
0.94806	1.42067
0.99838	1.45956
1.04828	1.50252
1.09879	1.53835
1.14698	1.57485
1.19452	1.60829
