Adsorption isotherm of Nitrogen on CALF-33-Et3
DOI: 10.1002/anie.201607745
Article source: Figure 4
Adsorbate Nitrogen: InChIKey IJGRMHOSHXDMSA-UHFFFAOYSA-N
Kind: experiment
Temperature: 77 K
Tabular data in the source: 0
pressure (bar)	uptake (mmol/g)
0.001246	0.4004
0.001591	1.197
0.001601	1.2323
0.001611	1.2728
0.001773	0.7813
0.002432	3.7424
0.002442	3.8836
0.002452	4.0137
0.002462	4.4181
0.002472	4.8266
0.002482	5.231
0.002493	5.6354
0.002533	2.4062
0.002553	6.4304
0.002574	6.4209
0.002645	6.4004
0.003891	7.1936
0.003911	7.192
0.003972	7.196
0.005816	8.1029
0.009079	8.5676
0.016962	8.7812
0.028807	9.0643
0.050673	9.3526
0.078395	9.5124
0.100129	9.6363
0.12311	9.7091
0.143973	9.763
0.188586	9.8415
0.23397	9.9592
0.243474	9.9555
0.281025	10.0397
0.324534	10.2149
0.336186	10.2601
0.372015	10.3024
0.415382	10.3893
0.430793	10.3883
0.458962	10.4132
0.504497	10.4425
0.526627	10.4633
0.55057	10.4882
0.594068	10.4884
0.622267	10.5067
0.638793	10.5135
0.688463	10.537
0.730188	10.5441
0.784205	10.5709
0.825616	10.5943
0.869946	10.6251
0.881396	10.6314
0.910739	10.6482
0.960642	10.6991
