Adsorption isotherm of Methane on CALF-33-Et3
DOI: 10.1002/anie.201607745
Article source: Figure 4
Adsorbate Methane: InChIKey VNWKTOKETHGBQD-UHFFFAOYSA-N
Kind: experiment
Temperature: 293 K
Tabular data in the source: 0
pressure (bar)	uptake (mmol/g)
0.0019	0.00255
0.01999	0.01037
0.0446	0.01597
0.07493	0.02158
0.09944	0.02671
0.1292	0.02967
0.15175	0.03668
0.2013	0.0426
0.30094	0.06768
0.39979	0.09179
0.5006	0.10946
0.60129	0.12617
0.70092	0.1418
0.80184	0.15745
0.89986	0.17391
1.00058	0.1876
1.10067	0.19913
1.19931	0.20939
