Adsorption isotherm of Carbon Dioxide on CALF-33-Et3
DOI: 10.1002/anie.201607745
Article source: Figure 4
Adsorbate Carbon Dioxide: InChIKey CURLTUGMZLYLDI-UHFFFAOYSA-N
Kind: experiment
Temperature: 283 K
Tabular data in the source: 0
pressure (bar)	uptake (mmol/g)
0.00456	0.00642
0.02068	0.02424
0.03838	0.03693
0.05752	0.05152
0.08124	0.06664
0.09802	0.07852
0.14813	0.12289
0.20087	0.15568
0.25012	0.18492
0.30173	0.2215
0.3502	0.25246
0.39991	0.28836
0.44896	0.32442
0.49883	0.35524
0.54908	0.38953
0.59867	0.42667
0.64846	0.45916
0.69954	0.48846
0.74961	0.52141
0.79995	0.55085
0.84753	0.58379
0.89891	0.61647
0.94977	0.64942
0.99879	0.67858
1.05044	0.71153
1.09998	0.74286
1.14848	0.77203
1.19593	0.80227
