Adsorption isotherm of Carbon Dioxide on CALF-33-Et2H
DOI: 10.1002/anie.201607745
Article source: Figure 4
Adsorbate Carbon Dioxide: InChIKey CURLTUGMZLYLDI-UHFFFAOYSA-N
Kind: experiment
Temperature: 293 K
Tabular data in the source: 0
pressure (bar)	uptake (mmol/g)
0.00379	0.00511
0.02063	0.03441
0.04084	0.06983
0.06081	0.11036
0.08052	0.14392
0.09917	0.17713
0.15073	0.25702
0.20048	0.33418
0.25237	0.40471
0.30138	0.47234
0.34873	0.53657
0.39946	0.59178
0.44846	0.64954
0.5001	0.70067
0.54935	0.75486
0.6	0.80327
0.64865	0.84794
0.69812	0.89347
0.74831	0.93385
0.79903	0.97552
0.84996	1.01419
0.89818	1.04471
0.94848	1.08167
0.99878	1.11262
1.04806	1.1392
1.09938	1.16548
1.14731	1.19014
1.19798	1.21588
