Adsorption isotherm of Carbon Dioxide on CALF-33-Et3
DOI: 10.1002/anie.201607745
Article source: Figure 4
Adsorbate Carbon Dioxide: InChIKey CURLTUGMZLYLDI-UHFFFAOYSA-N
Kind: experiment
Temperature: 293 K
Tabular data in the source: 0
pressure (bar)	uptake (mmol/g)
0.00191	0.00382
0.02	0.01479
0.04184	0.03027
0.06389	0.0436
0.07887	0.04985
0.10979	0.06164
0.17087	0.09443
0.23207	0.13182
0.29248	0.16435
0.35314	0.19336
0.41093	0.22778
0.4721	0.2607
0.53378	0.28976
0.59451	0.31839
0.65702	0.35088
0.71578	0.37929
0.77442	0.40999
0.83456	0.43441
0.89628	0.46235
0.95695	0.49187
1.01706	0.51514
1.07842	0.54098
1.13874	0.56682
1.19261	0.59222
