Adsorption isotherm of Carbon Dioxide on CALF-33-Et2H
DOI: 10.1002/anie.201607745
Article source: Figure 4
Adsorbate Carbon Dioxide: InChIKey CURLTUGMZLYLDI-UHFFFAOYSA-N
Kind: experiment
Temperature: 278 K
Tabular data in the source: 0
pressure (bar)	uptake (mmol/g)
0.00446	0.00884
0.01155	0.03436
0.02145	0.07041
0.04018	0.12484
0.05883	0.18096
0.07953	0.23692
0.09957	0.28947
0.1495	0.40122
0.20123	0.51533
0.24941	0.61348
0.3013	0.71842
0.35047	0.81128
0.39955	0.89591
0.44873	0.97389
0.50021	1.05349
0.55012	1.12918
0.59847	1.1967
0.64854	1.2644
0.69854	1.3275
0.74977	1.39009
0.79943	1.44946
0.84992	1.50406
0.89719	1.55917
0.94818	1.60951
0.99776	1.66003
1.04825	1.70732
1.09956	1.74389
1.14691	1.79101
1.19575	1.82877
