Adsorption isotherm of Carbon Dioxide on CALF-33-Et3
DOI: 10.1002/anie.201607745
Article source: Figure 4
Adsorbate Carbon Dioxide: InChIKey CURLTUGMZLYLDI-UHFFFAOYSA-N
Kind: experiment
Temperature: 278 K
Tabular data in the source: 0
pressure (bar)	uptake (mmol/g)
0.00132	0.00255
0.01882	0.02256
0.04053	0.04409
0.05993	0.05951
0.07991	0.07697
0.09986	0.09058
0.14892	0.12898
0.19944	0.16829
0.25161	0.20215
0.30131	0.2452
0.3501	0.28569
0.40037	0.32315
0.45034	0.36355
0.49922	0.40148
0.55019	0.43993
0.59833	0.48141
0.64861	0.51929
0.69887	0.55391
0.74969	0.59694
0.80003	0.62915
0.84902	0.66801
0.8993	0.70707
0.9485	0.74366
0.99886	0.78127
1.04905	0.81548
1.0994	0.848
1.14811	0.88153
1.19632	0.91541
