Adsorption isotherm of Methane on Zeolite AFI
DOI: 10.1021/Jp904267a
Adsorbate Methane: InChIKey VNWKTOKETHGBQD-UHFFFAOYSA-N
Temperature: 300 K
Tabular data in the source: 0
pressure (bar)	uptake (coverage)
0.0861381	0.00584475
0.199396	0.0140279
0.397323	0.0201652
0.68152	0.0324399
1.31792	0.0528977
2.32938	0.0713097
3.65191	0.114271
5.72531	0.144958
8.20393	0.179736
13.6565	0.218606
24.1375	0.253384
38.9932	0.298391
57.5746	0.333169
114.725	0.367948
179.861	0.404772
337.542	0.443642
735.888	0.466145
993.111	0.500923
1510.98	0.529564
1920.47	0.582755
2670.62	0.627762
3294.14	0.668677
5011.9	0.707547
8342.92	0.723913
10603.9	0.744371
13477.7	0.777104
15657	0.820065
18188.7	0.873255
21772.8	0.930537
26856.1	0.967361
47467.6	0.981682
64059.4	0.998048
94585.5	1.00214
