Adsorption isotherm of Methane on Zeolite AFI
DOI: 10.1021/Jp904267a
Adsorbate Methane: InChIKey VNWKTOKETHGBQD-UHFFFAOYSA-N
Temperature: 300 K
Tabular data in the source: 0
pressure (bar)	uptake (coverage)
0.43471	0.0201652
0.892577	0.0365314
1.48581	0.0549435
2.70604	0.0856302
4.64161	0.1245
7.06202	0.157232
10.1193	0.185873
14.072	0.210423
22.7329	0.25543
34.5872	0.282025
42.6624	0.304529
93.0098	0.363856
174.55	0.406818
290.56	0.431367
347.814	0.449779
781.356	0.511152
935.321	0.547976
2368.85	0.697318
