Adsorption isotherm of Ethane on Zeolite AFI
DOI: 10.1021/Jp904267a
Adsorbate Ethane: InChIKey OTMSDBZUPAUEDD-UHFFFAOYSA-N
Temperature: 300 K
Tabular data in the source: 0
pressure (bar)	uptake (coverage)
0.0458992	0.040623
0.0583383	0.0631266
0.135044	0.108134
0.218158	0.159278
0.352427	0.212468
0.505001	0.306574
1.67508	0.390451
3.33783	0.449779
6.45466	0.480466
12.482	0.527519
24.1375	0.582755
43.9606	0.615487
185.335	0.678906
