Adsorption isotherm of Ethane on Zeolite AFI
DOI: 10.1021/Jp904267a
Adsorbate Ethane: InChIKey OTMSDBZUPAUEDD-UHFFFAOYSA-N
Temperature: 300 K
Tabular data in the source: 0
pressure (bar)	uptake (coverage)
0.0126475	0.0181194
0.0259688	0.0242568
0.0472959	0.0508519
0.0914603	0.0876759
0.147751	0.1245
0.193507	0.16337
0.24595	0.200194
0.385589	0.241109
0.520369	0.296345
0.919739	0.343398
1.35802	0.384314
2.47331	0.42523
3.4394	0.460008
6.65108	0.486603
10.4273	0.521381
18.43	0.552068
29.773	0.586846
51.0689	0.619579
87.5974	0.625716
164.392	0.644128
250.117	0.682998
404.054	0.721868
545.288	0.762783
693.066	0.809836
854.879	0.844614
1119.62	0.883484
1340.24	0.920308
1863.75	0.955087
3196.86	0.97759
5321.56	0.975544
7857.44	0.991911
