Adsorption isotherm of Hydrogen on [{Dy4(PO4)-(PO4)0.5×4(PO4)0.25×4(H2O)2}·6H2O]n
DOI: 10.1021/cg5017005
Article source: Figure 5- H2
Adsorbate Hydrogen: InChIKey UFHFLCQGNIYNRP-UHFFFAOYSA-N
Kind: experiment
Temperature: 77 K
Tabular data in the source: 0
pressure (bar)	uptake (cm3(STP)/g)
0	0.104
0.000243	0.24
0.004418	4.531
0.004904	1.458
0.012777	2.677
0.019211	3.532
0.024997	4.209
0.030377	4.813
0.038341	5.418
0.038422	5.481
0.045333	5.887
0.05353	6.397
0.063977	6.814
0.073055	7.419
0.082701	7.836
0.086562	10.763
0.091061	8.294
0.1048	8.764
0.141055	12.921
0.164116	10.401
0.1904	14.516
0.20037	11.455
0.244892	16.164
0.263303	12.999
0.29135	17.249
0.299304	13.875
0.345924	18.668
0.368671	15.274
0.39463	19.639
0.402747	16.139
0.44735	20.839
0.466804	17.402
0.495976	21.788
0.522655	18.8
0.541146	22.634
0.55368	19.416
0.589043	23.542
0.622561	20.929
0.650375	24.617
0.660497	21.847
0.696184	25.39
0.726966	23.277
0.744648	26.267
0.766584	24.07
0.791419	27.039
0.83048	25.604
0.850096	27.927
0.861911	26.157
0.899361	28.679
0.920902	27.566
0.948716	29.129
0.977087	28.922
1.00585	29.871
