Adsorption isotherm of Carbon Dioxide on [{Dy4(PO4)-(PO4)0.5×4(PO4)0.25×4(H2O)2}·6H2O]n
DOI: 10.1021/cg5017005
Article source: Figure 5- CO2
Adsorbate Carbon Dioxide: InChIKey CURLTUGMZLYLDI-UHFFFAOYSA-N
Kind: experiment
Temperature: 195 K
Tabular data in the source: 0
pressure (bar)	uptake (cm3(STP)/g)
0.000142	5.186
0.000152	5.197
0.004316	13.215
0.004874	11.862
0.010659	14.809
0.016202	16.84
0.022707	18.464
0.02833	19.662
0.032748	20.568
0.036528	21.443
0.04359	22.411
0.050257	23.244
0.05428	25.411
0.05661	23.953
0.065527	25.088
0.071718	25.89
0.077585	26.598
0.084728	27.285
0.091081	28.046
0.096624	28.754
0.103534	29.405
0.106422	29.566
0.153507	33.847
0.158817	33.691
0.197381	36.503
0.202691	37.492
0.252583	40.898
0.257325	40.419
0.301604	43.211
0.307633	44.45
0.354719	46.231
0.359866	47.804
0.409768	49.491
0.41298	51.012
0.457898	53.948
0.459023	54.022
0.507881	55.23
0.508844	55.298
0.547256	57.741
0.564289	60.459
0.611456	61.803
0.612824	63.542
0.659991	66.365
0.662159	66.271
0.711342	69.021
0.713348	69.168
0.73183	71.468
0.764781	71.52
0.812991	75.895
0.818058	74.104
0.855011	78.145
0.8649	76.51
0.911266	79.051
0.918096	78.968
0.958605	80.062
