Adsorption isotherm of Nitrogen on [{Dy4(PO4)-(PO4)0.5×4(PO4)0.25×4(H2O)2}·6H2O]n
DOI: 10.1021/cg5017005
Article source: Figure 4- N2
Adsorbate Nitrogen: InChIKey IJGRMHOSHXDMSA-UHFFFAOYSA-N
Kind: experiment
Temperature: 77 K
Tabular data in the source: 0
pressure (bar)	uptake (ml/g)
0.019444	-0.00575
0.02297	0.02268
0.025331	0.04016
0.032394	0.09781
0.032839	0.07224
0.039324	0.11581
0.047349	0.15519
0.051838	0.1698
0.05736	0.19667
0.059863	0.21623
0.068546	0.25327
0.073998	0.28692
0.085488	0.32735
0.091	0.36909
0.103595	0.40639
0.107496	0.42308
0.132158	0.60386
0.170297	0.69932
0.184655	0.83993
0.211384	0.86469
0.237151	1.05173
0.250404	1.02407
0.281987	1.2265
0.3166	1.26534
0.336186	1.41847
0.353634	1.39028
0.393171	1.58827
0.423812	1.62242
0.434927	1.72886
0.464747	1.7304
0.494638	1.90831
0.501569	1.8196
0.546324	2.03089
0.571372	1.98834
0.596987	2.16025
0.605609	2.0551
0.645075	2.27657
0.672099	2.22072
0.690722	2.3822
0.712376	2.3133
0.74102	2.47738
0.77541	2.46457
0.797793	2.57204
0.806121	2.5162
0.843814	2.66097
0.876664	2.64842
0.89698	2.75276
0.911054	2.69744
0.949628	2.83308
0.974595	2.80932
1.0081	2.86382
