Adsorption isotherm of Carbon Dioxide on [Cu2(L)(H2O)2]
DOI: 10.1039/C4ce00181h
Adsorbate Carbon Dioxide: InChIKey CURLTUGMZLYLDI-UHFFFAOYSA-N
Temperature: 195 K
Tabular data in the source: 0
pressure (bar)	uptake (cm3(STP)/g)
0.0106475	26.5625
0.0171408	30.4688
0.0280059	32.0312
0.036668	36.7188
0.0496952	39.8438
0.0605467	42.9688
0.0648506	48.4375
0.0691476	54.6875
0.0712691	60.9375
0.0733836	67.9688
0.0755049	74.2188
0.0798156	78.9062
0.0841331	82.8125
0.088403	92.1875
0.0884438	87.5
0.0927204	96.0938
0.0992069	100.781
0.101355	103.906
0.10349	108.594
0.112125	116.406
0.131612	127.344
0.146788	133.594
0.157639	136.719
0.1772	139.062
0.201106	142.188
0.225012	145.312
0.248931	146.875
0.298932	151.562
0.346772	154.688
0.394611	157.812
0.444626	160.938
0.490289	164.062
0.540311	166.406
0.590333	168.75
0.636002	171.094
0.686024	173.438
0.736046	175.781
0.781716	178.125
0.831737	180.469
0.877414	182.031
0.931794	183.594
