Adsorption isotherm of Carbon Dioxide on [Cd2(L)]
DOI: 10.1039/C4ce00181h
Adsorbate Carbon Dioxide: InChIKey CURLTUGMZLYLDI-UHFFFAOYSA-N
Temperature: 195 K
Tabular data in the source: 0
pressure (bar)	uptake (cm3(STP)/g)
0.00422229	14.8438
0.00432428	3.125
0.00645242	8.59375
0.00845819	28.125
0.00851937	21.0938
0.0105795	34.375
0.0192485	38.2812
0.0344379	42.9688
0.0496408	46.0938
0.0582554	56.25
0.0583098	50
0.0603836	61.7188
0.0624165	78.125
0.0624572	73.4375
0.0625117	67.1875
0.0644427	95.3125
0.0644902	89.8438
0.0645446	83.5938
0.0665707	100.781
0.0730233	109.375
0.073064	104.688
0.0773271	114.844
0.0859892	119.531
0.0968476	121.875
0.109882	124.219
0.129449	125.781
0.14466	128.125
0.159883	128.906
0.177276	130.469
0.201182	133.594
0.225107	134.375
0.251216	134.375
0.299056	137.5
0.346914	138.281
0.396943	139.844
0.444803	140.625
0.494845	140.625
0.547055	141.406
0.590556	142.969
0.594895	144.531
0.638437	141.406
0.642768	143.75
0.684134	140.625
0.686275	144.531
0.734135	145.312
0.736345	141.406
0.766778	144.531
0.786387	141.406
0.810313	142.188
0.832084	140.625
0.86472	140.625
0.882125	140.625
0.932182	139.062
1.00182	137.5
