Adsorption isotherm of Carbon Dioxide on Zn2L
DOI: 10.1039/C4ce00181h
Adsorbate Carbon Dioxide: InChIKey CURLTUGMZLYLDI-UHFFFAOYSA-N
Temperature: 195 K
Tabular data in the source: 0
pressure (bar)	uptake (cm3(STP)/g)
0.00616005	42.1875
0.0104639	47.6562
0.0147679	53.125
0.0256193	56.25
0.0299436	59.375
0.0386262	61.7188
0.0538427	63.2812
0.0734175	64.0625
0.0907963	67.1875
0.106012	68.75
0.125459	84.375
0.136181	102.344
0.149065	121.875
0.161963	139.844
0.174896	153.906
0.187847	165.625
0.205145	178.125
0.228963	191.406
0.257185	198.438
0.307167	205.469
0.35064	210.156
0.394121	214.062
0.44413	217.969
0.489785	221.875
0.539807	224.219
0.589829	226.562
0.637682	228.125
0.685541	228.906
0.733393	230.469
0.781253	231.25
0.831288	232.031
0.88133	232.031
0.931359	233.594
