Adsorption isotherm of Carbon Dioxide on [Cu2(L)(H2O)6]
DOI: 10.1039/C4ce00181h
Adsorbate Carbon Dioxide: InChIKey CURLTUGMZLYLDI-UHFFFAOYSA-N
Temperature: 195 K
Tabular data in the source: 0
pressure (bar)	uptake (cm3(STP)/g)
0.023294	67.9688
0.0233416	73.4375
0.0254221	78.9062
0.0296581	85.9375
0.0297124	92.1875
0.0317929	96.875
0.0360561	102.344
0.0360969	107.031
0.0403804	110.156
0.044691	114.844
0.0533531	119.531
0.0598396	124.219
0.0706911	127.344
0.0793668	130.469
0.0945698	133.594
0.107604	135.938
0.118469	137.5
0.129327	139.844
0.140192	141.406
0.155395	144.531
0.16626	146.094
0.179294	148.438
0.201025	151.562
0.224931	154.688
0.251006	158.594
0.298831	163.281
0.348838	167.188
0.396671	171.094
0.44451	174.219
0.492356	176.562
0.540195	179.688
0.590209	182.812
0.638056	185.156
0.688084	186.719
0.733748	189.844
0.783769	192.188
0.831615	194.531
0.879453	197.656
0.933827	200
