Adsorption isotherm of Carbon Dioxide on Cu-hfipbb
DOI: 10.1021/jp304631m
Adsorbate Carbon Dioxide: InChIKey CURLTUGMZLYLDI-UHFFFAOYSA-N
Temperature: 303 K
Tabular data in the source: 0
pressure (bar)	uptake (cm3(STP)/g)
3.58e-05	7.38808
5.6e-05	9.32119
8.42e-05	11.1422
0.000103	12.1228
0.000158	14.0559
0.000302	16.6894
0.000449	18.4544
0.000602	19.9112
0.000751	21.144
0.000894	22.2646
0.00104171	23.3572
