Adsorption isotherm of Nitrogen on Cu-hfipbb
DOI: 10.1021/jp304631m
Adsorbate Nitrogen: InChIKey IJGRMHOSHXDMSA-UHFFFAOYSA-N
Temperature: 303 K
Tabular data in the source: 0
pressure (bar)	uptake (cm3(STP)/g)
2.47e-05	0.475121
4.23e-05	0.804447
6.53e-05	1.16122
8.4e-05	1.4631
0.000104	1.84731
0.000167	2.82157
0.000312	4.89357
0.000458	6.73231
0.000615	8.37894
0.000748	9.69624
0.000972	11.6585
0.00103685	12.1662
