Adsorption isotherm of Carbon Dioxide on Polyimide Film
DOI: 10.1021/jp304631m
Adsorbate Carbon Dioxide: InChIKey CURLTUGMZLYLDI-UHFFFAOYSA-N
Temperature: 315 K
Tabular data in the source: 0
pressure (bar)	uptake (cm3(STP)/g)
2.62e-05	1.83439
4.46e-05	3.23075
7.61e-05	5.13217
0.000103	6.55825
0.000134	7.9249
0.000163	9.08358
0.00019	10.1531
0.000219	11.2227
0.000249	11.8466
0.000279	12.5893
0.000308	13.2132
0.000338	14.164
0.000368	14.9067
0.000397	15.5306
0.000427	16.2436
0.000456	16.7784
0.000486	17.4617
0.000515	17.8777
0.000544	18.5016
0.000575	19.0364
0.000588	19.2443
