Adsorption isotherm of Methane on ZIF-90
DOI: 10.1021/jp304631m
Adsorbate Methane: InChIKey VNWKTOKETHGBQD-UHFFFAOYSA-N
Temperature: 343 K
Tabular data in the source: 0
pressure (bar)	uptake (cm3(STP)/g)
2.79e-05	0.641174
3.28e-05	0.739733
3.84e-05	0.838216
4.4e-05	0.961492
4.89e-05	1.10964
5.45e-05	1.20812
5.63e-05	1.25748
6.19e-05	1.35596
7.31e-05	1.62731
7.86e-05	1.72579
8.42e-05	1.84906
8.92e-05	1.97242
9.47e-05	2.0709
0.00010031	2.19418
0.000105882	2.31745
0.000110836	2.44081
0.000115789	2.53936
0.000121362	2.66264
0.000133127	2.90912
0.0001387	3.03239
0.000143653	3.15575
0.000149226	3.27902
