Adsorption isotherm of Nitrogen on Cu-hfipbb
DOI: 10.1021/jp304631m
Adsorbate Nitrogen: InChIKey IJGRMHOSHXDMSA-UHFFFAOYSA-N
Temperature: 343 K
Tabular data in the source: 0
pressure (bar)	uptake (cm3(STP)/g)
3.86e-06	0.0360204
2.03e-05	0.200683
3.35e-05	0.365346
5.77e-05	0.598619
7.74e-05	0.818169
9.72e-05	0.996554
0.000159	1.55915
0.000312	2.9039
0.000469	4.31725
0.000597	5.04452
0.000755	6.33437
0.000903	7.45957
0.00104673	8.47499
