Adsorption isotherm of Carbon Dioxide on Polyimide Film
DOI: 10.1021/jp304631m
Adsorbate Carbon Dioxide: InChIKey CURLTUGMZLYLDI-UHFFFAOYSA-N
Temperature: 298 K
Tabular data in the source: 0
pressure (bar)	uptake (cm3(STP)/g)
1.84e-05	1.8641
4.28e-05	4.15175
6.89e-05	6.32057
9.03e-05	7.89519
0.000119	9.94516
0.000147	11.4901
0.00017	12.7676
0.000201	14.4016
0.000245	16.4219
0.000274	17.5212
0.000314	19.0958
0.000342	20.0762
0.000374	21.0566
0.000406	22.1262
0.000438	23.1066
0.000471	23.8791
0.000506	24.7704
0.00054	25.6022
0.000566	26.1964
0.000588	26.8203
