Adsorption isotherm of Carbon Dioxide on ZIF-90
DOI: 10.1021/jp304631m
Adsorbate Carbon Dioxide: InChIKey CURLTUGMZLYLDI-UHFFFAOYSA-N
Temperature: 303 K
Tabular data in the source: 0
pressure (bar)	uptake (cm3(STP)/g)
3.28e-05	5.27197
5.47e-05	7.32218
7.29e-05	9.66527
0.00011307	14.0586
0.000131307	16.6946
0.000160486	19.3305
0.000302736	30.4603
0.000466869	39.5397
0.000609119	45.6904
0.00074772	50.3766
0.000904559	55.0628
0.0010541	58.8703
0.00118176	61.7992
