Adsorption isotherm of Methane on ZIF-90
DOI: 10.1021/jp304631m
Adsorbate Methane: InChIKey VNWKTOKETHGBQD-UHFFFAOYSA-N
Temperature: 323 K
Tabular data in the source: 0
pressure (bar)	uptake (cm3(STP)/g)
3.16e-05	0.814267
3.65e-05	0.93762
4.15e-05	1.08577
4.64e-05	1.20912
5.14e-05	1.33247
5.51e-05	1.43118
6.01e-05	1.55454
6.5e-05	1.70268
7.06e-05	1.82596
7.55e-05	1.94931
7.8e-05	2.07297
8.3e-05	2.14674
8.85e-05	2.29481
9.29e-05	2.44303
9.78e-05	2.56638
0.000101548	2.76427
0.000107121	2.78837
0.000112074	2.91173
0.000117028	3.03508
0.000121981	3.18323
0.000126935	3.30658
0.000132508	3.42985
0.000137461	3.55321
0.000142415	3.67656
0.000147368	3.82471
