Adsorption isotherm of Nitrogen on ZIF-90
DOI: 10.1021/jp304631m
Adsorbate Nitrogen: InChIKey IJGRMHOSHXDMSA-UHFFFAOYSA-N
Temperature: 343 K
Tabular data in the source: 0
pressure (bar)	uptake (cm3(STP)/g)
2.7e-05	0.216867
3.18e-05	0.289157
3.78e-05	0.337349
4.5e-05	0.409639
5.11e-05	0.433735
5.65e-05	0.481928
6.61e-05	0.578313
7.21e-05	0.626506
7.75e-05	0.674699
8.35e-05	0.722892
8.89e-05	0.771084
9.49e-05	0.819277
0.000102703	0.891566
0.000108709	0.939759
0.000114114	1.01205
0.000124324	1.10843
0.00013033	1.15663
0.000135736	1.20482
0.000139339	1.22892
0.000145345	1.27711
0.000150751	1.3253
0.000156156	1.39759
