Adsorption isotherm of Nitrogen on ZIF-90
DOI: 10.1021/jp304631m
Adsorbate Nitrogen: InChIKey IJGRMHOSHXDMSA-UHFFFAOYSA-N
Temperature: 303 K
Tabular data in the source: 0
pressure (bar)	uptake (cm3(STP)/g)
4.66e-05	1.79592
7.16e-05	1.95918
8.6e-05	2.93878
0.000128955	4.57143
0.00015403	5.38776
0.000286567	9.95918
0.000440597	15.1837
0.000569552	19.102
0.000712836	23.5102
0.000852537	27.2653
0.000995821	30.5306
0.00112119	33.6327
