Adsorption isotherm of Carbon Dioxide on ZIF-90
DOI: 10.1021/jp304631m
Adsorbate Carbon Dioxide: InChIKey CURLTUGMZLYLDI-UHFFFAOYSA-N
Temperature: 323 K
Tabular data in the source: 0
pressure (bar)	uptake (cm3(STP)/g)
3.35e-05	2.38832
3.98e-05	2.80348
4.47e-05	3.11469
5.03e-05	3.63477
5.34e-05	4.15616
5.84e-05	4.15356
6.46e-05	4.56873
6.96e-05	4.98454
7.52e-05	5.50463
7.95e-05	5.81616
8.51e-05	6.12704
9.07e-05	6.54253
9.63e-05	6.95802
0.000101863	7.3735
0.000107453	7.78899
0.000113043	7.99527
0.000114286	8.20383
0.000119876	8.61931
0.000125466	9.0348
0.000131056	9.55489
