Adsorption isotherm of Carbon Dioxide on Cu-hfipbb
DOI: 10.1021/jp304631m
Adsorbate Carbon Dioxide: InChIKey CURLTUGMZLYLDI-UHFFFAOYSA-N
Temperature: 343 K
Tabular data in the source: 0
pressure (bar)	uptake (cm3(STP)/g)
7.58e-06	1.28059
3.45e-05	2.54131
6.14e-05	4.05418
8.29e-05	5.1468
0.000119	7.02388
0.000143	7.86436
0.000176	8.92896
0.000217	9.96556
0.000258	11.0022
0.00029	11.7866
0.000338	12.9633
0.000385	13.6637
0.000439	14.5322
0.000486	15.1485
0.000564	15.989
0.000621	16.4653
0.000688	16.9696
0.000778	17.6419
0.000859	18.1182
0.000941	18.5385
0.00103767	18.9587
