Adsorption isotherm of Carbon Dioxide on Polyimide Film
DOI: 10.1021/jp304631m
Adsorbate Carbon Dioxide: InChIKey CURLTUGMZLYLDI-UHFFFAOYSA-N
Temperature: 325 K
Tabular data in the source: 0
pressure (bar)	uptake (cm3(STP)/g)
5.96e-06	0.319186
2.85e-05	1.71555
6.12e-05	3.43872
9.03e-05	4.86479
0.000118	5.99376
0.000147	7.15244
0.000179	8.19229
0.000209	9.143
0.000235	9.94516
0.000264	10.7473
0.000295	11.4604
0.000325	12.1437
0.000358	12.7973
0.000385	13.4509
0.000413	13.956
0.000442	14.4908
0.00047	14.9661
0.000502	15.4712
0.000532	15.9168
0.000567	16.511
