Adsorption isotherm of Methane on Cu-hfipbb
DOI: 10.1021/jp304631m
Adsorbate Methane: InChIKey VNWKTOKETHGBQD-UHFFFAOYSA-N
Temperature: 343 K
Tabular data in the source: 0
pressure (bar)	uptake (cm3(STP)/g)
9.83e-05	3.28599
0.000136	4.46057
0.000175	5.51469
0.00023	6.86478
0.000289	8.14429
0.000334	8.9865
0.000377	9.61816
0.000424	10.3713
0.000486	11.1649
0.000524	11.6265
0.000573	12.242
0.000639	12.9465
0.000687	13.4162
0.000736	13.8535
0.000846	14.7362
0.000906	15.2302
0.000982	15.7242
0.00103919	16.1534
