Adsorption isotherm of Carbon Dioxide on Cu-hfipbb
DOI: 10.1021/jp304631m
Adsorbate Carbon Dioxide: InChIKey CURLTUGMZLYLDI-UHFFFAOYSA-N
Temperature: 298 K
Tabular data in the source: 0
pressure (bar)	uptake (cm3(STP)/g)
6.14e-05	13.1594
0.000173	16.9696
0.00024	18.3704
0.000411	19.8832
0.000586	20.7237
0.000911	21.3681
