Adsorption isotherm of Methane on Cu-hfipbb
DOI: 10.1021/jp304631m
Adsorbate Methane: InChIKey VNWKTOKETHGBQD-UHFFFAOYSA-N
Temperature: 343 K
Tabular data in the source: 0
pressure (bar)	uptake (cm3(STP)/g)
6.85e-06	0.0924066
1.85e-05	0.626027
4.64e-05	1.59625
6.86e-05	2.32391
8.84e-05	3.10009
0.000112	3.70647
0.000162	5.18606
0.000313	8.33927
0.000447	10.3767
0.000613	12.6567
0.000765	14.2576
0.000915	15.7129
0.00104654	16.9742
