Adsorption isotherm of Methane on Cu-hfipbb
DOI: 10.1021/jp304631m
Adsorbate Methane: InChIKey VNWKTOKETHGBQD-UHFFFAOYSA-N
Temperature: 323 K
Tabular data in the source: 0
pressure (bar)	uptake (cm3(STP)/g)
6.97e-05	3.29413
0.000122	5.5984
0.000151	6.35032
0.000206	8.07246
0.000259	9.26098
0.000284	10.0129
0.00034	11.0801
0.000391	11.9291
0.000445	12.8508
0.000502	13.5057
0.000562	14.2576
0.000629	14.9853
0.00069	15.5674
0.000754	16.1738
0.000814	16.6346
0.000884	17.1198
0.000935	17.3138
0.000998	17.7261
0.00103257	17.8717
