Adsorption isotherm of Nitrogen on Cu-hfipbb
DOI: 10.1021/jp304631m
Adsorbate Nitrogen: InChIKey IJGRMHOSHXDMSA-UHFFFAOYSA-N
Temperature: 323 K
Tabular data in the source: 0
pressure (bar)	uptake (cm3(STP)/g)
0.000108	1.35332
0.000159	1.97081
0.000297	3.42533
0.000441	4.9073
0.000592	6.33437
0.000743	7.6654
0.00089	8.90037
0.00104014	10.0118
