Adsorption isotherm of Nitrogen on ZIF-90
DOI: 10.1021/jp304631m
Adsorbate Nitrogen: InChIKey IJGRMHOSHXDMSA-UHFFFAOYSA-N
Temperature: 323 K
Tabular data in the source: 0
pressure (bar)	uptake (cm3(STP)/g)
3.18e-05	0.361446
3.78e-05	0.433735
4.44e-05	0.506024
5.05e-05	0.554217
5.59e-05	0.626506
6.37e-05	0.698795
6.97e-05	0.771084
7.51e-05	0.843373
8.11e-05	0.891566
8.65e-05	0.939759
8.95e-05	0.987952
9.49e-05	1.06024
0.000100901	1.13253
0.000106907	1.15663
0.000111712	1.22892
0.000117718	1.3012
0.000123123	1.37349
0.000128529	1.42169
0.000130931	1.46988
0.000136937	1.51807
0.000142342	1.59036
0.000147748	1.66265
0.000151952	1.71084
