Adsorption isotherm of Carbon Dioxide on Cu-hfipbb
DOI: 10.1021/jp304631m
Adsorbate Carbon Dioxide: InChIKey CURLTUGMZLYLDI-UHFFFAOYSA-N
Temperature: 303 K
Tabular data in the source: 0
pressure (bar)	uptake (cm3(STP)/g)
1.03e-05	2.76544
1.56e-05	3.66195
2.37e-05	5.20283
3.99e-05	6.63165
5.06e-05	8.31261
7.48e-05	10.6099
0.000103	12.3469
0.000131	13.8038
0.000161	15.2046
0.000212	16.2972
0.000259	17.3898
0.000303	18.3704
0.000383	19.2108
0.000442	19.9393
0.000539	20.4996
0.000652	21.1159
0.000793	21.6202
0.000914	21.9284
0.0010323	22.2086
