Adsorption isotherm of Nitrogen on Cu-hfipbb
DOI: 10.1021/jp304631m
Adsorbate Nitrogen: InChIKey IJGRMHOSHXDMSA-UHFFFAOYSA-N
Temperature: 303 K
Tabular data in the source: 0
pressure (bar)	uptake (cm3(STP)/g)
8.84e-05	1.57287
0.000114	1.92964
0.000158	2.61574
0.000211	3.41161
0.000289	4.45447
0.000365	5.45617
0.000447	6.43043
0.000568	7.87123
0.000679	9.05131
0.000789	10.1079
0.000902	11.1233
0.0010094	12.0152
0.00102148	12.125
