Adsorption isotherm of Carbon Dioxide on Cu-hfipbb
DOI: 10.1021/jp304631m
Adsorbate Carbon Dioxide: InChIKey CURLTUGMZLYLDI-UHFFFAOYSA-N
Temperature: 343 K
Tabular data in the source: 0
pressure (bar)	uptake (cm3(STP)/g)
8.57e-07	0.075901
1.56e-05	1.00043
1.83e-05	1.39265
4.52e-05	3.40981
6.68e-05	4.72656
8.56e-05	5.90323
0.000107	6.79975
0.000156	8.6488
0.00031	12.403
0.000458	14.8123
0.000595	16.3252
0.000755	17.9501
0.000907	18.9307
0.00104709	20.0793
