Adsorption isotherm of Carbon Dioxide on Cu-hfipbb
DOI: 10.1021/jp304631m
Adsorbate Carbon Dioxide: InChIKey CURLTUGMZLYLDI-UHFFFAOYSA-N
Temperature: 323 K
Tabular data in the source: 0
pressure (bar)	uptake (cm3(STP)/g)
1.16e-05	2.68139
4.25e-05	5.28688
6e-05	6.79975
8.02e-05	8.25658
0.000104	9.40524
0.000156	11.2823
0.000301	14.6723
0.00045	16.7174
0.000597	18.2863
0.000745	19.6311
0.00089	20.6677
0.00103364	21.6482
