Adsorption isotherm of Carbon Dioxide on ZIF-90
DOI: 10.1021/jp304631m
Adsorbate Carbon Dioxide: InChIKey CURLTUGMZLYLDI-UHFFFAOYSA-N
Temperature: 343 K
Tabular data in the source: 0
pressure (bar)	uptake (cm3(STP)/g)
3.85e-05	4.89618
4.47e-05	5.83435
4.97e-05	6.45937
5.47e-05	6.97978
5.78e-05	7.39657
6.21e-05	8.02191
6.71e-05	8.64692
7.2e-05	9.27194
7.7e-05	10.0016
8.2e-05	10.6266
8.7e-05	11.2516
9.19e-05	11.772
9.69e-05	12.397
0.000101242	13.0224
0.000106211	13.6474
0.000110559	14.2727
0.000115528	14.7931
0.000120497	15.4182
0.000125466	16.0432
0.000130435	16.6682
0.000135404	17.1886
