Adsorption isotherm of Nitrogen on Cu-hfipbb
DOI: 10.1021/jp304631m
Adsorbate Nitrogen: InChIKey IJGRMHOSHXDMSA-UHFFFAOYSA-N
Temperature: 343 K
Tabular data in the source: 0
pressure (bar)	uptake (cm3(STP)/g)
0.000114	1.17494
0.000149	1.4631
0.000235	2.24525
0.000288	2.68435
0.00035	3.20578
0.000426	3.89188
0.000495	4.41331
0.000566	4.98963
0.000639	5.49734
0.0007	5.93644
0.000733	6.14227
0.000799	6.64998
0.000856	7.02047
0.000889	7.24002
0.00094	7.55562
0.00102916	8.14567
