Adsorption isotherm of Carbon Dioxide on Polyimide Film
DOI: 10.1021/jp304631m
Adsorbate Carbon Dioxide: InChIKey CURLTUGMZLYLDI-UHFFFAOYSA-N
Temperature: 315 K
Tabular data in the source: 0
pressure (bar)	uptake (cm3(STP)/g)
1.9e-05	1.09164
4.4e-05	3.23075
7.67e-05	5.10247
0.000103	6.49883
0.000132	7.80606
0.000163	9.17271
0.000193	10.2423
0.000222	11.2821
0.00025	12.2625
0.000278	13.1835
0.000307	13.956
0.000339	14.669
0.000366	15.4712
0.000398	16.2436
0.000428	16.7487
0.000474	17.6697
0.000499	18.2045
0.000515	18.4125
0.000549	19.0958
0.000586	19.7791
