Adsorption isotherm of Carbon Dioxide on Cu-hfipbb
DOI: 10.1021/jp304631m
Adsorbate Carbon Dioxide: InChIKey CURLTUGMZLYLDI-UHFFFAOYSA-N
Temperature: 298 K
Tabular data in the source: 0
pressure (bar)	uptake (cm3(STP)/g)
1.43e-05	4.30632
3.04e-05	6.96784
4.79e-05	9.93754
6.81e-05	11.3944
8.96e-05	12.7111
0.000104	13.5796
0.000127	14.5042
0.000145	15.1765
0.000293	18.3704
0.000431	20.2755
0.000572	22.0965
0.000704	23.5813
0.000841	24.758
