Adsorption isotherm of Methane on Cu-hfipbb
DOI: 10.1021/jp304631m
Adsorbate Methane: InChIKey VNWKTOKETHGBQD-UHFFFAOYSA-N
Temperature: 303 K
Tabular data in the source: 0
pressure (bar)	uptake (cm3(STP)/g)
2.08e-05	1.57199
4.29e-05	3.07583
5.81e-05	4.16733
8.14e-05	5.25882
0.000105	6.4716
0.000133	7.63586
0.000165	9.06694
0.000222	10.5465
0.000286	12.1959
0.000342	13.5057
0.000402	14.4274
0.000469	15.5917
0.000534	16.2466
0.000602	17.0227
0.000663	17.4836
0.000733	18.09
0.000808	18.5751
0.000903	19.1572
0.000984	19.521
0.00104654	19.7879
0.00110242	19.9576
