Adsorption isotherm of Carbon Dioxide on Polyimide Film
DOI: 10.1021/jp304631m
Adsorbate Carbon Dioxide: InChIKey CURLTUGMZLYLDI-UHFFFAOYSA-N
Temperature: 325 K
Tabular data in the source: 0
pressure (bar)	uptake (cm3(STP)/g)
1.8e-06	-0.0373321
1.25e-05	0.705413
4.34e-05	2.36916
7.31e-05	3.97349
0.000103	5.31043
0.000133	6.49883
0.000162	7.59809
0.000191	8.48938
0.00022	9.35097
0.000249	10.1234
0.000279	10.8959
0.000308	11.5198
0.000339	12.1734
0.000367	12.7973
0.000397	13.3915
0.000426	14.0748
0.000456	14.6987
0.000485	15.2929
0.000518	15.8871
0.000545	16.2734
0.000573	16.8378
0.000589	17.1646
