Adsorption isotherm of Methane on Cu-hfipbb
DOI: 10.1021/jp304631m
Adsorbate Methane: InChIKey VNWKTOKETHGBQD-UHFFFAOYSA-N
Temperature: 323 K
Tabular data in the source: 0
pressure (bar)	uptake (cm3(STP)/g)
3.01e-05	1.25667
5.23e-05	2.22689
6.62e-05	3.05158
9.18e-05	3.99754
0.000107	4.65244
0.000159	6.4716
0.0003	10.1827
0.00045	12.5597
0.000598	14.4517
0.000743	15.7857
0.000887	16.8287
0.00103606	17.6776
