Adsorption isotherm of Nitrogen on ZIF-90
DOI: 10.1021/jp304631m
Adsorbate Nitrogen: InChIKey IJGRMHOSHXDMSA-UHFFFAOYSA-N
Temperature: 343 K
Tabular data in the source: 0
pressure (bar)	uptake (cm3(STP)/g)
3.94e-05	0.326531
6.45e-05	0.489796
9.67e-05	0.979592
0.000114627	0.979592
0.000161194	0.979592
0.000282985	1.63265
0.000433433	3.10204
0.000573134	4.40816
0.000709254	5.55102
0.000845373	6.20408
0.000985075	7.34694
0.00112119	8.16327
