Adsorption isotherm of Methane on ZIF-90
DOI: 10.1021/jp304631m
Adsorbate Methane: InChIKey VNWKTOKETHGBQD-UHFFFAOYSA-N
Temperature: 303 K
Tabular data in the source: 0
pressure (bar)	uptake (cm3(STP)/g)
0.000103881	3.01443
0.000121791	3.68358
0.000161194	5.18905
0.000300896	10.5418
0.000454925	15.5632
0.000605373	20.2507
0.000755821	24.605
0.000899104	28.6249
0.00105313	32.6463
0.00118209	35.1642
