Adsorption isotherm of Nitrogen on Cu-hfipbb
DOI: 10.1021/jp304631m
Adsorbate Nitrogen: InChIKey IJGRMHOSHXDMSA-UHFFFAOYSA-N
Temperature: 323 K
Tabular data in the source: 0
pressure (bar)	uptake (cm3(STP)/g)
0.000113	1.50426
0.000138	1.80615
0.000206	2.53341
0.000274	3.27439
0.000354	4.12515
0.000425	4.83869
0.000503	5.59339
0.000574	6.23832
0.000656	6.96558
0.000721	7.48701
0.000765	7.87123
0.000833	8.46127
0.000873	8.7906
0.000917	9.1062
0.000984	9.55902
0.00103136	9.8609
