Adsorption isotherm of Methane on ZIF-90
DOI: 10.1021/jp304631m
Adsorbate Methane: InChIKey VNWKTOKETHGBQD-UHFFFAOYSA-N
Temperature: 303 K
Tabular data in the source: 0
pressure (bar)	uptake (cm3(STP)/g)
3.41e-05	1.18586
3.9e-05	1.33401
4.33e-05	1.48223
5.08e-05	1.72924
5.51e-05	1.87747
6.01e-05	2.05041
6.5e-05	2.19855
6.93e-05	2.34677
7.43e-05	2.49492
7.99e-05	2.69258
8.42e-05	2.8408
8.92e-05	3.01374
9.35e-05	3.16196
9.85e-05	3.3349
0.000103406	3.48305
0.00010774	3.63127
0.000112074	3.77949
0.000117028	3.95243
0.000121362	4.10066
0.000125697	4.24888
0.00013065	4.39703
0.000134985	4.57004
0.000139938	4.71819
0.000144272	4.86641
0.000148607	5.03943
0.00015356	5.18758
0.000158514	5.28613
