Adsorption isotherm of Methane on Cu-hfipbb
DOI: 10.1021/jp304631m
Adsorbate Methane: InChIKey VNWKTOKETHGBQD-UHFFFAOYSA-N
Temperature: 303 K
Tabular data in the source: 0
pressure (bar)	uptake (cm3(STP)/g)
2.55e-05	2.20263
4.29e-05	3.5852
6.04e-05	4.79797
8.14e-05	5.84096
0.000105	7.05373
0.000162	9.40651
0.000314	12.8508
0.00046	14.9368
0.000604	16.4406
0.000738	17.6049
0.000913	19.0117
0.00111872	20.467
