Adsorption isotherm of Nitrogen on ZIF-90
DOI: 10.1021/jp304631m
Adsorbate Nitrogen: InChIKey IJGRMHOSHXDMSA-UHFFFAOYSA-N
Temperature: 303 K
Tabular data in the source: 0
pressure (bar)	uptake (cm3(STP)/g)
1.98e-05	0.650602
2.46e-05	0.795181
2.88e-05	0.939759
3.36e-05	1.08434
3.84e-05	1.22892
4.26e-05	1.37349
4.68e-05	1.51807
5.47e-05	1.75904
5.95e-05	1.90361
6.37e-05	2.07229
6.85e-05	2.21687
6.91e-05	2.26506
7.33e-05	2.36145
7.81e-05	2.53012
8.29e-05	2.6747
8.77e-05	2.93976
9.25e-05	2.98795
9.73e-05	3.13253
0.000101502	3.27711
0.000106306	3.42169
0.000110511	3.56627
0.000115315	3.71084
0.00012012	3.85542
0.000124324	4.0241
0.000129129	4.16867
0.000133934	4.31325
0.000139339	4.48193
0.000143544	4.62651
0.000147748	4.77108
0.000152553	4.91566
