Adsorption isotherm of Carbon Dioxide on ZIF-90
DOI: 10.1021/jp304631m
Adsorbate Carbon Dioxide: InChIKey CURLTUGMZLYLDI-UHFFFAOYSA-N
Temperature: 323 K
Tabular data in the source: 0
pressure (bar)	uptake (cm3(STP)/g)
2.92e-05	2.63598
5.11e-05	4.39331
7.66e-05	5.85774
0.000109422	7.90795
0.000134954	9.37238
0.000160486	11.1297
0.000306383	18.159
0.000448632	24.6025
0.000605471	30.1674
0.000755015	33.9749
0.000904559	38.0753
0.0010541	41.59
0.00118176	43.9331
