Adsorption isotherm of Carbon Dioxide on Polyimide Film
DOI: 10.1021/jp304631m
Adsorbate Carbon Dioxide: InChIKey CURLTUGMZLYLDI-UHFFFAOYSA-N
Temperature: 298 K
Tabular data in the source: 0
pressure (bar)	uptake (cm3(STP)/g)
1.49e-05	2.04235
4.46e-05	5.69666
7.49e-05	8.16258
0.000102	10.3017
0.000133	12.114
0.000163	13.5698
0.000193	14.877
0.000222	16.1248
0.00025	17.2835
0.000279	18.4422
0.00031	19.2443
0.00034	20.2248
0.00037	21.0566
0.000399	21.9182
0.000427	22.6907
0.000457	23.5225
0.000485	24.1465
0.000515	24.8001
0.000544	25.5725
0.000573	26.1073
0.000588	26.4044
