Adsorption isotherm of Nitrogen on ZIF-90
DOI: 10.1021/jp304631m
Adsorbate Nitrogen: InChIKey IJGRMHOSHXDMSA-UHFFFAOYSA-N
Temperature: 323 K
Tabular data in the source: 0
pressure (bar)	uptake (cm3(STP)/g)
7.16e-05	0.326531
0.000100299	0.489796
0.000150448	1.63265
0.000290149	4.2449
0.000433433	6.69388
0.000580299	9.30612
0.000723582	11.5918
0.000852537	13.7143
0.000992239	15.8367
0.00112119	17.3061
