Adsorption isotherm of Methane on ZIF-90
DOI: 10.1021/jp304631m
Adsorbate Methane: InChIKey VNWKTOKETHGBQD-UHFFFAOYSA-N
Temperature: 323 K
Tabular data in the source: 0
pressure (bar)	uptake (cm3(STP)/g)
2.87e-05	0.0039801
0.000318806	9.04428
0.000458507	12.897
0.000616119	16.9189
0.000759403	20.1055
0.000899104	23.1249
0.00105313	26.8129
0.00118567	29.3313
