Adsorption isotherm of Carbon Dioxide on Cu-hfipbb
DOI: 10.1021/jp304631m
Adsorbate Carbon Dioxide: InChIKey CURLTUGMZLYLDI-UHFFFAOYSA-N
Temperature: 323 K
Tabular data in the source: 0
pressure (bar)	uptake (cm3(STP)/g)
1.56e-05	2.28917
4.25e-05	4.75458
6.81e-05	6.8838
0.000103	9.26516
0.000143	10.9461
0.000213	13.1874
0.000283	14.9244
0.000355	16.2411
0.000434	17.2777
0.000482	17.8661
0.000584	18.7066
0.000676	19.3229
0.000762	19.8272
0.000836	20.1634
0.000917	20.4716
0.000985	20.6397
0.00102423	20.7237
