Adsorption isotherm of Methane on ZIF-90
DOI: 10.1021/jp304631m
Adsorbate Methane: InChIKey VNWKTOKETHGBQD-UHFFFAOYSA-N
Temperature: 343 K
Tabular data in the source: 0
pressure (bar)	uptake (cm3(STP)/g)
2.51e-05	1.17015
5.01e-05	1.3403
7.16e-05	1.67662
0.000107463	2.18159
0.000132537	2.85174
0.00015403	4.02139
0.000311642	5.04328
0.000458507	7.56368
0.000605373	9.75075
0.000759403	11.2721
0.000902687	12.292
0.00105672	12.8134
0.00118209	12.9975
