Adsorption isotherm of Carbon Dioxide on ZIF-90
DOI: 10.1021/jp304631m
Adsorbate Carbon Dioxide: InChIKey CURLTUGMZLYLDI-UHFFFAOYSA-N
Temperature: 343 K
Tabular data in the source: 0
pressure (bar)	uptake (cm3(STP)/g)
5.11e-05	1.17155
8.02e-05	2.05021
0.000105775	3.22176
0.00012766	3.80753
0.000156839	4.39331
0.000306383	8.20084
0.00045228	10.8368
0.000598176	13.1799
0.000758663	16.1088
0.000904559	18.4519
0.00105046	20.2092
0.00118541	21.0879
