Adsorption isotherm of Nitrogen on JUC-105
DOI: 10.6023/A13070702
Adsorbate Nitrogen: InChIKey IJGRMHOSHXDMSA-UHFFFAOYSA-N
Temperature: 77 K
Tabular data in the source: 0
pressure (bar)	uptake (cm3(STP)/g)
0.00182509	0.156053
0.0411528	0.593028
0.0739259	0.64765
0.146027	0.756894
0.248716	0.811516
0.34922	0.866137
0.399472	0.811516
0.447539	0.866137
0.499976	0.811516
0.548044	0.756894
0.598296	0.866137
0.646363	0.866137
0.895439	0.483784
0.943506	0.702272
0.982834	4.25269
