Adsorption isotherm of Carbon Dioxide on JUC-105
DOI: 10.6023/A13070702
Adsorbate Carbon Dioxide: InChIKey CURLTUGMZLYLDI-UHFFFAOYSA-N
Temperature: 273 K
Tabular data in the source: 0
pressure (bar)	uptake (cm3(STP)/g)
0.00944547	0.6302
0.0308976	1.88158
0.05521	3.0972
0.109555	5.31392
0.149599	7.13735
0.199654	9.06804
0.305485	12.3574
0.398444	15.0746
0.502845	17.3986
0.600095	19.2936
0.703065	20.974
0.807465	22.3326
0.903285	23.6555
0.991954	24.6208
