Adsorption isotherm of N-propane on Carbon Nanotube
DOI: 10.1166/jnn.2010.1395
Adsorbate N-propane: InChIKey ATUOYWHBWRKTHZ-UHFFFAOYSA-N
Temperature: 298 K
Tabular data in the source: 0
pressure (bar)	uptake (mmol/g)
0.102041	6.87427
0.153061	7.05144
0.204082	7.40578
0.280612	7.72469
0.408163	8.0436
0.612245	8.25621
0.816327	8.43338
1.07143	8.50425
1.32653	8.57512
1.55612	8.64599
1.81122	8.68142
2.06633	8.75229
2.29592	8.75229
2.55102	8.78773
2.80612	8.82316
3.06122	8.85859
3.31633	8.85859
3.57143	8.85859
3.82653	8.85859
4.08163	8.89403
4.33673	8.89403
4.59184	8.89403
4.84694	8.89403
5.10204	8.89403
5.35714	8.89403
5.61224	8.89403
5.86735	8.89403
6.12245	8.89403
6.37755	8.89403
6.63265	8.89403
6.88776	8.89403
7.14286	8.89403
7.39796	8.89403
7.62755	8.85859
7.88265	8.85859
8.13776	8.85859
8.39286	8.85859
8.54592	8.85859
