Adsorption isotherm of N-propane on Carbon Nanotube
DOI: 10.1166/jnn.2010.1395
Adsorbate N-propane: InChIKey ATUOYWHBWRKTHZ-UHFFFAOYSA-N
Temperature: 298 K
Tabular data in the source: 0
pressure (bar)	uptake (mmol/g)
0.127551	5.84667
0.229592	6.16558
0.331633	6.48449
0.535714	6.73253
0.765306	6.87427
0.994898	6.98057
1.25	7.01601
1.47959	7.05144
1.73469	7.12231
1.9898	7.15774
2.2449	7.19318
2.5	7.19318
2.7551	7.19318
2.98469	7.22861
3.2398	7.22861
3.4949	7.22861
3.75	7.22861
4.0051	7.22861
4.2602	7.22861
4.51531	7.22861
4.77041	7.22861
5.02551	7.22861
5.28061	7.22861
5.53571	7.22861
5.79082	7.22861
6.04592	7.19318
6.30102	7.19318
6.55612	7.19318
6.81122	7.15774
7.06633	7.15774
7.32143	7.15774
7.57653	7.15774
7.83163	7.15774
8.08673	7.12231
8.34184	7.12231
8.57143	7.08687
