Adsorption isotherm of Propene on Carbon Nanotube
DOI: 10.1166/jnn.2010.1395
Adsorbate Propene: InChIKey QQONPFPTGQHPMA-UHFFFAOYSA-N
Temperature: 298 K
Tabular data in the source: 0
pressure (bar)	uptake (mmol/m2)
0.117143	0.000705192
0.12806	0.000743956
0.140002	0.000793263
0.15503	0.000864087
0.173853	0.000931274
0.194973	0.00101444
0.221437	0.00109337
0.258001	0.00121679
0.300585	0.00133979
0.354648	0.00145961
0.402833	0.00160704
0.481411	0.00178858
0.533055	0.0019276
0.653443	0.00216844
0.751699	0.00238757
0.933342	0.00274384
1.1154	0.00305375
1.36731	0.0034353
1.69761	0.00390605
2.00306	0.00430101
2.33368	0.00473577
2.82417	0.00515964
3.29011	0.00562094
3.88165	0.00605875
4.69749	0.00660104
5.83158	0.00734728
7.05726	0.00800487
8.22209	0.00881405
9.95137	0.00980987
10.4725	0.0103481
