Adsorption isotherm of Propene on Carbon Nanotube
DOI: 10.1166/jnn.2010.1395
Adsorbate Propene: InChIKey QQONPFPTGQHPMA-UHFFFAOYSA-N
Temperature: 298 K
Tabular data in the source: 0
pressure (bar)	uptake (mmol/m2)
0.117171	0.000735915
0.13309	0.000810247
0.151155	0.000873288
0.18064	0.000971935
0.205171	0.00105876
0.248352	0.00120378
0.285679	0.00131138
0.33708	0.00144397
0.413208	0.00162438
0.487586	0.00180779
0.613101	0.00205559
0.71438	0.00231216
0.898381	0.00268572
1.04666	0.0029572
1.28297	0.00329141
1.47589	0.00362401
1.71939	0.00394802
2.08114	0.00444117
2.39393	0.00483811
2.75358	0.00521463
3.20769	0.00562062
3.7844	0.00605841
4.52233	0.00667119
5.47252	0.00719122
6.13624	0.00758694
7.1482	0.00817763
8.22209	0.00881405
9.5803	0.00991412
10.4737	0.0105712
