Adsorption isotherm of Propene on Carbon Nanotube
DOI: 10.1166/jnn.2010.1395
Adsorbate Propene: InChIKey QQONPFPTGQHPMA-UHFFFAOYSA-N
Temperature: 298 K
Tabular data in the source: 0
pressure (bar)	uptake (mmol/m2)
0.115687	0.000728094
0.129733	0.000784707
0.153085	0.000873308
0.192504	0.00100366
0.224317	0.00114103
0.271495	0.00126995
0.316288	0.00138349
0.382856	0.00157296
0.451743	0.00173204
0.519608	0.00186684
0.628967	0.0021225
0.732781	0.00233705
0.853779	0.00260088
0.982101	0.00283334
1.14413	0.00308666
1.45728	0.0036239
1.74165	0.00407644
2.24626	0.00463546
2.82433	0.00521494
3.462	0.00580431
4.40799	0.00639233
5.20051	0.00689022
6.45604	0.00766913
7.33189	0.0081781
9.22036	0.00949943
10.473	0.0104591
