Adsorption isotherm of N-propane on Carbon Nanotube
DOI: 10.1166/jnn.2010.1395
Adsorbate N-propane: InChIKey ATUOYWHBWRKTHZ-UHFFFAOYSA-N
Temperature: 298 K
Tabular data in the source: 0
pressure (bar)	uptake (mmol/m2)
0.0962853	0.000736673
0.106512	0.000793825
0.125496	0.000883232
0.153568	0.00101469
0.178671	0.00114116
0.238826	0.00135352
0.284967	0.00148989
0.335758	0.0016755
0.405713	0.00186408
0.472034	0.00203013
0.592384	0.00233218
0.734096	0.00267923
0.854096	0.00298105
1.05842	0.00331638
1.5454	0.00414912
1.82085	0.00447042
2.14539	0.00486846
2.62529	0.00535857
3.25334	0.005835
3.88187	0.00635436
4.87159	0.00699363
5.81278	0.00769814
6.76296	0.00829451
7.96838	0.00942842
8.48725	0.00994559
