Adsorption isotherm of N-propane on Carbon Nanotube
DOI: 10.1166/jnn.2010.1395
Adsorbate N-propane: InChIKey ATUOYWHBWRKTHZ-UHFFFAOYSA-N
Temperature: 298 K
Tabular data in the source: 0
pressure (bar)	uptake (mmol/m2)
0.0962853	0.000785552
0.109234	0.000837442
0.122369	0.000921944
0.142372	0.00100405
0.174219	0.00112905
0.207878	0.00125619
0.241859	0.00136806
0.303523	0.00157161
0.385746	0.0018248
0.443175	0.00200879
0.542309	0.00225889
0.623047	0.00248667
0.743418	0.00276663
0.887044	0.00307811
1.05842	0.00338817
1.24707	0.00372959
1.43273	0.00406191
1.66693	0.00442371
1.98898	0.00486933
2.4648	0.00535935
2.90412	0.00577437
3.33648	0.00609005
3.8332	0.00649212
4.4598	0.00692055
5.2547	0.00737705
6.26989	0.00820759
7.38742	0.0089384
8.38085	0.00983995
