Adsorption isotherm of Propene on Carbon Nanotube
DOI: 10.1166/jnn.2010.1395
Adsorbate Propene: InChIKey QQONPFPTGQHPMA-UHFFFAOYSA-N
Temperature: 298 K
Tabular data in the source: 0
pressure (bar)	uptake (mmol/m2)
0.114976	0.000743768
0.133882	0.00081895
0.166106	0.000941147
0.19342	0.00102529
0.225225	0.00114103
0.262261	0.00125637
0.309284	0.0013834
0.360142	0.00150708
0.419363	0.00167721
0.494555	0.00184683
0.58323	0.00203356
0.66212	0.00221522
0.770996	0.00243916
0.897776	0.0027145
1.0454	0.00295719
1.2173	0.003291
1.38196	0.00354702
1.60921	0.00386414
1.8502	0.00425462
2.2098	0.00473517
2.60602	0.00515868
3.11253	0.00562023
3.48899	0.00592949
4.0627	0.00625631
4.85233	0.00688911
5.79542	0.0075055
6.7484	0.00800404
8.06002	0.00890808
9.38538	0.00980854
10.388	0.0105709
