Adsorption isotherm of Propene on Carbon Nanotube
DOI: 10.1166/jnn.2010.1395
Adsorbate Propene: InChIKey QQONPFPTGQHPMA-UHFFFAOYSA-N
Temperature: 298 K
Tabular data in the source: 0
pressure (bar)	uptake (mmol/g)
0.153061	0.00389942
0.459184	0.00404908
1.04592	0.00412553
1.7602	0.00416531
2.70408	0.00424308
3.52041	0.00420898
4.13265	0.00421125
4.87245	0.00417687
5.43367	0.00417895
6.27551	0.00414495
7.11735	0.00414807
8.18878	0.00411492
9.13265	0.00411842
9.82143	0.00408385
10.3061	0.00404852
