Adsorption isotherm of Propene on Carbon Nanotube
DOI: 10.1166/jnn.2010.1395
Adsorbate Propene: InChIKey QQONPFPTGQHPMA-UHFFFAOYSA-N
Temperature: 298 K
Tabular data in the source: 0
pressure (bar)	uptake (mmol/m2)
0.118591	0.000654512
0.138172	0.000728396
0.165144	0.000828128
0.197393	0.000951628
0.235938	0.00109352
0.278407	0.00121699
0.328558	0.00138359
0.392694	0.00157307
0.475286	0.0017508
0.613101	0.00205559
0.70525	0.00223933
0.898329	0.00265724
1.17354	0.00308684
1.43857	0.00347252
1.71909	0.00382376
2.00294	0.0042554
2.39337	0.00463614
2.78808	0.00499709
3.55034	0.00562194
4.46401	0.00632474
5.47123	0.00689103
6.45528	0.00750736
7.51986	0.00809186
8.98777	0.00919991
10.7409	0.010239
