Adsorption isotherm of Propene on Carbon Nanotube
DOI: 10.1166/jnn.2010.1395
Adsorbate Propene: InChIKey QQONPFPTGQHPMA-UHFFFAOYSA-N
Temperature: 298 K
Tabular data in the source: 0
pressure (bar)	uptake (mmol/m2)
0.114976	0.000743768
0.139076	0.000836676
0.17255	0.000961518
0.206087	0.00107011
0.239974	0.00117828
0.297734	0.00135412
0.346693	0.001491
0.414076	0.00164179
0.513741	0.00188676
0.637394	0.00214535
0.831975	0.00257315
1.01921	0.00292566
1.18681	0.00325592
1.39961	0.00358514
1.8502	0.00420951
2.32483	0.00478648
2.74168	0.00527046
3.3587	0.00580389
3.96092	0.00625594
4.73076	0.00674339
5.43922	0.00726819
6.25379	0.00766857
7.19033	0.00817772
8.58784	0.00910138
9.38538	0.00991367
10.257	0.0104585
