Adsorption isotherm of Propene on Carbon Nanotube
DOI: 10.1166/jnn.2010.1395
Adsorbate Propene: InChIKey QQONPFPTGQHPMA-UHFFFAOYSA-N
Temperature: 298 K
Tabular data in the source: 0
pressure (bar)	uptake (mmol/g)
0.127551	0.00646143
0.229592	0.00720444
0.280612	0.00757595
0.357143	0.00791042
0.459184	0.00824499
0.612245	0.00854261
0.790816	0.0088032
0.994898	0.00902675
1.22449	0.00917613
1.47959	0.00928847
1.70918	0.00936359
1.96429	0.00947593
2.21939	0.00955114
2.44898	0.00962626
2.70408	0.00966434
2.95918	0.00970242
3.18878	0.0097404
3.44388	0.00977848
3.69898	0.00977943
3.95408	0.00981751
4.20918	0.00981846
4.46429	0.00985654
4.71939	0.00985748
4.97449	0.00985843
5.22959	0.00985938
5.48469	0.00989746
5.7398	0.0098984
5.9949	0.00989935
6.25	0.0099003
6.5051	0.00990125
6.7602	0.00990219
6.9898	0.00994018
7.2449	0.00990399
7.5	0.00990494
7.7551	0.00990589
8.0102	0.00990683
8.26531	0.00990778
8.52041	0.0098716
8.77551	0.00987254
9.03061	0.00987349
9.28571	0.00987444
9.54082	0.00987539
9.79592	0.0098392
10.051	0.00984015
10.3061	0.0098411
