Adsorption isotherm of N-propane on Carbon Nanotube
DOI: 10.1166/jnn.2010.1395
Adsorbate N-propane: InChIKey ATUOYWHBWRKTHZ-UHFFFAOYSA-N
Temperature: 298 K
Tabular data in the source: 0
pressure (bar)	uptake (mmol/g)
0.0510204	2.2678
0.280612	2.33867
0.510204	2.44497
0.765306	2.44497
1.02041	2.48041
1.27551	2.48041
1.5051	2.51584
1.7602	2.51584
2.01531	2.51584
2.27041	2.51584
2.52551	2.51584
2.78061	2.48041
3.03571	2.48041
3.29082	2.48041
3.54592	2.48041
3.80102	2.48041
4.05612	2.48041
4.31122	2.48041
4.56633	2.48041
4.82143	2.48041
5.07653	2.48041
5.33163	2.48041
5.58673	2.48041
5.84184	2.44497
6.09694	2.44497
6.35204	2.44497
6.60714	2.44497
6.86224	2.40954
7.11735	2.40954
7.37245	2.40954
7.62755	2.40954
7.85714	2.3741
8.11224	2.3741
8.36735	2.3741
