Adsorption isotherm of N-propane on Carbon Nanotube
DOI: 10.1166/jnn.2010.1395
Adsorbate N-propane: InChIKey ATUOYWHBWRKTHZ-UHFFFAOYSA-N
Temperature: 298 K
Tabular data in the source: 0
pressure (bar)	uptake (mmol/m2)
0.0975079	0.000802536
0.114888	0.000883415
0.138824	0.000982844
0.169878	0.00112913
0.205272	0.00125622
0.238826	0.00138285
0.281394	0.00152218
0.344339	0.00171169
0.416081	0.00190434
0.472034	0.00207408
0.522165	0.00221123
0.615235	0.00246025
0.80188	0.00285646
0.898307	0.00307802
1.03204	0.00335228
1.15615	0.0036123
1.34514	0.00389214
1.56502	0.00428447
1.82085	0.00466609
2.0657	0.00497431
2.31411	0.00519066
2.62529	0.0055931
3.09322	0.00589853
3.78514	0.00642316
4.51643	0.00692036
4.99609	0.00729933
5.5267	0.00761701
6.51177	0.00829524
7.57621	0.00913139
8.27576	0.00984022
