Adsorption isotherm of N-propane on Carbon Nanotube
DOI: 10.1166/jnn.2010.1395
Adsorbate N-propane: InChIKey ATUOYWHBWRKTHZ-UHFFFAOYSA-N
Temperature: 298 K
Tabular data in the source: 0
pressure (bar)	uptake (mmol/m2)
0.0975079	0.000713353
0.107864	0.000768714
0.128703	0.000873765
0.165645	0.00104765
0.197647	0.00120364
0.232875	0.0013392
0.264191	0.00142766
0.395603	0.00184436
0.509154	0.00214143
0.638968	0.00246003
0.812062	0.00288713
1.08547	0.00335189
1.34514	0.00380967
1.6254	0.00423845
1.89109	0.00456681
2.28509	0.00497314
2.69238	0.00541594
3.25334	0.005835
4.03161	0.0063538
4.93345	0.00699344
5.88658	0.00769791
7.11304	0.00865653
8.27576	0.0095291
8.59502	0.00973455
