Adsorption isotherm of N-propane on Carbon Nanotube
DOI: 10.1166/jnn.2010.1395
Adsorbate N-propane: InChIKey ATUOYWHBWRKTHZ-UHFFFAOYSA-N
Temperature: 298 K
Tabular data in the source: 0
pressure (bar)	uptake (mmol/g)
0.127551	5.20885
0.280612	5.49233
0.484694	5.6695
0.714286	5.81124
0.969388	5.91754
1.19898	5.95297
1.45408	5.98841
1.70918	6.02384
1.96429	6.05928
2.19388	6.09471
2.44898	6.13015
2.70408	6.13015
2.95918	6.16558
3.21429	6.16558
3.46939	6.16558
3.72449	6.16558
3.97959	6.16558
4.23469	6.20102
4.4898	6.20102
4.7449	6.20102
5	6.20102
5.2551	6.20102
5.5102	6.20102
5.76531	6.20102
6.02041	6.20102
6.27551	6.20102
6.53061	6.20102
6.78571	6.16558
7.04082	6.16558
7.29592	6.16558
7.55102	6.16558
7.78061	6.13015
8.03571	6.13015
8.29082	6.13015
8.54592	6.13015
