Adsorption isotherm of N-propane on Carbon Nanotube
DOI: 10.1166/jnn.2010.1395
Adsorbate N-propane: InChIKey ATUOYWHBWRKTHZ-UHFFFAOYSA-N
Temperature: 298 K
Tabular data in the source: 0
pressure (bar)	uptake (mmol/g)
0.0765306	3.4017
0.229592	3.54344
0.433673	3.64974
0.612245	3.68517
0.867347	3.68517
1.12245	3.68517
1.27551	3.72061
1.53061	3.72061
1.78571	3.72061
2.04082	3.72061
2.29592	3.72061
2.55102	3.72061
2.80612	3.72061
3.06122	3.72061
3.31633	3.72061
3.57143	3.72061
3.82653	3.72061
4.08163	3.72061
4.33673	3.72061
4.54082	3.68517
4.79592	3.68517
5.05102	3.68517
5.30612	3.68517
5.56122	3.68517
5.81633	3.68517
6.07143	3.68517
6.32653	3.64974
6.58163	3.64974
6.83673	3.64974
7.09184	3.61431
7.34694	3.61431
7.57653	3.57887
7.83163	3.57887
8.08673	3.57887
8.34184	3.57887
8.54592	3.57887
