Adsorption isotherm of N-propane on Carbon Nanotube
DOI: 10.1166/jnn.2010.1395
Adsorbate N-propane: InChIKey ATUOYWHBWRKTHZ-UHFFFAOYSA-N
Temperature: 298 K
Tabular data in the source: 0
pressure (bar)	uptake (mmol/g)
0.102041	4.46473
0.255102	4.78364
0.586735	4.88994
1.04592	4.99625
1.55612	4.99625
2.16837	4.99625
2.70408	5.03168
3.2398	5.03168
3.85204	4.99625
4.36224	5.03168
5	4.99625
5.38265	4.99625
5.79082	4.99625
6.45408	4.96081
7.44898	4.92538
8.21429	4.88994
8.59694	4.85451
