Adsorption isotherm of N-propane on Carbon Nanotube
DOI: 10.1166/jnn.2010.1395
Adsorbate N-propane: InChIKey ATUOYWHBWRKTHZ-UHFFFAOYSA-N
Temperature: 298 K
Tabular data in the source: 0
pressure (bar)	uptake (mmol/m2)
0.0962853	0.000698256
0.109234	0.000768679
0.125496	0.000855293
0.14418	0.000941553
0.167748	0.0010476
0.18792	0.00115331
0.215897	0.0012427
0.241859	0.00136806
0.281394	0.00148993
0.340022	0.00167546
0.405713	0.00184423
0.460271	0.00203027
0.528796	0.00216429
0.623047	0.00243397
0.70683	0.00262268
0.80188	0.00285646
0.921263	0.00311098
1.07186	0.00335198
1.2629	0.00368975
1.50689	0.00401817
1.77548	0.00437594
1.96404	0.00466527
2.72657	0.0054741
3.25334	0.005835
3.78514	0.00628705
4.4598	0.00663035
5.59687	0.00745538
6.93579	0.00856483
7.86846	0.00922887
8.38085	0.00973513
