Adsorption isotherm of N-propane on Carbon Nanotube
DOI: 10.1166/jnn.2010.1395
Adsorbate N-propane: InChIKey ATUOYWHBWRKTHZ-UHFFFAOYSA-N
Temperature: 298 K
Tabular data in the source: 0
pressure (bar)	uptake (mmol/g)
0.127551	4.03952
0.433673	4.18126
0.867347	4.28756
1.60714	4.32299
2.09184	4.32299
2.70408	4.32299
3.41837	4.32299
4.15816	4.32299
4.84694	4.28756
5.71429	4.25212
6.37755	4.25212
7.04082	4.21669
7.78061	4.18126
8.54592	4.14582
