Adsorption isotherm of Propene on Carbon Nanotube
DOI: 10.1166/jnn.2010.1395
Adsorbate Propene: InChIKey QQONPFPTGQHPMA-UHFFFAOYSA-N
Temperature: 298 K
Tabular data in the source: 0
pressure (bar)	uptake (mmol/g)
0.153061	0.00211709
0.382653	0.00226647
0.637755	0.00230455
0.892857	0.00234263
1.14796	0.00234357
1.40306	0.00234452
1.65816	0.00234547
1.91327	0.00234642
2.16837	0.00234736
2.42347	0.00234831
2.65306	0.00238629
2.90816	0.00238724
3.16327	0.00238819
3.41837	0.00238914
3.67347	0.00239008
3.92857	0.00239103
4.18367	0.00239198
4.43878	0.00235579
4.69388	0.00235674
4.94898	0.00235769
5.20408	0.00235863
5.45918	0.00235958
5.71429	0.00236053
5.96939	0.00236148
6.22449	0.00236242
6.47959	0.00236337
6.73469	0.00236432
6.9898	0.00236527
7.2449	0.00232908
7.5	0.00233003
7.7551	0.00233098
8.0102	0.00229479
8.26531	0.00229574
8.52041	0.00229668
8.77551	0.00229763
9.03061	0.00229858
9.28571	0.00229953
9.54082	0.00230047
9.77041	0.00226419
10.0255	0.00226514
10.2806	0.00226609
