Adsorption isotherm of Propene on Carbon Nanotube
DOI: 10.1166/jnn.2010.1395
Adsorbate Propene: InChIKey QQONPFPTGQHPMA-UHFFFAOYSA-N
Temperature: 298 K
Tabular data in the source: 0
pressure (bar)	uptake (mmol/g)
0.153061	0.00334244
0.382653	0.00349182
0.663265	0.00356713
0.918367	0.00356807
1.17347	0.00360615
1.42857	0.0036071
1.68367	0.00360805
1.93878	0.003609
2.19388	0.00364707
2.44898	0.00364802
2.70408	0.00364897
2.93367	0.00361269
3.18878	0.00361364
3.44388	0.00361458
3.69898	0.00361553
3.95408	0.00361648
4.20918	0.00361743
4.46429	0.00361837
4.71939	0.00361932
5	0.00358323
5.2551	0.00358418
5.5102	0.00358512
5.76531	0.00358607
6.02041	0.00358702
6.19898	0.00355055
6.45408	0.0035515
6.70918	0.00355244
6.96429	0.00355339
7.21939	0.00355434
7.47449	0.00355529
7.72959	0.0035191
7.98469	0.00352005
8.2398	0.003521
8.4949	0.00352194
8.75	0.00352289
9.0051	0.00348671
9.2602	0.00348765
9.51531	0.0034886
9.77041	0.00348955
9.97449	0.00345317
10.2296	0.00345412
