Adsorption isotherm of N-propane on Carbon Nanotube
DOI: 10.1166/jnn.2010.1395
Adsorbate N-propane: InChIKey ATUOYWHBWRKTHZ-UHFFFAOYSA-N
Temperature: 298 K
Tabular data in the source: 0
pressure (bar)	uptake (mmol/m2)
0.0975079	0.000811175
0.113448	0.000883435
0.138824	0.00100412
0.165645	0.00110526
0.197647	0.00122972
0.232875	0.00136819
0.277866	0.00152221
0.323288	0.00164015
0.38091	0.00182488
0.4545	0.00205218
0.535509	0.00223488
0.623047	0.00248667
0.752856	0.00276654
0.993711	0.00331687
1.29518	0.00381
1.6254	0.00437684
1.9151	0.00486975
2.4648	0.00541706
3.17227	0.00602587
3.88187	0.00656184
4.7502	0.00714547
5.81278	0.0078648
7.02385	0.00874999
8.38085	0.00994589
