Adsorption isotherm of Propene on Carbon Nanotube
DOI: 10.1166/jnn.2010.1395
Adsorbate Propene: InChIKey QQONPFPTGQHPMA-UHFFFAOYSA-N
Temperature: 298 K
Tabular data in the source: 0
pressure (bar)	uptake (mmol/g)
0.153061	0.00557036
0.229592	0.00594196
0.357143	0.00623949
0.535714	0.00650007
0.765306	0.00664946
0.994898	0.0067617
1.25	0.00683691
1.5051	0.00687499
1.73469	0.00691298
1.9898	0.00695106
2.2449	0.00698914
2.5	0.00702722
2.7551	0.00702816
3.0102	0.00702911
3.2398	0.00706709
3.4949	0.00706804
3.75	0.00706899
4.0051	0.00706994
4.2602	0.00707088
4.51531	0.00707183
4.77041	0.00707278
5.02551	0.00707373
5.28061	0.00707467
5.53571	0.00707562
5.79082	0.00707657
6.04592	0.00704038
6.30102	0.00704133
6.55612	0.00704228
6.81122	0.00704322
7.06633	0.00704417
7.32143	0.00704512
7.57653	0.00704607
7.83163	0.00700988
8.08673	0.00701083
8.34184	0.00701178
8.59694	0.00701272
8.85204	0.00697654
9.10714	0.00697749
9.36224	0.00697843
9.61735	0.00694225
9.84694	0.0069431
10.102	0.00694405
10.3571	0.00694499
