Adsorption isotherm of Propene on Carbon Nanotube
DOI: 10.1166/jnn.2010.1395
Adsorbate Propene: InChIKey QQONPFPTGQHPMA-UHFFFAOYSA-N
Temperature: 298 K
Tabular data in the source: 0
pressure (bar)	uptake (mmol/m2)
0.117116	0.000675752
0.139986	0.000776528
0.161035	0.000854983
0.190054	0.000982466
0.224264	0.0010934
0.28206	0.00129741
0.332811	0.00142862
0.451715	0.00171367
0.605372	0.00205555
0.771061	0.00241329
0.887004	0.00265716
1.12964	0.00305384
1.40261	0.00350953
1.7863	0.00403346
2.33368	0.00473577
2.86073	0.00532747
3.68915	0.00593026
4.40825	0.00646085
5.33477	0.00703912
6.53847	0.00766936
8.11796	0.00872032
9.82592	0.00980958
10.6055	0.0102387
