Adsorption isotherm of N-propane on Carbon Nanotube
DOI: 10.1166/jnn.2010.1395
Adsorbate N-propane: InChIKey ATUOYWHBWRKTHZ-UHFFFAOYSA-N
Temperature: 298 K
Tabular data in the source: 0
pressure (bar)	uptake (mmol/m2)
0.0975079	0.000768891
0.116346	0.000873966
0.14418	0.000993333
0.161517	0.00108192
0.178671	0.00114116
0.202698	0.00124287
0.244929	0.00138275
0.277866	0.00148996
0.327392	0.00164012
0.357623	0.00174862
0.4545	0.0020087
0.556167	0.00228309
0.655297	0.0025402
0.762416	0.00273699
0.898307	0.00307802
1.09925	0.00342436
1.31162	0.0037693
1.50689	0.00406143
1.75322	0.00447081
2.03981	0.00486903
2.52778	0.00530195
3.01614	0.00577387
3.64455	0.0062876
4.34867	0.0067743
5.18881	0.00729867
5.96131	0.00786433
6.76296	0.00847408
7.57621	0.00913139
8.27576	0.0096317
8.59502	0.0099453
