Adsorption isotherm of Propene on Carbon Nanotube
DOI: 10.1166/jnn.2010.1395
Adsorbate Propene: InChIKey QQONPFPTGQHPMA-UHFFFAOYSA-N
Temperature: 298 K
Tabular data in the source: 0
pressure (bar)	uptake (mmol/g)
0.153061	0.00497625
0.280612	0.00531091
0.433673	0.0055714
0.663265	0.00575791
0.892857	0.00587016
1.14796	0.00594537
1.40306	0.00598345
1.63265	0.00605857
1.88776	0.00609664
2.14286	0.00613472
2.37245	0.00617271
2.62755	0.00617366
2.88265	0.0061746
3.13776	0.00621268
3.39286	0.00621363
3.64796	0.00621458
3.90306	0.00625266
4.15816	0.0062536
4.41327	0.00625455
4.66837	0.0062555
4.92347	0.00625644
5.17857	0.00625739
5.43367	0.00625834
5.68878	0.00625929
5.94388	0.00626023
6.19898	0.00626118
6.45408	0.00626213
6.70918	0.00626307
6.96429	0.00622689
7.21939	0.00622784
7.47449	0.00622878
7.72959	0.00622973
7.98469	0.00623068
8.2398	0.00623163
8.46939	0.00619535
8.72449	0.00619629
8.97959	0.00619724
9.23469	0.00616106
9.4898	0.006162
9.7449	0.00616295
10	0.0061639
10.2551	0.00616485
