Adsorption isotherm of Propene on Carbon Nanotube
DOI: 10.1166/jnn.2010.1395
Adsorbate Propene: InChIKey QQONPFPTGQHPMA-UHFFFAOYSA-N
Temperature: 298 K
Tabular data in the source: 0
pressure (bar)	uptake (mmol/g)
0.127551	0.00434491
0.357143	0.00460568
0.765306	0.00475573
1.30102	0.00479485
1.88776	0.00483416
2.32143	0.0048729
3.16327	0.00487603
3.97959	0.00487906
4.66837	0.00488162
5.40816	0.00484723
6.12245	0.00484988
7.06633	0.00481626
7.85714	0.00481919
8.4949	0.0047473
9.31122	0.0047132
9.79592	0.00467786
10.2551	0.0047167
