Adsorption isotherm of Nitrogen on 2.8WT% Au@UiO-66
DOI: 10.1039/C3ta13114a
Adsorbate Nitrogen: InChIKey IJGRMHOSHXDMSA-UHFFFAOYSA-N
Temperature: 77 K
Tabular data in the source: 0
pressure (bar)	uptake (cm3(STP)/g)
0.00656212	14.2564
0.00887653	105.416
0.0204486	128.446
0.0690512	134.204
0.170885	136.123
0.298178	139.961
0.437043	140.921
0.636082	142.84
0.747174	144.759
0.869838	144.759
0.925383	149.557
0.955471	156.274
0.990187	164.91
1.00176	173.546
