Adsorption isotherm of Nitrogen on 4.0WT% Au@UiO-66
DOI: 10.1039/C3ta13114a
Adsorbate Nitrogen: InChIKey IJGRMHOSHXDMSA-UHFFFAOYSA-N
Temperature: 77 K
Tabular data in the source: 0
pressure (bar)	uptake (cm3(STP)/g)
0.00424771	15.216
0.00424771	101.578
0.00656212	160.112
0.0297062	187.94
0.0945098	207.132
0.191715	211.93
0.344466	212.889
0.550449	212.889
0.721715	212.889
0.867523	212.889
0.932327	213.849
0.9763	216.727
1.00176	224.404
