Adsorption isotherm of Nitrogen on 1.5WT% Au@UiO-66
DOI: 10.1039/C3ta13114a
Adsorbate Nitrogen: InChIKey IJGRMHOSHXDMSA-UHFFFAOYSA-N
Temperature: 77 K
Tabular data in the source: 0
pressure (bar)	uptake (cm3(STP)/g)
0.0019333	62.2353
0.00424771	159.153
0.0111909	210.01
0.0482215	239.757
0.106082	255.111
0.1732	261.828
0.256519	265.666
0.423156	266.625
0.522676	269.504
0.643025	271.423
0.742545	275.262
0.86058	276.221
0.941584	279.1
1.01102	289.655
