Adsorption isotherm of Nitrogen on UiO-66
DOI: 10.1039/C3ta13114a
Adsorbate Nitrogen: InChIKey IJGRMHOSHXDMSA-UHFFFAOYSA-N
Temperature: 77 K
Tabular data in the source: 0
pressure (bar)	uptake (cm3(STP)/g)
0.0019333	16.1756
0.0019333	92.9418
0.0019333	193.698
0.00887653	282.938
0.0135054	332.836
0.0297062	354.907
0.0829377	366.422
0.133855	373.139
0.191715	376.977
0.328265	378.896
0.548134	378.896
0.740231	379.856
0.869838	380.815
0.936955	382.734
0.969357	386.573
0.99713	395.209
1.0087	400.966
