Adsorption isotherm of Nitrogen on 2.8WT% Au@UiO-66
DOI: 10.1039/C3ta13114a
Adsorbate Nitrogen: InChIKey IJGRMHOSHXDMSA-UHFFFAOYSA-N
Temperature: 77 K
Tabular data in the source: 0
pressure (bar)	uptake (cm3(STP)/g)
0.00424771	53.5991
0.00424771	112.133
0.00656212	161.072
0.0135054	186.021
0.0644224	212.889
0.103767	226.323
0.147741	229.202
0.212545	231.121
0.263462	231.121
0.397698	232.081
0.513418	233.04
0.640711	234
0.793462	234.959
0.895296	239.757
0.955471	243.596
0.987872	251.272
1.00639	261.828
