Adsorption isotherm of Nitrogen on UiO-66
DOI: 10.1039/C3ta13114a
Adsorbate Nitrogen: InChIKey IJGRMHOSHXDMSA-UHFFFAOYSA-N
Temperature: 77 K
Tabular data in the source: 0
pressure (bar)	uptake (cm3(STP)/g)
0.00656212	64.1545
0.00887653	188.9
0.0158198	283.898
0.0181342	337.634
0.0389639	355.866
0.0667368	366.422
0.110711	372.179
0.159313	376.017
0.33058	379.856
0.471759	380.815
0.633768	377.937
0.698571	380.815
0.809663	380.815
0.920755	383.694
0.983244	393.29
1.01333	404.805
