Adsorption isotherm of Nitrogen on 1.5WT% Au@UiO-66
DOI: 10.1039/C3ta13114a
Adsorbate Nitrogen: InChIKey IJGRMHOSHXDMSA-UHFFFAOYSA-N
Temperature: 77 K
Tabular data in the source: 0
pressure (bar)	uptake (cm3(STP)/g)
0.0019333	9.45854
0.00424771	145.719
0.0181342	158.193
0.0667368	168.749
0.159313	172.587
0.268091	175.466
0.425471	176.425
0.559706	176.425
0.661541	178.344
0.768003	181.223
0.892982	186.021
0.93927	190.819
0.971672	196.576
0.999445	214.808
1.0087	234.959
