Adsorption isotherm of Nitrogen on 4.0WT% Au@UiO-66
DOI: 10.1039/C3ta13114a
Adsorbate Nitrogen: InChIKey IJGRMHOSHXDMSA-UHFFFAOYSA-N
Temperature: 77 K
Tabular data in the source: 0
pressure (bar)	uptake (cm3(STP)/g)
0.00656212	16.1756
0.00887653	67.9928
0.0273918	98.6993
0.0597936	115.012
0.126912	120.77
0.268091	123.648
0.478702	123.648
0.700885	124.608
0.807348	124.608
0.941584	124.608
0.990187	128.446
1.0087	135.163
