Adsorption isotherm of Hydrogen on MIL-101
DOI: 10.1016/j.ijhydene.2013.03.161
Adsorbate Hydrogen: InChIKey UFHFLCQGNIYNRP-UHFFFAOYSA-N
Temperature: 77 K
Tabular data in the source: 0
pressure (bar)	uptake (wt%)
0.506198	1.36364
1.19676	1.59441
4.87127	2.6014
16.273	3.60839
30.6079	4.04895
48.3431	4.25874
59.4803	4.27972
79.0226	4.1958
