Adsorption isotherm of Hydrogen on MIL-101
DOI: 10.1016/j.ijhydene.2013.03.161
Adsorbate Hydrogen: InChIKey UFHFLCQGNIYNRP-UHFFFAOYSA-N
Temperature: 77 K
Tabular data in the source: 0
pressure (bar)	uptake (wt%)
0.0286078	0.755245
0.752543	1.86713
3.29545	3
8.33201	3.96503
19.5073	4.99301
37.9371	5.53846
58.8565	5.81119
86.3517	5.68531
