Adsorption isotherm of Hydrogen on MIL-101
DOI: 10.1016/j.ijhydene.2013.03.161
Adsorbate Hydrogen: InChIKey UFHFLCQGNIYNRP-UHFFFAOYSA-N
Temperature: 77 K
Tabular data in the source: 0
pressure (bar)	uptake (g/l)
0.00258003	0.637397
0.188858	1.65746
0.375137	2.67753
0.742533	3.44287
1.10941	4.08073
1.84111	4.84654
3.30554	6.63311
5.49805	8.29313
15.9018	13.533
32.8676	19.9286
46.5479	24.6627
68.0669	30.9366
83.7463	34.526
