Adsorption isotherm of Hydrogen on MIL-101
DOI: 10.1016/j.ijhydene.2013.03.161
Adsorbate Hydrogen: InChIKey UFHFLCQGNIYNRP-UHFFFAOYSA-N
Temperature: 77 K
Tabular data in the source: 0
pressure (bar)	uptake (wt%)
0.957565	1.27972
17.8806	4.04895
50.8598	4.6993
91.9906	4.55245
