Adsorption isotherm of Hydrogen on MIL-101
DOI: 10.1016/j.ijhydene.2013.03.161
Adsorbate Hydrogen: InChIKey UFHFLCQGNIYNRP-UHFFFAOYSA-N
Temperature: 77 K
Tabular data in the source: 0
pressure (bar)	uptake (g/l)
40.3724	28.9891
47.6671	31.1656
61.1586	34.2423
80.4831	38.3462
