Adsorption isotherm of Hydrogen on MIL-101
DOI: 10.1016/j.ijhydene.2013.03.161
Adsorbate Hydrogen: InChIKey UFHFLCQGNIYNRP-UHFFFAOYSA-N
Temperature: 77 K
Tabular data in the source: 0
pressure (bar)	uptake (g/l)
0.572251	6.37467
0.941712	7.64993
2.41233	10.9662
3.69306	12.3701
5.8897	15.05
17.2124	22.3307
28.1585	26.5515
31.2597	27.7027
50.2255	33.2085
50.7725	33.3367
75.0201	38.7217
76.2967	39.1058
92.3373	41.9307
