Adsorption isotherm of Hydrogen on MIL-101
DOI: 10.1016/j.ijhydene.2013.03.161
Adsorbate Hydrogen: InChIKey UFHFLCQGNIYNRP-UHFFFAOYSA-N
Temperature: 77 K
Tabular data in the source: 0
pressure (bar)	uptake (wt%)
0.734266	1.38462
0.971869	1.65734
3.05229	2.58042
3.96694	2.72727
6.02352	3.02098
14.0122	3.92308
27.6709	4.51049
40.4045	4.67832
47.6812	4.78322
61.0871	4.6993
74.2697	4.72028
80.1748	4.61538
