Adsorption isotherm of Hydrogen on MIL-101
DOI: 10.1016/j.ijhydene.2013.03.161
Adsorbate Hydrogen: InChIKey UFHFLCQGNIYNRP-UHFFFAOYSA-N
Temperature: 77 K
Tabular data in the source: 0
pressure (bar)	uptake (wt%)
0.506993	1.38462
2.13048	2.24476
5.56739	2.97902
17.1956	3.96503
31.0752	4.38462
42.4468	4.59441
50.174	4.59441
51.308	4.53147
76.0831	4.59441
83.5799	4.51049
