Adsorption isotherm of Hydrogen on MIL-101
DOI: 10.1016/j.ijhydene.2013.03.161
Adsorbate Hydrogen: InChIKey UFHFLCQGNIYNRP-UHFFFAOYSA-N
Temperature: 77 K
Tabular data in the source: 0
pressure (bar)	uptake (g/l)
5.51611	12.7549
21.5799	21.3165
45.6537	28.7409
48.2053	29.1266
70.4493	34.5091
79.1982	35.9225
86.6716	37.2068
