Adsorption isotherm of Hydrogen on MIL-101
DOI: 10.1016/j.ijhydene.2013.03.161
Adsorbate Hydrogen: InChIKey UFHFLCQGNIYNRP-UHFFFAOYSA-N
Temperature: 77 K
Tabular data in the source: 0
pressure (bar)	uptake (g/l)
2.40614	9.4365
4.60691	13.1362
14.2862	19.395
16.1113	20.2897
27.6053	24.8935
30.5238	25.9171
40.5545	28.9894
48.76	31.167
59.3356	33.8575
79.0233	37.707
