Adsorption isotherm of Nitrogen on Zeolite 5A
DOI: 10.8888/Ie200652e
Adsorbate Nitrogen: InChIKey IJGRMHOSHXDMSA-UHFFFAOYSA-N
Temperature: 303 K
Tabular data in the source: 0
pressure (bar)	uptake (mmol/g)
0.0255661	0.157924
0.0482626	0.272757
0.086528	0.435409
0.143167	0.631498
0.192672	0.755782
0.293083	0.994765
0.397682	1.19541
0.492353	1.34822
0.592656	1.49141
0.692932	1.61067
0.793202	1.72513
0.894861	1.82043
0.992283	1.91096
