Adsorption isotherm of Nitrogen on Zeolite 5A
DOI: 10.8888/Ie200652e
Adsorbate Nitrogen: InChIKey IJGRMHOSHXDMSA-UHFFFAOYSA-N
Temperature: 303 K
Tabular data in the source: 0
pressure (bar)	uptake (mmol/g)
0.48061	0.294777
1.38714	0.618397
1.89982	0.768093
2.92405	0.985282
3.96524	1.19763
4.93762	1.35681
5.96081	1.49663
7.97247	1.72793
8.96101	1.82424
9.91551	1.92057
