Adsorption isotherm of Nitrogen on Zeolite 5A
DOI: 10.8888/Ie200652e
Adsorbate Nitrogen: InChIKey IJGRMHOSHXDMSA-UHFFFAOYSA-N
Temperature: 303 K
Tabular data in the source: 0
pressure (bar)	uptake (mmol/g)
0.0184491	0.100486
0.0467657	0.196136
0.075077	0.286997
0.109041	0.387409
0.203783	0.602472
0.299908	0.793583
0.404442	0.93676
0.503329	1.07518
0.610657	1.19439
0.667128	1.24202
0.702421	1.27058
