Adsorption isotherm of Nitrogen on 300kD-FC8
DOI: 10.1021/acsami.6b14835
Article source: Figure 2
Adsorbate Nitrogen: InChIKey IJGRMHOSHXDMSA-UHFFFAOYSA-N
Kind: experiment
Temperature: 77 K
Tabular data in the source: 0
pressure (bar)	uptake (cm3(STP)/g)
0.032849	0.0302
0.063611	0.0317
0.148458	0.0362
0.169078	0.0335
0.188349	0.0368
0.216061	0.0391
0.246154	0.0398
0.269813	0.0413
0.297869	0.0437
0.326949	0.0427
0.355005	0.0416
0.382383	0.0423
0.408423	0.0397
0.450006	0.0386
0.483807	0.0434
0.513211	0.0508
0.538562	0.0531
0.566963	0.0437
0.596033	0.0477
0.642003	0.0542
0.677496	0.059
0.711642	0.0563
0.726841	0.0704
0.750864	0.046
0.7674	0.0836
0.811709	0.0532
0.828234	0.1
0.851934	0.0521
0.866089	0.1149
0.899931	0.0644
0.927217	0.1975
0.953976	0.1219
0.966844	0.5484
0.977129	0.3505
0.998883	1.9897
