Adsorption isotherm of Nitrogen on 300kD-FC6
DOI: 10.1021/acsami.6b14835
Article source: Figure 2
Adsorbate Nitrogen: InChIKey IJGRMHOSHXDMSA-UHFFFAOYSA-N
Kind: experiment
Temperature: 77 K
Tabular data in the source: 0
pressure (bar)	uptake (cm3(STP)/g)
0.012827	0.0188
0.031491	0.0246
0.048108	0.0312
0.12104	0.031
0.174985	0.0341
0.228919	0.0339
0.279803	0.0371
0.329675	0.036
0.37988	0.0358
0.429073	0.0398
0.481649	0.0371
0.531855	0.0436
0.580034	0.0443
0.634981	0.0458
0.686889	0.0497
0.736416	0.0604
0.78119	0.0552
0.792731	0.0862
0.835469	0.0592
0.843615	0.1027
0.883648	0.0582
0.891784	0.1427
0.934188	0.0965
0.95964	0.3925
0.985417	0.2
1.00854	2.4561
