Adsorption isotherm of Nitrogen on 300kD-FC10
DOI: 10.1021/acsami.6b14835
Article source: Figure 2
Adsorbate Nitrogen: InChIKey IJGRMHOSHXDMSA-UHFFFAOYSA-N
Kind: experiment
Temperature: 77 K
Tabular data in the source: 0
pressure (bar)	uptake (cm3(STP)/g)
0.025017	0.0249
0.035534	0.0375
0.054866	0.051
0.120331	0.0712
0.189869	0.1049
0.238038	0.1168
0.290959	0.1462
0.344549	0.164
0.396791	0.1783
0.446652	0.1944
0.456491	0.1994
0.506696	0.2087
0.55521	0.2206
0.564369	0.2223
0.609812	0.2475
0.661376	0.2577
0.668499	0.2577
0.714976	0.2779
0.765181	0.2973
0.772304	0.299
0.822165	0.3042
0.828609	0.3402
0.872705	0.3303
0.882533	0.384
0.929689	0.3723
0.940531	0.4495
0.981242	0.4437
0.988315	0.6426
1.00902	0.5998
1.0113	0.9933
