Adsorption isotherm of Nitrogen on 300kD-C6
DOI: 10.1021/acsami.6b14835
Article source: Figure 2
Adsorbate Nitrogen: InChIKey IJGRMHOSHXDMSA-UHFFFAOYSA-N
Kind: experiment
Temperature: 77 K
Tabular data in the source: 0
pressure (bar)	uptake (cm3(STP)/g)
0.011865	0.0218
0.02678	0.0243
0.04441	0.0311
0.060003	0.0294
0.111192	0.0269
0.12407	0.0277
0.185766	0.0336
0.244411	0.0311
0.299328	0.0378
0.35458	0.0353
0.403397	0.0428
0.45798	0.0487
0.513231	0.047
0.570519	0.0537
0.615608	0.0529
0.623066	0.0646
0.672552	0.047
0.680354	0.068
0.72679	0.0546
0.736628	0.0806
0.784422	0.0579
0.790532	0.0898
0.839005	0.0655
0.880021	0.1016
0.894257	0.0646
0.932921	0.1939
0.941716	0.0739
0.967888	0.6019
0.982408	0.1469
1.01283	1.856
