Adsorption isotherm of Nitrogen on 300kD-NM
DOI: 10.1021/acsami.6b14835
Article source: Figure 2
Adsorbate Nitrogen: InChIKey IJGRMHOSHXDMSA-UHFFFAOYSA-N
Kind: experiment
Temperature: 77 K
Tabular data in the source: 0
pressure (bar)	uptake (cm3(STP)/g)
0.03833	0.0395
0.083125	0.037
0.141832	0.0471
0.153038	0.0126
0.168976	0.0521
0.180183	0.0202
0.190356	0.0488
0.20834	0.0185
0.215463	0.0572
0.229041	0.0185
0.238879	0.0546
0.25653	0.021
0.266702	0.0521
0.281982	0.0151
0.295883	0.0504
0.308113	0.0168
0.318955	0.0555
0.328803	0.0244
0.346778	0.0563
0.357305	0.0235
0.36918	0.0513
0.3814	0.021
0.393609	0.0572
0.407531	0.0202
0.417025	0.0538
0.428232	0.0244
0.441799	0.0546
0.456734	0.0227
0.469956	0.0563
0.484557	0.0261
0.494385	0.0605
0.508307	0.0303
0.517467	0.0555
0.537488	0.0294
0.54223	0.0639
0.552413	0.0647
0.56905	0.0361
0.590764	0.0588
0.61113	0.0202
0.624352	0.0672
0.642013	0.0235
0.666766	0.0614
0.684761	0.0193
0.703759	0.0656
0.720396	0.0277
0.737692	0.0614
0.763823	0.0235
0.777391	0.0639
0.79572	0.0303
0.81641	0.063
0.839157	0.0294
0.850688	0.0647
0.874103	0.0328
0.891744	0.0656
0.933469	0.1202
0.951119	0.0857
1.00198	0.2303
1.01026	2.2192
