Adsorption isotherm of Nitrogen on 300kD-FC12
DOI: 10.1021/acsami.6b14835
Article source: Figure 2
Adsorbate Nitrogen: InChIKey IJGRMHOSHXDMSA-UHFFFAOYSA-N
Kind: experiment
Temperature: 77 K
Tabular data in the source: 0
pressure (bar)	uptake (cm3(STP)/g)
0.015219	0.0406
0.030144	0.0456
0.048473	0.0689
0.064087	0.0755
0.097351	0.1005
0.156402	0.137
0.201197	0.1603
0.254138	0.1718
0.308437	0.1933
0.353911	0.2199
0.406174	0.2347
0.457757	0.2512
0.50391	0.2644
0.552778	0.2877
0.610471	0.2908
0.657981	0.309
0.710244	0.3238
0.757075	0.3471
0.813411	0.3602
0.841244	0.3952
0.860242	0.3801
0.895543	0.4368
0.910478	0.4167
0.945779	0.4868
0.962741	0.475
1.00486	0.6939
