Adsorption isotherm of Carbon Dioxide on ZIF-8
DOI: 10.8888/jp206959k
Adsorbate Carbon Dioxide: InChIKey CURLTUGMZLYLDI-UHFFFAOYSA-N
Temperature: 298 K
Tabular data in the source: 0
pressure (bar)	uptake (mmol/g)
1.1623	0.357342
1.33044	0.446768
1.82833	0.59565
2.49274	0.80411
3.6518	1.10175
4.65247	1.48907
6.47755	2.02502
8.63078	2.59057
10.1196	2.94767
12.2631	3.33413
15.0645	3.80965
18.3491	4.16541
21.1424	4.49168
25.2401	4.78713
28.3485	4.90422
32.1165	5.14021
35.5514	5.25705
37.1872	5.31553
40.294	5.40277
