Adsorption isotherm of Carbon Dioxide on MIL-53(Al)
DOI: 10.8888/jp206959k
Adsorbate Carbon Dioxide: InChIKey CURLTUGMZLYLDI-UHFFFAOYSA-N
Temperature: 298 K
Tabular data in the source: 0
pressure (bar)	uptake (mmol/g)
0.819672	1.13131
1.47541	1.57576
2.78689	2.50505
4.42623	3.23232
5.7377	3.87879
7.37705	4.44444
8.85246	4.92929
11.8033	5.61616
14.918	6.06061
18.0328	6.38384
21.9672	6.70707
24.5902	6.82828
27.8689	6.9899
31.9672	7.11111
34.918	7.19192
38.0328	7.27273
39.8361	7.31313
