Adsorption isotherm of Carbon Dioxide on UiO(bdpc)
DOI: 10.1039/C3cc48275h
Adsorbate Carbon Dioxide: InChIKey CURLTUGMZLYLDI-UHFFFAOYSA-N
Temperature: 195 K
Tabular data in the source: 0
pressure (bar)	uptake (wt%)
0.00314916	0.00304075
0.0155358	7.015
0.0338009	13.0326
0.0512262	17.0495
0.0621433	20.56
0.0697012	23.5673
0.0808282	27.578
0.0995133	34.5961
0.112319	50.1085
0.128905	67.1245
0.167955	85.1622
0.195247	90.1885
0.218341	92.7108
0.356904	100.345
0.458936	103.443
