Adsorption isotherm of Carbon Dioxide on UiO(bdpc)
DOI: 10.1039/C3cc48275h
Adsorbate Carbon Dioxide: InChIKey CURLTUGMZLYLDI-UHFFFAOYSA-N
Temperature: 303 K
Tabular data in the source: 0
pressure (bar)	uptake (wt%)
56.3216	5.05438
77.7497	6.00036
110.377	7.89393
168.9	10.0999
217.518	12.6238
325.306	17.9865
422.542	23.0344
530.977	29.0299
638.765	34.3926
751.02	39.1217
858.16	43.8516
959.539	47.9494
1065.71	51.7301
1166.44	55.1952
1271.64	58.0266
1371.72	60.8589
1475.95	62.7411
1580.82	65.2562
1679.61	66.8228
1783.19	68.0723
1881.98	69.6389
1985.89	71.2048
2094.91	72.7698
