Adsorption isotherm of Carbon Dioxide on UiO(bdpc)
DOI: 10.1039/C3cc48275h
Adsorbate Carbon Dioxide: InChIKey CURLTUGMZLYLDI-UHFFFAOYSA-N
Temperature: 195 K
Tabular data in the source: 0
pressure (bar)	uptake (wt%)
0.00304075	0.00304075
0.015001	7.015
0.0326373	13.0326
0.0494628	17.0495
0.0600041	20.56
0.0673018	23.5673
0.0780458	27.578
0.0960876	34.5961
0.108453	50.1085
0.124468	67.1245
0.162173	85.1622
0.188526	90.1885
0.210825	92.7108
0.344618	100.345
0.443138	103.443
