Adsorption isotherm of Carbon Dioxide on UiO(bdpc)
DOI: 10.1039/C3cc48275h
Adsorbate Carbon Dioxide: InChIKey CURLTUGMZLYLDI-UHFFFAOYSA-N
Temperature: 293 K
Tabular data in the source: 0
pressure (bar)	uptake (wt%)
181.394	12.3131
225.545	15.4706
340.066	22.4145
445.329	30.3093
549.621	37.2548
653.59	43.8839
761.378	49.2466
863.728	54.2937
975.659	58.7064
1070.95	61.8559
1176.47	65.0037
1275.91	67.2032
1385.58	69.401
1485.34	71.9169
1583.8	73.1671
1692.5	74.4157
1786.5	76.2996
1894.87	77.2318
1993.66	78.7985
2102.03	79.7307
