Adsorption isotherm of Hydrogen on UiO(bdpc)
DOI: 10.1039/C3cc48275h
Adsorbate Hydrogen: InChIKey UFHFLCQGNIYNRP-UHFFFAOYSA-N
Temperature: 77 K
Tabular data in the source: 0
pressure (bar)	uptake (mmol/g)
0.0175788	0.71885
0.0325041	1.02731
0.0573798	1.5414
0.0769486	1.90138
0.091874	2.20984
0.110779	2.46722
0.170481	3.03438
0.224876	3.44743
0.329353	4.2733
0.432504	4.89397
0.54461	5.56639
0.642786	6.08425
0.749585	6.60254
0.84743	7.0691
0.949585	7.53588
1.05174	8.00265
