Adsorption isotherm of Benzene on UiO(bdpc)
DOI: 10.1039/C3cc48275h
Adsorbate Benzene: InChIKey UHOVQNZJYSORNB-UHFFFAOYSA-N
Temperature: 293 K
Tabular data in the source: 0
pressure (bar)	uptake (wt%)
1.22948e-05	-0.00462199
0.000257402	2.14922
0.000502116	5.42621
0.00069331	21.0763
0.000822899	37.1238
0.000963599	56.5362
0.00145381	60.8438
0.00193252	62.9099
0.00249782	63.446
