Adsorption isotherm of Hydrogen on UiO(bdpc)
DOI: 10.1039/C3cc48275h
Adsorbate Hydrogen: InChIKey UFHFLCQGNIYNRP-UHFFFAOYSA-N
Temperature: 77 K
Tabular data in the source: 0
pressure (bar)	uptake (wt%)
4.42795	-0.0370457
7.16071	0.276725
29.2128	0.626883
45.5509	0.866431
66.6384	1.10585
87.4045	1.30835
98.8324	1.52957
165.076	2.04466
224.32	2.30148
328.881	2.85243
534.466	3.54828
631.706	3.80405
733.695	4.05968
835.201	4.25995
936.547	4.44176
1042.48	4.60498
1133.85	4.73168
1455.27	5.09201
1761.81	5.3789
1833.54	5.4323
