Adsorption isotherm of Methane on UiO(bdpc)
DOI: 10.1039/C3cc48275h
Adsorbate Methane: InChIKey VNWKTOKETHGBQD-UHFFFAOYSA-N
Temperature: 303 K
Tabular data in the source: 0
pressure (bar)	uptake (wt%)
12.7389	0.101911
51.2486	0.460198
89.4651	0.76593
115.236	1.02231
169.07	1.21867
224.076	1.62524
328.865	2.22925
429.31	2.78176
530.341	3.43938
635.13	4.04339
735.869	4.64846
840.365	5.1999
940.81	5.75242
1040.96	6.25238
1157.02	6.69552
1257.18	7.19548
1361.38	7.69437
1464.99	8.08816
1556.75	8.5377
1664.42	8.93042
1763.69	9.27271
1867.6	9.71905
1970.92	10.0603
2074.83	10.5066
