Adsorption isotherm of Cyclohexane on UiO(bdpc)
DOI: 10.1039/C3cc48275h
Adsorbate Cyclohexane: InChIKey XDTMQSROBMDMFD-UHFFFAOYSA-N
Temperature: 293 K
Tabular data in the source: 0
pressure (bar)	uptake (wt%)
7.28314e-06	-0.313509
0.000334256	2.19457
0.000468975	3.93312
0.000568304	5.08455
0.000829436	11.0298
0.000942415	28.4781
0.00102875	41.9476
0.00108145	51.1362
0.00135891	52.7608
0.0016368	53.4619
