Adsorption isotherm of Benzene on UiO(bdpc)
DOI: 10.1039/C3cc48275h
Adsorbate Benzene: InChIKey UHOVQNZJYSORNB-UHFFFAOYSA-N
Temperature: 293 K
Tabular data in the source: 0
pressure (bar)	uptake (wt%)
0.000254772	-0.307294
0.000261631	1.83828
0.00027143	4.90338
0.000694744	57.3159
0.000963234	61.2997
0.00110042	24.2112
0.00250755	64.3601
0.00482009	67.7247
0.00738349	69.5559
0.00994591	71.0806
0.0142976	72.2933
0.0168561	72.592
0.0191598	73.198
0.0206944	73.1933
0.0265786	73.7883
0.0314389	74.0799
0.0362991	74.3715
0.0414161	74.9688
0.0467879	75.2589
0.0511357	75.2456
0.0565065	75.2291
0.0613677	75.8272
0.066227	75.8123
0.0713421	75.7967
0.0769696	76.0859
0.0815721	75.7653
0.0869439	76.0553
0.0918042	76.347
0.0964067	76.0263
