Adsorption isotherm of Nitrogen on UiO(bdpc)
DOI: 10.1039/C3cc48275h
Adsorbate Nitrogen: InChIKey IJGRMHOSHXDMSA-UHFFFAOYSA-N
Temperature: 77 K
Tabular data in the source: 0
pressure (bar)	uptake (wt%)
-0.00784125	46.9365
-0.00633117	32.7619
-0.00317677	3.15261
-0.00234902	22.0495
-0.00140941	13.2297
0.000604034	74.3301
0.0228302	79.0335
0.0539156	80.579
0.0709292	80.8779
0.0851016	81.1794
0.110605	81.7853
0.139017	81.7584
0.156031	82.0573
0.173078	82.0412
0.204264	82.6416
0.246916	82.2864
0.306547	82.545
0.349131	82.8197
0.403081	83.0837
0.457063	83.0327
0.508171	83.2994
0.562154	83.2484
0.613295	83.2
0.664403	83.4667
0.715511	83.7334
0.766653	83.6851
0.817828	83.3217
0.840524	83.6153
0.868936	83.5884
0.897314	83.8766
0.920044	83.8551
0.948456	83.8282
0.976868	83.8014
1.00812	83.7719
