Adsorption isotherm of Cyclohexane on UiO(bdpc)
DOI: 10.1039/C3cc48275h
Adsorbate Cyclohexane: InChIKey XDTMQSROBMDMFD-UHFFFAOYSA-N
Temperature: 293 K
Tabular data in the source: 0
pressure (bar)	uptake (wt%)
-8.66658e-05	0.225331
0.000151872	52.0496
0.000214601	11.6643
0.000238537	51.8242
0.000241839	4.26011
0.000321902	5.82972
0.000401139	54.2904
0.000737898	56.0815
0.00193389	57.6386
0.00587264	60.2867
0.00793199	60.4879
0.0164261	61.5145
0.0208039	61.4653
0.0260385	61.8553
0.0310173	61.7995
0.0358235	61.9699
