Adsorption isotherm of Methane on UiO(bdpc)
DOI: 10.1039/C3cc48275h
Adsorbate Methane: InChIKey VNWKTOKETHGBQD-UHFFFAOYSA-N
Temperature: 283 K
Tabular data in the source: 0
pressure (bar)	uptake (wt%)
64.2806	0.614663
102.497	0.920395
136.663	1.22719
171.415	1.6391
227.301	2.20334
333.262	3.01756
435.466	3.8854
537.67	4.75324
639.874	5.62109
744.956	6.27764
850.625	7.03931
960.051	7.74735
1060.79	8.35242
1161.53	8.95749
1270.07	9.50788
1369.93	9.95528
1470.96	10.6129
1574.87	11.0592
1675.32	11.6118
1774.59	11.9541
1882.85	12.4519
1990.22	12.792
2094.13	13.2384
