Adsorption isotherm of Carbon Dioxide on UiO(bdpc)
DOI: 10.1039/C3cc48275h
Adsorbate Carbon Dioxide: InChIKey CURLTUGMZLYLDI-UHFFFAOYSA-N
Temperature: 313 K
Tabular data in the source: 0
pressure (bar)	uptake (wt%)
15.9902	0.630381
48.9415	2.84036
65.5791	4.10355
96.5883	4.4151
113.226	5.67829
182.948	8.83181
215.252	10.409
321.745	14.5061
427.915	18.2867
534.732	22.7002
630.996	26.7989
742.927	31.2116
849.421	35.3086
950.152	38.7737
1055.67	41.9216
1156.73	45.703
1257.14	48.8517
1362.01	51.3668
1466.56	53.5654
1561.21	56.0821
1670.87	58.2799
1774.78	59.8458
1879.01	61.728
1983.23	63.6102
2081.7	64.8605
