Adsorption isotherm of Methane on UiO(bdpc)
DOI: 10.1039/C3cc48275h
Adsorbate Methane: InChIKey VNWKTOKETHGBQD-UHFFFAOYSA-N
Temperature: 293 K
Tabular data in the source: 0
pressure (bar)	uptake (wt%)
220.905	1.78397
339.019	2.595
432.242	3.3073
537.91	4.06897
639.528	4.8317
744.024	5.38315
845.055	6.04077
958.239	6.6952
1050.58	7.24985
1158.84	7.74767
1259.28	8.30019
1362.9	8.69397
1467.39	9.24542
1575.35	9.6907
1674.92	10.0855
1771.02	10.5866
1878.69	10.9793
1973.91	11.3227
2081.58	11.7154
