Adsorption isotherm of Ethanol on UiO(bdpc)
DOI: 10.1039/C3cc48275h
Adsorbate Ethanol: InChIKey LFQSCWFLJHTTHZ-UHFFFAOYSA-N
Temperature: 293 K
Tabular data in the source: 0
pressure (bar)	uptake (wt%)
1.3684e-07	-0.303054
0.000566246	5.96317
0.00154055	8.21975
0.00200061	9.35271
0.00251431	11.6886
0.00305305	18.5655
0.003535	31.2099
0.00406991	46.5724
0.00436685	48.9455
0.0045015	50.7405
0.0060174	53.51
0.00710053	54.8388
