Adsorption isotherm of Carbon Dioxide on UiO(bdpc)
DOI: 10.1039/C3cc48275h
Adsorbate Carbon Dioxide: InChIKey CURLTUGMZLYLDI-UHFFFAOYSA-N
Temperature: 273 K
Tabular data in the source: 0
pressure (bar)	uptake (wt%)
64.9964	8.53402
110.442	12.9572
179.258	20.2248
231.76	26.5456
348.288	40.4512
464.168	53.724
569.755	61.9352
677.866	67.6143
784.359	71.7113
885.091	75.1764
990.613	78.3243
1094.52	79.8901
1193.31	81.4568
1292.1	83.0234
1396.32	84.9056
1500.23	86.4715
1598.37	87.4053
1707.39	88.9704
1800.09	89.5886
1903.67	90.838
2007.25	92.0875
2110.18	92.7041
