Adsorption isotherm of Methane on UiO(bdpc)
DOI: 10.1039/C3cc48275h
Adsorbate Methane: InChIKey VNWKTOKETHGBQD-UHFFFAOYSA-N
Temperature: 313 K
Tabular data in the source: 0
pressure (bar)	uptake (wt%)
17.1509	0.152429
46.7824	0.353715
93.5648	0.70743
118.22	0.752776
172.507	0.999408
227.405	1.35078
320.052	1.9011
428.932	2.44673
530.001	3.04708
630.152	3.49032
735.279	4.08949
839.794	4.58393
939.639	4.97479
1040.1	5.4704
1152.73	5.96249
1256.63	6.35219
1356.78	6.79542
1456.02	7.08154
1556.47	7.57715
1660.07	7.91447
1759.61	8.25297
1867.26	8.58912
1971.47	9.03118
2070.71	9.3173
