Adsorption isotherm of Deuterium on UiO(bdpc)
DOI: 10.1039/C3cc48275h
Adsorbate Deuterium: InChIKey UFHFLCQGNIYNRP-VVKOMZTBSA-N
Temperature: 77 K
Tabular data in the source: 0
pressure (bar)	uptake (mmol/g)
0.00431034	0
0.0182023	0.815287
0.0241599	1.07006
0.0543049	1.73248
0.0784922	2.14013
0.0977103	2.44586
0.111959	2.64968
0.171947	3.26115
0.218345	3.7707
0.331375	4.58599
0.433807	5.09554
0.537558	5.80892
0.64032	6.36943
0.747062	6.87898
0.845514	7.43949
0.951927	7.89809
1.05867	8.40764
