Adsorption isotherm of Carbon Dioxide on UiO(bdpc)
DOI: 10.1039/C3cc48275h
Adsorbate Carbon Dioxide: InChIKey CURLTUGMZLYLDI-UHFFFAOYSA-N
Temperature: 283 K
Tabular data in the source: 0
pressure (bar)	uptake (wt%)
18.256	2.84521
35.5409	4.74121
68.4923	6.95119
90.8914	8.84638
123.843	11.0564
164.174	15.4804
224.963	19.9011
336.959	29.3771
444.164	39.1702
560.95	48.329
660.128	55.2753
773.678	61.27
880.171	65.3671
981.226	69.1485
1096.01	71.3456
1175.63	74.1811
1290.09	76.0617
1393.99	77.6275
1497.57	78.877
1596.36	80.4436
1705.7	82.325
1798.73	83.2597
1902.31	84.5091
2000.45	85.443
2108.82	86.3752
