Adsorption isotherm of Ethanol on UiO(bdpc)
DOI: 10.1039/C3cc48275h
Adsorbate Ethanol: InChIKey LFQSCWFLJHTTHZ-UHFFFAOYSA-N
Temperature: 293 K
Tabular data in the source: 0
pressure (bar)	uptake (wt%)
0.139108	-0.227632
0.519681	6.19507
1.61121	8.49984
2.69444	12.4091
2.9359	19.0594
3.42238	31.6725
3.76146	46.1176
4.42381	51.3974
5.64733	54.8498
6.60686	56.007
8.11808	57.1704
9.49138	58.3323
10.1786	58.7986
12.6482	61.3484
14.163	61.8242
16.2294	62.3064
18.4327	63.0193
19.9486	63.2659
26.0113	64.4815
30.8362	64.9953
36.0749	65.5138
41.0366	66.2583
45.8615	66.7721
50.9647	66.8305
56.0643	67.5767
