Adsorption isotherm of Hydrogen on [Cu4(oba)4(DMF)4]
DOI: 10.1007/s11426-011-4347-2
Adsorbate Hydrogen: InChIKey UFHFLCQGNIYNRP-UHFFFAOYSA-N
Temperature: 77 K
Tabular data in the source: 0
pressure (bar)	uptake (cm3(STP)/g)
0.00611668	0.0652174
0.00628264	0.0398551
0.012423	0.101449
0.0187531	0.134058
0.0250831	0.166667
0.0282363	0.184783
0.0378855	0.210145
0.0442393	0.23913
0.0506167	0.264493
0.0602896	0.286232
0.0764348	0.318841
0.0860129	0.355072
0.105501	0.376812
0.118422	0.402174
0.131414	0.416667
0.199551	0.503623
0.257991	0.572464
0.329637	0.623188
0.394787	0.666667
0.463256	0.702899
0.521957	0.731884
0.597017	0.76087
0.659013	0.786232
0.721034	0.807971
0.796165	0.826087
0.858185	0.847826
0.930092	0.858696
0.995455	0.869565
