Adsorption isotherm of Hydrogen on [Cu4(oba)4(DMF)4]
DOI: 10.1007/s11426-011-4347-2
Adsorbate Hydrogen: InChIKey UFHFLCQGNIYNRP-UHFFFAOYSA-N
Temperature: 87 K
Tabular data in the source: 0
pressure (bar)	uptake (cm3(STP)/g)
0.0064249	0.0181159
0.0192984	0.0507246
0.0322193	0.076087
0.0516837	0.101449
0.0646283	0.123188
0.0808683	0.141304
0.110124	0.17029
0.119821	0.188406
0.136132	0.195652
0.197939	0.25
0.266337	0.297101
0.328239	0.336957
0.400027	0.365942
0.465295	0.391304
0.53054	0.42029
0.595808	0.445652
0.661124	0.463768
0.729664	0.48913
0.798275	0.503623
0.86032	0.521739
0.928907	0.539855
0.994247	0.554348
