Adsorption isotherm of Carbon Dioxide on [Cu4(oba)4(DMF)4]
DOI: 10.1007/s11426-011-4347-2
Adsorbate Carbon Dioxide: InChIKey CURLTUGMZLYLDI-UHFFFAOYSA-N
Temperature: 77 K
Tabular data in the source: 0
pressure (bar)	uptake (cm3(STP)/g)
0	4.94118
0.00603903	9.88235
0.00905854	23.2941
0.0332146	48
0.0634098	66.3529
0.0875659	71.2941
0.0996439	72
0.1238	74.8235
0.144937	76.9412
0.166073	79.7647
0.190229	80.4706
0.205327	82.5882
0.25062	86.1176
0.31101	90.3529
0.365361	93.8824
0.401595	96
0.455947	99.5294
0.507278	101.647
0.552571	103.059
0.612961	105.176
0.661273	108
0.712605	109.412
0.769976	110.118
0.860561	112.941
0.890757	112.941
0.972283	114.353
