Adsorption isotherm of Nitrogen on [Cu4(oba)4(DMF)4]
DOI: 10.1007/s11426-011-4347-2
Adsorbate Nitrogen: InChIKey IJGRMHOSHXDMSA-UHFFFAOYSA-N
Temperature: 77 K
Tabular data in the source: 0
pressure (bar)	uptake (cm3(STP)/g)
0.00289143	50.1176
0.0115657	134.118
0.0318057	151.059
0.0665029	157.412
0.0751771	159.529
0.0954171	160.235
0.115657	161.647
0.133006	163.765
0.156137	165.176
0.176377	165.882
0.196617	166.588
0.237097	168
0.294926	169.412
0.358537	170.824
0.387451	170.824
0.439497	171.529
0.488651	172.235
0.537806	172.235
0.58696	172.941
0.630331	173.647
0.682377	174.353
0.731531	174.353
0.774903	175.765
0.798034	175.059
0.82984	175.765
0.85008	175.765
0.876103	176.471
0.902126	176.471
0.928149	176.471
0.948389	177.176
0.968629	177.176
