Adsorption isotherm of Krypton on Carbon
DOI: 10.1016/j.fluid.2005.06.012
Adsorbate Krypton: InChIKey DNNSSWSSYDEUBZ-UHFFFAOYSA-N
Temperature: 104 K
Tabular data in the source: 0
pressure (bar)	uptake (mol/m2)
2.86e-05	1.4e-07
5.37e-05	2.78e-07
0.000106	5.3e-07
0.000162	9.89e-07
0.000199	1.67e-06
0.000305	4.38e-06
0.000491	8.02e-06
0.00127822	9.42e-06
0.00308288	9.8e-06
0.00472794	1.15e-05
0.0132608	1.15e-05
0.0599837	1.35e-05
0.0919914	1.83e-05
0.130824	2.63e-05
0.159987	3.77e-05
0.181428	5.1e-05
