Adsorption isotherm of Xenon on Carbon
DOI: 10.1016/j.fluid.2005.06.012
Adsorbate Xenon: InChIKey FHNFHKCVQCLJFQ-UHFFFAOYSA-N
Temperature: 162 K
Tabular data in the source: 0
pressure (bar)	uptake (mol/m2)
0.00101926	4.89e-07
0.00156314	8.08e-07
0.00206143	1.07e-06
0.00308288	2.21e-06
0.00386613	3.18e-06
0.00509853	4.3e-06
0.00655675	5.05e-06
0.0116936	6.69e-06
0.0166299	7.4e-06
0.0733547	8.35e-06
0.176922	9.42e-06
