Adsorption isotherm of Nitrogen on Carbon
DOI: 10.1016/j.fluid.2005.06.012
Adsorbate Nitrogen: InChIKey IJGRMHOSHXDMSA-UHFFFAOYSA-N
Temperature: 77 K
Tabular data in the source: 0
pressure (bar)	uptake (mol/m2)
0.000123	1.9e-07
0.00032	5.41e-07
0.000557	1.12e-06
0.000922	2.45e-06
0.00124647	4.13e-06
0.00201022	6.96e-06
0.00316142	9.23e-06
0.00563822	1.04e-05
0.0108437	1.22e-05
0.0296586	1.25e-05
0.118302	1.41e-05
0.164062	1.41e-05
0.258016	1.56e-05
0.315531	1.87e-05
0.405775	2.47e-05
0.548754	2.85e-05
0.671077	3.41e-05
0.863011	5e-05
0.978674	9.53e-05
