Adsorption isotherm of Methane on Carbon
DOI: 10.1016/j.fluid.2005.06.012
Adsorbate Methane: InChIKey VNWKTOKETHGBQD-UHFFFAOYSA-N
Temperature: 113 K
Tabular data in the source: 0
pressure (bar)	uptake (mol/m2)
0.000402	4.89e-07
0.000586	7.77e-07
0.000855	1.48e-06
0.00112715	2.35e-06
0.00172861	4.38e-06
0.00245832	6.3e-06
0.00472794	7.55e-06
0.00932459	8.51e-06
0.02365	9.04e-06
0.0663331	9.61e-06
0.227523	1.13e-05
0.426711	1.44e-05
0.780403	2.24e-05
0.907538	2.63e-05
