Adsorption isotherm of Argon on Carbon
DOI: 10.1016/j.fluid.2005.06.012
Adsorbate Argon: InChIKey XKRFYHLGVUSROY-UHFFFAOYSA-N
Temperature: 87 K
Tabular data in the source: 0
pressure (bar)	uptake (mol/m2)
1.13e-05	1.7e-06
3.97e-05	6.55e-06
7.26e-05	1.5e-05
0.000143	3.55e-05
0.000231	5.31e-05
0.000444	7.48e-05
0.00134417	9.15e-05
0.00358512	0.000103
0.0143003	0.00011
0.0874779	0.000116
0.227523	0.000129
0.385866	0.000178
0.606841	0.000255
0.907538	0.000367
0.978674	0.000772
