Adsorption isotherm of Methane on Activated carbon: NC100
DOI: 10.1007/s10450-008-9113-1
Article source: Figure 3
Adsorbate Methane: InChIKey VNWKTOKETHGBQD-UHFFFAOYSA-N
Kind: experiment
Temperature: 298 K
Tabular data in the source: 0
pressure (bar)	uptake (mmol/g)
1.76	1.71
2.82	2.34
4.75	3.17
7.92	4.12
10.4	4.71
17.1	5.83
22.9	6.46
30.1	7.04
42	7.62
44.4	7.72
49.5	7.87
59.1	8.05
65.5	8.12
68.3	8.18
73.8	8.16
80.6	8.19
