Adsorption isotherm of Hydrogen sulfide, Methane on Activated carbon: NC100
DOI: 10.1007/s10450-008-9113-1
Article source: Figure 4 
Adsorbate Hydrogen sulfide: InChIKey RWSOTUBLDIXVET-UHFFFAOYSA-N
Adsorbate Methane: InChIKey VNWKTOKETHGBQD-UHFFFAOYSA-N
Kind: experiment
Temperature: 298 K
Tabular data in the source: 0
pressure (bar)	Hydrogen sulfide fraction	Hydrogen sulfide uptake (mmol/g)	Methane fraction	Methane uptake (mmol/g)	total uptake (mmol/g)
10	3.5e-05	0.10638	0.999965	4.5035	
10	3.5e-05	0.14184	0.999965	4.4397	
10	0.000173	0.19149	0.999827	4.5248	
10	0.00059	0.32624	0.99941	4.5106	
10	0.001873	0.46099	0.998127	4.0071	
10	0.004751	0.7305	0.995249	3.8511	
10	0.009052	1.0638	0.990948	3.7943	
10	0.009607	1.0638	0.990393	3.6738	
10	0.026705	1.9007	0.973295	3.2624	
