Adsorption isotherm of Hydrogen sulfide on Activated carbon: NC100
DOI: 10.1007/s10450-008-9113-1
Article source: Figure 2
Adsorbate Hydrogen sulfide: InChIKey RWSOTUBLDIXVET-UHFFFAOYSA-N
Kind: experiment
Temperature: 298 K
Tabular data in the source: 0
pressure (bar)	uptake (mmol/g)
0.754	6.05
1.01	6.73
1.53	8.22
2.15	9.37
2.74	10.3
3.05	10.7
3.56	11.4
4.06	11.9
4.59	12.4
5.11	12.9
5.71	13.3
6.03	13.5
7.12	14.1
8.06	14.5
9.05	14.9
