Adsorption isotherm of Argon on 3Inf[(Cu(mu4-O)(mu2-OH)2(Me2trzpba)4]
DOI: 10.1016/j.micromeso.2010.11.017
Adsorbate Argon: InChIKey XKRFYHLGVUSROY-UHFFFAOYSA-N
Temperature: 77 K
Tabular data in the source: 0
pressure (bar)	uptake (cm3(STP)/g)
3.67e-06	18.9189
4.37e-06	24.3243
4.99e-06	28.8288
7.58e-06	43.2432
8.84e-06	48.6486
1.08e-05	53.1532
1.34e-05	59.4595
2.13e-05	64.8649
3.17e-05	68.4685
4.31e-05	72.0721
5.61e-05	75.6757
6.27e-05	77.4775
7.47e-05	80.1802
8.72e-05	78.3784
0.0001086	79.2793
0.000132376	81.0811
0.000164949	82.8829
0.000205541	84.6847
0.000250541	86.4865
0.00031219	87.3874
0.000474186	91.8919
0.000590866	93.6937
0.000720243	95.4955
0.000897468	97.2973
0.00109398	100
0.00136317	101.802
0.00307644	143.243
0.00328639	151.351
0.00358863	160.36
0.00383353	168.468
0.00409505	177.477
0.00447177	185.586
0.00533223	205.405
0.00865165	209.91
0.010546	209.91
0.0117722	210.811
0.0140375	212.613
0.0167386	213.514
0.0208573	216.216
0.0254243	217.117
0.0303172	220.721
0.0353641	236.036
0.0361507	245.045
0.0369549	254.054
0.0377769	263.063
0.0386171	272.072
0.0394761	299.099
0.0431073	312.613
0.0460482	325.225
0.0481195	349.55
0.0491898	363.964
0.0549093	371.171
0.0684206	378.378
0.0994507	388.288
0.118588	395.495
0.144553	398.198
0.176204	402.703
0.201067	404.505
0.256116	406.306
