Adsorption isotherm of Carbon Dioxide on 3Inf[(Cu(mu4-O)(mu2-OH)2(Me2trzpba)4]
DOI: 10.1016/j.micromeso.2010.11.017
Adsorbate Carbon Dioxide: InChIKey CURLTUGMZLYLDI-UHFFFAOYSA-N
Temperature: 298 K
Tabular data in the source: 0
pressure (bar)	uptake (mmol/g)
0.251046	0.332605
0.585774	0.831469
1.00418	1.37196
2.3431	2.2873
2.84519	2.62017
3.2636	3.11912
3.51464	3.53481
3.59833	3.90878
3.93305	4.32456
4.26778	4.40799
4.76987	4.61623
6.35983	4.99177
7.11297	5.15872
7.78243	5.32559
8.53556	5.40946
9.37238	5.49341
10.1255	5.57728
10.9623	5.70278
11.7155	5.74511
12.4686	5.82897
13.2218	5.91284
13.9749	5.95517
14.728	6.03904
15.4812	6.08136
16.318	6.12377
17.1548	6.16618
17.9916	6.16705
18.8285	6.16792
19.5816	6.29333
20.0837	6.58466
20.5021	6.87589
21.0042	7.16722
21.5063	7.50008
22.0084	7.7914
22.5105	8.12427
23.0126	8.45713
23.5146	8.70691
23.9331	9.12278
25.1883	9.12408
25.9414	9.16641
26.6946	9.20873
29.1213	9.29434
29.9582	9.37829
31.046	9.33788
35.4812	9.34249
39.4979	9.30512
