Adsorption isotherm of Methane on 3Inf[(Cu(mu4-O)(mu2-OH)2(Me2trzpba)4]
DOI: 10.1016/j.micromeso.2010.11.017
Adsorbate Methane: InChIKey VNWKTOKETHGBQD-UHFFFAOYSA-N
Temperature: 273 K
Tabular data in the source: 0
pressure (bar)	uptake (mmol/g)
0.209644	0.238295
0.524109	0.524309
1.04822	0.762903
1.88679	1.14465
3.3543	1.62224
4.29769	1.766
5.7652	2.00549
6.7086	2.14925
7.65199	2.24538
8.59539	2.38914
9.64361	2.48537
10.587	2.62913
11.5304	2.67765
12.4738	2.77378
13.522	2.8224
14.4654	3.01378
15.304	3.15743
16.1426	3.44395
16.9811	3.68284
17.8197	3.96935
18.5535	4.25577
19.4969	4.49476
20.4403	4.68613
21.4885	4.78237
22.5367	4.78337
23.4801	4.8795
24.5283	4.8805
25.4717	4.92902
26.4151	4.92992
27.4633	4.97854
28.5115	5.02715
29.4549	5.02805
30.5031	5.02905
31.5514	5.07767
32.5996	5.07867
33.6478	5.07966
34.696	5.12828
35.4298	5.12898
36.478	5.12998
37.5262	5.13098
38.5744	5.13198
39.6226	5.13297
40.3564	5.13367
41.4046	5.18229
42.4528	5.18329
43.501	5.18429
44.5493	5.18529
45.3878	5.18608
46.4361	5.2347
47.4843	5.2357
48.5325	5.2367
49.4759	5.14236
49.8952	5.19038
