Adsorption isotherm of Carbon Dioxide on 3Inf[(Cu(mu4-O)(mu2-OH)2(Me2trzpba)4]
DOI: 10.1016/j.micromeso.2010.11.017
Adsorbate Carbon Dioxide: InChIKey CURLTUGMZLYLDI-UHFFFAOYSA-N
Temperature: 298 K
Tabular data in the source: 0
pressure (bar)	uptake (mmol/g)
0.167364	0.49869
0.502092	0.914468
1.50628	1.53866
2.00837	1.78844
2.3431	1.95496
3.09623	2.12191
3.76569	2.28878
4.51883	2.41419
5.18828	2.49797
5.94142	2.62338
6.69456	2.74879
7.4477	2.83266
8.20084	2.91653
9.03766	3.00048
9.79079	3.08435
10.6276	3.12676
11.4644	3.16918
12.2176	3.2115
12.9707	3.25383
13.6402	3.33761
14.477	3.33848
15.2301	3.3808
16.0669	3.42321
16.8201	3.46554
17.6569	3.50795
18.4937	3.55036
19.3305	3.55123
20.1674	3.59365
20.7531	3.6358
21.59	3.63667
22.4268	3.67908
23.2636	3.67995
24.1004	3.72236
24.8536	3.76468
25.6904	3.76555
26.5272	3.76642
27.364	3.76729
28.2008	3.76816
29.0377	3.76903
29.8745	3.81144
