Adsorption isotherm of Nitrogen on 3Inf[(Cu(mu4-O)(mu2-OH)2(Me2trzpba)4]
DOI: 10.1016/j.micromeso.2010.11.017
Adsorbate Nitrogen: InChIKey IJGRMHOSHXDMSA-UHFFFAOYSA-N
Temperature: 77 K
Tabular data in the source: 0
pressure (bar)	uptake (cm3(STP)/g)
0.00159811	170.868
0.00319621	189.126
0.0111868	195.638
0.0175792	199.543
0.0303641	200.83
0.044747	202.116
0.0607281	203.4
0.075111	203.382
0.0910922	203.361
0.107074	204.645
0.121456	203.322
0.142232	204.6
0.163007	204.573
0.182185	205.852
0.201361	204.523
0.217343	204.503
0.233323	204.482
0.247707	204.464
0.265286	204.441
0.278071	204.425
0.314827	204.377
0.330808	205.661
0.345191	205.643
0.367564	205.614
0.383546	205.593
0.402723	205.569
0.425096	206.844
0.444274	209.428
0.458657	252.453
0.473039	281.13
0.493815	309.799
0.505002	320.219
0.528973	337.145
0.544955	344.951
0.567328	352.748
0.586505	357.941
0.600889	360.531
0.615271	360.512
0.629654	363.102
0.65842	365.674
0.672803	365.656
0.840604	373.266
0.854988	370.638
0.893342	373.198
0.925304	374.461
0.941286	374.44
0.952472	375.73
0.965257	375.714
0.998817	378.279
1.0132	383.478
