Adsorption isotherm of Carbon Dioxide on 3Inf[(Cu(mu4-O)(mu2-OH)2(Me2trzpba)4]
DOI: 10.1016/j.micromeso.2010.11.017
Adsorbate Carbon Dioxide: InChIKey CURLTUGMZLYLDI-UHFFFAOYSA-N
Temperature: 273 K
Tabular data in the source: 0
pressure (bar)	uptake (mmol/g)
0	0.619048
0.209644	1.09544
0.628931	1.85774
0.943396	2.28661
1.36268	2.57273
1.67715	2.81112
1.88679	3.57323
2.09644	4.19247
2.62055	4.95488
2.93501	5.14565
3.45912	5.28901
4.29769	5.62314
5.13627	5.86203
5.97484	6.05331
6.91824	6.19706
7.96646	6.2933
8.80503	6.43696
9.64361	6.53299
10.3774	6.53369
11.0063	7.01048
11.2159	7.48687
11.4256	7.96326
12.0545	8.86862
12.4738	9.29759
13.2075	9.67925
13.8365	9.87032
14.4654	10.109
15.8281	10.2056
17.086	10.302
18.1342	10.303
19.2872	10.4469
20.8595	10.4961
22.1174	10.5449
24.2138	10.5945
26.9392	10.6447
29.4549	10.6471
29.8742	10.6475
30.9224	10.6485
32.8092	10.6503
33.4382	10.6985
