Adsorption isotherm of Nitrogen on 3Inf[(Cu(mu4-O)(mu2-OH)2(Me2trzpba)4]
DOI: 10.1016/j.micromeso.2010.11.017
Adsorbate Nitrogen: InChIKey IJGRMHOSHXDMSA-UHFFFAOYSA-N
Temperature: 77 K
Tabular data in the source: 0
pressure (bar)	uptake (cm3(STP)/g)
0.00319621	29.9959
0.00799054	40.4245
0.0175792	48.2382
0.0335603	49.522
0.0495413	50.8058
0.0639243	53.396
0.0799054	53.3754
0.0958865	54.6592
0.110269	53.3363
0.126251	54.6201
0.142232	54.5995
0.158212	55.8833
0.172596	54.5604
0.188576	55.8442
0.202959	55.8257
0.218941	57.1095
0.234922	57.0889
0.249305	55.766
0.265286	57.0498
0.281266	57.0292
0.297248	57.0086
0.313229	56.9881
0.32921	56.9675
0.345191	56.9469
0.357976	56.9305
0.373957	56.9099
0.389938	56.8893
0.405919	58.1731
0.420302	56.8502
0.436283	58.134
0.452265	58.1134
0.468245	58.0929
0.484227	58.0723
0.500208	58.0517
0.512992	59.3396
0.528973	58.0147
0.544955	57.9941
0.559337	59.2799
0.575319	57.955
0.591299	57.9344
0.607281	57.9139
0.621663	57.8954
0.637645	57.8748
0.653626	59.1586
0.668009	59.14
0.68399	57.8151
0.699971	57.7945
0.714354	60.3847
0.728737	60.3662
0.744718	60.3456
0.760699	60.3251
0.77668	60.3045
0.792662	60.2839
0.808642	60.2633
0.824624	60.2428
0.839006	61.5286
0.853389	62.8144
0.864576	62.8
0.877361	62.7836
0.893342	62.763
0.909323	61.4381
0.922108	64.0303
0.939687	65.312
0.95407	65.2935
0.968453	69.188
0.981238	74.389
0.994023	80.8943
1.00841	99.1366
