Adsorption isotherm of Nitrogen on 3Inf[(Cu(mu4-O)(mu2-OH)2(Me2trzpba)4]
DOI: 10.1016/j.micromeso.2010.11.017
Adsorbate Nitrogen: InChIKey IJGRMHOSHXDMSA-UHFFFAOYSA-N
Temperature: 77 K
Tabular data in the source: 0
pressure (bar)	uptake (cm3(STP)/g)
0.00319621	139.561
0.00479432	151.298
0.0159811	164.327
0.0303641	168.222
0.044747	173.421
0.0575319	176.013
0.0719149	179.907
0.0878959	181.191
0.102279	183.781
0.11826	185.065
0.134241	186.349
0.150222	187.633
0.164605	187.614
0.178988	191.509
0.193371	190.186
0.207754	192.776
0.222137	191.453
0.23652	194.043
0.263687	196.617
0.405919	206.869
0.45546	217.24
0.509797	221.083
0.554543	223.634
0.570525	223.613
0.586505	224.897
0.602486	224.877
0.618468	226.16
0.632851	227.446
0.648832	228.73
0.664812	228.709
0.680794	228.689
0.696775	229.973
0.711158	232.563
0.727138	232.542
0.74312	232.522
0.757502	233.807
0.773484	233.787
0.789465	233.766
0.803848	236.356
0.819829	236.336
0.832614	238.928
0.848595	238.908
0.864576	240.191
0.880557	241.475
0.89494	242.761
0.909323	246.655
0.923707	249.246
0.939687	250.529
0.95407	254.424
0.968453	258.318
0.989229	268.727
1.00361	297.404
1.0116	337.828
