Adsorption isotherm of Nitrogen on 3Inf[(Cu(mu4-O)(mu2-OH)2(Me2trzpba)4]
DOI: 10.1016/j.micromeso.2010.11.017
Adsorbate Nitrogen: InChIKey IJGRMHOSHXDMSA-UHFFFAOYSA-N
Temperature: 77 K
Tabular data in the source: 0
pressure (bar)	uptake (cm3(STP)/g)
0.0191773	16.9318
0.0351584	18.2156
0.0495413	20.8058
0.0639243	22.0916
0.0783073	23.3775
0.0942883	24.6612
0.110269	24.6407
0.12625	25.9244
0.140633	27.2103
0.156615	27.1897
0.170997	28.4755
0.186979	28.4549
0.201362	29.7408
0.215744	29.7223
0.230127	29.7037
0.246109	30.9875
0.26209	30.9669
0.278071	30.9464
0.290856	30.9299
0.306837	32.2137
0.322818	32.1931
0.338799	32.1725
0.353182	33.4584
0.369163	32.1335
0.385144	32.1129
0.401125	32.0923
0.415508	34.6825
0.429891	34.664
0.445872	34.6434
0.461853	34.6228
0.477834	34.6022
0.493815	34.5817
0.509796	34.5611
0.522581	37.1533
0.538562	37.1328
0.552945	35.8099
0.567328	37.0957
0.580113	37.0793
0.596094	37.0587
0.612075	37.0381
0.626458	37.0196
0.642439	36.999
0.65842	38.2828
0.672803	38.2643
0.685588	38.2478
0.699971	39.5337
0.715952	39.5131
0.731933	39.4925
0.746316	40.7784
0.759101	42.0662
0.775082	42.0457
0.791063	43.3294
0.805446	44.6153
0.819829	45.9011
0.834212	47.1869
0.850193	49.7751
0.864576	51.0609
0.880557	53.649
0.89494	56.2392
0.907725	58.8314
0.918912	60.1214
0.939687	65.312
0.95407	65.2935
0.968453	69.188
0.981238	74.389
0.994023	80.8943
1.00521	99.1407
