Adsorption isotherm of Carbon Dioxide on 3Inf[(Cu(mu4-O)(mu2-OH)2(Me2trzpba)4]
DOI: 10.1016/j.micromeso.2010.11.017
Adsorbate Carbon Dioxide: InChIKey CURLTUGMZLYLDI-UHFFFAOYSA-N
Temperature: 298 K
Tabular data in the source: 0
pressure (bar)	uptake (mmol/g)
0.251046	0.332605
0.83682	0.582471
1.25523	0.749078
1.841	0.957402
2.42678	1.08264
3.76569	1.20866
5.18828	1.33477
6.0251	1.41872
6.77824	1.46105
7.61506	1.545
8.45188	1.58741
9.20502	1.5882
10.1255	1.63069
10.9623	1.67311
11.7992	1.71552
12.4686	1.75776
13.3054	1.75863
14.1423	1.80104
14.8954	1.80182
15.7322	1.80269
16.569	1.8451
17.4059	1.84597
18.159	1.8883
18.9958	1.88916
19.8326	1.93158
20.5858	1.93236
21.4226	1.97477
22.2594	1.97564
23.0962	1.97651
23.9331	1.97738
24.7699	2.01979
25.1883	1.97868
26.0251	1.97955
26.8619	1.98042
27.6987	2.02283
28.5356	2.0237
29.3724	2.02457
30.1255	2.02535
30.9623	2.02622
31.7992	2.02709
32.636	2.02796
33.4728	2.02883
34.3096	2.0297
35.1464	2.07211
