Adsorption isotherm of Carbon Dioxide on 3Inf[(Cu(mu4-O)(mu2-OH)2(Me2trzpba)4]
DOI: 10.1016/j.micromeso.2010.11.017
Adsorbate Carbon Dioxide: InChIKey CURLTUGMZLYLDI-UHFFFAOYSA-N
Temperature: 298 K
Tabular data in the source: 0
pressure (bar)	uptake (mmol/g)
0.585774	0.540668
1.00418	0.665731
2.51046	1.04118
4.01674	1.37509
4.68619	1.54196
5.27197	1.62565
6.10879	1.66807
6.86192	1.75193
7.69874	1.79435
8.53556	1.83676
9.37238	1.87917
10.1255	1.87995
10.9623	1.96391
11.7155	1.96469
12.5523	2.0071
13.3891	2.04951
14.2259	2.09193
14.9791	2.13425
15.8159	2.13512
16.569	2.17745
17.4059	2.17831
18.2427	2.17918
19.0795	2.2216
19.9163	2.22247
20.6695	2.30633
21.5063	2.3072
22.3431	2.34961
23.1799	2.35048
23.9331	2.39281
24.7699	2.43522
25.6067	2.43609
26.4435	2.43696
27.1967	2.52083
28.0335	2.56324
28.7866	2.60556
29.5397	2.64789
30.3766	2.6903
31.2134	2.73271
32.0502	2.73358
32.887	2.73445
33.7238	2.73532
34.5607	2.73619
35.3975	2.73706
