Adsorption isotherm of Nitrogen on 3Inf[(Cu(mu4-O)(mu2-OH)2(Me2trzpba)4]
DOI: 10.1016/j.micromeso.2010.11.017
Adsorbate Nitrogen: InChIKey IJGRMHOSHXDMSA-UHFFFAOYSA-N
Temperature: 77 K
Tabular data in the source: 0
pressure (bar)	uptake (cm3(STP)/g)
1.92e-06	17.1171
2.29e-06	18.9189
2.61e-06	25.2252
3.11e-06	31.5315
3.47e-06	38.7387
4.23e-06	39.6396
4.52e-06	41.4414
5.64e-06	43.2432
6.87e-06	45.045
8.56e-06	46.8468
1.04e-05	49.5495
1.3e-05	51.3514
1.58e-05	54.0541
1.97e-05	55.8559
2.75e-05	59.4595
3.5e-05	62.1622
0.00012533	74.7748
0.000226994	81.0811
0.000264786	81.982
0.000322757	84.6847
0.000402184	87.3874
0.000490236	90.991
0.000610865	93.6937
0.000744621	96.3964
0.000907664	100.901
0.00123505	120.721
0.00131931	127.928
0.00144067	136.036
0.00153895	145.045
0.00168053	153.153
0.00179517	161.261
0.0020039	169.369
0.00284928	183.784
0.00387699	187.387
0.0050483	190.09
0.00801282	193.694
0.013001	197.297
0.0210943	200
0.0327526	200.901
0.046571	202.703
0.0580303	202.703
0.0723095	203.604
0.0901022	203.604
0.112275	204.505
0.139901	204.505
0.170534	205.405
0.212496	205.405
0.264784	205.405
0.329939	206.306
0.402181	208.108
0.439176	218.018
0.448944	227.027
0.45893	254.054
0.469138	281.982
0.490239	309.009
0.501145	321.622
0.512292	337.838
0.523686	345.946
0.559414	355.856
0.610872	363.063
0.697068	370.27
0.831204	375.676
