Adsorption isotherm of Methanol on 3Inf[(Cu(mu4-O)(mu2-OH)2(Me2trzpba)4]
DOI: 10.1016/j.micromeso.2010.11.017
Adsorbate Methanol: InChIKey OKKJLVBELUTLKV-UHFFFAOYSA-N
Temperature: 298 K
Tabular data in the source: 0
pressure (bar)	uptake (mmol/g)
0.000357495	0.379922
0.00285996	1.2827
0.00571992	2.37549
0.00929486	3.32604
0.0117973	4.94098
0.0128698	5.17867
0.0150148	5.55909
0.0175172	5.84466
0.0207347	6.13043
0.0235947	6.41609
0.0264546	6.65428
0.0296721	6.84509
0.0336045	7.17854
0.0364645	7.41672
0.0396819	7.51258
0.0425419	7.75077
0.0457593	7.84662
0.0489768	7.98995
0.0521942	8.03833
0.0554117	8.18166
0.0582716	8.41985
0.0597016	8.61016
0.0614891	9.03796
0.0636341	9.56082
0.0647065	10.0834
0.0661365	10.5111
0.067209	10.9862
0.0689965	11.4139
0.070069	11.6991
0.0725714	11.9847
0.0754314	12.2703
0.0782913	12.4136
0.0818663	12.557
0.0850837	12.7003
0.0883012	12.7962
0.0918761	12.8922
0.0950936	12.9405
0.0986685	12.989
0.101886	13.0849
0.105461	13.1808
0.108678	13.2292
0.112253	13.2302
0.115471	13.3261
0.118688	13.3744
0.122263	13.4229
0.125838	13.5189
0.129056	13.6147
0.132273	13.6631
0.135491	13.759
0.139065	13.8549
0.14264	13.9034
0.145858	14.0467
0.149075	14.1426
0.15408	14.3814
