Adsorption isotherm of Carbon Dioxide on 3Inf[(Cu(mu4-O)(mu2-OH)2(Me2trzpba)4]
DOI: 10.1016/j.micromeso.2010.11.017
Adsorbate Carbon Dioxide: InChIKey CURLTUGMZLYLDI-UHFFFAOYSA-N
Temperature: 298 K
Tabular data in the source: 0
pressure (bar)	uptake (mmol/g)
0.270821	0.522455
0.541642	0.760044
1.21869	1.33028
1.89575	2.09042
2.30198	2.42306
2.97903	2.75591
3.65608	3.23119
4.06232	4.41843
5.41642	4.79925
6.49971	5.03744
7.44758	5.27553
8.53086	5.37128
9.74956	5.56209
10.9683	5.70543
12.3224	5.80138
13.5411	5.94471
14.8952	6.04067
16.1139	6.08905
17.3325	6.1849
18.6867	6.1859
19.9053	6.47167
20.5824	6.89947
21.3949	7.42232
22.0719	7.80264
22.749	8.23044
23.2906	8.56319
24.1031	9.08604
26.1342	9.1825
27.3529	9.27835
29.7903	9.42258
