Adsorption isotherm of Carbon Dioxide on Reference wedge pore (2 double-layer humps, Domains 0 K)
DOI: 10.1007/s10450-022-00363-x
Article source: Figure 11
Adsorbate Carbon Dioxide: InChIKey CURLTUGMZLYLDI-UHFFFAOYSA-N
Kind: experiment
Temperature: 150 K
Tabular data in the source: 0
pressure (bar)	uptake (kmol/m3)
0.001978	0.764982
0.002803	1.75261
0.004177	3.59323
0.006062	5.63577
0.006964	6.06209
0.008101	6.26383
0.009827	6.80218
0.01218	6.91378
0.01414	7.16019
0.026021	7.80796
0.027942	7.98703
0.029942	7.98648
0.033902	8.12008
0.040058	8.25307
0.049978	8.54216
0.059976	8.76388
0.061975	8.71842
0.063858	8.8975
0.065935	8.85202
0.068013	8.85144
0.069948	20.0316
0.071948	20.4576
0.074027	20.704
0.075948	20.7259
0.077908	20.7703
0.079908	20.882
0.081947	21.0835
0.083986	20.9931
0.085907	21.0599
0.087868	21.4635
0.089999	32.5538
0.093137	34.2143
0.093882	34.0345
0.099881	34.0778
0.09204	34.3718
0.088	33.677
0.077843	31.5694
0.07596	30.7617
0.073842	30.2459
0.07192	29.5953
0.069999	29.2366
0.067999	29.08
0.06592	28.4295
0.063842	28.2729
0.061959	27.8694
0.060038	27.7352
0.058038	27.3765
0.05592	26.4791
0.05396	26.5245
0.052024	14.7381
0.049985	14.4917
0.047985	14.4699
0.045946	14.3582
0.044025	14.2015
0.041947	14.1123
0.039986	13.9782
0.037986	13.7093
0.035948	13.6425
