Adsorption isotherm of Carbon Dioxide on Reference wedge pore (L= 10nm, SH- 2nm, a= 5)
DOI: 10.1007/s10450-022-00363-x
Article source: Figure 4
Adsorbate Carbon Dioxide: InChIKey CURLTUGMZLYLDI-UHFFFAOYSA-N
Kind: experiment
Temperature: 216 K
Tabular data in the source: 0
pressure (bar)	uptake (kmol/m3)
6e-06	0.305836
7.1e-05	0.377003
0.000114	0.557633
0.000157	0.88354
0.000186	1.17343
0.000214	1.49969
0.000272	1.97052
0.000326	2.40513
0.000378	3.27562
0.000421	3.31097
0.000466	3.89106
0.000493	4.3626
0.000541	4.39785
0.000622	4.79553
0.00069	5.22984
0.000741	5.6645
0.000805	5.80835
0.000854	5.95251
0.000926	6.13248
0.000978	6.24027
0.001032	6.42065
0.00108	6.74645
0.001161	6.78095
0.00124	6.85181
0.001292	7.10488
0.001344	7.14003
0.001393	7.13891
0.001436	7.17427
0.001468	7.17356
0.001495	7.17295
0.001623	7.38797
0.001765	7.67532
0.00191	7.78103
0.002065	7.99545
0.002203	8.21027
0.002359	8.20677
0.002494	8.349
0.002652	8.67232
0.002799	8.99589
0.002938	9.02907
0.003083	9.13478
0.003245	9.20376
0.003385	9.87252
0.003376	10.9441
0.003529	12.9019
0.003681	13.6612
0.003816	14.1666
0.003976	14.8894
0.004125	15.3945
0.00427	16.4445
0.004416	16.877
0.00456	17.927
0.004709	18.6501
0.004848	19.3733
0.004987	20.024
