Adsorption isotherm of Carbon Dioxide on Reference wedge pore (2 layers 2 humps junctions)
DOI: 10.1007/s10450-022-00363-x
Article source: Figure 10
Adsorbate Carbon Dioxide: InChIKey CURLTUGMZLYLDI-UHFFFAOYSA-N
Kind: experiment
Temperature: 150 K
Tabular data in the source: 0
pressure (bar)	uptake (kmol/m3)
2.7e-05	0.035181
0.00083	0.921305
0.005078	5.81135
0.009838	6.76421
0.015972	7.22531
0.017807	7.32426
0.019871	7.45609
0.021705	7.52223
0.024055	7.58852
0.026005	7.81875
0.027667	7.81922
0.030132	7.81992
0.031795	7.95163
0.033801	7.98501
0.035922	8.01843
0.037872	8.18303
0.039993	8.28207
0.041942	8.31543
0.044006	8.34883
0.045898	8.31655
0.048076	8.44841
0.049853	8.48173
0.051917	8.61356
0.054096	8.6798
0.055815	8.68029
0.057937	8.81213
0.06	8.81271
0.061949	8.9117
0.062924	8.84636
0.0639	9.69972
0.066098	25.8433
0.067073	26.1061
0.068047	26.2376
0.069022	26.3363
0.069767	26.4022
0.0708	26.5665
0.071774	26.5996
0.073838	26.5674
0.075901	26.568
0.079915	27.5206
0.081868	30.5726
0.087776	33.2976
0.093968	33.8571
0.099988	34.0557
0.079979	32.3439
0.077915	32.048
0.075965	31.6209
0.07401	27.0596
0.072004	26.895
0.069997	26.7303
0.067933	26.6641
0.065869	26.4995
0.064035	26.499
0.062086	26.3672
0.059907	26.0713
0.057957	25.7098
0.055836	25.5123
0.053944	25.3149
0.052053	25.5113
0.049925	20.5562
0.047919	20.4572
0.045855	20.4238
0.043963	20.1936
0.041957	20.0946
0.040007	19.93
0.038115	19.6013
0.035936	19.3382
0.033873	19.1408
