Adsorption isotherm of Carbon Dioxide on Reference wedge pore (2 layers 3 humps domains)
DOI: 10.1007/s10450-022-00363-x
Article source: Figure 14
Adsorbate Carbon Dioxide: InChIKey CURLTUGMZLYLDI-UHFFFAOYSA-N
Kind: experiment
Temperature: 150 K
Tabular data in the source: 0
pressure (bar)	uptake (kmol/m3)
5e-05	0.028313
0.001011	1.43979
0.005265	5.85717
0.010064	6.79815
0.016233	7.32092
0.018334	7.42547
0.02432	7.66072
0.030123	7.79141
0.032087	7.89597
0.033961	8.0528
0.036154	8.13121
0.038302	8.20963
0.040083	8.18349
0.041957	8.31418
0.0442	12.3134
0.046257	12.5225
0.047947	12.7054
0.050003	12.7054
0.052288	13.1236
0.05604	17.6194
0.058005	17.8285
0.060016	18.1683
0.061889	18.3252
0.064037	18.5866
0.066149	27.3429
0.068046	27.918
0.07008	28.3623
0.07209	28.5976
0.074034	29.8783
0.076021	30.1136
0.080089	31.4466
0.082056	33.3025
0.088179	33.8514
0.094211	34.1389
0.100151	34.6617
0.080137	33.0672
0.077989	32.9104
0.065967	27.7089
0.064001	27.0031
0.062127	26.4281
0.060025	25.9837
0.058014	25.095
0.05403	17.3581
0.051836	17.2274
0.049963	16.8614
0.047998	16.8353
0.045988	16.7046
0.044068	16.4694
0.041966	16.3909
0.040002	16.1557
0.038037	16.0511
0.036072	15.8943
0.034011	11.686
0.031955	11.5031
0.030081	11.4508
0.027934	11.1894
0.026014	10.9803
