Adsorption isotherm of Carbon Dioxide on Reference wedge pore (L= 10nm, SH- 2nm, a= 5)
DOI: 10.1007/s10450-022-00363-x
Article source: Figure 4
Adsorbate Carbon Dioxide: InChIKey CURLTUGMZLYLDI-UHFFFAOYSA-N
Kind: experiment
Temperature: 194 K
Tabular data in the source: 0
pressure (bar)	uptake (kmol/m3)
-6e-06	0.371012
4.1e-05	0.495478
8e-05	0.557361
0.000111	0.995973
0.000154	1.24604
0.000212	2.0606
0.000274	2.56127
0.000345	3.56383
0.000419	4.62907
0.000504	5.12922
0.000571	5.44152
0.000652	6.00451
0.000719	6.06578
0.000804	6.31489
0.000871	6.43892
0.000937	7.12778
0.000999	7.12638
0.001087	7.06164
0.001167	7.37364
0.001222	7.2469
0.001303	7.43333
0.001389	7.55692
0.001459	7.55535
0.001553	7.55324
0.001631	7.48873
0.001717	7.98887
0.001818	8.11211
0.001911	8.11001
0.002021	7.98204
0.002093	8.35697
0.002175	8.35513
0.00227	8.41574
0.002375	8.41337
0.002469	8.66231
0.002537	8.72353
0.002597	8.72217
0.002644	8.72112
0.002699	8.71989
0.002726	8.71928
0.002765	8.78116
0.002843	8.96769
0.002894	8.96655
0.002948	8.96532
0.003007	9.02676
0.003085	8.96225
0.003128	8.96129
0.003256	9.33495
0.00328	11.28
0.003303	13.225
0.003365	13.6629
0.003432	13.9124
0.003471	14.0998
0.003568	14.5369
0.003654	14.7233
0.003704	15.4753
0.003782	15.2852
0.003856	15.8484
0.003934	16.4115
0.004005	16.7864
0.004168	17.8497
0.004297	18.4744
0.004406	18.8485
0.004457	19.5377
0.004589	20.225
0.004718	21.2891
0.004827	21.6632
0.004901	21.9753
0.004952	22.2252
0.004991	23.354
0.003245	13.3518
0.003194	13.3529
0.003163	12.2867
