Adsorption isotherm of Carbon Dioxide on Reference wedge pore (L= 10nm, SH- 2nm, a= 5)
DOI: 10.1007/s10450-022-00363-x
Article source: Figure 4
Adsorbate Carbon Dioxide: InChIKey CURLTUGMZLYLDI-UHFFFAOYSA-N
Kind: experiment
Temperature: 155 K
Tabular data in the source: 0
pressure (bar)	uptake (kmol/m3)
6.4e-05	0.184093
0.000146	1.43743
0.000208	2.94225
0.000239	4.63604
0.000317	5.88947
0.000376	6.32747
0.000461	6.70209
0.000547	7.01396
0.000629	7.38867
0.000785	7.25965
0.000929	7.63296
0.001183	7.81554
0.001319	7.93799
0.001549	7.87006
0.001705	7.99207
0.001798	8.11549
0.001853	8.23978
0.001919	8.17553
0.001966	8.17448
0.002013	8.3617
0.002102	8.42245
0.002153	8.42131
0.002348	8.66796
0.002492	8.47644
0.002742	8.78463
0.002905	8.8437
0.003131	9.0269
0.003283	9.08624
0.003506	9.08124
0.003716	9.26478
0.003833	23.1319
0.003892	24.0092
0.003872	25.8924
0.003938	26.3302
0.003981	26.8314
0.004059	26.8924
0.004118	26.64
0.004157	27.5805
0.004223	27.7045
0.004281	27.3894
0.004363	27.5759
0.004441	28.0762
0.004488	29.2048
0.004566	28.952
0.004632	29.2643
0.004675	29.6399
0.004772	29.9515
0.00485	30.3263
0.004928	30.9522
0.005026	30.6989
0.003724	25.7702
0.003755	24.3888
0.003701	23.5114
0.003642	22.3203
0.003595	21.5055
0.003549	21.6948
0.003459	20.9438
0.003326	20.0681
0.003221	19.8822
0.003128	19.5077
0.003042	18.5055
0.002929	18.6963
0.002855	16.7525
0.002761	16.2525
0.002675	15.8779
0.00259	15.6288
0.0025	15.5053
0.002438	15.1929
0.002364	14.818
0.002278	14.4434
0.002192	14.257
