Adsorption isotherm of Carbon Dioxide on Reference wedge pore (L= 10nm, SH- 2nm, a= 5)
DOI: 10.1007/s10450-022-00363-x
Article source: Figure 2
Adsorbate Carbon Dioxide: InChIKey CURLTUGMZLYLDI-UHFFFAOYSA-N
Kind: experiment
Temperature: 150 K
Tabular data in the source: 0
pressure (bar)	uptake (kmol/m3)
4.4e-05	0.457466
0.000107	0.895377
0.000169	2.65123
0.000232	5.16019
0.000274	6.16337
0.000348	6.4755
0.000463	6.97499
0.000559	7.16111
0.00068	7.66047
0.000793	7.65793
0.000921	7.90607
0.001144	8.02659
0.001416	8.20874
0.001561	8.07997
0.001713	8.26483
0.001763	8.32645
0.001989	8.50965
0.002266	8.50342
0.002555	8.87349
0.002835	8.80442
0.003128	8.98612
0.003416	8.91688
0.003545	9.29054
0.003689	9.16178
0.003825	9.34699
0.003919	9.21937
0.003981	9.40624
0.00402	27.9193
0.004118	28.0426
0.004145	28.6068
0.004188	28.7314
0.004274	29.4198
0.00432	30.2346
0.004406	31.6134
0.004468	32.0513
0.00455	32.1122
0.004613	32.2363
0.004675	32.486
0.004737	32.4846
0.00478	32.107
0.004835	32.4824
0.004913	32.6061
0.004995	32.5415
0.003942	27.7328
0.003888	27.6712
0.003845	27.6094
0.003743	27.549
0.003704	27.4243
0.00363	27.1122
0.003541	27.1142
0.003474	26.5509
0.003389	26.5528
0.003315	26.1779
0.003252	25.4889
0.003174	24.5493
0.003081	20.9742
0.002979	20.5999
0.002855	20.1006
0.002726	19.9152
0.002633	19.6035
0.002555	18.2873
0.002484	15.5275
0.002406	15.2155
0.002352	15.2167
0.002227	14.9057
0.002106	14.2181
0.001997	14.2205
0.00195	14.2844
0.001798	13.974
