Adsorption isotherm of Carbon Dioxide on Reference wedge pore (2 layers 2 humps domains)
DOI: 10.1007/s10450-022-00363-x
Article source: Figure 10
Adsorbate Carbon Dioxide: InChIKey CURLTUGMZLYLDI-UHFFFAOYSA-N
Kind: experiment
Temperature: 150 K
Tabular data in the source: 0
pressure (bar)	uptake (kmol/m3)
-3.1e-05	-0.096079
0.001002	0.330756
0.005135	4.99109
0.009895	6.9611
0.016144	7.48784
0.018036	7.554
0.019928	7.65297
0.021877	7.65352
0.02417	7.78542
0.02996	7.75425
0.031967	8.08293
0.034088	8.14915
0.03598	8.21531
0.037815	8.31426
0.039936	8.41329
0.042	8.51231
0.043949	8.57849
0.045783	8.67744
0.047962	8.71087
0.049739	8.74418
0.051975	8.90887
0.054268	8.94233
0.056045	8.94284
0.057822	9.1074
0.059886	9.14079
0.06195	9.27262
0.064014	9.27321
0.066099	26.7292
0.067992	27.8454
0.069999	28.1084
0.071891	28.798
0.074186	29.6517
0.07602	29.9475
0.080093	31.8517
0.082102	33.8538
0.088121	34.2492
0.094084	34.6446
0.099989	35.04
0.080267	33.4267
0.077916	33.2292
0.075795	33.1301
0.065756	27.7791
0.063805	25.9739
0.061909	22.4954
0.059788	22.462
0.057896	22.3138
0.056004	22.0344
0.053825	22.0338
0.051876	21.8692
0.049812	21.803
0.04792	21.6712
0.045971	21.5722
0.044022	21.4076
0.041958	21.1445
0.040066	21.0127
0.03783	20.5856
0.035817	15.3024
0.033982	15.2035
0.029998	15.0219
0.02779	14.6439
0.026013	14.5122
0.024006	13.9538
