Adsorption isotherm of Carbon Dioxide on Reference wedge pore (L= 10nm, SH= 2nm, a=1)
DOI: 10.1007/s10450-022-00363-x
Article source: Figure 8A
Adsorbate Carbon Dioxide: InChIKey CURLTUGMZLYLDI-UHFFFAOYSA-N
Kind: experiment
Temperature: 150 K
Tabular data in the source: 0
pressure (bar)	uptake (kmol/m3)
0.003775	6.76575
0.004099	7.97583
0.004747	8.85373
0.005921	9.54182
0.006852	9.80282
0.007946	10.0638
0.008836	10.3723
0.010092	10.5858
0.011104	10.7282
0.012157	10.7994
0.013898	10.9892
0.015983	11.2739
0.019931	11.5823
0.024871	11.7722
0.029851	11.962
0.035075	12.3179
0.036006	12.3179
0.038031	12.484
0.039124	12.484
0.040055	12.484
0.040865	32.8418
0.041958	32.9842
0.04289	33.1503
0.043862	33.1028
0.045724	33.2689
0.046898	33.3875
0.049004	33.5774
0.050016	33.7197
0.051029	33.8384
0.052365	33.9333
0.053134	35.0722
0.054146	35.1196
0.054956	35.1908
0.056211	35.4518
0.057102	35.5942
0.057953	35.6891
0.058803	35.7365
0.059856	35.7365
0.060989	35.8552
0.061921	35.9263
0.063378	36.0687
0.06431	36.1636
0.06516	36.1636
0.066375	36.1873
0.067225	36.1873
0.068156	36.0924
0.069169	36.1399
0.070302	36.0687
0.071234	36.045
0.072448	35.9738
0.072853	35.9975
0.073906	36.0687
0.07508	36.0924
0.075971	36.1636
0.077065	36.2348
0.078117	36.2348
0.078846	36.2822
0.079939	36.2585
0.081073	36.306
0.082004	36.3772
0.083138	36.3534
0.084191	36.3534
0.085163	36.3297
0.086297	36.306
0.08743	36.3297
0.088443	36.3772
0.089333	36.3534
0.090022	36.3772
0.095002	36.6144
0.099861	36.4009
0.099942	37.0415
0.094962	37.1602
0.0899	37.089
0.08909	36.9941
0.087754	36.8517
0.087066	36.8992
0.086054	36.8042
0.085041	36.828
0.083989	36.7568
0.082976	36.7568
0.081923	36.8517
0.080992	36.6856
0.079939	36.7093
0.079049	36.6382
0.078036	36.6382
0.077024	36.6144
0.076052	36.7331
0.074878	36.4246
0.073987	36.4958
0.072894	36.5195
0.071963	36.5195
0.071031	36.567
0.070019	36.5195
0.069007	36.306
0.068116	36.306
0.067063	36.4246
0.06601	36.2348
0.064836	36.1873
0.063621	36.1162
0.063014	36.1873
0.061921	36.045
0.060989	35.9501
0.059937	35.7603
0.058924	35.8314
0.057993	35.784
0.05694	35.6891
0.05609	35.4755
0.054875	35.4755
0.053984	35.5467
0.052972	35.4993
0.052081	35.001
0.049976	34.8112
0.04787	34.6688
0.045967	34.5739
0.038841	32.0588
0.035966	31.608
0.033982	31.0623
0.031876	30.564
0.030013	29.8048
0.02807	28.8319
0.025762	27.5981
0.024061	26.5304
0.021956	25.3441
0.01985	23.873
0.017907	22.568
0.015882	20.7173
0.014019	18.131
