Adsorption isotherm of Carbon Dioxide on Reference wedge pore (L= 15nm, SH= 2nm, a= 1)
DOI: 10.1007/s10450-022-00363-x
Article source: Figure 8A
Adsorbate Carbon Dioxide: InChIKey CURLTUGMZLYLDI-UHFFFAOYSA-N
Kind: experiment
Temperature: 150 K
Tabular data in the source: 0
pressure (bar)	uptake (kmol/m3)
0.002158	1.10224
0.002859	4.20023
0.003911	7.94076
0.004928	8.95047
0.005906	9.43238
0.00798	9.98313
0.009937	10.2815
0.010877	10.4191
0.012169	10.465
0.01393	10.7634
0.015966	10.8552
0.01992	11.1076
0.024852	11.4059
0.029942	11.6124
0.034913	11.796
0.03597	11.8878
0.037928	11.9567
0.039924	12.0944
0.041971	35.226
0.042911	35.2719
0.043929	35.2489
0.044907	35.3866
0.045964	35.4096
0.046904	35.5472
0.047843	35.5472
0.0489	35.5014
0.049918	35.4784
0.050858	35.6849
0.05168	35.7767
0.052815	35.7767
0.053989	35.8456
0.054811	35.9374
0.055829	35.9833
0.056886	35.9144
0.057787	35.9833
0.058883	36.0062
0.059901	36.0751
0.060997	35.9833
0.062211	36.2357
0.063855	36.3045
0.064716	36.3045
0.065812	36.2816
0.066948	36.2586
0.067926	36.3045
0.068944	36.3504
0.069884	36.3045
0.070902	36.2816
0.071841	36.4652
0.072937	36.4193
0.073799	36.4422
0.074738	36.4881
0.075795	36.4881
0.07697	36.4652
0.077988	36.6029
0.078966	36.6029
0.079828	36.6488
0.080845	36.7864
0.081942	36.7635
0.082842	36.7635
0.083899	36.9012
0.084878	36.8094
0.085817	36.8094
0.086835	36.8094
0.089928	36.993
0.094939	37.2684
0.099911	37.3142
0.089967	37.3142
0.088949	37.2225
0.087931	37.2684
0.086835	37.2684
0.085934	37.1536
0.084877	37.1536
0.083977	37.2225
0.083507	37.1766
0.082881	37.0389
0.081941	36.993
0.080923	37.1536
0.079945	36.993
0.078849	36.9241
0.077948	36.993
0.07693	37.0618
0.075873	36.97
0.074777	36.8553
0.073994	36.7635
0.072898	36.8782
0.071801	36.9471
0.070823	36.9471
0.070392	36.7635
0.069766	36.7176
0.068983	36.8323
0.067456	36.6947
0.064872	36.557
0.062328	36.4881
0.059861	36.4652
0.054928	36.3963
0.051875	36.121
0.049918	36.098
0.047843	35.9374
0.045611	35.8226
0.044084	35.8915
0.041931	35.7079
0.039896	35.3178
0.037939	35.1571
0.035825	34.9735
0.033946	34.6982
0.031871	34.4687
0.029875	34.2622
0.027957	34.0556
0.025882	33.5278
0.023848	32.6558
0.021852	31.6231
0.018931	19.3459
0.017953	18.7722
0.016975	18.2903
0.015918	17.6019
0.014901	16.8905
0.013806	16.0644
