Adsorption isotherm of Carbon Dioxide on Reference wedge pore (L= 15nm, SH= 2, a= 5)
DOI: 10.1007/s10450-022-00363-x
Article source: Figure 6
Adsorbate Carbon Dioxide: InChIKey CURLTUGMZLYLDI-UHFFFAOYSA-N
Kind: experiment
Temperature: 150 K
Tabular data in the source: 0
pressure (bar)	uptake (kmol/m3)
0.000226	0.079227
0.000781	0.162361
0.001226	0.301032
0.001894	0.68945
0.002898	2.24352
0.003961	4.68576
0.004797	5.4072
0.005964	5.71223
0.007965	6.07258
0.009964	6.23863
0.016075	6.68125
0.017908	6.76408
0.024128	6.84586
0.029961	7.09426
0.031849	7.14931
0.034015	7.1488
0.036015	7.20383
0.03807	7.25884
0.04018	7.25834
0.042041	7.34116
0.044013	7.31293
0.046123	7.36794
0.047901	7.42302
0.050178	7.5335
0.052122	7.56079
0.05401	7.56033
0.05601	7.69863
0.058009	7.69815
0.060064	7.72542
0.062453	7.83587
0.065063	7.83524
0.067562	7.8624
0.069042	18.9088
0.069934	20.102
0.07038	20.7125
0.071103	21.0454
0.071992	21.2118
0.074104	21.6137
0.075999	23.57
0.077222	23.9306
0.07806	25.5124
0.078954	27.1775
0.079899	27.5104
0.081037	27.4824
0.082066	27.8429
0.083288	27.9537
0.083399	27.8149
0.084233	28.0645
0.085122	28.203
0.085955	28.2583
0.087123	28.8132
0.090071	30.3113
0.095126	30.6292
0.100127	31.308
0.100184	31.7521
0.095295	31.2814
0.089074	30.8944
0.088129	30.8946
0.087019	30.8671
0.086184	30.4787
0.085018	30.6178
0.084019	30.6458
0.083518	30.3961
0.083018	30.3129
0.08213	30.3409
0.080851	30.0914
0.079903	28.7316
0.078897	26.9
0.078119	26.7614
0.077174	26.3731
0.07623	26.3733
0.075119	26.2625
0.074286	26.235
0.07323	25.9854
0.072007	25.8747
0.07106	25.0145
0.070662	22.0448
0.070107	21.9894
0.069107	21.9619
0.067496	21.768
0.066043	19.076
0.063764	18.3549
0.061874	18.0223
0.059985	17.7174
0.057985	17.5791
0.05593	17.3021
0.05404	17.0527
0.052093	15.8597
0.049866	14.0561
0.048032	13.8623
0.046032	13.6962
0.044088	13.5302
0.041969	11.0049
0.040026	10.9776
0.038026	10.8671
0.035915	10.6178
0.034081	10.4239
0.031859	10.2579
