Adsorption isotherm of Carbon Dioxide on Reference wedge pore (2 layers 3 humps domains)
DOI: 10.1007/s10450-022-00363-x
Article source: Figure 14
Adsorbate Carbon Dioxide: InChIKey CURLTUGMZLYLDI-UHFFFAOYSA-N
Kind: experiment
Temperature: 150 K
Tabular data in the source: 0
pressure (bar)	uptake (kmol/m3)
-0.000224	0.054451
0.001011	1.38751
0.005083	5.83103
0.01011	6.98112
0.01605	7.55617
0.018015	7.5823
0.024046	7.9221
0.029986	8.13121
0.032134	8.2619
0.034007	8.28804
0.036109	8.57556
0.037944	14.8226
0.04	15.1363
0.042148	15.3454
0.044028	20.6776
0.045947	20.9913
0.047866	21.2004
0.049922	21.3572
0.052024	21.4095
0.053943	21.697
0.055863	21.8539
0.058101	21.8016
0.059884	22.1937
0.061758	22.8733
0.06386	23.7097
0.066058	27.6043
0.067932	28.0748
0.069851	28.4407
0.072045	28.8851
0.074011	30.4011
0.075796	32.3876
0.07991	34.0866
0.082058	34.7924
0.087998	34.8185
0.094121	35.3413
0.100061	35.6026
0.078036	34.0082
0.075935	34.1128
0.074061	33.7991
0.072092	30.375
0.072	29.0681
0.069898	28.9896
0.067933	28.5976
0.06583	28.2578
0.063819	27.3168
0.061809	27.2384
0.060021	22.7426
0.058011	22.455
0.053944	21.9846
0.052002	21.7754
0.049968	21.7232
0.047958	21.5141
0.045947	21.3311
0.043982	21.1743
0.041926	20.939
0.039915	20.6254
0.037905	20.4685
0.035849	20.181
0.034021	20.1026
0.032193	19.8935
0.029863	19.6844
0.027983	14.1953
0.026063	13.1498
0.023595	12.6531
0.017929	12.5225
0.016005	7.84369
0.010019	7.55617
