Adsorption isotherm of Carbon Dioxide on Reference wedge pore (2 double-layer humps, Domains 28 K)
DOI: 10.1007/s10450-022-00363-x
Article source: Figure 11
Adsorbate Carbon Dioxide: InChIKey CURLTUGMZLYLDI-UHFFFAOYSA-N
Kind: experiment
Temperature: 150 K
Tabular data in the source: 0
pressure (bar)	uptake (kmol/m3)
0.000135	0.11441
0.001115	0.406002
0.005041	5.02986
0.010259	7.09392
0.016023	7.54134
0.017905	7.65307
0.020061	7.74227
0.021904	7.78666
0.023943	7.85345
0.029942	7.91912
0.031942	8.12062
0.033941	8.23232
0.035902	8.36648
0.038058	8.43324
0.039862	8.38783
0.042058	8.56682
0.044097	8.58871
0.045861	8.63312
0.048017	8.74477
0.04986	8.78916
0.052017	8.85591
0.053899	8.90029
0.055977	8.96706
0.057937	9.12367
0.059819	9.16805
0.06178	9.25731
0.064054	9.32402
0.065879	26.7232
0.065841	27.5989
0.067801	27.8004
0.069958	27.912
0.071959	28.9218
0.074037	29.2355
0.075881	29.8861
0.080039	31.8606
0.094196	34.708
0.099804	35.0656
0.087766	34.3057
0.081963	33.9032
0.079845	33.4547
0.078002	33.2307
0.075767	33.1191
0.074077	29.5049
0.069958	28.2712
0.063918	26.1401
0.061992	22.5933
0.059993	22.549
0.057875	22.3026
0.055954	22.1235
0.053954	22.1241
0.051954	21.9001
0.049955	21.9007
0.048073	21.744
0.045916	21.6099
0.043995	21.386
0.042073	21.2293
0.039917	21.0503
0.037995	20.6467
0.035989	15.4162
0.034028	15.2146
0.030029	15.2831
0.027833	14.7224
0.025872	14.6556
0.02399	14.0612
