Adsorption isotherm of Carbon Dioxide on Reference wedge pore (L= 10nm, SH- 2nm, a= 5)
DOI: 10.1007/s10450-022-00363-x
Article source: Figure 4
Adsorbate Carbon Dioxide: InChIKey CURLTUGMZLYLDI-UHFFFAOYSA-N
Kind: experiment
Temperature: 173 K
Tabular data in the source: 0
pressure (bar)	uptake (kmol/m3)
1.3e-05	0.204195
7.2e-05	0.516676
9.5e-05	0.641668
0.00015	1.07975
0.000177	1.70673
0.000239	2.39568
0.000282	3.90093
0.000337	4.96661
0.000399	5.53004
0.000461	5.96795
0.000536	6.34284
0.000621	6.71746
0.000703	6.77838
0.000812	7.15248
0.000921	7.27555
0.001171	7.70925
0.001393	8.08081
0.001635	8.01261
0.001857	8.19589
0.002106	8.44132
0.002356	8.43571
0.002403	8.56018
0.002457	8.55895
0.002504	8.5579
0.002566	8.68201
0.00264	8.61759
0.002707	8.6161
0.002734	8.67824
0.002796	8.80236
0.003034	8.92253
0.003283	9.29348
0.00349	9.28883
0.003556	9.41286
0.003626	17.2562
0.003697	17.3173
0.003736	17.9441
0.003814	17.9423
0.003864	18.1294
0.003919	18.442
0.003981	19.0054
0.00404	19.569
0.004083	19.8818
0.004133	20.571
0.004199	21.0088
0.004266	20.5053
0.00432	20.9433
0.004387	22.0088
0.004453	23.0114
0.004507	23.8888
0.004542	23.386
0.00462	24.3256
0.004675	25.454
0.004749	25.7034
0.004796	25.8906
0.004885	25.8886
0.004917	26.39
0.004963	26.7655
0.00455	25.0175
0.004468	24.8311
0.004394	23.8286
0.004328	23.2653
0.004274	22.7644
0.003564	16.6927
0.003525	15.6895
0.003451	16.1932
0.003393	15.2531
0.003319	15.3176
0.003276	14.8792
0.003206	14.2532
0.003167	13.9403
0.003104	13.9417
0.00305	13.6919
0.002987	13.505
0.002921	13.4437
0.002866	13.5077
0.0028	12.5678
