Adsorption isotherm of Carbon Dioxide on Reference wedge pore (L= 10nm, SH- 2nm, a= 5)
DOI: 10.1007/s10450-022-00363-x
Article source: Figure 4
Adsorbate Carbon Dioxide: InChIKey CURLTUGMZLYLDI-UHFFFAOYSA-N
Kind: experiment
Temperature: 160 K
Tabular data in the source: 0
pressure (bar)	uptake (kmol/m3)
4.1e-05	0.288239
9.9e-05	0.788997
0.000142	1.2901
0.000169	1.97984
0.000212	3.23406
0.000267	4.86457
0.000306	5.42852
0.000364	6.24307
0.000407	6.43039
0.000471	6.86825
0.000536	6.99232
0.000641	7.17824
0.000801	7.42568
0.000914	7.4859
0.001062	7.67084
0.001615	8.34875
0.002138	8.337
0.002219	8.58619
0.002293	8.58453
0.00236	8.52028
0.002672	8.82706
0.002925	8.75861
0.003217	8.81479
0.003463	9.24858
0.003549	17.8446
0.003702	20.7281
0.003814	21.2277
0.003856	21.7915
0.003923	22.2294
0.00395	22.7308
0.003966	23.7974
0.004008	24.9261
0.004114	25.0492
0.004153	25.2994
0.004168	25.7383
0.004227	26.3646
0.004262	26.2383
0.004313	26.6137
0.004363	26.6754
0.004445	26.548
0.004507	26.8604
0.004589	27.7372
0.004636	28.1127
0.004691	28.2997
0.004741	28.2986
0.004808	28.2343
0.004862	28.1076
0.004921	28.3573
0.004971	29.172
0.003884	24.113
0.003868	22.6699
0.003794	22.3578
0.003716	21.7947
0.003623	20.7299
0.003576	20.5427
0.00351	20.2931
0.0034	19.417
0.003268	18.9179
0.003209	18.1033
0.003128	17.6031
0.003061	16.977
0.002999	16.8529
0.002929	16.2268
0.002851	15.9148
0.002785	15.6025
0.002707	14.2863
0.002652	15.2917
0.002535	14.604
0.002508	13.2239
0.002465	12.7228
0.002403	12.8497
