Adsorption isotherm of Carbon Dioxide on Reference wedge pore (L= 15nm, SH= 2 nm, a= 2.5)
DOI: 10.1007/s10450-022-00363-x
Article source: Figure 8A
Adsorbate Carbon Dioxide: InChIKey CURLTUGMZLYLDI-UHFFFAOYSA-N
Kind: experiment
Temperature: 150 K
Tabular data in the source: 0
pressure (bar)	uptake (kmol/m3)
0.00186	0.918656
0.002703	3.14921
0.003827	6.26096
0.00486	7.00448
0.005893	7.58277
0.007818	8.02337
0.009979	8.32628
0.011905	8.57412
0.013784	8.57412
0.015663	8.76689
0.018059	8.82196
0.019797	8.90457
0.022005	9.12488
0.023837	9.12488
0.024871	9.17995
0.029897	9.2901
0.034877	9.45533
0.039716	9.62055
0.044836	9.81332
0.045917	9.78578
0.047984	9.89593
0.04989	26.1431
0.051112	26.3084
0.051958	26.2258
0.05285	26.749
0.053789	27.1345
0.05501	27.3273
0.055806	29.3375
0.056932	30.3289
0.057729	31.8297
0.058904	31.871
0.059796	32.0087
0.060923	32.4768
0.06205	32.7522
0.063037	32.7797
0.063788	32.8899
0.064775	32.7797
0.065855	33.1102
0.066983	32.8623
0.067922	33.1102
0.068862	33.1652
0.069707	33.3029
0.070788	33.3029
0.071962	33.3855
0.072996	33.3855
0.073841	33.5232
0.074828	33.5508
0.075908	33.6609
0.076895	33.6609
0.077834	33.7711
0.078868	33.8537
0.079901	33.9363
0.080653	33.8261
0.081734	33.9088
0.083002	33.9363
0.083895	34.1015
0.084834	34.074
0.085774	34.1291
0.087042	34.1291
0.087888	34.2117
0.089015	34.4595
0.094887	34.5421
0.100008	34.5421
0.09996	35.4233
0.094933	35.3132
0.088826	34.9552
0.087887	34.9552
0.086853	34.9827
0.085961	34.9277
0.084786	34.845
0.083847	34.7624
0.083377	34.7624
0.08286	34.7349
0.081921	34.432
0.080981	34.9827
0.079947	34.9827
0.079008	34.9552
0.077974	34.9827
0.076941	34.8726
0.075673	34.487
0.075062	34.5697
0.073887	34.3769
0.072948	34.3218
0.071914	34.5972
0.070927	34.6247
0.070458	34.6523
0.069941	34.3494
0.068766	34.432
0.067404	34.4044
0.064679	34.3769
0.061908	34.1566
0.060827	34.074
0.059794	33.8812
0.057915	33.4957
0.055895	33.2203
0.05397	32.8623
0.051809	32.7797
0.049742	32.3116
0.047816	32.0087
0.045991	26.1707
0.043971	25.8678
0.041999	25.1793
0.039697	24.7938
0.037913	24.3257
0.035712	18.5703
0.034021	18.2398
0.03186	17.9094
0.029935	17.3036
0.027915	16.918
