Adsorption isotherm of Carbon Dioxide on Reference wedge pore (L= 10nm, SH= 2nm, a= 2.5)
DOI: 10.1007/s10450-022-00363-x
Article source: Figure 8A
Adsorbate Carbon Dioxide: InChIKey CURLTUGMZLYLDI-UHFFFAOYSA-N
Kind: experiment
Temperature: 150 K
Tabular data in the source: 0
pressure (bar)	uptake (kmol/m3)
0.000495	0.454345
0.001143	0.478072
0.00175	0.976341
0.003896	6.59966
0.004949	7.47756
0.006002	7.97583
0.008027	8.59274
0.009889	8.97237
0.011873	9.28082
0.013857	9.42319
0.016003	9.56555
0.017988	9.66046
0.01981	9.70791
0.022077	9.874
0.024952	9.99263
0.030054	10.2774
0.034872	10.4197
0.040055	10.5858
0.044955	10.7519
0.045886	10.7756
0.047911	10.8705
0.048882	10.8705
0.050138	10.8705
0.050826	31.8453
0.051838	31.869
0.052689	31.9639
0.053984	32.2724
0.054997	32.4385
0.055968	32.4147
0.05694	33.6723
0.057912	33.7197
0.059127	33.7197
0.06188	34.0994
0.062973	34.0756
0.063864	34.1231
0.064755	34.2892
0.066051	34.3366
0.067063	34.3604
0.068885	34.5027
0.070019	34.5739
0.072003	34.6688
0.07338	34.6214
0.074716	34.6925
0.076052	34.7637
0.077267	35.0484
0.078077	35.0484
0.079251	35.1671
0.08002	35.1908
0.081114	35.1908
0.082247	34.9773
0.08326	35.001
0.085244	35.2857
0.087147	34.9061
0.087997	35.4281
0.088807	35.4993
0.090103	35.262
0.095002	35.3094
0.099861	35.5942
0.087187	35.4993
0.086216	35.3806
0.084474	35.3332
0.08326	35.262
0.076295	35.0959
0.074999	35.0959
0.071274	34.9298
0.067954	34.74
0.065848	34.6925
0.063986	34.6451
0.06188	34.479
0.059896	34.0994
0.057791	33.9807
0.055523	33.8384
0.053903	33.9095
0.051838	33.7909
0.049935	33.3638
0.047951	33.1265
0.046129	32.9367
0.043943	32.7944
0.041958	32.6045
0.040055	32.5808
0.037869	32.0826
0.035925	25.7949
0.034022	25.1542
0.031795	24.7983
0.030135	24.0628
0.029001	23.9204
0.02807	23.4696
0.026774	23.1374
0.026005	22.4494
0.02394	21.8562
