Adsorption isotherm of Argon on ZIF-71 (11nm crystalline domains)
DOI: 10.1016/j.micromeso.2015.03.020
Article source: Figure 10
Adsorbate Argon: InChIKey XKRFYHLGVUSROY-UHFFFAOYSA-N
Kind: experiment
Temperature: 87 K
Tabular data in the source: 0
pressure (bar)	uptake (cm3(STP)/g)
0	39.7351
0.001725	52.9801
0.00174	66.2252
0.001759	82.7815
0.003443	99.3377
0.008454	109.272
0.013468	122.517
0.016812	132.45
0.02683	149.007
0.038503	155.629
0.041843	162.252
0.046847	165.563
0.051857	175.497
0.063519	172.185
0.066856	175.497
0.071859	178.808
0.076866	185.43
0.088532	185.43
0.091865	185.43
0.096865	185.43
0.101872	192.053
0.108537	192.053
0.126877	198.675
0.151882	205.298
0.155208	198.675
0.175217	208.609
0.200222	215.232
0.206881	208.609
0.225224	218.543
0.251896	225.166
0.256888	218.543
0.275231	228.477
0.301889	221.854
0.3019	231.788
0.326901	235.099
0.351903	238.411
0.358562	231.788
0.376905	241.722
0.403565	238.411
0.405239	245.033
0.430244	251.656
0.453575	251.656
0.460234	245.033
0.478581	258.278
0.505242	254.967
0.506916	261.589
0.531921	268.212
0.556923	271.523
0.560244	261.589
0.583595	278.146
0.608596	281.457
0.611918	271.523
0.628602	288.079
0.656944	298.013
0.658592	281.457
0.683615	304.636
0.706932	291.391
0.706962	317.881
0.735311	334.437
0.75695	311.258
0.783692	380.795
0.808649	344.371
0.808727	413.907
0.837117	466.887
0.860385	410.596
0.862225	566.225
0.887359	688.742
0.910551	562.914
0.910701	698.675
0.94071	708.609
0.962382	715.232
0.967382	715.232
0.989062	728.477
0.992398	731.788
1.01077	771.523
