Adsorption isotherm of Argon on ZIF-71 (micocrystalline)
DOI: 10.1016/j.micromeso.2015.03.020
Article source: Figure 10
Adsorbate Argon: InChIKey XKRFYHLGVUSROY-UHFFFAOYSA-N
Kind: experiment
Temperature: 87 K
Tabular data in the source: 0
pressure (bar)	uptake (cm3(STP)/g)
0.001839	155.629
0.00185	165.563
0.003528	175.497
0.005206	185.43
0.006883	195.364
0.008557	201.987
0.011909	218.543
0.016927	235.099
0.018619	258.278
0.020296	268.212
0.025318	288.079
0.027003	304.636
0.032021	321.192
0.035369	334.437
0.04205	347.682
0.047053	350.993
0.05039	354.305
0.060392	357.616
0.067062	360.927
0.077069	367.55
0.087068	367.55
0.098737	370.861
0.108737	370.861
0.123742	377.483
0.148744	380.795
0.172079	384.106
0.198747	387.417
0.202077	384.106
0.222082	390.728
0.24708	390.728
0.255413	390.728
0.273753	397.351
0.297084	397.351
0.30708	394.04
0.323752	400.662
0.347084	400.662
0.357078	397.351
0.373751	403.974
0.400416	403.974
0.410412	400.662
0.425414	403.974
0.455426	417.219
0.458745	403.974
0.473761	420.53
0.50043	423.841
0.512073	403.974
0.523761	423.841
0.548759	423.841
0.562077	410.596
0.577093	427.152
0.598759	427.152
0.610413	417.219
0.625423	427.152
0.650428	433.775
0.65875	423.841
0.675422	430.464
0.703754	430.464
0.71375	427.152
0.725422	433.775
0.75042	433.775
0.765415	430.464
0.778755	437.086
0.802087	437.086
0.813745	430.464
0.827088	440.397
0.853752	440.397
0.867081	437.086
0.87875	440.397
0.890413	437.086
0.920417	443.709
0.938749	443.709
0.962088	450.331
0.987093	456.954
0.992096	460.265
1.00715	506.623
