Adsorption isotherm of Argon on ZIF-71 (30nm crystalline domains)
DOI: 10.1016/j.micromeso.2015.03.020
Article source: Figure 10
Adsorbate Argon: InChIKey XKRFYHLGVUSROY-UHFFFAOYSA-N
Kind: experiment
Temperature: 87 K
Tabular data in the source: 0
pressure (bar)	uptake (cm3(STP)/g)
0.001788	109.272
0.003477	129.139
0.005161	145.695
0.008513	162.252
0.013531	178.808
0.018549	195.364
0.020234	211.921
0.025241	218.543
0.026922	231.788
0.031922	231.788
0.035266	241.722
0.038613	254.967
0.043617	258.278
0.046957	264.901
0.05196	268.212
0.05863	271.523
0.063634	274.834
0.0703	274.834
0.078636	278.146
0.088639	281.457
0.093642	284.768
0.101979	288.079
0.108645	288.079
0.12698	291.391
0.151985	298.013
0.156985	298.013
0.175321	301.325
0.201988	304.636
0.206992	307.947
0.225323	307.947
0.251992	311.258
0.256992	311.258
0.276993	314.57
0.301995	317.881
0.326997	321.192
0.353665	324.503
0.358664	324.503
0.377	327.815
0.403665	327.815
0.428666	331.126
0.455334	334.437
0.460334	334.437
0.480336	337.748
0.505337	341.06
0.532006	344.371
0.558674	347.682
0.562007	347.682
0.583676	350.993
0.61034	350.993
0.628679	357.616
0.657014	360.927
0.683678	360.927
0.707013	364.238
0.735352	370.861
0.758687	374.172
0.808694	384.106
0.837036	394.04
0.862041	400.662
0.863712	403.974
0.885394	420.53
0.908733	427.152
0.910441	463.576
0.940515	533.113
0.962507	827.815
0.965539	556.291
0.988116	1377.48
0.99266	966.887
1.00981	1407.28
