Adsorption isotherm of Argon on ZIF-71 (10nm crystalline domains)
DOI: 10.1016/j.micromeso.2015.03.020
Article source: Figure 10
Adsorbate Argon: InChIKey XKRFYHLGVUSROY-UHFFFAOYSA-N
Kind: experiment
Temperature: 87 K
Tabular data in the source: 0
pressure (bar)	uptake (cm3(STP)/g)
8.1e-05	72.8477
0.00177	92.7152
0.003458	112.583
0.008472	125.828
0.013487	139.073
0.020164	149.007
0.026845	162.252
0.031852	168.874
0.036862	178.808
0.043528	178.808
0.051868	185.43
0.061875	192.053
0.068541	192.053
0.078544	195.364
0.08688	198.675
0.093546	198.675
0.101882	201.987
0.108553	205.298
0.126888	208.609
0.151889	211.921
0.175224	215.232
0.200226	218.543
0.206892	218.543
0.253567	228.477
0.325238	238.411
0.358569	238.411
0.428585	258.278
0.453613	284.768
0.480288	294.702
0.505294	301.325
0.530299	307.947
0.556963	307.947
0.583631	311.258
0.6103	314.57
0.626965	314.57
0.656962	314.57
0.683634	321.192
0.708629	317.881
0.735296	321.192
0.758631	324.503
0.783622	317.881
0.810294	324.503
0.835292	324.503
0.86029	324.503
0.861957	324.503
0.886958	327.815
0.908627	331.126
0.940291	331.126
0.961959	334.437
0.966959	334.437
0.988627	337.748
0.991961	337.748
1.01031	350.993
