Adsorption isotherm of Nitrogen on Cu(tpa)*(dmf)
DOI: 10.1002/ejic.200801224
Adsorbate Nitrogen: InChIKey IJGRMHOSHXDMSA-UHFFFAOYSA-N
Temperature: 77 K
Tabular data in the source: 0
pressure (bar)	uptake (wt%)
0.00182509	16.5083
0.00400996	1.49819
0.00619484	4.51331
0.00619484	9.1671
0.00837971	19.3268
0.0149343	20.441
0.0324133	20.8999
0.0870352	21.3587
0.159136	21.752
0.292413	22.0797
0.447539	22.473
0.652918	23.194
0.799304	23.5217
0.908548	23.8494
0.978464	24.9637
