Adsorption isotherm of Ni(II), Cadmium(II) Ion, Water on PAA-modified electro-spun nanofiber membranes
DOI: 10.1016/j.seppur.2017.02.009
Article source: Figure 9
Adsorbate Ni(II): InChIKey VEQPNABPJHWNSG-UHFFFAOYSA-N
Adsorbate Cadmium(II) Ion: InChIKey WLZRMCYVCSSEQC-UHFFFAOYSA-N
Adsorbate Water: InChIKey XLYOFNOQVPJJNP-UHFFFAOYSA-N
Kind: experiment
Temperature: 298 K
Tabular data in the source: 0
pressure (bar)	Ni(II) fraction	Ni(II) uptake (mg/g)	Cadmium(II) Ion fraction	Cadmium(II) Ion uptake (mg/g)	Water fraction	Water uptake (mg/g)	total uptake (mg/g)
1.01325			1.5741	10.346			
1.01325			3.4548	19.407			
