Adsorption isotherm of Cadmium(II) Ion, Water on RC-PGMA-PAA
DOI: 10.1016/j.seppur.2017.02.009
Article source: Figure 4
Adsorbate Cadmium(II) Ion: InChIKey WLZRMCYVCSSEQC-UHFFFAOYSA-N
Adsorbate Water: InChIKey XLYOFNOQVPJJNP-UHFFFAOYSA-N
Kind: experiment
Temperature: 298 K
Tabular data in the source: 0
pressure (bar)	Cadmium(II) Ion fraction	Cadmium(II) Ion uptake (mg/g)	Water fraction	Water uptake (mg/g)	total uptake (mg/g)
1.01325	0.857	1.725			
1.01325	2.485	8.323			
1.01325	2.744	16.849			
1.01325	3	12.992			
1.01325	3.858	21.822			
1.01325	6.002	34.002			
1.01325	6.865	73.486			
1.01325	40.473	103.771			
1.01325	54.073	116.813			
1.01325	90.983	131.898			
1.01325	139.546	141.353			
