Adsorption isotherm of Ni(II), Water on RC-PGMA-PIA
DOI: 10.1016/j.seppur.2017.02.009
Article source: Figure 5
Adsorbate Ni(II): InChIKey VEQPNABPJHWNSG-UHFFFAOYSA-N
Adsorbate Water: InChIKey XLYOFNOQVPJJNP-UHFFFAOYSA-N
Kind: experiment
Temperature: 298 K
Tabular data in the source: 0
pressure (bar)	Ni(II) fraction	Ni(II) uptake (mg/g)	Water fraction	Water uptake (mg/g)	total uptake (mg/g)
1.01325	0.226	3.837			
1.01325	5.989	28.834			
1.01325	9.831	29.591			
1.01325	15.167	45.751			
1.01325	34.589	42.974			
1.01325	83.04	44.491			
1.01325	132.558	48.534			
1.01325	174.178	53.333			
1.01325	268.731	55.862			
