Adsorption isotherm of Ni(II), Water on RC-PGMA-PAA
DOI: 10.1016/j.seppur.2017.02.009
Article source: Figure 4
Adsorbate Ni(II): InChIKey VEQPNABPJHWNSG-UHFFFAOYSA-N
Adsorbate Water: InChIKey XLYOFNOQVPJJNP-UHFFFAOYSA-N
Kind: experiment
Temperature: 298 K
Tabular data in the source: 0
pressure (bar)	Ni(II) fraction	Ni(II) uptake (mg/g)	Water fraction	Water uptake (mg/g)	total uptake (mg/g)
1.01325	0.735	1.56			
1.01325	2.3	7.038			
1.01325	3.593	16.383			
1.01325	6.79	28.95			
1.01325	31.131	44.817			
1.01325	74.031	58.828			
1.01325	112.853	82.023			
1.01325	157.859	91.925			
