Adsorption isotherm of Ca(II), Cadmium(II) Ion, Water on PAA-modified electrospun nanofiber membranes
DOI: 10.1016/j.seppur.2017.02.009
Article source: Figure S5
Adsorbate Ca(II): InChIKey BHPQYMZQTOCNFJ-UHFFFAOYSA-N
Adsorbate Cadmium(II) Ion: InChIKey WLZRMCYVCSSEQC-UHFFFAOYSA-N
Adsorbate Water: InChIKey XLYOFNOQVPJJNP-UHFFFAOYSA-N
Kind: experiment
Temperature: 298 K
Tabular data in the source: 0
pressure (bar)	Ca(II) fraction	Ca(II) uptake (mg/g)	Cadmium(II) Ion fraction	Cadmium(II) Ion uptake (mg/g)	Water fraction	Water uptake (mg/g)	total uptake (mg/g)
1.01325	87.47	34.826					
1.01325	279.83	58.11					
1.01325	467.99	94.831					
