Adsorption isotherm of Ca(II), Water on RC-PGMA-PIA
DOI: 10.1016/j.seppur.2017.02.009
Article source: Figure 5
Adsorbate Ca(II): InChIKey BHPQYMZQTOCNFJ-UHFFFAOYSA-N
Adsorbate Water: InChIKey XLYOFNOQVPJJNP-UHFFFAOYSA-N
Kind: experiment
Temperature: 298 K
Tabular data in the source: 0
pressure (bar)	Ca(II) fraction	Ca(II) uptake (mg/g)	Water fraction	Water uptake (mg/g)	total uptake (mg/g)
1.01325	0.424	14.93			
1.01325	0.932	2.806			
1.01325	13.032	20.502			
1.01325	42.06	21.261			
1.01325	96.06	28.585			
1.01325	140.241	31.112			
1.01325	200.218	30.862			
1.01325	289.862	36.674			
