Adsorption isotherm of Ca(II), Water on RC-PGMA-PAA
DOI: 10.1016/j.seppur.2017.02.009
Article source: Figure 4
Adsorbate Ca(II): InChIKey BHPQYMZQTOCNFJ-UHFFFAOYSA-N
Adsorbate Water: InChIKey XLYOFNOQVPJJNP-UHFFFAOYSA-N
Kind: experiment
Temperature: 298 K
Tabular data in the source: 0
pressure (bar)	Ca(II) fraction	Ca(II) uptake (mg/g)	Water fraction	Water uptake (mg/g)	total uptake (mg/g)
1.01325	1.279	1.802			
1.01325	1.824	4.702			
1.01325	3.184	10.341			
1.01325	12.703	16.14			
1.01325	39.353	23.064			
1.01325	85.855	31.918			
1.01325	135.212	41.738			
1.01325	179.267	51.882			
1.01325	279.748	63.143			
