Adsorption isotherm of Cadmium(II) Ion, Water on RC-PGMA-PIA
DOI: 10.1016/j.seppur.2017.02.009
Article source: Figure 5
Adsorbate Cadmium(II) Ion: InChIKey WLZRMCYVCSSEQC-UHFFFAOYSA-N
Adsorbate Water: InChIKey XLYOFNOQVPJJNP-UHFFFAOYSA-N
Kind: experiment
Temperature: 298 K
Tabular data in the source: 0
pressure (bar)	Cadmium(II) Ion fraction	Cadmium(II) Ion uptake (mg/g)	Water fraction	Water uptake (mg/g)	total uptake (mg/g)
1.01325	0.513	11.57			
1.01325	0.58	14.592			
1.01325	2.395	40.837			
1.01325	11.538	86.401			
1.01325	32.669	154.322			
1.01325	80.265	174.523			
1.01325	115.483	204.066			
