Adsorption isotherm of Nitrogen on COF-10
DOI: 10.1039/C1sc00260k
Adsorbate Nitrogen: InChIKey IJGRMHOSHXDMSA-UHFFFAOYSA-N
Temperature: 77 K
Tabular data in the source: 0
pressure (bar)	uptake (cm3(STP)/g)
0.0024583	42.1053
0.0025461	72.1805
0.00265145	108.271
0.00508341	141.353
0.00749781	168.421
0.0169271	198.496
0.0216682	222.556
0.0427481	243.609
0.0544513	252.632
0.0755225	270.677
0.0965761	282.707
0.117638	297.744
0.136365	312.782
0.157419	324.812
0.176128	333.835
0.194864	351.88
0.20892	366.917
0.234706	400
0.244127	427.068
0.24655	457.143
0.253688	502.256
0.258455	535.338
0.265505	550.376
0.288894	562.406
0.337972	574.436
0.389377	583.459
0.438438	589.474
0.485163	595.489
0.538886	598.496
0.585602	601.504
0.634663	607.519
0.681379	610.526
0.72109	613.534
0.75145	613.534
0.781818	616.541
0.802854	622.556
0.819202	622.556
0.842573	628.571
0.85893	631.579
0.882301	637.594
0.905673	643.609
0.919694	646.617
0.933715	649.624
0.947762	661.654
0.952459	670.677
0.964163	679.699
