Adsorption isotherm of Nitrogen on COF-5
DOI: 10.1039/C1sc00260k
Adsorbate Nitrogen: InChIKey IJGRMHOSHXDMSA-UHFFFAOYSA-N
Temperature: 77 K
Tabular data in the source: 0
pressure (bar)	uptake (cm3(STP)/g)
0.0145479	183.459
0.0239421	201.504
0.0379807	210.526
0.0496928	222.556
0.0590694	234.586
0.0754522	246.617
0.0871731	261.654
0.101238	279.699
0.122309	297.744
0.136383	318.797
0.148086	327.82
0.173775	327.82
0.21115	330.827
0.232178	333.835
0.250869	336.842
0.26957	342.857
0.283574	339.85
0.29993	342.857
0.318613	342.857
0.33964	345.865
0.367674	348.872
0.388701	351.88
0.402713	351.88
0.416726	351.88
0.437744	351.88
0.451765	354.887
0.463442	354.887
0.484452	351.88
0.512494	357.895
0.535848	357.895
0.561528	354.887
0.587226	357.895
0.605918	360.902
0.629272	360.902
0.643284	360.902
0.664303	360.902
0.680668	366.917
0.689992	360.902
0.701687	366.917
0.711019	363.91
0.734382	366.917
0.743723	366.917
0.764742	366.917
0.771748	366.917
0.795102	366.917
0.811467	372.932
0.818473	372.932
0.839501	375.94
0.851177	375.94
0.872222	384.962
0.893258	390.977
0.916647	403.008
0.928359	415.038
0.940063	424.06
0.951792	442.105
0.95886	463.158
0.961248	481.203
0.96598	502.256
0.966033	520.301
0.966085	538.346
