Adsorption isotherm of Nitrogen on NiPc-PBBA COF
DOI: 10.1039/C1sc00260k
Adsorbate Nitrogen: InChIKey IJGRMHOSHXDMSA-UHFFFAOYSA-N
Temperature: 77 K
Tabular data in the source: 0
pressure (bar)	uptake (cm3(STP)/g)
9.66e-05	33.0827
0.00251098	60.1504
0.0049166	84.2105
0.00969272	120.301
0.0167516	138.346
0.0308253	159.398
0.0355575	180.451
0.0472959	201.504
0.0800352	216.541
0.14079	228.571
0.161818	231.579
0.180509	234.586
0.196857	234.586
0.245909	237.594
0.292617	237.594
0.341677	243.609
0.393056	243.609
0.439772	246.617
0.488815	246.617
0.535523	246.617
0.584575	249.624
0.633627	252.632
0.680343	255.639
0.720045	255.639
0.750405	255.639
0.778438	258.647
0.799465	261.654
0.818157	264.662
0.836858	270.677
0.853197	267.669
0.867218	270.677
0.888254	276.692
0.904628	285.714
0.920993	291.729
0.937367	300.752
0.949097	318.797
0.956147	333.835
0.963206	351.88
0.965585	366.917
