Adsorption isotherm of Hydrogen on (22,22) SWSiCNT
DOI: 10.1007/s13738-015-0728-3
Article source: Figure 4
Adsorbate Hydrogen: InChIKey UFHFLCQGNIYNRP-UHFFFAOYSA-N
Kind: experiment
Temperature: 133 K
Tabular data in the source: 0
pressure (bar)	uptake (mmol/g)
0.05	3.7168
0.653	5.2977
9.682	13.5779
29.814	20.4108
49.854	24.3321
79.798	28.3478
99.856	30.4164
129.889	32.9827
149.898	34.3837
