Adsorption isotherm of Hydrogen on (22,22) SWBNNT
DOI: 10.1007/s13738-015-0728-3
Article source: Figure 3
Adsorbate Hydrogen: InChIKey UFHFLCQGNIYNRP-UHFFFAOYSA-N
Kind: experiment
Temperature: 293 K
Tabular data in the source: 0
pressure (bar)	uptake (mmol/g)
0.41	0.129
10.055	0.8031
19.946	1.4039
30.002	2.0008
39.956	2.4254
49.95	2.9205
59.986	3.2981
69.981	3.6288
79.99	4.0307
89.846	4.3605
100.171	4.7304
109.918	5.0296
119.872	5.3681
129.866	5.5343
139.861	5.8023
149.897	6.2191
