Adsorption isotherm of Hydrogen on (22,22) SWSiCNT
DOI: 10.1007/s13738-015-0728-3
Article source: Figure 3
Adsorbate Hydrogen: InChIKey UFHFLCQGNIYNRP-UHFFFAOYSA-N
Kind: experiment
Temperature: 293 K
Tabular data in the source: 0
pressure (bar)	uptake (mmol/g)
0.099	0.0249
9.739	1.3659
29.892	3.9375
49.891	5.9988
79.906	8.4211
100.008	9.8647
129.886	12.286
149.901	13.4929
