Adsorption isotherm of Hydrogen on SWBNNT (22,22)
DOI: 10.1007/s13738-015-0728-3
Article source: Figure 11
Adsorbate Hydrogen: InChIKey UFHFLCQGNIYNRP-UHFFFAOYSA-N
Kind: experiment
Isotherm type: excess
Temperature: 298 K
Tabular data in the source: 0
pressure (bar)	uptake (mmol/g)
10.074	0.5407
30.099	1.9193
50.032	2.5679
70.1	3.1178
90.038	3.5817
110.026	3.7382
130.161	3.9717
149.987	3.8063
