Adsorption isotherm of Hydrogen on (9,9) SWSiNTA Rhombic
DOI: 10.1007/s13738-015-0728-3
Article source: Figure 9
Adsorbate Hydrogen: InChIKey UFHFLCQGNIYNRP-UHFFFAOYSA-N
Kind: experiment
Temperature: 298 K
Tabular data in the source: 0
pressure (bar)	uptake (wt%)
0.0628	0.00174
19.8419	1.3049
39.9641	1.92155
59.9007	2.32748
79.937	2.61228
99.9883	2.88248
