Adsorption isotherm of Hydrogen on SWSiCNT (15,15)
DOI: 10.1007/s13738-015-0728-3
Article source: Figure 11
Adsorbate Hydrogen: InChIKey UFHFLCQGNIYNRP-UHFFFAOYSA-N
Kind: experiment
Isotherm type: excess
Temperature: 298 K
Tabular data in the source: 0
pressure (bar)	uptake (mmol/g)
9.99	0.821
30.039	1.8884
49.977	2.665
70.052	2.7363
89.943	3.0756
110.026	3.1073
130.055	3.0326
149.987	3.0007
