Adsorption isotherm of Hydrogen on SWCNT (22,22)
DOI: 10.1007/s13738-015-0728-3
Article source: Figure 11
Adsorbate Hydrogen: InChIKey UFHFLCQGNIYNRP-UHFFFAOYSA-N
Kind: experiment
Isotherm type: excess
Temperature: 77 K
Tabular data in the source: 0
pressure (bar)	uptake (mmol/g)
9.866	21.3742
30.061	24.8609
50.005	25.105
69.966	23.874
89.92	22.1407
110.007	20.4119
130.081	18.5165
149.968	16.5227
