Adsorption isotherm of Hydrogen on SWSiCNT (15,15)
DOI: 10.1007/s13738-015-0728-3
Article source: Figure 11
Adsorbate Hydrogen: InChIKey UFHFLCQGNIYNRP-UHFFFAOYSA-N
Kind: experiment
Isotherm type: excess
Temperature: 77 K
Tabular data in the source: 0
pressure (bar)	uptake (mmol/g)
10.02	22.0666
29.982	23.8669
50.008	22.5426
70.019	20.8105
89.958	18.6916
110.058	16.8993
130.021	15.241
150.034	12.8189
