Adsorption isotherm of Hydrogen on (11,11) SWSiCNTA Square
DOI: 10.1007/s13738-015-0728-3
Article source: Figure 10
Adsorbate Hydrogen: InChIKey UFHFLCQGNIYNRP-UHFFFAOYSA-N
Kind: experiment
Temperature: 298 K
Tabular data in the source: 0
pressure (bar)	uptake (wt%)
0.0382	0.0017
20.0285	1.59676
39.9467	1.8403
59.852	1.95918
79.9309	2.05206
99.9349	2.13407
