Adsorption isotherm of Hydrogen on SWSiCNT (15,15)
DOI: 10.1007/s13738-015-0728-3
Article source: Figure 12
Adsorbate Hydrogen: InChIKey UFHFLCQGNIYNRP-UHFFFAOYSA-N
Kind: experiment
Temperature: 298 K
Tabular data in the source: 0
pressure (bar)	uptake (mmol/g)
10.011	0.3747
30.078	2.4726
50.043	4.1368
70.057	5.0441
90.119	6.1408
110.079	7.0075
130.081	7.7259
150.078	8.5253
