Adsorption isotherm of Hydrogen on SWBNNT (9,9)
DOI: 10.1007/s13738-015-0728-3
Article source: Figure 11
Adsorbate Hydrogen: InChIKey UFHFLCQGNIYNRP-UHFFFAOYSA-N
Kind: experiment
Isotherm type: excess
Temperature: 298 K
Tabular data in the source: 0
pressure (bar)	uptake (mmol/g)
10.06	0.7995
30.077	1.7878
49.93	2.1985
70.012	2.3966
90.046	2.621
109.957	2.5003
130.027	2.2307
150.125	2.2799
