Adsorption isotherm of Hydrogen on SWBNNT (9,9)
DOI: 10.1007/s13738-015-0728-3
Article source: Figure 11
Adsorbate Hydrogen: InChIKey UFHFLCQGNIYNRP-UHFFFAOYSA-N
Kind: experiment
Isotherm type: excess
Temperature: 77 K
Tabular data in the source: 0
pressure (bar)	uptake (mmol/g)
9.846	12.412
29.98	11.5392
49.847	10.3461
69.869	8.6229
89.922	7.3283
109.875	6.3181
129.892	5.2517
149.937	3.9863
