Adsorption isotherm of Hydrogen on (14,14) SWCNTA Rhombic
DOI: 10.1007/s13738-015-0728-3
Article source: Figure 9
Adsorbate Hydrogen: InChIKey UFHFLCQGNIYNRP-UHFFFAOYSA-N
Kind: experiment
Temperature: 298 K
Tabular data in the source: 0
pressure (bar)	uptake (wt%)
0.0676	0.00336
19.967	0.61697
39.9795	1.03952
59.9246	1.39918
79.8467	1.67899
99.9639	1.87961
