Adsorption isotherm of Hydrogen on SWBNNT (22,22)
DOI: 10.1007/s13738-015-0728-3
Article source: Figure 11
Adsorbate Hydrogen: InChIKey UFHFLCQGNIYNRP-UHFFFAOYSA-N
Kind: experiment
Isotherm type: excess
Temperature: 77 K
Tabular data in the source: 0
pressure (bar)	uptake (mmol/g)
10.017	27.5022
30.042	30.4615
49.923	29.9066
69.985	28.4697
89.907	26.6726
109.991	24.6668
130.055	22.4559
150.075	20.3454
