Adsorption isotherm of Hydrogen on SWSiCNT (9,9)
DOI: 10.1007/s13738-015-0728-3
Article source: Figure 11
Adsorbate Hydrogen: InChIKey UFHFLCQGNIYNRP-UHFFFAOYSA-N
Kind: experiment
Isotherm type: excess
Temperature: 77 K
Tabular data in the source: 0
pressure (bar)	uptake (mmol/g)
9.853	18.0792
29.842	17.5679
49.911	15.9288
69.815	14.1105
89.986	12.2867
109.963	10.7546
129.901	9.6346
150.012	7.8877
