Adsorption isotherm of Hydrogen on SWSiCNT (22,22)
DOI: 10.1007/s13738-015-0728-3
Article source: Figure 11
Adsorbate Hydrogen: InChIKey UFHFLCQGNIYNRP-UHFFFAOYSA-N
Kind: experiment
Isotherm type: excess
Temperature: 298 K
Tabular data in the source: 0
pressure (bar)	uptake (mmol/g)
9.818	0.5028
30.064	1.4111
50.001	2.0881
70.033	2.5621
89.965	2.7861
110.054	3.0645
130.113	3.1894
150.063	2.9267
