Adsorption isotherm of Hydrogen on SWSiCNT (22,22)
DOI: 10.1007/s13738-015-0728-3
Article source: Figure 12
Adsorbate Hydrogen: InChIKey UFHFLCQGNIYNRP-UHFFFAOYSA-N
Kind: experiment
Temperature: 77 K
Tabular data in the source: 0
pressure (bar)	uptake (mmol/g)
9.951	4.3284
29.985	14.9816
49.977	21.7641
70.049	26.5356
90.035	29.516
110.11	31.7758
130.065	33.2481
150.106	34.8474
