Adsorption isotherm of Hydrogen on (9,9) SWSiNTA Square
DOI: 10.1007/s13738-015-0728-3
Article source: Figure 10
Adsorbate Hydrogen: InChIKey UFHFLCQGNIYNRP-UHFFFAOYSA-N
Kind: experiment
Temperature: 298 K
Tabular data in the source: 0
pressure (bar)	uptake (wt%)
0.0545	0.00341
20.0372	1.20264
39.959	1.80449
59.8541	2.28119
79.8907	2.61917
99.8672	2.88921
