Adsorption isotherm of Hydrogen on SWCNT (9,9)
DOI: 10.1007/s13738-015-0728-3
Article source: Figure 11
Adsorbate Hydrogen: InChIKey UFHFLCQGNIYNRP-UHFFFAOYSA-N
Kind: experiment
Isotherm type: excess
Temperature: 77 K
Tabular data in the source: 0
pressure (bar)	uptake (mmol/g)
9.829	9.9436
29.873	9.209
49.82	7.9508
69.879	6.6964
89.87	5.4178
109.815	4.2252
129.821	3.1781
149.981	2.0257
