Adsorption isotherm of Hydrogen on (11,11) SWSiCNTA Rhombic
DOI: 10.1007/s13738-015-0728-3
Article source: Figure 9
Adsorbate Hydrogen: InChIKey UFHFLCQGNIYNRP-UHFFFAOYSA-N
Kind: experiment
Temperature: 298 K
Tabular data in the source: 0
pressure (bar)	uptake (wt%)
0.0563	0.00314
19.91	0.80234
39.9843	1.38266
59.8916	1.79905
80.0023	2.21065
100.008	2.51904
