Adsorption isotherm of Hydrogen on SWSiCNT (22,22)
DOI: 10.1007/s13738-015-0728-3
Article source: Figure 11
Adsorbate Hydrogen: InChIKey UFHFLCQGNIYNRP-UHFFFAOYSA-N
Kind: experiment
Isotherm type: excess
Temperature: 77 K
Tabular data in the source: 0
pressure (bar)	uptake (mmol/g)
9.939	29.3111
29.963	34.5262
49.964	35.6612
70.059	34.9436
89.924	32.9957
110.023	30.9606
129.967	28.6556
150.017	25.9648
