Adsorption isotherm of Hydrogen on SWSiCNT (9,9)
DOI: 10.1007/s13738-015-0728-3
Article source: Figure 12
Adsorbate Hydrogen: InChIKey UFHFLCQGNIYNRP-UHFFFAOYSA-N
Kind: experiment
Temperature: 77 K
Tabular data in the source: 0
pressure (bar)	uptake (mmol/g)
9.956	1.1107
29.989	2.9174
50.206	3.7246
70.007	4.2672
90.107	4.5241
110.132	4.67
130.172	5.0901
150.126	5.262
