Adsorption isotherm of Hydrogen on SWSiCNT (9,9)
DOI: 10.1007/s13738-015-0728-3
Article source: Figure 12
Adsorbate Hydrogen: InChIKey UFHFLCQGNIYNRP-UHFFFAOYSA-N
Kind: experiment
Temperature: 298 K
Tabular data in the source: 0
pressure (bar)	uptake (mmol/g)
10.031	0.1598
29.996	1.5875
50.086	2.3577
70.065	3.1856
90.169	3.8175
110.049	4.4231
130.031	4.7937
150.123	5.221
