Adsorption isotherm of Hydrogen on (22,22) SWCNT
DOI: 10.1007/s13738-015-0728-3
Article source: Figure 3
Adsorbate Hydrogen: InChIKey UFHFLCQGNIYNRP-UHFFFAOYSA-N
Kind: experiment
Temperature: 293 K
Tabular data in the source: 0
pressure (bar)	uptake (mmol/g)
0.13	0.0242
9.908	0.4714
19.82	0.9283
29.866	1.3305
39.974	1.7091
49.747	2.0179
59.93	2.3709
69.827	2.6695
79.835	3.0424
89.843	3.2811
99.917	3.5758
109.892	3.9017
119.883	4.1032
129.857	4.3574
139.884	4.5473
149.937	4.6434
