Adsorption isotherm of Hydrogen on SWSiCNT (15,15)
DOI: 10.1007/s13738-015-0728-3
Article source: Figure 12
Adsorbate Hydrogen: InChIKey UFHFLCQGNIYNRP-UHFFFAOYSA-N
Kind: experiment
Temperature: 77 K
Tabular data in the source: 0
pressure (bar)	uptake (mmol/g)
9.946	2.0215
30.018	7.423
49.946	9.9025
69.978	11.7395
90.024	12.8834
110.04	13.9467
130.084	14.7961
150.167	15.175
