Adsorption isotherm of Hydrogen on SWCNT (22,22)
DOI: 10.1007/s13738-015-0728-3
Article source: Figure 11
Adsorbate Hydrogen: InChIKey UFHFLCQGNIYNRP-UHFFFAOYSA-N
Kind: experiment
Isotherm type: excess
Temperature: 298 K
Tabular data in the source: 0
pressure (bar)	uptake (mmol/g)
9.966	0.2065
30.053	0.8271
49.924	1.0927
70.104	1.2892
89.936	1.5156
110.045	1.6318
130.039	1.371
150.063	1.2203
