Adsorption isotherm of Hydrogen on (14,14) SWCNTA Square
DOI: 10.1007/s13738-015-0728-3
Article source: Figure 10
Adsorbate Hydrogen: InChIKey UFHFLCQGNIYNRP-UHFFFAOYSA-N
Kind: experiment
Temperature: 298 K
Tabular data in the source: 0
pressure (bar)	uptake (wt%)
0.0247	0.00128
20.0829	0.61405
39.9734	1.074
59.8987	1.41553
79.9217	1.70504
99.7669	1.94393
