Adsorption isotherm of Hydrogen on SWSiCNT (9,9)
DOI: 10.1007/s13738-015-0728-3
Article source: Figure 11
Adsorbate Hydrogen: InChIKey UFHFLCQGNIYNRP-UHFFFAOYSA-N
Kind: experiment
Isotherm type: excess
Temperature: 298 K
Tabular data in the source: 0
pressure (bar)	uptake (mmol/g)
9.901	0.505
30.007	1.4019
49.944	1.6026
69.989	1.9582
90.072	2.0146
109.987	2.0877
129.982	1.8885
150.145	1.9653
