Adsorption isotherm of Hydrogen on (22,22) SWSiCNT
DOI: 10.1007/s13738-015-0728-3
Article source: Figure 4
Adsorbate Hydrogen: InChIKey UFHFLCQGNIYNRP-UHFFFAOYSA-N
Kind: experiment
Temperature: 177 K
Tabular data in the source: 0
pressure (bar)	uptake (mmol/g)
0.016	0.5669
0.674	1.3071
9.828	7.1876
29.756	12.7247
49.968	16.2503
79.953	19.9105
100.04	21.8308
130.006	24.0619
150.06	25.3867
