Adsorption isotherm of Hydrogen on (22,22) SWSiCNT
DOI: 10.1007/s13738-015-0728-3
Article source: Figure 4
Adsorbate Hydrogen: InChIKey UFHFLCQGNIYNRP-UHFFFAOYSA-N
Kind: experiment
Temperature: 298 K
Tabular data in the source: 0
pressure (bar)	uptake (mmol/g)
0.106	0.0955
0.648	0.2024
9.631	1.5917
29.699	3.9978
49.806	6.0182
79.814	8.4342
99.763	9.8124
129.876	12.3007
149.86	13.5307
