Adsorption isotherm of Hydrogen on (15,15) SWSiCNT
DOI: 10.1007/s13738-015-0728-3
Article source: Figure 3
Adsorbate Hydrogen: InChIKey UFHFLCQGNIYNRP-UHFFFAOYSA-N
Kind: experiment
Temperature: 293 K
Tabular data in the source: 0
pressure (bar)	uptake (mmol/g)
0.173	0.0223
9.735	1.3456
49.889	5.0828
79.872	6.9255
99.916	7.9202
129.79	9.2095
149.879	10.4463
