Adsorption isotherm of Hydrogen on SWCNT (9,9)
DOI: 10.1007/s13738-015-0728-3
Article source: Figure 11
Adsorbate Hydrogen: InChIKey UFHFLCQGNIYNRP-UHFFFAOYSA-N
Kind: experiment
Isotherm type: excess
Temperature: 298 K
Tabular data in the source: 0
pressure (bar)	uptake (mmol/g)
9.964	0.1616
30.061	0.5056
49.956	0.6131
69.956	0.6476
90.039	0.7232
110.037	0.6667
130.022	0.6548
150.093	0.4047
