Adsorption isotherm of Hydrogen on SWSiCNT (22,22)
DOI: 10.1007/s13738-015-0728-3
Article source: Figure 12
Adsorbate Hydrogen: InChIKey UFHFLCQGNIYNRP-UHFFFAOYSA-N
Kind: experiment
Temperature: 298 K
Tabular data in the source: 0
pressure (bar)	uptake (mmol/g)
10.011	0.4766
30.062	2.6888
50.092	4.6367
70.049	6.3785
90.112	7.9345
110.038	9.3512
130.108	10.6992
150.152	11.7685
