Adsorption isotherm of Hydrogen on (15,15) SWBNNT
DOI: 10.1007/s13738-015-0728-3
Article source: Figure 3
Adsorbate Hydrogen: InChIKey UFHFLCQGNIYNRP-UHFFFAOYSA-N
Kind: experiment
Temperature: 293 K
Tabular data in the source: 0
pressure (bar)	uptake (mmol/g)
0.143	0.2949
10.063	0.6766
19.961	1.258
29.859	1.628
40.047	2.0195
49.842	2.4267
59.898	2.8431
70.027	3.0356
79.932	3.2764
89.954	3.5818
119.879	4.3141
129.695	4.4942
139.966	4.7331
149.803	4.8584
