Adsorption isotherm of Hydrogen on (22,22) SWSiCNT
DOI: 10.1007/s13738-015-0728-3
Article source: Figure 4
Adsorbate Hydrogen: InChIKey UFHFLCQGNIYNRP-UHFFFAOYSA-N
Kind: experiment
Temperature: 77 K
Tabular data in the source: 0
pressure (bar)	uptake (mmol/g)
0.087	0.009
0.767	21.2549
9.838	31.5112
29.962	40.7807
49.975	45.7426
80.005	50.3954
100.008	52.1814
130.043	54.3231
150.181	55.0534
