Adsorption isotherm of Hydrogen on (15,15) SWCNT
DOI: 10.1007/s13738-015-0728-3
Article source: Figure 3
Adsorbate Hydrogen: InChIKey UFHFLCQGNIYNRP-UHFFFAOYSA-N
Kind: experiment
Temperature: 293 K
Tabular data in the source: 0
pressure (bar)	uptake (mmol/g)
0.148	0.0249
9.705	0.3905
19.804	0.697
29.624	0.9693
39.805	1.2509
49.788	1.545
59.706	1.7021
69.722	1.99
79.804	2.2032
89.755	2.5221
99.837	2.642
109.787	2.8116
119.89	2.958
129.861	3.1203
139.894	3.2356
149.886	3.5116
