Adsorption isotherm of Hydrogen on TDCOF-5
DOI: 10.1039/C2ce26487k
Adsorbate Hydrogen: InChIKey UFHFLCQGNIYNRP-UHFFFAOYSA-N
Temperature: 77 K
Tabular data in the source: 0
pressure (bar)	uptake (cm3(STP)/g)
0.00837971	11.2988
0.0433377	28.7778
0.0782957	44.5089
0.124178	59.8031
0.198464	78.593
0.277119	95.198
0.347035	106.122
0.445354	121.853
0.548044	134.526
0.650733	146.324
0.751237	155.938
0.856111	165.551
0.95443	174.29
