Adsorption isotherm of Carbon Dioxide on TDCOF-5
DOI: 10.1039/C2ce26487k
Adsorbate Carbon Dioxide: InChIKey CURLTUGMZLYLDI-UHFFFAOYSA-N
Temperature: 298 K
Tabular data in the source: 0
pressure (bar)	uptake (cm3(STP)/g)
0.021489	0.421351
0.0935898	2.93396
0.154766	5.00959
0.226867	7.08522
0.296783	9.16085
0.347035	10.581
0.399472	11.8919
0.497791	14.8415
0.598296	17.0264
0.70317	19.6482
0.794934	22.2701
0.853926	23.4718
0.928212	25.5474
0.980649	26.6398
