Adsorption isotherm of Methane on TDCOF-5
DOI: 10.1039/C2ce26487k
Adsorbate Methane: InChIKey VNWKTOKETHGBQD-UHFFFAOYSA-N
Temperature: 273 K
Tabular data in the source: 0
pressure (bar)	uptake (cm3(STP)/g)
0.0149343	0.0730307
0.0739259	1.09555
0.128548	2.03942
0.205018	3.49454
0.274934	4.7137
0.351405	5.97219
0.451909	7.58463
0.556783	9.31505
0.648548	10.8488
0.753422	12.5399
0.856111	13.8771
0.932581	15.0569
0.974094	15.8041
