Adsorption isotherm of Hydrogen on TDCOF-5
DOI: 10.1039/C2ce26487k
Adsorbate Hydrogen: InChIKey UFHFLCQGNIYNRP-UHFFFAOYSA-N
Temperature: 87 K
Tabular data in the source: 0
pressure (bar)	uptake (cm3(STP)/g)
0.00182509	2.99633
0.0411528	13.9207
0.119808	29.2148
0.191909	41.0131
0.272749	51.0636
0.351405	60.677
0.445354	72.0383
0.552413	80.3409
0.650733	90.3913
0.753422	97.3829
0.851741	105.685
0.95006	111.366
