Adsorption isotherm of Argon on TDCOF-5
DOI: 10.1039/C2ce26487k
Adsorbate Argon: InChIKey XKRFYHLGVUSROY-UHFFFAOYSA-N
Temperature: 87 K
Tabular data in the source: 0
pressure (bar)	uptake (cm3(STP)/g)
0.00182509	15.3561
0.0036	128.096
0.00619484	227.726
0.0127495	301.138
0.0171192	343.087
0.0280436	419.121
0.0433377	505.642
0.0935898	602.65
0.148212	699.659
0.165691	885.81
0.196279	912.028
0.301153	943.491
0.395102	956.6
0.497791	972.331
0.598296	982.818
0.70317	995.928
0.849556	1014.28
0.95006	1040.5
