Adsorption isotherm of Carbon Dioxide on TDCOF-5
DOI: 10.1039/C2ce26487k
Adsorbate Carbon Dioxide: InChIKey CURLTUGMZLYLDI-UHFFFAOYSA-N
Temperature: 273 K
Tabular data in the source: 0
pressure (bar)	uptake (cm3(STP)/g)
0.0127495	1.40454
0.0673713	4.57261
0.132918	8.94236
0.198464	12.2197
0.277119	16.2617
0.34922	20.1945
0.454094	24.6735
0.552413	29.2617
0.650733	33.0852
0.751237	37.1272
0.856111	41.6062
0.904178	42.9171
