Adsorption isotherm of Methane on TDCOF-5
DOI: 10.1039/C2ce26487k
Adsorbate Methane: InChIKey VNWKTOKETHGBQD-UHFFFAOYSA-N
Temperature: 298 K
Tabular data in the source: 0
pressure (bar)	uptake (cm3(STP)/g)
0.0302285	0.112358
0.08922	0.702274
0.130733	1.17421
0.209388	2.11807
0.277119	2.8653
0.351405	3.73051
0.399472	4.32043
0.502161	5.46093
0.600481	6.68009
0.70317	7.82059
0.801489	8.92177
0.901993	9.98362
0.974094	10.8488
