Adsorption isotherm of Hydrogen on MIL-101H2O
DOI: 10.1016/j.micromeso.2009.11.001
Adsorbate Hydrogen: InChIKey UFHFLCQGNIYNRP-UHFFFAOYSA-N
Temperature: 77 K
Tabular data in the source: 0
pressure (bar)	uptake (wt%)
0.0932642	0.631579
0.15544	0.719298
0.217617	0.824561
0.404145	0.947368
0.559585	1.14035
0.901554	1.35088
3.20207	1.96491
4.10363	2.14035
5.44041	2.38596
7.64767	2.68421
10.2591	2.91228
