Adsorption isotherm of Hydrogen on MIL-101F-
DOI: 10.1016/j.micromeso.2009.11.001
Adsorbate Hydrogen: InChIKey UFHFLCQGNIYNRP-UHFFFAOYSA-N
Temperature: 77 K
Tabular data in the source: 0
pressure (bar)	uptake (wt%)
0.186528	1.35088
0.248705	1.4386
0.341969	1.5614
0.435233	1.66667
0.621762	1.84211
0.932642	2.03509
3.23316	2.66667
4.01036	2.82456
5.16062	3.01754
6.83938	3.22807
8.76684	3.38596
10.7876	3.5614
