Adsorption isotherm of Nitrogen on MIL-101TM
DOI: 10.1016/j.micromeso.2009.11.001
Adsorbate Nitrogen: InChIKey IJGRMHOSHXDMSA-UHFFFAOYSA-N
Temperature: 77 K
Tabular data in the source: 0
pressure (bar)	uptake (cm3(STP)/g)
0.0100676	401.521
0.0276858	501.901
0.0553716	588.593
0.0780236	634.221
0.0956419	675.285
0.118294	752.852
0.161081	812.167
0.178699	825.856
0.201351	848.669
0.244138	953.612
0.312095	967.3
0.362432	971.863
0.390118	980.989
0.437939	980.989
0.488277	990.114
0.533581	999.24
0.581402	999.24
0.63174	1012.93
0.682078	1017.49
0.729898	1017.49
0.777719	1031.18
0.797855	1031.18
0.82554	1040.3
0.848192	1040.3
0.873361	1044.87
0.901047	1044.87
0.923699	1058.56
0.948868	1072.24
0.951385	1076.81
0.963969	1099.62
0.969003	1122.43
