Adsorption isotherm of Nitrogen on MIL-101H2O
DOI: 10.1016/j.micromeso.2009.11.001
Adsorbate Nitrogen: InChIKey IJGRMHOSHXDMSA-UHFFFAOYSA-N
Temperature: 77 K
Tabular data in the source: 0
pressure (bar)	uptake (cm3(STP)/g)
0.0125845	310.266
0.0302027	387.833
0.0629223	447.148
0.0805405	483.65
0.0956419	511.027
0.118294	547.529
0.138429	561.217
0.156047	570.342
0.176182	588.593
0.196318	606.844
0.254206	670.722
0.294476	679.848
0.352365	684.411
0.390118	684.411
0.437939	688.973
0.488277	698.099
0.538615	698.099
0.583919	698.099
0.634257	707.224
0.684594	707.224
0.729898	711.787
0.782753	711.787
0.800371	711.787
0.828057	711.787
0.850709	720.913
0.875878	725.475
0.901047	730.038
0.926216	734.601
0.943834	743.726
0.948868	757.414
0.958936	771.103
0.966486	798.479
