Adsorption isotherm of Nitrogen on MIL-101F-
DOI: 10.1016/j.micromeso.2009.11.001
Adsorbate Nitrogen: InChIKey IJGRMHOSHXDMSA-UHFFFAOYSA-N
Temperature: 77 K
Tabular data in the source: 0
pressure (bar)	uptake (cm3(STP)/g)
0.0100676	406.084
0.0276858	515.589
0.0604054	606.844
0.0755067	657.034
0.0956419	725.475
0.120811	761.977
0.143463	793.916
0.161081	812.167
0.181216	825.856
0.188767	862.357
0.244138	898.859
0.319645	917.11
0.364949	921.673
0.390118	926.236
0.440456	930.798
0.488277	939.924
0.536098	939.924
0.634257	949.049
0.682078	949.049
0.729898	953.612
0.777719	958.175
0.82554	967.3
0.850709	967.3
0.875878	967.3
0.903564	971.863
0.926216	971.863
0.948868	976.426
0.958936	985.551
0.97152	990.114
