Adsorption isotherm of Hydrogen on MIL-101TM
DOI: 10.1016/j.micromeso.2009.11.001
Adsorbate Hydrogen: InChIKey UFHFLCQGNIYNRP-UHFFFAOYSA-N
Temperature: 77 K
Tabular data in the source: 0
pressure (bar)	uptake (wt%)
0	0.0350877
0.124352	1.35088
0.186528	1.42105
0.217617	1.5614
0.373057	1.70175
0.590674	1.87719
0.932642	2.15789
3.23316	2.94737
4.19689	3.15789
5.56477	3.40351
7.46114	3.70175
9.73057	3.89474
