Adsorption isotherm of Oxygen on Zeolite 5A
DOI: 10.1016/0956-9618(94)80019-7
Adsorbate Oxygen: InChIKey MYMOFIZGZYHOMD-UHFFFAOYSA-N
Temperature: 297 K
Tabular data in the source: 0
pressure (bar)	uptake (molecules/cavity)
0.270072	0.0743494
0.389128	0.118959
0.965857	0.267658
1.09858	0.297398
1.1811	0.356877
