Adsorption isotherm of Nitrogen on Zeolite 5A
DOI: 10.1016/0956-9618(94)80019-7
Adsorbate Nitrogen: InChIKey IJGRMHOSHXDMSA-UHFFFAOYSA-N
Temperature: 233 K
Tabular data in the source: 0
pressure (bar)	uptake (molecules/cavity)
0.107788	0.815347
0.178211	1.37866
0.271184	1.89764
0.877618	3.51545
1.33435	4.06585
2.447	4.96023
2.78821	5.03599
