Adsorption isotherm of Nitrogen on Zeolite 5A
DOI: 10.1016/0956-9618(94)80019-7
Adsorbate Nitrogen: InChIKey IJGRMHOSHXDMSA-UHFFFAOYSA-N
Temperature: 203 K
Tabular data in the source: 0
pressure (bar)	uptake (molecules/cavity)
0.0718161	2.00442
0.13717	2.89561
0.23882	3.68325
0.440827	4.50158
0.81614	5.3513
1.25911	5.77127
1.68353	6.01295
2.36779	6.22751
2.76929	6.39475
