Adsorption isotherm of Oxygen on Zeolite 5A
DOI: 10.1016/0956-9618(94)80019-7
Adsorbate Oxygen: InChIKey MYMOFIZGZYHOMD-UHFFFAOYSA-N
Temperature: 233 K
Tabular data in the source: 0
pressure (bar)	uptake (molecules/cavity)
0.169069	0.223057
0.260392	0.327212
0.342625	0.431322
0.69865	0.80345
0.876044	0.833956
1.25822	0.924732
1.3401	0.939951
