Adsorption isotherm of Oxygen on Zeolite 5A
DOI: 10.1016/0956-9618(94)80019-7
Adsorbate Oxygen: InChIKey MYMOFIZGZYHOMD-UHFFFAOYSA-N
Temperature: 203 K
Tabular data in the source: 0
pressure (bar)	uptake (molecules/cavity)
0.165253	0.654696
0.275058	0.878417
0.357507	1.10187
0.48983	1.16255
0.676712	1.13471
0.859086	1.13652
1.03682	1.09375
1.23733	1.03636
1.33303	1.00762
