Adsorption isotherm of Oxygen on Zeolite 5A
DOI: 10.1016/0956-9618(94)80019-7
Adsorbate Oxygen: InChIKey MYMOFIZGZYHOMD-UHFFFAOYSA-N
Temperature: 233 K
Tabular data in the source: 0
pressure (bar)	uptake (molecules/cavity)
0.168951	0.193427
0.260098	0.253136
0.337784	0.357224
0.693221	0.581201
0.866364	0.68576
1.25793	0.850656
1.32157	0.850971
