Adsorption isotherm of Nitrogen on Zeolite 5A
DOI: 10.1016/0956-9618(94)80019-7
Adsorbate Nitrogen: InChIKey IJGRMHOSHXDMSA-UHFFFAOYSA-N
Temperature: 297 K
Tabular data in the source: 0
pressure (bar)	uptake (molecules/cavity)
0.482223	0.594796
0.761951	0.817844
2.2018	1.94796
2.59113	2.12639
2.85201	2.18587
