Adsorption isotherm of Oxygen on Zeolite 5A
DOI: 10.1016/0956-9618(94)80019-7
Adsorbate Oxygen: InChIKey MYMOFIZGZYHOMD-UHFFFAOYSA-N
Temperature: 203 K
Tabular data in the source: 0
pressure (bar)	uptake (molecules/cavity)
0.169483	0.461788
0.256415	0.640756
0.361533	0.790219
0.48489	0.939863
0.676712	1.13471
0.863747	1.19593
1.02796	1.24208
1.23328	1.33317
1.32903	1.33412
