Adsorption isotherm of Nitrogen on Zeolite 5A
DOI: 10.1016/0956-9618(94)80019-7
Adsorbate Nitrogen: InChIKey IJGRMHOSHXDMSA-UHFFFAOYSA-N
Temperature: 233 K
Tabular data in the source: 0
pressure (bar)	uptake (molecules/cavity)
0.108319	0.948683
0.18311	1.46757
0.271184	1.89764
0.876734	3.29322
1.3291	3.88804
2.44181	4.79724
