Adsorption isotherm of Nitrogen on C44H27N3O10Ru0.5Zn2
DOI: 10.1021/Ja111197d
Adsorbate Nitrogen: InChIKey IJGRMHOSHXDMSA-UHFFFAOYSA-N
Temperature: 77 K
Tabular data in the source: 0
pressure (bar)	uptake (cm3(STP)/g)
0.0751687	86.2196
0.0865149	109.944
0.0978611	132.229
0.119135	161.694
0.148919	196.182
0.194304	219.856
0.242525	232.015
0.290747	243.454
0.341805	250.573
0.392863	254.094
0.441084	259.059
0.490724	263.302
0.536109	266.112
0.58433	269.638
0.635388	271.721
0.680773	282.445
0.731831	285.247
0.778634	290.933
0.829692	293.016
0.875077	296.546
0.876495	295.105
0.926135	299.348
0.947409	330.252
0.968683	358.997
