Adsorption isotherm of Nitrogen on Pd/MIL-101
DOI: 10.1039/c5ta02320c
Article source: Figure 2- Pd MIL101
Adsorbate Nitrogen: InChIKey IJGRMHOSHXDMSA-UHFFFAOYSA-N
Kind: experiment
Temperature: 77 K
Tabular data in the source: 0
pressure (bar)	uptake (cm3(STP)/g)
0.001875	534.41
0.001956	563.13
0.002037	505.32
0.002128	582.78
0.002189	476
0.002199	475.49
0.00227	429.28
0.002371	603.34
0.004033	621.32
0.004114	620.28
0.00685	663.75
0.017276	694.32
0.026466	710.81
0.044431	737.67
0.050146	741.93
0.072245	764.33
0.075305	768.04
0.101619	789.89
0.127862	806.55
0.150457	817.31
0.152271	818.4
0.178839	820.42
0.182405	829.87
0.20268	835.17
0.205082	835.97
0.251266	842.99
0.253576	854.66
0.300337	850.75
0.30663	860.38
0.350736	853.5
0.359268	864.98
0.404125	858.47
0.410083	870.7
0.454443	861.59
0.457422	862.52
0.463379	867.52
0.503352	872.69
0.508652	881.21
0.553842	880.44
0.555332	881.37
0.603502	884.49
0.606977	885.3
0.657376	892.24
0.704715	899.44
0.719286	899.25
0.758428	909.79
0.780284	911.82
0.809577	920.33
0.83581	928.09
0.860229	937.53
0.885469	948.82
0.908976	967.89
0.932068	991.04
0.952181	1025.31
0.964938	1055.88
0.97578	1102.57
0.981657	1150.38
0.984474	1175.21
0.989114	1221.71
0.992103	1252.1
0.994505	1289.53
1.00038	1309.36
1.00221	1343.27
1.00427	1375.51
