Adsorption isotherm of Nitrogen on CeMIL-101
DOI: 10.1039/c5ta02320c
Article source: Figure 2- CeMIL101
Adsorbate Nitrogen: InChIKey IJGRMHOSHXDMSA-UHFFFAOYSA-N
Kind: experiment
Temperature: 77 K
Tabular data in the source: 0
pressure (bar)	uptake (cm3(STP)/g)
0.000882	260.06
0.000963	300.84
0.001054	284.72
0.001054	281.83
0.001054	279.72
0.001388	214.65
0.002452	319.56
0.00303	339.4
0.004519	344.96
0.004935	358.49
0.007164	374.25
0.011794	406.13
0.019829	425.41
0.024956	443.2
0.038281	471
0.052851	497.14
0.066672	521.79
0.077514	535.14
0.09406	552.56
0.102511	556.46
0.125187	576.66
0.127913	577.4
0.150427	593.9
0.160033	604.46
0.17667	622.26
0.201333	627.42
0.205305	627.82
0.251408	644.69
0.255055	640.98
0.300662	647.65
0.306782	648.4
0.352479	664.52
0.353715	665.01
0.404874	666
0.417125	670.08
0.454534	671.57
0.467534	677.5
0.505196	682.32
0.517862	685.65
0.555524	689.92
0.567937	693.81
0.606511	695.11
0.617434	704.19
0.65609	706.97
0.66834	712.35
0.707988	716.24
0.733238	726.8
0.758397	727.17
0.76394	733.29
0.787619	741.08
0.807155	735.7
0.810215	754.79
0.819983	757.2
0.840754	767.77
0.849782	750.53
0.861202	770.55
0.868153	775
0.881396	772.22
0.886614	794.65
0.896382	800.39
0.905815	791.49
0.911195	823.38
0.927337	811.51
0.931633	821.61
0.932139	822.64
0.947358	904.19
0.950925	850.62
0.961017	880.84
0.96125	883.94
0.969701	970.53
0.971686	915.18
0.976266	993.88
0.978769	1011.17
0.985669	1052.3
0.989307	1075.1
0.99411	1122.37
0.995346	1165
0.999561	1214.68
0.999561	1214.67
1.00163	1256.38
1.00261	1292.34
