Adsorption isotherm of Nitrogen on Pd/CeMIL-101
DOI: 10.1039/c5ta02320c
Article source: Figure 2- Pd CeMIL101
Adsorbate Nitrogen: InChIKey IJGRMHOSHXDMSA-UHFFFAOYSA-N
Kind: experiment
Temperature: 77 K
Tabular data in the source: 0
pressure (bar)	uptake (cm3(STP)/g)
8.1e-05	18.36
0.000172	35.79
0.000253	119.51
0.000253	120.05
0.000253	120.38
0.000253	120.89
0.000426	140.92
0.000669	184.24
0.000669	184.31
0.001834	211.01
0.00539	241.23
0.014753	269.79
0.025929	287.78
0.043479	315.59
0.050764	328.39
0.070715	353.42
0.076511	357.32
0.097535	374.01
0.102835	375.31
0.12618	389.22
0.151927	406.66
0.175596	420.94
0.203501	430.21
0.254245	441.35
0.300185	452.3
0.305485	452.85
0.351598	461.95
0.356563	461.95
0.40607	466.96
0.455405	476.8
0.506402	484.97
0.556568	495.73
0.607808	501.67
0.657731	511.7
0.708302	520.61
0.708475	523.02
0.728344	530.25
0.758722	530.44
0.759634	530.42
0.778835	543.42
0.807895	549.55
0.809465	552.89
0.832233	567.54
0.854089	564.95
0.860959	578.3
0.881072	586.28
0.886867	596.66
0.908065	602.78
0.908895	624.85
0.928674	656.93
0.933558	631.71
0.948544	700.32
0.952769	708.9
0.953266	718.86
0.961382	756.69
0.963449	711
0.963945	775.23
0.970572	729.81
0.972973	808.98
0.97728	830.31
0.979428	776.72
0.982822	811.77
0.983491	873.88
0.987797	860.9
0.99185	901.7
0.99492	926.91
0.995579	975.87
0.997241	1029.45
0.999885	1071.36
1.00188	1121.05
1.00213	1120.15
