Adsorption isotherm of Nitrogen on MIL-101
DOI: 10.1039/c5ta02320c
Article source: Figure 2- MIL101
Adsorbate Nitrogen: InChIKey IJGRMHOSHXDMSA-UHFFFAOYSA-N
Kind: experiment
Temperature: 77 K
Tabular data in the source: 0
pressure (bar)	uptake (cm3(STP)/g)
5.1e-05	685.2
0.000213	665.36
0.000871	735.09
0.001378	697.63
0.00154	771.99
0.002118	798.88
0.003607	825.95
0.007407	851.73
0.015604	884.37
0.026689	909.22
0.043661	939.08
0.052355	950.76
0.070563	976.73
0.078263	984.7
0.102592	1005.48
0.126352	1018.28
0.154075	1034.41
0.17891	1054.82
0.204241	1063.72
0.253657	1073.75
0.303073	1082.28
0.353979	1090.08
0.405959	1098.44
0.455871	1104.01
0.506453	1112.18
0.556771	1120.53
0.607768	1127.4
0.658005	1136.13
0.708333	1144.48
0.758499	1151.91
0.760292	1153.06
0.780182	1167.86
0.807834	1162.3
0.810641	1177.51
0.833651	1186.6
0.856004	1180.48
0.863532	1204.96
0.884233	1200.15
0.887789	1222.58
0.909392	1217.03
0.910385	1240.21
0.930741	1271.36
0.933396	1244.29
0.951188	1284.53
0.951847	1287.32
0.958889	1311.79
0.966255	1343.51
0.97271	1379.3
0.977421	1399.51
0.985365	1440.5
0.989925	1469.61
0.994971	1521.91
0.997038	1556.03
0.999186	1597.57
1.00324	1625.2
1.00431	1653.94
