Adsorption isotherm of Nitrogen on Carya illinoinensis biomass (C-K)
DOI: 10.1016/j.molliq.2017.01.039
Article source: Figure 1
Adsorbate Nitrogen: InChIKey IJGRMHOSHXDMSA-UHFFFAOYSA-N
Kind: experiment
Temperature: 77 K
Tabular data in the source: 0
pressure (bar)	uptake (cm3(STP)/g)
0.004782	144.21
0.005208	147.03
0.006951	155.12
0.007721	168.51
0.007782	162.87
0.008116	174.5
0.01763	186.73
0.026729	195.44
0.055069	210.26
0.076144	217.41
0.105964	224.46
0.128893	230.18
0.140788	235.32
0.154102	237.63
0.181652	242.23
0.185755	245
0.203659	247.61
0.237998	251.03
0.242588	255.41
0.26113	255.19
0.282529	258.48
0.293502	261.9
0.301021	263.15
0.308529	265.72
0.350203	270.1
0.355988	270.92
0.406325	277.42
0.446115	293.82
0.454981	279.49
0.505865	288.2
0.553902	293.84
0.558107	331.12
0.610066	297.6
0.611413	331.8
0.65023	332.66
0.655813	300.15
0.680678	305.18
0.707913	305.3
0.752475	310.53
0.753975	330.96
0.776256	308.46
0.812205	306.25
0.838276	307.26
0.846341	310.72
0.854204	332.4
0.861418	310.54
0.886374	307.12
0.894753	334.13
0.914704	312.11
0.921077	312.48
0.934178	331.87
0.952973	309.87
0.959681	332.01
0.973197	314.95
0.98106	337.08
0.997332	332.88
1.0025	337.26
