Adsorption isotherm of Nitrogen on Carya illinoinensis biomass (C)
DOI: 10.1016/j.molliq.2017.01.039
Article source: Figure 1
Adsorbate Nitrogen: InChIKey IJGRMHOSHXDMSA-UHFFFAOYSA-N
Kind: experiment
Temperature: 77 K
Tabular data in the source: 0
pressure (bar)	uptake (cm3(STP)/g)
0.001419	0.686
0.001733	14.021
0.001763	31.294
0.002695	87.051
0.002857	47.043
0.002928	97.084
0.003556	92.766
0.003739	100.64
0.00381	103.942
0.010507	109.274
0.027702	111.68
0.054735	113.702
0.07736	113.82
0.102174	114.318
0.126248	114.435
0.147405	114.681
0.15544	114.932
0.176231	115.304
0.205777	115.42
0.229486	115.283
0.252821	115.147
0.306816	115.506
0.329411	114.735
0.37987	114.869
0.428779	114.043
0.48174	113.518
0.529494	112.793
0.579861	112.572
0.631354	111.241
0.685491	110.917
