Adsorption isotherm of Nitrogen on Carya illinoinensis biomass (C-Ca)
DOI: 10.1016/j.molliq.2017.01.039
Article source: Figure 1
Adsorbate Nitrogen: InChIKey IJGRMHOSHXDMSA-UHFFFAOYSA-N
Kind: experiment
Temperature: 77 K
Tabular data in the source: 0
pressure (bar)	uptake (cm3(STP)/g)
0.05134	141.06
0.073905	146.95
0.103826	147.7
0.12715	151.34
0.141011	151.73
0.144588	158.4
0.155622	150.99
0.178116	163.03
0.184043	155.68
0.20523	154.87
0.232222	156.22
0.248191	164.98
0.259954	157.56
0.280371	159.55
0.307363	161.46
0.356272	162.54
0.361267	172.56
0.378918	161.15
0.401462	168.71
0.455366	179.81
0.460604	168.55
0.532888	168.23
0.55983	174.06
0.562647	182.99
0.58745	184.92
0.603622	175.21
0.641476	184.83
0.656158	177.93
0.68318	177.6
0.718927	179.96
0.731927	192.68
0.751786	179.56
0.761989	181.12
0.787503	184.17
0.808649	186.71
0.845115	190.18
0.852248	204.65
0.861884	192.22
0.892483	198.01
0.912738	214.56
0.916507	203.87
0.917237	203.86
0.938889	225.44
0.951443	212.96
0.957016	236.97
0.975366	228.35
0.98031	242.85
0.99711	242.08
1.00074	244.28
