Adsorption isotherm of Nitrogen on Carya illinoinensis biomass (C-Na)
DOI: 10.1016/j.molliq.2017.01.039
Article source: Figure 1
Adsorbate Nitrogen: InChIKey IJGRMHOSHXDMSA-UHFFFAOYSA-N
Kind: experiment
Temperature: 77 K
Tabular data in the source: 0
pressure (bar)	uptake (cm3(STP)/g)
0.007832	158.99
0.007923	150.87
0.008096	175.92
0.008187	167.8
0.013476	188.2
0.027621	198.25
0.054613	210.27
0.074797	214.96
0.104616	221.65
0.132581	229.07
0.145925	229.26
0.156433	235.48
0.181713	236.59
0.184448	239.02
0.21061	242.94
0.234928	248.28
0.249619	250.57
0.260684	248.32
0.290503	255.37
0.298285	258.45
0.313453	258.97
0.34697	264.56
0.355228	266.22
0.405758	271.25
0.455315	281.22
0.457828	303.06
0.507182	290.82
0.554895	341.39
0.561745	305.68
0.607644	313.58
0.608039	359.43
0.657627	366.24
0.660383	327.05
0.687872	336.24
0.714499	340.85
0.750439	374.98
0.755738	353.75
0.759416	354.06
0.784159	362.23
0.810787	366.49
0.847516	372.39
0.848357	378.73
0.887529	371.9
0.89527	378.86
0.905899	374.15
0.933438	379.46
0.938575	373.04
0.95193	371.47
0.973491	376.5
0.990453	381.23
1.00051	386.05
