Adsorption isotherm of Nitrogen on Carya illinoinensis biomass (C-CO2)
DOI: 10.1016/j.molliq.2017.01.039
Article source: Figure 1
Adsorbate Nitrogen: InChIKey IJGRMHOSHXDMSA-UHFFFAOYSA-N
Kind: experiment
Temperature: 77 K
Tabular data in the source: 0
pressure (bar)	uptake (cm3(STP)/g)
0.003273	65.735
0.003708	74.536
0.004195	85.578
0.005218	80.216
0.006171	111.5
0.011034	113.018
0.018187	114.616
0.031795	116.77
0.05669	119.035
0.08116	120.804
0.105254	121.429
0.133726	122.688
0.146169	124.334
0.156372	124.076
0.176454	124.576
0.197651	126.727
0.211846	125.197
0.227896	125.317
0.24511	128.359
0.251301	127.975
0.278659	127.964
0.288872	127.96
0.296167	127.957
0.300899	127.702
0.307465	127.699
0.354924	129.839
0.382707	128.792
0.410297	129.421
0.456288	131.163
0.456308	132.124
0.511438	131.461
0.561096	132.562
0.561583	133.522
0.607067	133.344
0.61118	132.382
0.659005	133.803
0.66633	132.52
0.687031	133.312
0.709079	132.823
0.755049	133.445
0.764239	133.441
0.787209	133.432
0.816633	133.9
0.850647	134.367
0.864903	134.521
0.89066	135.471
0.892494	135.47
0.914572	136.102
0.926062	136.577
0.946276	136.249
0.976632	137.197
0.98721	137.673
1.00146	137.667
