Adsorption isotherm of Nitrogen on Carya illinoinensis biomass (C-S)
DOI: 10.1016/j.molliq.2017.01.039
Article source: Figure 1
Adsorbate Nitrogen: InChIKey IJGRMHOSHXDMSA-UHFFFAOYSA-N
Kind: experiment
Temperature: 77 K
Tabular data in the source: 0
pressure (bar)	uptake (cm3(STP)/g)
0.001905	21.515
0.002766	42.979
0.003658	52.454
0.018532	99.814
0.032808	100.928
0.051209	101.881
0.086195	104.267
0.106865	104.099
0.1363	104.887
0.14325	107.445
0.146868	104.883
0.156514	104.719
0.170385	108.554
0.18227	105.829
0.207084	105.499
0.224157	108.533
0.225464	105.652
0.254888	106.12
0.283846	105.935
0.291952	105.932
0.296583	106.132
0.303533	106.331
0.329634	108.135
0.362584	105.904
0.429143	104.668
0.429762	106.684
0.484729	104.847
0.52994	107.249
0.531054	105.434
0.580246	104.406
0.58204	106.825
0.63181	105.797
0.634667	103.981
0.68852	104.565
0.706454	103.751
0.725615	105.961
0.736547	103.134
0.770703	102.919
0.810088	103.508
0.826917	105.316
0.836128	103.095
0.876647	102.474
0.894631	103.878
0.914855	102.459
0.927642	104.47
0.936863	102.651
0.976237	102.636
1.01104	105.646
