Adsorption isotherm of Nitrogen on Carya illinoinensis biomass (C-CH)
DOI: 10.1016/j.molliq.2017.01.039
Article source: Figure 1
Adsorbate Nitrogen: InChIKey IJGRMHOSHXDMSA-UHFFFAOYSA-N
Kind: experiment
Temperature: 77 K
Tabular data in the source: 0
pressure (bar)	uptake (cm3(STP)/g)
0.005107	70.361
0.007974	81.751
0.008683	87.295
0.012513	102.918
0.051644	117.52
0.07659	119.627
0.105862	120.926
0.129339	122.025
0.148722	121.513
0.157993	122.014
0.179706	122.207
0.180922	124.525
0.202585	122.399
0.207023	126.531
0.227571	126.22
0.229223	122.389
0.254402	122.379
0.254787	126.512
0.279611	123.377
0.283674	123.677
0.288092	126.801
0.291212	123.977
0.294455	126.899
0.299024	124.075
0.305175	126.895
0.310028	123.969
0.357812	124.757
0.358126	126.067
0.380356	125.257
0.381491	127.288
0.408636	125.817
0.40977	127.722
0.454646	128.339
0.456957	125.417
0.507152	127.238
0.50856	125.396
0.557601	126.693
0.58281	127.591
0.604493	126.171
0.630574	127.168
0.660069	126.048
0.685562	126.743
0.711612	126.632
0.729009	127.835
0.752414	126.011
0.782842	127.209
0.811506	127.096
0.830616	127.593
0.874043	127.374
0.896617	127.264
0.911836	127.839
0.916953	128.218
0.931898	127.577
0.978578	127.432
1.00194	128.185
