Adsorption isotherm of Nitrogen on Carya illinoinensis biomass (C-p)
DOI: 10.1016/j.molliq.2017.01.039
Article source: Figure 1
Adsorbate Nitrogen: InChIKey IJGRMHOSHXDMSA-UHFFFAOYSA-N
Kind: experiment
Temperature: 77 K
Tabular data in the source: 0
pressure (bar)	uptake (cm3(STP)/g)
0.002867	78.057
0.003982	66.535
0.006586	119.661
0.015887	124.298
0.03067	127.652
0.059507	130.719
0.080339	132.235
0.104768	132.225
0.131436	133.992
0.145642	132.971
0.146442	136.146
0.154031	132.84
0.181399	133.719
0.197134	135.744
0.208036	133.962
0.222688	136.877
0.228493	135.478
0.258039	135.72
0.276612	134.062
0.283178	134.313
0.286096	134.312
0.297039	134.308
0.305438	134.685
0.333576	137.214
0.355431	135.935
0.432984	136.933
0.482115	135.154
0.534965	135.453
0.584137	135.433
0.627362	136.376
0.633755	134.613
0.683839	134.273
0.707751	135.064
0.725199	134.737
0.735747	133.773
0.778009	133.116
0.814323	133.421
0.826775	135.337
0.838671	132.931
0.880527	134.675
0.897529	134.668
0.909941	134.983
0.928311	134.176
0.938403	133.372
0.958171	133.844
0.978405	134.476
0.990787	133.511
1.00413	134.146
