Adsorption isotherm of Hydrogen on MOF-177
DOI: 10.1039/C1ee01426a
Adsorbate Hydrogen: InChIKey UFHFLCQGNIYNRP-UHFFFAOYSA-N
Temperature: 65 K
Tabular data in the source: 0
pressure (bar)	uptake (g/g)
0.692489	0.0157346
1.7121	0.026455
3.60565	0.0364763
5.42638	0.0431183
7.53843	0.0480125
9.65047	0.0509256
11.9082	0.0533727
14.1659	0.0555867
17.2975	0.056752
23.051	0.0581503
25.7457	0.0581503
28.3676	0.0578007
31.4992	0.0575676
35.056	0.0562272
