Adsorption isotherm of Hydrogen on MOF-177
DOI: 10.1039/C1ee01426a
Adsorbate Hydrogen: InChIKey UFHFLCQGNIYNRP-UHFFFAOYSA-N
Temperature: 77 K
Tabular data in the source: 0
pressure (bar)	uptake (g/g)
0.637473	0.00543094
2.27613	0.0176662
4.24252	0.0261872
8.72151	0.038641
13.6375	0.0469435
18.7719	0.0534982
24.4526	0.0593973
30.6795	0.0633301
33.8476	0.0648595
36.9064	0.0668259
40.2929	0.0681368
