Adsorption isotherm of Hydrogen on MOF-177
DOI: 10.1039/C1ee01426a
Adsorbate Hydrogen: InChIKey UFHFLCQGNIYNRP-UHFFFAOYSA-N
Temperature: 100 K
Tabular data in the source: 0
pressure (bar)	uptake (g/l)
3.80554	5.99278
6.42739	8.61463
9.04924	10.7995
11.4526	13.2029
14.6207	15.3877
17.3518	17.2449
20.0829	18.665
22.8139	19.976
25.982	21.5054
28.4946	22.7071
31.4442	23.9087
34.3938	24.7827
37.3434	25.9844
39.856	26.7491
