Adsorption isotherm of Hydrogen on MOF-177
DOI: 10.1039/C1ee01426a
Adsorbate Hydrogen: InChIKey UFHFLCQGNIYNRP-UHFFFAOYSA-N
Temperature: 70 K
Tabular data in the source: 0
pressure (bar)	uptake (g/g)
0.43785	0.00697526
1.02048	0.0153652
2.18575	0.0238328
5.00181	0.0352524
8.3034	0.0425547
12.042	0.0478373
16.703	0.0515661
21.8982	0.0536636
28.3557	0.0542074
33.6479	0.053819
38.5032	0.0527314
42.436	0.0513331
