Adsorption isotherm of Hydrogen on MOF-177
DOI: 10.1039/C1ee01426a
Adsorbate Hydrogen: InChIKey UFHFLCQGNIYNRP-UHFFFAOYSA-N
Temperature: 77 K
Tabular data in the source: 0
pressure (bar)	uptake (g/g)
1.60312	0.0130346
2.33141	0.0180064
3.8851	0.0240658
6.5555	0.0316789
10.5368	0.0383598
15.0037	0.0431762
20.1017	0.0465943
25.2969	0.048148
30.9775	0.0492356
36.2212	0.0490025
40.2511	0.0486918
