Adsorption isotherm of Hydrogen on MOF-177
DOI: 10.1039/C1ee01426a
Adsorbate Hydrogen: InChIKey UFHFLCQGNIYNRP-UHFFFAOYSA-N
Temperature: 55 K
Tabular data in the source: 0
pressure (bar)	uptake (g/g)
0.243639	0.0169965
1.21469	0.032145
2.04009	0.0417002
3.59378	0.0501678
5.82721	0.0579362
8.93458	0.0635295
13.013	0.0668699
17.14	0.0677245
22.0924	0.0667146
26.0737	0.064384
32.5312	0.0598007
37.4836	0.0551396
40.591	0.0521099
