Adsorption isotherm of Hydrogen on MOF-177
DOI: 10.1039/C1ee01426a
Adsorbate Hydrogen: InChIKey UFHFLCQGNIYNRP-UHFFFAOYSA-N
Temperature: 60 K
Tabular data in the source: 0
pressure (bar)	uptake (g/g)
0.401172	0.0137536
0.765318	0.0244741
1.42078	0.0318153
2.87736	0.0412539
5.35355	0.0504595
9.2135	0.0573346
13.2919	0.0610634
18.8269	0.0629279
23.7065	0.0628113
29.6785	0.0610634
35.432	0.0571015
38.418	0.054771
