Adsorption isotherm of Hydrogen on MOF-177
DOI: 10.1039/C1ee01426a
Adsorbate Hydrogen: InChIKey UFHFLCQGNIYNRP-UHFFFAOYSA-N
Temperature: 55 K
Tabular data in the source: 0
pressure (bar)	uptake (g/g)
0.401172	0.0270377
1.20229	0.0430018
2.29473	0.0523239
4.04263	0.06118
6.66448	0.0684046
10.3788	0.0723665
14.4572	0.0732987
17.8073	0.0723665
21.1575	0.070269
25.6001	0.0661906
29.8241	0.061413
35.5776	0.0534892
40.8942	0.0454489
