Adsorption isotherm of Hydrogen on MOF-177
DOI: 10.1039/C1ee01426a
Adsorbate Hydrogen: InChIKey UFHFLCQGNIYNRP-UHFFFAOYSA-N
Temperature: 77 K
Tabular data in the source: 0
pressure (bar)	uptake (g/g)
4.07931	0.0248427
6.36129	0.0310574
8.74037	0.0355631
10.9738	0.0391366
13.6442	0.0417779
16.1204	0.0440307
18.6451	0.0462059
21.1213	0.0476819
24.3744	0.0489248
27.4332	0.0497794
30.7348	0.0507116
33.745	0.0513331
37.0466	0.0517215
40.0083	0.0517992
