Adsorption isotherm of Hydrogen on MOF-177
DOI: 10.1039/C1ee01426a
Adsorbate Hydrogen: InChIKey UFHFLCQGNIYNRP-UHFFFAOYSA-N
Temperature: 50 K
Tabular data in the source: 0
pressure (bar)	uptake (g/g)
0.528229	0.0299327
1.40218	0.0467563
2.82235	0.0583798
4.57025	0.068168
6.42739	0.0739798
8.28453	0.0797915
10.4694	0.0846857
12.7635	0.088968
17.3518	0.096921
22.2677	0.103039
26.7467	0.107627
30.6795	0.110992
35.2677	0.11558
39.5282	0.118944
41.3854	0.121086
