Adsorption isotherm of Hydrogen on MOF-177
DOI: 10.1039/C1ee01426a
Adsorbate Hydrogen: InChIKey UFHFLCQGNIYNRP-UHFFFAOYSA-N
Temperature: 65 K
Tabular data in the source: 0
pressure (bar)	uptake (g/g)
0.965204	0.016168
1.9484	0.0274857
3.58705	0.0388033
5.22571	0.047368
7.41058	0.0540974
9.92319	0.0599092
12.2173	0.0648033
14.4022	0.0693915
17.3518	0.0739798
20.1921	0.0776504
22.9232	0.0819327
26.0913	0.0849915
28.7131	0.0880504
32.0997	0.0908033
34.94	0.0935563
37.3434	0.0963092
40.1837	0.0990621
