Adsorption isotherm of Hydrogen on MOF-177
DOI: 10.1039/C1ee01426a
Adsorbate Hydrogen: InChIKey UFHFLCQGNIYNRP-UHFFFAOYSA-N
Temperature: 100 K
Tabular data in the source: 0
pressure (bar)	uptake (g/g)
0.340744	0.00107124
1.84588	0.00588768
4.75905	0.0120247
7.478	0.0168412
11.605	0.0223568
15.3921	0.0258526
19.859	0.0293484
25.0055	0.0319896
29.9094	0.033621
34.2306	0.0347863
38.0662	0.0354078
39.5714	0.0354854
