Adsorption isotherm of Hydrogen on MOF-177
DOI: 10.1039/C1ee01426a
Adsorbate Hydrogen: InChIKey UFHFLCQGNIYNRP-UHFFFAOYSA-N
Temperature: 100 K
Tabular data in the source: 0
pressure (bar)	uptake (g/g)
4.24252	0.0118857
6.75512	0.0186151
9.04924	0.0238151
11.9988	0.0290151
14.8392	0.0339092
20.1921	0.0406386
23.1417	0.0458386
25.8728	0.0495092
29.2593	0.052568
31.8812	0.055321
34.6123	0.0580739
37.4526	0.060521
40.1837	0.0644974
