Adsorption isotherm of Hydrogen on MOF-177
DOI: 10.1039/C1ee01426a
Adsorbate Hydrogen: InChIKey UFHFLCQGNIYNRP-UHFFFAOYSA-N
Temperature: 120 K
Tabular data in the source: 0
pressure (bar)	uptake (g/g)
0.195086	0.000217
7.76932	0.0103157
12.0905	0.0143553
16.2175	0.0170742
20.4901	0.0194824
24.7628	0.0218907
29.1325	0.0237551
33.3081	0.0255418
37.3379	0.0267071
