Adsorption isotherm of Hydrogen on MOF-177
DOI: 10.1039/C1ee01426a
Adsorbate Hydrogen: InChIKey UFHFLCQGNIYNRP-UHFFFAOYSA-N
Temperature: 120 K
Tabular data in the source: 0
pressure (bar)	uptake (g/g)
0.309742	0.00035
1.29294	0.00393272
4.461	0.00974449
7.9568	0.0155563
12.1081	0.0204504
16.3686	0.0250386
20.5198	0.0302386
24.8896	0.034521
29.2593	0.0388033
33.4106	0.0424739
37.9988	0.0461445
