Adsorption isotherm of Hydrogen on MOF-177
DOI: 10.1039/C1ee01426a
Adsorbate Hydrogen: InChIKey UFHFLCQGNIYNRP-UHFFFAOYSA-N
Temperature: 65 K
Tabular data in the source: 0
pressure (bar)	uptake (g/l)
0.418986	8.39614
1.72991	14.623
3.47781	19.976
5.55344	24.1272
7.62907	27.0768
9.92319	29.4802
11.9988	31.3373
14.4022	33.0852
17.2425	34.5054
20.0829	35.5978
25.8728	37.7827
31.335	38.8751
37.3434	39.9676
40.1837	39.6398
