Adsorption isotherm of Hydrogen on MOF-177
DOI: 10.1039/C1ee01426a
Adsorbate Hydrogen: InChIKey UFHFLCQGNIYNRP-UHFFFAOYSA-N
Temperature: 60 K
Tabular data in the source: 0
pressure (bar)	uptake (g/g)
0.43785	0.00705294
1.02048	0.0213469
1.4089	0.0284938
2.47707	0.0364953
3.8851	0.0441084
6.02142	0.0506339
9.12879	0.0566156
12.9159	0.0604998
16.8972	0.0623642
22.1895	0.0627527
27.9673	0.0610436
33.4052	0.058247
38.4061	0.055295
41.5135	0.0532752
