Adsorption isotherm of Hydrogen on MOF-177
DOI: 10.1039/C1ee01426a
Adsorbate Hydrogen: InChIKey UFHFLCQGNIYNRP-UHFFFAOYSA-N
Temperature: 60 K
Tabular data in the source: 0
pressure (bar)	uptake (g/g)
1.40218	0.0299327
3.04083	0.0433915
4.89798	0.0531798
6.64588	0.060521
8.83075	0.0663327
11.4526	0.0715327
14.2929	0.0767327
19.8644	0.0846857
22.7047	0.0877445
25.3265	0.0901915
28.1669	0.0935563
30.6795	0.0953915
33.3013	0.0984504
36.1417	0.0999798
38.982	0.103039
