Adsorption isotherm of Hydrogen on MOF-177
DOI: 10.1039/C1ee01426a
Adsorbate Hydrogen: InChIKey UFHFLCQGNIYNRP-UHFFFAOYSA-N
Temperature: 120 K
Tabular data in the source: 0
pressure (bar)	uptake (g/g)
0.309742	0.00025
1.40218	0.00324606
4.02403	0.00805278
7.84756	0.0124225
12.3265	0.0165738
16.5871	0.0209435
20.3013	0.0242209
24.7803	0.0272797
29.3686	0.0307755
33.1921	0.0331788
37.5618	0.0351452
