Adsorption isotherm of Hydrogen on MOF-177
DOI: 10.1039/C1ee01426a
Adsorbate Hydrogen: InChIKey UFHFLCQGNIYNRP-UHFFFAOYSA-N
Temperature: 90 K
Tabular data in the source: 0
pressure (bar)	uptake (g/l)
1.72991	5.11883
3.91478	8.94236
7.08285	13.2029
11.2341	16.9171
15.1669	19.3205
19.3181	21.8331
23.0324	23.7995
26.6375	25.3289
30.898	26.9676
34.94	28.2785
