Adsorption isotherm of Hydrogen on MOF-177
DOI: 10.1039/C1ee01426a
Adsorbate Hydrogen: InChIKey UFHFLCQGNIYNRP-UHFFFAOYSA-N
Temperature: 60 K
Tabular data in the source: 0
pressure (bar)	uptake (g/l)
1.51142	9.42616
3.04083	13.1841
4.67949	16.243
7.19209	18.5152
8.93999	20.4379
11.5618	22.011
14.6207	23.4093
19.8644	25.9438
22.8139	26.7304
28.3854	28.653
31.0072	29.6144
36.3602	30.6631
38.8728	31.5371
