Adsorption isotherm of Hydrogen on MOF-177
DOI: 10.1039/C1ee01426a
Adsorbate Hydrogen: InChIKey UFHFLCQGNIYNRP-UHFFFAOYSA-N
Temperature: 110 K
Tabular data in the source: 0
pressure (bar)	uptake (g/l)
2.16688	1.82279
5.00722	3.74548
7.84756	5.31859
11.4526	7.15389
14.8392	8.37742
18.7719	10.2127
23.9064	11.7858
28.6039	13.4463
32.9736	14.7572
37.9988	16.0682
