Adsorption isotherm of Hydrogen on MOF-177
DOI: 10.1039/C1ee01426a
Adsorbate Hydrogen: InChIKey UFHFLCQGNIYNRP-UHFFFAOYSA-N
Temperature: 100 K
Tabular data in the source: 0
pressure (bar)	uptake (g/g)
0.243639	0.00138198
2.96259	0.00852895
5.97286	0.0149768
10.6339	0.0215022
14.5667	0.0254641
19.3734	0.0292707
24.4229	0.0320673
29.9094	0.0343202
33.8907	0.0354854
38.746	0.036573
