Adsorption isotherm of Hydrogen on MOF-177
DOI: 10.1039/C1ee01426a
Adsorbate Hydrogen: InChIKey UFHFLCQGNIYNRP-UHFFFAOYSA-N
Temperature: 120 K
Tabular data in the source: 0
pressure (bar)	uptake (g/l)
0.309742	0.0998944
1.51142	1.21103
4.35176	2.95893
8.06604	4.53204
12.2173	6.27994
16.3686	7.85305
20.8476	9.25137
24.9988	10.7371
29.2593	11.9606
33.5198	13.0967
38.1081	14.1455
