Adsorption isotherm of Hydrogen on MOF-177
DOI: 10.1039/C1ee01426a
Adsorbate Hydrogen: InChIKey UFHFLCQGNIYNRP-UHFFFAOYSA-N
Temperature: 110 K
Tabular data in the source: 0
pressure (bar)	uptake (g/g)
2.38537	0.00521245
5.22571	0.0106746
8.06604	0.0148259
11.3434	0.0194141
14.8392	0.0231284
19.0997	0.0268427
23.5786	0.0316494
28.1669	0.0344898
32.7551	0.038641
37.4526	0.0412629
