Adsorption isotherm of Hydrogen on MOF-177
DOI: 10.1039/C1ee01426a
Adsorbate Hydrogen: InChIKey UFHFLCQGNIYNRP-UHFFFAOYSA-N
Temperature: 120 K
Tabular data in the source: 0
pressure (bar)	uptake (g/g)
0.923377	0.000527
3.59378	0.00363483
6.79826	0.00713063
11.7021	0.0118694
16.1204	0.0148991
20.4901	0.017385
25.8309	0.0200262
29.6181	0.0218907
34.5219	0.0232113
37.7749	0.0238328
