Adsorption isotherm of Hydrogen on MOF-177
DOI: 10.1039/C1ee01426a
Adsorbate Hydrogen: InChIKey UFHFLCQGNIYNRP-UHFFFAOYSA-N
Temperature: 100 K
Tabular data in the source: 0
pressure (bar)	uptake (g/g)
1.16614	0.00410093
3.78799	0.0101603
6.40984	0.0145883
8.98313	0.0181618
11.7992	0.0216576
14.5181	0.0244542
17.5284	0.0272509
20.2474	0.0288823
22.9663	0.0309021
25.8309	0.0326111
28.7441	0.0338541
31.6087	0.0354078
34.1335	0.0364953
37.3865	0.0375829
40.154	0.0383598
