Adsorption isotherm of Hydrogen on MOF-177
DOI: 10.1039/C1ee01426a
Adsorbate Hydrogen: InChIKey UFHFLCQGNIYNRP-UHFFFAOYSA-N
Temperature: 80 K
Tabular data in the source: 0
pressure (bar)	uptake (g/g)
1.50601	0.0108595
4.12786	0.022046
7.33234	0.0298145
10.5368	0.035097
14.0812	0.0392143
18.2082	0.0423993
22.1895	0.0444968
26.2194	0.0460505
30.2492	0.0473711
34.5219	0.048381
38.4061	0.0487695
