Adsorption isotherm of Hydrogen on MOF-177
DOI: 10.1039/C1ee01426a
Adsorbate Hydrogen: InChIKey UFHFLCQGNIYNRP-UHFFFAOYSA-N
Temperature: 77 K
Tabular data in the source: 0
pressure (bar)	uptake (g/g)
0.243639	0.00394556
1.4089	0.0145106
3.20536	0.0236774
5.77865	0.0311351
8.93458	0.0376606
12.7217	0.0423993
17.4799	0.0462059
22.7236	0.0486918
28.21	0.0497794
33.6479	0.0498571
39.9112	0.0493133
