Adsorption isotherm of Hydrogen on MOF-177
DOI: 10.1039/C1ee01426a
Adsorbate Hydrogen: InChIKey UFHFLCQGNIYNRP-UHFFFAOYSA-N
Temperature: 50 K
Tabular data in the source: 0
pressure (bar)	uptake (g/l)
0.309742	15.7155
1.29294	24.455
2.38537	30.3541
4.461	34.3961
6.2089	36.9087
9.81394	40.9508
12.545	42.5894
17.2425	44.4466
21.7215	45.3205
26.2005	45.3205
30.6795	44.665
34.6123	44.4466
37.2341	44.3373
39.2005	44.0096
41.0576	43.5726
