Adsorption isotherm of Hydrogen on MOF-177
DOI: 10.1039/C1ee01426a
Adsorbate Hydrogen: InChIKey UFHFLCQGNIYNRP-UHFFFAOYSA-N
Temperature: 60 K
Tabular data in the source: 0
pressure (bar)	uptake (g/g)
1.40218	0.0294646
3.04083	0.0419183
4.67949	0.0506578
6.97361	0.0567755
9.04924	0.0611452
11.7803	0.0657335
14.1837	0.0683553
19.7551	0.0729435
25.3265	0.0746914
30.1333	0.0766578
33.3013	0.0773133
36.2509	0.0773133
38.545	0.0779688
