Adsorption isotherm of Hydrogen on MOF-177
DOI: 10.1039/C1ee01426a
Adsorbate Hydrogen: InChIKey UFHFLCQGNIYNRP-UHFFFAOYSA-N
Temperature: 110 K
Tabular data in the source: 0
pressure (bar)	uptake (g/g)
2.18575	0.00518852
4.95326	0.00961653
7.86642	0.0130346
11.3137	0.0167635
14.8095	0.0197155
18.7908	0.0225121
23.3062	0.0252311
27.9673	0.0274839
32.7254	0.0296591
37.5807	0.0313682
