Adsorption isotherm of Hydrogen on MOF-177
DOI: 10.1039/C1ee01426a
Adsorbate Hydrogen: InChIKey UFHFLCQGNIYNRP-UHFFFAOYSA-N
Temperature: 90 K
Tabular data in the source: 0
pressure (bar)	uptake (g/l)
1.83915	2.87153
4.02403	5.49338
7.62907	8.37742
11.3434	10.9119
15.4946	12.922
18.8812	14.4951
23.1417	16.3304
27.1837	17.7287
31.4442	19.127
35.8139	20.5253
