Adsorption isotherm of Hydrogen on MOF-177
DOI: 10.1039/C1ee01426a
Adsorbate Hydrogen: InChIKey UFHFLCQGNIYNRP-UHFFFAOYSA-N
Temperature: 100 K
Tabular data in the source: 0
pressure (bar)	uptake (g/g)
1.51142	0.00455699
3.91478	0.0104561
6.09966	0.0154814
9.26772	0.0205066
11.7803	0.0248763
14.5114	0.0288091
17.5702	0.0323049
19.9736	0.0347082
23.0324	0.0377671
26.3097	0.0401704
28.7131	0.0419183
31.6627	0.0445402
34.503	0.0465066
37.4526	0.0482545
40.4022	0.0504393
