Adsorption isotherm of Hydrogen on MOF-177
DOI: 10.1039/C1ee01426a
Adsorbate Hydrogen: InChIKey UFHFLCQGNIYNRP-UHFFFAOYSA-N
Temperature: 77 K
Tabular data in the source: 0
pressure (bar)	uptake (g/l)
0.637473	2.82471
2.05764	9.48858
4.24252	14.0768
6.42739	18.0096
8.72151	20.7407
11.3434	23.144
13.0913	24.8919
18.7719	28.8247
24.1249	31.3373
27.5114	32.4298
30.7887	33.4129
33.8476	34.6146
37.1249	35.2701
40.0744	36.0348
