Adsorption isotherm of Hydrogen on MOF-177
DOI: 10.1039/C1ee01426a
Adsorbate Hydrogen: InChIKey UFHFLCQGNIYNRP-UHFFFAOYSA-N
Temperature: 110 K
Tabular data in the source: 0
pressure (bar)	uptake (g/g)
0.292192	0.000605
3.01115	0.00596536
6.5555	0.0114033
10.6339	0.0166081
15.2464	0.0204147
19.5191	0.023522
24.083	0.026241
27.6274	0.0277947
31.5116	0.029193
35.2016	0.0307467
37.6293	0.0312128
