Adsorption isotherm of Hydrogen on MOF-177
DOI: 10.1039/C1ee01426a
Adsorbate Hydrogen: InChIKey UFHFLCQGNIYNRP-UHFFFAOYSA-N
Temperature: 60 K
Tabular data in the source: 0
pressure (bar)	uptake (g/g)
1.36035	0.0288823
2.81693	0.0406903
4.56483	0.048148
6.74971	0.0530421
8.78892	0.0563049
11.5079	0.0590238
14.3239	0.0606552
16.9458	0.0615097
19.6162	0.0618981
22.4808	0.0615097
25.0055	0.0607329
27.9187	0.0601891
30.6377	0.0590238
33.3081	0.0580916
38.6489	0.0557611
41.5135	0.053819
