Adsorption isotherm of Hydrogen on MOF-177
DOI: 10.1039/C1ee01426a
Adsorbate Hydrogen: InChIKey UFHFLCQGNIYNRP-UHFFFAOYSA-N
Temperature: 77 K
Tabular data in the source: 0
pressure (bar)	uptake (g/g)
2.04009	0.0169965
4.17641	0.0253088
6.31273	0.0311351
8.64327	0.0354078
11.168	0.0391366
13.887	0.0420109
16.1204	0.0441084
18.6937	0.0461282
21.267	0.0476819
24.3744	0.0491579
27.4817	0.0500124
30.7833	0.0508669
33.8421	0.0514107
37.0952	0.0517215
