Adsorption isotherm of Hydrogen on MOF-177
DOI: 10.1039/C1ee01426a
Adsorbate Hydrogen: InChIKey UFHFLCQGNIYNRP-UHFFFAOYSA-N
Temperature: 55 K
Tabular data in the source: 0
pressure (bar)	uptake (g/g)
2.76838	0.0509446
5.00181	0.0580916
7.76932	0.0628303
10.6339	0.0654716
13.9355	0.0660931
17.2371	0.0660931
20.4416	0.0650055
23.8403	0.0637626
26.9477	0.0618981
30.1036	0.0593345
33.2595	0.0565379
36.1241	0.0536636
