Adsorption isotherm of Hydrogen on MOF-177
DOI: 10.1039/C1ee01426a
Adsorbate Hydrogen: InChIKey UFHFLCQGNIYNRP-UHFFFAOYSA-N
Temperature: 65 K
Tabular data in the source: 0
pressure (bar)	uptake (g/g)
0.729166	0.0162197
1.65167	0.024998
2.96259	0.0334656
6.26418	0.0444968
9.12879	0.0500901
13.3529	0.0546735
17.2857	0.0569263
22.4808	0.0581693
27.239	0.0579362
32.4341	0.056771
38.7945	0.054052
