Adsorption isotherm of Hydrogen on MOF-177
DOI: 10.1039/C1ee01426a
Adsorbate Hydrogen: InChIKey UFHFLCQGNIYNRP-UHFFFAOYSA-N
Temperature: 120 K
Tabular data in the source: 0
pressure (bar)	uptake (g/l)
0.0179892	0.0936194
1.29294	1.95076
4.13327	4.35412
7.9568	6.86673
11.9988	9.0516
16.2593	11.3457
20.5198	13.2029
24.7803	15.06
29.0408	16.3709
33.0829	18.0096
37.6711	19.102
