Adsorption isotherm of Hydrogen on MOF-177
DOI: 10.1039/C1ee01426a
Adsorbate Hydrogen: InChIKey UFHFLCQGNIYNRP-UHFFFAOYSA-N
Temperature: 110 K
Tabular data in the source: 0
pressure (bar)	uptake (g/g)
2.38537	0.00515625
4.67949	0.0115798
7.73831	0.0176974
11.3434	0.0232033
14.7299	0.0277915
18.5534	0.0329915
23.4694	0.0384974
28.1669	0.0440033
33.0829	0.0479798
37.6711	0.052568
