Adsorption isotherm of Hydrogen on MOF-177
DOI: 10.1039/C1ee01426a
Adsorbate Hydrogen: InChIKey UFHFLCQGNIYNRP-UHFFFAOYSA-N
Temperature: 50 K
Tabular data in the source: 0
pressure (bar)	uptake (g/g)
0.401172	0.0322814
1.34795	0.0499934
2.7317	0.0607139
4.55243	0.0671228
6.30033	0.0705021
7.9754	0.0725996
10.1603	0.0741144
12.855	0.0739979
15.1127	0.0736483
19.7737	0.0714343
24.5804	0.0677055
29.023	0.0631609
30.6253	0.0618791
37.2527	0.0539553
41.4768	0.0488282
