Adsorption isotherm of Hydrogen on MOF-177
DOI: 10.1039/C1ee01426a
Adsorbate Hydrogen: InChIKey UFHFLCQGNIYNRP-UHFFFAOYSA-N
Temperature: 110 K
Tabular data in the source: 0
pressure (bar)	uptake (g/l)
1.9484	2.82471
4.89798	5.5558
7.73831	8.17765
11.0156	10.581
14.5114	12.5474
18.5534	14.623
23.3602	16.6987
28.0576	18.7743
32.7551	20.3037
37.5618	22.1608
