Adsorption isotherm of Hydrogen on MOF-177
DOI: 10.1039/C1ee01426a
Adsorbate Hydrogen: InChIKey UFHFLCQGNIYNRP-UHFFFAOYSA-N
Temperature: 120 K
Tabular data in the source: 0
pressure (bar)	uptake (g/g)
0.146533	0.000294
4.46773	0.00720831
7.86642	0.0107818
12.0905	0.0145106
16.1204	0.0175403
20.4416	0.0197155
24.8113	0.0218907
29.2296	0.0238328
33.4052	0.0253088
37.6293	0.0267071
