Adsorption isotherm of Hydrogen on MOF-177
DOI: 10.1039/C1ee01426a
Adsorbate Hydrogen: InChIKey UFHFLCQGNIYNRP-UHFFFAOYSA-N
Temperature: 70 K
Tabular data in the source: 0
pressure (bar)	uptake (g/l)
0.637473	3.3959
1.83915	6.62952
3.80554	10.2127
5.99041	12.8346
8.06604	15.0194
12.8728	18.253
15.8223	20.1757
18.6627	21.3993
24.6711	23.5841
27.6207	24.8077
30.7887	25.769
33.6291	26.8178
39.5282	28.3909
