Adsorption isotherm of Hydrogen on MOF-177
DOI: 10.1039/C1ee01426a
Adsorbate Hydrogen: InChIKey UFHFLCQGNIYNRP-UHFFFAOYSA-N
Temperature: 50 K
Tabular data in the source: 0
pressure (bar)	uptake (g/g)
0.401172	0.0323979
1.34795	0.0499934
2.7317	0.0607139
4.62526	0.0668898
6.2275	0.0703856
8.12106	0.0724831
10.0874	0.0734153
12.4908	0.0739979
14.967	0.0736483
17.2975	0.0727161
19.6281	0.0714343
21.9586	0.0696864
24.2891	0.067822
26.4012	0.065841
28.647	0.0635295
32.774	0.0588684
41.2222	0.0491579
