Adsorption isotherm of Hydrogen on MOF-177
DOI: 10.1039/C1ee01426a
Adsorbate Hydrogen: InChIKey UFHFLCQGNIYNRP-UHFFFAOYSA-N
Temperature: 90 K
Tabular data in the source: 0
pressure (bar)	uptake (g/g)
1.72991	0.00936371
3.91478	0.0159183
7.62907	0.0242209
11.1249	0.0307755
15.1669	0.0362377
19.2089	0.0410444
23.2509	0.0447587
27.1837	0.0482545
31.4442	0.0506578
35.4862	0.0532797
