Adsorption isotherm of Hydrogen on MOF-177
DOI: 10.1039/C1ee01426a
Adsorbate Hydrogen: InChIKey UFHFLCQGNIYNRP-UHFFFAOYSA-N
Temperature: 70 K
Tabular data in the source: 0
pressure (bar)	uptake (g/g)
0.826272	0.0103934
3.0597	0.0273286
5.34168	0.0353301
8.06063	0.0411564
10.8281	0.0451183
13.5471	0.0476042
16.8487	0.0497794
20.1988	0.0511
23.5975	0.0524983
27.1904	0.0528091
31.366	0.0531975
35.056	0.0531198
42.6302	0.0514884
