Adsorption isotherm of Hydrogen on MOF-177
DOI: 10.1039/C1ee01426a
Adsorbate Hydrogen: InChIKey UFHFLCQGNIYNRP-UHFFFAOYSA-N
Temperature: 50 K
Tabular data in the source: 0
pressure (bar)	uptake (g/g)
0.243639	0.0204923
0.534955	0.0316012
0.826272	0.0384374
1.60312	0.0482257
2.71983	0.0551396
4.22496	0.0611213
6.02142	0.0653162
8.69182	0.0691228
12.2362	0.071531
15.6834	0.0716864
19.1307	0.0710649
22.1895	0.0691228
25.394	0.0665592
34.8132	0.0562272
40.9794	0.0494686
