Adsorption isotherm of Hydrogen on MOF-177
DOI: 10.1039/C1ee01426a
Adsorbate Hydrogen: InChIKey UFHFLCQGNIYNRP-UHFFFAOYSA-N
Temperature: 55 K
Tabular data in the source: 0
pressure (bar)	uptake (g/g)
2.87736	0.0508091
5.06224	0.0575676
7.10145	0.0618791
9.65047	0.0646758
11.8353	0.0666567
14.53	0.0670063
17.1519	0.0668898
19.7737	0.0666567
22.3227	0.0657245
24.8718	0.0643262
27.2751	0.0629279
29.8123	0.0613543
