Adsorption isotherm of Hydrogen on MOF-177
DOI: 10.1039/C1ee01426a
Adsorbate Hydrogen: InChIKey UFHFLCQGNIYNRP-UHFFFAOYSA-N
Temperature: 80 K
Tabular data in the source: 0
pressure (bar)	uptake (g/g)
1.40218	0.0115798
4.461	0.0259563
7.73831	0.0363563
10.9064	0.0443092
13.856	0.0504268
18.335	0.0565445
22.1585	0.062968
26.3097	0.0678621
30.461	0.0721445
34.503	0.0758151
38.545	0.0797915
