Adsorption isotherm of Hydrogen on MOF-177
DOI: 10.1039/C1ee01426a
Adsorbate Hydrogen: InChIKey UFHFLCQGNIYNRP-UHFFFAOYSA-N
Temperature: 55 K
Tabular data in the source: 0
pressure (bar)	uptake (g/g)
0.200498	0.0148259
1.18369	0.0388595
2.93159	0.0521872
5.11646	0.0611452
7.84756	0.0674814
10.7971	0.0714141
14.0744	0.0749099
17.1333	0.0770948
23.7971	0.0786242
29.9148	0.0790612
33.1921	0.0781872
36.3602	0.0779688
