Adsorption isotherm of Hydrogen on MOF-177
DOI: 10.1039/C1ee01426a
Adsorbate Hydrogen: InChIKey UFHFLCQGNIYNRP-UHFFFAOYSA-N
Temperature: 70 K
Tabular data in the source: 0
pressure (bar)	uptake (g/g)
0.746717	0.0102377
1.83915	0.0209435
3.6963	0.0312124
5.99041	0.0388595
8.17529	0.0449772
10.3602	0.0497839
15.7131	0.0578679
21.2845	0.0624561
24.5618	0.0648595
30.3518	0.0687923
33.5198	0.0705402
36.3602	0.0716326
38.982	0.0722881
