Adsorption isotherm of Hydrogen on MOF-177
DOI: 10.1039/C1ee01426a
Adsorbate Hydrogen: InChIKey UFHFLCQGNIYNRP-UHFFFAOYSA-N
Temperature: 80 K
Tabular data in the source: 0
pressure (bar)	uptake (g/g)
0.680614	0.00767442
2.1372	0.0148214
4.27352	0.023522
7.81787	0.0311351
11.7992	0.0372722
16.2175	0.0415448
21.5097	0.0446522
26.2194	0.0462836
31.7544	0.0475265
38.0662	0.0474488
