Adsorption isotherm of Hydrogen on MOF-177
DOI: 10.1039/C1ee01426a
Adsorbate Hydrogen: InChIKey UFHFLCQGNIYNRP-UHFFFAOYSA-N
Temperature: 90 K
Tabular data in the source: 0
pressure (bar)	uptake (g/g)
1.55456	0.00883968
3.9822	0.0158313
7.52655	0.0225121
11.0709	0.0278724
15.1979	0.0320673
19.0821	0.0352524
22.9178	0.0376606
27.3361	0.0393697
31.0746	0.0406126
35.3473	0.0420109
