Adsorption isotherm of Hydrogen on MOF-177
DOI: 10.1039/C1ee01426a
Adsorbate Hydrogen: InChIKey UFHFLCQGNIYNRP-UHFFFAOYSA-N
Temperature: 110 K
Tabular data in the source: 0
pressure (bar)	uptake (g/g)
2.04009	0.00511083
5.09891	0.0097719
7.76932	0.0133454
11.3137	0.0166858
14.7124	0.0195601
18.7422	0.0225121
23.549	0.0253088
28.0158	0.0276393
32.9682	0.0294261
37.6293	0.0314458
