Adsorption isotherm of Hydrogen on MOF-177
DOI: 10.1039/C1ee01426a
Adsorbate Hydrogen: InChIKey UFHFLCQGNIYNRP-UHFFFAOYSA-N
Temperature: 65 K
Tabular data in the source: 0
pressure (bar)	uptake (g/g)
0.534955	0.0166858
1.45746	0.0257749
2.57417	0.0330772
3.93365	0.0391366
6.02142	0.0455067
8.78892	0.0509446
13.013	0.055528
17.3342	0.0579362
21.3155	0.0588684
25.394	0.0590238
29.3753	0.058247
33.3081	0.0573924
40.1054	0.0531975
