Adsorption isotherm of Hydrogen on MOF-177
DOI: 10.1039/C1ee01426a
Adsorbate Hydrogen: InChIKey UFHFLCQGNIYNRP-UHFFFAOYSA-N
Temperature: 55 K
Tabular data in the source: 0
pressure (bar)	uptake (g/l)
0.200498	4.61943
1.18369	11.9606
3.04083	16.8547
5.22571	19.6514
7.9568	22.011
10.6879	24.1959
14.0744	25.5068
17.461	27.0799
20.6291	28.0413
24.0156	29.1774
27.1837	29.964
30.461	30.7505
33.3013	31.4497
36.5786	32.2362
