Adsorption isotherm of Hydrogen on MOF-177
DOI: 10.1039/C1ee01426a
Adsorbate Hydrogen: InChIKey UFHFLCQGNIYNRP-UHFFFAOYSA-N
Temperature: 70 K
Tabular data in the source: 0
pressure (bar)	uptake (g/g)
1.70022	0.0204147
3.59378	0.0299698
5.68155	0.03634
7.76932	0.0411564
10.1484	0.0449629
12.4789	0.0477596
15.4892	0.0502455
18.4509	0.0520322
21.3641	0.0528867
24.1316	0.053819
27.4332	0.0542074
30.3463	0.0548289
33.2471	0.0550041
39.3648	0.0544214
