Adsorption isotherm of Hydrogen on MOF-177
DOI: 10.1039/C1ee01426a
Adsorbate Hydrogen: InChIKey UFHFLCQGNIYNRP-UHFFFAOYSA-N
Temperature: 90 K
Tabular data in the source: 0
pressure (bar)	uptake (g/g)
0.583508	0.00316872
1.60312	0.00829589
3.25391	0.0138892
5.24457	0.0190163
7.72076	0.0238328
10.9738	0.0287269
14.9066	0.0331549
18.7908	0.0359515
23.3547	0.0385928
28.3071	0.0402242
31.7058	0.0412341
34.8132	0.0413118
