Adsorption isotherm of Hydrogen on MOF-177
DOI: 10.1039/C1ee01426a
Adsorbate Hydrogen: InChIKey UFHFLCQGNIYNRP-UHFFFAOYSA-N
Temperature: 100 K
Tabular data in the source: 0
pressure (bar)	uptake (g/g)
1.89443	0.00681989
4.32207	0.0123355
7.62366	0.0171519
11.4108	0.0214246
15.2464	0.0254641
19.0821	0.0281054
23.2576	0.0307467
26.9477	0.0326888
30.929	0.0344755
34.9103	0.0362623
39.1829	0.0371945
