Adsorption isotherm of Hydrogen on MOF-177
DOI: 10.1039/C1ee01426a
Adsorbate Hydrogen: InChIKey UFHFLCQGNIYNRP-UHFFFAOYSA-N
Temperature: 60 K
Tabular data in the source: 0
pressure (bar)	uptake (g/g)
1.21469	0.0289599
2.91404	0.0404572
4.71049	0.0479149
6.5555	0.0528867
8.78892	0.0565379
11.4108	0.0591015
14.3239	0.0608882
16.9458	0.061432
19.7133	0.0617428
22.4322	0.0613543
25.0541	0.0609659
27.8702	0.0603444
30.6862	0.0591015
