Adsorption isotherm of Hydrogen on MOF-177
DOI: 10.1039/C1ee01426a
Adsorbate Hydrogen: InChIKey UFHFLCQGNIYNRP-UHFFFAOYSA-N
Temperature: 80 K
Tabular data in the source: 0
pressure (bar)	uptake (g/l)
1.51142	3.57069
4.24252	7.76565
7.51983	10.9993
10.9064	13.5337
14.1837	15.5438
18.0072	17.5539
22.1585	19.3018
26.5282	20.8749
30.3518	22.0984
34.503	23.322
38.6543	24.7203
