Adsorption isotherm of Hydrogen on MOF-177
DOI: 10.1039/C1ee01426a
Adsorbate Hydrogen: InChIKey UFHFLCQGNIYNRP-UHFFFAOYSA-N
Temperature: 110 K
Tabular data in the source: 0
pressure (bar)	uptake (g/g)
1.11759	0.00223651
3.83654	0.00658683
6.06997	0.0097719
9.2259	0.0135784
13.1587	0.017385
18.4024	0.0215799
23.2576	0.0243766
28.0644	0.0265517
32.337	0.0281054
36.6097	0.0291153
