Adsorption isotherm of Hydrogen on MOF-177
DOI: 10.1039/C1ee01426a
Adsorbate Hydrogen: InChIKey UFHFLCQGNIYNRP-UHFFFAOYSA-N
Temperature: 70 K
Tabular data in the source: 0
pressure (bar)	uptake (g/l)
0.746717	5.77429
1.72991	11.3457
3.58705	16.8079
5.4442	20.6314
7.73831	23.7995
12.545	28.2785
18.335	31.9928
24.2341	34.6146
27.4022	35.4886
30.2425	36.4718
33.1921	37.3457
36.5786	37.8919
39.3097	38.5474
