Adsorption isotherm of Hydrogen on MOF-177
DOI: 10.1039/C1ee01426a
Adsorbate Hydrogen: InChIKey UFHFLCQGNIYNRP-UHFFFAOYSA-N
Temperature: 80 K
Tabular data in the source: 0
pressure (bar)	uptake (g/l)
1.18369	5.88354
3.91478	12.4382
7.19209	17.2449
10.4694	20.6314
14.0744	23.581
18.0072	26.3121
22.1585	28.1693
26.419	29.9171
30.3518	31.5558
34.3938	32.3205
38.3265	33.6314
