Adsorption isotherm of Hydrogen on MOF-177
DOI: 10.1039/C1ee01426a
Adsorbate Hydrogen: InChIKey UFHFLCQGNIYNRP-UHFFFAOYSA-N
Temperature: 80 K
Tabular data in the source: 0
pressure (bar)	uptake (g/g)
1.51142	0.0108931
4.24252	0.0231284
7.19209	0.0327419
10.5786	0.0397335
14.2929	0.0445402
18.0072	0.0493469
22.2677	0.0534982
26.0913	0.0554646
30.3518	0.0587419
34.2845	0.0615822
38.545	0.0633301
