Adsorption isotherm of Hydrogen on MOF-177
DOI: 10.1039/C1ee01426a
Adsorbate Hydrogen: InChIKey UFHFLCQGNIYNRP-UHFFFAOYSA-N
Temperature: 65 K
Tabular data in the source: 0
pressure (bar)	uptake (g/g)
0.965204	0.0159183
1.9484	0.0270612
3.6963	0.0373301
5.66268	0.0458511
9.81394	0.0559015
14.2929	0.0615822
20.0829	0.0674814
26.0913	0.0709772
31.8812	0.0733805
34.503	0.0742545
37.2341	0.0749099
40.1837	0.0757839
