Adsorption isotherm of Hydrogen on MOF-177
DOI: 10.1039/C1ee01426a
Adsorbate Hydrogen: InChIKey UFHFLCQGNIYNRP-UHFFFAOYSA-N
Temperature: 65 K
Tabular data in the source: 0
pressure (bar)	uptake (g/g)
0.680614	0.015909
1.70022	0.0265517
3.39957	0.0361846
5.43878	0.0432539
7.52655	0.0476819
9.75998	0.0510223
12.1391	0.0535859
14.4696	0.0556057
17.3342	0.0568486
20.1988	0.0575478
23.0149	0.0580916
25.7338	0.0580916
28.7441	0.0581693
31.7544	0.0575478
37.3379	0.0564602
40.2511	0.0551396
