Adsorption isotherm of Hydrogen on MOF-177
DOI: 10.1039/C1ee01426a
Adsorbate Hydrogen: InChIKey UFHFLCQGNIYNRP-UHFFFAOYSA-N
Temperature: 100 K
Tabular data in the source: 0
pressure (bar)	uptake (g/l)
1.51142	1.38582
3.91478	3.74548
6.53663	5.75557
9.04924	7.24128
11.9988	8.81439
14.6207	10.2127
17.5702	11.5236
23.1417	13.8833
28.6039	15.7186
31.6627	17.0295
34.8307	17.8161
37.3434	18.6026
40.4022	19.8262
