Adsorption isotherm of Hydrogen on MOF-177
DOI: 10.1039/C1ee01426a
Adsorbate Hydrogen: InChIKey UFHFLCQGNIYNRP-UHFFFAOYSA-N
Temperature: 90 K
Tabular data in the source: 0
pressure (bar)	uptake (g/g)
0.632061	0.00324641
1.99154	0.00969421
4.17641	0.0160643
7.04102	0.0225898
10.6825	0.0280277
14.3239	0.0319896
18.4024	0.0351747
22.3837	0.0377383
25.8795	0.039292
30.2007	0.0404572
35.1045	0.0411564
