Adsorption isotherm of Hydrogen on MOF-177
DOI: 10.1039/C1ee01426a
Adsorbate Hydrogen: InChIKey UFHFLCQGNIYNRP-UHFFFAOYSA-N
Temperature: 70 K
Tabular data in the source: 0
pressure (bar)	uptake (g/g)
0.328343	0.00711162
1.20229	0.0177155
2.07624	0.0248237
4.04263	0.0333301
6.59165	0.0409043
9.7233	0.0462646
13.3648	0.050343
17.7345	0.0531396
22.4684	0.0546545
26.3283	0.0552371
31.7905	0.0546545
37.1071	0.0536057
39.2919	0.0524405
