Adsorption isotherm of Hydrogen on MOF-177
DOI: 10.1039/C1ee01426a
Adsorbate Hydrogen: InChIKey UFHFLCQGNIYNRP-UHFFFAOYSA-N
Temperature: 80 K
Tabular data in the source: 0
pressure (bar)	uptake (g/g)
0.292192	0.0052662
1.26325	0.0110148
4.22496	0.0221237
7.18668	0.0298922
10.731	0.0354078
13.9355	0.039292
18.1111	0.0423217
22.0924	0.0448076
26.1223	0.0464389
30.1521	0.0476042
34.3277	0.048148
38.4061	0.0485364
