Adsorption isotherm of Hydrogen on MOF-177
DOI: 10.1039/C1ee01426a
Adsorbate Hydrogen: InChIKey UFHFLCQGNIYNRP-UHFFFAOYSA-N
Temperature: 50 K
Tabular data in the source: 0
pressure (bar)	uptake (g/g)
0.340744	0.0240658
0.826272	0.0347863
1.4089	0.0449629
2.52562	0.0533528
3.9822	0.0606552
6.11852	0.0668699
9.08024	0.0713756
12.576	0.0733177
16.2175	0.0730847
20.8786	0.0704434
24.5686	0.0671807
29.9579	0.0612767
33.8421	0.0557611
36.9981	0.0510223
40.7852	0.0455844
