Adsorption isotherm of Hydrogen on MOF-177
DOI: 10.1039/C1ee01426a
Adsorbate Hydrogen: InChIKey UFHFLCQGNIYNRP-UHFFFAOYSA-N
Temperature: 55 K
Tabular data in the source: 0
pressure (bar)	uptake (g/g)
1.18369	0.039721
3.04083	0.0547092
5.00722	0.0638857
7.73831	0.0724504
10.7971	0.0782621
13.9652	0.0831563
17.3518	0.0883562
20.5198	0.0923327
24.0156	0.0947798
26.856	0.0975327
30.2425	0.100286
33.4106	0.102427
36.4694	0.104568
