Adsorption isotherm of Hydrogen on MOF-177
DOI: 10.1039/C1ee01426a
Adsorbate Hydrogen: InChIKey UFHFLCQGNIYNRP-UHFFFAOYSA-N
Temperature: 120 K
Tabular data in the source: 0
pressure (bar)	uptake (g/g)
0.43785	0.000605
3.30246	0.00410093
6.79826	0.00845126
10.731	0.0126462
15.1008	0.016142
19.422	0.0187833
23.6946	0.0215799
28.7441	0.0238328
32.9196	0.0253865
37.6778	0.0267071
