Adsorption isotherm of Hydrogen on MOF-177
DOI: 10.1039/C1ee01426a
Adsorbate Hydrogen: InChIKey UFHFLCQGNIYNRP-UHFFFAOYSA-N
Temperature: 70 K
Tabular data in the source: 0
pressure (bar)	uptake (g/g)
0.746717	0.0106621
1.72991	0.0225915
3.58705	0.0336033
5.77193	0.0412504
8.06604	0.0488974
10.1417	0.0540974
12.7635	0.0599092
15.9316	0.065721
18.5534	0.0700033
21.503	0.0739798
27.6207	0.0810151
33.3013	0.0874386
36.2509	0.0895798
39.5282	0.0926386
