Adsorption isotherm of Hydrogen on MOF-177
DOI: 10.1039/C1ee01426a
Adsorbate Hydrogen: InChIKey UFHFLCQGNIYNRP-UHFFFAOYSA-N
Temperature: 77 K
Tabular data in the source: 0
pressure (bar)	uptake (g/g)
0.637473	0.0060739
2.38537	0.0192268
4.35176	0.0271798
6.53663	0.036968
8.50302	0.0427798
11.4526	0.0488974
13.856	0.0531798
16.1501	0.0571563
18.9904	0.0617445
21.3938	0.065721
24.4526	0.0693915
27.6207	0.0739798
31.0072	0.0767327
33.7383	0.0804033
37.2341	0.0831563
40.5114	0.0859092
