Adsorption isotherm of Hydrogen on MOF-177
DOI: 10.1039/C1ee01426a
Adsorbate Hydrogen: InChIKey UFHFLCQGNIYNRP-UHFFFAOYSA-N
Temperature: 90 K
Tabular data in the source: 0
pressure (bar)	uptake (g/g)
1.83915	0.00882684
4.02403	0.0176974
7.41058	0.0271798
11.3434	0.0354386
15.2761	0.042168
19.3181	0.0488974
23.3602	0.0537915
27.4022	0.057768
31.5534	0.0623563
35.0492	0.0666386
