Adsorption isotherm of Hydrogen on MOF-177
DOI: 10.1039/C1ee01426a
Adsorbate Hydrogen: InChIKey UFHFLCQGNIYNRP-UHFFFAOYSA-N
Temperature: 77 K
Tabular data in the source: 0
pressure (bar)	uptake (g/l)
0.200498	1.38582
2.38537	5.66817
4.35176	8.81439
6.53663	11.1741
8.83075	13.0093
11.3434	14.932
14.0744	16.4178
16.3686	17.6413
21.503	20.1757
27.8392	22.3606
31.1165	23.6715
34.1753	24.8951
37.5618	25.5068
40.6207	26.2934
