Adsorption isotherm of Hydrogen on MOF-177
DOI: 10.1039/C1ee01426a
Adsorbate Hydrogen: InChIKey UFHFLCQGNIYNRP-UHFFFAOYSA-N
Temperature: 50 K
Tabular data in the source: 0
pressure (bar)	uptake (g/g)
0.418986	0.029683
1.40218	0.0460696
2.93159	0.056994
4.67949	0.064641
6.42739	0.0701032
10.1417	0.0770948
15.0576	0.0819015
19.8644	0.0845234
24.3434	0.0856158
28.7131	0.0851788
32.8644	0.0838679
36.7971	0.0832125
39.3097	0.082557
41.6039	0.0827755
