Adsorption isotherm of Hydrogen on MOF-177
DOI: 10.1039/C1ee01426a
Adsorbate Hydrogen: InChIKey UFHFLCQGNIYNRP-UHFFFAOYSA-N
Temperature: 65 K
Tabular data in the source: 0
pressure (bar)	uptake (g/l)
0.85596	4.70683
1.83915	8.46481
3.58705	12.048
5.77193	14.8446
7.84756	16.6799
9.7047	18.6026
12.1081	20.2631
14.4022	21.4867
17.3518	22.7976
20.3013	24.1085
23.1417	24.9825
25.8728	26.1186
29.0408	27.0799
31.2257	27.7791
34.3938	28.653
37.7803	29.3522
40.5114	29.964
