Adsorption isotherm of Hydrogen on MOF-177
DOI: 10.1039/C1ee01426a
Adsorbate Hydrogen: InChIKey UFHFLCQGNIYNRP-UHFFFAOYSA-N
Temperature: 80 K
Tabular data in the source: 0
pressure (bar)	uptake (g/g)
1.06904	0.0097719
2.42851	0.0173073
4.12786	0.0238328
6.74971	0.0305136
9.71143	0.0360292
13.45	0.0405349
18.1111	0.0441084
22.4322	0.0462836
27.3846	0.0476042
31.4145	0.0480703
37.7749	0.0478373
