Adsorption isotherm of Hydrogen on MOF-177
DOI: 10.1039/C1ee01426a
Adsorbate Hydrogen: InChIKey UFHFLCQGNIYNRP-UHFFFAOYSA-N
Temperature: 50 K
Tabular data in the source: 0
pressure (bar)	uptake (g/l)
0.637473	9.07658
1.40218	14.3203
2.93159	18.3404
4.67949	20.9623
8.39378	24.5455
12.6543	27.3421
17.6795	29.7892
22.0492	31.7119
26.6375	33.1102
30.5702	34.2463
35.0492	35.3825
37.2341	35.8194
39.5282	36.606
41.3854	36.9556
