Adsorption isotherm of Hydrogen on MOF-177
DOI: 10.1039/C1ee01426a
Adsorbate Hydrogen: InChIKey UFHFLCQGNIYNRP-UHFFFAOYSA-N
Temperature: 90 K
Tabular data in the source: 0
pressure (bar)	uptake (g/g)
1.55456	0.00891737
3.93365	0.0157536
7.33234	0.0223568
11.2166	0.0278724
15.1008	0.0317566
18.9364	0.0351747
22.9663	0.0375829
27.1904	0.0396027
31.0261	0.040768
35.1531	0.0418556
