Adsorption isotherm of Hydrogen on MOF-177
DOI: 10.1039/C1ee01426a
Adsorbate Hydrogen: InChIKey UFHFLCQGNIYNRP-UHFFFAOYSA-N
Temperature: 55 K
Tabular data in the source: 0
pressure (bar)	uptake (g/l)
0.0912545	8.06841
1.07445	20.7407
2.82235	27.8415
5.11646	32.4298
7.73831	36.144
10.6879	38.1104
14.0744	39.6398
17.024	40.623
20.4106	41.1693
23.6879	41.6062
26.856	41.7155
29.9148	41.6062
32.7551	41.497
36.2509	41.1693
