Adsorption isotherm of Hydrogen on MOF-177
DOI: 10.1039/C1ee01426a
Adsorbate Hydrogen: InChIKey UFHFLCQGNIYNRP-UHFFFAOYSA-N
Temperature: 60 K
Tabular data in the source: 0
pressure (bar)	uptake (g/l)
1.29294	15.8247
2.7131	22.3793
4.67949	26.8583
6.64588	30.0264
8.61226	32.4298
11.3434	34.6146
14.0744	36.4718
19.6459	38.6566
25.2173	39.7491
30.461	40.4045
33.1921	40.623
35.9232	40.7323
38.4358	41.1693
