Adsorption isotherm of Dibenzothiophene on Dehydrated PCN-10
DOI: 10.1002/aic.15384
Article source: Figure 4
Adsorbate Dibenzothiophene: InChIKey IYYZUPMFVPLQIF-UHFFFAOYSA-N
Kind: experiment
Temperature: 303 K
Tabular data in the source: 0
pressure (bar)	uptake ()
1.01325	36.9868
1.01325	56.1205
1.01325	65.4614
1.01325	73.7476
1.01325	77.3635
