Adsorption isotherm of Dibenzothiophene on Hydrated PCN-10
DOI: 10.1002/aic.15384
Article source: Figure 4
Adsorbate Dibenzothiophene: InChIKey IYYZUPMFVPLQIF-UHFFFAOYSA-N
Kind: experiment
Temperature: 303 K
Tabular data in the source: 0
pressure (bar)	uptake ()
1.01325	5.64972
1.01325	17.8531
1.01325	25.838
1.01325	30.8098
1.01325	38.1168
