Adsorption isotherm of Carbon Dioxide on [Zn(Gly-Thr)2]*CH3OH
DOI: 10.1002/anie.201203929
Adsorbate Carbon Dioxide: InChIKey CURLTUGMZLYLDI-UHFFFAOYSA-N
Temperature: 298 K
Tabular data in the source: 0
pressure (bar)	uptake (wt%)
0.127495	0.324606
0.302285	0.980068
0.564469	1.76662
0.848503	2.53133
1.06699	3.03385
1.59136	4.06074
1.94094	4.62881
2.70565	5.63385
3.51405	6.4641
4.51909	7.16326
5.98296	7.99351
8.01489	8.75822
10.025	9.23889
