Adsorption isotherm of Carbon Dioxide on [Zn(Gly-Thr)2]*CH3OH
DOI: 10.1002/anie.201203929
Adsorbate Carbon Dioxide: InChIKey CURLTUGMZLYLDI-UHFFFAOYSA-N
Temperature: 273 K
Tabular data in the source: 0
pressure (bar)	uptake (wt%)
0.112524	0.507195
0.182946	1.2255
0.408298	2.5917
0.605481	3.66212
0.816749	4.56353
1.01393	5.19734
1.28154	6.05649
1.57731	6.64804
2.05619	7.28184
2.71816	8.04241
3.50689	8.5917
4.52097	9.07057
6.05619	9.60579
7.01393	9.76072
8.01393	10.0283
9.05619	10.2396
10.0421	10.4227
