Adsorption isotherm of Carbon Dioxide on [Zn(Gly-Thr)2]*CH3OH
DOI: 10.1002/anie.201203929
Adsorbate Carbon Dioxide: InChIKey CURLTUGMZLYLDI-UHFFFAOYSA-N
Temperature: 273 K
Tabular data in the source: 0
pressure (bar)	uptake (wt%)
0.105646	0.630489
0.21489	1.32965
0.345982	1.94141
0.498923	3.16494
0.717411	4.14814
0.914049	4.8473
1.19808	5.74309
1.48212	6.4641
1.98464	7.22881
2.50901	7.79688
2.96783	8.23385
3.99472	8.84561
4.97791	9.23889
7.05354	9.69772
8.99808	10.1128
9.95943	10.3313
