Adsorption isotherm of Carbon Dioxide on [Zn(Gly-Thr)2]*CH3OH
DOI: 10.1002/anie.201203929
Adsorbate Carbon Dioxide: InChIKey CURLTUGMZLYLDI-UHFFFAOYSA-N
Temperature: 273 K
Tabular data in the source: 0
pressure (bar)	uptake (wt%)
0.0702701	0.0564905
0.464636	0.098744
1.01393	0.169167
2.01393	0.225505
2.73224	0.310012
3.49281	0.338181
4.52097	0.380434
6.02802	0.464941
7.99985	0.535364
9.0421	0.591702
10.028	0.633955
