Adsorption isotherm of Carbon Dioxide on [Zn(Gly-Thr)2]*CH3OH
DOI: 10.1002/anie.201203929
Adsorbate Carbon Dioxide: InChIKey CURLTUGMZLYLDI-UHFFFAOYSA-N
Temperature: 195 K
Tabular data in the source: 0
pressure (bar)	uptake (wt%)
0.000865	3.11237
0.00229475	-0.377183
0.00229475	0.709726
0.00372489	1.79663
0.00515504	4.62832
0.00515504	6.01556
0.00944547	7.4886
0.0208866	8.33239
0.035188	9.01886
0.0595005	9.31919
0.102405	9.61952
0.15532	9.81974
0.198224	9.91985
0.304055	10.0629
0.45565	10.1773
0.548609	10.3203
0.704495	10.3918
0.804605	10.4347
0.95477	10.5634
1.00053	10.6206
