Adsorption isotherm of Methane on High-silica CHA zeolite
DOI: 10.1007/s10450-017-9894-1
Article source: Figure 7
Adsorbate Methane: InChIKey VNWKTOKETHGBQD-UHFFFAOYSA-N
Kind: experiment
Isotherm type: excess
Temperature: 353 K
Tabular data in the source: 0
pressure (bar)	uptake (mmol/g)
0.021146	0.004313
0.380623	0.054637
0.604767	0.081955
0.807766	0.110712
0.913495	0.123652
1.57747	0.224299
4.27989	0.519051
7.82814	0.792236
10.4925	0.957584
