Adsorption isotherm of Methane on High-silica CHA zeolite
DOI: 10.1007/s10450-017-9894-1
Article source: Figure 7
Adsorbate Methane: InChIKey VNWKTOKETHGBQD-UHFFFAOYSA-N
Kind: experiment
Isotherm type: excess
Temperature: 393 K
Tabular data in the source: 0
pressure (bar)	uptake (mmol/g)
0.008458	-0.001438
0.122645	0.010065
0.363706	0.028756
0.630142	0.040259
0.807766	0.053199
0.921953	0.061826
1.64937	0.122214
4.38985	0.304817
7.90004	0.501797
10.4671	0.586628
