Adsorption isotherm of Carbon Dioxide on High-silica CHA zeolite
DOI: 10.1007/s10450-017-9894-1
Article source: Figure 6
Adsorbate Carbon Dioxide: InChIKey CURLTUGMZLYLDI-UHFFFAOYSA-N
Kind: experiment
Isotherm type: excess
Temperature: 298 K
Tabular data in the source: 0
pressure (bar)	uptake (mmol/g)
0.008264	0.030612
0.053719	0.209913
0.181818	0.555394
0.363636	0.975219
0.553719	1.34257
0.719008	1.61808
1.22314	2.36152
3.71901	3.8484
7.49587	4.67055
10.281	5.01604
