Adsorption isotherm of Carbon Dioxide on High-silica CHA zeolite
DOI: 10.1007/s10450-017-9894-1
Article source: Figure 6
Adsorbate Carbon Dioxide: InChIKey CURLTUGMZLYLDI-UHFFFAOYSA-N
Kind: experiment
Isotherm type: excess
Temperature: 353 K
Tabular data in the source: 0
pressure (bar)	uptake (mmol/g)
0.008264	0.030612
0.322314	0.218659
0.524793	0.332362
0.72314	0.437318
0.871901	0.489796
1.46281	0.795918
4.06198	1.60933
7.59091	2.24781
10.3264	2.58017
