Adsorption isotherm of Carbon Dioxide on CHA Zeolite
DOI: 10.1007/s10450-017-9894-1
Article source: Figure 5
Adsorbate Carbon Dioxide: InChIKey CURLTUGMZLYLDI-UHFFFAOYSA-N
Kind: experiment
Isotherm type: excess
Temperature: 298 K
Tabular data in the source: 0
pressure (bar)	uptake (mmol/g)
0	0.000513
0.161392	0.135484
0.36788	0.27456
0.642405	0.445968
0.79193	0.527566
0.905459	0.581452
