Adsorption isotherm of Methane on High-silica CHA zeolite
DOI: 10.1007/s10450-017-9894-1
Article source: Figure 7
Adsorbate Methane: InChIKey VNWKTOKETHGBQD-UHFFFAOYSA-N
Kind: experiment
Isotherm type: excess
Temperature: 298 K
Tabular data in the source: 0
pressure (bar)	uptake (mmol/g)
0.029604	0.005751
0.122645	0.060388
0.325644	0.168224
0.528643	0.260244
0.748558	0.353702
0.862745	0.412653
1.49289	0.65133
4.12341	1.23652
7.72664	1.62761
10.3741	1.84903
