Adsorption isotherm of Methane on High-silica CHA zeolite
DOI: 10.1007/s10450-017-9894-1
Article source: Figure 7
Adsorbate Methane: InChIKey VNWKTOKETHGBQD-UHFFFAOYSA-N
Kind: experiment
Isotherm type: excess
Temperature: 323 K
Tabular data in the source: 0
pressure (bar)	uptake (mmol/g)
0.033833	0.002876
0.367935	0.103523
0.562476	0.155284
0.752787	0.199856
0.892349	0.241553
1.53518	0.418404
4.21223	0.852624
7.46867	1.25809
10.3403	1.47664
