Adsorption isotherm of Carbon Dioxide on High-silica CHA zeolite
DOI: 10.1007/s10450-017-9894-1
Article source: Figure 6
Adsorbate Carbon Dioxide: InChIKey CURLTUGMZLYLDI-UHFFFAOYSA-N
Kind: experiment
Isotherm type: excess
Temperature: 393 K
Tabular data in the source: 0
pressure (bar)	uptake (mmol/g)
0.012397	0.021866
0.14876	0.069971
0.347107	0.126822
0.603306	0.19242
0.789256	0.258017
0.913223	0.293003
1.54545	0.459184
4.16116	0.962099
7.7562	1.41691
10.3471	1.5656
