Adsorption isotherm of Carbon Dioxide on High-silica CHA zeolite
DOI: 10.1007/s10450-017-9894-1
Article source: Figure 6
Adsorbate Carbon Dioxide: InChIKey CURLTUGMZLYLDI-UHFFFAOYSA-N
Kind: experiment
Isotherm type: excess
Temperature: 323 K
Tabular data in the source: 0
pressure (bar)	uptake (mmol/g)
0.004132	0.017493
0.264463	0.397959
0.475207	0.651603
0.677686	0.835277
0.822314	0.962099
1.36364	1.41254
3.90083	2.58017
7.55785	3.40233
10.4298	3.76093
