Adsorption isotherm of Methane on COF-102
DOI: 10.1021/La9020383
Adsorbate Methane: InChIKey VNWKTOKETHGBQD-UHFFFAOYSA-N
Temperature: 243 K
Tabular data in the source: 0
pressure (bar)	uptake (wt%)
1.49813	1.29354
2.62172	5.16693
4.49438	9.47203
7.49064	14.4247
9.73783	19.1607
12.3596	21.3169
15.3558	23.904
20.2247	27.3553
30.3371	30.6029
40.4494	31.9149
49.8127	32.7953
60.2996	33.463
69.6629	33.9133
79.7753	34.1501
90.2622	34.6027
100	34.8387
