Adsorption isotherm of Methane on Li-doped COF-105
DOI: 10.1021/La9020383
Adsorbate Methane: InChIKey VNWKTOKETHGBQD-UHFFFAOYSA-N
Temperature: 243 K
Tabular data in the source: 0
pressure (bar)	uptake (wt%)
1.30435	23.7838
5.65217	29.1892
10.4348	33.5135
20.4348	38.9189
30.4348	42.973
40	45.6757
50	47.5676
60	48.3784
70.4348	48.3784
80.4348	48.1081
90	47.2973
100	45.9459
