Adsorption isotherm of Methane on Li-doped COF-105
DOI: 10.1021/La9020383
Adsorbate Methane: InChIKey VNWKTOKETHGBQD-UHFFFAOYSA-N
Temperature: 243 K
Tabular data in the source: 0
pressure (bar)	uptake (wt%)
1.28755	23.8393
5.15021	30.5357
10.7296	35.3571
20.1717	42.0536
30.4721	47.1429
40.3433	50.625
50.6438	53.5714
60.515	55.4464
70.8155	56.7857
80.6867	57.5893
90.5579	58.6607
100.858	58.9286
