Adsorption isotherm of Methane on COF-108
DOI: 10.1021/La9020383
Adsorbate Methane: InChIKey VNWKTOKETHGBQD-UHFFFAOYSA-N
Temperature: 298 K
Tabular data in the source: 0
pressure (bar)	uptake (wt%)
1.13208	1.25696
4.5283	4.84797
10.1887	8.97448
20	15.7914
29.8113	21.709
40	26.3669
49.8113	30.486
60	33.705
70.1887	36.5644
80	39.2446
89.8113	41.0255
100	42.9856
