Adsorption isotherm of Methane on COF-103
DOI: 10.1021/La9020383
Adsorbate Methane: InChIKey VNWKTOKETHGBQD-UHFFFAOYSA-N
Temperature: 298 K
Tabular data in the source: 0
pressure (bar)	uptake (wt%)
1.11524	1.61826
9.29368	5.85062
19.7026	11.0788
30.1115	15.0622
39.777	18.0498
50.1859	19.917
59.8513	21.0373
69.8885	21.7842
80.6691	22.0332
90.7063	22.1577
100.372	22.1577
