Adsorption isotherm of Methane on COF-103
DOI: 10.1021/La9020383
Adsorbate Methane: InChIKey VNWKTOKETHGBQD-UHFFFAOYSA-N
Temperature: 243 K
Tabular data in the source: 0
pressure (bar)	uptake (wt%)
1.1194	1.50538
5.22388	7.74194
7.83582	12.2581
10.0746	15.4839
14.9254	20
20.1493	24.9462
30.2239	27.957
40.6716	29.0323
50.3731	29.2473
60.0746	28.8172
69.7761	28.3871
79.8507	27.3118
90.2985	26.4516
99.6269	25.1613
