Adsorption isotherm of Methane on COF-103
DOI: 10.1021/La9020383
Adsorbate Methane: InChIKey VNWKTOKETHGBQD-UHFFFAOYSA-N
Temperature: 243 K
Tabular data in the source: 0
pressure (bar)	uptake (wt%)
1.1236	1.50779
2.62172	5.38198
5.24345	8.39837
7.86517	12.9201
10.1124	16.3658
13.4831	20.029
16.1049	22.6153
19.8502	26.9244
29.9625	30.6021
40.0749	32.5593
49.8127	33.4405
59.9251	34.3224
69.6629	34.9885
79.7753	35.2253
89.8876	35.6772
100	36.129
