Adsorption isotherm of Methane on COF-105
DOI: 10.1021/La9020383
Adsorbate Methane: InChIKey VNWKTOKETHGBQD-UHFFFAOYSA-N
Temperature: 243 K
Tabular data in the source: 0
pressure (bar)	uptake (wt%)
0.749064	1.50699
4.86891	7.96746
9.73783	14.6446
30.3371	33.6136
39.7004	39.8703
50.1873	44.6241
60.2996	48.0867
70.0375	50.4732
80.5243	52.4312
90.2622	53.5274
100	54.6237
