Adsorption isotherm of Methane on COF-108
DOI: 10.1021/La9020383
Adsorbate Methane: InChIKey VNWKTOKETHGBQD-UHFFFAOYSA-N
Temperature: 243 K
Tabular data in the source: 0
pressure (bar)	uptake (wt%)
1.49813	1.93871
4.86891	9.04273
9.73783	16.365
20.2247	27.3553
29.9625	34.9031
40.0749	40.3012
49.8127	44.4082
60.2996	48.0867
70.0375	50.4732
80.1498	52.2154
90.2622	53.7425
100.375	55.0546
