Adsorption isotherm of Methane on Li-doped COF-103
DOI: 10.1021/La9020383
Adsorbate Methane: InChIKey VNWKTOKETHGBQD-UHFFFAOYSA-N
Temperature: 243 K
Tabular data in the source: 0
pressure (bar)	uptake (wt%)
1.30435	28.9189
5.21739	35.4054
10.4348	37.027
20.4348	38.3784
30.4348	38.3784
40.4348	38.6486
49.5652	38.3784
60.4348	37.8378
70	37.2973
80	36.2162
90	35.4054
100.435	34.5946
