Adsorption isotherm of Methane on Li-doped COF-102
DOI: 10.1021/La9020383
Adsorbate Methane: InChIKey VNWKTOKETHGBQD-UHFFFAOYSA-N
Temperature: 243 K
Tabular data in the source: 0
pressure (bar)	uptake (wt%)
1.73913	28.1081
5.65217	35.1351
10	36.4865
20	37.2973
30.4348	37.2973
40	37.027
50	36.4865
60	35.1351
70	34.0541
80.4348	32.7027
90.4348	31.6216
100	30.8108
