Adsorption isotherm of Methane on Li-doped COF-108
DOI: 10.1021/La9020383
Adsorbate Methane: InChIKey VNWKTOKETHGBQD-UHFFFAOYSA-N
Temperature: 298 K
Tabular data in the source: 0
pressure (bar)	uptake (wt%)
0.877193	15.6682
4.82456	22.1198
10.0877	26.0369
19.7368	32.0276
30.2632	35.9447
39.9123	38.9401
50	41.4747
59.6491	43.7788
69.7368	45.3917
79.8246	46.7742
89.4737	48.1567
99.5614	49.0783
