Adsorption isotherm of Methane on COF-108
DOI: 10.1021/La9020383
Adsorbate Methane: InChIKey VNWKTOKETHGBQD-UHFFFAOYSA-N
Temperature: 298 K
Tabular data in the source: 0
pressure (bar)	uptake (wt%)
1.48699	1.24481
10.0372	5.9751
20.0743	10.5809
29.7398	14.4398
40.1487	17.8008
49.8141	20.2905
59.8513	22.2822
69.8885	23.9004
80.6691	25.1452
90.3346	25.8921
100	26.5145
