Adsorption isotherm of Methane on Li-doped COF-103
DOI: 10.1021/La9020383
Adsorbate Methane: InChIKey VNWKTOKETHGBQD-UHFFFAOYSA-N
Temperature: 298 K
Tabular data in the source: 0
pressure (bar)	uptake (wt%)
0.877193	20.5069
4.82456	25.576
9.21053	28.341
19.2982	31.106
30.2632	32.4885
39.4737	33.1797
50.4386	34.1014
60.0877	34.5622
69.7368	34.7926
79.8246	35.023
89.9123	35.2535
100	35.7143
