Adsorption isotherm of Methane on COF-102
DOI: 10.1021/La9020383
Adsorbate Methane: InChIKey VNWKTOKETHGBQD-UHFFFAOYSA-N
Temperature: 298 K
Tabular data in the source: 0
pressure (bar)	uptake (wt%)
0.743494	1.61826
4.83271	3.23651
10.0372	6.34855
14.8699	9.3361
20.0743	12.3237
24.5353	14.1909
30.1115	16.4315
34.5725	17.8008
40.1487	19.0456
49.8141	20.5394
59.8513	21.5353
69.8885	22.1577
80.2974	22.4066
90.7063	22.4066
100	22.2822
