Adsorption isotherm of Methane on Li-doped COF-103
DOI: 10.1021/La9020383
Adsorbate Methane: InChIKey VNWKTOKETHGBQD-UHFFFAOYSA-N
Temperature: 243 K
Tabular data in the source: 0
pressure (bar)	uptake (wt%)
1.28755	29.4643
5.15021	35.3571
10.3004	37.5
20.6009	39.6429
30.9013	40.1786
40.7725	41.25
50.6438	41.5179
60.515	41.7857
70.8155	42.0536
81.1159	42.3214
90.5579	42.5893
100.429	42.5893
