Adsorption isotherm of Methane on Li-doped COF-108
DOI: 10.1021/La9020383
Adsorbate Methane: InChIKey VNWKTOKETHGBQD-UHFFFAOYSA-N
Temperature: 243 K
Tabular data in the source: 0
pressure (bar)	uptake (wt%)
0.869565	22.1622
5.21739	30.2703
10.4348	34.5946
20.4348	39.7297
30.4348	42.7027
40	45.1351
50	46.7568
60	47.8378
70	47.8378
80.4348	47.5676
90	46.7568
99.5652	45.6757
