Adsorption isotherm of Methane on COF-105
DOI: 10.1021/La9020383
Adsorbate Methane: InChIKey VNWKTOKETHGBQD-UHFFFAOYSA-N
Temperature: 243 K
Tabular data in the source: 0
pressure (bar)	uptake (wt%)
0.746269	1.50538
5.22388	6.66667
10.0746	11.828
20.1493	20.8602
29.8507	27.5269
39.9254	32.4731
50	35.914
60.0746	38.2796
70.1493	39.1398
79.8507	39.3548
89.9254	38.7097
100	37.6344
