Adsorption isotherm of Methane on COF-102
DOI: 10.1021/La9020383
Adsorbate Methane: InChIKey VNWKTOKETHGBQD-UHFFFAOYSA-N
Temperature: 243 K
Tabular data in the source: 0
pressure (bar)	uptake (wt%)
1.1194	1.50538
5.59701	7.74194
7.46269	11.1828
10.0746	15.4839
13.0597	18.4946
16.0448	20.8602
20.1493	24.9462
24.6269	26.2366
30.2239	27.7419
35.0746	28.6022
39.9254	28.8172
50	29.0323
60.4478	28.3871
69.7761	27.957
75	27.5269
79.8507	27.0968
85.0746	26.6667
90.2985	26.0215
95.1493	25.1613
100.373	24.7312
