Adsorption isotherm of Methane on Li-doped COF-105
DOI: 10.1021/La9020383
Adsorbate Methane: InChIKey VNWKTOKETHGBQD-UHFFFAOYSA-N
Temperature: 298 K
Tabular data in the source: 0
pressure (bar)	uptake (wt%)
0.877193	16.5899
4.82456	23.0415
9.64912	26.7281
19.7368	32.0276
29.8246	35.4839
39.9123	38.7097
49.5614	41.0138
59.6491	43.318
70.1754	45.1613
79.8246	46.7742
89.9123	47.9263
100	49.0783
