Adsorption isotherm of Methane on Li-doped COF-108
DOI: 10.1021/La9020383
Adsorbate Methane: InChIKey VNWKTOKETHGBQD-UHFFFAOYSA-N
Temperature: 298 K
Tabular data in the source: 0
pressure (bar)	uptake (wt%)
0.688902	14.6119
5.14791	21.0046
9.9861	24.2009
20.0615	28.5388
30.9827	31.5068
40.5757	33.105
50.6075	34.9315
60.6234	35.8447
70.6353	36.5297
80.6472	37.2146
91.0899	37.6712
100.659	37.8995
