Adsorption isotherm of Methane on COF-105
DOI: 10.1021/La9020383
Adsorbate Methane: InChIKey VNWKTOKETHGBQD-UHFFFAOYSA-N
Temperature: 298 K
Tabular data in the source: 0
pressure (bar)	uptake (wt%)
1.11524	0.995851
5.20446	3.11203
9.66543	5.3527
20.4461	9.83402
29.7398	13.6929
39.777	16.9295
50.1859	19.4191
60.223	21.7842
69.8885	23.6515
80.6691	24.7718
90.3346	25.8921
100.372	26.5145
