Adsorption isotherm of Methane on Li-doped COF-102
DOI: 10.1021/La9020383
Adsorbate Methane: InChIKey VNWKTOKETHGBQD-UHFFFAOYSA-N
Temperature: 298 K
Tabular data in the source: 0
pressure (bar)	uptake (wt%)
0.438596	21.659
4.82456	26.2673
9.64912	28.5714
19.2982	31.5668
29.386	32.7189
39.9123	33.4101
50	34.1014
59.6491	34.3318
70.1754	34.7926
79.8246	35.023
90.3509	35.2535
100	35.4839
