Adsorption isotherm of Methane on Li-doped COF-103
DOI: 10.1021/La9020383
Adsorbate Methane: InChIKey VNWKTOKETHGBQD-UHFFFAOYSA-N
Temperature: 298 K
Tabular data in the source: 0
pressure (bar)	uptake (wt%)
0.357356	20.5479
5.21938	25.1142
9.61485	27.8539
20.0854	29.9087
30.536	30.8219
40.9788	31.2785
50.544	31.2785
60.544	31.2785
70.544	31.2785
80.9708	30.8219
90.9668	30.5936
100.528	30.3653
