Adsorption isotherm of Methane on COF-103
DOI: 10.1021/La9020383
Adsorbate Methane: InChIKey VNWKTOKETHGBQD-UHFFFAOYSA-N
Temperature: 298 K
Tabular data in the source: 0
pressure (bar)	uptake (wt%)
1.13208	0.897244
4.90566	3.5883
9.81132	6.81689
19.6226	12.9143
30.1887	17.9313
40	21.3309
50.1887	23.8306
60	25.6115
69.8113	27.0327
80.3774	28.4526
89.8113	29.155
100	30.036
