Adsorption isotherm of Methane on COF-108
DOI: 10.1021/La9020383
Adsorbate Methane: InChIKey VNWKTOKETHGBQD-UHFFFAOYSA-N
Temperature: 243 K
Tabular data in the source: 0
pressure (bar)	uptake (wt%)
0.759803	1.72043
2.6526	4.94624
4.9159	7.52688
7.55507	10.3226
10.1942	13.1183
13.2106	16.3441
16.9734	19.1398
19.9871	21.9355
23.7485	24.5161
30.1384	28.172
39.9044	32.6882
50.4088	35.4839
60.1587	37.4194
70.2764	38.2796
80.3901	38.4946
90.1252	38.0645
100.231	36.9892
