Adsorption isotherm of Methane on COF-105
DOI: 10.1021/La9020383
Adsorbate Methane: InChIKey VNWKTOKETHGBQD-UHFFFAOYSA-N
Temperature: 298 K
Tabular data in the source: 0
pressure (bar)	uptake (wt%)
1.13208	1.25696
4.5283	4.84797
10.1887	8.25506
20	15.2518
29.8113	20.8097
40	25.4676
49.8113	29.7665
59.6226	32.9863
70.1887	36.2047
80	38.3453
89.8113	40.6658
100	42.2662
