Adsorption isotherm of Methane on Li-doped COF-102
DOI: 10.1021/La9020383
Adsorbate Methane: InChIKey VNWKTOKETHGBQD-UHFFFAOYSA-N
Temperature: 298 K
Tabular data in the source: 0
pressure (bar)	uptake (wt%)
1.2428	21.4612
5.22732	25.5708
10.0536	28.0822
20.0933	30.3653
30.5479	31.5068
40.9827	31.5068
50.5479	31.5068
60.5479	31.5068
70.544	31.2785
80.54	31.0502
90.536	30.8219
100.528	30.3653
