Adsorption isotherm of Methane on Li-doped COF-108
DOI: 10.1021/La9020383
Adsorbate Methane: InChIKey VNWKTOKETHGBQD-UHFFFAOYSA-N
Temperature: 243 K
Tabular data in the source: 0
pressure (bar)	uptake (wt%)
1.71674	22.5
5.5794	31.0714
10.3004	36.4286
20.6009	42.5893
30.4721	47.1429
40.3433	50.3571
50.6438	53.0357
60.515	54.6429
70.3863	56.25
80.6867	57.5893
90.9871	58.3929
100.858	59.1964
