Adsorption isotherm of Methane on COF-102
DOI: 10.1021/La9020383
Adsorbate Methane: InChIKey VNWKTOKETHGBQD-UHFFFAOYSA-N
Temperature: 298 K
Tabular data in the source: 0
pressure (bar)	uptake (wt%)
0.754717	1.43749
5.28302	3.94733
9.81132	7.35645
20	14.3525
29.8113	18.4716
40	22.0504
50.1887	24.1903
60	25.7914
70.1887	27.032
79.6226	27.9143
89.8113	28.6154
100	29.3165
