Adsorption isotherm of Methane on Li-doped COF-105
DOI: 10.1021/La9020383
Adsorbate Methane: InChIKey VNWKTOKETHGBQD-UHFFFAOYSA-N
Temperature: 298 K
Tabular data in the source: 0
pressure (bar)	uptake (wt%)
0.720667	16.4384
5.16776	22.1461
9.99801	24.8858
20.4963	28.5388
30.1052	31.0502
41.0145	33.3333
50.6075	34.9315
60.6313	36.3014
70.6432	36.9863
80.6552	37.6712
90.6591	37.8995
100.663	38.1279
