Adsorption isotherm of Methane on Li-doped COF-102
DOI: 10.1021/La9020383
Adsorbate Methane: InChIKey VNWKTOKETHGBQD-UHFFFAOYSA-N
Temperature: 243 K
Tabular data in the source: 0
pressure (bar)	uptake (wt%)
1.71674	28.125
5.15021	35.0893
10.3004	36.6964
20.6009	38.5714
30.4721	39.375
40.7725	39.375
51.073	39.9107
60.0858	39.375
70.3863	38.8393
80.6867	39.1071
90.9871	38.8393
100.429	39.1071
