Adsorption isotherm of Nitrogen on Oil Fly Ash
DOI: 10.1016/j.apsusc.2012.11.109
Adsorbate Nitrogen: InChIKey IJGRMHOSHXDMSA-UHFFFAOYSA-N
Temperature: 77 K
Tabular data in the source: 0
pressure (bar)	uptake (cm3(STP)/g)
0.00311061	1.0373
0.0353128	1.50577
0.079379	1.50577
0.150563	1.85712
0.269202	1.97424
0.353945	2.09136
0.460721	2.55983
0.542074	2.55983
0.626816	2.91118
0.699695	3.37965
0.797996	3.731
0.850537	4.66793
0.899687	5.37064
0.936974	6.65893
0.964092	8.18145
0.98443	10.758
0.994599	13.4517
1.00477	17.7851
