Adsorption isotherm of Nitrogen on Oil Fly Ash
DOI: 10.1016/j.apsusc.2012.11.109
Adsorbate Nitrogen: InChIKey IJGRMHOSHXDMSA-UHFFFAOYSA-N
Temperature: 77 K
Tabular data in the source: 0
pressure (bar)	uptake (cm3(STP)/g)
0.00141576	14.4842
0.0183643	17.9977
0.0641253	19.0016
0.123445	18.4996
0.191239	17.9977
0.222909	17.8545
0.314785	17.3411
0.425728	15.5443
0.528005	14.5175
0.578276	14.5175
0.630281	14.7742
0.667551	14.5175
0.736024	17.0844
0.811431	21.7048
0.860836	29.6621
0.903085	39.4818
0.938189	57.5782
0.962891	79.14
0.987593	123.419
0.994094	163.077
1.0058	222.372
