Adsorption isotherm of Nitrogen on CuBTC
DOI: 10.1039/c5ra02440d
Article source: Figure 5
Adsorbate Nitrogen: InChIKey IJGRMHOSHXDMSA-UHFFFAOYSA-N
Kind: experiment
Temperature: 77 K
Tabular data in the source: 0
pressure (bar)	uptake (cm3(STP)/g)
0.008096	200.234
0.02984	206.395
0.066104	210.737
0.080351	211.757
0.100342	212.879
0.121104	213.924
0.141237	215.096
0.141308	215.093
0.161228	215.425
0.182203	216.188
0.182274	216.179
0.201698	216.619
0.232703	215.717
0.251367	217.556
0.283416	216.526
0.302496	218.108
0.33493	216.913
0.353047	218.521
0.384863	217.064
0.403334	218.801
0.436295	217.408
0.453794	219.08
0.487647	217.655
0.504082	219.328
0.538198	218.934
0.555251	219.221
0.589063	219.34
0.625135	219.414
0.641063	218.923
0.657761	219.407
0.710977	219.544
0.726602	219.711
0.758722	219.653
0.762653	219.806
0.812343	220.33
0.826842	221.068
0.835678	221.163
0.843105	221.097
0.859094	221.158
0.867849	221.221
0.885702	221.797
0.893737	221.893
0.911155	222.211
0.918927	222.274
0.935189	223.077
0.947125	223.751
0.962233	224.361
0.986358	226.895
0.994039	227.218
1.00261	227.907
1.00841	228.677
