Adsorption isotherm of Nitrogen on CuBTC
DOI: 10.1039/c5ra02440d
Article source: Figure 5
Adsorbate Nitrogen: InChIKey IJGRMHOSHXDMSA-UHFFFAOYSA-N
Kind: experiment
Temperature: 77 K
Tabular data in the source: 0
pressure (bar)	uptake (cm3(STP)/g)
0.009018	133.04
0.031958	135.622
0.067797	137.256
0.080634	137.92
0.10097	138.583
0.121874	138.99
0.141156	143.261
0.143405	139.396
0.161846	139.727
0.18275	140.338
0.202387	140.996
0.203795	140.822
0.252259	144.786
0.253525	144.783
0.302131	141.987
0.30437	142.152
0.353401	145.587
0.355083	145.666
0.403618	143.305
0.406009	143.482
0.454058	143.862
0.456996	146.523
0.50469	144.597
0.507922	147.131
0.554987	145.129
0.559192	147.585
0.605214	145.707
0.609895	147.931
0.656373	146.442
0.660528	148.376
0.707725	147.177
0.711605	149.24
0.758093	148.17
0.762248	149.847
0.807398	148.874
0.811552	149.136
0.830115	149.419
0.837796	151.514
0.860158	150.318
0.867757	152.026
0.884354	151.127
0.894457	152.764
0.910172	152.403
0.921115	153.682
0.93528	153.526
0.946224	155.163
0.960389	155.161
0.97119	157.259
0.985072	158.281
0.990685	160.276
1.00415	163.499
1.0085	166.621
