Adsorption isotherm of Nitrogen on CuBTC
DOI: 10.1039/c5ra02440d
Article source: Figure 5
Adsorbate Nitrogen: InChIKey IJGRMHOSHXDMSA-UHFFFAOYSA-N
Kind: experiment
Temperature: 77 K
Tabular data in the source: 0
pressure (bar)	uptake (cm3(STP)/g)
0.009687	261.504
0.028543	267.751
0.063318	273.819
0.081769	276.098
0.102379	277.557
0.1216	278.915
0.141794	280.041
0.162556	281.04
0.181554	281.706
0.202528	282.705
0.252036	284.242
0.303023	285.278
0.336196	285.685
0.354455	286.214
0.403324	287.069
0.408218	286.825
0.453308	287.517
0.457432	287.111
0.503849	288.087
0.508641	288.738
0.555727	288.251
0.560074	289.226
0.605711	288.496
0.609835	289.797
0.641448	290.041
0.65614	288.457
0.692384	290.013
0.706063	288.836
0.75704	289.093
0.762582	290.066
0.808492	289.364
0.812475	289.628
0.829528	289.204
0.837482	291.236
0.85877	289.43
0.864069	291.849
0.883868	290.463
0.88784	292.656
0.909139	291.27
0.912847	294.85
0.921683	296.301
0.936527	292.851
0.948007	298.108
0.960733	294.787
0.972132	299.98
0.983764	298.827
0.988537	303.153
0.993512	300.542
1.00277	303.358
1.00746	305.432
