Adsorption isotherm of Nitrogen on CuBTC
DOI: 10.1039/c5ra02440d
Article source: Figure 5
Adsorbate Nitrogen: InChIKey IJGRMHOSHXDMSA-UHFFFAOYSA-N
Kind: experiment
Temperature: 77 K
Tabular data in the source: 0
pressure (bar)	uptake (cm3(STP)/g)
0.009281	231.665
0.030387	238.034
0.066783	243.431
0.082489	244.659
0.102338	246.116
0.12309	247.215
0.140832	250.796
0.142726	248.417
0.163488	249.03
0.183895	250.001
0.202691	251.228
0.251995	252.454
0.303397	253.526
0.336754	254.479
0.353685	253.666
0.404003	254.435
0.405675	254.534
0.453652	254.798
0.458334	255.773
0.504447	255.367
0.509827	259.686
0.555606	255.509
0.559172	262.135
0.605123	255.506
0.609885	262.261
0.655482	256.041
0.660102	262.284
0.692293	262.487
0.706539	256.064
0.757597	256.448
0.761701	262.5
0.792321	262.701
0.806577	256.365
0.818706	263.269
0.829517	256.81
0.842983	262.78
0.859135	257.134
0.869146	262.941
0.885408	257.457
0.894527	263.062
0.910679	257.578
0.920244	263.629
0.935665	258.246
0.947318	264.951
0.961291	259.019
0.985588	261.822
0.98646	267.496
0.995478	263.949
1.00096	265.69
1.00811	269.042
