Adsorption isotherm of Nitrogen on CuBTC
DOI: 10.1039/c5ra02440d
Article source: Figure 5
Adsorbate Nitrogen: InChIKey IJGRMHOSHXDMSA-UHFFFAOYSA-N
Kind: experiment
Temperature: 77 K
Tabular data in the source: 0
pressure (bar)	uptake (cm3(STP)/g)
0.009687	295.305
0.030712	302.725
0.067097	309.76
0.082732	311.678
0.102926	313.57
0.123049	315.052
0.143101	316.637
0.163366	317.454
0.182648	318.552
0.203552	319.523
0.252907	321.122
0.303549	322.336
0.336277	322.414
0.352641	323.428
0.387396	323.221
0.404175	324.09
0.454311	324.847
0.456976	323.823
0.504447	325.046
0.511316	329.499
0.554805	325.527
0.558483	351.658
0.605711	325.727
0.608852	326.237
0.641195	351.798
0.655897	325.87
0.69134	352.361
0.706478	326.254
0.743219	352.437
0.757506	326.515
0.807145	327.16
0.811563	334.173
0.829862	327.239
0.836053	352.387
0.842963	352.792
0.858354	327.48
0.867109	352.953
0.885854	328.046
0.892825	353.356
0.909564	328.572
0.919545	353.719
0.935493	329.544
0.947591	354.326
0.960318	332.02
0.983572	339.209
0.988223	358.425
0.992691	345.911
1.00247	355.092
1.00903	361.429
