Adsorption isotherm of Hydrogen on Al-BTB
DOI: 10.1016/j.cej.2011.04.019
Adsorbate Hydrogen: InChIKey UFHFLCQGNIYNRP-UHFFFAOYSA-N
Temperature: 77 K
Tabular data in the source: 0
pressure (bar)	uptake (wt%)
8.64407	0
20	0.0190603
31.0169	0.048958
43.5593	0.085914
57.7966	0.135244
70.678	0.184604
