Adsorption isotherm of Hydrogen on Ga-BTB
DOI: 10.1016/j.cej.2011.04.019
Adsorbate Hydrogen: InChIKey UFHFLCQGNIYNRP-UHFFFAOYSA-N
Temperature: 77 K
Tabular data in the source: 0
pressure (bar)	uptake (wt%)
0.00439826	0.0203822
0.00879653	0.0585987
0.0109957	0.0904459
0.0131948	0.124841
0.0153939	0.140127
0.0285887	0.157962
0.0395844	0.174522
0.065974	0.196178
0.0857661	0.211465
0.123151	0.229299
0.175931	0.248408
0.237506	0.266242
0.27929	0.276433
0.301281	0.281529
0.351861	0.290446
0.422233	0.303185
0.466216	0.309554
0.536588	0.321019
0.650943	0.335032
0.690527	0.340127
0.741107	0.345223
0.769696	0.347771
0.86206	0.35414
0.934631	0.363057
0.965419	0.366879
1.0094	0.370701
