Adsorption isotherm of Hydrogen on Cr-BTB
DOI: 10.1016/j.cej.2011.04.019
Adsorbate Hydrogen: InChIKey UFHFLCQGNIYNRP-UHFFFAOYSA-N
Temperature: 77 K
Tabular data in the source: 0
pressure (bar)	uptake (wt%)
0.00209544	0.00264026
0.106867	0.353795
0.199067	0.456766
0.305934	0.530693
0.40442	0.583498
0.507096	0.625743
0.609773	0.662706
0.708259	0.691749
0.815126	0.718152
0.913612	0.741914
1.00372	0.760396
