Adsorption isotherm of Hydrogen on Cr-BTB
DOI: 10.1016/j.cej.2011.04.019
Adsorbate Hydrogen: InChIKey UFHFLCQGNIYNRP-UHFFFAOYSA-N
Temperature: 77 K
Tabular data in the source: 0
pressure (bar)	uptake (wt%)
10.678	0.0210399
26.2712	0.0508362
42.2034	0.110767
60.339	0.177741
78.4746	0.258899
