Adsorption isotherm of Hydrogen on Fe-BTB
DOI: 10.1016/j.cej.2011.04.019
Adsorbate Hydrogen: InChIKey UFHFLCQGNIYNRP-UHFFFAOYSA-N
Temperature: 77 K
Tabular data in the source: 0
pressure (bar)	uptake (wt%)
0.00216784	0.00253165
0.0108392	0.0379747
0.0151749	0.0632911
0.0216784	0.0860759
0.028182	0.118987
0.0346855	0.141772
0.0433569	0.167089
0.0563639	0.212658
0.0650353	0.235443
0.0758745	0.258228
0.0845459	0.281013
0.0997208	0.311392
0.114896	0.341772
0.169092	0.407595
0.182099	0.422785
0.210281	0.440506
0.227624	0.455696
0.247134	0.468354
0.264477	0.481013
0.286155	0.488608
0.303498	0.501266
0.307834	0.501266
0.327344	0.511392
0.349023	0.518987
0.368533	0.526582
0.388044	0.536709
0.403219	0.539241
0.422729	0.546835
0.444408	0.551899
0.463918	0.559494
0.485597	0.562025
0.505108	0.56962
0.520282	0.56962
0.541961	0.574684
0.561471	0.579747
0.58315	0.58481
0.637346	0.592405
0.659024	0.597468
0.678535	0.6
0.728395	0.605063
0.750074	0.607595
0.771752	0.610127
0.791263	0.612658
0.830284	0.617722
0.851962	0.617722
0.873641	0.620253
0.895319	0.622785
0.91483	0.625316
0.936508	0.625316
0.958187	0.627848
0.979865	0.627848
1.00154	0.63038
1.01672	0.63038
