Adsorption isotherm of Hydrogen on Al-BTB
DOI: 10.1016/j.cej.2011.04.019
Adsorbate Hydrogen: InChIKey UFHFLCQGNIYNRP-UHFFFAOYSA-N
Temperature: 77 K
Tabular data in the source: 0
pressure (bar)	uptake (wt%)
0.00431811	1.56e-05
0.107247	0.392694
0.195519	0.531474
0.305416	0.651101
0.402435	0.728374
0.503793	0.794124
0.607324	0.85219
0.70873	0.891017
0.807977	0.929837
0.90939	0.964818
1.00219	0.988229
