Adsorption isotherm of Nitrogen on Ga-BTB
DOI: 10.1016/j.cej.2011.04.019
Adsorbate Nitrogen: InChIKey IJGRMHOSHXDMSA-UHFFFAOYSA-N
Temperature: 77 K
Tabular data in the source: 0
pressure (bar)	uptake (mmol/g)
0.00465957	0.311284
0.00698935	0.505837
0.0139787	0.661479
0.0232978	0.700389
0.0372765	0.817121
0.0559148	0.817121
0.0768829	0.894942
0.0908616	0.933852
0.125808	1.01167
0.151436	0.972763
0.172404	1.05058
0.200361	1.08949
0.221329	1.08949
0.244627	1.1284
0.267925	1.1284
0.284234	1.20623
0.307532	1.16732
0.3285	1.24514
0.349468	1.28405
0.372765	1.32296
0.396063	1.28405
0.414702	1.36187
0.437999	1.36187
0.503233	1.43969
0.526531	1.43969
0.549829	1.4786
0.573127	1.51751
0.598755	1.55642
0.622052	1.59533
0.684957	1.67315
0.780478	1.94553
0.829403	2.25681
0.852701	2.45136
0.875999	2.76265
0.899297	3.11284
0.917935	3.61868
0.941233	4.74708
0.952882	6.14786
