Adsorption isotherm of Nitrogen on Cr-BTB
DOI: 10.1016/j.cej.2011.04.019
Adsorbate Nitrogen: InChIKey IJGRMHOSHXDMSA-UHFFFAOYSA-N
Temperature: 77 K
Tabular data in the source: 0
pressure (bar)	uptake (mmol/g)
0.00250392	0.00250392
0.00500784	1.86567
0.00751175	3.54478
0.0125196	4.96269
0.0225353	5.37313
0.030047	5.44776
0.0475744	5.74627
0.0651019	5.85821
0.0851332	6.04478
0.122692	6.26866
0.147731	6.34328
0.175274	6.45522
0.222849	6.6791
0.247888	6.75373
0.267919	6.79104
0.292958	6.86567
0.388107	7.16418
0.488264	7.42537
0.585917	7.76119
0.683569	7.94776
0.781222	8.24627
0.828797	8.3209
0.851332	8.39552
0.876371	8.43284
0.898906	8.50746
0.921442	8.54478
0.943977	8.58209
0.953993	8.6194
