Adsorption isotherm of Hydrogen on Al-BTB
DOI: 10.1016/j.cej.2011.04.019
Adsorbate Hydrogen: InChIKey UFHFLCQGNIYNRP-UHFFFAOYSA-N
Temperature: 77 K
Tabular data in the source: 0
pressure (bar)	uptake (wt%)
0.00431811	1.56e-05
0.0192862	0.0808388
0.025701	0.115477
0.036434	0.150131
0.0535819	0.219424
0.0643149	0.254078
0.0750548	0.284886
0.0879399	0.323394
0.102991	0.358064
0.167507	0.500604
0.180426	0.519881
0.217047	0.566167
0.234271	0.593152
0.260124	0.624015
0.279521	0.643316
0.298911	0.666463
0.329096	0.689648
0.354957	0.716665
0.378685	0.728289
0.406712	0.751467
0.443374	0.774676
0.482202	0.794047
0.51456	0.809548
0.546918	0.825049
0.719532	0.88721
0.76054	0.89505
0.786428	0.906682
0.820966	0.910653
0.849013	0.922292
0.887862	0.930125
0.933202	0.930288
0.976355	0.945828
1.00442	0.949776
