Adsorption isotherm of Hydrogen on Al-BTB
DOI: 10.1016/j.cej.2011.04.019
Adsorbate Hydrogen: InChIKey UFHFLCQGNIYNRP-UHFFFAOYSA-N
Temperature: 77 K
Tabular data in the source: 0
pressure (bar)	uptake (wt%)
10.339	0.00509
12.0339	0.00682549
13.5593	0.0103378
15.2542	0.0120733
16.7797	0.0173586
18.3051	0.0190978
21.5254	0.0261187
23.0508	0.031404
24.7458	0.0349125
27.6271	0.0437139
29.4915	0.0472187
33.3898	0.0613167
34.9153	0.0666021
36.6102	0.0701106
38.8136	0.078927
40.339	0.0842123
42.0339	0.0894939
45.9322	0.103592
47.4576	0.108877
49.1525	0.114159
50.1695	0.119455
52.0339	0.126506
53.5593	0.131792
55.2542	0.138846
60.1695	0.161787
61.6949	0.165299
63.2203	0.172358
64.7458	0.179416
66.4407	0.186471
67.9661	0.193529
70.339	0.204115
71.8644	0.211173
73.3898	0.220005
74.9153	0.227063
76.4407	0.235894
79.4915	0.25533
80.678	0.25885
83.3898	0.272975
