Adsorption isotherm of Hydrogen on Ga-BTB
DOI: 10.1016/j.cej.2011.04.019
Adsorbate Hydrogen: InChIKey UFHFLCQGNIYNRP-UHFFFAOYSA-N
Temperature: 77 K
Tabular data in the source: 0
pressure (bar)	uptake (wt%)
0.00879653	0.0713376
0.0109957	0.0929936
0.0153939	0.121019
0.0175931	0.133758
0.0219913	0.143949
0.0285887	0.155414
0.0373852	0.168153
0.0483809	0.179618
0.0593766	0.189809
0.0725714	0.2
0.0901644	0.212739
0.107757	0.22293
0.12755	0.228025
0.142944	0.236943
0.217714	0.258599
0.235307	0.266242
0.255099	0.270064
0.274891	0.275159
0.294684	0.280255
0.321073	0.28535
0.343065	0.289172
0.362857	0.292994
0.424432	0.304459
0.446424	0.307006
0.466216	0.310828
0.486008	0.313376
0.534389	0.322293
0.571774	0.324841
0.591566	0.328662
0.622354	0.329936
0.642147	0.333758
0.661939	0.336306
0.68393	0.338854
0.730112	0.342675
0.767497	0.346497
0.796086	0.350318
0.840068	0.35414
0.86206	0.355414
0.881852	0.357962
0.928034	0.361783
0.950025	0.363057
0.969817	0.364331
0.991808	0.366879
