Adsorption isotherm of Hydrogen on Cr-BTB
DOI: 10.1016/j.cej.2011.04.019
Adsorbate Hydrogen: InChIKey UFHFLCQGNIYNRP-UHFFFAOYSA-N
Temperature: 77 K
Tabular data in the source: 0
pressure (bar)	uptake (wt%)
15.0847	0.0298075
16.7797	0.0333161
19.8305	0.0403406
21.0169	0.0403143
29.4915	0.0631762
31.3559	0.0737731
32.8814	0.0755124
34.2373	0.0843476
35.7627	0.0896329
43.5593	0.121375
45.0847	0.128433
48.3051	0.142546
52.8814	0.161949
54.4068	0.167234
57.4576	0.181351
58.9831	0.184863
62.0339	0.200753
63.5593	0.207811
66.7797	0.223697
68.3051	0.232529
71.1864	0.244876
72.5424	0.253711
75.7627	0.267824
77.2881	0.274883
