Adsorption isotherm of Hydrogen on Cr-BTB
DOI: 10.1016/j.cej.2011.04.019
Adsorbate Hydrogen: InChIKey UFHFLCQGNIYNRP-UHFFFAOYSA-N
Temperature: 77 K
Tabular data in the source: 0
pressure (bar)	uptake (wt%)
0.00209544	0.00264026
0.0104772	0.0369637
0.0167635	0.0633663
0.0209544	0.0871287
0.0272407	0.116172
0.033527	0.139934
0.0419088	0.166337
0.0544814	0.211221
0.0628632	0.234983
0.0691495	0.261386
0.0796267	0.282508
0.0963902	0.314191
0.100581	0.337954
0.11944	0.366997
0.134108	0.39604
0.157158	0.419802
0.180208	0.454125
0.203258	0.472607
0.226308	0.49901
0.26193	0.522772
0.293362	0.543894
0.326889	0.567657
0.362511	0.586139
0.398134	0.60198
0.42747	0.612541
0.467283	0.625743
0.513383	0.638944
0.553196	0.654785
0.727118	0.686469
0.76274	0.691749
0.796267	0.69967
0.852844	0.70495
0.892657	0.707591
0.932471	0.712871
0.959712	0.715512
0.991143	0.718152
1.0121	0.720792
