Adsorption isotherm of Hydrogen on Ga-BTB
DOI: 10.1016/j.cej.2011.04.019
Adsorbate Hydrogen: InChIKey UFHFLCQGNIYNRP-UHFFFAOYSA-N
Temperature: 77 K
Tabular data in the source: 0
pressure (bar)	uptake (wt%)
0.0065974	0.0420382
0.0131948	0.136306
0.0373852	0.174522
0.0923635	0.212739
0.149541	0.238217
0.200121	0.253503
0.239705	0.264968
0.294684	0.278981
0.338666	0.286624
0.395844	0.299363
0.433229	0.304459
0.490406	0.31465
0.529991	0.318471
0.675133	0.335032
0.738908	0.343949
0.851064	0.355414
0.96322	0.363057
1.0006	0.370701
