Adsorption isotherm of Hydrogen on Cr-BTB
DOI: 10.1016/j.cej.2011.04.019
Adsorbate Hydrogen: InChIKey UFHFLCQGNIYNRP-UHFFFAOYSA-N
Temperature: 77 K
Tabular data in the source: 0
pressure (bar)	uptake (wt%)
0.00209544	0.00264026
0.00838176	0.0554455
0.0146681	0.126733
0.0209544	0.182178
0.0356225	0.227063
0.0628632	0.285149
0.0754358	0.322112
0.106867	0.369637
0.144585	0.406601
0.186494	0.446205
0.211639	0.464686
0.245166	0.493729
0.276598	0.512211
0.322698	0.538614
0.35832	0.557096
0.396038	0.572937
0.419088	0.583498
0.456806	0.60462
0.496619	0.617822
0.517574	0.628383
0.54691	0.638944
0.5972	0.654785
0.622346	0.662706
0.657968	0.678548
0.695686	0.686469
0.725022	0.69703
0.76274	0.70495
0.798363	0.718152
0.83189	0.720792
0.852844	0.726073
0.877989	0.736634
0.894753	0.739274
0.924089	0.747195
0.955521	0.752475
0.97438	0.755116
0.993239	0.760396
