Adsorption isotherm of Hydrogen on Ga-BTB
DOI: 10.1016/j.cej.2011.04.019
Adsorbate Hydrogen: InChIKey UFHFLCQGNIYNRP-UHFFFAOYSA-N
Temperature: 77 K
Tabular data in the source: 0
pressure (bar)	uptake (wt%)
0.00439826	0.0203822
0.0109957	0.0369427
0.0175931	0.0573248
0.0219913	0.0700637
0.0263896	0.0828025
0.032987	0.0942675
0.0373852	0.10828
0.0439826	0.121019
0.0483809	0.132484
0.0615757	0.15414
0.0703722	0.165605
0.0769696	0.178344
0.0879653	0.189809
0.10116	0.203822
0.116554	0.220382
0.142944	0.235669
0.162736	0.250955
0.182528	0.261146
0.200121	0.26879
0.211117	0.270064
0.230909	0.276433
0.250701	0.282803
0.268294	0.287898
0.290285	0.292994
0.336467	0.303185
0.358458	0.305732
0.378251	0.30828
0.398043	0.310828
0.413437	0.313376
0.433229	0.315924
0.45522	0.319745
0.477212	0.322293
0.497004	0.322293
0.523393	0.326115
0.545385	0.327389
0.567376	0.328662
0.73451	0.340127
0.756501	0.340127
0.778493	0.341401
0.800484	0.342675
0.829073	0.342675
0.851064	0.343949
0.873055	0.345223
0.895047	0.345223
0.914839	0.346497
0.945627	0.346497
0.994008	0.347771
1.016	0.350318
