Adsorption isotherm of Hydrogen on Al-BTB
DOI: 10.1016/j.cej.2011.04.019
Adsorbate Hydrogen: InChIKey UFHFLCQGNIYNRP-UHFFFAOYSA-N
Temperature: 77 K
Tabular data in the source: 0
pressure (bar)	uptake (wt%)
0.00431811	1.56e-05
0.00850473	0.0731076
0.0256249	0.157785
0.0427935	0.215539
0.0642664	0.281001
0.0793037	0.323363
0.100804	0.37344
0.122326	0.41198
0.148158	0.45438
0.169693	0.485227
0.186917	0.512212
0.208466	0.535367
0.294635	0.64337
0.322654	0.670394
0.357157	0.693596
0.387342	0.716781
0.417528	0.739967
0.445561	0.759299
0.471435	0.778623
0.486534	0.78637
0.518885	0.805717
0.551244	0.821219
0.592224	0.844443
0.620285	0.848391
0.648325	0.863876
0.682835	0.883232
0.738936	0.902665
0.853303	0.937692
0.894298	0.953225
0.948239	0.97265
0.987082	0.984329
