Adsorption isotherm of Nitrogen on Al-BTB
DOI: 10.1016/j.cej.2011.04.019
Adsorbate Nitrogen: InChIKey IJGRMHOSHXDMSA-UHFFFAOYSA-N
Temperature: 77 K
Tabular data in the source: 0
pressure (bar)	uptake (mmol/g)
0.0022437	0.0022437
0.00448739	1.94946
0.00897478	9.09747
0.0269243	10.0722
0.0493613	10.8303
0.0650672	11.2635
0.0987226	11.5884
0.125647	11.8051
0.152571	11.9134
0.204176	12.3466
0.282706	12.9964
0.298411	13.213
0.300655	13.1047
0.318605	13.4296
0.338798	13.6462
0.361235	13.8628
0.388159	13.8628
0.399378	13.9711
0.421815	14.1877
0.442008	14.296
0.462201	14.6209
0.491369	14.6209
0.4981	14.5126
0.51605	14.9458
0.538487	15.1625
0.55868	15.3791
0.590092	15.704
0.594579	15.5957
0.612529	16.0289
0.632722	16.2455
0.652915	16.6787
0.670865	16.8953
0.67984	16.8953
0.774075	19.7112
0.82568	22.852
0.852604	25.9928
0.879528	28.917
0.904209	30.6498
0.937865	30.6498
0.951327	30.7581
