Adsorption isotherm of Hydrogen on Cr-BTB
DOI: 10.1016/j.cej.2011.04.019
Adsorbate Hydrogen: InChIKey UFHFLCQGNIYNRP-UHFFFAOYSA-N
Temperature: 77 K
Tabular data in the source: 0
pressure (bar)	uptake (wt%)
0.00209544	0.00264026
0.00628632	0.0475248
0.0125726	0.163696
0.0209544	0.205941
0.033527	0.237624
0.0440042	0.266667
0.0607678	0.29571
0.0754358	0.322112
0.14249	0.409241
0.167635	0.427723
0.19278	0.440924
0.21583	0.459406
0.240976	0.480528
0.268216	0.49637
0.297552	0.514851
0.328984	0.533333
0.360416	0.549175
0.391847	0.567657
0.421183	0.578218
0.456806	0.5967
0.496619	0.612541
0.525955	0.623102
0.563673	0.638944
0.5972	0.652145
0.754358	0.70495
0.836081	0.728713
0.880085	0.741914
0.932471	0.757756
0.970189	0.768317
1.01419	0.778878
