Adsorption isotherm of Hydrogen on Fe-BTB
DOI: 10.1016/j.cej.2011.04.019
Adsorbate Hydrogen: InChIKey UFHFLCQGNIYNRP-UHFFFAOYSA-N
Temperature: 77 K
Tabular data in the source: 0
pressure (bar)	uptake (wt%)
0.00216784	0.00253165
0.0130071	0.172152
0.0238463	0.202532
0.0325177	0.227848
0.041189	0.253165
0.0585318	0.281013
0.0780424	0.308861
0.0910494	0.326582
0.158253	0.387342
0.247134	0.443038
0.416226	0.518987
0.440072	0.529114
0.550632	0.564557
0.591821	0.579747
0.652521	0.597468
0.69371	0.602532
0.752242	0.622785
0.786927	0.63038
0.83462	0.640506
0.856298	0.64557
0.869305	0.648101
0.890984	0.650633
0.919166	0.660759
0.953851	0.668354
0.97553	0.673418
1.01455	0.683544
