Adsorption isotherm of Hydrogen on Al-BTB
DOI: 10.1016/j.cej.2011.04.019
Adsorbate Hydrogen: InChIKey UFHFLCQGNIYNRP-UHFFFAOYSA-N
Temperature: 77 K
Tabular data in the source: 0
pressure (bar)	uptake (wt%)
0.00431811	1.56e-05
0.00640104	0.0423308
0.0170164	0.142369
0.0276871	0.211638
0.0470148	0.2694
0.0728057	0.334878
0.092168	0.373409
0.113682	0.415795
0.139508	0.462042
0.17397	0.50832
0.232147	0.573914
0.268781	0.612508
0.292489	0.63567
0.329145	0.662725
0.361489	0.685919
0.393833	0.709112
0.424019	0.732298
0.458522	0.7555
0.493032	0.774855
0.51892	0.786487
0.549112	0.805826
0.594404	0.832913
0.628921	0.848422
0.663431	0.867777
0.695803	0.875586
0.721684	0.891064
0.756194	0.910419
0.790712	0.925928
0.825236	0.937591
0.857594	0.953093
0.885641	0.964732
0.924497	0.968718
0.956855	0.98422
0.989213	0.999721
