Adsorption isotherm of Nitrogen on Fe-BTB
DOI: 10.1016/j.cej.2011.04.019
Adsorbate Nitrogen: InChIKey IJGRMHOSHXDMSA-UHFFFAOYSA-N
Temperature: 77 K
Tabular data in the source: 0
pressure (bar)	uptake (mmol/g)
0.00462629	1.49974
0.00693943	2.22183
0.00925257	2.8328
0.0115657	3.11045
0.0254446	3.33188
0.0370103	3.55344
0.0508891	3.66376
0.0717074	3.77368
0.097152	3.93889
0.12491	4.21508
0.148041	4.26931
0.171173	4.3791
0.201243	4.48849
0.222062	4.65397
0.24288	4.70833
0.268325	4.87354
0.298395	4.92738
0.390921	5.31098
0.520457	5.85913
0.585225	6.24431
0.64768	6.62963
0.705509	7.18188
0.726327	7.40291
0.744832	7.73519
0.777216	8.17778
0.802661	8.73188
0.828105	9.45265
0.839671	9.95198
0.85355	10.5623
0.874368	12.0611
0.888247	13.2825
