Adsorption isotherm of Hydrogen on Cr-BTB
DOI: 10.1016/j.cej.2011.04.019
Adsorbate Hydrogen: InChIKey UFHFLCQGNIYNRP-UHFFFAOYSA-N
Temperature: 77 K
Tabular data in the source: 0
pressure (bar)	uptake (wt%)
0.00209544	0.00264026
0.0146681	0.153135
0.018859	0.192739
0.0314316	0.227063
0.0460997	0.261386
0.0607678	0.29835
0.0754358	0.319472
0.230498	0.469967
0.253548	0.491089
0.272407	0.50429
0.33108	0.535974
0.364607	0.557096
0.391847	0.570297
0.423279	0.580858
0.460997	0.5967
0.496619	0.609901
0.528051	0.623102
0.563673	0.638944
0.595105	0.649505
0.622346	0.657426
0.66635	0.675908
0.73969	0.69703
0.783695	0.712871
0.848653	0.728713
0.898944	0.747195
0.936662	0.755116
0.984857	0.770957
