Adsorption isotherm of Hydrogen on Al-BTB
DOI: 10.1016/j.cej.2011.04.019
Adsorbate Hydrogen: InChIKey UFHFLCQGNIYNRP-UHFFFAOYSA-N
Temperature: 77 K
Tabular data in the source: 0
pressure (bar)	uptake (wt%)
0.00426275	0.0307846
0.00431811	1.56e-05
0.0105392	0.142346
0.0169472	0.18083
0.0276525	0.230869
0.0426897	0.273231
0.0577339	0.311747
0.0749302	0.354116
0.0943063	0.384955
0.210618	0.539221
0.242949	0.570107
0.264505	0.589415
0.28822	0.608732
0.311935	0.628048
0.339954	0.655072
0.372298	0.678266
0.396013	0.697582
0.426198	0.720768
0.46502	0.743985
0.499523	0.767186
0.52757	0.778826
0.5599	0.809711
0.596584	0.821382
0.728147	0.89878
0.829533	0.949145
0.870527	0.964678
0.939555	0.999542
0.976231	1.01506
1.01074	1.03441
