Adsorption isotherm of Hydrogen on Fe-BTB
DOI: 10.1016/j.cej.2011.04.019
Adsorbate Hydrogen: InChIKey UFHFLCQGNIYNRP-UHFFFAOYSA-N
Temperature: 77 K
Tabular data in the source: 0
pressure (bar)	uptake (wt%)
10	0.021055
22.3729	0.0615609
36.9492	0.148117
50.8475	0.261284
68.1356	0.376149
79.1525	0.462785
