Adsorption isotherm of Hydrogen on Fe-BTB
DOI: 10.1016/j.cej.2011.04.019
Adsorbate Hydrogen: InChIKey UFHFLCQGNIYNRP-UHFFFAOYSA-N
Temperature: 77 K
Tabular data in the source: 0
pressure (bar)	uptake (wt%)
3.55932	0.00878636
5.25424	0.0105218
6.77966	0.0140341
12.7119	0.0316332
14.4068	0.0351417
15.7627	0.0422038
17.4576	0.0457124
18.8136	0.0510015
20.1695	0.0545175
24.7458	0.0774657
26.2712	0.0862972
30.1695	0.112807
31.6949	0.119865
33.0508	0.132246
34.4068	0.141081
38.4746	0.16936
39.8305	0.179968
40.8475	0.190584
42.2034	0.201192
43.3898	0.213577
44.7458	0.224186
45.9322	0.234798
47.2881	0.245406
48.4746	0.256018
49.661	0.26663
50.8475	0.277242
52.2034	0.28785
56.1017	0.317906
57.4576	0.326741
58.6441	0.337353
60	0.346188
61.3559	0.356796
62.7119	0.367404
63.8983	0.378016
65.2542	0.386852
69.1525	0.41868
70.5085	0.429288
71.5254	0.439904
72.8814	0.450512
74.0678	0.462897
75.2542	0.473509
76.6102	0.482345
77.6271	0.496506
78.9831	0.505342
