Adsorption isotherm of Hydrogen on Fe-BTB
DOI: 10.1016/j.cej.2011.04.019
Adsorbate Hydrogen: InChIKey UFHFLCQGNIYNRP-UHFFFAOYSA-N
Temperature: 77 K
Tabular data in the source: 0
pressure (bar)	uptake (wt%)
0.00216784	0.00253165
0.00650353	0.0303797
0.0108392	0.0987342
0.0151749	0.141772
0.0260141	0.189873
0.0390212	0.23038
0.0628675	0.278481
0.0802102	0.308861
0.0997208	0.329114
0.123567	0.35443
0.164756	0.394937
0.188602	0.412658
0.225456	0.435443
0.266645	0.455696
0.294827	0.470886
0.323009	0.486076
0.36203	0.501266
0.394547	0.513924
0.422729	0.529114
0.459583	0.539241
0.494268	0.549367
0.52245	0.559494
0.561471	0.572152
0.600493	0.582278
0.628675	0.592405
0.66336	0.597468
0.691542	0.607595
0.728395	0.617722
0.771752	0.625316
0.797766	0.635443
0.83462	0.635443
0.862802	0.648101
0.888816	0.653165
0.927837	0.655696
0.962522	0.663291
0.999376	0.668354
