Adsorption isotherm of Hydrogen on Al-BTB
DOI: 10.1016/j.cej.2011.04.019
Adsorbate Hydrogen: InChIKey UFHFLCQGNIYNRP-UHFFFAOYSA-N
Temperature: 77 K
Tabular data in the source: 0
pressure (bar)	uptake (wt%)
8.81356	0.010443
19.322	0.0190753
31.8644	0.0595775
43.5593	0.0894601
56.6102	0.138816
69.1525	0.198822
82.0339	0.257047
