Adsorption isotherm of Hydrogen on Fe-BTB
DOI: 10.1016/j.cej.2011.04.019
Adsorbate Hydrogen: InChIKey UFHFLCQGNIYNRP-UHFFFAOYSA-N
Temperature: 77 K
Tabular data in the source: 0
pressure (bar)	uptake (wt%)
0.00216784	0.00253165
0.0151749	0.177215
0.0260141	0.212658
0.0390212	0.248101
0.0541961	0.270886
0.0672031	0.296203
0.082378	0.316456
0.114896	0.351899
0.166924	0.392405
0.218952	0.427848
0.25147	0.44557
0.275316	0.458228
0.292659	0.468354
0.427065	0.524051
0.461751	0.536709
0.496436	0.546835
0.533289	0.556962
0.565807	0.572152
0.596157	0.577215
0.63301	0.589873
0.797766	0.632911
0.85413	0.640506
0.88448	0.653165
0.96469	0.670886
0.992872	0.675949
