Adsorption isotherm of Hydrogen on Fe-BTB
DOI: 10.1016/j.cej.2011.04.019
Adsorbate Hydrogen: InChIKey UFHFLCQGNIYNRP-UHFFFAOYSA-N
Temperature: 77 K
Tabular data in the source: 0
pressure (bar)	uptake (wt%)
0.00216784	0.00253165
0.106224	0.339241
0.201609	0.422785
0.307834	0.481013
0.407555	0.524051
0.505108	0.556962
0.609164	0.587342
0.711053	0.610127
0.815109	0.632911
0.912662	0.653165
1.00588	0.670886
