Adsorption isotherm of Hydrogen on Al-BTB
DOI: 10.1016/j.cej.2011.04.019
Adsorbate Hydrogen: InChIKey UFHFLCQGNIYNRP-UHFFFAOYSA-N
Temperature: 77 K
Tabular data in the source: 0
pressure (bar)	uptake (wt%)
3.38983	0.00524402
5.25424	0.00697575
12.5424	0.0156795
14.2373	0.0156419
16.1017	0.0173736
18.1356	0.0191016
21.1864	0.0261262
23.2203	0.0331733
24.4068	0.0349201
27.9661	0.0472525
29.4915	0.0543109
33.3898	0.0648628
34.9153	0.0701482
36.6102	0.0736567
46.6102	0.107123
50	0.121232
51.6949	0.126514
53.2203	0.133572
55.2542	0.140619
58.3051	0.156509
59.661	0.165344
61.3559	0.174172
62.8814	0.183004
64.5763	0.188285
66.1017	0.19889
67.6271	0.205948
69.4915	0.212999
70.8475	0.223607
72.5424	0.230662
73.8983	0.239497
75.7627	0.248321
77.4576	0.257149
80	0.27305
81.6949	0.280104
