Adsorption isotherm of Hydrogen on Ga-BTB
DOI: 10.1016/j.cej.2011.04.019
Adsorbate Hydrogen: InChIKey UFHFLCQGNIYNRP-UHFFFAOYSA-N
Temperature: 77 K
Tabular data in the source: 0
pressure (bar)	uptake (wt%)
0.105558	0.215287
0.20232	0.261146
0.305679	0.287898
0.40464	0.305732
0.510199	0.319745
0.60916	0.33121
0.71032	0.342675
0.81148	0.351592
0.910441	0.357962
1.0028	0.363057
