Adsorption isotherm of Ni(II) on iron oxide-vermiculite composite
DOI: 10.1016/j.clay.2016.12.020
Article source: Figure 8a
Adsorbate Ni(II): InChIKey VEQPNABPJHWNSG-UHFFFAOYSA-N
Kind: experiment
Temperature: 298 K
Tabular data in the source: 0
pressure (bar)	uptake (mg/g)
1.01325	0.433
1.01325	5.364
1.01325	12.906
1.01325	15.732
1.01325	18.93
1.01325	24.154
1.01325	27.966
1.01325	30.073
1.01325	32.26
1.01325	33.941
1.01325	36.049
1.01325	37.517
1.01325	38.613
1.01325	39.629
1.01325	40.539
1.01325	41.023
1.01325	41.561
1.01325	41.884
1.01325	42.211
1.01325	42.481
1.01325	42.755
1.01325	42.95
1.01325	43.227
1.01325	43.479
1.01325	43.538
1.01325	43.648
1.01325	43.713
1.01325	43.946
1.01325	43.922
1.01325	44.163
1.01325	44.282
1.01325	44.259
1.01325	44.287
1.01325	44.279
