Adsorption isotherm of Copper(II) Ion on iron oxide-vermiculite composite
DOI: 10.1016/j.clay.2016.12.020
Article source: Figure 8b
Adsorbate Copper(II) Ion: InChIKey JPVYNHNXODAKFH-UHFFFAOYSA-N
Kind: experiment
Temperature: 298 K
Tabular data in the source: 0
pressure (bar)	uptake (mg/g)
1.01325	3.705
1.01325	4.431
1.01325	6.188
1.01325	7.301
1.01325	8.325
1.01325	9.482
1.01325	9.793
1.01325	10.194
1.01325	11.908
1.01325	12.575
1.01325	12.998
1.01325	13.844
1.01325	14.912
1.01325	15.513
1.01325	16.314
1.01325	17.293
1.01325	18.028
1.01325	18.495
1.01325	19.519
1.01325	19.941
1.01325	20.965
1.01325	21.878
1.01325	22.634
1.01325	23.569
1.01325	24.904
1.01325	25.571
1.01325	26.506
1.01325	27.618
1.01325	28.375
1.01325	28.998
1.01325	30.444
1.01325	30.867
1.01325	31.245
1.01325	31.623
1.01325	32.001
1.01325	32.246
1.01325	32.579
1.01325	33.002
1.01325	33.469
1.01325	34.204
1.01325	34.982
1.01325	35.56
1.01325	36.183
1.01325	36.739
1.01325	37.184
1.01325	37.74
1.01325	38.474
1.01325	39.008
1.01325	39.719
1.01325	40.03
1.01325	40.498
1.01325	40.853
1.01325	41.254
1.01325	41.387
1.01325	41.765
1.01325	42.209
1.01325	42.565
1.01325	42.898
1.01325	43.143
1.01325	43.454
1.01325	43.61
1.01325	44.01
1.01325	44.276
1.01325	44.432
1.01325	44.876
1.01325	45.032
1.01325	45.454
1.01325	45.654
1.01325	45.743
1.01325	45.742
1.01325	46.054
1.01325	46.298
1.01325	46.476
1.01325	46.609
1.01325	46.853
1.01325	47.164
1.01325	47.453
1.01325	47.631
1.01325	47.83
1.01325	47.964
1.01325	48.297
1.01325	48.519
1.01325	48.763
1.01325	48.918
1.01325	49.007
1.01325	49.363
1.01325	49.651
1.01325	49.74
1.01325	50.072
1.01325	50.405
1.01325	50.738
1.01325	51.07
1.01325	51.514
1.01325	51.491
1.01325	51.913
1.01325	51.868
1.01325	52.09
1.01325	52.51
1.01325	52.887
1.01325	53.197
1.01325	53.508
1.01325	53.529
1.01325	53.573
1.01325	53.973
1.01325	53.994
1.01325	53.994
1.01325	54.238
1.01325	54.281
1.01325	54.392
1.01325	54.591
1.01325	54.702
1.01325	54.701
1.01325	54.855
1.01325	54.966
1.01325	55.054
1.01325	55.254
1.01325	55.341
1.01325	55.407
1.01325	55.785
1.01325	55.584
1.01325	56.081
1.01325	56.024
1.01325	55.966
1.01325	56.414
1.01325	56.412
1.01325	56.411
1.01325	56.747
1.01325	56.633
1.01325	56.743
1.01325	57.023
1.01325	57.189
1.01325	57.188
1.01325	57.635
1.01325	57.521
1.01325	57.519
1.01325	57.518
1.01325	57.741
1.01325	57.851
1.01325	57.962
1.01325	57.96
1.01325	58.183
1.01325	58.237
1.01325	58.235
1.01325	58.402
1.01325	58.513
1.01325	58.509
1.01325	58.619
1.01325	58.561
1.01325	58.841
1.01325	58.838
1.01325	58.836
1.01325	58.945
1.01325	59
1.01325	59.257
1.01325	59.149
1.01325	59.147
1.01325	59.181
1.01325	59.108
1.01325	59.212
1.01325	59.14
1.01325	59.492
1.01325	59.491
1.01325	59.49
1.01325	59.452
1.01325	59.416
1.01325	59.519
1.01325	59.518
1.01325	59.553
1.01325	59.588
