Adsorption isotherm of Ni(II), Copper(II) Ion on iron oxide-vermiculite composite
DOI: 10.1016/j.clay.2016.12.020
Article source: Figure 7
Adsorbate Ni(II): InChIKey  VEQPNABPJHWNSG-UHFFFAOYSA-N
Adsorbate Copper(II) Ion: InChIKey JPVYNHNXODAKFH-UHFFFAOYSA-N
Kind: experiment
Temperature: 298 K
Tabular data in the source: 0
pressure (bar)	Ni(II) fraction	Ni(II) uptake (mg/g)	Copper(II) Ion fraction	Copper(II) Ion uptake (mg/g)	total uptake (mg/g)
1.01325	2.0107	4.343	1.987	5.359	
1.01325	3.991	19.987	4.0384	24.053	
1.01325	5.995	31.311	6.0069	37.029	
1.01325	8.0109	38.189	7.9635	47.972	
1.01325	9.9912	44.05	10.003	53.96	
