Adsorption isotherm of Arsenate, Water on Fe‚Å∞@PTA/g-C3N4
DOI: 10.1016/j.apsusc.2017.07.049
Article source: Figure 6
Adsorbate Arsenate: InChIKey HAYXDMNJJFVXCI-UHFFFAOYSA-N
Adsorbate Water: InChIKey XLYOFNOQVPJJNP-UHFFFAOYSA-N
Kind: experiment
Temperature: 298 K
Tabular data in the source: 0
pressure (bar)	Arsenate fraction	Arsenate uptake (mg/g)	Water fraction	Water uptake (mg/g)	total uptake (mg/g)
1.01325	0.27	0.103			
1.01325	0.6	3.595			
1.01325	0.8	16.715			
1.01325	1.26	24.855			
1.01325	2.52	32.603			
1.01325	6.43	48.058			
1.01325	29.22	56.944			
1.01325	100.53	66.804			
1.01325	289.07	70.35			
