Adsorption isotherm of Nitrogen on Coconut based steam activated carbon (washed)
DOI: 10.1006/jcis.2001.8052
Article source: Figure 1
Adsorbate Nitrogen: InChIKey IJGRMHOSHXDMSA-UHFFFAOYSA-N
Kind: experiment
Temperature: 77 K
Tabular data in the source: 0
pressure (bar)	uptake (ml/g)
0	141.231
0.002556	264.462
0.046077	350.308
0.15087	414
0.286669	444.462
0.358831	455.538
0.432538	456.923
0.477542	462.462
0.579958	468
0.581504	462.462
0.645129	469.385
0.709523	468
0.710301	470.769
0.775473	470.769
0.835209	466.615
0.837542	473.538
0.89573	473.538
0.928313	470.769
0.951592	474.923
0.971762	473.538
0.988057	474.923
1.01365	474.923
