Adsorption isotherm of Water on Wood based phosphoric acid activated carbon
DOI: 10.1006/jcis.2001.8052
Article source: Figure 2
Adsorbate Water: InChIKey XLYOFNOQVPJJNP-UHFFFAOYSA-N
Kind: experiment
Temperature: 298 K
Tabular data in the source: 0
pressure (bar)	uptake (mg/g)
0	0
0	0.795454
0	2.04554
1e-05	3.409
2.9e-05	4.43156
9.4e-05	5.68097
0.00015	6.81682
0.000234	7.83879
0.000468	9.99577
0.000767	12.2658
0.00115	14.4214
0.001598	16.4628
0.002094	18.8447
0.002635	20.9989
0.003168	23.2668
0.003653	25.1942
0.004036	26.7817
0.004541	29.0498
0.004905	30.6375
0.005354	32.9061
0.005793	35.0613
0.006194	37.2167
0.006568	39.3724
0.006923	41.5283
0.007241	43.7982
0.007549	45.9545
0.007839	48.1109
0.00811	50.3812
0.008362	52.538
0.008596	54.695
0.00883	56.9656
0.009045	59.1228
0.00926	61.3935
0.009456	63.6645
0.009652	65.8218
0.00983	68.0929
0.010017	70.364
0.010176	72.6353
0.010344	74.7928
