Adsorption isotherm of Water on Coconut based steam activated carbon
DOI: 10.1006/jcis.2001.8052
Article source: Figure 2
Adsorbate Water: InChIKey XLYOFNOQVPJJNP-UHFFFAOYSA-N
Kind: experiment
Temperature: 298 K
Tabular data in the source: 0
pressure (bar)	uptake (mg/g)
0	0
0.000392	1.13282
0.00097	2.15032
0.001773	3.16579
0.002668	4.18042
0.003545	5.19521
0.004357	6.2106
0.005085	7.22675
0.006307	9.26115
0.007258	11.1844
0.008005	13.1094
0.008611	15.1494
0.009124	17.1902
0.009581	19.3452
0.009973	21.3871
0.010328	23.4293
0.010664	25.4718
0.010953	27.6282
0.011233	29.6712
0.011494	31.7142
0.011746	33.7574
0.011988	35.9143
0.012222	37.844
0.012455	39.8874
