Adsorption isotherm of Nitrogen on Wood based phosphoric acid activated carbon (washed)
DOI: 10.1006/jcis.2001.8052
Article source: Figure 1
Adsorbate Nitrogen: InChIKey IJGRMHOSHXDMSA-UHFFFAOYSA-N
Kind: experiment
Temperature: 77 K
Tabular data in the source: 0
pressure (bar)	uptake (ml/g)
0	0
0	55.3846
0	70.6154
0.000624	174.462
0.009037	300.462
0.054667	387.692
0.153749	473.538
0.279961	540
0.380629	582.923
0.421677	592.615
0.493681	638.308
0.570374	636.923
0.593575	681.231
0.659399	706.154
0.704349	684
0.722118	739.385
0.784063	771.231
0.843688	798.923
0.869277	768.462
0.900995	818.308
0.935858	814.154
0.949785	833.538
0.966057	829.385
0.983869	834.923
1.01253	839.077
