Adsorption isotherm of Nitrogen on Coal based steam activated carbon (washed)
DOI: 10.1006/jcis.2001.8052
Article source: Figure 1
Adsorbate Nitrogen: InChIKey IJGRMHOSHXDMSA-UHFFFAOYSA-N
Kind: experiment
Temperature: 77 K
Tabular data in the source: 0
pressure (bar)	uptake (ml/g)
0	106.615
0.000168	195.231
0.030487	265.846
0.128294	324
0.287387	378
0.319981	387.692
0.409222	409.846
0.485269	426.462
0.507015	452.769
0.605561	468
0.648224	458.308
0.67307	480.462
0.741356	494.308
0.782469	487.385
0.806539	509.538
0.862416	527.538
0.884905	515.077
0.915185	541.385
0.936903	534.462
0.956312	551.077
0.965621	549.692
1.01373	558
