Adsorption isotherm of Water on Coal based steam activated carbon
DOI: 10.1006/jcis.2001.8052
Article source: Figure 2
Adsorbate Water: InChIKey XLYOFNOQVPJJNP-UHFFFAOYSA-N
Kind: experiment
Temperature: 298 K
Tabular data in the source: 0
pressure (bar)	uptake (mg/g)
0	0
0.000401	1.24637
0.000896	2.26463
0.001549	3.50872
0.002295	4.63834
0.003088	5.76753
0.003872	6.89681
0.004581	8.1404
0.005831	10.4018
0.006839	12.7791
0.00765	15.1581
0.008331	17.4247
0.0089	19.8059
0.009395	22.0741
0.009833	24.5702
0.010225	26.7257
0.010589	29.1088
0.010915	31.4922
0.011233	33.7621
0.011503	36.146
0.011783	38.4162
0.012035	40.6866
0.012287	43.1843
0.01252	45.455
