Adsorption isotherm of 1-butene on Ag-Y(6)
DOI: 10.1002/cssc.201700657
Article source: Figure 3
Adsorbate 1-butene: InChIKey VXNZUUAINFGPBY-UHFFFAOYSA-N
Kind: experiment
Temperature: 393 K
Tabular data in the source: 0
pressure (bar)	uptake (molecules/unitcell)
0.000742	6.738
0.001687	9.313
0.004242	11.746
0.010208	15.332
0.031019	21.202
0.106595	29.43
0.62953	37.346
