Adsorption isotherm of N-Butane on Cu/MCM-41
DOI: 10.1002/cssc.201700657
Article source: Figure 4
Adsorbate N-Butane: InChIKey IJDNQMDRQITEOD-UHFFFAOYSA-N
Kind: experiment
Temperature: 313 K
Tabular data in the source: 0
pressure (bar)	uptake (mmol/g)
0.001	0.009
0.022345	0.0481
0.065008	0.1201
0.104178	0.2004
0.144148	0.2672
0.185545	0.333
0.223128	0.3988
0.258152	0.4585
0.297962	0.5315
0.334746	0.588
0.373116	0.658
0.40926	0.7269
0.44859	0.801
0.485213	0.873
0.522037	0.9608
0.559354	1.0152
0.594671	1.1139
0.630775	1.1969
0.665692	1.2695
0.703409	1.3473
0.739113	1.4304
0.773616	1.5082
0.809733	1.6017
0.843037	1.6821
0.878354	1.7548
0.909245	1.8405
0.943349	1.8896
0.97304	1.9727
1.00636	2.074
