Adsorption isotherm of 1-butene on Zeolite 13X
DOI: 10.1002/cssc.201700657
Article source: Figure 2
Adsorbate 1-butene: InChIKey VXNZUUAINFGPBY-UHFFFAOYSA-N
Kind: experiment
Temperature: 353 K
Tabular data in the source: 0
pressure (bar)	uptake (molecules/unitcell)
0.004907	23.69
0.027102	26.798
0.100124	29.761
0.187811	30.84
0.34231	32
0.477661	32.29
0.613253	32.773
0.728585	32.95
0.817297	33.095
0.968211	33.385
1.07369	33.466
