Adsorption isotherm of 1,3-butadiene on Ag-Y(195)
DOI: 10.1002/cssc.201700657
Article source: Figure 3
Adsorbate 1,3-butadiene: InChIKey KAKZBPTYRLMSJV-UHFFFAOYSA-N
Kind: experiment
Temperature: 393 K
Tabular data in the source: 0
pressure (bar)	uptake (molecules/unitcell)
3.6e-05	0.062
0.000133	0.215
0.000417	0.212
0.001463	0.242
0.005972	0.389
0.04588	1.637
0.13049	3.986
0.297212	8.655
0.626003	15.12
