Adsorption isotherm of Isobutene on Ag-Y Zeolite
DOI: 10.1002/cssc.201700657
Article source: Figure 3
Adsorbate Isobutene: InChIKey VQTUBCCKSQIDNK-UHFFFAOYSA-N
Kind: experiment
Temperature: 343 K
Tabular data in the source: 0
pressure (bar)	uptake (mmol/g)
0.001003	0.00563
0.007528	0.14897
0.016668	0.23676
0.041716	0.34023
0.100849	0.53889
0.160448	0.5829
0.209327	0.65548
0.30513	0.77139
0.401784	0.87378
0.498458	0.97242
0.610726	1.05221
0.712021	1.1118
0.813346	1.16087
0.916323	1.20167
1.0152	1.25
