Adsorption isotherm of 1,3-butadiene on Ag-Y(2.43)
DOI: 10.1002/cssc.201700657
Article source: Figure 3
Adsorbate 1,3-butadiene: InChIKey KAKZBPTYRLMSJV-UHFFFAOYSA-N
Kind: experiment
Temperature: 393 K
Tabular data in the source: 0
pressure (bar)	uptake (molecules/unitcell)
3.6e-05	29.514
0.00014	35.103
0.000464	35.977
0.001528	38.033
0.00586	39.648
0.633442	51.102
