Adsorption isotherm of 1-butene on Zeolite X
DOI: 10.1002/cssc.201700657
Article source: Figure 1
Adsorbate 1-butene: InChIKey VXNZUUAINFGPBY-UHFFFAOYSA-N
Kind: experiment
Temperature: 303 K
Tabular data in the source: 0
pressure (bar)	uptake (molecules/cavity)
7.6e-05	1.0316
0.00012	1.463
0.000206	1.9491
0.000405	2.5519
0.000773	3.1382
0.002069	3.7042
0.00566	4.0698
0.0168	4.358
0.118223	4.791
0.418315	5.0056
1.22858	5.1847
