Adsorption isotherm of 1-butene on Fe-Cu/MCM-41
DOI: 10.1002/cssc.201700657
Article source: Figure 4
Adsorbate 1-butene: InChIKey VXNZUUAINFGPBY-UHFFFAOYSA-N
Kind: experiment
Temperature: 313 K
Tabular data in the source: 0
pressure (bar)	uptake (mmol/g)
0.00116	0.007
0.007719	0.6191
0.028251	1.278
0.056769	1.7155
0.088886	1.9627
0.128216	2.1186
0.167946	2.2459
0.207676	2.3602
0.248206	2.4562
0.287123	2.5496
0.328453	2.6326
0.369383	2.7156
0.4095	2.8168
0.44923	2.8998
0.49096	2.9959
0.531876	3.0762
0.571606	3.1801
0.611336	3.2709
0.65168	3.3612
0.692116	3.458
0.733526	3.561
0.772696	3.6599
0.813146	3.7732
0.853596	3.8721
0.894033	3.9917
0.934803	4.1195
0.972707	4.2453
1.01284	4.3628
