Adsorption isotherm of Cis-2-Butene on ZIF-7
DOI: 10.1002/cssc.201700657
Article source: Figure 12
Adsorbate Cis-2-Butene: InChIKey IAQRGUVFOMOMEM-ARJAWSKDSA-N
Kind: experiment
Temperature: 373 K
Tabular data in the source: 0
pressure (bar)	uptake (mmol/g)
0.01412	0.1947
0.03713	0.2465
0.07597	0.0549
0.08002	0.2939
0.11167	0.0572
0.13969	0.3135
0.20993	0.0663
0.26096	0.3542
0.30124	0.0356
0.30889	0.3693
0.33863	0.0507
0.36639	0.5166
0.36835	0.0507
0.39034	0.691
0.40286	0.0447
0.40672	0.8404
0.41969	0.9512
0.43232	1.1359
0.43547	0.0735
0.44676	1.3077
0.46264	0.0745
0.46653	1.4962
0.49283	0.0774
0.49391	1.6442
0.53088	0.0793
0.54259	1.8017
0.56621	0.0898
0.60002	0.1163
0.65739	0.2016
0.6666	1.9688
0.77474	0.7605
0.80278	2.0883
0.82264	1.1604
0.85522	1.3558
0.89067	1.5482
0.92709	1.7046
0.93321	2.159
0.97501	1.867
1.03635	2.0173
1.06798	2.0534
1.07149	2.2159
1.1962	2.1829
