Adsorption isotherm of 1-butene on Zeolite 13X
DOI: 10.1002/cssc.201700657
Article source: Figure 2
Adsorbate 1-butene: InChIKey VXNZUUAINFGPBY-UHFFFAOYSA-N
Kind: experiment
Temperature: 393 K
Tabular data in the source: 0
pressure (bar)	uptake (molecules/unitcell)
0.003	9.054
0.023985	18.052
0.094602	24.058
0.201637	27.049
0.267504	27.918
0.331429	28.302
0.530078	29.273
0.678047	29.785
0.770389	29.938
0.851648	30.424
1.03141	30.705
1.12987	30.986
