Adsorption isotherm of 1-butene on ZIF-7
DOI: 10.1002/cssc.201700657
Article source: Figure 12
Adsorbate 1-butene: InChIKey VXNZUUAINFGPBY-UHFFFAOYSA-N
Kind: experiment
Temperature: 338 K
Tabular data in the source: 0
pressure (bar)	uptake (mmol/g)
0.06345	0.1243
0.09607	0.1973
0.11117	0.368
0.1157	0.5625
0.11751	0.035
0.12144	0.738
0.12869	0.9524
0.13171	1.1649
0.13805	1.3679
0.14348	1.5396
0.22351	0.6249
0.23891	0.9654
0.25371	1.2339
0.2667	1.2993
0.26911	1.7993
0.30112	1.5307
0.36515	1.6899
0.39927	1.7458
0.40259	1.9109
0.53094	1.8688
0.53426	1.9893
0.66533	2.0269
0.66684	1.9245
0.79722	1.9619
0.80058	2.0831
0.92689	2.0978
0.93265	1.9796
1.0652	2.0184
1.07239	2.0952
1.1999	2.0587
