Adsorption isotherm of Isobutane on Zeolite 13X
DOI: 10.1002/cssc.201700657
Article source: Figure 2
Adsorbate Isobutane: InChIKey NNPPMTNAJDCUHE-UHFFFAOYSA-N
Kind: experiment
Temperature: 333 K
Tabular data in the source: 0
pressure (bar)	uptake (molecules/unitcell)
0.000974	8.9489
0.015417	20.04
0.072917	24.9899
0.172056	26.9232
0.277594	27.6509
0.356213	28.1603
0.464408	28.5484
0.578629	28.8031
0.679689	29.1184
0.794767	29.3489
0.93994	29.6642
1.01986	29.737
1.11666	29.8461
1.27359	30.1372
1.38816	30.21
1.48248	30.4525
