Adsorption isotherm of N-Butane on Zeolite X
DOI: 10.1002/cssc.201700657
Article source: Figure 1
Adsorbate N-Butane: InChIKey IJDNQMDRQITEOD-UHFFFAOYSA-N
Kind: experiment
Temperature: 303 K
Tabular data in the source: 0
pressure (bar)	uptake (molecules/cavity)
0.000152	0.3831
0.000354	0.6219
0.000815	1.0057
0.001617	1.5903
0.002705	2.2121
0.004563	2.7527
0.009356	3.1766
0.024011	3.6057
0.114131	4.0297
0.373597	4.2862
1.27117	4.5367
