Adsorption isotherm of Cis-2-Butene on ZIF-7
DOI: 10.1002/cssc.201700657
Article source: Figure 12
Adsorbate Cis-2-Butene: InChIKey IAQRGUVFOMOMEM-ARJAWSKDSA-N
Kind: experiment
Temperature: 338 K
Tabular data in the source: 0
pressure (bar)	uptake (mmol/g)
0.03452	0.1603
0.06711	0.1926
0.0743	0.054
0.07934	0.249
0.08341	0.4155
0.08821	0.7558
0.09324	0.8996
0.09612	1.0833
0.09851	1.2422
0.10499	1.4177
0.10978	1.5871
0.11266	0.0645
0.11577	1.7399
0.13159	0.0976
0.13686	1.9168
0.16323	2.0508
0.20182	0.9106
0.20494	2.2133
0.20901	1.2638
0.22148	1.5318
0.24808	1.7915
0.26342	1.9022
0.27061	2.363
0.30825	2.1174
0.38998	2.2633
0.40125	2.4772
0.52587	2.3689
0.5331	2.5398
0.66703	2.408
0.66894	2.5825
0.79866	2.6132
0.80201	2.4513
0.92595	2.623
0.9332	2.4788
1.05801	2.59
1.06999	2.4815
1.1999	2.5279
