Adsorption isotherm of Trans-2-Butene on ZIF-7
DOI: 10.1002/cssc.201700657
Article source: Figure 12
Adsorbate Trans-2-Butene: InChIKey IAQRGUVFOMOMEM-ONEGZZNKSA-N
Kind: experiment
Temperature: 373 K
Tabular data in the source: 0
pressure (bar)	uptake (mmol/g)
0.00886	0.0902
0.0206	0.1616
0.03305	0.2307
0.06804	0.3202
0.09178	0.0414
0.12698	0.4187
0.168	0.034
0.20035	0.037
0.26673	0.0544
0.26909	0.5323
0.40121	0.0742
0.40421	0.5752
0.52899	0.6171
0.53474	0.1089
0.66712	0.158
0.67468	0.7699
0.79913	0.2022
0.80478	0.9275
0.92672	0.3038
0.93577	1.0252
1.06379	0.4617
1.06471	1.0088
1.11938	0.6467
1.16394	0.8196
1.19988	0.9564
