Adsorption isotherm of Isobutane on Zeolite 13X
DOI: 10.1002/cssc.201700657
Article source: Figure 2
Adsorbate Isobutane: InChIKey NNPPMTNAJDCUHE-UHFFFAOYSA-N
Kind: experiment
Temperature: 393 K
Tabular data in the source: 0
pressure (bar)	uptake (molecules/unitcell)
0.003938	1.8465
0.012039	3.0789
0.023983	6.4376
0.045186	9.8346
0.068449	12.6176
0.113818	16.0546
0.171242	17.9031
0.241941	18.9878
0.326565	20.1642
0.429596	21.1877
0.536809	21.8752
0.663163	22.5016
0.793908	22.8989
0.900223	23.2044
1.06851	23.5559
1.15747	23.8003
1.29018	24.0295
1.434	24.335
1.54014	24.4726
