Adsorption isotherm of 1-butene on Ag-Y(15)
DOI: 10.1002/cssc.201700657
Article source: Figure 3
Adsorbate 1-butene: InChIKey VXNZUUAINFGPBY-UHFFFAOYSA-N
Kind: experiment
Temperature: 393 K
Tabular data in the source: 0
pressure (bar)	uptake (molecules/unitcell)
0.000773	5.694
0.001764	6.436
0.004394	7.171
0.010743	10.109
0.03178	13.678
0.109745	23.036
0.643453	30.526
