Adsorption isotherm of Isobutane on Zeolite 13X
DOI: 10.1002/cssc.201700657
Article source: Figure 2
Adsorbate Isobutane: InChIKey NNPPMTNAJDCUHE-UHFFFAOYSA-N
Kind: experiment
Temperature: 373 K
Tabular data in the source: 0
pressure (bar)	uptake (molecules/unitcell)
0.015062	6.8428
0.029223	11.5172
0.056211	15.4738
0.093199	18.2693
0.132434	20.0261
0.227227	21.951
0.261367	22.4704
0.360936	23.4177
0.417532	23.7385
0.598398	24.6858
0.712295	24.9914
0.760659	25.2969
0.838243	25.4345
0.884016	25.6089
0.990125	25.7908
1.10769	25.7848
1.25479	25.9728
1.36301	26.0456
1.48228	26.1487
