Adsorption isotherm of 1-butene on Ag-Y(2.43)
DOI: 10.1002/cssc.201700657
Article source: Figure 3
Adsorbate 1-butene: InChIKey VXNZUUAINFGPBY-UHFFFAOYSA-N
Kind: experiment
Temperature: 393 K
Tabular data in the source: 0
pressure (bar)	uptake (molecules/unitcell)
0.000295	16.149
0.00078	24.838
0.00175	27.483
0.004337	29.104
0.010448	30.356
0.031568	32.571
0.108068	35.351
0.637627	39.68
