Adsorption isotherm of N-Butane on Ag-Y Zeolite
DOI: 10.1002/cssc.201700657
Article source: Figure 3
Adsorbate N-Butane: InChIKey IJDNQMDRQITEOD-UHFFFAOYSA-N
Kind: experiment
Temperature: 343 K
Tabular data in the source: 0
pressure (bar)	uptake (mmol/g)
0.000689	0.00334
0.05126	0.03051
0.101862	0.05172
0.207027	0.06791
0.401136	0.09799
0.613422	0.13036
0.810823	0.14851
1.0147	0.16781
