Adsorption isotherm of Trans-2-Butene on ZIF-7
DOI: 10.1002/cssc.201700657
Article source: Figure 12
Adsorbate Trans-2-Butene: InChIKey IAQRGUVFOMOMEM-ONEGZZNKSA-N
Kind: experiment
Temperature: 298 K
Tabular data in the source: 0
pressure (bar)	uptake (mmol/g)
0.00575	0.0184
0.006086	0.0646
0.008915	0.2063
0.009809	0.3821
0.00994	0.5847
0.010406	0.6302
0.011129	0.7993
0.011657	0.9691
0.017452	1.1286
0.018424	0.5387
0.022906	0.8524
0.032226	1.1832
0.03878	0.9546
0.042176	1.2853
0.045806	1.4403
0.048617	1.593
0.049868	1.7845
0.051549	1.9588
0.053438	2.2344
0.053643	2.1197
0.054772	2.3256
0.071164	2.4327
0.076627	1.0613
0.080258	1.2371
0.084178	1.3489
0.085905	1.4614
0.087476	1.5679
0.089181	1.6625
0.091413	1.7616
0.096296	1.8845
0.097436	2.5492
0.103015	1.9888
0.112104	2.0744
0.125499	2.1495
0.131965	2.6281
0.142161	2.6544
0.173772	2.2228
0.256348	2.3299
0.272571	2.7916
0.351342	2.8735
0.363865	2.4145
0.402198	2.9799
0.402977	2.4295
0.528798	2.4739
0.532881	3.0675
0.651343	2.5355
0.665595	3.1196
0.788515	2.5781
0.789078	3.1788
0.93246	3.1812
0.937972	2.6586
1.0479	2.7627
1.05317	3.1836
1.07686	2.888
1.12611	2.9944
1.19826	3.1056
