Adsorption isotherm of 1-butene on ZIF-7
DOI: 10.1002/cssc.201700657
Article source: Figure 12
Adsorbate 1-butene: InChIKey VXNZUUAINFGPBY-UHFFFAOYSA-N
Kind: experiment
Temperature: 373 K
Tabular data in the source: 0
pressure (bar)	uptake (mmol/g)
0.12958	0.1741
0.13872	0.0262
0.16192	0.0441
0.20111	0.0382
0.23687	0.0287
0.26349	0.1957
0.30116	0.0466
0.33236	0.0467
0.36469	0.0467
0.40272	0.2424
0.40388	0.0372
0.43203	0.0432
0.46741	0.0647
0.502	0.3761
0.50203	0.0552
0.53779	0.0588
0.54117	0.5264
0.56551	0.6732
0.56708	0.0732
0.59789	0.0863
0.63061	0.103
0.66599	0.0959
0.6735	1.3008
0.69718	0.0983
0.73218	0.1151
0.76642	0.1247
0.79989	0.139
0.80055	1.4107
0.83033	0.1868
0.86227	0.2989
0.8965	0.4469
0.92996	0.5996
0.93598	1.4585
0.96495	0.7476
0.99613	0.9385
1.03492	1.0888
1.06076	1.4777
1.06155	1.17
1.10187	1.2583
1.13534	1.3442
1.16729	1.411
1.2	1.4516
