Adsorption isotherm of N-Butane on Fe-Cu/MCM-41
DOI: 10.1002/cssc.201700657
Article source: Figure 4
Adsorbate N-Butane: InChIKey IJDNQMDRQITEOD-UHFFFAOYSA-N
Kind: experiment
Temperature: 313 K
Tabular data in the source: 0
pressure (bar)	uptake (mmol/g)
0.00088	0.0189
0.012039	0.3962
0.04293	0.8916
0.07782	1.1178
0.114737	1.2947
0.155187	1.3928
0.195624	1.4843
0.236074	1.5759
0.276511	1.6477
0.316947	1.7195
0.358904	1.7914
0.399354	1.8731
0.440297	1.935
0.483267	2.0003
0.524717	2.059
0.56718	2.121
0.606603	2.1764
0.64856	2.2515
0.69001	2.3102
0.731966	2.3722
0.772923	2.4375
0.814373	2.4913
0.855823	2.5549
0.897779	2.6185
0.937963	2.6936
0.978919	2.7687
1.02062	2.8619
