Adsorption isotherm of Isobutane on CuBTC
DOI: 10.1002/cssc.201700657
Article source: Figure 15
Adsorbate Isobutane: InChIKey NNPPMTNAJDCUHE-UHFFFAOYSA-N
Kind: experiment
Temperature: 303 K
Tabular data in the source: 0
pressure (bar)	uptake (mol/g)
0.000146	0.000391
0.000147	0.000773
0.000282	0.001201
0.000371	0.001643
0.000448	0.002104
0.000595	0.002577
0.00064	0.000297
0.000866	0.003073
0.001119	0.00356
0.001216	0.000628
0.001636	0.004009
0.002003	0.00099
0.00226	0.004464
0.002532	0.001398
0.002818	0.004896
0.003002	0.001777
0.003385	0.002266
0.003532	0.002719
0.003629	0.005403
0.003903	0.003258
0.004279	0.003818
0.004873	0.004361
0.004886	0.005893
0.006547	0.004868
0.006772	0.006195
0.009469	0.005215
0.009992	0.006477
0.013925	0.00539
0.014234	0.006645
0.019397	0.005519
0.019408	0.006787
0.024614	0.00682
0.025717	0.005615
