Adsorption isotherm of 1,3-butadiene on Ag-Y(15)
DOI: 10.1002/cssc.201700657
Article source: Figure 3
Adsorbate 1,3-butadiene: InChIKey KAKZBPTYRLMSJV-UHFFFAOYSA-N
Kind: experiment
Temperature: 393 K
Tabular data in the source: 0
pressure (bar)	uptake (molecules/unitcell)
3.6e-05	5.415
0.000134	15.466
0.001482	26.582
0.005826	32.905
