Adsorption isotherm of 1-butene on Ag-Y(195)
DOI: 10.1002/cssc.201700657
Article source: Figure 3
Adsorbate 1-butene: InChIKey VXNZUUAINFGPBY-UHFFFAOYSA-N
Kind: experiment
Temperature: 393 K
Tabular data in the source: 0
pressure (bar)	uptake (molecules/unitcell)
0.000766	0.508
0.001734	0.546
0.004266	0.476
0.010545	0.643
0.030764	0.966
0.104908	3.271
0.280645	7.814
0.631927	14.09
