Adsorption isotherm of 1,3-butadiene on Ag-Y(6)
DOI: 10.1002/cssc.201700657
Article source: Figure 3
Adsorbate 1,3-butadiene: InChIKey KAKZBPTYRLMSJV-UHFFFAOYSA-N
Kind: experiment
Temperature: 393 K
Tabular data in the source: 0
pressure (bar)	uptake (molecules/unitcell)
3.8e-05	29.995
0.000129	32.585
0.000394	36.796
0.001429	39.919
0.006236	40.341
