Adsorption isotherm of 1-butene on Cu/MCM-41
DOI: 10.1002/cssc.201700657
Article source: Figure 4
Adsorbate 1-butene: InChIKey VXNZUUAINFGPBY-UHFFFAOYSA-N
Kind: experiment
Temperature: 313 K
Tabular data in the source: 0
pressure (bar)	uptake (mmol/g)
0.001013	0.009
0.030837	0.1171
0.074954	0.2127
0.11855	0.3091
0.163293	0.3858
0.20849	0.4724
0.253073	0.5536
0.296216	0.6205
0.340012	0.6904
0.383955	0.7561
0.425192	0.8229
0.468508	0.8877
0.510958	0.9644
0.550141	1.0396
0.595378	1.0818
0.636574	1.1438
0.678784	1.2337
0.719474	1.2825
0.762697	1.3642
0.798841	1.4328
0.840544	1.4817
0.880541	1.5476
0.922057	1.6085
0.962987	1.6784
1.0001	1.7497
1.03681	1.8015
