Adsorption isotherm of Trans-2-Butene on ZIF-7
DOI: 10.1002/cssc.201700657
Article source: Figure 12
Adsorbate Trans-2-Butene: InChIKey IAQRGUVFOMOMEM-ONEGZZNKSA-N
Kind: experiment
Temperature: 338 K
Tabular data in the source: 0
pressure (bar)	uptake (mmol/g)
0.00879	0.0638
0.01665	0.132
0.03295	0.2307
0.06255	0.0238
0.06315	0.3046
0.08852	0.3387
0.09214	0.0389
0.1308	0.5056
0.13261	0.0445
0.13865	0.6478
0.14348	0.8091
0.16764	0.9874
0.24979	0.2472
0.26066	0.3496
0.2673	1.4369
0.27878	0.5754
0.30354	0.7442
0.34099	0.913
0.39293	1.0134
0.40018	1.4954
0.41769	1.5086
0.49561	1.6355
0.52762	1.1364
0.5391	1.7986
0.56688	1.9465
0.66231	1.2253
0.66654	2.4814
0.797	1.3919
0.80304	1.4412
0.80364	2.538
0.84351	1.6157
0.87491	1.7921
0.90511	1.9419
0.93108	2.5718
0.93592	2.0291
0.98182	2.1979
1.03068	2.3626
1.06711	2.5914
1.07095	2.4017
1.19847	2.5399
