Adsorption isotherm of N-Butane on ZIF-7
DOI: 10.1002/cssc.201700657
Article source: Figure 12
Adsorbate N-Butane: InChIKey IJDNQMDRQITEOD-UHFFFAOYSA-N
Kind: experiment
Temperature: 373 K
Tabular data in the source: 0
pressure (bar)	uptake (mmol/g)
0.01124	0.0154
0.07344	0.023
0.13262	0.0363
0.17427	0.2371
0.20686	0.5287
0.26354	1.5154
0.26788	0.0819
0.34814	0.7959
0.39039	1.1936
0.40182	1.6803
0.41091	1.2845
0.48456	1.5705
0.52622	1.6615
0.53527	1.8546
0.65906	1.8623
0.6657	1.9438
0.78285	2.0367
0.80036	1.9969
0.91147	2.1069
0.9308	2.0652
1.04511	2.1374
1.06794	2.116
1.20032	2.1567
