Adsorption isotherm of Isobutane on Zeolite 13X
DOI: 10.1002/cssc.201700657
Article source: Figure 2
Adsorbate Isobutane: InChIKey NNPPMTNAJDCUHE-UHFFFAOYSA-N
Kind: experiment
Temperature: 353 K
Tabular data in the source: 0
pressure (bar)	uptake (molecules/unitcell)
0.005019	9.4512
0.019122	15.6592
0.070417	19.9032
0.128703	22.3525
0.20621	23.4708
0.297653	24.0896
0.42843	25.4493
0.493492	25.5716
0.614016	26.1903
0.779381	26.4502
0.900306	26.2822
1.15099	26.7864
1.32011	27.1455
1.41782	27.1608
