Adsorption isotherm of Cis-2-Butene on ZIF-7
DOI: 10.1002/cssc.201700657
Article source: Figure 12
Adsorbate Cis-2-Butene: InChIKey IAQRGUVFOMOMEM-ARJAWSKDSA-N
Kind: experiment
Temperature: 298 K
Tabular data in the source: 0
pressure (bar)	uptake (mmol/g)
0.003454	0.0317
0.003787	0.0541
0.010316	0.3747
0.010702	0.9691
0.010705	0.4283
0.010948	0.7963
0.011103	0.5952
0.011196	1.1494
0.011512	1.3073
0.01163	1.4607
0.012167	1.6514
0.013186	1.8004
0.014701	1.9747
0.017049	0.2631
0.017455	0.8516
0.017664	0.6504
0.017699	2.1208
0.018814	1.227
0.019088	1.4192
0.019785	2.1923
0.020416	1.5652
0.0224	1.89
0.028047	2.0763
0.032941	2.3638
0.038047	2.2439
0.067753	2.3253
0.06883	2.4669
0.104887	2.5148
0.117314	2.3706
0.133186	2.386
0.139252	2.535
0.261042	2.4229
0.262627	2.6191
0.402578	2.6454
0.409129	2.4352
0.525376	2.6877
0.5274	2.4521
0.654335	2.6877
0.682669	2.4757
0.775354	2.7066
0.7826	2.4879
0.917487	2.5124
0.926787	2.6993
1.06238	2.5527
1.06417	2.6659
1.21815	2.5855
