Adsorption isotherm of 1-butene on ZIF-7
DOI: 10.1002/cssc.201700657
Article source: Figure 12
Adsorbate 1-butene: InChIKey VXNZUUAINFGPBY-UHFFFAOYSA-N
Kind: experiment
Temperature: 298 K
Tabular data in the source: 0
pressure (bar)	uptake (mmol/g)
0.005324	0.0698
0.010055	0.2324
0.010856	0.2525
0.011856	0.3919
0.012848	0.549
0.013045	0.9306
0.013202	0.7411
0.013889	1.1052
0.014414	1.4506
0.014624	1.2929
0.016949	1.6364
0.019455	1.6684
0.025585	0.6484
0.028023	0.3668
0.028736	0.9121
0.031875	1.1768
0.03519	1.8246
0.038427	1.3486
0.046128	1.5607
0.058147	1.6368
0.061772	1.935
0.07037	1.7101
0.07044	1.9678
0.092732	1.7459
0.110479	1.7877
0.13251	1.8012
0.138542	2.1259
0.167032	1.8202
0.20066	1.8596
0.236467	1.8775
0.261138	2.2079
0.267726	1.8935
0.29816	1.8964
0.327499	1.8992
0.363706	1.9124
0.395103	1.919
0.402226	2.2343
0.432185	1.9256
0.466907	1.9331
0.497485	1.9453
0.523576	2.2353
0.527157	1.9538
0.56714	1.9688
0.608471	1.9801
0.65298	2.2373
0.654636	1.9914
0.697525	1.9999
0.745247	2.0149
0.789678	2.0318
0.791097	2.2392
0.81971	2.0215
0.874561	2.0469
0.903275	2.2214
0.956555	2.0675
1.03193	2.0863
1.07063	2.1877
1.08595	2.0986
1.12559	2.107
1.20423	2.1314
