Adsorption isotherm of Trans-2-Butene on Zeolite X
DOI: 10.1002/cssc.201700657
Article source: Figure 1
Adsorbate Trans-2-Butene: InChIKey IAQRGUVFOMOMEM-ONEGZZNKSA-N
Kind: experiment
Temperature: 303 K
Tabular data in the source: 0
pressure (bar)	uptake (molecules/cavity)
9.7e-05	0.7939
0.000311	1.638
0.000515	2.1909
0.000934	2.8094
0.002383	3.4589
0.008468	3.9531
0.032931	4.3386
0.110129	4.607
0.411437	4.8699
1.15399	5.0299
