Adsorption isotherm of N-Butane on ZIF-7
DOI: 10.1002/cssc.201700657
Article source: Figure 12
Adsorbate N-Butane: InChIKey IJDNQMDRQITEOD-UHFFFAOYSA-N
Kind: experiment
Temperature: 298 K
Tabular data in the source: 0
pressure (bar)	uptake (mmol/g)
0.003826	0.9163
0.004501	1.1221
0.004641	1.2569
0.00488	1.6637
0.004902	1.4579
0.005782	1.8695
0.00683	0.4506
0.007209	0.7936
0.007771	1.1105
0.008067	2.0682
0.008795	1.4368
0.010745	1.7467
0.015659	2.3096
0.015841	2.0661
0.033758	2.4352
0.038402	2.3974
0.05788	2.4401
0.066039	2.5087
0.104544	2.4687
0.133315	2.5515
0.136653	2.4711
0.262773	2.4997
0.264478	2.6061
0.393179	2.6181
0.393369	2.514
0.522938	2.6276
0.528676	2.5236
0.657855	2.6419
0.658203	2.526
0.788678	2.5379
0.796544	2.6467
0.921828	2.6515
0.931923	2.5522
1.05955	2.6326
1.05986	2.5664
1.20121	2.5759
