Adsorption isotherm of Cis-2-Butene on Zeolite X
DOI: 10.1002/cssc.201700657
Article source: Figure 1
Adsorbate Cis-2-Butene: InChIKey IAQRGUVFOMOMEM-ARJAWSKDSA-N
Kind: experiment
Temperature: 303 K
Tabular data in the source: 0
pressure (bar)	uptake (molecules/cavity)
5.5e-05	1.0153
0.000125	1.8312
0.000275	2.5786
0.000727	3.3139
0.001763	3.8417
0.004408	4.1681
0.016133	4.4967
0.111893	4.9602
0.397743	5.1618
1.21396	5.3292
