Adsorption isotherm of 1-butene on Zeolite 13X
DOI: 10.1002/cssc.201700657
Article source: Figure 2
Adsorbate 1-butene: InChIKey VXNZUUAINFGPBY-UHFFFAOYSA-N
Kind: experiment
Temperature: 373 K
Tabular data in the source: 0
pressure (bar)	uptake (molecules/unitcell)
0.000975	15.353
0.02106	21.476
0.054626	24.786
0.109459	27.379
0.153172	28.409
0.228987	29.343
0.34135	30.149
0.423399	30.455
0.562652	30.841
0.716176	31.485
0.82678	31.824
0.959953	32.13
1.06451	32.613
