Adsorption isotherm of 1-butene on Zeolite 13X
DOI: 10.1002/cssc.201700657
Article source: Figure 2
Adsorbate 1-butene: InChIKey VXNZUUAINFGPBY-UHFFFAOYSA-N
Kind: experiment
Temperature: 333 K
Tabular data in the source: 0
pressure (bar)	uptake (molecules/unitcell)
0.00752	27.856
0.055728	31.235
0.213708	33.014
0.29311	33.562
0.391201	33.98
0.483148	34.101
0.556968	34.126
0.665534	34.238
0.763906	34.472
0.865586	34.585
1.0181	34.649
1.0752	34.641
