Adsorption isotherm of Copper(II) Ion, Water on FFA
DOI: 10.1016/j.jwpe.2017.06.009
Article source: Figure 2
Adsorbate Copper(II) Ion: InChIKey JPVYNHNXODAKFH-UHFFFAOYSA-N
Adsorbate Water: InChIKey XLYOFNOQVPJJNP-UHFFFAOYSA-N
Kind: experiment
Temperature: 303 K
Tabular data in the source: 0
pressure (bar)	Copper(II) Ion fraction	Copper(II) Ion uptake (mM/g)	Water fraction	Water uptake (mM/g)	total uptake (mM/g)
1.01325	0.1576	0.14443			
1.01325	0.2994	0.27938			
1.01325	0.5037	0.30047			
1.01325	1.0048	0.32267			
1.01325	1.5019	0.43408			
1.01325	2.0017	0.39407			
1.01325	2.5054	0.35994			
1.01325	3.0013	0.3481			
