Adsorption isotherm of Lead(II) Ion, Water on IR120
DOI: 10.1016/j.jwpe.2017.06.009
Article source: Figure 2
Adsorbate Lead(II) Ion: InChIKey RVPVRDXYQKGNMQ-UHFFFAOYSA-N
Adsorbate Water: InChIKey XLYOFNOQVPJJNP-UHFFFAOYSA-N
Kind: experiment
Temperature: 303 K
Tabular data in the source: 0
pressure (bar)	Lead(II) Ion fraction	Lead(II) Ion uptake (mM/g)	Water fraction	Water uptake (mM/g)	total uptake (mM/g)
1.01325	0.1636	0.1653			
1.01325	0.3045	0.3053			
1.01325	0.5044	0.5049			
1.01325	1.0026	1.0019			
1.01325	1.504	1.4955			
1.01325	2.0052	1.8209			
1.01325	2.5028	1.7817			
1.01325	3.0004	1.7111			
