Adsorption isotherm of Lead(II) Ion, Water on sulfonic and carboxylic functional fibrous adsorbent (FFA)
DOI: 10.1016/j.jwpe.2017.06.009
Article source: Figure 2
Adsorbate Lead(II) Ion: InChIKey RVPVRDXYQKGNMQ-UHFFFAOYSA-N
Adsorbate Water: InChIKey XLYOFNOQVPJJNP-UHFFFAOYSA-N
Kind: experiment
Temperature: 303 K
Tabular data in the source: 0
pressure (bar)	Lead(II) Ion fraction	Lead(II) Ion uptake (mM/g)	Water fraction	Water uptake (mM/g)	total uptake (mM/g)
1.01325	0.1666	0.1493			
1.01325	0.3008	0.2764			
1.01325	0.5021	0.4187			
1.01325	1	0.5914			
1.01325	1.5027	0.8064			
1.01325	2.0006	0.9383			
1.01325	2.4937	0.9549			
1.01325	2.9951	0.9258			
