Adsorption isotherm of Copper(II) Ion, Water on IR120
DOI: 10.1016/j.jwpe.2017.06.009
Article source: Figure 2
Adsorbate Copper(II) Ion: InChIKey JPVYNHNXODAKFH-UHFFFAOYSA-N
Adsorbate Water: InChIKey XLYOFNOQVPJJNP-UHFFFAOYSA-N
Kind: experiment
Temperature: 303 K
Tabular data in the source: 0
pressure (bar)	Copper(II) Ion fraction	Copper(II) Ion uptake (mM/g)	Water fraction	Water uptake (mM/g)	total uptake (mM/g)
1.01325	0.1555	0.15678			
1.01325	0.2932	0.30149			
1.01325	0.4981	0.49952			
1.01325	1.0014	0.99916			
1.01325	1.498	1.39828			
1.01325	1.9962	1.4136			
1.01325	2.5009	1.41825			
1.01325	2.9991	1.4092			
