Adsorption isotherm of Carbon Dioxide on Mg-MOF-74
DOI: 10.1021/acs.jpclett.7b01205
Article source: Figure 2
Adsorbate Carbon Dioxide: InChIKey CURLTUGMZLYLDI-UHFFFAOYSA-N
Kind: experiment
Temperature: 343 K
Tabular data in the source: 0
pressure (bar)	uptake (mol/mol)
0.005326	0.02018
0.011813	0.03837
0.018066	0.06267
0.033095	0.11128
0.058106	0.18827
0.085167	0.25514
0.117125	0.30782
0.162795	0.37672
0.236091	0.45574
0.393079	0.553
0.480972	0.59353
0.704969	0.65432
1.07813	0.72726
2.92584	0.88935
3.61826	0.93799
4.87147	0.9927
6.28579	1.04943
8.11073	1.11428
