Adsorption isotherm of Carbon Dioxide on Mg-MOF-74
DOI: 10.1021/acs.jpclett.7b01205
Article source: Figure 2
Adsorbate Carbon Dioxide: InChIKey CURLTUGMZLYLDI-UHFFFAOYSA-N
Kind: experiment
Temperature: 298 K
Tabular data in the source: 0
pressure (bar)	uptake (mol/mol)
0.00127	0.0466
0.002699	0.09926
0.004217	0.1418
0.005987	0.18637
0.007891	0.24108
0.01194	0.31605
0.018653	0.39102
0.02538	0.466
0.036808	0.53287
0.05062	0.58352
0.070357	0.63823
0.093722	0.6747
0.12889	0.70913
0.177252	0.74357
0.271075	0.78409
0.364956	0.82866
0.594853	0.88133
0.775747	0.92794
1.05558	0.97859
1.48283	1.04546
1.85332	1.10828
2.46888	1.19339
3.58047	1.29674
4.82059	1.38185
5.89848	1.44265
8.37452	1.52978
