Adsorption isotherm of Carbon Dioxide on ELM-11
DOI: 10.1016/j.jcis.2009.03.020
Adsorbate Carbon Dioxide: InChIKey CURLTUGMZLYLDI-UHFFFAOYSA-N
Temperature: 298 K
Tabular data in the source: 0
pressure (bar)	uptake (mg/g)
0.0651864	0.608589
0.266195	1.26405
0.419136	2.24724
0.563338	3.23044
0.589556	3.8859
0.641993	6.18002
0.657287	18.3061
0.661657	28.4657
0.685691	56.3229
0.709724	83.5246
0.729388	104.172
0.764346	123.18
0.792749	132.029
0.856111	141.205
0.912918	145.138
0.991573	146.121
