Adsorption isotherm of Methane on ELM-11
DOI: 10.1016/j.jcis.2009.03.020
Adsorbate Methane: InChIKey VNWKTOKETHGBQD-UHFFFAOYSA-N
Temperature: 303 K
Tabular data in the source: 0
pressure (bar)	uptake (mg/g)
20.9278	2.07873
31.1748	4.17621
39.8925	35.114
44.9395	48.7476
50.1395	52.2871
55.0336	52.8115
60.2336	52.8115
