Adsorption isotherm of Carbon Dioxide on ELM-11
DOI: 10.1016/j.jcis.2009.03.020
Adsorbate Carbon Dioxide: InChIKey CURLTUGMZLYLDI-UHFFFAOYSA-N
Temperature: 298 K
Tabular data in the source: 0
pressure (bar)	uptake (mg/g)
0.0586318	1.24843
0.215943	1.24843
0.368884	2.12238
0.510901	2.99633
0.593926	2.99633
0.61796	2.99633
0.652918	8.24002
0.668212	28.7778
0.722834	95.198
0.768716	124.475
0.797119	134.089
0.891069	144.576
0.993758	147.198
