Adsorption isotherm of Carbon Dioxide on ACF
DOI: 10.1016/j.jcis.2009.03.020
Adsorbate Carbon Dioxide: InChIKey CURLTUGMZLYLDI-UHFFFAOYSA-N
Temperature: 298 K
Tabular data in the source: 0
pressure (bar)	uptake (mg/g)
0.0193041	2.04748
0.0826654	7.64076
0.18317	16.3803
0.253086	22.6727
0.351405	27.9164
0.454094	32.8105
0.554598	39.1029
0.659472	44.6962
0.790565	50.2895
0.897623	55.1836
1.00687	61.1265
