Adsorption isotherm of Methane on ELM-11
DOI: 10.1016/j.jcis.2009.03.020
Adsorbate Methane: InChIKey VNWKTOKETHGBQD-UHFFFAOYSA-N
Temperature: 303 K
Tabular data in the source: 0
pressure (bar)	uptake (mg/g)
30.8689	3.25856
35.6101	6.1426
40.5042	24.7577
45.0925	43.3728
50.2925	52.5493
55.6454	52.9426
61.3042	54.2535
