Adsorption isotherm of Carbon Dioxide on ELM-11
DOI: 10.1016/j.jcis.2009.03.020
Adsorbate Carbon Dioxide: InChIKey CURLTUGMZLYLDI-UHFFFAOYSA-N
Temperature: 258 K
Tabular data in the source: 0
pressure (bar)	uptake (mg/g)
0.0221778	1.26405
0.0864131	2.90271
0.151959	4.54136
0.159825	8.80187
0.163758	21.5834
0.172934	54.3565
0.181455	86.8019
0.189321	103.516
0.19522	111.709
0.205052	121.541
0.229959	133.012
0.250934	137.928
0.273875	141.205
0.293539	143.172
