Adsorption isotherm of Methane on ELM-11
DOI: 10.1016/j.jcis.2009.03.020
Adsorbate Methane: InChIKey VNWKTOKETHGBQD-UHFFFAOYSA-N
Temperature: 303 K
Tabular data in the source: 0
pressure (bar)	uptake (mg/g)
21.5395	1.94764
31.0219	3.78293
39.7395	34.5897
45.2454	49.0098
50.2925	54.3846
55.1866	55.0401
61.1513	55.4334
