Adsorption isotherm of Methane on ELM-11
DOI: 10.1016/j.jcis.2009.03.020
Adsorbate Methane: InChIKey VNWKTOKETHGBQD-UHFFFAOYSA-N
Temperature: 303 K
Tabular data in the source: 0
pressure (bar)	uptake (g/ml)
0.58658	0.000811
5.32776	0.000374
9.76305	0.000374
14.6572	-6.25e-05
19.5513	-6.25e-05
24.1395	-6.25e-05
28.4219	0.000374
38.0572	0.0209123
41.8807	0.0510636
46.316	0.143702
54.8807	0.169921
63.2925	0.172543
