Adsorption isotherm of Carbon Dioxide on ELM-11
DOI: 10.1016/j.jcis.2009.03.020
Adsorbate Carbon Dioxide: InChIKey CURLTUGMZLYLDI-UHFFFAOYSA-N
Temperature: 258 K
Tabular data in the source: 0
pressure (bar)	uptake (mg/g)
0.154766	5.61818
0.163506	21.7862
0.17006	38.3913
0.176615	67.6686
0.185355	86.4585
0.191909	104.374
0.205018	120.106
0.229052	133.652
0.272749	141.954
0.331741	147.635
0.4388	153.753
0.624514	160.744
0.740312	165.551
0.904178	170.358
