Adsorption isotherm of Methane on ELM-11
DOI: 10.1016/j.jcis.2009.03.020
Adsorbate Methane: InChIKey VNWKTOKETHGBQD-UHFFFAOYSA-N
Temperature: 303 K
Tabular data in the source: 0
pressure (bar)	uptake (mg/g)
21.5395	2.07873
31.1748	4.17621
40.1983	36.556
45.3983	50.3207
50.1395	53.467
55.0336	54.2535
