Adsorption isotherm of Carbon Dioxide on ELM-11
DOI: 10.1016/j.jcis.2009.03.020
Adsorbate Carbon Dioxide: InChIKey CURLTUGMZLYLDI-UHFFFAOYSA-N
Temperature: 273 K
Tabular data in the source: 0
pressure (bar)	uptake (mg/g)
0.235607	6.9416
0.312077	9.03908
0.323002	19.1769
0.336111	44.6962
0.351405	90.1416
0.364514	107.621
0.384178	123.701
0.390733	128.595
0.43006	139.083
0.51527	144.326
0.615775	147.123
0.768716	149.92
0.87359	150.968
1.00905	152.367
