Adsorption isotherm of Carbon Dioxide on ELM-11
DOI: 10.1016/j.jcis.2009.03.020
Adsorbate Carbon Dioxide: InChIKey CURLTUGMZLYLDI-UHFFFAOYSA-N
Temperature: 298 K
Tabular data in the source: 0
pressure (bar)	uptake (mg/g)
0.0127495	3.09622
0.111069	4.14496
0.209388	5.1937
0.355775	7.29118
0.460649	7.29118
0.567707	8.33992
0.69443	9.03908
0.744682	10.787
0.786195	18.8273
0.805859	46.0945
0.849556	91.5399
0.87359	106.572
0.906363	121.254
0.969724	134.538
1.01561	139.782
