Adsorption isotherm of Carbon Dioxide on ELM-11
DOI: 10.1016/j.jcis.2009.03.020
Adsorbate Carbon Dioxide: InChIKey CURLTUGMZLYLDI-UHFFFAOYSA-N
Temperature: 273 K
Tabular data in the source: 0
pressure (bar)	uptake (mg/g)
0.239976	2.55935
0.312077	3.87028
0.325186	17.4165
0.331741	42.3241
0.342665	68.1056
0.364514	106.122
0.384178	122.727
0.419136	136.274
0.482497	142.828
0.565523	145.013
0.666027	148.509
0.770901	150.694
0.871405	151.568
0.967539	151.568
