Adsorption isotherm of Carbon Dioxide on ACF
DOI: 10.1016/j.jcis.2009.03.020
Adsorbate Carbon Dioxide: InChIKey CURLTUGMZLYLDI-UHFFFAOYSA-N
Temperature: 273 K
Tabular data in the source: 0
pressure (bar)	uptake (mg/g)
0.0105646	2.74664
0.0739259	12.1853
0.152581	23.3719
0.250901	34.5584
0.362329	45.3954
0.460649	55.8828
0.585186	67.7685
0.692245	77.9063
0.786195	86.2962
0.886699	93.6374
1.00905	104.824
