Adsorption isotherm of Carbon Dioxide on ELM-11
DOI: 10.1016/j.jcis.2009.03.020
Adsorbate Carbon Dioxide: InChIKey CURLTUGMZLYLDI-UHFFFAOYSA-N
Temperature: 248 K
Tabular data in the source: 0
pressure (bar)	uptake (mg/g)
0.102329	5.1812
0.113254	36.2064
0.121993	76.4081
0.130733	115.299
0.159136	140.206
0.1788	145.013
0.215943	150.694
0.261825	154.627
0.419136	162.492
0.624514	170.795
0.725018	174.29
0.829892	176.912
0.980649	180.845
