Adsorption isotherm of Methane on ACF
DOI: 10.1016/j.jcis.2009.03.020
Adsorbate Methane: InChIKey VNWKTOKETHGBQD-UHFFFAOYSA-N
Temperature: 303 K
Tabular data in the source: 0
pressure (bar)	uptake (g/ml)
0.58658	0.00255935
1.0454	0.0121728
1.65717	0.0217862
4.71599	0.0445089
9.91599	0.0698535
14.5042	0.0895173
20.163	0.103938
30.2572	0.126223
39.8925	0.142828
50.5983	0.155938
60.2336	0.165988
