Adsorption isotherm of Methane on ELM-11
DOI: 10.1016/j.jcis.2009.03.020
Adsorbate Methane: InChIKey VNWKTOKETHGBQD-UHFFFAOYSA-N
Temperature: 303 K
Tabular data in the source: 0
pressure (bar)	uptake (mg/g)
22.6101	1.81655
30.716	2.6031
40.0454	29.6081
44.9395	46.2569
49.8336	52.6804
60.8454	54.2535
