Adsorption isotherm of Nitrogen on 437-MOF
DOI: 10.1039/C4ta00963k
Adsorbate Nitrogen: InChIKey IJGRMHOSHXDMSA-UHFFFAOYSA-N
Temperature: 77 K
Tabular data in the source: 0
pressure (bar)	uptake (cm3(STP)/g)
0.0021231	61.4991
0.00374484	25.8249
0.00381646	39.7068
0.00548936	13.9482
0.00585771	85.3409
0.0113676	103.255
0.0204585	115.265
0.0331204	119.386
0.0421806	125.446
0.0566689	133.555
0.0801559	135.826
0.10551	150.017
0.119989	156.144
0.132671	164.231
0.141711	166.325
0.152597	176.373
0.161677	186.399
0.168942	194.42
0.174432	208.369
0.178125	224.278
0.178249	248.075
0.192808	270.067
0.227141	274.453
0.256046	276.79
0.284951	279.127
0.313855	281.464
0.344556	281.84
0.353606	285.917
0.364452	288.033
0.39154	288.365
0.422241	288.741
0.44935	293.039
0.476449	295.353
0.508955	295.751
0.53787	300.072
0.566765	300.425
0.59566	300.779
0.624554	301.133
0.655276	305.475
0.682374	307.79
0.695016	307.945
0.709473	310.105
0.722125	312.243
0.738379	312.442
0.752845	316.585
0.76911	318.768
0.781771	322.889
0.796219	323.066
0.810686	327.209
0.823327	327.364
0.830561	329.435
0.845019	331.595
0.855875	335.694
0.868537	339.815
0.877587	343.892
0.89028	353.963
0.901156	362.028
0.913838	370.115
0.922939	384.108
0.933867	402.088
0.943029	427.98
0.954101	473.724
0.963457	537.295
