Adsorption isotherm of Nitrogen on 437-MOF
DOI: 10.1039/C4ta00963k
Adsorbate Nitrogen: InChIKey IJGRMHOSHXDMSA-UHFFFAOYSA-N
Temperature: 77 K
Tabular data in the source: 0
pressure (bar)	uptake (cm3(STP)/g)
0.0021231	61.4991
0.00374484	25.8249
0.00381646	39.7068
0.00415411	105.15
0.00548936	13.9482
0.00584747	83.3577
0.00607257	126.987
0.00621582	154.75
0.00998111	184.542
0.0245001	198.6
0.0498647	214.775
0.0716072	228.922
0.0951251	237.142
0.118715	259.244
0.133213	269.337
0.153231	299.327
0.165975	319.313
0.17326	331.3
0.178791	353.181
0.179128	418.624
0.179261	444.405
0.182535	379.006
0.188362	458.397
0.237204	474.86
0.276975	483.279
0.31493	489.693
0.351079	496.084
0.374586	502.321
0.396267	504.57
0.410735	508.713
0.428794	508.934
0.450475	511.183
0.468565	517.353
0.490246	519.602
0.511928	521.85
0.531813	526.06
0.549882	528.264
0.567942	528.485
0.587827	532.695
0.605897	534.899
0.625782	539.109
0.643842	539.33
0.663716	541.556
0.685418	547.771
0.703487	549.975
0.725179	554.207
0.743249	556.411
0.761328	560.599
0.779408	564.786
0.802916	571.023
0.824586	571.288
0.839054	575.432
0.857144	581.602
0.878825	583.851
0.896915	590.021
0.913209	598.153
0.934952	612.3
0.947675	628.32
0.960378	640.373
0.96404	650.333
