Adsorption isotherm of Nitrogen on 437-MOF
DOI: 10.1039/C4ta00963k
Adsorbate Nitrogen: InChIKey IJGRMHOSHXDMSA-UHFFFAOYSA-N
Temperature: 77 K
Tabular data in the source: 0
pressure (bar)	uptake (cm3(STP)/g)
0.0021231	61.4991
0.00374484	25.8249
0.00381646	39.7068
0.00548936	13.9482
0.00584747	83.3577
0.00601118	115.088
0.00796034	142.874
0.0242954	158.938
0.036988	169.008
0.0514865	179.101
0.0768511	195.275
0.0949716	207.395
0.10946	215.505
0.131203	229.652
0.145762	251.643
0.160281	265.702
0.163964	279.628
0.17127	295.582
0.17679	315.48
0.176944	345.226
0.180658	365.102
0.191503	367.218
0.234897	377.664
0.276473	386.105
0.312643	396.463
0.35422	404.905
0.375911	409.136
0.393991	413.324
0.415682	417.555
0.435568	421.765
0.453638	423.969
0.471727	430.14
0.489797	432.344
0.507855	432.565
0.529568	440.763
0.547647	444.951
0.562105	447.111
0.585602	451.364
0.605498	457.557
0.625373	459.783
0.643473	467.937
0.665174	474.152
0.68507	480.345
0.701375	490.459
0.721271	496.652
0.741176	504.828
0.761103	516.97
0.779203	525.123
0.804526	533.366
0.822596	535.57
0.842512	545.729
0.860592	549.916
0.878672	554.104
0.896762	560.274
0.916647	564.484
0.936573	576.626
0.94746	586.674
0.958346	596.723
