Adsorption isotherm of Nitrogen on 437-MOF
DOI: 10.1039/C4ta00963k
Adsorbate Nitrogen: InChIKey IJGRMHOSHXDMSA-UHFFFAOYSA-N
Temperature: 77 K
Tabular data in the source: 0
pressure (bar)	uptake (cm3(STP)/g)
0.0021231	61.4991
0.00270631	174.537
0.0028291	198.335
0.00374484	25.8249
0.00381646	39.7068
0.00415411	105.15
0.00548936	13.9482
0.00584747	83.3577
0.00607257	126.987
0.00621582	154.75
0.00832869	214.266
0.0318669	226.453
0.0464063	244.478
0.0645269	256.598
0.0916872	270.811
0.106207	284.87
0.126164	302.962
0.138927	326.914
0.157099	348.949
0.169873	374.885
0.181149	460.292
0.181302	490.039
0.182668	404.787
0.182791	428.584
0.183272	521.791
0.192394	539.75
0.237603	552.202
0.279191	562.626
0.31537	574.967
0.353315	579.398
0.376791	579.685
0.398493	585.9
0.414746	586.099
0.429214	590.242
0.450906	594.474
0.470781	596.7
0.492472	600.932
0.512337	601.175
0.526815	607.302
0.546691	609.528
0.568371	611.777
0.588247	614.003
0.608142	620.196
0.629813	620.461
0.644271	622.621
0.664156	626.831
0.684022	627.074
0.703897	629.3
0.721967	631.505
0.743658	635.736
0.761727	637.941
0.779807	642.128
0.801488	644.377
0.819557	646.581
0.839443	650.79
0.857523	654.978
0.877439	665.137
0.897335	671.329
0.915465	685.432
0.939024	701.585
0.9499	709.65
0.957154	715.688
0.966225	723.731
