Adsorption isotherm of Nitrogen on 437-MOF
DOI: 10.1039/C4ta00963k
Adsorbate Nitrogen: InChIKey IJGRMHOSHXDMSA-UHFFFAOYSA-N
Temperature: 77 K
Tabular data in the source: 0
pressure (bar)	uptake (cm3(STP)/g)
0.0021231	61.4991
0.00374484	25.8249
0.00381646	39.7068
0.00415411	105.15
0.00548936	13.9482
0.00584747	83.3577
0.00607257	126.987
0.0152045	146.928
0.0333864	170.947
0.0550983	179.145
0.0768511	195.275
0.0985733	205.456
0.122142	223.592
0.143936	247.655
0.16573	271.718
0.180279	291.726
0.182187	311.58
0.182341	341.327
0.187922	373.123
0.209675	389.253
0.233204	399.457
0.265751	407.787
0.289248	412.041
0.318163	416.361
0.347109	426.631
0.372412	430.906
0.421192	435.47
0.459199	451.799
0.506193	460.307
0.540526	464.693
0.591112	469.279
0.639912	477.809
0.676051	482.217
0.712211	490.592
0.746564	498.945
0.775489	505.248
0.80623	513.556
0.826095	513.8
0.847787	518.031
0.885752	526.428
0.920146	542.714
