Adsorption isotherm of Nitrogen on Cu(bpy)2(BF4)2
DOI: 10.1080/17458080500447241
Adsorbate Nitrogen: InChIKey IJGRMHOSHXDMSA-UHFFFAOYSA-N
Temperature: 77 K
Tabular data in the source: 0
pressure (bar)	uptake (mmol/g)
0.00725015	0.000399097
0.0181254	0.0544767
0.0435009	0.00239458
0.0580012	0.00319277
0.0688764	0.110749
0.0725015	0.378344
0.0761266	0.806375
0.0942519	4.49742
0.119627	5.94275
0.137753	6.85289
0.195754	8.35349
0.24288	9.15827
0.293631	9.74933
0.340757	10.2332
0.391508	10.5034
0.438634	10.7199
0.496635	11.044
0.540136	11.0464
0.594512	11.2098
0.630763	11.3188
0.681514	11.3216
0.732265	11.4313
0.783016	11.4341
0.837392	11.5441
0.880893	11.7069
0.924394	11.8163
0.975145	12.2469
