Adsorption isotherm of Hydrogen on PFeA
DOI: 10.1016/j.cej.2010.12.056
Article source: Figure 1b
Adsorbate Hydrogen: InChIKey UFHFLCQGNIYNRP-UHFFFAOYSA-N
Kind: experiment
Temperature: 298 K
Tabular data in the source: 0
pressure (bar)	uptake (mol/g)
2.29787	0.000139
5.10638	0.00031
9.70213	0.00065
15.0638	0.001053
20.1702	0.001471
25.0213	0.00195
29.8723	0.002322
34.9787	0.002678
40.0851	0.003003
45.7021	0.003313
50.0426	0.003561
55.1489	0.003855
60.2553	0.004118
65.1064	0.004459
70.2128	0.004691
75.0638	0.005109
79.9149	0.005357
84.766	0.005667
89.8723	0.005961
94.9787	0.006394
97.7872	0.006626
