Adsorption isotherm of Hydrogen on PA
DOI: 10.1016/j.cej.2010.12.056
Article source: Figure 1b
Adsorbate Hydrogen: InChIKey UFHFLCQGNIYNRP-UHFFFAOYSA-N
Kind: experiment
Temperature: 298 K
Tabular data in the source: 0
pressure (bar)	uptake (mol/g)
10.4681	0.000681
15.0638	0.000945
20.1702	0.001362
25.5319	0.001796
30.1277	0.002152
35.234	0.002415
40.3404	0.00274
45.1915	0.003081
50.2979	0.003329
55.1489	0.003561
60.2553	0.003593
64.8511	0.003794
70.2128	0.004011
75.3191	0.004259
79.9149	0.004522
85.0213	0.004739
90.1277	0.004895
94.9787	0.005096
98.0426	0.005236
