Adsorption isotherm of Hydrogen on PBA
DOI: 10.1016/j.cej.2010.12.056
Article source: Figure 1b
Adsorbate Hydrogen: InChIKey UFHFLCQGNIYNRP-UHFFFAOYSA-N
Kind: experiment
Temperature: 298 K
Tabular data in the source: 0
pressure (bar)	uptake (mol/g)
9.95745	0.000558
15.3191	0.000852
19.9149	0.001146
25.0213	0.001425
30.1277	0.001673
34.9787	0.001921
40.0851	0.002153
44.9362	0.002401
50.0426	0.002633
55.1489	0.00285
60.2553	0.003052
64.8511	0.003253
70.2128	0.003409
75.0638	0.003626
79.9149	0.003781
85.0213	0.003936
89.8723	0.004091
94.7234	0.004246
97.7872	0.00437
