Adsorption isotherm of Hydrogen on PA
DOI: 10.1016/j.cej.2010.12.056
Article source: Figure 1a
Adsorbate Hydrogen: InChIKey UFHFLCQGNIYNRP-UHFFFAOYSA-N
Kind: experiment
Temperature: 77 K
Tabular data in the source: 0
pressure (bar)	uptake (mol/g)
2.1097	0.000943
8.43882	0.002075
21.097	0.003094
33.7553	0.004038
54.8523	0.004943
69.6203	0.00566
88.6076	0.006264
111.814	0.006981
137.131	0.00766
166.667	0.008302
200.422	0.008906
236.287	0.009509
274.262	0.010075
322.785	0.010679
371.308	0.011245
419.831	0.011736
476.793	0.012226
546.414	0.012717
607.595	0.013132
672.996	0.013623
736.287	0.013962
784.81	0.014528
