Adsorption isotherm of Hydrogen on PBA
DOI: 10.1016/j.cej.2010.12.056
Article source: Figure 1a
Adsorbate Hydrogen: InChIKey UFHFLCQGNIYNRP-UHFFFAOYSA-N
Kind: experiment
Temperature: 77 K
Tabular data in the source: 0
pressure (bar)	uptake (mol/g)
8.43882	0.001358
21.097	0.002755
42.1941	0.003887
90.7173	0.005925
120.253	0.006906
160.338	0.007887
200.422	0.008717
242.616	0.009509
284.81	0.010189
331.224	0.010793
381.857	0.011472
440.928	0.012075
506.329	0.012679
569.62	0.013208
609.705	0.013509
632.911	0.013736
658.228	0.013849
691.983	0.014151
719.409	0.014264
740.506	0.014415
782.7	0.014679
