Adsorption isotherm of Hydrogen on PTiA
DOI: 10.1016/j.cej.2010.12.056
Article source: Figure 1b
Adsorbate Hydrogen: InChIKey UFHFLCQGNIYNRP-UHFFFAOYSA-N
Kind: experiment
Temperature: 298 K
Tabular data in the source: 0
pressure (bar)	uptake (mol/g)
5.10638	0.000217
9.95745	0.000449
14.8085	0.000682
20.1702	0.00093
25.0213	0.001131
30.1277	0.001348
34.9787	0.00155
40.0851	0.001767
45.1915	0.001953
50.0426	0.002123
55.1489	0.002325
60	0.002465
65.1064	0.002635
69.7021	0.002837
75.0638	0.002977
80.1702	0.003147
85.0213	0.003256
89.8723	0.003411
94.7234	0.00352
97.7872	0.00352
