Adsorption isotherm of Hydrogen on PSiA
DOI: 10.1016/j.cej.2010.12.056
Article source: Figure 1b
Adsorbate Hydrogen: InChIKey UFHFLCQGNIYNRP-UHFFFAOYSA-N
Kind: experiment
Temperature: 298 K
Tabular data in the source: 0
pressure (bar)	uptake (mol/g)
14.5532	0.000744
20.1702	0.001038
25.0213	0.001317
30.1277	0.001565
35.234	0.001797
40.0851	0.002014
44.9362	0.002216
50.2979	0.002448
55.1489	0.00268
60	0.002882
64.8511	0.003053
70.2128	0.003254
74.8085	0.003456
79.6596	0.003564
85.0213	0.00375
89.8723	0.003921
94.9787	0.004076
97.7872	0.004138
