Adsorption isotherm of Hydrogen on PFeA
DOI: 10.1016/j.cej.2010.12.056
Article source: Figure 1a
Adsorbate Hydrogen: InChIKey UFHFLCQGNIYNRP-UHFFFAOYSA-N
Kind: experiment
Temperature: 77 K
Tabular data in the source: 0
pressure (bar)	uptake (mol/g)
33.7553	0.00317
54.8523	0.004151
75.9494	0.004906
101.266	0.005698
130.802	0.006491
166.667	0.007283
200.422	0.007849
238.397	0.008528
276.371	0.009019
327.004	0.00966
377.637	0.010264
430.38	0.010755
485.232	0.011283
540.084	0.011774
594.937	0.012189
647.679	0.012491
698.312	0.012793
761.603	0.013208
780.591	0.014
782.7	0.013321
