Adsorption isotherm of Hydrogen on PSiA
DOI: 10.1016/j.cej.2010.12.056
Article source: Figure 1a
Adsorbate Hydrogen: InChIKey UFHFLCQGNIYNRP-UHFFFAOYSA-N
Kind: experiment
Temperature: 77 K
Tabular data in the source: 0
pressure (bar)	uptake (mol/g)
16.8776	0.002302
27.4262	0.003245
46.4135	0.004226
71.73	0.005094
97.0464	0.005925
120.253	0.006528
154.008	0.007283
189.873	0.007925
225.738	0.008491
270.042	0.009132
312.236	0.00966
360.759	0.010151
417.722	0.010641
455.696	0.010981
512.658	0.011434
571.73	0.011811
635.021	0.012226
698.312	0.012566
753.165	0.012868
782.7	0.013472
