Adsorption isotherm of Hydrogen on PTiA
DOI: 10.1016/j.cej.2010.12.056
Article source: Figure 1a
Adsorbate Hydrogen: InChIKey UFHFLCQGNIYNRP-UHFFFAOYSA-N
Kind: experiment
Temperature: 77 K
Tabular data in the source: 0
pressure (bar)	uptake (mol/g)
4.21941	0.001094
14.7679	0.002113
29.5359	0.003094
48.5232	0.003962
69.6203	0.004642
97.0464	0.005321
124.473	0.005925
160.338	0.006642
202.532	0.007283
251.055	0.007962
295.359	0.008415
348.101	0.008906
407.173	0.009434
457.806	0.009774
506.329	0.010113
548.523	0.010377
601.266	0.010641
647.679	0.010943
713.08	0.011245
774.262	0.011547
780.591	0.011736
782.7	0.012528
