Adsorption isotherm of Nitrogen on TFB-BD(Me)2
DOI: 10.1039/d1cc04650k
Article source: Figure S5
Adsorbate Nitrogen: InChIKey IJGRMHOSHXDMSA-UHFFFAOYSA-N
Kind: experiment
Temperature: 77 K
Tabular data in the source: 0
pressure (bar)	uptake ()
0.078539	185.527
0.100874	233.972
0.113761	200.245
0.126399	238.327
0.139038	209.452
0.15466	244.09
0.165143	215.429
0.179388	249.25
0.195097	220.721
0.208446	253.995
0.22212	223.789
0.237422	255.144
0.251748	224.488
0.263143	258.099
0.275781	225.439
0.290492	259.419
0.30384	231.171
0.31784	261.272
0.331515	235.19
0.345189	264.056
0.358863	237.309
0.372538	265.243
0.385886	238.895
0.399886	266.164
0.413561	241.945
0.427235	267.085
0.440909	244.33
0.454584	268.405
0.468258	245.916
0.481932	270.391
0.495607	247.635
0.509281	271.445
0.522955	249.887
0.53663	273.563
0.550304	251.872
0.563978	275.549
0.579281	252.166
0.591327	276.337
0.605001	253.183
0.618676	277.524
0.63235	254.769
0.646024	278.978
0.658071	257.268
0.673373	280.298
0.686722	259.424
0.700722	281.352
0.71407	261.239
0.72807	282.273
0.741745	264.44
0.755419	283.859
0.769093	266.958
0.782768	285.579
0.795682	266.327
0.810116	287.298
0.825057	269.509
0.839744	285.425
0.851465	272.021
0.867093	286.08
0.893198	285.949
0.880767	277.826
0.919511	289.918
0.937744	283.692
0.948683	306.059
0.966915	289.369
0.976032	319.459
0.987883	292.155
1.00156	330.998
1.00384	312.549
0.99472	302.529
1.02298	325.349
0.087127	216.214
0.044101	167.253
0.052706	138.617
0.044101	124.303
0.029042	115.267
0.020437	106.982
0.011832	85.8868
0.007529	75.3394
0.001076	62.5324
0.007529	52.7345
0.009681	121.302
