Adsorption isotherm of Nitrogen on 1M NaOH treated 4PE-1P-COF
DOI: 10.1021/jacs.6b08377
Article source: Figure S17
Adsorbate Nitrogen: InChIKey IJGRMHOSHXDMSA-UHFFFAOYSA-N
Kind: experiment
Temperature: 77 K
Tabular data in the source: 0
pressure (bar)	uptake (cm3(STP)/g)
0.007432	121.052
0.014864	127.887
0.029729	130.732
0.044593	135.571
0.054502	138.703
0.069367	139.268
0.081754	141.117
0.086708	142.397
0.099095	144.103
0.126347	146.66
0.138733	148.65
0.163507	151.208
0.185804	154.335
0.198191	156.041
0.242784	163.721
0.299763	169.688
0.361698	171.665
0.428587	172.785
0.448406	173.065
0.515296	175.325
0.554934	176.454
0.611914	175.868
0.666416	176.422
0.706054	176.126
0.758079	176.966
0.807627	177.237
0.864607	178.646
0.914155	180.056
0.002477	118.489
0.04707	140.129
0.089186	147.24
0.11396	149.797
0.173417	156.903
0.213055	160.595
0.257648	171.409
0.304718	172.82
0.344356	173.664
0.359221	173.945
0.4162	175.638
0.463271	177.049
0.488045	177.612
0.559889	178.446
0.572276	178.728
0.639165	179.564
0.658984	179.558
0.715964	179.827
0.73826	179.251
0.787808	179.237
0.829924	180.08
0.864607	180.64
0.943883	182.042
