Adsorption isotherm of Nitrogen on [C6H3 (C6H4NH) 3 ] 2 [C6H4 (CO) 2 ] 3
DOI: 10.1021/jacs.6b08377
Article source: Figure 2G
Adsorbate Nitrogen: InChIKey IJGRMHOSHXDMSA-UHFFFAOYSA-N
Kind: experiment
Temperature: 77 K
Tabular data in the source: 0
pressure (bar)	uptake (cm3(STP)/g)
0.015241	20.6955
0.015081	32.977
0.014944	43.504
0.014807	54.0311
0.01467	64.5581
0.024953	75.031
0.035167	90.7674
0.055846	102.941
0.068665	118.664
0.084203	125.6
0.110184	130.729
0.138793	134.089
0.143797	149.852
0.169709	160.244
0.187852	167.167
0.211205	174.064
0.229371	179.232
0.234512	184.469
0.247354	198.437
0.265406	212.379
0.280921	221.07
0.296414	231.516
0.322326	241.907
0.364074	236.427
0.410962	236.184
0.444758	241.271
0.509927	237.424
0.572422	238.854
0.611382	247.423
0.658271	247.18
0.718184	246.869
0.77026	248.353
0.814407	258.65
0.866528	256.624
0.913371	259.89
0.960123	270.173
1.00921	301.497
0.019537	90.8486
0.052853	132.781
0.104769	146.546
0.161734	172.566
0.182528	175.967
0.211091	182.836
0.237003	193.228
0.26271	219.41
0.285971	233.324
0.309347	238.466
0.400428	245.01
0.429083	244.862
0.460365	242.945
0.488996	244.55
0.517582	249.665
0.567075	249.408
0.616478	256.169
0.704954	262.727
0.809083	267.449
0.910629	270.431
1.00651	308.529
