Adsorption isotherm of Nitrogen on [C2(C6H4NH)4][C6H4(CO)2]2
DOI: 10.1021/jacs.6b08377
Article source: Figure 2H
Adsorbate Nitrogen: InChIKey IJGRMHOSHXDMSA-UHFFFAOYSA-N
Kind: experiment
Temperature: 77 K
Tabular data in the source: 0
pressure (bar)	uptake (cm3(STP)/g)
0.010313	56.4103
0.007735	71.7949
0.007735	87.1795
0.012891	100
0.012891	112.821
0.012891	148.718
0.020626	171.795
0.025782	184.615
0.036095	207.692
0.051565	220.513
0.069613	238.462
0.092817	258.974
0.097973	264.103
0.123756	276.923
0.167586	297.436
0.167586	297.436
0.141803	287.179
0.154695	292.308
0.177899	323.077
0.201103	341.026
0.208838	348.718
0.219151	364.103
0.23462	376.923
0.252668	392.308
0.286185	400
0.332594	389.744
0.311968	397.436
0.345485	400
0.371267	402.564
0.407363	407.692
0.453771	410.256
0.495023	412.821
0.567214	417.949
0.613622	425.641
0.667765	438.462
0.703861	433.333
0.758004	443.59
0.82246	453.846
0.858555	466.667
0.915277	482.051
0.948794	494.872
0.990046	592.308
0.018048	207.692
0.056721	248.718
0.108286	274.359
0.14696	297.436
0.177899	323.077
0.201103	351.282
0.262981	389.744
0.286185	392.308
0.239777	384.615
0.311968	400
0.438302	415.385
0.464084	417.949
0.48471	425.641
0.502758	425.641
0.605887	428.205
0.711595	448.718
0.80699	458.974
0.91012	482.051
1.01583	605.128
