Adsorption isotherm of Nitrogen on 12 M HCl treated [C2(C6H4NH)4][C6H4(CO)2]2
DOI: 10.1021/jacs.6b08377
Article source: Figure S16
Adsorbate Nitrogen: InChIKey IJGRMHOSHXDMSA-UHFFFAOYSA-N
Kind: experiment
Temperature: 77 K
Tabular data in the source: 0
pressure (bar)	uptake (cm3(STP)/g)
0.003426	77.1423
0.014969	83.8518
0.014723	94.3778
0.040217	104.928
0.056418	112.599
0.079639	120.276
0.086592	123.154
0.105155	129.87
0.119061	135.625
0.137692	139.47
0.15855	148.102
0.177114	154.818
0.200267	165.366
0.246889	173.066
0.302959	176.947
0.354395	178.909
0.405696	186.613
0.454747	190.487
0.508388	198.193
0.536469	198.22
0.599515	204.021
0.660288	206.949
0.720972	213.705
0.760662	217.57
0.811919	227.188
0.853815	236.797
0.90721	255.029
0.925617	268.444
0.000851	59.9134
0.040038	112.584
0.086457	128.895
0.121334	138.498
0.167731	155.766
0.204746	173.983
0.244414	178.805
0.29576	184.595
0.31214	184.611
0.365849	189.446
0.417195	195.236
0.46161	197.192
0.496352	212.536
0.54781	213.542
0.587479	218.364
0.622512	221.268
0.671563	225.142
0.692533	228.989
0.750855	236.7
0.777754	237.204
0.818603	241.549
0.872177	252.125
0.934955	269.41
