Adsorption isotherm of Nitrogen on 4PE-1P-COF
DOI: 10.1021/jacs.6b08377
Article source: Figure 2H
Adsorbate Nitrogen: InChIKey IJGRMHOSHXDMSA-UHFFFAOYSA-N
Kind: experiment
Temperature: 77 K
Tabular data in the source: 0
pressure (bar)	uptake (cm3(STP)/g)
0.005156	151.282
0.007735	171.795
0.012891	192.308
0.023204	235.897
0.033517	256.41
0.041252	284.615
0.0593	312.821
0.077347	328.205
0.095395	343.59
0.118599	361.538
0.139225	374.359
0.159851	394.872
0.167586	446.154
0.183055	505.128
0.221729	533.333
0.244933	533.333
0.275872	541.026
0.291342	548.718
0.319702	556.41
0.371267	558.974
0.420254	558.974
0.46924	569.231
0.518227	571.795
0.577527	579.487
0.623935	587.18
0.683235	594.872
0.706439	594.872
0.765739	600
0.82246	605.128
0.879181	615.385
0.923011	623.077
0.956529	643.59
1.00551	864.103
0.030939	220.513
0.0593	297.436
0.108286	343.59
0.165008	412.821
0.188212	492.308
0.208838	523.077
0.242355	535.897
0.262981	548.718
0.317124	558.974
0.409941	571.795
0.448615	584.615
0.482132	592.308
0.513071	597.436
0.613622	602.564
0.714174	615.385
0.804412	623.077
0.899807	646.154
1.00809	861.538
