Adsorption isotherm of Nitrogen on 12 M HCl treated TPB-TP-COF
DOI: 10.1021/jacs.6b08377
Article source: Figure S17
Adsorbate Nitrogen: InChIKey IJGRMHOSHXDMSA-UHFFFAOYSA-N
Kind: experiment
Temperature: 77 K
Tabular data in the source: 0
pressure (bar)	uptake (cm3(STP)/g)
0.00991	114.499
0.00991	118.487
0.017342	121.334
0.044593	125.885
0.061935	127.304
0.081754	129.293
0.109005	130.71
0.111482	130.709
0.131301	132.983
0.141211	133.265
0.170939	136.106
0.185804	137.241
0.205623	137.236
0.247738	141.782
0.317105	144.042
0.366653	145.452
0.42611	146.86
0.465748	147.704
0.520251	148.258
0.564844	148.815
0.609436	149.088
0.668894	150.211
0.703577	151.056
0.758079	151.61
0.817537	153.018
0.864607	154.429
0.921587	155.268
0.00991	114.214
0.049548	129.302
0.094141	133.848
0.128824	136.687
0.168462	140.38
0.220487	143.784
0.260125	147.192
0.299763	148.035
0.346834	148.592
0.388949	149.15
0.431065	149.993
0.460793	150.554
0.507864	151.396
0.557411	152.236
0.604482	152.793
0.636688	153.354
0.666416	153.06
0.715964	154.756
0.743215	155.318
0.787808	155.021
0.822491	155.011
0.86213	155.854
0.943883	158.396
