Adsorption isotherm of Nitrogen on TPB-TP-COF
DOI: 10.1021/jacs.6b08377
Article source: Figure 2G
Adsorbate Nitrogen: InChIKey IJGRMHOSHXDMSA-UHFFFAOYSA-N
Kind: experiment
Temperature: 77 K
Tabular data in the source: 0
pressure (bar)	uptake (cm3(STP)/g)
0.007312	29.5086
0.012385	40.0086
0.009597	54.0581
0.0016	68.1348
0.011768	87.3802
0.011448	111.943
0.008729	120.729
0.011174	132.997
0.01106	141.77
0.016018	161.042
0.026186	180.288
0.0364	196.024
0.046637	210.006
0.067294	223.934
0.069853	227.429
0.080136	237.902
0.105934	257.066
0.111075	262.303
0.136942	276.204
0.149852	284.909
0.162694	298.877
0.18591	316.3
0.211776	330.201
0.216895	337.192
0.237552	351.12
0.240065	358.124
0.255146	400.151
0.267851	424.647
0.272832	442.164
0.296117	454.324
0.309119	456.011
0.32733	457.671
0.350775	457.549
0.361172	459.249
0.41327	458.979
0.467905	463.958
0.504397	462.014
0.556359	472.271
0.598038	472.054
0.663069	478.734
0.715191	476.709
0.769872	478.179
0.81676	477.936
0.868768	484.683
0.915634	486.194
0.962362	498.232
1.00612	538.356
0.026483	157.479
0.059456	225.729
0.123894	278.026
0.167698	314.64
0.198843	323.251
0.216895	337.192
0.240088	356.37
0.242327	384.428
0.27025	440.424
0.283092	454.392
0.309141	454.257
0.402668	473.069
0.436532	472.893
0.462535	476.267
0.485957	477.9
0.519844	475.969
0.610925	482.514
0.722937	481.932
0.811345	493.753
0.907613	502.025
1.00356	534.86
