Adsorption isotherm of Nitrogen on 1M NaOH treated [C2(C6H4NH)4][C6H4(CO)2]2
DOI: 10.1021/jacs.6b08377
Article source: Figure S16
Adsorbate Nitrogen: InChIKey IJGRMHOSHXDMSA-UHFFFAOYSA-N
Kind: experiment
Temperature: 77 K
Tabular data in the source: 0
pressure (bar)	uptake (cm3(STP)/g)
0.009461	119.253
0.004378	136.473
0.020489	147.972
0.045558	176.704
0.057079	184.37
0.066304	190.12
0.080143	198.746
0.096344	206.417
0.11952	216.008
0.140334	226.554
0.16117	236.143
0.177349	244.771
0.193527	253.398
0.253942	271.637
0.298179	281.248
0.35191	285.127
0.398665	287.085
0.445264	295.741
0.501223	304.407
0.547822	313.063
0.596828	318.851
0.657489	326.564
0.7042	330.436
0.753139	339.094
0.802033	349.667
0.862604	361.207
0.901982	378.469
0.927319	395.718
0.006516	102.013
0.031294	186.26
0.077534	210.227
0.119207	229.405
0.165492	251.458
0.207142	271.593
0.249083	279.288
0.286299	288.893
0.328308	293.717
0.377403	295.677
0.409985	303.364
0.461286	311.068
0.507705	327.379
0.54051	325.496
0.587132	333.196
0.631458	338.979
0.659426	343.791
0.708365	352.449
0.750485	352.489
0.778386	360.171
0.817987	367.864
0.859951	374.602
0.929681	394.763
