Adsorption isotherm of Hydrogen on [Zn4(mu4-O)(Me2pzCO2)3]
DOI: 10.1039/c3ce41426d
Adsorbate Hydrogen: InChIKey UFHFLCQGNIYNRP-UHFFFAOYSA-N
Temperature: 77 K
Tabular data in the source: 0
pressure (bar)	uptake (cm3(STP)/g)
0.0146273	17.1429
0.0676651	54.8571
0.125037	75.4286
0.206056	93.7143
0.315382	106.286
0.41046	117.714
0.514911	124.571
0.619333	130.286
0.714249	134.857
0.818673	140.571
0.913533	142.857
1.01319	147.429
1.11756	150.857
