Adsorption isotherm of Hydrogen on [Co4(mu4-O)(Me2pzCO2)3]
DOI: 10.1039/c3ce41426d
Adsorbate Hydrogen: InChIKey UFHFLCQGNIYNRP-UHFFFAOYSA-N
Temperature: 77 K
Tabular data in the source: 0
pressure (bar)	uptake (cm3(STP)/g)
0.0145087	14.8571
0.0304467	90.2857
0.0339795	40
0.0484883	54.8571
0.0544751	108.571
0.0723547	66.2857
0.0737031	123.429
0.0915559	80
0.0928234	133.714
0.129635	93.7143
0.130956	149.714
0.18322	164.571
0.186618	108.571
0.230629	173.714
0.234107	121.143
0.286236	130.286
0.292169	181.714
0.338339	138.286
0.344218	187.429
0.390413	145.143
0.39152	192
0.443486	194.286
0.447209	152
0.495454	196.571
0.49923	156.571
0.541811	161.143
0.55214	198.857
0.598552	165.714
0.599361	200
0.650545	169.143
0.656021	201.143
0.697848	173.714
0.703268	203.429
0.750462	203.429
0.754534	176
0.806555	180.571
0.807094	203.429
0.835438	204.571
0.858549	184
0.892069	204.571
0.910516	186.286
0.943984	204.571
0.957791	189.714
0.995842	202.286
1.0145	193.143
1.01944	202.286
1.0665	196.571
