Adsorption isotherm of Argon on [Zn4(mu4-O)(Me2pzCO2)3]
DOI: 10.1039/c3ce41426d
Adsorbate Argon: InChIKey XKRFYHLGVUSROY-UHFFFAOYSA-N
Temperature: 87 K
Tabular data in the source: 0
pressure (bar)	uptake (cm3(STP)/g)
5.62467e-17	18.75
0.00364478	66.25
0.00728956	41.25
0.0109344	102.5
0.0145791	138.75
0.0145791	232.5
0.0182239	166.25
0.0255135	198.75
0.0291583	237.5
0.051027	210
0.051027	242.5
0.0801853	245
0.0874748	215
0.105699	245
0.127567	218.75
0.131212	246.25
0.153081	220
0.153081	246.25
0.182239	222.5
0.182239	247.5
0.207753	223.75
0.211397	248.75
0.225977	247.5
0.25149	225
0.255135	247.5
0.280648	248.75
0.302517	248.75
0.306162	227.5
0.353544	248.75
0.357189	227.5
0.404571	230
0.404571	248.75
0.437374	250
0.455598	231.25
0.506625	232.5
0.506625	250
0.539428	250
0.554008	233.75
0.605034	236.25
0.608679	250
0.637837	250
0.659706	237.5
0.707088	238.75
0.714378	251.25
0.739891	251.25
0.76176	240
0.809142	243.75
0.809142	251.25
0.8383	252.5
0.860169	245
0.892972	251.25
0.911196	247.5
0.940355	252.5
0.958578	250
0.991381	252.5
