Adsorption isotherm of Hydrogen on [Co4(mu4-O)(Me2pzCO2)3]
DOI: 10.1039/c3ce41426d
Adsorbate Hydrogen: InChIKey UFHFLCQGNIYNRP-UHFFFAOYSA-N
Temperature: 87 K
Tabular data in the source: 0
pressure (bar)	uptake (cm3(STP)/g)
0.0141582	21.5909
0.0144377	9.14286
0.0613519	53.4091
0.0671505	33.1429
0.110166	48
0.113265	75
0.214968	69.7143
0.217091	102.273
0.310154	85.7143
0.316198	115.909
0.396427	125
0.41948	98.2857
0.490816	131.818
0.514558	109.714
0.589922	137.5
0.637997	117.714
0.689029	142.045
0.732993	125.714
0.788135	144.318
0.832677	131.429
0.887243	146.591
0.946607	138.286
0.98635	147.727
1.04152	142.857
1.14123	149.714
