Adsorption isotherm of Hydrogen on [Co4(mu4-O)(Me2pzCO2)3]
DOI: 10.1039/c3ce41426d
Adsorbate Hydrogen: InChIKey UFHFLCQGNIYNRP-UHFFFAOYSA-N
Temperature: 77 K
Tabular data in the source: 0
pressure (bar)	uptake (cm3(STP)/g)
0.00474036	20.6897
0.0616245	68.9655
0.127989	98.8506
0.203835	121.839
0.303383	139.08
0.40767	151.724
0.516699	162.069
0.611506	171.264
0.711052	177.011
0.815341	181.609
0.910148	187.356
1.00969	190.805
1.10924	196.552
