Adsorption isotherm of Nitrogen on [Co4(mu4-O)(pz/O2C)3]
DOI: 10.1039/c3ce41426d
Adsorbate Nitrogen: InChIKey IJGRMHOSHXDMSA-UHFFFAOYSA-N
Temperature: 77 K
Tabular data in the source: 0
pressure (bar)	uptake (cm3(STP)/g)
0.000324343	27.2727
0.00102424	86.1244
0.00192899	162.201
0.00273132	229.665
0.0067088	264.115
0.0139298	271.292
0.0318711	279.904
0.0568967	284.211
0.0819054	287.081
0.103329	288.517
0.131889	289.952
0.153312	291.388
0.181871	292.823
0.203278	292.823
0.22827	294.258
0.25683	295.694
0.285372	295.694
0.310345	295.694
0.353159	295.694
0.406676	295.694
0.456642	297.129
0.506591	297.129
0.563692	298.565
0.624344	298.565
0.677861	298.565
0.731378	298.565
0.781327	298.565
0.827691	297.129
0.881208	297.129
0.920454	297.129
0.963284	298.565
0.995411	300
