Adsorption isotherm of N-propane on CuBTC
DOI: 10.1021/acs.jpcc.7b03459
Article source: Figure 1a
Adsorbate N-propane: InChIKey ATUOYWHBWRKTHZ-UHFFFAOYSA-N
Kind: experiment
Isotherm type: excess
Temperature: 323 K
Tabular data in the source: 0
pressure (bar)	uptake (mmol/g)
0.01475	0.2422
0.037428	0.6749
0.063445	1.0864
0.091138	1.6773
0.133629	2.416
0.18608	3.2601
0.251189	4.0621
0.346178	4.7797
0.408507	5.1384
0.502343	5.4972
0.605202	5.7927
0.69952	5.972
0.816959	6.1831
0.878416	6.2464
0.994489	6.3625
