Adsorption isotherm of N-propane on CuBTC
DOI: 10.1021/acs.jpcc.7b03459
Article source: Figure 1a
Adsorbate N-propane: InChIKey ATUOYWHBWRKTHZ-UHFFFAOYSA-N
Kind: experiment
Isotherm type: excess
Temperature: 295 K
Tabular data in the source: 0
pressure (bar)	uptake (mmol/g)
0.107845	0.8124
0.255447	1.6415
0.539262	3.1826
0.847227	4.5561
1.58125	6.2312
2.76376	7.3367
3.90211	7.8224
5.20116	8.0988
8.17147	8.459
