Adsorption isotherm of N-propane on CuBTC
DOI: 10.1021/acs.jpcc.7b03459
Article source: Figure 1a
Adsorbate N-propane: InChIKey ATUOYWHBWRKTHZ-UHFFFAOYSA-N
Kind: experiment
Isotherm type: excess
Temperature: 303 K
Tabular data in the source: 0
pressure (bar)	uptake (mmol/g)
1.85268	1.4665
5.36044	3.3544
10.0231	5.1026
15.5096	6.4587
19.485	7.0902
22.4854	7.4093
30.1509	8.0807
40.4297	8.5792
