Adsorption isotherm of N-Butane on CuBTC
DOI: 10.1021/acs.jpcc.7b03459
Article source: Figure 1a
Adsorbate N-Butane: InChIKey IJDNQMDRQITEOD-UHFFFAOYSA-N
Kind: experiment
Isotherm type: excess
Temperature: 298 K
Tabular data in the source: 0
pressure (bar)	uptake (mmol/g)
0.001076	0.2106
0.001453	0.2634
0.00176	0.3319
0.002023	0.4111
0.002388	0.4744
0.002463	0.5008
0.002998	0.6538
0.003483	0.791
0.004751	1.1445
0.006789	1.8778
0.012566	3.7139
0.017587	4.4631
0.050524	5.5183
0.124308	5.972
0.173061	6.067
0.706806	6.4891
1.08044	6.6368
