Adsorption isotherm of Carbon Dioxide on USTC-253
DOI: 10.1002/cssc.201403230
Article source: Figure 6a- USTC 253 at 298 K
Adsorbate Carbon Dioxide: InChIKey CURLTUGMZLYLDI-UHFFFAOYSA-N
Kind: experiment
Temperature: 298 K
Tabular data in the source: 0
pressure (bar)	uptake (cm3(STP)/g)
0.013119	1.446
0.014332	1.558
0.039357	3.952
0.040837	3.938
0.066475	5.808
0.066475	6.006
0.092792	7.863
0.093006	7.874
0.119044	9.121
0.119204	9.125
0.146228	10.854
0.146321	11.462
0.172732	13.219
0.172812	12.597
0.19897	14.17
0.199144	14.793
0.225381	15.248
0.226168	15.315
0.252139	17.754
0.252406	17.769
0.27855	19.131
0.27899	19.159
0.305388	19.557
0.306001	20.576
0.332066	20.833
0.332333	20.848
0.358824	22.35
0.358917	22.355
0.385142	24.39
0.385582	24.447
0.413646	24.628
0.413899	24.648
0.44023	27.056
0.440484	25.683
0.467682	26.903
0.468028	28.134
0.492093	29.367
0.493573	28.292
0.52085	29.715
0.521024	29.71
0.546742	30.759
0.547608	31.679
0.574366	32.729
0.574446	31.611
0.600684	33.92
0.600857	32.689
0.627095	34.007
0.628402	34.265
0.653853	36.007
0.6542	36.02
0.679917	37.068
0.680184	37.083
0.705889	37.128
0.706595	38.119
0.73326	37.994
0.7343	39.183
0.761137	38.959
0.761324	38.962
0.786429	40.477
0.786509	40.475
0.812053	41.03
0.813626	42.218
0.840118	43.056
0.840464	41.995
0.866609	43.936
0.89346	44.32
0.921511	45.973
0.922124	46.007
0.945669	46.903
0.945922	46.915
0.973027	47.186
0.973293	47.191
0.981813	48.348
1.00057	48.165
1.00838	49.015
1.02768	49.074
1.03472	50.051
1.05417	49.925
1.07979	50.734
