Adsorption isotherm of Nitrogen on USTC-253
DOI: 10.1002/cssc.201403230
Article source: Figure 3- USTC 253
Adsorbate Nitrogen: InChIKey IJGRMHOSHXDMSA-UHFFFAOYSA-N
Kind: experiment
Temperature: 77 K
Tabular data in the source: 0
pressure (bar)	uptake (cm3(STP)/g)
9e-06	280.43
2e-05	321.48
5.1e-05	160.048
5.1e-05	180.907
6.1e-05	200.095
7.1e-05	259.284
0.000111	140.191
0.000162	300.095
0.000162	286.504
0.000172	114.448
0.000172	99.809
0.000223	20.048
0.000284	220.095
0.000314	170.075
0.000324	130.76
0.000324	119.236
0.000375	178.717
0.000507	239.284
0.001712	380.095
0.003536	398.424
0.0084	412.839
0.012625	424.58
0.023822	433.027
0.034207	439.039
0.04591	443.953
0.051149	446.816
0.059214	448.342
0.071424	451.207
0.071566	451.204
0.091405	456.478
0.091557	456.498
0.111609	457.926
0.111751	457.955
0.131956	461.025
0.132037	461.037
0.152089	465.3
0.152312	465.365
0.172516	465.047
0.172729	465.075
0.192568	468.89
0.192862	466.264
0.212701	470.557
0.212914	470.549
0.233189	471.985
0.23326	472
0.253616	470.106
0.2539	470.119
0.273892	473.018
0.274033	473.027
0.293508	475.649
0.294238	472.785
0.31429	476.743
0.314584	476.759
0.334788	475.88
0.335001	475.832
0.354769	478.119
0.374902	478.927
0.375115	476.779
0.395178	480.116
0.395249	480.125
0.415382	478.919
0.415453	478.933
0.435728	480.209
0.43587	480.157
0.456581	485.418
0.456874	485.403
0.47722	480.149
0.477514	480.17
0.496847	489.978
0.49706	489.819
0.517122	490.251
0.517416	490.499
0.536891	490.448
0.538411	482.047
0.557966	490.921
0.558321	482.902
0.577877	482.898
0.578171	483.198
0.598152	483.515
0.598446	483.559
0.618569	491.051
0.618569	491.053
0.63856	491.431
0.63928	484.366
0.65919	491.427
0.659261	491.426
0.679252	491.901
0.679901	491.943
0.699892	491.657
0.699892	491.658
0.719661	487.05
0.719732	487.024
0.74022	487.689
0.740301	487.724
0.760353	488.449
0.760576	488.437
0.780415	492.216
0.780628	492.146
0.800761	492.594
0.821107	492.447
0.821249	490.251
0.841018	492.491
0.841089	492.496
0.861222	492.916
0.861435	492.912
0.881639	493.39
0.901701	492.957
0.90846	493.385
0.919575	493.908
0.922696	493.478
0.940509	493.188
0.940863	493.16
0.963104	492.897
