Adsorption isotherm of Carbon Dioxide on USTC-253-TFA
DOI: 10.1002/cssc.201403230
Article source: Figure 6a- USTC 253 TFA at 273 K
Adsorbate Carbon Dioxide: InChIKey CURLTUGMZLYLDI-UHFFFAOYSA-N
Kind: experiment
Temperature: 273 K
Tabular data in the source: 0
pressure (bar)	uptake (cm3(STP)/g)
0.038677	8.554
0.066928	13.346
0.092912	17.036
0.119497	21.192
0.145748	25.532
0.172332	29.547
0.19841	33.619
0.225955	37.718
0.252553	41.705
0.279577	45.748
0.305642	49.692
0.332679	53.579
0.35961	57.41
0.387688	61.496
0.414446	65.114
0.44191	68.945
0.468321	72.451
0.493879	76.027
0.522024	79.604
0.547582	83.025
0.573553	86.445
0.600751	89.951
0.627775	93.471
0.65368	96.68
0.681917	100.143
0.707635	103.323
0.73466	106.617
0.761431	109.868
0.787842	113.02
0.814253	116.115
0.840758	119.494
0.867089	122.49
0.894113	125.614
0.920698	128.441
0.946775	131.466
0.974227	134.561
0.999771	137.416
1.0261	140.172
1.05365	143.268
0.03937	8.554
0.067274	13.177
0.092992	18.054
0.119417	22.578
0.146188	27.017
0.172692	31.357
0.199717	35.584
0.225968	39.783
0.252206	44.095
0.278977	48.209
0.305748	52.252
0.332853	56.182
0.358411	60.225
0.385515	64.042
0.411846	68.014
0.442177	72.184
0.465295	75.789
0.491973	79.592
0.520131	83.55
0.545155	87.268
0.574619	91.183
0.598511	94.59
0.627882	98.18
0.65248	101.502
0.680797	104.994
0.707129	108.33
0.73502	111.68
0.760657	114.888
0.788122	118.196
0.814626	121.419
0.841131	124.67
0.867622	127.695
0.8943	130.677
0.919591	133.645
0.948095	136.797
0.97416	139.469
1.00065	141.744
1.02342	144.189
1.04835	146.592
1.07885	146.165
