Adsorption isotherm of Carbon Dioxide on MOF-253
DOI: 10.1002/cssc.201403230
Article source: Figure 5a- MOF 253 at 298 K
Adsorbate Carbon Dioxide: InChIKey CURLTUGMZLYLDI-UHFFFAOYSA-N
Kind: experiment
Temperature: 298 K
Tabular data in the source: 0
pressure (bar)	uptake (cm3(STP)/g)
0.013052	1.534
0.040143	2.749
0.067421	3.889
0.093152	4.928
0.120057	5.984
0.146695	6.838
0.173332	7.751
0.199424	8.639
0.226515	9.435
0.252513	10.265
0.27915	11.018
0.305788	11.898
0.332253	12.61
0.359064	13.322
0.385888	14.143
0.412433	14.821
0.441257	15.659
0.465708	16.304
0.491986	17.058
0.521077	17.77
0.545168	18.415
0.574086	19.21
0.600724	19.746
0.627628	20.416
0.65436	21.103
0.680544	21.748
0.707355	22.376
0.733633	22.971
0.760724	23.599
0.787362	24.176
0.813626	24.746
0.840997	25.391
0.866635	25.86
0.893726	26.521
0.920911	26.99
0.947642	27.601
0.97436	28.112
0.993705	28.556
1.02801	29.184
1.04497	29.267
1.08127	29.987
0.093139	3.838
0.119603	4.701
0.146148	5.664
0.172599	6.443
0.19969	7.247
0.226608	7.917
0.252966	8.629
0.27951	9.383
0.306148	10.062
0.332613	10.899
0.35925	11.737
0.387888	12.424
0.414166	13.295
0.441257	13.982
0.467615	14.66
0.494346	15.389
0.520437	16.101
0.546528	16.838
0.573526	17.508
0.600711	18.178
0.626895	18.89
0.653533	19.468
0.681357	20.331
0.707262	20.9
0.73362	21.562
0.760631	22.131
0.786442	22.835
0.81408	23.547
0.841091	24.072
0.866542	24.652
1.05363	29.376
1.08009	30.035
