Adsorption isotherm of Nitrogen on MOF-253
DOI: 10.1002/cssc.201403230
Article source: Figure 3- MOF 253
Adsorbate Nitrogen: InChIKey IJGRMHOSHXDMSA-UHFFFAOYSA-N
Kind: experiment
Temperature: 77 K
Tabular data in the source: 0
pressure (bar)	uptake (cm3(STP)/g)
6.1e-05	94.702
6.1e-05	71.36
6.1e-05	63.922
7.1e-05	24.391
0.000111	261.098
0.000111	212.84
0.000193	166.539
0.000193	165.592
0.000203	164.511
0.000253	173.074
0.000263	182.148
0.00155	306.492
0.001702	283.055
0.002857	329.833
0.004094	351.551
0.008015	371.074
0.014115	386.968
0.023406	398.662
0.036264	406.729
0.050936	412.097
0.052172	412.122
0.071059	421.524
0.072376	417.61
0.091041	424.912
0.092641	420.616
0.111164	427.632
0.113707	423.384
0.131439	430.018
0.133982	425.674
0.151846	431.831
0.153669	427.487
0.172121	429.537
0.172404	429.538
0.192092	434.693
0.192386	434.702
0.212438	432.206
0.212661	432.21
0.232561	437.03
0.233433	433.02
0.253049	437.888
0.253272	437.929
0.273395	439.373
0.273466	439.367
0.293447	435.977
0.293518	435.975
0.313489	440.51
0.313783	437.121
0.334342	438.748
0.334494	438.743
0.35483	441.988
0.354901	441.997
0.375024	440.03
0.375176	440.067
0.394712	440.614
0.395299	440.65
0.414987	443.369
0.415564	443.299
0.435252	441.354
0.435768	441.316
0.455669	442.738
0.455811	442.699
0.476663	442.555
0.477322	442.719
0.496067	446.373
0.496786	443.175
0.516697	446.549
0.517061	446.658
0.537033	446.944
0.537185	446.903
0.557085	444.844
0.557379	444.842
0.577644	444.746
0.577725	444.746
0.597919	447.848
0.598132	447.869
0.618042	448.547
0.618113	448.563
0.638895	448.61
0.639037	448.57
0.658947	448.847
0.67907	449.056
0.679506	449.18
0.699193	449.991
0.699487	449.919
0.719458	449.942
0.739804	447.554
0.739946	447.555
0.759927	450.8
0.760221	450.805
0.780415	451.037
0.780709	448.889
0.800316	449.479
0.800751	449.461
0.820449	451.704
0.82052	451.709
0.841008	452.657
0.841443	452.659
0.861344	450.89
0.88169	453.324
0.895277	454.278
0.90239	452.511
0.92223	453.727
0.922372	453.704
0.941552	454.944
0.948747	456.853
0.962547	456.088
