Adsorption isotherm of Carbon Dioxide on USTC-253
DOI: 10.1002/cssc.201403230
Article source: Figure 5a- USTC 253 at 273 K
Adsorbate Carbon Dioxide: InChIKey CURLTUGMZLYLDI-UHFFFAOYSA-N
Kind: experiment
Temperature: 273 K
Tabular data in the source: 0
pressure (bar)	uptake (cm3(STP)/g)
0.013759	3.089
0.018238	3.549
0.038743	6.778
0.040837	7.978
0.066368	11.719
0.066461	10.922
0.093259	15.075
0.093806	15.128
0.119883	16.823
0.12035	16.87
0.146415	19.671
0.146601	19.688
0.173319	23.916
0.173586	22.356
0.19957	26.676
0.199757	25.032
0.226648	29.218
0.252913	29.897
0.253552	29.939
0.27935	32.309
0.27963	32.33
0.306148	36.382
0.306708	34.519
0.332599	38.722
0.333053	38.751
0.35885	40.945
0.359397	40.976
0.385755	43.118
0.387755	41.171
0.412193	43.062
0.413193	43.092
0.440644	47.488
0.44119	47.522
0.465708	49.426
0.467268	47.387
0.494159	51.498
0.520237	51.24
0.520877	51.263
0.546768	53.267
0.546768	53.268
0.573939	57.328
0.574486	55.197
0.600017	59.24
0.600204	56.992
0.627362	61.044
0.627642	61.062
0.653346	60.879
0.65408	60.775
0.680611	64.606
0.680891	64.667
0.705329	66.479
0.706689	64.172
0.73378	65.9
0.734686	68.241
0.760391	67.821
0.760484	67.824
0.787295	69.599
0.787482	69.616
0.813373	73.24
0.813373	71.286
0.839904	72.997
0.840544	74.935
0.866529	74.8
0.867622	76.562
0.893247	78.089
0.893607	78.065
0.919684	79.644
0.919951	79.649
0.946216	79.313
0.946575	81.268
0.972747	81.075
0.9732	82.669
0.999558	83.818
0.999744	82.425
1.02628	84.111
1.03046	85.529
1.05281	85.52
1.05518	86.67
1.07898	86.929
