Adsorption isotherm of Carbon Dioxide on USTC-253
DOI: 10.1002/cssc.201403230
Article source: Figure 5a- USTC 253 at 298 K
Adsorbate Carbon Dioxide: InChIKey CURLTUGMZLYLDI-UHFFFAOYSA-N
Kind: experiment
Temperature: 298 K
Tabular data in the source: 0
pressure (bar)	uptake (cm3(STP)/g)
0.012946	1.493
0.04049	3.951
0.066221	6.146
0.066395	6.166
0.093766	7.47
0.093939	7.475
0.11939	9.06
0.12039	9.782
0.146668	10.738
0.146748	10.738
0.173026	13.215
0.173199	13.222
0.199557	13.775
0.225835	16.202
0.226195	16.258
0.252833	17.735
0.253099	17.722
0.279097	19.085
0.280004	19.1
0.305815	19.322
0.306455	19.278
0.332719	21.765
0.333093	21.812
0.36009	23.137
0.360184	23.133
0.384982	23.163
0.386075	23.07
0.413806	24.454
0.414726	25.771
0.440897	26.912
0.44099	26.907
0.467988	26.883
0.468082	26.887
0.493346	29.32
0.495253	28.153
0.520797	29.375
0.52125	29.345
0.547062	30.46
0.547795	31.61
0.574513	32.767
0.575059	32.733
0.600231	32.723
0.601604	32.524
0.627415	33.64
0.627868	34.982
0.654413	34.713
0.680584	37.037
0.680957	37.054
0.706222	38.166
0.706315	38.17
0.73358	37.976
0.73422	38.004
0.760484	40.078
0.761031	40.158
0.786202	41.03
0.787935	40.115
0.81384	41.164
0.813933	42.162
0.839931	43.11
0.841211	42.246
0.866835	44.033
0.867382	44.056
0.893647	45.001
0.893833	45.006
0.921098	44.981
0.922471	45.033
0.945736	46.86
0.946735	46.796
0.973187	46.986
0.97328	46.991
0.981933	48.043
1.00028	47.69
1.00857	48.974
1.02508	48.806
1.03512	49.896
1.0539	49.728
1.07898	50.601
