Adsorption isotherm of Nitrogen on USTC-253-TFA
DOI: 10.1002/cssc.201403230
Article source: Figure 3- USTC 253 TFA
Adsorbate Nitrogen: InChIKey IJGRMHOSHXDMSA-UHFFFAOYSA-N
Kind: experiment
Temperature: 77 K
Tabular data in the source: 0
pressure (bar)	uptake (cm3(STP)/g)
7.1e-05	20.483
7.1e-05	45.169
8.1e-05	220.97
0.000111	361.536
0.000122	80.93
0.000122	321.906
0.000132	301.089
0.000132	241.401
0.000132	281.513
0.000162	181.914
0.000172	161.765
0.000172	141.759
0.000193	101.318
0.000203	61.02
0.000213	261.173
0.000253	316.002
0.000263	341.482
0.000547	380.634
0.001337	399.685
0.002786	416.873
0.00532	431.292
0.011419	442.656
0.017813	450.581
0.025585	455.832
0.031178	459.795
0.036619	463.041
0.0428	465.332
0.050136	469.915
0.053763	470.201
0.070978	474.399
0.071495	474.497
0.091324	478.09
0.091608	478.124
0.110931	483.374
0.112754	481.607
0.131419	486.284
0.132797	484.709
0.151754	488.909
0.152555	486.569
0.17203	489.359
0.172536	489.384
0.192436	492.82
0.193024	490.289
0.212053	494.537
0.212631	494.59
0.23246	495.442
0.233118	495.52
0.253242	496.523
0.253454	496.586
0.273071	495.505
0.273294	495.486
0.293853	498.525
0.293924	498.54
0.313824	500.305
0.313976	500.297
0.333876	501.21
0.353776	500.731
0.374335	501.084
0.374852	501.111
0.394316	504.021
0.394894	503.257
0.415747	503.685
0.435282	505.307
0.435434	505.312
0.455192	506.26
0.476552	505.984
0.476623	505.971
0.49703	505.587
0.497111	505.594
0.516717	508.116
0.517011	508.1
0.53684	506.873
0.536911	506.881
0.557257	507.149
0.557399	507.157
0.577745	507.949
0.577958	507.919
0.597645	507.631
0.597716	507.637
0.61791	508.727
0.638469	509.394
0.638469	508.964
0.658157	508.485
0.658227	508.485
0.67908	508.005
0.699132	509.245
0.699203	509.25
0.719256	509.768
0.739591	509.05
0.739662	509.052
0.759867	508.905
0.780203	508.951
0.800184	509.522
0.80069	509.516
0.820226	509.472
0.841301	508.993
0.861496	508.991
0.881761	509.657
0.902319	509.703
0.921642	509.749
0.941107	509.747
0.945616	509.747
0.962466	509.22
