Adsorption isotherm of Carbon Dioxide on USTC-253-TFA
DOI: 10.1002/cssc.201403230
Article source: Figure 6a- USTC 253 TFA at 298 K
Adsorbate Carbon Dioxide: InChIKey CURLTUGMZLYLDI-UHFFFAOYSA-N
Kind: experiment
Temperature: 298 K
Tabular data in the source: 0
pressure (bar)	uptake (cm3(STP)/g)
0.013986	1.812
0.039957	3.738
0.066701	6.57
0.093192	8.808
0.11951	10.408
0.147295	12.447
0.172919	14.388
0.199397	16.332
0.199584	16.342
0.226235	17.065
0.226941	17.134
0.251859	18.878
0.252473	18.897
0.279124	20.349
0.280257	20.407
0.305535	23.537
0.306041	22.206
0.332439	23.523
0.332799	23.591
0.359197	25.648
0.388288	28.993
0.388555	29.018
0.411819	30.669
0.411913	30.675
0.44091	30.874
0.44187	30.916
0.465242	33.989
0.466362	32.404
0.49224	33.99
0.494333	35.872
0.520637	36.044
0.52081	36.058
0.547128	39.088
0.547902	39.136
0.572046	39.188
0.574566	40.745
0.600884	42.486
0.601057	42.501
0.626935	42.7
0.628242	44.144
0.653426	45.659
0.654293	44.272
0.680691	47.288
0.681211	47.31
0.707795	47.677
0.707955	47.686
0.733406	49.102
0.73366	49.088
0.760497	50.703
0.760844	50.756
0.787082	53.506
0.788455	53.31
0.814346	53.894
0.81452	53.904
0.840571	55.33
0.840651	55.334
0.867489	58.209
0.867662	58.217
0.893886	59.753
0.89398	59.761
0.919591	59.938
0.921244	61.268
0.947469	61.501
0.947815	61.496
0.973787	63.223
0.974573	64.214
0.996011	65.333
0.999838	64.824
1.02529	66.778
1.02693	66.354
1.05194	68.166
1.05307	67.883
1.08034	69.045
