Adsorption isotherm of Nitrogen on EL-MIL-53
DOI: 10.1002/cssc.201403230
Article source: Figure 3- El MIL 53
Adsorbate Nitrogen: InChIKey IJGRMHOSHXDMSA-UHFFFAOYSA-N
Kind: experiment
Temperature: 77 K
Tabular data in the source: 0
pressure (bar)	uptake (cm3(STP)/g)
3e-05	68.026
8.1e-05	178.299
0.000142	155.814
0.000162	199.971
0.000182	87.884
0.000193	80.554
0.000203	87.29
0.00075	222.265
0.001125	243.794
0.001712	266.278
0.00231	287.283
0.004134	309.623
0.006323	330.58
0.011561	351.393
0.021744	369.58
0.039111	384.281
0.052051	395.116
0.064331	394.972
0.071171	397.307
0.071383	397.358
0.091304	407.19
0.093482	402.607
0.111792	410.959
0.114264	406.806
0.13156	414.251
0.137083	410.384
0.151694	417.687
0.156557	413.294
0.171746	420.549
0.176761	416.3
0.193034	422.982
0.19653	418.828
0.212955	425.653
0.214981	420.259
0.233301	427.656
0.23402	422.453
0.25314	429.755
0.255167	424.36
0.273263	432.378
0.275807	426.459
0.293245	433.236
0.295646	427.937
0.313885	434.714
0.315415	429.558
0.334383	436.287
0.335832	431.131
0.3556	438.099
0.375075	434.326
0.396434	436.042
0.413224	444.013
0.414825	437.568
0.436913	438.664
0.438656	446.493
0.455152	439.808
0.456824	450.262
0.47717	442.575
0.477322	442.566
0.479358	443.45
0.496715	443.05
0.499117	454.221
0.517791	443.478
0.517791	443.476
0.535381	456.413
0.558858	457.27
0.560885	458.32
0.57738	449.153
0.596206	458.794
0.619167	459.795
0.621416	460.129
0.63929	452.775
0.656738	454.056
0.657386	454.015
0.678827	463.751
0.67984	463.592
0.680793	463.99
0.698443	457.639
0.703682	465.706
0.72039	458.687
0.737109	467.708
0.739358	459.354
0.759634	462.359
0.760434	463.282
0.78078	463.455
0.797276	472.38
0.800184	465.172
0.822202	466.936
0.822708	475.533
0.82511	474.24
0.839133	468.749
0.860209	478.055
0.862387	470.274
0.880909	472.325
0.881497	480.621
0.88404	479.628
0.902208	474.662
0.904974	481.775
0.921976	477.715
0.923061	483.873
0.942829	479.957
0.962375	483.154
