Adsorption isotherm of Carbon Dioxide on USTC-253
DOI: 10.1002/cssc.201403230
Article source: Figure 6a- USTC 253 at 273 K
Adsorbate Carbon Dioxide: InChIKey CURLTUGMZLYLDI-UHFFFAOYSA-N
Kind: experiment
Temperature: 273 K
Tabular data in the source: 0
pressure (bar)	uptake (cm3(STP)/g)
0.014599	3.566
0.038583	6.552
0.065701	10.939
0.092366	14.208
0.119044	17.279
0.145895	19.784
0.172652	22.487
0.199757	25.006
0.226608	27.624
0.252499	30.043
0.27951	32.35
0.306015	34.402
0.333026	36.822
0.35901	38.846
0.387155	41.195
0.412179	43.105
0.441017	45.497
0.467855	47.351
0.493919	49.403
0.520677	51.469
0.546742	53.294
0.574193	55.191
0.599911	57.002
0.628055	59.11
0.653946	60.95
0.680357	62.606
0.707115	64.361
0.733353	65.974
0.760804	67.828
0.787389	69.696
0.813186	71.281
0.840718	72.936
0.867222	74.762
0.893633	76.262
0.919431	78.003
0.946962	79.361
0.973987	80.989
0.999611	82.432
1.0268	84.13
1.05399	85.602
0.013119	3.212
0.03989	7.967
0.066648	11.746
0.093246	15.1
0.119737	18.326
0.145988	21.142
0.172572	24.128
0.199677	26.675
0.226168	29.265
0.252579	31.614
0.279164	33.949
0.306108	36.511
0.332346	38.86
0.359624	40.883
0.386382	43.105
0.412526	45.171
0.440937	47.52
0.465615	49.388
0.494013	51.469
0.520424	53.478
0.547355	55.403
0.573939	57.412
0.600697	59.323
0.627108	61.205
0.653866	63.002
0.681051	64.785
0.705995	66.554
0.73466	68.337
0.760897	70.092
0.787309	71.677
0.813706	73.276
0.841077	74.96
0.867835	76.672
0.893287	78.073
0.920298	79.729
0.947229	81.371
0.973467	82.743
0.999958	83.833
1.03054	85.588
1.05503	86.847
1.0797	87.074
