Adsorption isotherm of Carbon Dioxide on MOF-253
DOI: 10.1002/cssc.201403230
Article source: Figure 5a- MOF 253 at 273 K
Adsorbate Carbon Dioxide: InChIKey CURLTUGMZLYLDI-UHFFFAOYSA-N
Kind: experiment
Temperature: 273 K
Tabular data in the source: 0
pressure (bar)	uptake (cm3(STP)/g)
0.013866	2.39
0.039863	4.562
0.066581	6.675
0.093032	6.205
0.093219	8.436
0.11975	10.02
0.119937	10.006
0.147121	9.449
0.172839	10.933
0.198824	12.35
0.227008	13.633
0.253193	14.949
0.27955	16.29
0.306268	17.573
0.332359	18.839
0.361077	20.289
0.386435	21.379
0.413246	22.662
0.439057	24.011
0.466335	25.311
0.494146	26.459
0.520504	27.885
0.547235	29.092
0.574233	30.24
0.599671	31.389
0.601324	34.056
0.627402	34.986
0.627762	32.579
0.653573	33.74
0.653853	33.702
0.680851	35.094
0.681491	35.226
0.704742	38.465
0.706475	36.243
0.733833	39.689
0.733926	39.706
0.759831	40.695
0.760644	40.584
0.786002	41.505
0.787189	41.76
0.81392	42.883
0.814	42.872
0.839638	43.864
0.839904	43.878
0.866995	45.062
0.892807	46.06
0.919804	47.066
0.946709	48.08
0.973427	49.036
0.998691	49.898
0.999971	49.983
1.0287	50.863
1.02989	50.9
1.04721	51.475
1.07968	52.229
