Adsorption isotherm of Carbon Dioxide on EL-MIL-53
DOI: 10.1002/cssc.201403230
Article source: Figure 5a- El-MIL-53 at 273 K
Adsorbate Carbon Dioxide: InChIKey CURLTUGMZLYLDI-UHFFFAOYSA-N
Kind: experiment
Temperature: 273 K
Tabular data in the source: 0
pressure (bar)	uptake (cm3(STP)/g)
0.120297	7.241
0.146188	8.516
0.146561	8.563
0.173092	9.892
0.199717	11.713
0.226621	12.276
0.226715	12.275
0.253166	14.373
0.279057	14.725
0.27915	14.731
0.306148	15.959
0.332506	18.182
0.333146	17.251
0.359677	19.457
0.359677	19.458
0.386128	19.533
0.387035	20.699
0.412393	21.84
0.414953	20.926
0.439657	22
0.440937	22.209
0.466015	24.257
0.466842	23.234
0.493279	25.382
0.493653	25.423
0.519544	26.59
0.520731	25.625
0.548275	26.758
0.548822	26.813
0.573899	28.922
0.574633	28.899
0.600711	29.065
0.601164	30.072
0.626335	29.987
0.627255	30.022
0.653613	31.141
0.65388	31.129
0.681517	32.346
0.681611	32.356
0.705222	34.561
0.707235	33.495
0.734406	34.511
0.759937	36.713
0.760031	36.717
0.787762	37.847
0.787855	37.85
0.8132	37.775
0.813386	37.783
0.840011	38.891
0.842024	39.956
0.865542	40.946
0.866915	40.074
0.89354	41.156
0.903206	42.675
0.919711	42.205
0.945709	43.153
0.945989	44.152
0.973707	44.194
0.975253	44.236
0.982093	45.738
0.998878	45.394
1.00992	46.594
1.02605	46.552
1.03571	47.508
1.05378	47.5
1.07995	48.465
