Adsorption isotherm of Carbon Dioxide on EL-MIL-53
DOI: 10.1002/cssc.201403230
Article source: Figure 5a- El-MIL-53 at 298 K
Adsorbate Carbon Dioxide: InChIKey CURLTUGMZLYLDI-UHFFFAOYSA-N
Kind: experiment
Temperature: 298 K
Tabular data in the source: 0
pressure (bar)	uptake (cm3(STP)/g)
0.014225	0.562
0.040943	1.686
0.042676	1.695
0.066941	2.626
0.093379	3.39
0.093739	3.239
0.120923	4.187
0.121097	4.192
0.146721	4.907
0.146815	4.908
0.173359	5.957
0.199797	6.704
0.19989	6.706
0.226435	7.409
0.226608	7.417
0.249953	8.122
0.252606	8.306
0.27859	8.558
0.279324	8.961
0.305588	9.742
0.306228	9.766
0.332026	10.018
0.332399	10.024
0.35893	10.847
0.359477	10.848
0.386835	11.578
0.386928	11.583
0.412006	12.778
0.412099	12.779
0.44155	13.5
0.466348	14.137
0.492893	14.49
0.495079	14.893
0.520797	15.631
0.521064	15.639
0.546515	16.295
0.547422	16.327
0.574419	16.663
0.600044	17.695
0.627668	18.081
0.628042	18.088
0.653386	18.701
0.65348	18.702
0.680011	19.44
0.680651	19.834
0.707102	20.354
0.707368	20.362
0.734006	21.172
0.734273	21.185
0.760271	21.848
0.760351	21.849
0.787082	22.217
0.81416	23.227
0.81444	23.232
0.840784	23.434
0.841517	23.836
0.866315	24.298
0.866502	24.303
0.892953	25.241
0.893127	25.246
0.919764	25.607
0.921218	25.85
0.945749	26.127
0.946029	26.496
0.9732	27.075
1.00056	27.553
1.00885	28.09
1.02637	28.006
1.0353	28.669
1.05601	28.879
1.08062	29.466
