Adsorption isotherm of Carbon Dioxide on NOTT-300
DOI: 10.1038/Nchem.1457
Adsorbate Carbon Dioxide: InChIKey CURLTUGMZLYLDI-UHFFFAOYSA-N
Temperature: 273 K
Tabular data in the source: 0
pressure (bar)	uptake (mmol/g)
0.0546734	0.482762
0.0553966	0.965338
0.137985	2.07554
0.193563	3.16153
0.248634	3.9097
0.330608	4.60972
0.453261	5.45465
0.656768	6.25159
0.751723	6.61385
1.02212	7.0491
1.31925	7.31554
1.50836	7.50922
1.85929	7.67933
2.53418	8.01946
3.08738	8.16614
3.70795	8.26479
4.30162	8.41161
4.74678	8.4614
5.138	8.51101
5.59664	8.56085
6.21714	8.61124
6.55444	8.68479
6.90515	8.71013
