Adsorption isotherm of Methane on NOTT-300
DOI: 10.1038/Nchem.1457
Adsorbate Methane: InChIKey VNWKTOKETHGBQD-UHFFFAOYSA-N
Temperature: 273 K
Tabular data in the source: 0
pressure (bar)	uptake (mmol/g)
0.0521277	0.0236998
0.0765957	0.0355314
0.1	0.0358017
0.152128	0.0479525
0.2	0.0485055
0.254255	0.060681
0.303191	0.0843439
0.353191	0.0733724
0.404255	0.09706
0.451064	0.0976006
0.501064	0.121276
0.548936	0.133378
0.6	0.145517
0.652128	0.180765
0.698936	0.192854
0.751064	0.216554
0.802128	0.228694
0.848936	0.194587
0.9	0.241372
0.953191	0.265084
1.00213	0.242552
1.04255	0.300763
