Adsorption isotherm of Sulfur dioxide on NOTT-300
DOI: 10.1038/Nchem.1457
Adsorbate Sulfur dioxide: InChIKey RAHZWNYVWXNFOC-UHFFFAOYSA-N
Temperature: 303 K
Tabular data in the source: 0
pressure (bar)	uptake (mmol/g)
0.0056646	0.948484
0.0113787	2.04512
0.0144487	3.23049
0.0172711	3.6751
0.0229555	4.68284
0.0286102	5.6017
0.0529026	6.28462
0.0824437	6.67155
0.106528	6.73224
0.136	6.91176
0.176147	7.03266
0.200232	7.09335
0.251045	7.12599
0.304542	7.18842
0.347343	7.25021
0.403514	7.3128
0.502466	7.37792
0.555953	7.41072
0.601418	7.44305
0.703034	7.4787
0.801967	7.48456
0.903583	7.52021
0.999861	7.58518
1.03195	7.58708
