Adsorption isotherm of Carbon Dioxide on NOTT-300
DOI: 10.1038/Nchem.1457
Adsorbate Carbon Dioxide: InChIKey CURLTUGMZLYLDI-UHFFFAOYSA-N
Temperature: 283 K
Tabular data in the source: 0
pressure (bar)	uptake (mmol/g)
0.0134767	0.187606
0.0296343	0.375276
0.051154	0.56307
0.0807794	0.914935
0.107697	1.1965
0.134623	1.50148
0.16962	1.87688
0.201917	2.2054
0.253044	2.69823
0.298782	3.12071
0.349909	3.61354
0.398302	3.96585
0.449357	4.27139
0.500412	4.57693
0.551441	4.81224
0.599779	5.02408
0.65079	5.21256
0.701792	5.37763
0.750094	5.49582
0.801087	5.63748
0.852061	5.73232
0.900373	5.87392
0.92452	5.92131
1.00232	6.0636
1.0345	6.08776
