Adsorption isotherm of Methane on NOTT-300
DOI: 10.1038/Nchem.1457
Adsorbate Methane: InChIKey VNWKTOKETHGBQD-UHFFFAOYSA-N
Temperature: 303 K
Tabular data in the source: 0
pressure (bar)	uptake (mmol/g)
0.0761538	0.0541482
0.103231	0.0721691
0.152308	0.0713448
0.250462	0.0512205
0.302923	0.0688151
0.353692	0.0864381
0.401077	0.104118
0.451846	0.047838
0.502615	0.0839368
0.555077	0.0830556
0.600769	0.11924
0.649846	0.118415
0.704	0.154457
0.751385	0.153661
0.807231	0.171199
0.852923	0.170432
0.900308	0.169636
0.952769	0.224182
1.00354	0.241805
1.04585	0.278046
