Adsorption isotherm of Carbon Dioxide on NOTT-300
DOI: 10.1038/Nchem.1457
Adsorbate Carbon Dioxide: InChIKey CURLTUGMZLYLDI-UHFFFAOYSA-N
Temperature: 293 K
Tabular data in the source: 0
pressure (bar)	uptake (mmol/g)
0.0188732	0.125
0.0323887	0.291667
0.0539501	0.416667
0.0809345	0.645833
0.105193	0.791667
0.137563	1.04167
0.172622	1.29167
0.205001	1.5625
0.248133	1.83333
0.299386	2.22917
0.35062	2.58333
0.401835	2.89583
0.447646	3.14583
0.501549	3.45833
0.550058	3.72917
0.603924	3.95833
0.649707	4.14583
0.700876	4.35417
0.754714	4.52083
0.800497	4.70833
0.902778	5
0.935073	5.08333
1.03732	5.29167
