Adsorption isotherm of Argon on NOTT-300
DOI: 10.1038/Nchem.1457
Adsorbate Argon: InChIKey XKRFYHLGVUSROY-UHFFFAOYSA-N
Temperature: 87 K
Tabular data in the source: 0
pressure (bar)	uptake (mmol/g)
0.011038	0.0244648
0.0272867	0.0366972
0.0331141	0.0733945
0.0545734	0.0733945
0.0686761	0.0856269
0.0806329	0.0978593
0.103011	0.0856269
0.114968	0.0978593
0.12907	0.110092
0.15053	0.110092
0.165551	0.110092
0.172297	0.134557
0.189465	0.134557
0.19713	0.146789
0.213378	0.159021
0.226254	0.159021
0.241275	0.159021
0.254151	0.159021
0.261816	0.171254
0.290631	0.159021
0.314237	0.159021
0.334777	0.171254
0.360528	0.171254
0.383215	0.183486
0.40682	0.183486
0.437781	0.171254
0.458322	0.183486
0.510743	0.171254
0.551824	0.195719
0.605472	0.195719
0.657893	0.183486
0.710314	0.171254
0.750476	0.207951
0.805961	0.183486
0.840913	0.232416
0.883221	0.269113
0.936252	0.220183
