Adsorption isotherm of Carbon Dioxide on NOTT-300
DOI: 10.1038/Nchem.1457
Adsorbate Carbon Dioxide: InChIKey CURLTUGMZLYLDI-UHFFFAOYSA-N
Temperature: 303 K
Tabular data in the source: 0
pressure (bar)	uptake (mmol/g)
0.0189816	0.0664207
0.0325084	0.166052
0.05147	0.265683
0.0839884	0.415129
0.111082	0.54797
0.140873	0.714022
0.173372	0.896679
0.208597	1.06273
0.251935	1.2952
0.300708	1.52768
0.346753	1.77675
0.398223	2.04244
0.449723	2.2583
0.498486	2.50738
0.550006	2.69004
0.598779	2.92251
0.647581	3.10517
0.699092	3.30443
0.747904	3.47048
0.799444	3.61993
0.853692	3.78598
0.89707	3.95203
0.9486	4.11808
0.994736	4.21771
1.03274	4.28413
