Adsorption isotherm of Oxygen on NOTT-300
DOI: 10.1038/Nchem.1457
Adsorbate Oxygen: InChIKey MYMOFIZGZYHOMD-UHFFFAOYSA-N
Temperature: 293 K
Tabular data in the source: 0
pressure (bar)	uptake (mmol/g)
0.0218578	0.0364162
0.102592	0.0350664
0.149687	0.034279
0.200146	0.0334354
0.250597	0.0693735
0.301056	0.0685299
0.348147	0.0861334
0.401974	0.0668427
0.452425	0.102781
0.502884	0.101937
0.549975	0.119541
0.600438	0.100306
0.652571	0.136216
0.699662	0.15382
0.748439	0.153004
0.80394	0.170467
0.849345	0.20649
0.899804	0.205646
0.950267	0.186411
0.997354	0.222406
1.0394	0.240094
