Adsorption isotherm of Hydrogen on NOTT-300
DOI: 10.1038/Nchem.1457
Adsorbate Hydrogen: InChIKey UFHFLCQGNIYNRP-UHFFFAOYSA-N
Temperature: 77 K
Tabular data in the source: 0
pressure (bar)	uptake (mmol/g)
0.031887	0.0611621
0.0594755	0.0366972
0.0870707	0.0978593
0.178735	0.134557
0.207859	0.146789
0.230546	0.159021
0.282966	0.146789
0.313009	0.146789
0.347344	0.146789
0.37555	0.171254
0.409884	0.171254
0.459549	0.195719
0.5227	0.183486
0.556116	0.195719
0.60578	0.220183
0.646553	0.220183
0.752622	0.207951
0.939934	0.256881
