Adsorption isotherm of Carbon monoxide on NOTT-300
DOI: 10.1038/Nchem.1457
Adsorbate Carbon monoxide: InChIKey UGFAIRIUMAVXCW-UHFFFAOYSA-N
Temperature: 293 K
Tabular data in the source: 0
pressure (bar)	uptake (mmol/g)
0.0218578	0.0364162
0.0454053	0.0360225
0.105956	0.0350101
0.151369	0.0342509
0.200142	0.0518263
0.250597	0.0693735
0.306106	0.0500547
0.351519	0.0492954
0.405338	0.0667864
0.450747	0.084418
0.501202	0.101965
0.551661	0.101122
0.603802	0.10025
0.652571	0.136216
0.704715	0.116954
0.753489	0.134529
0.805626	0.152048
0.852717	0.169652
0.899812	0.168864
0.95532	0.149545
1.0024	0.203931
1.04108	0.221675
