Adsorption isotherm of Nitrogen on NOTT-300
DOI: 10.1038/Nchem.1457
Adsorbate Nitrogen: InChIKey IJGRMHOSHXDMSA-UHFFFAOYSA-N
Temperature: 77 K
Tabular data in the source: 0
pressure (bar)	uptake (mmol/g)
0.0895184	0.0366972
0.141021	0.0366972
0.191604	0.0489297
0.278977	0.0856269
0.381981	0.0856269
0.478856	0.110092
0.568374	0.146789
0.660957	0.171254
0.746492	0.232416
0.843367	0.256881
0.936869	0.269113
