Adsorption isotherm of Sulfur dioxide on NOTT-300
DOI: 10.1038/Nchem.1457
Adsorbate Sulfur dioxide: InChIKey RAHZWNYVWXNFOC-UHFFFAOYSA-N
Temperature: 273 K
Tabular data in the source: 0
pressure (bar)	uptake (mmol/g)
0.00245578	4.35563
0.00648884	6.37056
0.0116999	6.63738
0.0223416	6.84511
0.038374	7.05299
0.0706585	7.14283
0.0975322	7.26215
0.129817	7.35199
0.159406	7.44176
0.194366	7.56131
0.248273	7.56291
0.29671	7.68287
0.396378	7.77471
0.501457	7.83708
0.603821	7.929
0.700855	7.93188
0.800543	7.99409
0.897556	8.02659
0.929901	8.02755
0.994569	8.0591
