Adsorption isotherm of Hydrogen on NOTT-300
DOI: 10.1038/Nchem.1457
Adsorbate Hydrogen: InChIKey UFHFLCQGNIYNRP-UHFFFAOYSA-N
Temperature: 283 K
Tabular data in the source: 0
pressure (bar)	uptake (mmol/g)
0.197393	0.00657017
0.399847	0.0316154
0.506135	0.0168466
0.555061	0.0184751
0.605675	0.0201598
0.651227	0.0582892
0.705215	0.0417796
0.754141	0.0251014
0.804755	0.0633994
0.853681	0.0650279
0.902607	0.0483497
0.954908	0.0500906
1.00046	0.0699134
1.04601	0.0714296
