Adsorption isotherm of Argon on NOTT-300
DOI: 10.1038/Nchem.1457
Adsorbate Argon: InChIKey XKRFYHLGVUSROY-UHFFFAOYSA-N
Temperature: 283 K
Tabular data in the source: 0
pressure (bar)	uptake (mmol/g)
0.0202454	0.000673864
0.19908	0.00662633
0.254755	0.00847945
0.303681	0.0284146
0.354294	0.0484059
0.406595	0.0501467
0.455521	0.0517752
0.504448	0.0717104
0.55	0.0732265
0.602301	0.093274
0.651227	0.0949025
0.705215	0.0966995
0.755828	0.0983841
0.809816	0.118488
0.858742	0.120116
0.907669	0.158358
0.956595	0.159987
1.00552	0.161615
1.04601	0.162963
