Adsorption isotherm of Argon on NOTT-300
DOI: 10.1038/Nchem.1457
Adsorbate Argon: InChIKey XKRFYHLGVUSROY-UHFFFAOYSA-N
Temperature: 303 K
Tabular data in the source: 0
pressure (bar)	uptake (mmol/g)
0.0778462	0.0541197
0.103231	0.0536934
0.154	0.0528406
0.204769	0.0704637
0.255538	0.0511352
0.304615	0.0503109
0.357077	0.0679055
0.404462	0.0671096
0.456923	0.0847042
0.556769	0.0830272
0.604154	0.100707
0.654923	0.0998543
0.705692	0.117477
0.754769	0.116653
0.803846	0.134304
0.852923	0.115004
0.905385	0.188026
0.951077	0.168783
1.00015	0.167959
1.04077	0.167277
