Adsorption isotherm of Hydrogen on NOTT-300
DOI: 10.1038/Nchem.1457
Adsorbate Hydrogen: InChIKey UFHFLCQGNIYNRP-UHFFFAOYSA-N
Temperature: 293 K
Tabular data in the source: 0
pressure (bar)	uptake (mmol/g)
0.121094	0.0347571
0.153055	0.0158319
0.201832	0.0150164
0.252291	0.0141728
0.301068	0.0133573
0.349844	0.0125418
0.401978	0.0484518
0.450758	0.0292454
0.502895	0.0467645
0.549998	0.00919543
0.602135	0.0267146
0.654276	0.0258428
0.701371	0.0250555
0.751834	0.00582096
0.803971	0.0233401
0.854422	0.0592782
0.901517	0.0584908
0.95198	0.0392564
0.999074	0.038469
1.04112	0.0745477
