Adsorption isotherm of Carbon monoxide on NOTT-300
DOI: 10.1038/Nchem.1457
Adsorbate Carbon monoxide: InChIKey UGFAIRIUMAVXCW-UHFFFAOYSA-N
Temperature: 273 K
Tabular data in the source: 0
pressure (bar)	uptake (mmol/g)
0.0489362	0.0352119
0.103191	0.0358384
0.158511	0.0249285
0.202128	0.0138833
0.301064	0.0612216
0.354255	0.0733847
0.402128	0.0854865
0.452128	0.074515
0.501064	0.0866291
0.551064	0.121853
0.603191	0.168651
0.651064	0.134557
0.7	0.181318
0.751064	0.15881
0.804255	0.217169
0.851064	0.20616
0.9	0.229823
0.951064	0.241962
0.998936	0.265612
1.04362	0.289226
