Adsorption isotherm of Nitrogen on NOTT-300
DOI: 10.1038/Nchem.1457
Adsorbate Nitrogen: InChIKey IJGRMHOSHXDMSA-UHFFFAOYSA-N
Temperature: 283 K
Tabular data in the source: 0
pressure (bar)	uptake (mmol/g)
0.0219325	0.000730019
0.0674847	0.00224621
0.0978528	0.00325701
0.153528	-0.0315031
0.200767	-0.0116242
0.253067	0.0084233
0.303681	-0.00819868
0.354294	-0.00651402
0.401534	0.013365
0.45046	0.0149935
0.502761	-0.00157235
0.603988	0.0201036
0.652914	0.0583454
0.700153	0.0782244
0.757515	0.0801336
0.80138	0.0815937
0.853681	0.101641
0.90092	0.0849069
0.949847	0.123149
0.998773	0.10647
1.04433	0.162907
