Adsorption isotherm of Carbon monoxide on NOTT-300
DOI: 10.1038/Nchem.1457
Adsorbate Carbon monoxide: InChIKey UGFAIRIUMAVXCW-UHFFFAOYSA-N
Temperature: 303 K
Tabular data in the source: 0
pressure (bar)	uptake (mmol/g)
0.103231	0.0352176
0.152308	0.0528691
0.199692	0.0335974
0.255538	0.0511352
0.299538	0.0134447
0.353692	0.0310108
0.402769	0.0486623
0.453538	0.0662853
0.504308	0.0839083
0.553385	0.10156
0.602462	0.100735
0.654923	0.0998543
0.702308	0.13601
0.753077	0.135157
0.807231	0.152723
0.851231	0.151984
0.902	0.169607
0.954462	0.168726
1.00692	0.186321
1.04246	0.2042
