Adsorption isotherm of Hydrogen on NOTT-300
DOI: 10.1038/Nchem.1457
Adsorbate Hydrogen: InChIKey UFHFLCQGNIYNRP-UHFFFAOYSA-N
Temperature: 273 K
Tabular data in the source: 0
pressure (bar)	uptake (mmol/g)
0.0765957	0.0355314
0.102128	0.0242773
0.153191	0.0479649
0.198936	0.0253953
0.251064	0.0490952
0.301064	0.0381237
0.347872	0.0271154
0.4	0.00461957
0.452128	0.0398683
0.551064	0.00636418
0.602128	0.0185028
0.65	0.0075068
0.697872	0.0311575
0.752128	0.0202352
0.803191	0.0439227
0.847872	0.0444387
0.894681	0.0565283
0.952128	0.0687406
1.00213	0.069318
1.04255	0.0582361
