Adsorption isotherm of Carbon Dioxide on NOTT-300
DOI: 10.1038/Nchem.1457
Adsorbate Carbon Dioxide: InChIKey CURLTUGMZLYLDI-UHFFFAOYSA-N
Temperature: 273 K
Tabular data in the source: 0
pressure (bar)	uptake (mmol/g)
0.0133895	0.227437
0.0321115	0.606498
0.0535483	0.935018
0.0776417	1.36462
0.131219	2.22383
0.155313	2.65343
0.182121	3.03249
0.206253	3.36101
0.230356	3.76534
0.267946	4.1444
0.300135	4.54874
0.32165	4.67509
0.340459	4.82671
0.359279	4.95307
0.380764	5.15523
0.394212	5.23105
0.423803	5.38267
0.437251	5.45848
0.458766	5.58484
0.499129	5.76173
0.547559	5.98917
0.55296	5.9639
0.598714	6.14079
0.620257	6.19134
0.657954	6.29242
0.701032	6.41877
0.727967	6.46931
0.765674	6.54513
0.79799	6.62094
0.870727	6.72202
0.900347	6.79783
0.938074	6.8231
1.00003	6.92419
