Adsorption isotherm of Methane on NOTT-300
DOI: 10.1038/Nchem.1457
Adsorbate Methane: InChIKey VNWKTOKETHGBQD-UHFFFAOYSA-N
Temperature: 283 K
Tabular data in the source: 0
pressure (bar)	uptake (mmol/g)
0.0236196	-0.0175205
0.0506135	0.00168466
0.0759202	-0.0157796
0.102914	0.00342547
0.148466	0.00494167
0.195706	0.0248207
0.29862	0.0282461
0.352607	0.0300431
0.403221	0.0134211
0.453834	0.0883323
0.502761	0.0716542
0.551687	0.0732827
0.603988	0.0933302
0.651227	0.113209
0.705215	0.115006
0.752454	0.153192
0.806442	0.209909
0.850307	0.229675
0.904294	0.249779
0.956595	0.25152
1.00215	0.271343
1.04433	0.272746
