Adsorption isotherm of Oxygen on NOTT-300
DOI: 10.1038/Nchem.1457
Adsorbate Oxygen: InChIKey MYMOFIZGZYHOMD-UHFFFAOYSA-N
Temperature: 273 K
Tabular data in the source: 0
pressure (bar)	uptake (mmol/g)
0.0255319	0.0233927
0.05	0.0352242
0.104255	0.0473997
0.151064	0.0479403
0.203191	0.0600912
0.254255	0.0722298
0.3	0.0727582
0.356383	0.0849582
0.404255	0.0855111
0.454255	0.120735
0.503191	0.144398
0.552128	0.144963
0.602128	0.168639
0.653191	0.169229
0.702128	0.181342
0.753191	0.193481
0.803191	0.205608
0.853191	0.229283
0.9	0.229823
0.953191	0.253536
1.00106	0.288735
1.03936	0.289177
