Adsorption isotherm of Sulfur dioxide on NOTT-300
DOI: 10.1038/Nchem.1457
Adsorbate Sulfur dioxide: InChIKey RAHZWNYVWXNFOC-UHFFFAOYSA-N
Temperature: 293 K
Tabular data in the source: 0
pressure (bar)	uptake (mmol/g)
0.00500853	1.01448
0.0053278	0.0592244
0.00727334	2.23815
0.011803	4.68551
0.0194554	5.7893
0.0326053	6.44484
0.0485189	6.83148
0.0831995	7.06718
0.0992427	7.06574
0.131269	7.24198
0.163336	7.29881
0.20075	7.35516
0.251534	7.41031
0.299664	7.406
0.350447	7.46115
0.403905	7.51607
0.446687	7.51224
0.500145	7.56715
0.550948	7.5626
0.599058	7.61799
0.649862	7.61345
0.697982	7.63899
0.799579	7.65974
0.898512	7.65088
0.95198	7.67594
0.997426	7.70172
