Adsorption isotherm of Argon on NOTT-300
DOI: 10.1038/Nchem.1457
Adsorbate Argon: InChIKey XKRFYHLGVUSROY-UHFFFAOYSA-N
Temperature: 273 K
Tabular data in the source: 0
pressure (bar)	uptake (mmol/g)
0.0234043	0.034917
0.0521277	0.0236998
0.103191	0.0473874
0.152128	0.0595015
0.204255	0.0485546
0.252128	0.0491075
0.3	0.0612092
0.356383	0.0503115
0.404255	0.0624133
0.457447	0.0861254
0.505319	0.0635804
0.55	0.0871943
0.609574	0.0647845
0.655319	0.111508
0.703191	0.12361
0.753191	0.10109
0.807447	0.136363
0.854255	0.136904
0.904255	0.160579
0.951064	0.16112
1.00851	0.161783
1.04468	0.17375
