Adsorption isotherm of Oxygen on NOTT-300
DOI: 10.1038/Nchem.1457
Adsorbate Oxygen: InChIKey MYMOFIZGZYHOMD-UHFFFAOYSA-N
Temperature: 303 K
Tabular data in the source: 0
pressure (bar)	uptake (mmol/g)
0.0236923	0.0180778
0.0507692	0.0545745
0.103231	0.0352176
0.154	0.0343649
0.203077	0.0704921
0.250462	0.0327447
0.302923	0.0872908
0.353692	0.0679623
0.402769	0.067138
0.453538	0.0847611
0.502615	0.102413
0.55	0.101617
0.604154	0.137659
0.649846	0.136891
0.704	0.135982
0.753077	0.172109
0.802154	0.152809
0.851231	0.188936
0.903692	0.188055
0.952769	0.168755
1.00354	0.167902
1.03908	0.204257
