Adsorption isotherm of Methane on NOTT-300
DOI: 10.1038/Nchem.1457
Adsorbate Methane: InChIKey VNWKTOKETHGBQD-UHFFFAOYSA-N
Temperature: 293 K
Tabular data in the source: 0
pressure (bar)	uptake (mmol/g)
0.0487615	0.072748
0.100902	0.0718762
0.153047	0.0526136
0.20182	0.070189
0.250593	0.0877644
0.30442	0.0684736
0.348151	0.0677425
0.398602	0.103681
0.452421	0.121172
0.502884	0.101937
0.548289	0.13796
0.597066	0.137144
0.654249	0.154579
0.70303	0.135373
0.751795	0.18973
0.800572	0.188914
0.90149	0.187227
0.953627	0.204746
0.999024	0.27755
1.04444	0.276791
