Adsorption isotherm of Nitrogen on NOTT-300
DOI: 10.1038/Nchem.1457
Adsorbate Nitrogen: InChIKey IJGRMHOSHXDMSA-UHFFFAOYSA-N
Temperature: 273 K
Tabular data in the source: 0
pressure (bar)	uptake (mmol/g)
0.0287234	0.0349785
0.05	0.0121263
0.202128	0.060079
0.253191	0.0375708
0.498936	0.0866046
0.603191	0.0878086
0.698936	0.0773654
0.747872	0.0894795
0.797872	0.113155
0.852128	0.136879
0.902128	0.125907
0.968085	0.184414
1.04043	0.162151
