Adsorption isotherm of Argon on NOTT-300
DOI: 10.1038/Nchem.1457
Adsorbate Argon: InChIKey XKRFYHLGVUSROY-UHFFFAOYSA-N
Temperature: 293 K
Tabular data in the source: 0
pressure (bar)	uptake (mmol/g)
0.0504512	0.0359381
0.0723167	0.0355726
0.100914	0.0167036
0.198468	0.0150726
0.253973	0.0141447
0.302746	0.03172
0.353197	0.0676582
0.400296	0.0484799
0.452436	0.0476082
0.506259	0.0467083
0.553354	0.0459209
0.602127	0.0634963
0.652578	0.0994344
0.704723	0.0801718
0.755178	0.0977191
0.805637	0.0968755
0.85441	0.114451
0.899819	0.132082
0.951956	0.149602
1.0041	0.14873
1.04279	0.111301
