Adsorption isotherm of Carbon monoxide on NOTT-300
DOI: 10.1038/Nchem.1457
Adsorbate Carbon monoxide: InChIKey UGFAIRIUMAVXCW-UHFFFAOYSA-N
Temperature: 283 K
Tabular data in the source: 0
pressure (bar)	uptake (mmol/g)
0.101227	0.00336932
0.204141	0.0251014
0.248006	0.0265615
0.300307	0.0283023
0.352607	0.0300431
0.551687	0.109896
0.605675	0.111693
0.654601	0.131628
0.70184	0.151507
0.851994	0.193118
0.904294	0.194859
0.954908	0.233157
1.00552	0.271455
1.04264	0.254384
