Adsorption isotherm of Nitrogen on NOTT-300
DOI: 10.1038/Nchem.1457
Adsorbate Nitrogen: InChIKey IJGRMHOSHXDMSA-UHFFFAOYSA-N
Temperature: 303 K
Tabular data in the source: 0
pressure (bar)	uptake (mmol/g)
0.0490769	0.0361272
0.103231	0.0352176
0.154	0.0343649
0.194615	0.0336827
0.248769	0.0512489
0.296154	0.0319773
0.353692	0.0494866
0.399385	0.0671949
0.456923	0.0477527
0.502615	0.0839368
0.556769	0.0645514
0.605846	0.0452514
0.651538	0.0629597
0.704	0.09903
0.756462	0.0981489
0.803846	0.0788772
0.852923	0.115004
0.902	0.11418
0.954462	0.15025
1.00185	0.0940274
1.04246	0.130297
