Adsorption isotherm of Sulfur dioxide on NOTT-300
DOI: 10.1038/Nchem.1457
Adsorbate Sulfur dioxide: InChIKey RAHZWNYVWXNFOC-UHFFFAOYSA-N
Temperature: 283 K
Tabular data in the source: 0
pressure (bar)	uptake (mmol/g)
0.00268817	1.9189
0.00537634	0.14776
0.00806452	4.6054
0.0107527	5.96342
0.016129	6.34734
0.0322581	6.64302
0.0537634	6.93886
0.0833333	7.05781
0.0994624	7.11733
0.13172	7.17732
0.166667	7.29643
0.201613	7.35651
0.258065	7.44673
0.298387	7.50696
0.349462	7.53799
0.405914	7.5987
0.451613	7.60005
0.510753	7.66083
0.551075	7.69154
0.602151	7.72257
0.701613	7.81407
0.801075	7.87605
0.900538	7.84946
1.00269	7.882
