Adsorption isotherm of Hydrogen on NOTT-300
DOI: 10.1038/Nchem.1457
Adsorbate Hydrogen: InChIKey UFHFLCQGNIYNRP-UHFFFAOYSA-N
Temperature: 303 K
Tabular data in the source: 0
pressure (bar)	uptake (mmol/g)
0.0287692	0.0364683
0.0507692	0.091526
0.0778462	0.109547
0.101538	0.0906733
0.152308	0.126772
0.201385	0.125948
0.252154	0.125095
0.301231	0.124271
0.353692	0.12339
0.402769	0.141041
0.451846	0.140217
0.502615	0.15784
0.553385	0.120036
0.602462	0.137687
0.653231	0.136834
0.705692	0.135953
0.753077	0.135157
0.803846	0.134304
0.851231	0.151984
0.900308	0.15116
0.954462	0.15025
1.00354	0.112475
1.04077	0.167277
