Adsorption isotherm of Oxygen on NOTT-300
DOI: 10.1038/Nchem.1457
Adsorbate Oxygen: InChIKey MYMOFIZGZYHOMD-UHFFFAOYSA-N
Temperature: 283 K
Tabular data in the source: 0
pressure (bar)	uptake (mmol/g)
0.101227	0
0.15184	0
0.253067	0.0183908
0.300307	0.0183908
0.352607	0.0367816
0.401534	0.0367816
0.453834	0.0735632
0.502761	0.0735632
0.553374	0.091954
0.603988	0.091954
0.651227	0.128736
0.70184	0.128736
0.754141	0.147126
0.803067	0.165517
0.855368	0.165517
0.904294	0.183908
0.953221	0.183908
1.00383	0.22069
1.04264	0.23908
