Adsorption isotherm of Nitrogen on NOTT-300
DOI: 10.1038/Nchem.1457
Adsorbate Nitrogen: InChIKey IJGRMHOSHXDMSA-UHFFFAOYSA-N
Temperature: 293 K
Tabular data in the source: 0
pressure (bar)	uptake (mmol/g)
0.0252256	0.0179691
0.0521331	0.03591
0.0723167	0.0355726
0.10091	0.0350945
0.149683	0.0526699
0.200146	0.0334354
0.2977	0.0318044
0.351519	0.0492954
0.403663	0.0300328
0.449076	0.0292735
0.502888	0.0835463
0.54999	0.0459772
0.602127	0.0634963
0.645858	0.0627652
0.696317	0.0619216
0.750136	0.0794126
0.800595	0.0785689
0.854418	0.0776691
0.899827	0.0953007
0.9486	0.112876
0.999063	0.0936416
1.03774	0.111386
