Adsorption isotherm of Carbon Dioxide on [Co3(ndc)-(HCOO)3(mu3-OH)(H2O)]n
DOI: 10.1002/chem.201103687
Adsorbate Carbon Dioxide: InChIKey CURLTUGMZLYLDI-UHFFFAOYSA-N
Temperature: 298 K
Tabular data in the source: 0
pressure (bar)	uptake (cm3(STP)/g)
0.0526316	4.62462
0.126316	11.7718
0.202632	16.8168
0.328947	27.3273
0.428947	34.4745
0.55	43.3033
0.676316	50.8709
0.773684	56.7568
0.873684	61.8018
0.923684	65.1652
