Adsorption isotherm of 2-Propanol on [Co3(ndc)-(HCOO)3(mu3-OH)(H2O)]n
DOI: 10.1002/chem.201103687
Adsorbate 2-Propanol: InChIKey KFZMGEQAYNKOFK-UHFFFAOYSA-N
Temperature: 298 K
Tabular data in the source: 0
pressure (bar)	uptake (cm3(STP)/g)
0.0149343	93.1847
0.0717411	126.832
0.148212	132.949
0.248716	139.067
0.355775	142.126
0.449724	144.42
0.502161	145.185
0.600481	145.949
0.6988	146.714
0.749052	147.479
0.794934	146.714
0.897623	148.244
