Adsorption isotherm of 1-Propanol on [Co3(ndc)-(HCOO)3(mu3-OH)(H2O)]n
DOI: 10.1002/chem.201103687
Adsorbate 1-Propanol: InChIKey BDERNNFJNOPAEC-UHFFFAOYSA-N
Temperature: 298 K
Tabular data in the source: 0
pressure (bar)	uptake (cm3(STP)/g)
0.0477074	27.42
0.102329	134.479
0.202833	139.832
0.288044	142.891
0.451909	150.538
0.497791	152.832
0.550228	154.361
0.650733	158.949
0.707539	162.008
0.755607	162.008
0.808044	165.067
0.910733	167.361
