Adsorption isotherm of Methane on [Co3(ndc)-(HCOO)3(mu3-OH)(H2O)]n
DOI: 10.1002/chem.201103687
Adsorbate Methane: InChIKey VNWKTOKETHGBQD-UHFFFAOYSA-N
Temperature: 298 K
Tabular data in the source: 0
pressure (bar)	uptake (cm3(STP)/g)
0.0428922	39.8204
0.0647023	83.8323
0.0888707	108.982
0.107674	128.892
0.194946	132.036
0.303363	135.18
0.40382	136.228
0.499006	138.323
0.604764	140.419
0.699918	140.419
0.797747	142.515
0.906117	142.515
