Adsorption isotherm of Pyridine on [Co3(ndc)-(HCOO)3(mu3-OH)(H2O)]n
DOI: 10.1002/chem.201103687
Adsorbate Pyridine: InChIKey JUJWROOIHBZHMG-UHFFFAOYSA-N
Temperature: 298 K
Tabular data in the source: 0
pressure (bar)	uptake (cm3(STP)/g)
0.00988556	8.19826
0.0296897	29.2927
0.069067	38.5962
0.128092	46.679
0.172342	50.0985
0.228885	54.6637
0.297705	58.0255
0.349326	61.4278
0.447645	67.0693
0.545981	75.0598
0.649215	80.6898
0.750008	88.6745
0.902414	98.8869
