Adsorption isotherm of Isobutanol on [Co3(ndc)-(HCOO)3(mu3-OH)(H2O)]n
DOI: 10.1002/chem.201103687
Adsorbate Isobutanol: InChIKey ZXEKIIBDNHEJCQ-UHFFFAOYSA-N
Temperature: 298 K
Tabular data in the source: 0
pressure (bar)	uptake (cm3(STP)/g)
0.0651864	13.6553
0.104514	82.4789
0.128548	118.42
0.17006	121.479
0.229052	121.479
0.272749	123.008
0.351405	126.067
0.401657	126.067
0.508716	126.832
0.598296	127.597
0.709724	127.597
0.801489	129.126
0.897623	130.655
