Adsorption isotherm of Water on [Co3(ndc)-(HCOO)3(mu3-OH)(H2O)]n
DOI: 10.1002/chem.201103687
Adsorbate Water: InChIKey XLYOFNOQVPJJNP-UHFFFAOYSA-N
Temperature: 298 K
Tabular data in the source: 0
pressure (bar)	uptake (cm3(STP)/g)
0.0443078	11.6409
0.101131	56.1383
0.155456	94.7691
0.197777	173.361
0.247147	206.131
0.298884	225.976
0.353019	237.594
0.446458	247.945
0.547276	259.453
0.653057	277.996
0.756357	293.022
0.857216	310.403
0.899034	317.351
