Adsorption isotherm of Carbon Dioxide on [Co3(ndc)-(HCOO)3(mu3-OH)(H2O)]n
DOI: 10.1002/chem.201103687
Adsorbate Carbon Dioxide: InChIKey CURLTUGMZLYLDI-UHFFFAOYSA-N
Temperature: 273 K
Tabular data in the source: 0
pressure (bar)	uptake (cm3(STP)/g)
0.0131579	4.62462
0.0526316	12.6126
0.157895	32.3724
0.302632	54.2342
0.428947	69.7898
0.555263	84.5045
0.652632	94.1742
0.805263	108.889
0.905263	118.138
0.978947	124.444
