Adsorption isotherm of Methane on [Co3(ndc)-(HCOO)3(mu3-OH)(H2O)]n
DOI: 10.1002/chem.201103687
Adsorbate Methane: InChIKey VNWKTOKETHGBQD-UHFFFAOYSA-N
Temperature: 273 K
Tabular data in the source: 0
pressure (bar)	uptake (cm3(STP)/g)
0.123684	4.2042
0.221053	7.56757
0.305263	9.66967
0.373684	12.6126
0.481579	14.7147
0.576316	17.6577
0.678947	19.7598
0.776316	21.8619
0.892105	24.8048
0.997368	27.7477
