Adsorption isotherm of Carbon Dioxide on [Co3(ndc)-(HCOO)3(mu3-OH)(H2O)]n
DOI: 10.1002/chem.201103687
Adsorbate Carbon Dioxide: InChIKey CURLTUGMZLYLDI-UHFFFAOYSA-N
Temperature: 298 K
Tabular data in the source: 0
pressure (bar)	uptake (cm3(STP)/g)
0.0374634	30.3892
0.102482	135.18
0.195057	139.371
0.298204	143.563
0.398707	147.754
0.496552	150.898
0.602374	157.186
0.70818	162.425
0.819241	165.569
0.909156	168.713
