Adsorption isotherm of Argon on [Co3(ndc)-(HCOO)3(mu3-OH)(H2O)]n
DOI: 10.1002/chem.201103687
Adsorbate Argon: InChIKey XKRFYHLGVUSROY-UHFFFAOYSA-N
Temperature: 87 K
Tabular data in the source: 0
pressure (bar)	uptake (cm3(STP)/g)
0.00351949	9.83126
0.0352431	349.132
0.0987384	378.554
0.220185	393.142
0.394279	402.74
0.556898	417.272
0.727859	423.596
0.884211	431.579
1.01732	444.512
