Adsorption isotherm of Nitrogen on [Co3(ndc)-(HCOO)3(mu3-OH)(H2O)]n
DOI: 10.1002/chem.201103687
Adsorbate Nitrogen: InChIKey IJGRMHOSHXDMSA-UHFFFAOYSA-N
Temperature: 298 K
Tabular data in the source: 0
pressure (bar)	uptake (cm3(STP)/g)
0.0679944	126.796
0.150075	136.228
0.202954	137.275
0.300799	140.419
0.403946	144.611
0.496441	143.563
0.604843	145.659
0.702672	147.754
0.803129	148.802
0.903569	148.802
