Adsorption isotherm of Nitrogen on [Co3(ndc)-(HCOO)3(mu3-OH)(H2O)]n
DOI: 10.1002/chem.201103687
Adsorbate Nitrogen: InChIKey IJGRMHOSHXDMSA-UHFFFAOYSA-N
Temperature: 77 K
Tabular data in the source: 0
pressure (bar)	uptake (cm3(STP)/g)
0.00351949	9.83126
0.0425231	322.893
0.120241	344.098
0.217871	353.801
0.394809	361.756
0.554198	371.374
0.71947	380.984
0.890526	388.947
1.01149	395.339
