Adsorption isotherm of Nitrogen on [Co3(ndc)-(HCOO)3(mu3-OH)(H2O)]n
DOI: 10.1002/chem.201103687
Adsorbate Nitrogen: InChIKey IJGRMHOSHXDMSA-UHFFFAOYSA-N
Temperature: 273 K
Tabular data in the source: 0
pressure (bar)	uptake (cm3(STP)/g)
0.0842105	0.42042
0.328947	2.1021
0.423684	2.52252
0.523684	2.1021
0.607895	3.36336
0.7	3.78378
0.797368	4.62462
0.876316	5.04505
0.992105	5.88589
