Adsorption isotherm of Acetone on [Co3(ndc)-(HCOO)3(mu3-OH)(H2O)]n
DOI: 10.1002/chem.201103687
Adsorbate Acetone: InChIKey CSCPPACGZOOCGX-UHFFFAOYSA-N
Temperature: 298 K
Tabular data in the source: 0
pressure (bar)	uptake (cm3(STP)/g)
0.00268782	32.8796
0.0106358	115.076
0.0328557	130.292
0.0968109	140.712
0.148432	144.114
0.20251	147.511
0.268856	148.53
0.347503	151.868
0.401573	154.09
0.49986	155.034
0.600604	155.972
0.799626	156.679
0.900378	158.791
