Adsorption isotherm of Hydrogen on [Co3(ndc)-(HCOO)3(mu3-OH)(H2O)]n
DOI: 10.1002/chem.201103687
Adsorbate Hydrogen: InChIKey UFHFLCQGNIYNRP-UHFFFAOYSA-N
Temperature: 77 K
Tabular data in the source: 0
pressure (bar)	uptake (cm3(STP)/g)
0.0609987	13.6228
0.107041	86.976
0.123406	120.509
0.176285	121.557
0.226537	123.653
0.303221	125.749
0.403661	125.749
0.50149	127.844
0.607233	128.892
0.699744	128.892
0.802844	129.94
0.908586	130.988
