Adsorption isotherm of 1-Pentanol on [Co3(ndc)-(HCOO)3(mu3-OH)(H2O)]n
DOI: 10.1002/chem.201103687
Adsorbate 1-Pentanol: InChIKey AMQJEAYHLZJPGS-UHFFFAOYSA-N
Temperature: 298 K
Tabular data in the source: 0
pressure (bar)	uptake (cm3(STP)/g)
0.0695562	3.71416
0.130733	12.1259
0.18317	25.8906
0.229052	37.3612
0.277119	47.3024
0.325186	57.2436
0.364514	65.6553
0.451909	75.5965
0.552413	81.7142
0.650733	88.5965
0.746867	93.9495
0.847371	96.2436
0.893254	97.773
