Adsorption isotherm of Nitrogen on [Co3(ndc)-(HCOO)3(mu3-OH)(H2O)]n
DOI: 10.1002/chem.201103687
Adsorbate Nitrogen: InChIKey IJGRMHOSHXDMSA-UHFFFAOYSA-N
Temperature: 298 K
Tabular data in the source: 0
pressure (bar)	uptake (cm3(STP)/g)
0.0281018	30.093
0.0826559	67.5497
0.154769	96.9633
0.263223	127.154
0.389556	153.702
0.588891	186.203
0.816259	212.141
1.01458	230.712
