Adsorption isotherm of Hydrogen on [Co3(ndc)-(HCOO)3(mu3-OH)(H2O)]n
DOI: 10.1002/chem.201103687
Adsorbate Hydrogen: InChIKey UFHFLCQGNIYNRP-UHFFFAOYSA-N
Temperature: 87 K
Tabular data in the source: 0
pressure (bar)	uptake (cm3(STP)/g)
0.00830937	25.1497
0.0330159	85.9281
0.104508	94.3114
0.170619	96.4072
0.234103	99.5509
0.300182	99.5509
0.405925	100.599
0.493197	103.743
0.601646	108.982
0.699491	112.126
0.805281	116.317
0.900467	118.413
