Adsorption isotherm of Methane on [Co3(ndc)-(HCOO)3(mu3-OH)(H2O)]n
DOI: 10.1002/chem.201103687
Adsorbate Methane: InChIKey VNWKTOKETHGBQD-UHFFFAOYSA-N
Temperature: 273 K
Tabular data in the source: 0
pressure (bar)	uptake (cm3(STP)/g)
0.014672	96.4072
0.0526102	158.234
0.108544	186.527
0.148303	193.862
0.195959	199.102
0.307083	206.437
0.394371	210.629
0.502804	214.82
0.608563	216.916
0.703748	219.012
0.809491	220.06
0.902018	221.108
