Adsorption isotherm of Methane on [Co3(ndc)-(HCOO)3(mu3-OH)(H2O)]n
DOI: 10.1002/chem.201103687
Adsorbate Methane: InChIKey VNWKTOKETHGBQD-UHFFFAOYSA-N
Temperature: 298 K
Tabular data in the source: 0
pressure (bar)	uptake (cm3(STP)/g)
0.244737	4.62462
0.326316	5.88589
0.426316	8.40841
0.521053	8.40841
0.602632	10.5105
0.702632	12.6126
0.8	13.4535
0.9	14.7147
0.992105	15.976
