Adsorption isotherm of 1-Butanol on [Co3(ndc)-(HCOO)3(mu3-OH)(H2O)]n
DOI: 10.1002/chem.201103687
Adsorbate 1-Butanol: InChIKey LRHPLDYGYMQRHN-UHFFFAOYSA-N
Temperature: 298 K
Tabular data in the source: 0
pressure (bar)	uptake (cm3(STP)/g)
0.0455226	38.1259
0.0717411	79.42
0.0957747	110.008
0.165691	131.42
0.270565	133.714
0.340481	133.714
0.399472	135.244
0.454094	136.008
0.510901	136.773
0.600481	138.302
0.70317	139.067
0.755607	141.361
0.851741	142.126
0.901993	143.655
