Adsorption isotherm of Ethanol on [Co3(ndc)-(HCOO)3(mu3-OH)(H2O)]n
DOI: 10.1002/chem.201103687
Adsorbate Ethanol: InChIKey LFQSCWFLJHTTHZ-UHFFFAOYSA-N
Temperature: 298 K
Tabular data in the source: 0
pressure (bar)	uptake (cm3(STP)/g)
0.0171192	43.1847
0.0477074	106.655
0.106699	132.655
0.154766	144.891
0.202833	151.008
0.294598	157.126
0.392918	160.949
0.502161	164.773
0.552413	164.773
0.648548	167.067
0.801489	170.126
0.906363	170.126
