Adsorption isotherm of Nitrogen on [Co3(ndc)-(HCOO)3(mu3-OH)(H2O)]n
DOI: 10.1002/chem.201103687
Adsorbate Nitrogen: InChIKey IJGRMHOSHXDMSA-UHFFFAOYSA-N
Temperature: 273 K
Tabular data in the source: 0
pressure (bar)	uptake (cm3(STP)/g)
0.00897412	69.1617
0.0505052	193.862
0.114891	256.737
0.202432	277.695
0.310992	290.269
0.403598	296.557
0.51469	301.796
0.609924	307.036
0.713071	311.228
0.816265	318.563
0.903553	322.754
