Adsorption isotherm of Carbon Dioxide on [Co3(ndc)-(HCOO)3(mu3-OH)(H2O)]n
DOI: 10.1002/chem.201103687
Adsorbate Carbon Dioxide: InChIKey CURLTUGMZLYLDI-UHFFFAOYSA-N
Temperature: 273 K
Tabular data in the source: 0
pressure (bar)	uptake (cm3(STP)/g)
0.0295764	14.6989
0.180567	59.6048
0.283146	80.258
0.43508	102.438
0.565905	119.46
0.730745	140.922
0.866275	151.352
1.00461	164.717
