Adsorption isotherm of Methanol on [Co3(ndc)-(HCOO)3(mu3-OH)(H2O)]n
DOI: 10.1002/chem.201103687
Adsorbate Methanol: InChIKey OKKJLVBELUTLKV-UHFFFAOYSA-N
Temperature: 298 K
Tabular data in the source: 0
pressure (bar)	uptake (cm3(STP)/g)
0.0127495	19.4789
0.0542621	144.126
0.102329	205.302
0.150397	217.538
0.205018	229.008
0.25527	233.597
0.351405	243.538
0.454094	249.655
0.556783	305.008
0.652918	309.597
0.749052	316.479
0.853926	321.067
0.893254	324.126
