Adsorption isotherm of Tert-Butanol on [Co3(ndc)-(HCOO)3(mu3-OH)(H2O)]n
DOI: 10.1002/chem.201103687
Adsorbate Tert-Butanol: InChIKey DKGAVHZHDRPRBM-UHFFFAOYSA-N
Temperature: 298 K
Tabular data in the source: 0
pressure (bar)	uptake (cm3(STP)/g)
0.00837971	23.5965
0.0324133	85.5377
0.0717411	92.42
0.172245	96.2436
0.244346	98.5377
0.351405	100.067
0.449724	103.126
0.550228	106.949
0.600481	108.479
0.700985	113.067
0.801489	116.126
0.904178	116.891
