Adsorption isotherm of Carbon Dioxide on [(CH3)2NH2]2[Cd3(BPTC)2]*(DMF)
DOI: 10.1016/j.inoche.2010.12.004
Adsorbate Carbon Dioxide: InChIKey CURLTUGMZLYLDI-UHFFFAOYSA-N
Temperature: 273 K
Tabular data in the source: 0
pressure (bar)	uptake (cm3(STP)/g)
0.0621497	9.38199
0.145525	14.4509
0.233531	17.8156
0.328486	20.3501
0.418809	22.3164
0.518395	24.0206
0.615666	25.2442
0.717568	26.4677
0.812523	27.429
0.914425	28.4341
1.01633	29.308
1.11591	30.182
