Adsorption isotherm of Xenon on Mordenite
DOI: 10.1021/Jp003626k
Adsorbate Xenon: InChIKey FHNFHKCVQCLJFQ-UHFFFAOYSA-N
Temperature: 298 K
Tabular data in the source: 0
pressure (bar)	uptake (molecules/unitcell)
0.00901053	0.674812
0.0178611	1.12463
0.0383347	1.9242
0.0441996	2.17408
0.0500111	2.34896
0.0731506	2.89848
0.0846848	3.12324
0.122113	3.77246
0.136455	3.94716
0.153659	4.1468
0.170862	4.34644
0.188048	4.52108
0.210939	4.72061
0.23095	4.87019
0.253788	4.99471
0.273781	5.1193
0.299445	5.21876
0.325126	5.34323
0.350789	5.44269
0.376452	5.54216
0.404941	5.61656
0.430604	5.71603
0.456249	5.79049
0.501853	5.93954
0.521775	5.96413
0.547439	6.0636
0.573048	6.08806
0.601537	6.16247
0.627165	6.21193
0.655636	6.26134
0.681264	6.31081
0.706873	6.33527
0.749562	6.38438
0.772329	6.40891
0.797938	6.43338
0.82641	6.48278
0.852019	6.50725
0.877629	6.53172
0.906083	6.55612
0.931692	6.58059
0.957302	6.60506
1.00282	6.62911
1.02274	6.65369
1.05119	6.6781
1.07396	6.70263
1.10239	6.70203
1.128	6.7265
1.15361	6.75097
1.18207	6.77537
