Adsorption isotherm of Carbon Tetrafluoride on Mordenite
DOI: 10.1021/Jp003626k
Adsorbate Carbon Tetrafluoride: InChIKey TXEYQDLBPFQVAA-UHFFFAOYSA-N
Temperature: 298 K
Tabular data in the source: 0
pressure (bar)	uptake (molecules/unitcell)
0.00505375	0.253054
0.0243268	0.379345
0.0364678	0.547925
0.060645	0.786647
0.0703339	0.899011
0.116087	1.17962
0.132923	1.26376
0.159373	1.38995
0.200221	1.55812
0.231411	1.64206
0.255394	1.69797
0.322543	1.85171
0.344119	1.8936
0.368087	1.93545
0.389662	1.97733
0.413615	2.00512
0.430421	2.06113
0.454344	2.0608
0.473513	2.08865
0.495073	2.11648
0.519026	2.14426
0.542979	2.17205
0.564525	2.18581
0.586101	2.2277
0.610024	2.22736
0.631584	2.25518
0.655537	2.28297
0.67949	2.31076
0.701036	2.32452
0.722597	2.35234
0.746535	2.36606
0.768096	2.39389
0.792049	2.42167
0.816002	2.44946
0.837577	2.49135
0.859108	2.49104
