Adsorption isotherm of Carbon Tetrafluoride on Mordenite
DOI: 10.1021/Jp003626k
Adsorbate Carbon Tetrafluoride: InChIKey TXEYQDLBPFQVAA-UHFFFAOYSA-N
Temperature: 298 K
Tabular data in the source: 0
pressure (bar)	uptake (molecules/unitcell)
0.00481452	0.0280573
0.0144884	0.126359
0.0361986	0.294803
0.0603161	0.477277
0.0940626	0.715865
0.110913	0.814065
0.127764	0.912266
0.144615	1.01047
0.159074	1.1087
0.219225	1.43129
0.236076	1.52949
0.255304	1.6136
0.281739	1.72573
0.320211	1.908
0.339439	1.9921
0.358667	2.07621
0.377895	2.16031
0.397108	2.23035
0.425951	2.35651
0.442742	2.39846
0.46197	2.48257
0.481183	2.55261
0.502789	2.62262
0.522017	2.70672
0.577204	2.86063
0.596418	2.93068
0.618008	2.98662
0.639584	3.02851
0.661174	3.08445
0.682765	3.1404
0.706748	3.19631
0.723509	3.21014
0.742722	3.28018
0.764298	3.32206
0.788266	3.36392
0.809856	3.41986
0.831432	3.46175
0.8554	3.5036
0.87699	3.55954
0.900958	3.60139
0.922534	3.64328
0.94411	3.68516
0.9657	3.74111
0.999267	3.81095
