Adsorption isotherm of Xenon on Mordenite
DOI: 10.1021/Jp003626k
Adsorbate Xenon: InChIKey FHNFHKCVQCLJFQ-UHFFFAOYSA-N
Temperature: 298 K
Tabular data in the source: 0
pressure (bar)	uptake (molecules/unitcell)
0.011783	0.574755
0.0352068	1.52427
0.0700582	2.54854
0.0787488	2.77336
0.0931266	2.99806
0.107504	3.22276
0.138997	3.5221
0.156147	3.64675
0.173333	3.82139
0.196188	3.97091
0.219043	4.12044
0.241898	4.26996
0.267561	4.36943
0.293242	4.49389
0.318905	4.59336
0.344568	4.69282
0.370231	4.79229
0.395895	4.89175
0.44148	5.0158
0.461421	5.06539
0.48991	5.13979
0.515555	5.21426
0.544026	5.26367
0.566828	5.33819
0.595299	5.3876
0.62377	5.437
0.649416	5.51147
0.677869	5.53588
0.703514	5.61034
0.729142	5.65981
0.757595	5.68422
0.783241	5.75868
0.811712	5.80809
0.837339	5.85756
0.862949	5.88202
0.888595	5.95649
0.917048	5.98089
0.942676	6.03036
0.971147	6.07977
0.996774	6.12923
1.0224	6.1787
1.04801	6.20317
1.07366	6.27763
1.10213	6.32704
1.12774	6.35151
1.15338	6.42597
1.18184	6.45038
1.20179	6.52496
