Adsorption isotherm of Xenon on Mordenite/Na
DOI: 10.1021/Jp003626k
Adsorbate Xenon: InChIKey FHNFHKCVQCLJFQ-UHFFFAOYSA-N
Temperature: 298 K
Tabular data in the source: 0
pressure (bar)	uptake (molecules/unitcell)
0.00598925	0.424875
0.0177012	0.899631
0.0320611	1.09933
0.0435776	1.29909
0.0579198	1.47379
0.0722797	1.67349
0.089501	1.89814
0.106687	2.07278
0.126734	2.27236
0.146763	2.44694
0.169618	2.59647
0.195281	2.69593
0.229511	2.84522
0.260843	2.91957
0.286489	2.99403
0.314978	3.06844
0.340623	3.1429
0.36625	3.19237
0.391878	3.24184
0.420367	3.31624
0.445995	3.36571
0.474483	3.44011
0.502955	3.48952
0.528582	3.53899
0.557071	3.61339
0.582699	3.66286
0.61117	3.71227
0.636797	3.76173
0.665286	3.83614
0.690914	3.88561
0.716542	3.93507
0.745013	3.98448
0.770622	4.00895
0.799111	4.08335
0.821895	4.13288
0.847505	4.15734
0.873151	4.23181
0.901622	4.28122
0.927249	4.33068
0.95572	4.38009
0.981348	4.42956
1.00982	4.47896
1.03545	4.52843
1.06392	4.57784
1.08956	4.6523
1.11803	4.70171
1.14651	4.75111
1.17215	4.82558
1.19778	4.87505
