Adsorption isotherm of Carbon Tetrafluoride on Mordenite/Na
DOI: 10.1021/Jp003626k
Adsorbate Carbon Tetrafluoride: InChIKey TXEYQDLBPFQVAA-UHFFFAOYSA-N
Temperature: 298 K
Tabular data in the source: 0
pressure (bar)	uptake (molecules/unitcell)
0.00746101	0.267083
0.0437942	0.688447
0.0991761	1.02517
0.115982	1.08118
0.132818	1.16532
0.1616	1.23523
0.219165	1.37504
0.243133	1.41689
0.262332	1.47287
0.283892	1.5007
0.305453	1.52852
0.327029	1.5704
0.350982	1.59819
0.372542	1.62601
0.396495	1.6538
0.418071	1.69568
0.441979	1.68128
0.463555	1.72317
0.485115	1.75099
0.509068	1.77878
0.530614	1.79254
0.552175	1.82036
0.57372	1.83412
0.597673	1.86191
0.621612	1.87563
0.643172	1.90346
0.66711	1.91718
0.691078	1.95903
0.715001	1.9587
0.736562	1.98652
0.7605	2.00024
0.784438	2.01397
0.805984	2.02773
0.829922	2.04145
0.85386	2.05518
0.877798	2.06891
0.899344	2.08267
