Adsorption isotherm of As(III), Water on MF3
DOI: 10.1016/j.cej.2016.11.112
Article source: Figure 4
Adsorbate As(III): InChIKey LULLIKNODDLMDQ-UHFFFAOYSA-N
Adsorbate Water: InChIKey XLYOFNOQVPJJNP-UHFFFAOYSA-N
Kind: experiment
Temperature: 298 K
Tabular data in the source: 0
pressure (bar)	As(III) fraction	As(III) uptake (mg/g)	Water fraction	Water uptake (mg/g)	total uptake (mg/g)
1.01325	0.401	4.297			
1.01325	0.438	8.306			
1.01325	1.823	16.875			
1.01325	4.482	29.018			
1.01325	11.487	43.777			
1.01325	28.273	59.79			
1.01325	47.422	64.998			
1.01325	66.895	66.274			
1.01325	87.812	66.101			
