Adsorption isotherm of Arsenate, Water on MF2
DOI: 10.1016/j.cej.2016.11.112
Article source: Figure 4
Adsorbate Arsenate: InChIKey HAYXDMNJJFVXCI-UHFFFAOYSA-N
Adsorbate Water: InChIKey XLYOFNOQVPJJNP-UHFFFAOYSA-N
Kind: experiment
Temperature: 298 K
Tabular data in the source: 0
pressure (bar)	Arsenate fraction	Arsenate uptake (mg/g)	Water fraction	Water uptake (mg/g)	total uptake (mg/g)
1.01325	0.236	5.325			
1.01325	0.512	10.665			
1.01325	0.575	25.849			
1.01325	1.1	48.783			
1.01325	2.861	90.191			
1.01325	18.473	112.448			
1.01325	36.813	116.418			
1.01325	56.801	118.742			
1.01325	74.118	120.434			
