Adsorption isotherm of Arsenate, Water on MF4
DOI: 10.1016/j.cej.2016.11.112
Article source: Figure 4
Adsorbate Arsenate: InChIKey HAYXDMNJJFVXCI-UHFFFAOYSA-N
Adsorbate Water: InChIKey XLYOFNOQVPJJNP-UHFFFAOYSA-N
Kind: experiment
Temperature: 298 K
Tabular data in the source: 0
pressure (bar)	Arsenate fraction	Arsenate uptake (mg/g)	Water fraction	Water uptake (mg/g)	total uptake (mg/g)
1.01325	0.705	2.599			
1.01325	1	6.654			
1.01325	2.601	12.557			
1.01325	4.983	22.604			
1.01325	14.157	34.408			
1.01325	33.228	42.334			
1.01325	52.825	46.571			
1.01325	71.221	48.971			
1.01325	90.104	50.926			
