Adsorption isotherm of As(III), Water on MF2
DOI: 10.1016/j.cej.2016.11.112
Article source: Figure 4
Adsorbate As(III): InChIKey LULLIKNODDLMDQ-UHFFFAOYSA-N
Adsorbate Water: InChIKey XLYOFNOQVPJJNP-UHFFFAOYSA-N
Kind: experiment
Temperature: 298 K
Tabular data in the source: 0
pressure (bar)	As(III) fraction	As(III) uptake (mg/g)	Water fraction	Water uptake (mg/g)	total uptake (mg/g)
1.01325	0.296	10.075			
1.01325	0.326	5.268			
1.01325	0.516	22.997			
1.01325	2.789	38.088			
1.01325	9.583	53.48			
1.01325	26.828	69.97			
1.01325	45.415	74.002			
1.01325	64.858	75.673			
1.01325	83.091	76.949			
