Adsorption isotherm of Nitrogen on MF1
DOI: 10.1016/j.cej.2016.11.112
Article source: Figure 1
Adsorbate Nitrogen: InChIKey IJGRMHOSHXDMSA-UHFFFAOYSA-N
Kind: experiment
Temperature: 77 K
Tabular data in the source: 0
pressure (bar)	uptake (cm3(STP)/g)
0.024216	17.36
0.049628	18.28
0.073834	19.48
0.100614	20.28
0.126542	20.15
0.150748	22.53
0.176495	23.06
0.201217	24.13
0.226629	25.06
0.252902	25.72
0.277108	28.36
0.301831	28.37
0.328955	29.83
0.354357	30.76
0.379424	30.9
0.404664	31.96
0.43042	33.68
0.457889	34.61
0.480372	35.93
0.506818	37.39
0.533597	39.1
0.559181	40.95
0.58356	40.31
0.583732	46.74
0.608282	48.07
0.608961	42.68
0.634201	45.71
0.63489	50.44
0.66168	53.21
0.661842	45.2
0.685511	54.93
0.685774	48.88
0.710315	59.53
0.711399	51.18
0.735382	63.71
0.736203	55.16
0.758271	58.71
0.761554	67.47
0.785537	71.65
0.786621	64.15
0.810341	77.71
0.811151	68.12
0.835955	74.59
0.836239	85.02
0.863485	83.99
0.864042	96.51
0.888025	95.89
0.889667	112.79
0.912707	112.18
0.913072	135.7
0.937967	140.71
0.939366	169.22
0.964787	187.23
0.965162	237.17
0.989591	308.53
0.991202	387.9
1.00853	603.41
