Adsorption isotherm of Arsenate, Water on MF1
DOI: 10.1016/j.cej.2016.11.112
Article source: Figure 4
Adsorbate Arsenate: InChIKey HAYXDMNJJFVXCI-UHFFFAOYSA-N
Adsorbate Water: InChIKey XLYOFNOQVPJJNP-UHFFFAOYSA-N
Kind: experiment
Temperature: 298 K
Tabular data in the source: 0
pressure (bar)	Arsenate fraction	Arsenate uptake (mg/g)	Water fraction	Water uptake (mg/g)	total uptake (mg/g)
1.01325	0.249	4.363			
1.01325	0.515	24.443			
1.01325	1.21	46.044			
1.01325	6.447	76.315			
1.01325	22.01	99.674			
1.01325	38.796	106.427			
1.01325	59.865	108.58			
1.01325	78.113	110.62			
