Adsorption isotherm of Nitrogen on Fe3O4
DOI: 10.1016/j.cej.2016.11.112
Article source: Figure 1
Adsorbate Nitrogen: InChIKey IJGRMHOSHXDMSA-UHFFFAOYSA-N
Kind: experiment
Temperature: 77 K
Tabular data in the source: 0
pressure (bar)	uptake (cm3(STP)/g)
0.025929	7.24
0.050824	9.35
0.07812	9.89
0.101637	11.73
0.128255	11.35
0.152116	12.67
0.178035	12.03
0.202757	14.53
0.228858	13.89
0.253743	15.47
0.27881	16.14
0.304222	17.73
0.33083	17.21
0.356069	18.67
0.380964	19.07
0.407744	19.87
0.4335	20.67
0.45873	21.86
0.482774	23.18
0.508348	23.19
0.534621	24.12
0.559506	25.18
0.584401	25.98
0.609812	27.27
0.635559	28.44
0.659998	30.27
0.686169	31.44
0.707802	33.93
0.734845	40.73
0.736355	34.44
0.761452	45.04
0.763398	36.44
0.785902	48.36
0.786976	38.93
0.810777	50.36
0.812276	42.08
0.836948	56
0.837587	45.4
0.862897	51.87
0.863343	63.46
0.88606	70.92
0.889079	57.51
0.910944	82.85
0.913305	66.96
0.938859	98.26
0.939497	82.53
0.965243	101.75
0.96655	115.98
0.98947	139.68
0.992064	164.51
1.00869	365.83
