Adsorption isotherm of As(III), Water on MF1
DOI: 10.1016/j.cej.2016.11.112
Article source: Figure 4
Adsorbate As(III): InChIKey LULLIKNODDLMDQ-UHFFFAOYSA-N
Adsorbate Water: InChIKey XLYOFNOQVPJJNP-UHFFFAOYSA-N
Kind: experiment
Temperature: 298 K
Tabular data in the source: 0
pressure (bar)	As(III) fraction	As(III) uptake (mg/g)	Water fraction	Water uptake (mg/g)	total uptake (mg/g)
1.01325	0.193	3.919			
1.01325	0.816	8.531			
1.01325	2.079	14.975			
1.01325	5.722	22.689			
1.01325	12.709	36.824			
1.01325	29.975	49.715			
1.01325	50.773	52.049			
1.01325	68.763	52.167			
1.01325	89.703	52.36			
