Adsorption isotherm of Nitrogen on MF4
DOI: 10.1016/j.cej.2016.11.112
Article source: Figure 1
Adsorbate Nitrogen: InChIKey IJGRMHOSHXDMSA-UHFFFAOYSA-N
Kind: experiment
Temperature: 77 K
Tabular data in the source: 0
pressure (bar)	uptake (cm3(STP)/g)
0.025817	32.34
0.048959	36.32
0.073834	38.49
0.098283	40.65
0.124019	41.48
0.149117	43.32
0.17464	46.31
0.200812	46.81
0.226548	49.47
0.254027	51.97
0.278253	53.13
0.304425	53.81
0.331032	55.97
0.354175	58.63
0.380478	59.02
0.403823	60.74
0.430096	63.24
0.455335	64.43
0.479886	67.07
0.480058	71.01
0.506159	74.84
0.506838	67.87
0.529159	78.92
0.532077	71.95
0.556111	73.41
0.556466	81.95
0.582557	77.76
0.583762	84.72
0.606763	87.23
0.607958	78.03
0.629074	80.4
0.630634	89.47
0.659471	93.55
0.659988	87.38
0.682309	89.1
0.682654	97.9
0.708744	93.44
0.709099	103.3
0.731937	109.88
0.735362	97.92
0.75975	114.62
0.763003	104.76
0.787391	121.59
0.788759	111.74
0.810736	118.45
0.812296	130.67
0.835641	128.45
0.837019	140.67
0.862603	142.91
0.866737	160
0.88837	159.87
0.890964	181.16
0.913285	189.32
0.915879	212.58
0.937197	264.23
0.937349	227.57
0.937876	245.17
0.963491	299.98
0.965953	382.11
0.986288	487.9
0.988609	599.33
1.00842	691.72
