Adsorption isotherm of Nitrogen on MnO2
DOI: 10.1016/j.cej.2016.11.112
Article source: Figure 1
Adsorbate Nitrogen: InChIKey IJGRMHOSHXDMSA-UHFFFAOYSA-N
Kind: experiment
Temperature: 77 K
Tabular data in the source: 0
pressure (bar)	uptake (cm3(STP)/g)
0.024936	54.94
0.049314	59.02
0.075931	63.37
0.100138	66.53
0.125549	69.69
0.149755	72.99
0.175512	76.55
0.201258	77.87
0.225981	81.95
0.254138	83.67
0.276804	86.97
0.305479	89.47
0.329624	91.71
0.352249	94.01
0.378137	98.61
0.403762	101.13
0.430471	103.01
0.456085	106.36
0.480342	109.71
0.482541	138.49
0.505967	113.68
0.508216	207.34
0.531581	116.4
0.531925	214.03
0.555838	120.79
0.559455	217.37
0.580642	122.89
0.586437	221.14
0.606266	129.99
0.609053	224.28
0.634333	135.22
0.636035	229.71
0.658934	229.3
0.660231	141.07
0.683454	231.19
0.688307	148.59
0.709626	233.29
0.710923	155.06
0.734693	235.38
0.736821	166.34
0.760541	174.69
0.761402	237.27
0.783754	238.11
0.786165	184.09
0.809064	195.15
0.809915	239.37
0.837982	241.05
0.839046	205.38
0.853525	245.65
0.865217	218.54
0.882939	230.22
0.885948	243.99
0.910742	239.41
0.912383	245.88
0.938818	243.8
0.962254	248.19
0.990605	256.13
1.00671	285.34
