Adsorption isotherm of As(III), Water on MF4
DOI: 10.1016/j.cej.2016.11.112
Article source: Figure 4
Adsorbate As(III): InChIKey LULLIKNODDLMDQ-UHFFFAOYSA-N
Adsorbate Water: InChIKey XLYOFNOQVPJJNP-UHFFFAOYSA-N
Kind: experiment
Temperature: 298 K
Tabular data in the source: 0
pressure (bar)	As(III) fraction	As(III) uptake (mg/g)	Water fraction	Water uptake (mg/g)	total uptake (mg/g)
1.01325	0.664	2.496			
1.01325	2.536	12.838			
1.01325	6.207	19.056			
1.01325	14.525	28.878			
1.01325	33.036	36.671			
1.01325	52.223	39.178			
1.01325	71.935	40.232			
1.01325	92.172	40.765			
