Adsorption isotherm of Nitrogen on MF2
DOI: 10.1016/j.cej.2016.11.112
Article source: Figure 1
Adsorbate Nitrogen: InChIKey IJGRMHOSHXDMSA-UHFFFAOYSA-N
Kind: experiment
Temperature: 77 K
Tabular data in the source: 0
pressure (bar)	uptake (cm3(STP)/g)
0.024074	25.88
0.048736	30.2
0.075344	29.55
0.100867	32.54
0.12791	34.7
0.151052	36.36
0.176799	38.03
0.203619	39.36
0.228493	41.69
0.252933	42.53
0.278679	44.36
0.303554	45.36
0.331022	47.53
0.355228	48.1
0.379779	49.16
0.405535	50.75
0.430086	52.73
0.45876	54.71
0.482277	56.04
0.507517	57.36
0.53224	60
0.557479	62.77
0.58203	64.62
0.582202	70.66
0.607442	66.6
0.60882	72.9
0.634393	67.66
0.634738	75.94
0.661183	80.28
0.661862	70.95
0.683849	81.34
0.687274	74.51
0.710284	78.99
0.71149	90.29
0.735524	83.73
0.737419	96.87
0.760074	88.73
0.762486	101.87
0.787026	93.6
0.787553	105.96
0.808507	117
0.811243	105.18
0.836148	115.17
0.839421	126.61
0.861408	146.06
0.862421	128.33
0.887691	168.02
0.888015	144.1
0.912768	196.54
0.916183	167.9
0.933742	227.3
0.938707	207.33
0.942851	250.56
0.96731	355.57
0.967422	277.38
0.989703	453.34
0.99408	575.16
1.00962	700.39
