Adsorption isotherm of Nitrogen on MF3
DOI: 10.1016/j.cej.2016.11.112
Article source: Figure 1
Adsorbate Nitrogen: InChIKey IJGRMHOSHXDMSA-UHFFFAOYSA-N
Kind: experiment
Temperature: 77 K
Tabular data in the source: 0
pressure (bar)	uptake (cm3(STP)/g)
0.023892	35.23
0.050672	36.68
0.076256	38.79
0.099773	41.3
0.125012	42.89
0.152481	44.74
0.176859	46.46
0.203811	47.65
0.227855	49.89
0.254635	51.22
0.278496	51.88
0.306654	55.05
0.32777	56.24
0.354549	58.22
0.3791	59.28
0.406062	61
0.431291	62.59
0.458254	65.09
0.481608	73.64
0.482794	62.61
0.508895	69.32
0.509077	76.94
0.532766	71.82
0.532766	79.05
0.558158	73.11
0.559891	82.88
0.581087	76.43
0.581736	86.36
0.604665	88.69
0.606388	78.76
0.631485	81.58
0.631921	91.02
0.657667	96.16
0.65939	84.24
0.682978	99.65
0.6847	87.89
0.711318	104.46
0.711956	93.87
0.734886	96.85
0.735331	108.94
0.759112	103.82
0.762152	114.91
0.786803	110.78
0.788333	122.7
0.809307	117.91
0.811699	131.98
0.833341	145.24
0.836999	128.35
0.855399	154.73
0.865866	146.99
0.866393	164.86
0.884246	160.4
0.888562	185.89
0.913133	221.64
0.913974	193.52
0.94202	278.82
0.943013	237.82
0.962163	365.16
0.963744	403.27
0.965213	310.63
0.988588	573.18
0.992064	627.32
0.994191	496.05
1.0074	712.61
