Adsorption isotherm of Arsenate, Water on MF3
DOI: 10.1016/j.cej.2016.11.112
Article source: Figure 4
Adsorbate Arsenate: InChIKey HAYXDMNJJFVXCI-UHFFFAOYSA-N
Adsorbate Water: InChIKey XLYOFNOQVPJJNP-UHFFFAOYSA-N
Kind: experiment
Temperature: 298 K
Tabular data in the source: 0
pressure (bar)	Arsenate fraction	Arsenate uptake (mg/g)	Water fraction	Water uptake (mg/g)	total uptake (mg/g)
1.01325	0.441	4.238			
1.01325	0.794	8.189			
1.01325	1.336	16.844			
1.01325	3.025	35.797			
1.01325	9.619	54.428			
1.01325	26.674	69.481			
1.01325	45.92	76.394			
1.01325	64.403	78.889			
1.01325	86.043	81.487			
