Adsorption isotherm of Carbon Dioxide, Nitrogen on Dry Activated Carbon (Filtrasorb 400, 12x40)
DOI: 10.1021/la020976k
Article source: Table 9
Adsorbate Carbon Dioxide: InChIKey CURLTUGMZLYLDI-UHFFFAOYSA-N
Adsorbate Nitrogen: InChIKey IJGRMHOSHXDMSA-UHFFFAOYSA-N
Kind: experiment
Temperature: 318 K
Tabular data in the source: 0
pressure (bar)	Carbon Dioxide fraction	Carbon Dioxide uptake (mmol/g)	Nitrogen fraction	Nitrogen uptake (mmol/g)	total uptake (mmol/g)
9	0.112	0.952	0.888	0.831	
15.4	0.12	1.373	0.88	1.095	
27.4	0.128	1.976	0.872	1.363	
42.6	0.134	2.581	0.866	1.511	
55.6	0.147	2.987	0.853	1.578	
69.6	0.157	3.368	0.843	1.603	
83.1	0.169	3.675	0.831	1.618	
96.7	0.183	3.93	0.817	1.631	
111.2	0.192	4.197	0.808	1.616	
125.4	0.205	4.397	0.795	1.615	
