Adsorption isotherm of Carbon Dioxide, Nitrogen on Dry Activated Carbon (Filtrasorb 400, 12x40)
DOI: 10.1021/la020976k
Article source: Table 9
Adsorbate Carbon Dioxide: InChIKey CURLTUGMZLYLDI-UHFFFAOYSA-N
Adsorbate Nitrogen: InChIKey IJGRMHOSHXDMSA-UHFFFAOYSA-N
Kind: experiment
Temperature: 318 K
Tabular data in the source: 0
pressure (bar)	Carbon Dioxide fraction	Carbon Dioxide uptake (mmol/g)	Nitrogen fraction	Nitrogen uptake (mmol/g)	total uptake (mmol/g)
7.8	0.206	1.477	0.794	0.606	
14.3	0.221	2.181	0.779	0.796	
27.2	0.233	3.192	0.767	0.934	
41.5	0.251	4.009	0.749	0.957	
55.3	0.276	4.6	0.724	0.953	
69.7	0.307	5.062	0.693	0.953	
82.6	0.327	5.432	0.673	0.934	
98.7	0.363	5.699	0.637	0.97	
112.3	0.381	5.942	0.619	0.954	
126.6	0.396	6.187	0.604	0.937	
