Adsorption isotherm of Carbon Dioxide on Dry Activated Carbon (Filtrasorb 400, 12x40)
DOI: 10.1021/la020976k
Article source: Table 5
Adsorbate Carbon Dioxide: InChIKey CURLTUGMZLYLDI-UHFFFAOYSA-N
Kind: experiment
Temperature: 318 K
Tabular data in the source: 0
pressure (bar)	uptake (mmol/g)
3.6	2.982
7.3	4.223
11.9	5.172
17.9	5.976
25.2	6.611
33	7.106
42.9	7.641
55.6	8.101
70.1	8.434
83	8.623
96.4	8.577
110.6	8.781
133.6	8.924
3.6	2.982
7.3	4.223
11.9	5.172
17.9	5.976
25.2	6.611
33	7.106
42.9	7.641
55.6	8.101
70.1	8.434
83	8.623
96.4	8.577
110.6	8.781
133.6	8.924
5.9	3.87
11.5	5.155
18.9	6.086
26.3	6.672
34.7	7.172
59.4	7.987
68.4	8.188
79.6	8.393
86.4	8.515
91.7	8.512
100.2	8.39
111.1	8.569
129	8.751
