Adsorption isotherm of Carbon Dioxide, Methane on Dry Activated Carbon (Filtrasorb 400, 12x40)
DOI: 10.1021/la020976k
Article source: Table 8
Adsorbate Carbon Dioxide: InChIKey CURLTUGMZLYLDI-UHFFFAOYSA-N
Adsorbate Methane: InChIKey VNWKTOKETHGBQD-UHFFFAOYSA-N
Kind: experiment
Temperature: 318 K
Tabular data in the source: 0
pressure (bar)	Carbon Dioxide fraction	Carbon Dioxide uptake (mmol/g)	Methane fraction	Methane uptake (mmol/g)	total uptake (mmol/g)
6.8	0.609	2.901	0.391	0.574	
13.5	0.618	3.932	0.382	0.699	
27.5	0.634	5.179	0.366	0.756	
42.1	0.66	5.945	0.34	0.764	
55.8	0.677	6.47	0.323	0.737	
69.5	0.698	6.807	0.302	0.741	
83.2	0.714	7.054	0.286	0.727	
96.6	0.73	7.157	0.27	0.72	
110	0.744	7.385	0.256	0.79	
124.1	0.756	7.503	0.244	0.862	
