Adsorption isotherm of Methane on Dry Activated Carbon (Filtrasorb 400, 12x40)
DOI: 10.1021/la020976k
Article source: Table 3
Adsorbate Methane: InChIKey VNWKTOKETHGBQD-UHFFFAOYSA-N
Kind: experiment
Temperature: 318 K
Tabular data in the source: 0
pressure (bar)	uptake (mmol/g)
5.5	1.888
12.3	2.822
25.5	3.755
34.8	4.149
48	4.541
61.8	4.835
76.4	5.066
90.3	5.238
103.7	5.357
117.6	5.459
132.5	5.549
5.5	1.888
12.3	2.822
25.5	3.755
34.8	4.149
48	4.541
61.8	4.835
76.4	5.066
90.3	5.238
103.7	5.357
117.6	5.459
132.5	5.549
8.8	2.432
15.6	3.17
28.6	3.985
42.9	4.513
53.3	4.786
69.5	5.101
83.6	5.301
97.4	5.45
110.8	5.576
124.5	5.677
