Adsorption isotherm of Carbon Dioxide, Nitrogen on Dry Activated Carbon (Filtrasorb 400, 12x40)
DOI: 10.1021/la020976k
Article source: Table 9
Adsorbate Carbon Dioxide: InChIKey CURLTUGMZLYLDI-UHFFFAOYSA-N
Adsorbate Nitrogen: InChIKey IJGRMHOSHXDMSA-UHFFFAOYSA-N
Kind: experiment
Temperature: 318 K
Tabular data in the source: 0
pressure (bar)	Carbon Dioxide fraction	Carbon Dioxide uptake (mmol/g)	Nitrogen fraction	Nitrogen uptake (mmol/g)	total uptake (mmol/g)
6.6	0.418	2.255	0.582	0.333	
14.6	0.433	3.583	0.567	0.414	
27.9	0.479	4.9	0.521	0.423	
41.3	0.529	5.718	0.471	0.42	
55.3	0.568	6.333	0.432	0.401	
69.8	0.606	6.771	0.394	0.401	
83.5	0.634	7.083	0.366	0.397	
97.3	0.659	7.305	0.341	0.402	
111.2	0.68	7.475	0.32	0.405	
125.2	0.701	7.51	0.299	0.429	
