Adsorption isotherm of Nitrogen, Methane on Dry Activated Carbon (Filtrasorb 400, 12x40)
DOI: 10.1021/la020976k
Article source: Table 7
Adsorbate Nitrogen: InChIKey IJGRMHOSHXDMSA-UHFFFAOYSA-N
Adsorbate Methane: InChIKey VNWKTOKETHGBQD-UHFFFAOYSA-N
Kind: experiment
Temperature: 318 K
Tabular data in the source: 0
pressure (bar)	Nitrogen fraction	Nitrogen uptake (mmol/g)	Methane fraction	Methane uptake (mmol/g)	total uptake (mmol/g)
7.7	0.796	0.745	0.204	0.739	
16	0.77	1.104	0.23	1.169	
28.5	0.76	1.366	0.24	1.627	
41.6	0.749	1.521	0.251	1.977	
55.3	0.729	1.66	0.271	2.21	
69.8	0.716	1.75	0.284	2.414	
82.9	0.709	1.792	0.291	2.589	
96.2	0.702	1.829	0.298	2.729	
110.1	0.695	1.869	0.305	2.835	
124.4	0.685	1.931	0.315	2.903	
