Adsorption isotherm of Nitrogen, Methane on Dry Activated Carbon (Filtrasorb 400, 12x40)
DOI: 10.1021/la020976k
Article source: Table 7
Adsorbate Nitrogen: InChIKey IJGRMHOSHXDMSA-UHFFFAOYSA-N
Adsorbate Methane: InChIKey VNWKTOKETHGBQD-UHFFFAOYSA-N
Kind: experiment
Temperature: 318 K
Tabular data in the source: 0
pressure (bar)	Nitrogen fraction	Nitrogen uptake (mmol/g)	Methane fraction	Methane uptake (mmol/g)	total uptake (mmol/g)
6.5	0.351	0.234	0.649	1.613	
13.9	0.326	0.314	0.674	2.416	
27.6	0.297	0.382	0.703	3.317	
42.1	0.279	0.396	0.721	3.822	
56.5	0.268	0.39	0.732	4.214	
69.4	0.256	0.411	0.744	4.442	
83.5	0.248	0.414	0.752	4.657	
97.4	0.241	0.419	0.759	4.828	
110.5	0.237	0.414	0.763	4.976	
124.4	0.232	0.423	0.768	5.099	
