Adsorption isotherm of Nitrogen, Methane on Dry Activated Carbon (Filtrasorb 400, 12x40)
DOI: 10.1021/la020976k
Article source: Table 7
Adsorbate Nitrogen: InChIKey IJGRMHOSHXDMSA-UHFFFAOYSA-N
Adsorbate Methane: InChIKey VNWKTOKETHGBQD-UHFFFAOYSA-N
Kind: experiment
Temperature: 318 K
Tabular data in the source: 0
pressure (bar)	Nitrogen fraction	Nitrogen uptake (mmol/g)	Methane fraction	Methane uptake (mmol/g)	total uptake (mmol/g)
7.6	0.906	0.929	0.094	0.328	
15	0.9	1.389	0.1	0.525	
27.7	0.894	1.856	0.106	0.766	
41.6	0.888	2.169	0.112	0.965	
55.5	0.881	2.386	0.119	1.112	
69.5	0.872	2.56	0.128	1.211	
83.6	0.869	2.669	0.131	1.317	
97	0.863	2.777	0.137	1.379	
110.7	0.857	2.87	0.143	1.424	
124.4	0.853	2.94	0.147	1.473	
