Adsorption isotherm of Carbon Dioxide, Nitrogen on Dry Activated Carbon (Filtrasorb 400, 12x40)
DOI: 10.1021/la020976k
Article source: Table 9
Adsorbate Carbon Dioxide: InChIKey CURLTUGMZLYLDI-UHFFFAOYSA-N
Adsorbate Nitrogen: InChIKey IJGRMHOSHXDMSA-UHFFFAOYSA-N
Kind: experiment
Temperature: 318 K
Tabular data in the source: 0
pressure (bar)	Carbon Dioxide fraction	Carbon Dioxide uptake (mmol/g)	Nitrogen fraction	Nitrogen uptake (mmol/g)	total uptake (mmol/g)
7.9	0.046	0.358	0.954	0.975	
15.3	0.055	0.566	0.945	1.443	
27.4	0.056	0.833	0.944	1.902	
41.8	0.054	1.101	0.946	2.221	
55.7	0.053	1.33	0.947	2.408	
69.5	0.054	1.527	0.946	2.537	
83.4	0.058	1.696	0.942	2.637	
97	0.063	1.835	0.937	2.711	
111.2	0.066	1.974	0.934	2.766	
126.5	0.071	2.101	0.929	2.813	
