Adsorption isotherm of Carbon Dioxide, Methane on Dry Activated Carbon (Filtrasorb 400, 12x40)
DOI: 10.1021/la020976k
Article source: Table 8
Adsorbate Carbon Dioxide: InChIKey CURLTUGMZLYLDI-UHFFFAOYSA-N
Adsorbate Methane: InChIKey VNWKTOKETHGBQD-UHFFFAOYSA-N
Kind: experiment
Temperature: 318 K
Tabular data in the source: 0
pressure (bar)	Carbon Dioxide fraction	Carbon Dioxide uptake (mmol/g)	Methane fraction	Methane uptake (mmol/g)	total uptake (mmol/g)
6.8	0.223	1.189	0.777	1.5	
14.2	0.225	1.726	0.775	2.009	
27.7	0.234	2.329	0.766	2.418	
41.7	0.245	2.767	0.755	2.614	
55.6	0.256	3.103	0.744	2.717	
69.5	0.273	3.323	0.727	2.81	
83	0.28	3.543	0.72	2.811	
96.6	0.293	3.683	0.707	2.848	
110.4	0.3	3.838	0.7	2.859	
124.1	0.312	3.903	0.688	2.908	
