Adsorption isotherm of Carbon Dioxide, Methane on Dry Activated Carbon (Filtrasorb 400, 12x40)
DOI: 10.1021/la020976k
Article source: Table 8
Adsorbate Carbon Dioxide: InChIKey CURLTUGMZLYLDI-UHFFFAOYSA-N
Adsorbate Methane: InChIKey VNWKTOKETHGBQD-UHFFFAOYSA-N
Kind: experiment
Temperature: 318 K
Tabular data in the source: 0
pressure (bar)	Carbon Dioxide fraction	Carbon Dioxide uptake (mmol/g)	Methane fraction	Methane uptake (mmol/g)	total uptake (mmol/g)
6.8	0.382	1.935	0.618	1.066	
14.4	0.39	2.777	0.61	1.391	
27.5	0.397	3.67	0.603	1.591	
41.8	0.418	4.3	0.582	1.671	
55.4	0.44	4.726	0.56	1.713	
69	0.452	5.102	0.548	1.7	
82.9	0.471	5.341	0.529	1.718	
96.9	0.487	5.547	0.513	1.723	
110.1	0.5	5.677	0.5	1.741	
124.3	0.514	5.776	0.486	1.774	
