Adsorption isotherm of Nitrogen, Methane on Dry Activated Carbon (Filtrasorb 400, 12x40)
DOI: 10.1021/la020976k
Article source: Table 7
Adsorbate Nitrogen: InChIKey IJGRMHOSHXDMSA-UHFFFAOYSA-N
Adsorbate Methane: InChIKey VNWKTOKETHGBQD-UHFFFAOYSA-N
Kind: experiment
Temperature: 318 K
Tabular data in the source: 0
pressure (bar)	Nitrogen fraction	Nitrogen uptake (mmol/g)	Methane fraction	Methane uptake (mmol/g)	total uptake (mmol/g)
7.5	0.63	0.504	0.37	1.164	
14.3	0.606	0.682	0.394	1.714	
27	0.576	0.848	0.424	2.38	
42	0.549	0.951	0.451	2.879	
55.2	0.532	1.002	0.468	3.19	
69.7	0.518	1.04	0.482	3.451	
83.6	0.509	1.047	0.491	3.675	
97.1	0.499	1.067	0.501	3.814	
110.7	0.491	1.083	0.509	3.948	
124.3	0.487	1.081	0.513	4.089	
