Adsorption isotherm of Carbon Dioxide, Methane on Dry Activated Carbon (Filtrasorb 400, 12x40)
DOI: 10.1021/la020976k
Article source: Table 8
Adsorbate Carbon Dioxide: InChIKey CURLTUGMZLYLDI-UHFFFAOYSA-N
Adsorbate Methane: InChIKey VNWKTOKETHGBQD-UHFFFAOYSA-N
Kind: experiment
Temperature: 318 K
Tabular data in the source: 0
pressure (bar)	Carbon Dioxide fraction	Carbon Dioxide uptake (mmol/g)	Methane fraction	Methane uptake (mmol/g)	total uptake (mmol/g)
7.7	0.11	0.571	0.89	1.96	
14.6	0.114	0.794	0.886	2.591	
28.1	0.116	1.082	0.884	3.225	
41.2	0.117	1.291	0.883	3.556	
55.5	0.123	1.462	0.877	3.789	
69.2	0.129	1.588	0.871	3.951	
83	0.134	1.684	0.866	4.042	
96.7	0.139	1.771	0.861	4.127	
110.4	0.144	1.839	0.856	4.194	
124.1	0.148	1.892	0.852	4.253	
