Adsorption isotherm of Nitrogen on Dry Activated Carbon (Filtrasorb 400, 12x40)
DOI: 10.1021/la020976k
Article source: Table 4
Adsorbate Nitrogen: InChIKey IJGRMHOSHXDMSA-UHFFFAOYSA-N
Kind: experiment
Temperature: 318 K
Tabular data in the source: 0
pressure (bar)	uptake (mmol/g)
6.9	1.007
17.3	1.788
28.6	2.324
41	2.735
55.3	3.078
69.7	3.338
83.1	3.522
96.6	3.683
111	3.826
124.6	3.916
136.6	3.994
6.9	1.007
17.3	1.788
28.6	2.324
41	2.735
55.3	3.078
69.7	3.338
83.1	3.522
96.6	3.683
111	3.826
124.6	3.916
136.6	3.994
8.9	1.206
18.1	1.845
28	2.314
41.9	2.775
55.6	3.1
69.6	3.354
82.9	3.543
97	3.707
111.9	3.85
124.5	3.952
136.5	4.041
