Adsorption isotherm of Nitrogen on MIL-100-Fe/Cu+(H)
DOI: 10.1016/j.jhazmat.2012.08.025
Adsorbate Nitrogen: InChIKey IJGRMHOSHXDMSA-UHFFFAOYSA-N
Temperature: 77 K
Tabular data in the source: 0
pressure (bar)	uptake (cm3(STP)/g)
0.0124326	258.537
0.019537	284.183
0.0319696	303.409
0.0515065	342.936
0.0763718	371.769
0.0905805	384.58
0.110117	403.798
0.124326	427.298
0.147415	443.306
0.172281	448.623
0.191817	451.808
0.209578	452.857
0.227339	456.044
0.2451	457.094
0.264637	459.21
0.287726	462.391
0.301935	464.513
0.325024	466.626
0.360546	468.724
0.401396	471.886
0.438694	473.983
0.477768	477.147
0.516842	480.31
0.559468	482.401
0.598542	484.496
0.635839	485.524
0.676689	488.685
0.713987	490.782
0.731748	492.9
0.753061	490.739
0.774374	492.853
0.793911	494.97
0.811672	497.088
0.84897	498.116
0.872059	503.435
0.904029	506.606
0.943103	511.908
0.946655	514.042
0.97152	518.29
