Adsorption isotherm of Nitrogen on MIL-100-Fe/Cu+(L)
DOI: 10.1016/j.jhazmat.2012.08.025
Adsorbate Nitrogen: InChIKey IJGRMHOSHXDMSA-UHFFFAOYSA-N
Temperature: 77 K
Tabular data in the source: 0
pressure (bar)	uptake (cm3(STP)/g)
0.00888044	324.812
0.0213131	355.796
0.0301935	375.026
0.0532826	428.445
0.0745957	465.832
0.0870283	481.852
0.110117	505.342
0.12255	538.464
0.149191	553.399
0.170504	558.72
0.207802	565.092
0.246876	570.393
0.284174	575.697
0.323248	579.929
0.362322	583.093
0.39962	586.259
0.44047	590.489
0.479544	593.653
0.516842	595.75
0.557692	597.842
0.575452	599.961
0.593213	601.01
0.616302	603.122
0.641168	606.302
0.657152	605.215
0.671361	606.268
0.690898	607.316
0.717539	609.424
0.7353	611.543
0.753061	611.523
0.76727	612.576
0.792135	614.687
0.811672	615.734
0.84897	616.762
0.872059	619.943
0.905805	622.044
0.950207	625.202
0.966192	630.528
