Adsorption isotherm of Nitrogen on MIL-100-Fe/Cu+(M)
DOI: 10.1016/j.jhazmat.2012.08.025
Adsorbate Nitrogen: InChIKey IJGRMHOSHXDMSA-UHFFFAOYSA-N
Temperature: 77 K
Tabular data in the source: 0
pressure (bar)	uptake (cm3(STP)/g)
0.0106565	308.777
0.0230891	341.899
0.0301935	360.062
0.0497305	403.865
0.0728196	442.319
0.0888044	461.541
0.108341	478.622
0.124326	507.464
0.145639	524.543
0.170504	530.929
0.193594	536.248
0.227339	539.417
0.264637	545.79
0.305487	548.951
0.342785	552.117
0.362322	554.233
0.403172	555.257
0.442246	558.421
0.479544	562.655
0.518618	563.681
0.557692	565.776
0.596765	567.871
0.6536	571.015
0.713987	575.224
0.751285	577.321
0.792135	578.345
0.813448	580.459
0.84897	582.558
0.872059	583.601
0.905805	585.702
0.92179	589.96
0.948431	595.275
0.967968	599.529
