Adsorption isotherm of Nitrogen on MIL-100(Fe)
DOI: 10.1016/j.jhazmat.2012.08.025
Adsorbate Nitrogen: InChIKey IJGRMHOSHXDMSA-UHFFFAOYSA-N
Temperature: 77 K
Tabular data in the source: 0
pressure (bar)	uptake (cm3(STP)/g)
0.00888044	338.708
0.019537	370.762
0.0301935	393.197
0.0515065	445.549
0.0745957	486.141
0.0852522	501.094
0.108341	523.515
0.124326	555.564
0.147415	575.847
0.172281	581.164
0.190041	584.351
0.207802	586.47
0.227339	588.586
0.2451	591.773
0.264637	594.958
0.284174	594.937
0.301935	598.124
0.323248	601.307
0.362322	604.471
0.39962	606.567
0.44047	609.729
0.477768	612.895
0.516842	616.058
0.538155	616.035
0.555915	617.084
0.577229	618.13
0.616302	621.293
0.635839	621.272
0.657152	621.248
0.674913	622.298
0.690898	623.349
0.713987	623.324
0.770822	627.537
0.811672	627.492
0.847194	631.728
0.861403	630.644
0.872059	631.701
0.902253	632.737
0.946655	635.894
0.960863	641.223
