Adsorption isotherm of Copper, Water on MNF-SH
DOI: 10.1016/j.cej.2016.12.037
Article source: Figure 4
Adsorbate Copper: InChIKey RYGMFSIKBFXOCR-UHFFFAOYSA-N
Adsorbate Water: InChIKey XLYOFNOQVPJJNP-UHFFFAOYSA-N
Kind: experiment
Temperature: 303 K
Tabular data in the source: 0
pressure (bar)	Copper fraction	Copper uptake (mmol/g)	Water fraction	Water uptake (mmol/g)	total uptake (mmol/g)
1.01325	0.15145	1.8542			
1.01325	0.28235	2.7293			
1.01325	0.44681	3.5535			
1.01325	0.74636	4.2597			
1.01325	1.19946	4.8033			
