Adsorption isotherm of Bisphenol A, Water on MNF-SH
DOI: 10.1016/j.cej.2016.12.037
Article source: Figure 4
Adsorbate Bisphenol A: InChIKey IISBACLAFKSPIT-UHFFFAOYSA-N
Adsorbate Water: InChIKey XLYOFNOQVPJJNP-UHFFFAOYSA-N
Kind: experiment
Temperature: 303 K
Tabular data in the source: 0
pressure (bar)	Bisphenol A fraction	Bisphenol A uptake (mmol/g)	Water fraction	Water uptake (mmol/g)	total uptake (mmol/g)
1.01325	0.25212	0.41915			
1.01325	0.4834	0.79901			
1.01325	1.18435	1.42167			
1.01325	1.74752	1.97549			
1.01325	2.39809	2.40176			
