Adsorption isotherm of Nitrogen on UTSA-72a
DOI: 10.1021/Cg500235j
Adsorbate Nitrogen: InChIKey IJGRMHOSHXDMSA-UHFFFAOYSA-N
Temperature: 273 K
Tabular data in the source: 0
pressure (bar)	uptake (cm3(STP)/g)
0.0118182	-0.00176581
0.0354428	0.154067
0.05317	0.151418
0.0708974	0.148769
0.11817	0.141706
0.174295	0.292683
0.227465	0.444101
0.265874	0.438362
0.319044	0.58978
0.392896	0.738108
0.446078	0.730162
0.502201	0.881139
0.549475	0.874076
0.605588	1.18442
0.661712	1.33539
0.711951	1.16852
0.765121	1.31994
0.821246	1.47092
0.877383	1.46253
0.927586	1.77376
0.983722	1.76537
1.01917	1.91943
1.06938	2.07129
