Adsorption isotherm of Carbon Dioxide on UTSA-72a
DOI: 10.1021/Cg500235j
Adsorbate Carbon Dioxide: InChIKey CURLTUGMZLYLDI-UHFFFAOYSA-N
Temperature: 196 K
Tabular data in the source: 0
pressure (bar)	uptake (cm3(STP)/g)
0.000674059	9.1511
0.00405523	15.0542
0.00475104	24.5005
0.00782778	26.2709
0.0111655	31.5836
0.0171885	33.3532
0.0351054	36.5954
0.0588932	39.5409
0.106273	42.775
0.129952	44.2445
0.159546	46.0075
0.192086	47.7697
0.221635	48.9423
0.254175	50.7046
0.286692	52.1716
0.316242	53.3442
0.351684	54.5152
0.378289	55.6887
0.413731	56.8597
0.44326	57.7371
0.478702	58.9081
0.508252	60.0807
0.537758	60.663
0.570232	61.5396
0.602729	62.7114
0.632235	63.2936
0.664709	64.1703
0.697184	65.0469
0.72669	65.6291
0.759164	66.5057
0.791618	67.0872
0.821146	67.9646
0.856566	68.8404
0.886051	69.1275
0.918526	70.0041
0.945085	70.5871
0.980462	70.8725
0.998206	71.7532
