Adsorption isotherm of Acetylene on UTSA-72a
DOI: 10.1021/Cg500235j
Adsorbate Acetylene: InChIKey HSFWRNGVRCDJHI-UHFFFAOYSA-N
Temperature: 296 K
Tabular data in the source: 0
pressure (bar)	uptake (cm3(STP)/g)
0.00590902	0.731707
0.0147725	1.70732
0.0206816	2.19512
0.0413631	4.5122
0.0679537	6.82927
0.0974989	8.78049
0.127044	10.8537
0.159544	12.439
0.192043	13.7805
0.221588	15.122
0.254088	16.2195
0.283633	17.3171
0.313178	18.1707
0.351587	19.1463
0.378178	19.878
0.410677	20.6098
0.440222	21.2195
0.472722	21.9512
0.502267	22.561
0.534767	23.0488
0.567267	23.5366
0.596811	24.1463
0.629311	24.6341
0.658856	25
0.691356	25.2439
0.720901	25.6098
0.750446	25.9756
0.785901	26.3415
0.818399	26.7073
0.84499	26.9512
0.877491	27.0732
0.909989	27.3171
0.945444	27.439
0.972035	27.561
1.00453	27.8049
1.03703	28.0488
