Adsorption isotherm of Methane on UTSA-72a
DOI: 10.1021/Cg500235j
Adsorbate Methane: InChIKey VNWKTOKETHGBQD-UHFFFAOYSA-N
Temperature: 296 K
Tabular data in the source: 0
pressure (bar)	uptake (cm3(STP)/g)
0.0177643	0.122449
0.0651436	0.367347
0.100672	0.612245
0.127312	0.857143
0.15989	0.979592
0.18653	1.22449
0.219109	1.34694
0.25466	1.34694
0.287215	1.71429
0.31978	1.95918
0.352346	2.20408
0.384924	2.32653
0.414539	2.44898
0.44413	2.81633
0.470795	2.81633
0.509285	3.06122
0.535925	3.30612
0.568492	3.55102
0.598107	3.67347
0.630672	3.91837
0.660287	4.04082
0.692854	4.28571
0.725431	4.40816
0.757996	4.65306
0.787611	4.77551
0.82019	4.89796
0.849805	5.02041
0.882382	5.14286
0.911985	5.38776
0.944564	5.5102
0.974167	5.7551
1.00674	5.87755
1.03932	6
