Adsorption isotherm of Acetylene on UTSA-72a
DOI: 10.1021/Cg500235j
Adsorbate Acetylene: InChIKey HSFWRNGVRCDJHI-UHFFFAOYSA-N
Temperature: 273 K
Tabular data in the source: 0
pressure (bar)	uptake (cm3(STP)/g)
0.00601503	1.43516
0.00905198	2.55115
0.0121007	3.82651
0.0210232	4.62466
0.035996	7.33606
0.0687903	11.325
0.0926032	13.719
0.12827	16.5929
0.160899	18.3507
0.190574	20.1082
0.223168	21.3879
0.255774	22.8271
0.285402	23.947
0.317985	25.0674
0.350555	26.0285
0.380159	26.8297
0.415672	27.6318
0.445277	28.4331
0.477825	29.0754
0.507417	29.7172
0.537009	30.3591
0.569544	30.8421
0.599137	31.4839
0.631672	31.9669
0.658298	32.449
0.693788	32.9323
0.726324	33.4153
0.755904	33.8978
0.785485	34.3803
0.820975	34.8637
0.850543	35.1868
0.883079	35.6698
0.912649	35.9929
0.942217	36.3161
0.974753	36.799
1.01022	36.9637
1.0398	37.4462
