Adsorption isotherm of Nitrogen on UTSA-72a
DOI: 10.1021/Cg500235j
Adsorbate Nitrogen: InChIKey IJGRMHOSHXDMSA-UHFFFAOYSA-N
Temperature: 296 K
Tabular data in the source: 0
pressure (bar)	uptake (cm3(STP)/g)
0.0147319	-0.00167761
0.0382791	0.238556
0.0589038	0.236207
0.103112	0.109716
0.159092	0.103341
0.212116	0.21876
0.265126	0.455638
0.315227	0.328476
0.36825	0.443895
0.42422	0.558979
0.4802	0.552604
0.530278	0.668359
0.589193	0.783108
0.639282	0.777404
0.695251	0.892488
0.748286	0.886448
0.801309	1.00187
0.85141	0.874705
0.904432	0.990124
0.981026	1.10286
1.01344	1.09917
1.07235	1.21392
