Adsorption isotherm of Methane on UTSA-72a
DOI: 10.1021/Cg500235j
Adsorbate Methane: InChIKey VNWKTOKETHGBQD-UHFFFAOYSA-N
Temperature: 273 K
Tabular data in the source: 0
pressure (bar)	uptake (cm3(STP)/g)
1.17241e-05	0.158728
0.0355007	0.629637
0.0679999	0.624801
0.0975565	0.779132
0.127113	0.933464
0.159636	1.24608
0.192147	1.39998
0.221715	1.71304
0.254226	1.86693
0.286748	2.17955
0.316305	2.33388
0.348827	2.6465
0.381351	2.95912
0.410908	3.11345
0.440476	3.42651
0.472986	3.5804
0.502555	3.89346
0.53802	4.04692
0.567588	4.35997
0.600111	4.6726
0.632623	4.82649
0.662179	4.98082
0.694702	5.29344
0.724258	5.44777
0.753826	5.76083
0.786337	5.91472
0.818849	6.06861
0.851371	6.38123
0.880928	6.53557
0.913438	6.68946
0.942994	6.84379
0.972563	7.15685
1.00507	7.31074
1.03463	7.46507
