Adsorption isotherm of Carbon Dioxide on UTSA-72a
DOI: 10.1021/Cg500235j
Adsorbate Carbon Dioxide: InChIKey CURLTUGMZLYLDI-UHFFFAOYSA-N
Temperature: 296 K
Tabular data in the source: 0
pressure (bar)	uptake (cm3(STP)/g)
0.0148136	0.857143
0.0296272	1.59184
0.0622171	2.81633
0.0918443	4.16327
0.124434	5.38776
0.159987	6.4898
0.186651	7.46939
0.219241	8.32653
0.251831	9.18367
0.281458	10.1633
0.314049	10.7755
0.346638	11.5102
0.373303	12.1224
0.411818	13.102
0.438483	13.7143
0.474036	14.449
0.503663	14.6939
0.536252	15.4286
0.562916	15.9184
0.595507	16.4082
0.628096	16.898
0.660687	17.5102
0.690314	18
0.719941	18.3673
0.755494	18.8571
0.782158	19.2245
0.814748	19.7143
0.847338	20.0816
0.876965	20.449
0.912517	20.8163
0.939181	21.0612
0.971772	21.551
1.00436	21.7959
1.03399	22.1633
