Adsorption isotherm of Carbon Dioxide on UTSA-72a
DOI: 10.1021/Cg500235j
Adsorbate Carbon Dioxide: InChIKey CURLTUGMZLYLDI-UHFFFAOYSA-N
Temperature: 273 K
Tabular data in the source: 0
pressure (bar)	uptake (cm3(STP)/g)
0.0147725	2.36935
0.0324996	4.42206
0.0649993	7.42119
0.0974989	9.62982
0.127044	11.8389
0.159544	13.7313
0.192043	15.4656
0.221588	16.5679
0.251134	18.1446
0.283633	19.0884
0.316133	20.3484
0.348633	21.2922
0.378178	21.9202
0.410677	23.0221
0.443177	23.8078
0.472722	24.594
0.505221	25.2216
0.534767	26.0077
0.567267	26.6353
0.596811	27.2633
0.629311	27.8909
0.661811	28.3604
0.691356	28.8303
0.723855	29.4579
0.753401	30.0859
0.785901	30.3973
0.818399	30.8668
0.850899	31.3363
0.877491	31.8067
0.912945	32.4338
0.939535	32.7461
0.974989	33.0571
1.00453	33.527
1.03408	33.8388
