Adsorption isotherm of Hydrogen on [Zn9ĲOH)2L6]ĲH3O)2ĲH2O)6
DOI: 10.1039/c5ce01320h
Article source: Figure 3b
Adsorbate Hydrogen: InChIKey UFHFLCQGNIYNRP-UHFFFAOYSA-N
Kind: experiment
Temperature: 278 K
Tabular data in the source: 0
pressure (bar)	uptake (cm3(STP)/g)
0.014611	0.424
0.031472	0.477
0.051372	0.557
0.102065	0.253
0.151298	0.393
0.202002	0.451
0.253262	0.419
0.303387	0.45
0.355327	0.4
0.405462	0.395
0.456712	0.39
0.507415	0.43
0.557206	0.398
0.609926	0.375
0.659727	0.37
0.709751	0.537
0.76011	0.551
0.810022	0.537
0.860715	0.532
0.913546	0.499
0.962557	0.576
1.00886	0.363
