Adsorption isotherm of Carbon monoxide on [Zn9ĲOH)2L6]ĲH3O)2ĲH2O)6
DOI: 10.1039/c5ce01320h
Article source: Figure 3b
Adsorbate Carbon monoxide: InChIKey UGFAIRIUMAVXCW-UHFFFAOYSA-N
Kind: experiment
Temperature: 273 K
Tabular data in the source: 0
pressure (bar)	uptake (cm3(STP)/g)
0.37733	0.216
1.06291	0.296
1.77904	0.375
3.52753	0.443
5.27221	0.52
7.01654	0.469
8.70706	0.754
10.4479	0.885
12.1964	1.071
13.9716	1.183
15.6736	1.351
17.3992	1.608
19.163	1.712
20.8958	1.861
22.6249	2.092
24.3619	2.295
26.1024	2.58
27.8315	2.838
29.5567	3.123
31.2938	3.245
33.0846	3.521
34.6134	3.716
