Adsorption isotherm of Carbon Dioxide on [Zn9ĲOH)2L6]ĲH3O)2ĲH2O)6
DOI: 10.1039/c5ce01320h
Article source: Figure 3b
Adsorbate Carbon Dioxide: InChIKey CURLTUGMZLYLDI-UHFFFAOYSA-N
Kind: experiment
Temperature: 278 K
Tabular data in the source: 0
pressure (bar)	uptake (cm3(STP)/g)
0.011581	1.331
0.031603	4.546
0.050044	6.928
0.070624	9.39
0.101436	12.976
0.152383	18.191
0.202528	22.218
0.253464	25.92
0.305525	29.032
0.355671	31.818
0.40682	34.351
0.456854	36.475
0.508793	38.273
0.558929	39.999
0.609855	41.707
0.658987	43.007
0.709234	44.316
0.760728	45.598
0.811431	46.599
0.862468	47.745
0.914174	48.909
0.96353	49.765
1.01063	50.866
