Adsorption isotherm of Carbon monoxide on [Zn9ĲOH)2L6]ĲH3O)2ĲH2O)6
DOI: 10.1039/c5ce01320h
Article source: Figure 3b
Adsorbate Carbon monoxide: InChIKey UGFAIRIUMAVXCW-UHFFFAOYSA-N
Kind: experiment
Temperature: 278 K
Tabular data in the source: 0
pressure (bar)	uptake (cm3(STP)/g)
0.011014	0.216
0.031026	0.296
0.051929	0.375
0.102966	0.443
0.153892	0.52
0.204808	0.469
0.254153	0.754
0.304968	0.885
0.356005	1.071
0.407823	1.183
0.457503	1.351
0.507871	1.608
0.559355	1.712
0.609936	1.861
0.660406	2.092
0.711109	2.295
0.761913	2.58
0.812383	2.838
0.862742	3.123
0.913445	3.245
0.965718	3.521
1.01034	3.716
