Adsorption isotherm of Carbon Dioxide on Zeolite Na-Y
DOI: 10.1016/S0167-2991(05)80435-5
Adsorbate Carbon Dioxide: InChIKey CURLTUGMZLYLDI-UHFFFAOYSA-N
Temperature: 300 K
Tabular data in the source: 0
pressure (bar)	uptake (molecules/unitcell)
0.232632	13.6278
0.347392	21.9558
0.465264	27.2555
0.578468	37.0978
0.810711	51.1041
0.818103	43.9117
1.29698	57.918
3.13042	73.817
5.34393	79.8738
8.41988	86.6877
12.4851	90.8517
16.0578	94.2587
18.7677	97.2871
21.8476	100.315
25.5448	102.587
28.1322	104.858
31.7053	107.886
34.7863	109.779
