Adsorption isotherm of Carbon Dioxide on Zeolite Na-Y
DOI: 10.1016/S0167-2991(05)80435-5
Adsorbate Carbon Dioxide: InChIKey CURLTUGMZLYLDI-UHFFFAOYSA-N
Temperature: 300 K
Tabular data in the source: 0
pressure (bar)	uptake (molecules/unitcell)
0.210847	34.8265
0.227575	18.5489
0.321328	47.3186
0.43531	56.4038
0.675333	62.8391
0.916913	67.7603
1.03751	70.4101
1.64904	75.3312
2.13882	78.7382
2.99815	82.5237
3.61202	85.1735
4.84287	87.4448
7.18203	91.2303
9.64568	93.8801
11.9868	95.7729
14.3271	98.4227
17.8998	101.83
20.8568	104.479
23.4445	106.372
25.7852	108.644
28.8666	110.158
