Adsorption isotherm of Carbon Dioxide on Zeolite DAY
DOI: 10.1016/S0167-2991(05)80435-5
Adsorbate Carbon Dioxide: InChIKey CURLTUGMZLYLDI-UHFFFAOYSA-N
Temperature: 300 K
Tabular data in the source: 0
pressure (bar)	uptake (molecules/unitcell)
0.612702	3.78549
1.10209	7.57098
1.46893	10.5994
2.07968	16.2776
3.0569	25.3628
3.91273	32.5552
4.40289	35.5836
5.38477	40.1262
6.49036	44.2902
7.47224	48.8328
7.96279	51.4826
8.82407	53.3754
10.4233	57.1609
11.9008	59.4322
12.3925	60.9464
13.3779	62.082
14.7321	64.3533
16.3337	65.8675
17.0728	66.6246
18.0582	67.7603
19.6594	69.653
21.0147	70.7886
21.7534	71.9243
22.9858	72.6814
24.2179	73.817
25.5732	74.9527
26.436	75.3312
27.5447	76.4669
29.0238	77.224
30.872	78.7382
32.1044	79.4953
33.4601	80.2524
35.0625	81.0095
37.7743	82.1451
39.2541	82.1451
40.7328	83.2808
42.2122	83.6593
43.9379	84.4164
45.9102	85.1735
47.0201	85.1735
48.9924	85.9306
51.3343	87.0662
