Adsorption isotherm of Carbon Dioxide on Zeolite DAY
DOI: 10.1016/S0167-2991(05)80435-5
Adsorbate Carbon Dioxide: InChIKey CURLTUGMZLYLDI-UHFFFAOYSA-N
Temperature: 300 K
Tabular data in the source: 0
pressure (bar)	uptake (molecules/unitcell)
2.20339	15.8991
2.9328	26.1199
3.78903	32.9338
4.8915	40.1262
6.1169	47.6972
7.71148	56.0252
9.55659	60.5678
12.0163	67.0032
16.0808	71.9243
20.146	76.0883
23.9658	79.1167
27.416	81.7666
30.4974	83.2808
34.6883	85.1735
38.0163	86.6877
41.2218	87.4448
44.3032	88.959
47.2617	90.0946
