Adsorption isotherm of Nitrogen on C15.50H26N6.25Na4Ni2O22.625
DOI: 10.1039/B503667d
Adsorbate Nitrogen: InChIKey IJGRMHOSHXDMSA-UHFFFAOYSA-N
Temperature: 77 K
Tabular data in the source: 0
pressure (bar)	uptake (ml/g)
0.0129824	18.0587
0.0346199	21.6704
0.0627485	23.9278
0.0778947	24.8307
0.0995321	26.1851
0.12117	27.088
0.136316	27.5395
0.153626	28.8939
0.177427	29.7968
0.1969	30.6998
0.240175	32.5056
0.292105	35.2144
0.339707	37.4718
0.389473	39.7291
0.434912	42.4379
0.484678	45.5982
0.536608	48.7585
0.582047	52.3702
0.631813	57.7878
0.677251	63.6569
0.727017	70.8804
0.77462	80.8126
0.798421	86.6817
0.824386	93.9052
0.85035	101.58
0.869824	110.609
0.895789	121.896
0.915263	131.828
0.939064	147.178
0.947719	153.95
0.956374	161.625
0.960701	166.591
