Adsorption isotherm of Nitrogen on OMS-2
DOI: 10.1021/Ja3014133
Adsorbate Nitrogen: InChIKey IJGRMHOSHXDMSA-UHFFFAOYSA-N
Temperature: 303 K
Tabular data in the source: 0
pressure (bar)	uptake (mmol/g)
3.125	0.0689053
4.21875	0.0840936
5.625	0.114713
7.34375	0.145235
9.53125	0.191139
12.4219	0.244589
16.0938	0.305561
20.8594	0.397249
23.75	0.435171
24.5312	0.450456
