Adsorption isotherm of Carbon Dioxide on OMS-2
DOI: 10.1021/Ja3014133
Adsorbate Carbon Dioxide: InChIKey CURLTUGMZLYLDI-UHFFFAOYSA-N
Temperature: 313 K
Tabular data in the source: 0
pressure (bar)	uptake (mmol/g)
7.70807	0.917355
10.517	1.15289
13.8473	1.46281
17.9096	1.94628
23.2241	2.6405
24.0617	2.86364
