Adsorption isotherm of Carbon Dioxide on OMS-2
DOI: 10.1021/Ja3014133
Adsorbate Carbon Dioxide: InChIKey CURLTUGMZLYLDI-UHFFFAOYSA-N
Temperature: 303 K
Tabular data in the source: 0
pressure (bar)	uptake (mmol/g)
4.56958	0.62449
6.32611	0.734694
8.28756	0.832653
10.8697	0.979592
14.2765	1.15102
18.5139	1.43265
24.722	1.94694
24.8467	2.26531
