Adsorption isotherm of Carbon Dioxide on OMS-2
DOI: 10.1021/Ja3014133
Adsorbate Carbon Dioxide: InChIKey CURLTUGMZLYLDI-UHFFFAOYSA-N
Temperature: 303 K
Tabular data in the source: 0
pressure (bar)	uptake (mmol/g)
0.778816	0.396954
1.63551	0.497933
2.41433	0.567784
3.50467	0.629749
4.75078	0.699455
6.30841	0.776851
8.17757	0.861938
10.8255	1.0013
14.0187	1.15607
18.2243	1.40398
23.3645	1.77621
24.2212	1.87719
24.4548	2.12634
