Adsorption isotherm of Carbon Dioxide on OMS-2
DOI: 10.1021/Ja3014133
Adsorbate Carbon Dioxide: InChIKey CURLTUGMZLYLDI-UHFFFAOYSA-N
Temperature: 308 K
Tabular data in the source: 0
pressure (bar)	uptake (mmol/g)
8.22546	0.880165
10.5145	1.07851
13.9467	1.33884
18.0086	1.80992
23.3167	2.31818
24.0492	2.50413
24.6764	2.6405
