Adsorption isotherm of Carbon Dioxide on OMS-2
DOI: 10.1021/Ja3014133
Adsorbate Carbon Dioxide: InChIKey CURLTUGMZLYLDI-UHFFFAOYSA-N
Temperature: 318 K
Tabular data in the source: 0
pressure (bar)	uptake (mmol/g)
3.44332	0.580937
4.58781	0.679543
6.14895	0.827529
8.22917	0.987655
10.7265	1.20956
14.0583	1.56741
18.1198	2.02407
23.5443	2.90155
24.5842	2.97541
