Adsorption isotherm of Carbon Dioxide on OMS-2
DOI: 10.1021/Ja3014133
Adsorbate Carbon Dioxide: InChIKey CURLTUGMZLYLDI-UHFFFAOYSA-N
Temperature: 303 K
Tabular data in the source: 0
pressure (bar)	uptake (mmol/g)
3.91444	0.614754
5.45468	0.713115
7.19943	0.79918
9.45772	0.922131
12.4349	1.09426
16.0298	1.35246
20.8588	1.7459
23.8398	2.02869
24.4579	2.12705
24.7678	2.20082
