Adsorption isotherm of Carbon Dioxide on OMS-2
DOI: 10.1021/Ja3014133
Adsorbate Carbon Dioxide: InChIKey CURLTUGMZLYLDI-UHFFFAOYSA-N
Temperature: 303 K
Tabular data in the source: 0
pressure (bar)	uptake (mmol/g)
2.08946	0.464283
3.32902	0.537145
4.56943	0.622252
6.22302	0.731646
8.18357	0.8164
10.6652	0.998858
13.7784	1.38917
17.922	1.80347
23.1113	2.46215
24.2605	2.71873
24.78	2.79194
