Adsorption isotherm of Carbon Dioxide on OMS-2
DOI: 10.1021/Ja3014133
Adsorbate Carbon Dioxide: InChIKey CURLTUGMZLYLDI-UHFFFAOYSA-N
Temperature: 303 K
Tabular data in the source: 0
pressure (bar)	uptake (mmol/g)
4.54545	0.619835
6.19835	0.706612
8.26446	0.818182
10.7438	0.954545
14.0496	1.15289
18.1818	1.46281
24.2769	2.00826
24.3802	2.08264
