Adsorption isotherm of Carbon Dioxide on OMS-2
DOI: 10.1021/Ja3014133
Adsorbate Carbon Dioxide: InChIKey CURLTUGMZLYLDI-UHFFFAOYSA-N
Temperature: 303 K
Tabular data in the source: 0
pressure (bar)	uptake (mmol/g)
3.36735	0.526531
4.69388	0.587755
6.12245	0.673469
8.36735	0.771429
10.9184	0.918367
13.7755	1.11429
18.2653	1.43265
23.5714	1.9102
