Adsorption isotherm of Carbon Dioxide on OMS-2
DOI: 10.1021/Ja3014133
Adsorbate Carbon Dioxide: InChIKey CURLTUGMZLYLDI-UHFFFAOYSA-N
Temperature: 303 K
Tabular data in the source: 0
pressure (bar)	uptake (mmol/g)
3.67347	0.440816
4.79592	0.514286
6.32653	0.57551
8.36735	0.697959
11.0204	0.820408
14.2857	1.06531
18.3673	1.34694
23.3673	1.8
24.1837	2.02041
24.3878	2.09388
