Adsorption isotherm of Carbon Dioxide on OMS-2
DOI: 10.1021/Ja3014133
Adsorbate Carbon Dioxide: InChIKey CURLTUGMZLYLDI-UHFFFAOYSA-N
Temperature: 303 K
Tabular data in the source: 0
pressure (bar)	uptake (mmol/g)
2.17977	0.562198
3.52056	0.6595
4.75805	0.744608
6.61407	0.866148
8.57254	0.975393
11.2529	1.13326
14.7583	1.35196
18.991	1.77845
23.5337	2.24153
24.2593	2.40036
24.5708	2.48592
