Adsorption isotherm of Nitrogen on ZIF-7
DOI: 10.1016/j.memsci.2012.09.006
Adsorbate Nitrogen: InChIKey IJGRMHOSHXDMSA-UHFFFAOYSA-N
Temperature: 77 K
Tabular data in the source: 0
pressure (bar)	uptake (cm3(STP)/g)
0.00182509	2.43436
0.00182509	54.8713
0.0258587	74.5352
0.0739259	92.8881
0.137287	102.065
0.202833	109.93
0.292413	117.796
0.408212	126.972
0.537119	137.46
0.624514	144.014
0.6988	155.813
0.790565	174.165
0.849556	195.14
0.893254	222.67
0.908548	242.334
0.926027	282.972
0.941321	370.804
0.9588	535.981
