Adsorption isotherm of Xenon on Ni-DOBDC
DOI: 10.1039/C1cc14685h
Adsorbate Xenon: InChIKey FHNFHKCVQCLJFQ-UHFFFAOYSA-N
Temperature: 298 K
Tabular data in the source: 0
pressure (bar)	uptake (wt%)
0.026	2.70767
0.038	3.72916
0.056	6.2844
0.068	7.30588
0.078	8.4555
0.11	12.4156
0.122	13.4371
0.132	14.4588
0.144	15.6082
0.182	19.9512
0.204	21.7386
0.24	25.0588
0.256	26.0798
0.268	27.1013
0.28	28.1228
0.314	30.9317
0.328	31.6972
0.342	32.4627
0.354	33.3563
0.368	34.2496
0.41	36.9297
0.426	37.567
0.442	38.4601
0.458	39.2253
0.474	39.8627
0.506	41.7767
0.524	42.2859
0.54	43.0512
0.556	43.6885
0.604	45.6005
0.622	46.1097
0.64	46.6189
0.658	47.256
0.7	48.7852
0.718	49.1665
0.736	49.5478
0.754	50.1849
0.8	51.4578
0.818	51.8391
0.838	52.2202
0.856	52.7294
0.894	53.6197
0.914	53.8729
0.932	54.2542
0.952	54.6353
