Adsorption isotherm of Nitrogen on Carbon
DOI: 10.1039/C1cc14685h
Adsorbate Nitrogen: InChIKey IJGRMHOSHXDMSA-UHFFFAOYSA-N
Temperature: 298 K
Tabular data in the source: 0
pressure (bar)	uptake (wt%)
-2.78e-17	-0.102302
0.107784	0.13967
0.203593	0.127418
0.305389	0.242278
0.399202	0.358158
0.502994	0.472763
0.596806	0.460766
0.700599	0.319617
0.800399	0.690486
0.904192	0.932968
