Adsorption isotherm of Nitrogen on Ni-DOBDC
DOI: 10.1039/C1cc14685h
Adsorbate Nitrogen: InChIKey IJGRMHOSHXDMSA-UHFFFAOYSA-N
Temperature: 298 K
Tabular data in the source: 0
pressure (bar)	uptake (wt%)
-2.78e-17	-0.102302
0.0518962	-0.108938
0.0958084	0.0133237
0.151697	0.134054
0.203593	-0.000459439
0.295409	0.371431
0.411178	0.356627
0.487026	0.474805
0.602794	0.460001
0.696607	0.703759
0.796407	0.946751
0.89022	0.806877
0.998004	0.920971
