Adsorption isotherm of Xenon on Carbon
DOI: 10.1039/C1cc14685h
Adsorbate Xenon: InChIKey FHNFHKCVQCLJFQ-UHFFFAOYSA-N
Temperature: 298 K
Tabular data in the source: 0
pressure (bar)	uptake (wt%)
0.012	2.96522
0.026	4.62583
0.034	5.7757
0.04	7.05371
0.048	8.20358
0.07	11.0141
0.08	12.1637
0.09	13.1854
0.1	14.335
0.112	15.3565
0.126	16.2499
0.138	17.2714
0.152	18.1647
0.164	19.1862
0.18	19.6957
0.192	20.845
0.204	21.7386
0.218	22.632
0.232	23.5253
0.258	24.9286
0.272	25.6941
0.288	26.5872
0.302	27.4806
0.318	28.1179
0.334	28.8831
0.352	29.6481
0.368	30.4133
0.384	31.0506
0.4	31.8159
0.418	32.4529
0.434	33.0903
0.452	33.7274
0.468	34.3647
0.486	35.0018
0.504	35.6389
0.522	36.1481
0.54	36.7852
0.556	37.2946
0.574	37.9317
0.592	38.4409
0.61	39.078
0.628	39.5872
0.646	40.0964
0.664	40.6056
0.682	41.1148
0.702	41.6238
0.72	42.133
0.738	42.6422
0.756	43.1514
0.774	43.5327
0.794	44.0417
0.812	44.5509
0.83	44.8043
0.848	45.3136
0.868	45.6946
0.886	46.2038
0.904	46.5852
0.924	46.9662
0.942	47.3476
0.962	47.7286
0.98	48.11
1	48.491
