Adsorption isotherm of Krypton on Carbon
DOI: 10.1039/C1cc14685h
Adsorbate Krypton: InChIKey DNNSSWSSYDEUBZ-UHFFFAOYSA-N
Temperature: 298 K
Tabular data in the source: 0
pressure (bar)	uptake (wt%)
0.0578842	1.5527
0.0778443	1.8059
0.0958084	2.31511
0.115768	2.44044
0.145709	3.076
0.165669	3.20132
0.193613	3.70926
0.213573	3.83458
0.241517	4.34252
0.261477	4.46784
0.289421	4.8479
0.309381	4.97322
0.339321	5.35303
0.357285	5.47861
0.387226	5.85841
0.407186	5.98374
0.43513	6.36379
0.453094	6.48937
0.483034	6.61342
0.502994	6.86662
0.532934	7.24643
0.550898	7.37201
0.578842	7.49631
0.598802	7.62164
0.628743	8.00144
0.648703	7.99889
0.676647	8.25107
0.694611	8.50453
0.724551	8.75645
0.742515	8.75415
0.772455	9.00608
0.792415	9.1314
0.822355	9.38333
0.842315	9.50866
0.876248	9.76007
0.934132	10.1363
0.968064	10.3877
0.99002	10.7685
