Adsorption isotherm of Krypton on Ni-DOBDC
DOI: 10.1039/C1cc14685h
Adsorbate Krypton: InChIKey DNNSSWSSYDEUBZ-UHFFFAOYSA-N
Temperature: 298 K
Tabular data in the source: 0
pressure (bar)	uptake (wt%)
0.123752	1.67215
0.157685	1.92357
0.189621	2.17524
0.209581	2.30057
0.257485	2.55019
0.285429	2.93025
0.305389	3.05558
0.383234	3.81289
0.403194	3.81033
0.427146	4.06302
0.461078	4.31444
0.479042	4.44002
0.499002	4.69322
0.57485	5.32291
0.592814	5.44849
0.62475	5.57228
0.648703	5.82497
0.672655	5.94979
0.692615	6.07511
0.734531	6.45338
0.778443	6.8314
0.862275	7.46007
0.9002	7.58309
0.916168	7.70893
0.936128	7.83425
0.964072	8.08644
0.984032	8.21176
