Adsorption isotherm of Hydrogen on Cr-MIL(101)
DOI: 10.1021/La100601a
Adsorbate Hydrogen: InChIKey UFHFLCQGNIYNRP-UHFFFAOYSA-N
Temperature: 87 K
Tabular data in the source: 0
pressure (bar)	uptake (wt%)
0.167594	0.260622
0.954149	0.894236
2.13398	1.5497
3.83818	2.05222
6.37264	2.56566
8.90709	2.90432
11.5726	3.2102
14.6752	3.42869
17.0785	3.6144
19.2197	3.75642
