Adsorption isotherm of Hydrogen on MIL-101-Mo6Br8F6
DOI: 10.1021/La100601a
Adsorbate Hydrogen: InChIKey UFHFLCQGNIYNRP-UHFFFAOYSA-N
Temperature: 86 K
Tabular data in the source: 0
pressure (bar)	uptake (wt%)
0.342384	0.235498
0.691964	0.4518
1.65331	0.654993
2.87684	0.825414
4.97432	0.972893
7.90205	1.12365
11.092	1.2318
14.5441	1.3039
17.0348	1.35634
20.5306	1.41533
