Adsorption isotherm of Hydrogen on MIL-101(Cr)
DOI: 10.1021/La100601a
Adsorbate Hydrogen: InChIKey UFHFLCQGNIYNRP-UHFFFAOYSA-N
Temperature: 296 K
Tabular data in the source: 0
pressure (bar)	uptake (wt%)
2.04659	0.0421351
3.5323	0.0530594
5.14911	0.0639838
6.67852	0.0639838
8.12054	0.0749082
11.2231	0.0858325
12.7962	0.0967569
15.9424	0.0967569
19.0012	0.12953
20.4869	0.12953
