Adsorption isotherm of Hydrogen on MIL-101-Mo6Br8F6
DOI: 10.1021/La100601a
Adsorbate Hydrogen: InChIKey UFHFLCQGNIYNRP-UHFFFAOYSA-N
Temperature: 77 K
Tabular data in the source: 0
pressure (bar)	uptake (wt%)
0.619484	0.0636713
1.05646	0.837117
3.02285	1.19107
10.0144	1.57123
20.2833	1.75476
25.964	1.78098
33.3926	1.85964
38.6363	1.87275
46.7203	1.89897
54.1489	1.91207
59.6111	1.91207
