Adsorption isotherm of Hydrogen on Cr-MIL(101)
DOI: 10.1021/La100601a
Adsorbate Hydrogen: InChIKey UFHFLCQGNIYNRP-UHFFFAOYSA-N
Temperature: 97 K
Tabular data in the source: 0
pressure (bar)	uptake (wt%)
0.517174	0.380791
1.30373	0.774068
2.30877	1.11272
4.23146	1.56062
6.59112	1.98667
8.7323	2.25978
11.2231	2.47827
13.7575	2.71861
16.4231	2.90432
20.7491	3.1665
