Adsorption isotherm of Hydrogen on Cr-MIL(101)
DOI: 10.1021/La100601a
Adsorbate Hydrogen: InChIKey UFHFLCQGNIYNRP-UHFFFAOYSA-N
Temperature: 127 K
Tabular data in the source: 0
pressure (bar)	uptake (wt%)
0.123897	0.0421351
1.43482	0.293396
3.4886	0.621127
5.89196	0.894236
8.64491	1.15642
11.0483	1.38583
13.9323	1.60432
15.5928	1.71356
17.3844	1.83373
20.0063	1.93205
