Adsorption isotherm of Hydrogen on MIL-101-Mo6Br8F6
DOI: 10.1021/La100601a
Adsorbate Hydrogen: InChIKey UFHFLCQGNIYNRP-UHFFFAOYSA-N
Temperature: 296 K
Tabular data in the source: 0
pressure (bar)	uptake (wt%)
0.560872	0.0159178
2.48356	0.0224724
4.53734	0.0257498
6.76591	0.0323044
8.99448	0.0323044
13.4953	0.0355817
15.5928	0.038859
17.6903	0.0486909
20.0063	0.0519682
