Adsorption isotherm of Hydrogen on MIL-101-Mo6Br8F6
DOI: 10.1021/La100601a
Adsorbate Hydrogen: InChIKey UFHFLCQGNIYNRP-UHFFFAOYSA-N
Temperature: 77 K
Tabular data in the source: 0
pressure (bar)	uptake (g/l)
0.0240598	0.093632
0.089606	3.04321
0.246917	5.63229
0.404228	7.10708
1.03347	9.7617
2.04288	11.9247
3.4849	13.76
4.28456	14.4483
5.12356	15.1037
6.06742	15.6609
