Adsorption isotherm of Hydrogen on MIL-101-Mo6Br8F6
DOI: 10.1021/La100601a
Adsorbate Hydrogen: InChIKey UFHFLCQGNIYNRP-UHFFFAOYSA-N
Temperature: 298 K
Tabular data in the source: 0
pressure (bar)	uptake (wt%)
2.36738	0.0636713
6.51864	0.0636713
12.4178	0.0898898
19.1909	0.116108
26.401	0.155436
36.6699	0.207873
43.6615	0.247201
62.6699	0.325856
71.4094	0.365184
86.485	0.456949
