Adsorption isotherm of Hydrogen on Cr-MIL(101)
DOI: 10.1021/La100601a
Adsorbate Hydrogen: InChIKey UFHFLCQGNIYNRP-UHFFFAOYSA-N
Temperature: 77 K
Tabular data in the source: 0
pressure (bar)	uptake (wt%)
0.167594	0.457261
0.473477	1.0144
1.30373	1.74634
2.74575	2.43457
4.62474	3.00264
7.59617	3.51608
11.092	3.93121
14.5878	4.20432
18.3457	4.44466
20.9676	4.52113
