Adsorption isotherm of Hydrogen on Cr-MIL(101)
DOI: 10.1021/La100601a
Adsorbate Hydrogen: InChIKey UFHFLCQGNIYNRP-UHFFFAOYSA-N
Temperature: 298 K
Tabular data in the source: 0
pressure (bar)	uptake (wt%)
2.36738	0.0636713
12.6363	0.142327
18.317	0.194764
29.0228	0.247201
41.0397	0.312747
55.4598	0.365184
66.1657	0.391402
68.1321	0.391402
74.0312	0.404512
80.1489	0.417621
