Adsorption isotherm of Hydrogen on Cr-MIL(101)
DOI: 10.1021/La100601a
Adsorbate Hydrogen: InChIKey UFHFLCQGNIYNRP-UHFFFAOYSA-N
Temperature: 77 K
Tabular data in the source: 0
pressure (bar)	uptake (g/l)
0.0502783	1.24069
0.19448	3.1743
0.417337	5.0096
0.849942	7.46758
1.66272	10.1222
2.71145	12.5474
3.32759	13.4978
3.94372	14.3827
5.34641	16.0541
6.06742	16.7424
