Adsorption isotherm of Hydrogen on MIL-101-Mo6Br8F6
DOI: 10.1021/La100601a
Adsorbate Hydrogen: InChIKey UFHFLCQGNIYNRP-UHFFFAOYSA-N
Temperature: 77 K
Tabular data in the source: 0
pressure (bar)	uptake (wt%)
0.167594	0.343649
0.473477	0.566506
1.12894	0.792641
2.13398	0.97617
2.78944	1.05483
6.15415	1.29079
8.29533	1.376
11.5289	1.47104
15.1121	1.55625
20.0936	1.63491
