Adsorption isotherm of Hydrogen on Cr-MIL(101)
DOI: 10.1021/La100601a
Adsorbate Hydrogen: InChIKey UFHFLCQGNIYNRP-UHFFFAOYSA-N
Temperature: 112 K
Tabular data in the source: 0
pressure (bar)	uptake (wt%)
0.254989	0.173227
1.34743	0.435412
2.83314	0.795917
4.58104	1.1018
7.20289	1.44045
10.1306	1.77911
13.2331	2.04129
16.3357	2.27071
18.9575	2.39087
20.1373	2.4455
