Adsorption isotherm of Hydrogen on Cr-MIL(101)
DOI: 10.1021/La100601a
Adsorbate Hydrogen: InChIKey UFHFLCQGNIYNRP-UHFFFAOYSA-N
Temperature: 77 K
Tabular data in the source: 0
pressure (bar)	uptake (wt%)
0.182509	0.0112343
0.182509	1.26972
1.71192	2.46266
6.08167	3.57695
9.14049	4.11443
13.9472	4.54703
20.0649	5.09762
49.5607	5.70065
71.6279	6.0546
80.1489	6.15947
