Adsorption isotherm of Hydrogen on MIL-101-Mo6Br8F6
DOI: 10.1021/La100601a
Adsorbate Hydrogen: InChIKey UFHFLCQGNIYNRP-UHFFFAOYSA-N
Temperature: 106 K
Tabular data in the source: 0
pressure (bar)	uptake (wt%)
0.298687	0.150288
1.26003	0.327262
2.92054	0.507514
4.75583	0.638607
7.0281	0.75659
9.78104	0.854909
12.6651	0.92701
15.6365	0.982725
18.6079	1.03844
20.6617	1.08104
