Adsorption isotherm of Hydrogen on MIL-101-Mo6Br8F6
DOI: 10.1021/La100601a
Adsorbate Hydrogen: InChIKey UFHFLCQGNIYNRP-UHFFFAOYSA-N
Temperature: 96 K
Tabular data in the source: 0
pressure (bar)	uptake (wt%)
0.517174	0.251884
1.30373	0.464909
2.65835	0.638607
4.40625	0.789363
6.46003	0.900792
8.90709	0.989279
11.4852	1.08104
14.5441	1.15642
17.9962	1.22525
20.5306	1.2613
