Adsorption isotherm of Hydrogen on MIL-101-Mo6Br8F6
DOI: 10.1021/La100601a
Adsorbate Hydrogen: InChIKey UFHFLCQGNIYNRP-UHFFFAOYSA-N
Temperature: 116 K
Tabular data in the source: 0
pressure (bar)	uptake (wt%)
0.298687	0.0224724
0.691964	0.137178
1.65331	0.287935
3.09533	0.409195
4.75583	0.523901
6.67852	0.618943
8.6886	0.694321
11.4415	0.786086
14.6752	0.848355
17.2533	0.89096
20.9676	0.959783
