Adsorption isotherm of Hydrogen on MIL-101-Mo6Br8F6
DOI: 10.1021/La100601a
Adsorbate Hydrogen: InChIKey UFHFLCQGNIYNRP-UHFFFAOYSA-N
Temperature: 87 K
Tabular data in the source: 0
pressure (bar)	uptake (wt%)
0.342384	0.301044
0.779359	0.504237
1.56591	0.668103
2.57096	0.809027
4.05667	0.936842
6.02306	1.06466
9.21297	1.19247
12.8836	1.28751
16.6415	1.36617
20.9239	1.42844
