Adsorption isotherm of Copper(II) Ion, Lead(II) Ion, Water on sea mango shell
DOI: 10.1039/c7cp03770h
Article source: Figure 5
Adsorbate Copper(II) Ion: InChIKey JPVYNHNXODAKFH-UHFFFAOYSA-N
Adsorbate Lead(II) Ion: InChIKey RVPVRDXYQKGNMQ-UHFFFAOYSA-N
Adsorbate Water: InChIKey XLYOFNOQVPJJNP-UHFFFAOYSA-N
Kind: experiment
Temperature: 323 K
Tabular data in the source: 0
pressure (bar)	Copper(II) Ion fraction	Copper(II) Ion uptake (mg/g)	Lead(II) Ion fraction	Lead(II) Ion uptake (mg/g)	Water fraction	Water uptake (mg/g)	total uptake (mg/g)
1.01325	0.132	0.0307	0.08	0.042			
1.01325	14.129	13.9795	7.56	14.512			
1.01325	30.555	16.9119	15.396	18.551			
1.01325	53.398	19.4508	28.816	22.759			
1.01325	87.544	21.4549	39.386	30.616			
1.01325	98.424	21.9098	51.607	32.021			
1.01325	112.579	22.2418	64.003	34.676			
