Adsorption isotherm of Copper(II) Ion, Lead(II) Ion, Water on sea mango shell
DOI: 10.1039/c7cp03770h
Article source: Figure 5
Adsorbate Copper(II) Ion: InChIKey JPVYNHNXODAKFH-UHFFFAOYSA-N
Adsorbate Lead(II) Ion: InChIKey RVPVRDXYQKGNMQ-UHFFFAOYSA-N
Adsorbate Water: InChIKey XLYOFNOQVPJJNP-UHFFFAOYSA-N
Kind: experiment
Temperature: 313 K
Tabular data in the source: 0
pressure (bar)	Copper(II) Ion fraction	Copper(II) Ion uptake (mg/g)	Lead(II) Ion fraction	Lead(II) Ion uptake (mg/g)	Water fraction	Water uptake (mg/g)	total uptake (mg/g)
1.01325	0.132	0.0307	0.16	0.059			
1.01325	18.724	11.8217	9.772	12.463			
1.01325	35.81	14.9139	19.592	16.452			
1.01325	57.544	17.6434	35.81	20.409			
1.01325	82.5	18.0861	47.597	23.555			
1.01325	92.35	19.0389	63.351	24.259			
1.01325	110.361	19.5984	77.265	26.898			
