Adsorption isotherm of Lead(II) Ion, Water on sea mango shell
DOI: 10.1039/c7cp03770h
Article source: Figure 5
Adsorbate Lead(II) Ion: InChIKey RVPVRDXYQKGNMQ-UHFFFAOYSA-N
Adsorbate Water: InChIKey XLYOFNOQVPJJNP-UHFFFAOYSA-N
Kind: experiment
Temperature: 313 K
Tabular data in the source: 0
pressure (bar)	Lead(II) Ion fraction	Lead(II) Ion uptake (mg/g)	Water fraction	Water uptake (mg/g)	total uptake (mg/g)
1.01325	0.212	0.136			
1.01325	15.69	45.46			
1.01325	27.965	49.434			
1.01325	36.737	55.029			
1.01325	54.566	57.178			
1.01325	66.771	58.287			
1.01325	84.884	58.986			
1.01325	106.146	60.658			
1.01325	112.514	60.931			
1.01325	123.941	61.255			
1.01325	128.469	61.937			
