Adsorption isotherm of Copper(II) Ion, Lead(II) Ion, Water on sea mango shell
DOI: 10.1039/c7cp03770h
Article source: Figure 5
Adsorbate Copper(II) Ion: InChIKey JPVYNHNXODAKFH-UHFFFAOYSA-N
Adsorbate Lead(II) Ion: InChIKey RVPVRDXYQKGNMQ-UHFFFAOYSA-N
Adsorbate Water: InChIKey XLYOFNOQVPJJNP-UHFFFAOYSA-N
Kind: experiment
Temperature: 303 K
Tabular data in the source: 0
pressure (bar)	Copper(II) Ion fraction	Copper(II) Ion uptake (mg/g)	Lead(II) Ion fraction	Lead(II) Ion uptake (mg/g)	Water fraction	Water uptake (mg/g)	total uptake (mg/g)
1.01325	0.132	0.0307	0.16	0.059			
1.01325	23.213	9.1107	8.445	9.903			
1.01325	49.014	13.5369	19.88	16.157			
1.01325	59.525	13.8996	28.293	17.071			
1.01325	78.248	15.1107	41.327	19.76			
1.01325	93.565	15.3197	58.201	20.448			
1.01325	107.562	15.3996	69.796	21.735			
