Adsorption isotherm of Copper(II) Ion, Water on sea mango shell
DOI: 10.1039/c7cp03770h
Article source: Figure 5
Adsorbate Copper(II) Ion: InChIKey JPVYNHNXODAKFH-UHFFFAOYSA-N
Adsorbate Water: InChIKey XLYOFNOQVPJJNP-UHFFFAOYSA-N
Kind: experiment
Temperature: 323 K
Tabular data in the source: 0
pressure (bar)	Copper(II) Ion fraction	Copper(II) Ion uptake (mg/g)	Water fraction	Water uptake (mg/g)	total uptake (mg/g)
1.01325	0.273	0.109			
1.01325	11.246	26.656			
1.01325	25.145	36.204			
1.01325	43.612	43.349			
1.01325	76.168	45.145			
1.01325	81.584	46.973			
1.01325	99.793	47.747			
1.01325	124.865	48.412			
1.01325	148.69	48.613			
1.01325	151.028	49.541			
1.01325	173.994	50.165			
