Adsorption isotherm of Lead(II) Ion, Water on sea mango shell
DOI: 10.1039/c7cp03770h
Article source: Figure 5
Adsorbate Lead(II) Ion: InChIKey RVPVRDXYQKGNMQ-UHFFFAOYSA-N
Adsorbate Water: InChIKey XLYOFNOQVPJJNP-UHFFFAOYSA-N
Kind: experiment
Temperature: 303 K
Tabular data in the source: 0
pressure (bar)	Lead(II) Ion fraction	Lead(II) Ion uptake (mg/g)	Water fraction	Water uptake (mg/g)	total uptake (mg/g)
1.01325	0.212	0.136			
1.01325	15.06	37.929			
1.01325	30.281	44.474			
1.01325	41.112	47.421			
1.01325	63.234	52.599			
1.01325	78.063	52.953			
1.01325	100.89	54.293			
1.01325	127.044	55.223			
1.01325	135.149	55.578			
1.01325	149.234	56.478			
1.01325	155.428	56.987			
