Adsorption isotherm of Copper(II) Ion, Water on sea mango shell
DOI: 10.1039/c7cp03770h
Article source: Figure 5
Adsorbate Copper(II) Ion: InChIKey JPVYNHNXODAKFH-UHFFFAOYSA-N
Adsorbate Water: InChIKey XLYOFNOQVPJJNP-UHFFFAOYSA-N
Kind: experiment
Temperature: 303 K
Tabular data in the source: 0
pressure (bar)	Copper(II) Ion fraction	Copper(II) Ion uptake (mg/g)	Water fraction	Water uptake (mg/g)	total uptake (mg/g)
1.01325	0.273	0.109			
1.01325	8.59	11.772			
1.01325	21.626	23.366			
1.01325	49.262	28.533			
1.01325	78.184	33.385			
1.01325	90.931	35.511			
1.01325	108.243	36.164			
1.01325	120.994	36.394			
1.01325	138.109	37.824			
1.01325	148.793	38.013			
1.01325	178.077	38.5			
