Adsorption isotherm of Carbon Dioxide on CuMOF-PI (ground)
DOI: 10.1039/C4dt00116h
Adsorbate Carbon Dioxide: InChIKey CURLTUGMZLYLDI-UHFFFAOYSA-N
Temperature: 273 K
Tabular data in the source: 0
pressure (bar)	uptake (mg/g)
0.0256303	5.16489
0.0538774	7.50507
0.0872824	8.90173
0.120687	10.2984
0.161768	14.0445
0.179541	28.1542
0.204702	62.4957
0.216977	98.7255
0.245065	110.948
0.265583	114.233
0.296416	115.631
0.319528	117.503
0.355496	119.369
0.401751	121.23
0.455719	123.088
0.507115	124.947
0.561101	125.864
0.630496	127.715
0.710176	129.561
0.797573	131.404
0.897824	133.241
