Adsorption isotherm of 2,2-Dimethyl-Butane on CuMOF-PI
DOI: 10.1039/C4dt00116h
Adsorbate 2,2-Dimethyl-Butane: InChIKey HNRMPXKDFBEGFZ-UHFFFAOYSA-N
Temperature: 273 K
Tabular data in the source: 0
pressure (bar)	uptake (mg/g)
0.00675836	139.166
0.0199766	143.177
0.0338575	146.059
0.0477392	148.375
0.0612904	150.69
0.0735191	153
0.0874008	155.316
0.0999595	158.193
0.11318	160.507
0.124744	165.642
