Adsorption isotherm of 2,2-Dimethyl-Butane on CuMOF-TBP
DOI: 10.1039/C4dt00116h
Adsorbate 2,2-Dimethyl-Butane: InChIKey HNRMPXKDFBEGFZ-UHFFFAOYSA-N
Temperature: 273 K
Tabular data in the source: 0
pressure (bar)	uptake (mg/g)
0.0126813	160.117
0.0189601	161.838
0.0262332	161.866
0.0338344	163.593
0.0401141	164.748
0.0467244	165.905
0.0539965	166.499
0.0596157	167.086
0.0662267	167.678
0.0721765	168.266
0.0804405	168.864
0.088703	170.593
0.0976274	171.759
0.108205	172.931
0.11845	175.233
0.130346	179.239
