Adsorption isotherm of Carbon Dioxide on CuMOF-PI
DOI: 10.1039/C4dt00116h
Adsorbate Carbon Dioxide: InChIKey CURLTUGMZLYLDI-UHFFFAOYSA-N
Temperature: 273 K
Tabular data in the source: 0
pressure (bar)	uptake (mg/g)
0.0513211	6.56504
0.071892	6.55575
0.110439	7.95009
0.159265	9.81038
0.184979	9.79876
0.22097	10.2531
0.241541	10.2438
0.269803	11.6428
0.303223	12.0983
0.331508	12.0855
0.370061	13.0092
0.421489	12.986
0.467768	13.4357
0.521757	13.8819
0.580891	14.3257
0.658009	15.7027
0.732569	16.1396
0.822552	17.0401
0.927972	17.463
