Adsorption isotherm of Carbon Dioxide on CuMOF
DOI: 10.1039/C4dt00116h
Adsorbate Carbon Dioxide: InChIKey CURLTUGMZLYLDI-UHFFFAOYSA-N
Temperature: 273 K
Tabular data in the source: 0
pressure (bar)	uptake (mg/g)
0.208143	8.37653
0.22333	23.4285
0.243333	58.7136
0.255479	102.943
0.278084	136.345
0.301151	141.04
0.33966	144.788
0.365358	145.717
0.411613	147.579
0.468136	150.377
0.522104	152.235
0.565787	154.097
0.717438	157.793
0.79969	159.639
0.902514	161.475
1.01562	163.306
