Adsorption isotherm of 2,2-Dimethyl-Butane on CuMOF
DOI: 10.1039/C4dt00116h
Adsorbate 2,2-Dimethyl-Butane: InChIKey HNRMPXKDFBEGFZ-UHFFFAOYSA-N
Temperature: 273 K
Tabular data in the source: 0
pressure (bar)	uptake (mg/g)
0.00627818	2.2868
0.013881	2.88191
0.021815	2.91269
0.0277657	2.93577
0.0350386	2.96399
0.0419802	3.55653
0.0489233	3.01786
0.0552051	2.47662
0.0621468	3.06916
0.0694182	4.22859
0.0766911	4.25681
0.084626	3.72198
0.0935511	4.32222
0.103136	6.05624
0.114707	5.53552
0.126278	5.58041
