Adsorption isotherm of Methane on Fe(bdp)
DOI: 10.1038/nature15732
Article source: Figure 3b
Adsorbate Methane: InChIKey VNWKTOKETHGBQD-UHFFFAOYSA-N
Kind: experiment
Temperature: 323 K
Tabular data in the source: 0
pressure (bar)	uptake (mmol/g)
1.47147	0.132353
3.57357	0.132353
5.88589	0.198529
7.98799	0.198529
10.0901	0.264706
11.7718	0.264706
13.8739	0.330882
15.976	0.264706
16.3964	2.25
18.0781	0.330882
18.2883	3.63971
19.97	0.397059
20.3904	5.02941
22.2823	0.397059
23.7538	0.463235
25.2252	6.15441
26.0661	0.529412
27.958	0.595588
30.0601	0.794118
31.3213	1.05882
32.3724	1.85294
33.2132	3.17647
34.2643	4.56618
34.8949	5.88971
35.3153	7.80882
35.9459	6.68382
36.7868	7.14706
37.4174	7.34559
39.3093	8.00735
40.7808	8.53676
42.4625	8.80147
43.5135	9
44.985	9.19853
47.7177	9.46324
50.03	9.79412
50.2402	9.39706
54.6547	10.0588
59.4895	10.3235
60.1201	10.2574
64.5345	10.5221
69.7898	10.7206
