Adsorption isotherm of Methane on Fe(bdp)
DOI: 10.1038/nature15732
Article source: Figure 3b
Adsorbate Methane: InChIKey VNWKTOKETHGBQD-UHFFFAOYSA-N
Kind: experiment
Temperature: 273 K
Tabular data in the source: 0
pressure (bar)	uptake (mmol/g)
2.94294	0.330882
5.67568	0.397059
9.24925	1.72059
10.3003	3.83824
11.3514	6.08824
12.4024	7.27941
13.2432	0.595588
14.0841	8.00735
16.1862	8.53676
17.4474	1.05882
17.6577	9
18.4985	1.91912
18.7087	4.5
19.97	9.46324
20.8108	9.13235
21.8619	9.72794
22.7027	9.92647
24.1742	10.2574
25.2252	10.3897
27.1171	10.7206
29.2192	11.0515
30.2703	11.1176
32.1622	11.4485
35.1051	12.2426
35.9459	12.2426
39.9399	12.9044
40.7808	12.9706
44.985	13.5662
49.6096	13.8309
50.6607	13.7647
55.0751	14.2279
60.7508	14.5588
64.955	14.7574
69.5796	15.0882
