Adsorption isotherm of Methane on Co(BDP)
DOI: 10.1038/nature15732
Article source: Figure 3a
Adsorbate Methane: InChIKey VNWKTOKETHGBQD-UHFFFAOYSA-N
Kind: experiment
Temperature: 298 K
Tabular data in the source: 0
pressure (bar)	uptake (mmol/g)
0	0
3.19298	0.168224
6.14035	0.504673
6.63158	0.224299
7.61404	1.40187
8.10526	2.52336
8.35088	3.19626
8.59649	3.53271
9.33333	3.92523
9.57895	0.224299
10.0702	4.20561
11.2982	4.59813
12.2807	0.392523
12.7719	4.99065
14.7368	0.504673
15.2281	5.60748
15.9649	0.728972
16.7018	1.45794
17.4386	2.46729
17.6842	6.11215
18.4211	3.64486
18.9123	4.65421
20.1404	5.38318
20.6316	6.6729
20.8772	5.88785
21.8596	6.2243
22.8421	6.50467
24.3158	6.8972
25.2982	7.45794
26.7719	7.45794
28.2456	7.68224
30.2105	8.01869
32.9123	8.29907
35.3684	8.63551
40.2807	9.02804
40.7719	9.19626
45.193	9.47664
50.3509	9.86916
50.8421	9.98131
55.2632	10.1495
60.6667	10.5981
65.0877	10.8224
70.2456	11.1028
