Adsorption isotherm of Methane on Co(bdp)-.75 g/cm^3 of stress
DOI: 10.1038/nature15732
Article source: Figure 4b
Adsorbate Methane: InChIKey VNWKTOKETHGBQD-UHFFFAOYSA-N
Kind: experiment
Isotherm type: excess
Temperature: 298 K
Tabular data in the source: 0
pressure (bar)	uptake (mmol/g)
1.18494	0.113636
2.23926	0.136364
5.27037	0.204545
6.98532	0.113636
7.3781	0.318182
9.08826	0.590909
9.22068	0.545455
9.22577	0.159091
9.48523	0.477273
10.796	1.04545
10.9401	0.113636
12.7845	0.204545
12.8918	2.06818
14.3667	0.181818
15.1256	2.61364
16.0793	0.272727
17.2636	0.431818
18.1825	0.727273
18.9699	1
19.7566	1.31818
20.2576	3.31818
21.071	1.61364
22.7812	1.88636
24.0961	2.13636
25.2793	2.38636
25.5241	3.81818
26.5951	2.56818
27.911	2.75
30.5446	2.97727
30.6635	3.95455
32.7829	3.18182
35.2729	4.29545
35.548	3.43182
40.0259	3.75
40.9388	4.5
45.1638	4
50.1697	4.27273
50.5592	4.72727
55.1755	4.54545
60.1837	4.63636
60.445	4.81818
64.5334	4.68182
70.0671	4.90909
