Adsorption isotherm of Methane on Co(BDP)
DOI: 10.1038/nature15732
Article source: Figure 3a
Adsorbate Methane: InChIKey VNWKTOKETHGBQD-UHFFFAOYSA-N
Kind: experiment
Temperature: 273 K
Tabular data in the source: 0
pressure (bar)	uptake (mmol/g)
0	0
0.49411	0.056075
1.72881	0.168224
4.44238	0.280374
5.19103	0.728972
5.45709	1.68224
6.22647	3.14019
6.49944	4.42991
7.15595	0.392523
7.74796	5.21495
8.98842	5.60748
9.13008	0.504673
10.2312	6.11215
10.8589	0.672897
11.3611	1.1215
12.1212	2.13084
12.8906	3.58879
12.9586	6.8972
13.4227	5.49533
15.4303	7.23364
15.436	7.51402
17.1671	7.79439
18.4064	8.13084
20.8793	8.52336
22.1174	8.80374
24.588	9.08411
25.3309	9.25234
27.8014	9.53271
30.2731	9.86916
35.2131	10.3738
40.1519	10.8224
41.1389	10.8785
45.0907	11.271
50.026	11.5514
51.2618	11.7196
55.2101	11.9439
60.3931	12.2804
61.1337	12.3364
65.3284	12.5607
70.2626	12.785
