Adsorption isotherm of Methane on Fe(bdp)
DOI: 10.1038/nature15732
Article source: Figure 3b
Adsorbate Methane: InChIKey VNWKTOKETHGBQD-UHFFFAOYSA-N
Kind: experiment
Temperature: 285 K
Tabular data in the source: 0
pressure (bar)	uptake (mmol/g)
6.30631	0.463235
8.40841	0.529412
9.87988	1.38971
11.3514	2.31618
12.1922	4.36765
13.2432	0.727941
13.4535	5.95588
14.2943	6.75
15.976	0.727941
16.1862	7.54412
17.6577	0.794118
18.0781	8.00735
19.3393	0.992647
20.3904	8.53676
20.6006	1.125
21.2312	1.32353
22.0721	2.25
22.9129	4.63235
23.5435	7.01471
24.3844	8.33824
25.2252	9.59559
25.4354	9.46324
26.4865	9.52941
27.958	9.86029
29.2192	10.0588
30.4805	10.2574
32.1622	10.5882
33.8438	10.7868
36.1562	11.0515
38.048	11.25
40.1502	11.9118
42.6727	12.3088
44.7748	12.5735
47.5075	12.8382
50.2402	12.9706
50.8709	12.9044
54.8649	13.3015
59.9099	13.7647
60.961	13.6985
64.7447	14.0294
70	14.4265
