Adsorption isotherm of Methane on Co(bdp)-.2 g/cm^3 of stress
DOI: 10.1038/nature15732
Article source: Figure 4b
Adsorbate Methane: InChIKey VNWKTOKETHGBQD-UHFFFAOYSA-N
Kind: experiment
Isotherm type: excess
Temperature: 298 K
Tabular data in the source: 0
pressure (bar)	uptake (mmol/g)
0	0
2.10923	0.113379
6.32768	0.31746
7.11864	0.566893
7.9096	0.884354
8.70056	1.70068
9.22787	3.03855
10.2825	4.21769
10.678	0.113379
12.7872	5.07937
13.0508	0.113379
15.1601	5.66893
15.951	0.430839
16.3465	0.997732
17.0056	2.51701
17.6648	4.33107
18.7194	5.73696
20.565	6.50794
22.1469	6.8254
23.8606	7.05215
25.1789	7.16553
26.2335	7.32426
27.6836	7.50567
30.3202	7.68707
32.693	7.93651
35.3296	8.09524
40.339	8.36735
40.8663	8.45805
45.3484	8.68481
49.9623	8.88889
51.0169	9.00227
54.7081	9.09297
59.8493	9.2517
60.6403	9.31973
65.1224	9.36508
69.8682	9.50113
