Adsorption isotherm of Methane on Co(BDP)
DOI: 10.1038/nature15732
Article source: Figure 3a
Adsorbate Methane: InChIKey VNWKTOKETHGBQD-UHFFFAOYSA-N
Kind: experiment
Temperature: 323 K
Tabular data in the source: 0
pressure (bar)	uptake (mmol/g)
0	0
0.736842	0
3.19298	0.056075
6.38596	0.168224
7.12281	0.785047
8.10526	0.224299
8.35088	1.73832
9.33333	2.41121
10.0702	0.224299
11.5439	3.36449
11.7895	0.224299
13.0175	3.70093
14	0.336449
15.4737	4.14953
17.193	0.336449
17.9298	4.54206
19.4035	0.728972
20.1404	1.1215
20.386	4.93458
21.1228	1.73832
21.8596	2.46729
22.8421	3.36449
24.0702	4.14953
24.5614	4.65421
25.5439	5.7757
25.7895	5.04673
26.5263	5.3271
27.2632	5.43925
28	5.71963
29.9649	6.11215
30.4561	6.4486
32.9123	6.61682
35.1228	7.00935
40.2807	7.62617
45.193	8.01869
50.5965	8.46729
55.0175	8.85981
60.4211	9.14019
65.0877	9.42056
70.2456	9.64486
