Adsorption isotherm of Methane on Fe(bdp)
DOI: 10.1038/nature15732
Article source: Figure 3b
Adsorbate Methane: InChIKey VNWKTOKETHGBQD-UHFFFAOYSA-N
Kind: experiment
Temperature: 248 K
Tabular data in the source: 0
pressure (bar)	uptake (mmol/g)
0.840841	0.330882
3.15315	0.397059
4.2042	0.595588
5.04505	0.860294
5.25526	0.529412
5.46547	1.05882
6.0961	1.45588
6.72673	3.11029
7.35736	5.88971
7.77778	7.80882
8.1982	8.47059
8.61862	8.80147
9.24925	9.13235
10.0901	0.926471
10.3003	9.52941
11.5616	1.38971
11.982	10.125
12.1922	3.63971
12.8228	7.74265
14.0841	10.7868
15.976	11.1176
17.2372	11.8456
18.2883	11.7132
19.97	12.0441
21.4414	12.5074
22.7027	12.7059
25.4354	13.6985
27.5375	13.8309
30.0601	14.7574
32.5826	14.9559
35.1051	15.2868
37.6276	15.5515
40.1502	15.8162
40.991	15.8162
42.4625	16.0147
44.985	16.2132
47.5075	16.4118
50.2402	16.5441
51.2913	16.5441
54.8649	16.875
60.1201	17.1397
60.961	17.2721
64.5345	17.2721
69.5796	17.5368
