Adsorption isotherm of Methane on Co(bdp)-.52 g/cm^3 of stress
DOI: 10.1038/nature15732
Article source: Figure 4b
Adsorbate Methane: InChIKey VNWKTOKETHGBQD-UHFFFAOYSA-N
Kind: experiment
Isotherm type: excess
Temperature: 298 K
Tabular data in the source: 0
pressure (bar)	uptake (mmol/g)
0	0
0.528302	0.068182
3.56604	0.090909
6.4717	0.090909
7.92453	0.090909
9.90566	0.090909
11.0943	2.29545
11.8868	0.113636
13.0755	4.27273
14.1321	0.136364
15.5849	0.272727
15.717	5.06818
16.7736	0.568182
17.566	1.15909
18.3585	2.11364
18.8868	3.09091
19.9434	4.25
20.3396	5.81818
21.7925	4.97727
23.2453	5.43182
24.1698	5.54545
25.2264	5.70455
25.6226	6.38636
26.1509	5.84091
26.8113	6.04545
27.8679	6.11364
29.9811	6.31818
30.3774	6.88636
33.0189	6.72727
35.3962	6.88636
40.283	7.22727
40.8113	7.52273
45.3019	7.45455
50.4528	7.65909
55.0755	7.81818
59.9623	7.97727
60.7547	8.11364
65.1132	8.06818
70.1321	8.18182
