Adsorption isotherm of Methane on Fe(bdp)
DOI: 10.1038/nature15732
Article source: Figure 3b
Adsorbate Methane: InChIKey VNWKTOKETHGBQD-UHFFFAOYSA-N
Kind: experiment
Temperature: 298 K
Tabular data in the source: 0
pressure (bar)	uptake (mmol/g)
3.36336	0.330882
7.77778	0.397059
12.1922	1.25735
13.6637	2.44853
14.2943	0.595588
14.9249	3.90441
15.976	6.02206
17.027	0.529412
18.0781	6.75
19.7598	0.727941
20.6006	7.41176
21.6517	0.661765
22.4925	7.80882
23.7538	1.05882
24.1742	1.19118
25.2252	8.40441
25.8559	3.50735
26.6967	5.36029
27.5375	7.27941
28.7988	8.07353
30.2703	9.13235
30.4805	9
31.952	9.33088
33.6336	9.79412
36.3664	10.1912
37.8378	10.3897
39.3093	10.3897
40.5706	10.5882
42.8829	10.8529
44.7748	11.4485
47.7177	11.6471
50.2402	11.9118
50.8709	11.7794
55.0751	12.1765
59.6997	12.5074
60.7508	12.5735
64.955	12.9044
70.2102	13.2353
