Adsorption isotherm of Methane on Co(BDP)
DOI: 10.1038/nature15732
Article source: Figure 3a
Adsorbate Methane: InChIKey VNWKTOKETHGBQD-UHFFFAOYSA-N
Kind: experiment
Temperature: 311 K
Tabular data in the source: 0
pressure (bar)	uptake (mmol/g)
0	0
0.982456	0.056075
1.96491	0.056075
3.19298	0.11215
6.14035	0.168224
7.61404	0.953271
8.10526	0.224299
8.35088	2.13084
8.59649	2.63551
9.33333	3.02804
10.0702	0.224299
10.3158	3.53271
11.7895	3.81308
12.0351	0.336449
13.2632	4.31776
14	0.280374
15.2281	4.71028
15.4737	0.336449
17.193	0.504673
17.9298	5.27103
18.1754	0.728972
18.9123	1.17757
19.4035	2.01869
20.1404	2.85981
20.386	5.71963
20.8772	3.75701
21.614	4.54206
22.5965	5.15888
23.8246	5.49533
24.807	5.83178
25.0526	6.50467
25.2982	6.05607
26.5263	6.28037
27.2632	6.50467
28.4912	6.6729
30.2105	7.00935
32.6667	7.40187
35.1228	7.73832
40.5263	8.29907
45.193	8.69159
50.1053	9.08411
55.2632	9.42056
60.1754	9.75701
65.0877	10.0374
70.2456	10.3178
