Adsorption isotherm of Methane on Fe(bdp)
DOI: 10.1038/nature15732
Article source: Figure 3b
Adsorbate Methane: InChIKey VNWKTOKETHGBQD-UHFFFAOYSA-N
Kind: experiment
Temperature: 311 K
Tabular data in the source: 0
pressure (bar)	uptake (mmol/g)
5.46547	0.330882
6.51652	0.198529
8.82883	0.264706
10.0901	0.661765
11.5616	0.397059
13.2432	1.32353
14.0841	0.397059
14.2943	2.05147
15.5556	0.397059
16.3964	4.16912
18.2883	5.82353
19.1291	0.463235
20.6006	6.48529
22.4925	0.529412
25.2252	0.595588
26.6967	0.794118
27.5375	0.992647
29.2192	1.72059
29.8498	8.27206
30.6907	5.02941
31.7417	6.48529
32.5826	7.34559
34.0541	8.13971
35.3153	9.06618
35.5255	8.60294
36.7868	8.93382
38.048	9.13235
40.1502	9.46324
42.8829	9.86029
44.985	10.1912
47.7177	10.5882
50.4505	11.0515
54.8649	11.5147
60.5405	11.8456
64.7447	12.1765
70.2102	12.4412
