Adsorption isotherm of Methane on Co(BDP)
DOI: 10.1038/nature15732
Article source: Figure 3a
Adsorbate Methane: InChIKey VNWKTOKETHGBQD-UHFFFAOYSA-N
Kind: experiment
Temperature: 285 K
Tabular data in the source: 0
pressure (bar)	uptake (mmol/g)
0	0
1.7193	0.168224
5.15789	0.280374
6.38596	1.00935
6.87719	0.392523
7.36842	2.97196
7.61404	2.97196
7.85965	3.92523
8.59649	4.59813
9.82456	4.93458
10.3158	0.504673
10.5614	5.21495
12.0351	5.60748
13.0175	0.672897
13.5088	6.05607
13.7544	0.953271
14.4912	1.68224
14.9825	3.02804
15.2281	6.50467
15.4737	4.31776
16.9474	5.94393
17.9298	7.06542
18.1754	6.6729
19.1579	7.1215
20.6316	7.45794
22.3509	7.85047
24.3158	8.18692
26.2807	8.46729
28.2456	8.69159
30.2105	8.91589
32.9123	9.25234
35.3684	9.53271
40.2807	9.92523
41.0175	10.0374
45.193	10.3738
50.1053	10.7664
55.0175	11.1028
60.6667	11.4953
65.0877	11.7757
70.2456	12.0561
