Adsorption isotherm of Methane on Fe(bdp)
DOI: 10.1038/nature15732
Article source: Figure 3b
Adsorbate Methane: InChIKey VNWKTOKETHGBQD-UHFFFAOYSA-N
Kind: experiment
Temperature: 261 K
Tabular data in the source: 0
pressure (bar)	uptake (mmol/g)
1.05105	0.264706
3.15315	0.330882
4.83483	0.529412
6.51652	0.529412
6.93694	1.125
7.35736	1.52206
8.1982	2.51471
9.24925	6.35294
9.45946	0.661765
9.87988	7.80882
11.1411	8.13971
11.3514	0.727941
11.982	8.60294
13.033	0.860294
13.8739	1.05882
14.0841	9.19853
14.7147	1.25735
15.5556	2.77941
15.976	9.79412
16.1862	8.33824
17.6577	9.72794
18.9189	10.2574
20.8108	10.7206
22.7027	11.1838
25.2252	11.6471
25.4354	11.8456
27.5375	12.0441
30.0601	12.4412
30.4805	12.7721
32.5826	12.9044
35.3153	13.3676
37.6276	13.6985
40.1502	14.2941
40.991	14.2941
42.6727	14.4926
44.985	14.6912
50.03	15.0882
50.8709	15.0882
55.0751	15.4191
59.6997	15.6176
60.7508	15.6838
64.5345	15.75
69.3694	15.9485
