Adsorption isotherm of Carbon monoxide on IRMOF-1
DOI: 10.1021/Je9000087
Adsorbate Carbon monoxide: InChIKey UGFAIRIUMAVXCW-UHFFFAOYSA-N
Temperature: 237 K
Tabular data in the source: 0
pressure (bar)	uptake (mmol/g)
0.02765	0.0455927
0.0729024	0.106383
0.130718	0.197568
0.203613	0.319149
0.271484	0.425532
0.560547	0.911854
0.691273	1.09422
0.84211	1.30699
0.995469	1.50456
1.07339	1.64134
