Adsorption isotherm of Carbon monoxide on Zeolite 13X
DOI: 10.1021/Je9000087
Adsorbate Carbon monoxide: InChIKey UGFAIRIUMAVXCW-UHFFFAOYSA-N
Temperature: 195 K
Tabular data in the source: 0
pressure (bar)	uptake (mmol/g)
0.0298755	1.05572
0.0423237	1.24047
0.0672199	1.44282
0.139419	1.74194
0.204149	1.90909
0.246473	1.99707
0.293776	2.05865
0.353527	2.12023
0.413278	2.19941
0.478008	2.261
0.53278	2.28739
0.59751	2.36657
0.679668	2.40176
0.739419	2.43695
0.794191	2.47214
0.8639	2.49853
0.9361	2.53372
1.00332	2.57771
1.06058	2.58651
