Adsorption isotherm of Carbon monoxide on Zeolite 13X
DOI: 10.1021/Je9000087
Adsorbate Carbon monoxide: InChIKey UGFAIRIUMAVXCW-UHFFFAOYSA-N
Temperature: 237 K
Tabular data in the source: 0
pressure (bar)	uptake (mmol/g)
0.0273859	0.378299
0.0697095	0.580645
0.144398	0.870968
0.26639	1.19648
0.410788	1.5132
0.53278	1.68915
0.692116	1.8563
0.819087	1.97067
0.985892	2.09384
1.08797	2.14663
