Adsorption isotherm of Carbon monoxide on MOF-177
DOI: 10.1021/Je9000087
Adsorbate Carbon monoxide: InChIKey UGFAIRIUMAVXCW-UHFFFAOYSA-N
Temperature: 195 K
Tabular data in the source: 0
pressure (bar)	uptake (mmol/g)
0.07	0.30303
0.13	0.572391
0.2675	1.17845
0.4	1.76768
0.545	2.3064
0.685	2.86195
0.8125	3.48485
0.9625	4.07407
1.1125	4.61279
