Adsorption isotherm of Carbon monoxide on Zeolite 5A
DOI: 10.1021/Je9000087
Adsorbate Carbon monoxide: InChIKey UGFAIRIUMAVXCW-UHFFFAOYSA-N
Temperature: 237 K
Tabular data in the source: 0
pressure (bar)	uptake (mmol/g)
0.0270975	0.521341
0.071516	1.23476
0.141051	1.5503
0.200741	1.66006
0.292774	1.81098
0.444512	2.04421
0.531596	2.14024
0.693323	2.3186
0.807793	2.41463
0.97204	2.53811
1.11884	2.70274
