Adsorption isotherm of Carbon monoxide on Zeolite 13X
DOI: 10.1021/Je9000087
Adsorbate Carbon monoxide: InChIKey UGFAIRIUMAVXCW-UHFFFAOYSA-N
Temperature: 298 K
Tabular data in the source: 0
pressure (bar)	uptake (mmol/g)
0.0323651	0.0175953
0.0672199	0.0527859
0.117012	0.0967742
0.204149	0.14956
0.256432	0.184751
0.313693	0.211144
0.405809	0.26393
0.473029	0.29912
0.53029	0.325513
0.6	0.351906
0.66722	0.378299
0.73444	0.387097
0.794191	0.41349
0.851452	0.431085
0.93361	0.44868
1.00083	0.466276
1.06058	0.475073
