Adsorption isotherm of Carbon monoxide on MOF-177
DOI: 10.1021/Je9000087
Adsorbate Carbon monoxide: InChIKey UGFAIRIUMAVXCW-UHFFFAOYSA-N
Temperature: 298 K
Tabular data in the source: 0
pressure (bar)	uptake (mmol/g)
0.0475	0
0.0775	0
0.13	0.016835
0.21	0.016835
0.27	0.016835
0.33	0.016835
0.395	0.03367
0.475	0.0505051
0.53	0.0505051
0.5925	0.0673401
0.6625	0.0673401
0.74	0.0841751
0.795	0.0841751
0.8575	0.0841751
0.9225	0.10101
1.0025	0.10101
1.0575	0.10101
