Adsorption isotherm of Carbon monoxide on Zeolite 5A
DOI: 10.1021/Je9000087
Adsorbate Carbon monoxide: InChIKey UGFAIRIUMAVXCW-UHFFFAOYSA-N
Temperature: 195 K
Tabular data in the source: 0
pressure (bar)	uptake (mmol/g)
0.0164862	1.70122
0.0287673	2.00305
0.0659599	2.27744
0.110675	2.45579
0.197698	2.66159
0.262352	2.79878
0.339424	2.99085
0.409027	3.18293
0.486122	3.33384
0.525941	3.36128
0.563255	3.41616
0.598087	3.45732
0.66026	3.58079
0.739875	3.67683
0.779686	3.71799
0.817015	3.74543
0.869259	3.81402
0.928957	3.91006
0.998636	3.96494
1.03844	4.01982
1.08324	4.04726
