Adsorption isotherm of Carbon monoxide on IRMOF-1
DOI: 10.1021/Je9000087
Adsorbate Carbon monoxide: InChIKey UGFAIRIUMAVXCW-UHFFFAOYSA-N
Temperature: 195 K
Tabular data in the source: 0
pressure (bar)	uptake (mmol/g)
0.0426908	0.151976
0.0728107	0.288754
0.150615	0.653495
0.220902	0.957447
0.268594	1.17021
0.336365	1.47416
0.404137	1.77812
0.497004	2.20365
0.534679	2.32523
0.602451	2.62918
0.67023	2.91793
0.735509	3.17629
0.773168	3.32827
0.933838	3.99696
1.02171	4.3465
1.06193	4.42249
