Adsorption isotherm of Carbon monoxide on IRMOF-1
DOI: 10.1021/Je9000087
Adsorbate Carbon monoxide: InChIKey UGFAIRIUMAVXCW-UHFFFAOYSA-N
Temperature: 298 K
Tabular data in the source: 0
pressure (bar)	uptake (mmol/g)
0.0327044	0
0.0805031	0
0.135841	0.0151976
0.203766	0.0151976
0.269167	0.0303951
0.33206	0.0303951
0.405009	0.0455927
0.467886	0.0759878
0.538327	0.0759878
0.60122	0.0759878
0.669137	0.0911854
0.734538	0.106383
0.802462	0.106383
0.870379	0.121581
0.93578	0.136778
1.00119	0.136778
1.05904	0.167173
