Adsorption isotherm of Carbon monoxide on MOF-177
DOI: 10.1021/Je9000087
Adsorbate Carbon monoxide: InChIKey UGFAIRIUMAVXCW-UHFFFAOYSA-N
Temperature: 237 K
Tabular data in the source: 0
pressure (bar)	uptake (mmol/g)
0.025	0.151515
0.065	0.319865
0.135	0.606061
0.2625	1.0101
0.335	1.24579
0.4025	1.43098
0.48	1.64983
0.61	2.05387
0.6725	2.20539
0.795	2.40741
0.94	2.74411
1.01	2.92929
1.065	2.99663
