Adsorption isotherm of Carbon monoxide on Zeolite 5A
DOI: 10.1021/Je9000087
Adsorbate Carbon monoxide: InChIKey UGFAIRIUMAVXCW-UHFFFAOYSA-N
Temperature: 298 K
Tabular data in the source: 0
pressure (bar)	uptake (mmol/g)
0.0149074	0.054878
0.0397354	0.178354
0.0844803	0.301829
0.139169	0.452744
0.201349	0.5625
0.238655	0.631098
0.270997	0.672256
0.335682	0.754573
0.405346	0.83689
0.477507	0.905488
0.517326	0.932927
0.557137	0.974085
0.599438	1.01524
0.666635	1.0564
0.731343	1.09756
0.776149	1.11128
0.815968	1.13872
0.86327	1.13872
0.927978	1.17988
0.99768	1.1936
1.03999	1.22104
1.0823	1.23476
