Adsorption isotherm of Carbon Dioxide on NH2-MIL-53(Al)
DOI: 10.1021/La1045207
Adsorbate Carbon Dioxide: InChIKey CURLTUGMZLYLDI-UHFFFAOYSA-N
Temperature: 283 K
Tabular data in the source: 0
pressure (bar)	uptake (mmol/g)
0.0596619	0.973152
0.380226	1.18604
0.807488	1.44615
1.12742	1.56409
1.55358	1.65803
2.03292	1.75185
2.56546	1.84554
3.25773	1.96259
3.8433	2.03242
4.64179	2.12548
5.28071	2.21892
6.13239	2.31185
6.6119	2.42941
7.09124	2.52323
7.57075	2.64078
8.47704	2.94724
8.69123	3.16038
9.17278	3.58653
9.38697	3.79967
9.65434	4.01269
9.86852	4.22583
10.137	4.60502
10.4042	4.79429
10.7237	4.84101
11.0441	5.03016
11.3645	5.21931
11.6849	5.40846
12.0585	5.59749
12.3789	5.78664
12.8595	6.07036
13.179	6.11708
13.9241	6.18653
14.4565	6.25648
15.3082	6.34942
16.1599	6.44235
17.0647	6.53516
17.9163	6.60435
18.8745	6.72077
19.4069	6.79073
19.886	6.8608
20.3652	6.93088
20.8978	7.02458
21.5364	7.07054
22.0684	7.09301
22.6005	7.11549
23.0794	7.13809
23.6114	7.16057
24.8885	7.22875
25.4206	7.25123
25.9526	7.2737
27.0701	7.34227
27.6023	7.38848
28.5072	7.48129
29.0393	7.50376
