Adsorption isotherm of Carbon Dioxide on NH2-MIL-53(Al)
DOI: 10.1021/La1045207
Adsorbate Carbon Dioxide: InChIKey CURLTUGMZLYLDI-UHFFFAOYSA-N
Temperature: 303 K
Tabular data in the source: 0
pressure (bar)	uptake (mmol/g)
0.13321	1.61837
0.432512	2.14144
0.815743	2.36582
1.19906	2.6151
1.79467	2.81477
2.55999	2.93988
3.23987	2.94045
3.70809	3.1649
4.68534	3.14082
5.49342	3.34066
6.30158	3.5654
7.0274	4.53695
7.45497	5.28419
7.7124	5.9815
8.01267	6.77843
8.31224	7.37619
9.29205	8.0741
10.7386	8.57323
12.0992	8.82332
14.3105	9.27329
16.6059	9.49926
18.3489	9.72477
20.0066	9.87552
21.5367	9.97638
22.6848	10.2014
24.8098	10.2779
26.3824	10.4036
27.6575	10.4794
29.0598	10.4805
