Adsorption isotherm of Methane on NH2-MIL-53(Al)
DOI: 10.1021/La1045207
Adsorbate Methane: InChIKey VNWKTOKETHGBQD-UHFFFAOYSA-N
Temperature: 283 K
Tabular data in the source: 0
pressure (bar)	uptake (mmol/g)
0.426157	0.0939438
0.852155	0.164149
1.54395	0.209985
2.18255	0.255946
3.08727	0.325015
3.72587	0.370977
4.57739	0.440172
5.32254	0.50962
6.28076	0.62604
7.02779	0.980349
7.88153	1.38188
8.84038	1.59326
9.85242	1.8045
10.1185	1.82761
10.8635	1.87332
11.5552	1.89542
11.9275	1.89453
12.4064	1.91714
12.8851	1.916
13.6301	1.96171
14.0024	1.96083
14.4281	1.98355
15.0664	1.98204
15.9709	2.02737
16.3965	2.02636
16.7156	2.0256
17.6198	2.02345
18.5244	2.06878
18.8966	2.04416
19.2691	2.06702
20.2267	2.08848
21.0245	2.08659
21.9821	2.10805
22.8333	2.12977
23.6844	2.12775
24.0569	2.15061
24.4292	2.14972
25.44	2.17106
26.3444	2.19265
26.8763	2.19139
27.2488	2.21425
28.153	2.2121
28.4721	2.21134
