Adsorption isotherm of Methane on NH2-MIL-53(Al)
DOI: 10.1021/La1045207
Adsorbate Methane: InChIKey VNWKTOKETHGBQD-UHFFFAOYSA-N
Temperature: 263 K
Tabular data in the source: 0
pressure (bar)	uptake (mmol/g)
0.214683	-8.88e-16
0.328162	0.0449438
0.607193	0.0898876
1.20994	0.202247
2.38527	0.370787
3.10915	0.483146
3.88402	0.629213
4.22561	0.910112
4.6465	1.16854
5.05514	1.44944
5.55826	1.74157
6.5149	1.91011
8.13699	2.14607
10.7209	2.20225
13.5357	2.34831
16.0387	2.39326
18.8049	2.41573
22.0384	2.65169
25.2912	2.77528
26.0868	3.17978
27.4815	3.64045
