Adsorption isotherm of Hydrogen on NH2-MIL-53(Al)
DOI: 10.1021/La1045207
Adsorbate Hydrogen: InChIKey UFHFLCQGNIYNRP-UHFFFAOYSA-N
Temperature: 283 K
Tabular data in the source: 0
pressure (bar)	uptake (mmol/g)
1.91534	0.0666698
3.72382	0.0623767
4.09615	0.0614928
4.62806	0.0602301
5.05343	0.0354815
5.58549	0.0579573
5.95783	0.0570734
6.33016	0.0561895
6.86207	0.0549268
7.39397	0.0536642
7.92588	0.0524015
8.51098	0.0510125
9.04273	0.0260113
9.57479	0.0484871
10	0
10.479	0.0463406
11.0108	0.0213394
11.5428	0.0438152
12.0214	0.0189403
12.5535	0.0414161
13.0852	0.0164149
13.4577	0.0392695
13.8832	0.0382594
14.4151	0.0369967
14.8939	0.0358603
15.4258	0.0345976
16.1706	0.0565683
16.4897	0.0558107
17.0213	0.00707104
17.5002	0.0296731
18.0319	0.00467194
19.2025	0.049371
19.7344	0.0481083
20.1599	0.0470982
20.6918	0.0458355
21.4365	0.0440677
21.8088	0.0431839
22.3407	0.0419212
22.8726	0.0406585
23.3513	0.0395221
24.043	0.0616191
24.4683	0.0368704
24.9467	-0.011743
25.4258	0.0345976
25.9045	0.0334612
26.7557	0.0551794
28.4048	0.0750036
