Adsorption isotherm of Nitrogen on NH2-MIL-53(Al)
DOI: 10.1021/La1045207
Adsorbate Nitrogen: InChIKey IJGRMHOSHXDMSA-UHFFFAOYSA-N
Temperature: 283 K
Tabular data in the source: 0
pressure (bar)	uptake (mmol/g)
1.06444	0.0924286
1.91581	0.137885
2.82021	0.159477
3.29893	0.158341
3.67142	0.181195
4.09694	0.180185
4.62901	0.202661
5.16091	0.201398
6.27808	0.222485
6.80998	0.221223
7.34205	0.243698
7.87395	0.242436
8.35267	0.241299
8.67181	0.240542
9.20372	0.239279
9.73578	0.261755
10.2677	0.260492
10.9061	0.282715
11.1721	0.282084
11.7042	0.30456
12.2361	0.303297
12.7681	0.325773
13.513	0.347744
13.8321	0.346986
14.364	0.345723
14.8961	0.368199
15.428	0.366937
16.1726	0.365169
16.4388	0.388276
16.9708	0.410752
17.5027	0.409489
18.0346	0.408226
18.7264	0.454062
19.0456	0.453304
19.5775	0.452042
20.1095	0.474517
20.6414	0.473255
21.3332	0.51909
21.6524	0.518333
22.1311	0.517196
22.663	0.515934
23.1951	0.538409
23.7271	0.560885
23.9932	0.583992
24.3654	0.55937
24.8975	0.581846
25.4294	0.580583
25.9615	0.603059
26.4403	0.625661
26.7061	0.601291
27.0254	0.624272
27.5575	0.646748
28.1958	0.645233
