Adsorption isotherm of Methane on NH2-MIL-53(Al)
DOI: 10.1021/La1045207
Adsorbate Methane: InChIKey VNWKTOKETHGBQD-UHFFFAOYSA-N
Temperature: 273 K
Tabular data in the source: 0
pressure (bar)	uptake (mmol/g)
0.08804	0.0224719
0.181148	0.0337079
0.353448	0.0674157
0.557751	0.11236
0.800002	0.146067
1.12343	0.157303
1.52811	0.191011
2.1457	0.247191
3.11005	0.348315
4.55533	0.505618
5.39516	0.775281
6.18991	1.02247
6.87709	1.41573
7.88769	1.80899
10.0665	1.8764
11.6764	1.96629
13.983	2.02247
16.2192	2.11236
19.0152	2.17978
21.1407	2.24719
23.7536	2.33708
28.7422	2.50562
