Adsorption isotherm of Methane on NH2-MIL-53(Al)
DOI: 10.1021/La1045207
Adsorbate Methane: InChIKey VNWKTOKETHGBQD-UHFFFAOYSA-N
Temperature: 303 K
Tabular data in the source: 0
pressure (bar)	uptake (mmol/g)
0.0856032	0.174345
1.06497	0.747772
1.70334	1.02216
2.51247	1.52076
3.40588	1.82025
4.21439	2.14458
4.72528	2.41886
5.36303	2.51897
5.6611	2.69349
6.51149	2.84358
7.02202	3.01828
7.91508	3.21819
8.80805	3.3932
9.91384	3.66798
10.8067	3.8181
11.7847	3.99318
12.6776	4.1433
13.4854	4.26845
14.4207	4.39371
15.1008	4.46896
16.4189	4.69412
17.6515	4.79473
18.7996	5.01975
20.2023	5.1205
21.2226	5.27072
22.1155	5.42084
23.3054	5.44673
24.6656	5.57234
26.0258	5.67305
27.4284	5.7738
28.406	5.8493
29.511	5.90001
