Adsorption isotherm of Methane on NH2-MIL-53(Al)
DOI: 10.1021/La1045207
Adsorbate Methane: InChIKey VNWKTOKETHGBQD-UHFFFAOYSA-N
Temperature: 253 K
Tabular data in the source: 0
pressure (bar)	uptake (mmol/g)
0.111192	0.011236
0.314487	0.101124
0.512236	0.224719
0.719257	0.280899
0.957759	0.337079
1.30273	0.382022
1.84861	0.47191
2.33396	0.617978
3.1738	0.786517
3.56452	1.07865
3.67903	1.17978
3.83763	1.29213
4.21947	1.59551
4.35501	1.69663
4.68857	1.92135
5.91925	2.08989
7.08719	2.23596
10.2724	2.33708
13.9672	2.55056
17.4498	2.66292
19.5993	2.92135
21.5526	3.1573
23.6974	3.44944
24.973	3.74157
25.762	4.08989
26.8547	4.51685
