Adsorption isotherm of Nitrogen on Carbon
DOI: 10.1016/j.cep.2011.12.011
Adsorbate Nitrogen: InChIKey IJGRMHOSHXDMSA-UHFFFAOYSA-N
Temperature: 77 K
Tabular data in the source: 0
pressure (bar)	uptake (ml/g)
0.00372489	2.25351
0.0137359	147.27
0.0337579	172.154
0.0609306	195.323
0.103835	220.207
0.179632	245.95
0.228257	258.821
0.302625	271.692
0.379853	278.557
0.478532	287.996
0.55719	295.719
0.627267	300.867
0.727377	312.881
0.801745	321.461
0.876112	329.184
0.95048	339.481
0.980513	347.204
0.993384	407.27
