Adsorption isotherm of Nitrogen on Carbon
DOI: 10.1016/j.cep.2011.12.011
Adsorbate Nitrogen: InChIKey IJGRMHOSHXDMSA-UHFFFAOYSA-N
Temperature: 77 K
Tabular data in the source: 0
pressure (bar)	uptake (ml/g)
0.00658518	196.181
0.00658518	269.976
0.00801532	2.25351
0.0137359	331.758
0.0280373	359.217
0.05521	389.25
0.115276	416.709
0.188213	432.155
0.288323	447.6
0.387003	459.613
0.465661	467.336
0.541459	477.633
0.612966	486.214
0.687333	496.511
0.761701	508.524
0.837498	521.395
0.906145	539.415
0.963351	554.003
0.981943	560.009
0.994814	587.468
