Adsorption isotherm of Hydrogen on ILCOF-1
DOI: 10.1002/chem.201203753
Adsorbate Hydrogen: InChIKey UFHFLCQGNIYNRP-UHFFFAOYSA-N
Temperature: 77 K
Tabular data in the source: 0
pressure (bar)	uptake (mmol/g)
1.06532	1.236
4.21154	3.59567
8.04599	6.74189
12.0771	10.0192
16.2065	13.4931
19.6477	16.2461
24.072	19.3923
28.1031	21.8831
30.2662	23.0629
33.0191	24.9637
36.2636	26.6679
38.3283	27.9789
40.2947	29.1587
