Adsorption isotherm of Hydrogen on ILCOF-1
DOI: 10.1002/chem.201203753
Adsorbate Hydrogen: InChIKey UFHFLCQGNIYNRP-UHFFFAOYSA-N
Temperature: 87 K
Tabular data in the source: 0
pressure (bar)	uptake (mg/g)
0.0236738	0.240331
0.0761108	0.821508
0.128548	1.3721
0.196279	2.07563
0.274934	2.80974
0.34922	3.4521
0.451909	4.2168
0.548044	5.0121
0.648548	5.68504
0.749052	6.32739
0.845186	7.00033
0.952245	7.55092
