Adsorption isotherm of Methane on ILCOF-1
DOI: 10.1002/chem.201203753
Adsorbate Methane: InChIKey VNWKTOKETHGBQD-UHFFFAOYSA-N
Temperature: 298 K
Tabular data in the source: 0
pressure (bar)	uptake (mg/g)
0.0564469	0.0624214
0.121993	0.368304
0.218128	0.936371
0.316447	1.52629
0.414766	2.1162
0.517455	2.77167
0.61359	3.40528
0.714094	4.01704
0.816783	4.65066
0.912918	5.26242
0.978464	5.6557
