Adsorption isotherm of Carbon Dioxide on ILCOF-1
DOI: 10.1002/chem.201203753
Adsorbate Carbon Dioxide: InChIKey CURLTUGMZLYLDI-UHFFFAOYSA-N
Temperature: 298 K
Tabular data in the source: 0
pressure (bar)	uptake (mg/g)
0.0389679	0.742832
0.128548	3.9546
0.202833	6.5546
0.279304	9.46048
0.355775	12.3664
0.454094	16.0369
0.554598	19.8605
0.655102	23.3781
0.751237	27.2017
0.851741	31.3311
0.928212	34.2369
0.980649	36.3781
