Adsorption isotherm of Hydrogen on ILCOF-1
DOI: 10.1002/chem.201203753
Adsorbate Hydrogen: InChIKey UFHFLCQGNIYNRP-UHFFFAOYSA-N
Temperature: 77 K
Tabular data in the source: 0
pressure (bar)	uptake (mg/g)
0	0.209743
0.0193041	0.852096
0.0739259	2.10621
0.126363	3.08504
0.198464	4.30857
0.270565	5.44033
0.35359	6.5721
0.456279	7.82621
0.561153	8.98857
0.652918	9.90621
0.751237	10.7627
0.851741	11.6803
0.95443	12.5368
