Adsorption isotherm of Methane on ILCOF-1
DOI: 10.1002/chem.201203753
Adsorbate Methane: InChIKey VNWKTOKETHGBQD-UHFFFAOYSA-N
Temperature: 273 K
Tabular data in the source: 0
pressure (bar)	uptake (mg/g)
0.0171192	0.0405726
0.0761108	0.543094
0.124178	1.00192
0.17443	1.43889
0.224682	1.91956
0.279304	2.42209
0.327371	2.92461
0.375439	3.36158
0.469388	4.21368
0.552413	4.97839
0.655102	5.93973
0.751237	6.79183
0.851741	7.70948
0.923842	8.32125
0.982834	8.88931
