Adsorption isotherm of Carbon Dioxide on ILCOF-1
DOI: 10.1002/chem.201203753
Adsorbate Carbon Dioxide: InChIKey CURLTUGMZLYLDI-UHFFFAOYSA-N
Temperature: 273 K
Tabular data in the source: 0
pressure (bar)	uptake (mg/g)
0.0193041	1.20166
0.0586318	3.80166
0.132918	8.54283
0.200649	12.6722
0.281489	17.5664
0.35796	22.3075
0.465018	28.884
0.548044	33.6252
0.648548	39.437
0.755607	45.5546
0.853926	50.7546
0.906363	54.1193
0.978464	58.0958
