Adsorption isotherm of Argon on ILCOF-1
DOI: 10.1002/chem.201203753
Adsorbate Argon: InChIKey XKRFYHLGVUSROY-UHFFFAOYSA-N
Temperature: 87 K
Tabular data in the source: 0
pressure (bar)	uptake (cm3(STP)/g)
0.00619484	8.42701
0.00837971	98.0068
0.00837971	187.587
0.0193041	272.797
0.0258587	342.713
0.0477074	423.553
0.0695562	482.545
0.102329	567.755
0.117623	701.032
0.150397	773.133
0.202833	799.351
0.257455	821.2
0.340481	845.234
0.414766	856.158
0.510901	875.822
0.611405	893.301
0.714094	902.04
0.812413	921.704
0.862665	928.259
0.993758	952.293
