Adsorption isotherm of Carbon Dioxide on ILCOF-1
DOI: 10.1002/chem.201203753
Adsorbate Carbon Dioxide: InChIKey CURLTUGMZLYLDI-UHFFFAOYSA-N
Temperature: 298 K
Tabular data in the source: 0
pressure (bar)	uptake (mmol/g)
0.672045	5.03768
2.63843	10.2814
3.32667	12.1167
5.78465	14.7385
8.93087	17.2293
13.9452	19.6545
20.2376	21.8831
24.072	22.6696
28.0048	23.4562
31.8393	24.0461
36.067	24.5049
39.9998	24.5705
