Adsorption isotherm of Methane on ILCOF-1
DOI: 10.1002/chem.201203753
Adsorbate Methane: InChIKey VNWKTOKETHGBQD-UHFFFAOYSA-N
Temperature: 298 K
Tabular data in the source: 0
pressure (bar)	uptake (mmol/g)
2.54011	1.236
4.9981	2.0881
8.04599	3.13684
11.7821	4.44777
16.5015	5.88979
20.1393	6.80743
23.9737	7.59399
28.0048	8.77382
32.1342	9.75701
36.1653	10.6091
38.1317	11.0679
39.5082	11.1335
