Adsorption isotherm of Methane on ZIF-93
DOI: 10.1016/j.seppur.2019.115850
Article source: Figure 2a
Adsorbate Methane: InChIKey VNWKTOKETHGBQD-UHFFFAOYSA-N
Kind: experiment
Temperature: 298 K
Tabular data in the source: 0
pressure (bar)	uptake (mmol/g)
0.125	0.081
0.17	0.109
0.23	0.144
0.284	0.175
0.351	0.216
0.42	0.254
0.489	0.294
0.559	0.33
0.63	0.367
0.7	0.401
0.771	0.433
0.841	0.464
0.912	0.49
1	0.521
