Adsorption isotherm of Methane on SIM-1 (ZIF-94)
DOI: 10.1016/j.seppur.2019.115850
Article source: Figure 2a
Adsorbate Methane: InChIKey VNWKTOKETHGBQD-UHFFFAOYSA-N
Kind: experiment
Temperature: 298 K
Tabular data in the source: 0
pressure (bar)	uptake (mmol/g)
0.0428	0.125
0.0814	0.222
0.138	0.356
0.208	0.508
0.279	0.645
0.35	0.768
0.421	0.88
0.491	0.984
0.56	1.08
0.631	1.16
0.702	1.24
0.773	1.32
0.844	1.38
0.915	1.44
