Adsorption isotherm of Nitrogen, Methane on SIM-1 (ZIF-94)
DOI: 10.1016/j.seppur.2019.115850
Article source: Figure 8a, Figure 8b
Adsorbate Nitrogen: InChIKey IJGRMHOSHXDMSA-UHFFFAOYSA-N
Adsorbate Methane: InChIKey VNWKTOKETHGBQD-UHFFFAOYSA-N
Kind: experiment
Temperature: 298 K
Tabular data in the source: 0
pressure (bar)	Nitrogen fraction	Nitrogen uptake (cm3(STP)/g)	Methane fraction	Methane uptake (cm3(STP)/g)	total uptake (cm3(STP)/g)
1	0.7	8.519	0.3	12.136	
1	0.5	7.4317	0.5	18.88	
