Adsorption isotherm of Nitrogen on ZIF-8
DOI: 10.1016/j.seppur.2019.115850
Article source: Figure 2b
Adsorbate Nitrogen: InChIKey IJGRMHOSHXDMSA-UHFFFAOYSA-N
Kind: experiment
Temperature: 298 K
Tabular data in the source: 0
pressure (bar)	uptake (mmol/g)
0.0394	0.00586
0.0768	0.00958
0.138	0.0168
0.209	0.0244
0.279	0.033
0.349	0.0422
0.419	0.052
0.49	0.062
0.561	0.0717
0.631	0.0805
0.702	0.0891
0.773	0.0962
0.843	0.102
0.914	0.107
