Adsorption isotherm of Nitrogen on SIM-1 (ZIF-94)
DOI: 10.1016/j.seppur.2019.115850
Article source: Figure 2b
Adsorbate Nitrogen: InChIKey IJGRMHOSHXDMSA-UHFFFAOYSA-N
Kind: experiment
Temperature: 298 K
Tabular data in the source: 0
pressure (bar)	uptake (mmol/g)
0.0389	0.0149
0.0763	0.0274
0.137	0.0463
0.208	0.0684
0.279	0.0901
0.348	0.113
0.419	0.135
0.491	0.158
0.561	0.18
0.631	0.2
0.702	0.22
0.773	0.239
0.843	0.257
0.914	0.274
