Adsorption isotherm of Nitrogen, Methane on ZIF-8
DOI: 10.1016/j.seppur.2019.115850
Article source: Figure 8a, Figure 8b
Adsorbate Nitrogen: InChIKey IJGRMHOSHXDMSA-UHFFFAOYSA-N
Adsorbate Methane: InChIKey VNWKTOKETHGBQD-UHFFFAOYSA-N
Kind: experiment
Temperature: 298 K
Tabular data in the source: 0
pressure (bar)	Nitrogen fraction	Nitrogen uptake (cm3(STP)/g)	Methane fraction	Methane uptake (cm3(STP)/g)	total uptake (cm3(STP)/g)
1	0.7	5.1376	0.3	2.9358	
1	0.5	4.4809	0.5	4.8907	
