Adsorption isotherm of Nitrogen on ZIF-90
DOI: 10.1016/j.seppur.2019.115850
Article source: Figure 2b
Adsorbate Nitrogen: InChIKey IJGRMHOSHXDMSA-UHFFFAOYSA-N
Kind: experiment
Temperature: 298 K
Tabular data in the source: 0
pressure (bar)	uptake (mmol/g)
0.0389	0.00684
0.0763	0.0154
0.137	0.025
0.208	0.0364
0.278	0.0481
0.348	0.0614
0.419	0.0756
0.49	0.0901
0.561	0.104
0.631	0.116
0.701	0.127
0.773	0.137
0.843	0.145
0.914	0.153
