Adsorption isotherm of Nitrogen on ZIF-93
DOI: 10.1016/j.seppur.2019.115850
Article source: Figure 2b
Adsorbate Nitrogen: InChIKey IJGRMHOSHXDMSA-UHFFFAOYSA-N
Kind: experiment
Temperature: 298 K
Tabular data in the source: 0
pressure (bar)	uptake (mmol/g)
0.0394	0.00606
0.0763	0.0115
0.137	0.0195
0.208	0.0287
0.278	0.0381
0.348	0.0494
0.418	0.0616
0.489	0.0731
0.559	0.0848
0.63	0.0952
0.7	0.104
0.77	0.113
0.841	0.12
0.911	0.125
1	0.131
