Adsorption isotherm of Methane on ZIF-8
DOI: 10.1016/j.seppur.2019.115850
Article source: Figure 2a
Adsorbate Methane: InChIKey VNWKTOKETHGBQD-UHFFFAOYSA-N
Kind: experiment
Temperature: 298 K
Tabular data in the source: 0
pressure (bar)	uptake (mmol/g)
0.0509	0.0195
0.0866	0.0302
0.141	0.0517
0.21	0.0741
0.28	0.101
0.35	0.128
0.42	0.155
0.49	0.181
0.561	0.21
0.631	0.235
0.702	0.26
0.773	0.285
0.844	0.307
0.915	0.329
