Adsorption isotherm of Methane on ZIF-90
DOI: 10.1016/j.seppur.2019.115850
Article source: Figure 2a
Adsorbate Methane: InChIKey VNWKTOKETHGBQD-UHFFFAOYSA-N
Kind: experiment
Temperature: 298 K
Tabular data in the source: 0
pressure (bar)	uptake (mmol/g)
0.0533	0.0273
0.0837	0.042
0.141	0.0683
0.21	0.101
0.28	0.133
0.35	0.17
0.42	0.206
0.49	0.243
0.561	0.279
0.632	0.315
0.702	0.349
0.773	0.38
0.844	0.411
0.914	0.44
