Adsorption isotherm of Nitrogen on MIL-125 Synthesized with less than CMC amount of CTAB
DOI: 10.1021/am508799d
Article source: Figure 3a
Adsorbate Nitrogen: InChIKey IJGRMHOSHXDMSA-UHFFFAOYSA-N
Kind: experiment
Temperature: 77 K
Tabular data in the source: 0
pressure (bar)	uptake (cm3(STP)/g)
0.090469	284.615
0.123038	306.478
0.166463	316.194
0.213506	325.911
0.271406	335.628
0.365493	340.486
0.459581	345.344
0.503007	345.344
0.542812	352.632
0.564525	345.344
0.575381	352.632
0.597094	345.344
0.611568	355.061
0.633281	345.344
0.647757	357.49
0.673088	350.202
0.687562	357.49
0.705657	357.49
0.712893	350.202
0.730988	362.348
0.745462	350.202
0.778031	362.348
0.785269	352.632
0.806982	364.777
0.825075	355.061
0.850407	367.206
0.857644	352.632
0.882975	367.206
0.89745	355.061
0.915543	367.206
0.933638	359.919
0.95535	369.636
0.973443	374.494
0.998775	381.781
