Adsorption isotherm of Nitrogen on MIL-125 Synthesized with .45 CTAB
DOI: 10.1021/am508799d
Article source: Figure 3a
Adsorbate Nitrogen: InChIKey IJGRMHOSHXDMSA-UHFFFAOYSA-N
Kind: experiment
Temperature: 77 K
Tabular data in the source: 0
pressure (bar)	uptake (cm3(STP)/g)
0.011921	112.097
0.023841	116.935
0.039735	121.774
0.059603	124.194
0.095365	126.613
0.1351	129.032
0.186756	129.032
0.194703	124.194
0.230465	131.452
0.274173	131.452
0.294041	126.613
0.313909	133.871
0.349671	133.871
0.397353	131.452
0.433115	136.29
0.449009	133.871
0.47285	136.29
0.496691	136.29
0.524506	138.71
0.536427	138.71
0.564241	138.71
0.576161	138.71
0.611924	141.129
0.651659	143.548
0.667553	143.548
0.68742	145.968
0.703315	145.968
0.727156	145.968
0.750997	148.387
0.778811	150.806
0.806626	155.645
0.850336	158.065
0.862255	165.323
0.886097	167.742
0.89007	175
0.921859	172.581
0.925832	189.516
0.9457	204.032
0.961595	199.194
0.981461	220.968
0.993382	233.065
1.0053	240.323
