Adsorption isotherm of Nitrogen on MIL-125 Synthesized with .15 CTAB
DOI: 10.1021/am508799d
Article source: Figure 3a
Adsorbate Nitrogen: InChIKey IJGRMHOSHXDMSA-UHFFFAOYSA-N
Kind: experiment
Temperature: 77 K
Tabular data in the source: 0
pressure (bar)	uptake (cm3(STP)/g)
0.097706	319.512
0.101325	302.439
0.108563	331.707
0.126656	343.902
0.170081	351.22
0.209888	360.976
0.246075	363.415
0.282262	368.293
0.325688	373.171
0.365493	375.61
0.401682	375.61
0.441487	380.488
0.459581	382.927
0.481294	380.488
0.503007	387.805
0.5211	385.366
0.542812	400
0.560906	385.366
0.582619	397.561
0.593475	387.805
0.60795	402.439
0.633281	392.683
0.647757	400
0.673088	395.122
0.691181	407.317
0.709275	397.561
0.720131	404.878
0.738225	402.439
0.759937	412.195
0.785269	404.878
0.803362	417.073
0.821456	407.317
0.843169	421.951
0.854025	417.073
0.857644	421.951
0.875738	424.39
0.890212	414.634
0.901069	426.829
0.9264	429.268
0.930019	421.951
0.962587	443.902
0.966206	431.707
0.980681	456.098
0.998775	487.805
1.00963	490.244
