Adsorption isotherm of Nitrogen on MIL-125 Synthesized with .3 CTAB
DOI: 10.1021/am508799d
Article source: Figure 3a
Adsorbate Nitrogen: InChIKey IJGRMHOSHXDMSA-UHFFFAOYSA-N
Kind: experiment
Temperature: 77 K
Tabular data in the source: 0
pressure (bar)	uptake (cm3(STP)/g)
0.094087	243.32
0.101325	260.324
0.112181	272.47
0.137512	284.615
0.170081	291.903
0.206268	301.619
0.249694	306.478
0.325688	313.765
0.401682	323.482
0.43425	325.911
0.474056	328.34
0.517481	328.34
0.553669	335.628
0.589856	338.057
0.629663	342.915
0.673088	350.202
0.705657	355.061
0.759937	369.636
0.763556	362.348
0.806982	386.64
0.817838	376.923
0.821456	398.785
0.854025	432.794
0.857644	391.498
0.882975	483.806
0.890212	415.789
0.89745	512.955
0.904687	539.676
0.930019	474.089
0.95535	617.409
0.966206	563.968
0.973443	648.988
1.00601	678.138
