Adsorption isotherm of Methane on PCN-14
DOI: 10.1021/Ja207593c
Adsorbate Methane: InChIKey VNWKTOKETHGBQD-UHFFFAOYSA-N
Temperature: 290 K
Tabular data in the source: 0
pressure (bar)	uptake (mmol/g)
0.698149	2.33489
1.62344	3.63146
2.54819	4.75503
3.31807	5.44624
4.16472	6.13737
4.93433	6.74207
10.0075	8.68295
15.0014	9.84537
19.9941	10.5753
25.063	11.1321
30.1316	11.6024
35.1227	11.8132
