Adsorption isotherm of Methane on PCN-14
DOI: 10.1021/Ja207593c
Adsorbate Methane: InChIKey VNWKTOKETHGBQD-UHFFFAOYSA-N
Temperature: 290 K
Tabular data in the source: 0
pressure (bar)	uptake (mmol/g)
0.847715	1.03715
1.54175	2.0312
3.31196	3.45663
4.15835	4.06125
4.92782	4.6227
10.0016	6.77984
14.996	8.07202
19.9893	9.01818
24.9045	9.53189
30.0502	10.0886
35.1956	10.5588
