Adsorption isotherm of Methane on PCN-14
DOI: 10.1021/Ja207593c
Adsorbate Methane: InChIKey VNWKTOKETHGBQD-UHFFFAOYSA-N
Temperature: 290 K
Tabular data in the source: 0
pressure (bar)	uptake (mmol/g)
0.69629	1.72935
2.62191	3.76014
3.16133	4.40835
4.00838	5.22923
4.85477	5.83385
10.0055	8.03416
15.0757	9.02349
19.992	9.88323
25.1372	10.3102
30.0528	10.9537
35.1211	11.2942
