Adsorption isotherm of Methane on PCN-14
DOI: 10.1021/Ja207593c
Adsorbate Methane: InChIKey VNWKTOKETHGBQD-UHFFFAOYSA-N
Temperature: 150 K
Tabular data in the source: 0
pressure (bar)	uptake (mmol/g)
0.212639	4.41558
0.31502	7.46753
0.629435	15.0649
0.858127	16.039
1.78259	17.8571
2.82852	18.6364
3.64303	19.026
5.04032	19.4805
