Adsorption isotherm of Methane on PCN-14
DOI: 10.1021/Ja207593c
Adsorbate Methane: InChIKey VNWKTOKETHGBQD-UHFFFAOYSA-N
Temperature: 290 K
Tabular data in the source: 0
pressure (bar)	uptake (mmol/g)
1.04472	1.03896
1.8571	1.88312
2.66919	2.79221
3.36526	3.57143
4.4115	4.28571
4.99156	4.93506
10.1088	7.92208
14.998	9.80519
20.1243	10.8442
25.0178	11.8182
30.0302	12.2727
34.3433	12.6623
35.3928	12.6623
