Adsorption isotherm of Methane on Silicalite MFI
DOI: 10.1080/01496390701512034
Article source: Figure 2
Adsorbate Methane: InChIKey VNWKTOKETHGBQD-UHFFFAOYSA-N
Kind: experiment
Temperature: 373 K
Tabular data in the source: 0
pressure (bar)	uptake (mmol/g)
0.102136	0.04448
0.283811	0.09445
0.522128	0.16386
0.783242	0.23604
1.1011	0.31651
1.50417	0.41641
1.95831	0.52181
2.52026	0.64383
3.16175	0.79084
3.97934	0.94044
4.95013	1.11217
