Adsorption isotherm of Methane on Silicalite MFI
DOI: 10.1080/01496390701512034
Adsorbate Methane: InChIKey VNWKTOKETHGBQD-UHFFFAOYSA-N
Temperature: 373 K
Tabular data in the source: 0
pressure (bar)	uptake (mmol/g)
0.0789545	0.0194805
0.184227	0.0519481
0.236864	0.0714286
0.394773	0.11039
0.473727	0.136364
0.565841	0.168831
0.657955	0.188312
0.736909	0.201299
0.842182	0.233766
0.947455	0.266234
1.06589	0.298701
1.17116	0.324675
1.28959	0.350649
1.40802	0.383117
1.55277	0.409091
1.65805	0.441558
2.01334	0.532468
2.13177	0.558442
2.21073	0.577922
2.32916	0.603896
2.44759	0.62987
2.56602	0.655844
2.68445	0.681818
2.80289	0.707792
2.85552	0.714286
2.97395	0.74026
3.21082	0.785714
3.32925	0.811688
3.44768	0.837662
3.56611	0.863636
3.68455	0.883117
3.80298	0.909091
3.93457	0.928571
4.03984	0.941558
4.14511	0.974026
4.2767	0.993506
4.39514	1.01299
4.46093	1.02597
4.60568	1.05195
4.75043	1.07792
4.86886	1.0974
5.06625	1.12987
