Adsorption isotherm of Carbon Dioxide on Silicalite MFI
DOI: 10.1080/01496390701512034
Adsorbate Carbon Dioxide: InChIKey CURLTUGMZLYLDI-UHFFFAOYSA-N
Temperature: 373 K
Tabular data in the source: 0
pressure (bar)	uptake (mmol/g)
0.0394773	0.0779221
0.14475	0.175325
0.302659	0.305195
0.355295	0.350649
0.526364	0.480519
0.644795	0.525974
0.72375	0.571429
0.815864	0.623377
1.05273	0.733766
1.14484	0.779221
1.25011	0.818182
1.31591	0.850649
1.40802	0.88961
1.5133	0.928571
1.61857	0.967532
1.72384	1.00649
1.9607	1.09091
2.06598	1.12987
2.17125	1.16234
2.28968	1.2013
2.39495	1.23377
2.48707	1.27922
2.6055	1.29221
2.71077	1.32468
2.8292	1.35714
2.93448	1.38961
3.05291	1.42208
3.17134	1.45455
3.28977	1.48052
3.4082	1.51948
3.51348	1.53896
3.63191	1.57143
3.75034	1.5974
3.86877	1.62338
3.97405	1.65584
4.10564	1.68182
4.22407	1.70779
4.31618	1.72727
4.43461	1.75325
4.55305	1.77922
4.67148	1.80519
4.76359	1.83117
4.88202	1.85065
5.00045	1.87662
