Adsorption isotherm of Methane on Silicalite MFI
DOI: 10.1080/01496390701512034
Article source: Figure 2
Adsorbate Methane: InChIKey VNWKTOKETHGBQD-UHFFFAOYSA-N
Kind: experiment
Temperature: 343 K
Tabular data in the source: 0
pressure (bar)	uptake (mmol/g)
0.113484	0.05283
0.266687	0.12512
0.482307	0.20571
0.74332	0.30297
1.08387	0.40572
1.44145	0.51681
1.88981	0.66403
2.46888	0.79717
3.09903	0.9219
3.97326	1.10488
4.91001	1.25435
