Adsorption isotherm of Methane on Silicalite MFI
DOI: 10.1080/01496390701512034
Adsorbate Methane: InChIKey VNWKTOKETHGBQD-UHFFFAOYSA-N
Temperature: 343 K
Tabular data in the source: 0
pressure (bar)	uptake (mmol/g)
0.131591	0.0519481
0.236864	0.0844156
0.302659	0.12987
0.355295	0.142857
0.43425	0.168831
0.539523	0.207792
0.644795	0.246753
0.750068	0.279221
0.815864	0.311688
0.934295	0.344156
1.03957	0.376623
1.14484	0.415584
1.25011	0.448052
1.36855	0.487013
1.5133	0.525974
1.61857	0.564935
1.737	0.590909
1.85543	0.623377
1.9607	0.649351
2.07914	0.681818
2.19757	0.714286
2.30284	0.74026
2.42127	0.766234
2.5397	0.798701
2.65814	0.824675
2.77657	0.857143
2.895	0.876623
3.15818	0.935065
3.27661	0.961039
3.39505	0.987013
3.52664	1.00649
3.64507	1.03247
3.7635	1.05844
4.07932	1.11688
4.19775	1.13636
4.31618	1.15584
4.43461	1.17532
4.5662	1.19481
4.68464	1.21429
4.81623	1.23377
4.93466	1.24026
5.03993	1.26623
