Adsorption isotherm of Methane on Silicalite MFI
DOI: 10.1080/01496390701512034
Adsorbate Methane: InChIKey VNWKTOKETHGBQD-UHFFFAOYSA-N
Temperature: 373 K
Tabular data in the source: 0
pressure (bar)	uptake (mmol/g)
0.118432	0.025974
0.2895	0.0844156
0.513205	0.149351
0.789545	0.220779
1.10536	0.311688
1.50014	0.415584
1.9607	0.512987
2.52655	0.636364
3.15818	0.785714
4.00036	0.935065
4.96098	1.11039
