Adsorption isotherm of Carbon Dioxide on Silicalite MFI
DOI: 10.1080/01496390701512034
Adsorbate Carbon Dioxide: InChIKey CURLTUGMZLYLDI-UHFFFAOYSA-N
Temperature: 373 K
Tabular data in the source: 0
pressure (bar)	uptake (mmol/g)
0.250023	0.25974
0.394773	0.376623
0.605318	0.5
0.907977	0.662338
1.27643	0.818182
1.76332	1.03896
2.47391	1.27922
3.44768	1.53247
4.73727	1.80519
