Adsorption isotherm of Carbon Dioxide on Silicalite MFI
DOI: 10.1080/01496390701512034
Adsorbate Carbon Dioxide: InChIKey CURLTUGMZLYLDI-UHFFFAOYSA-N
Temperature: 343 K
Tabular data in the source: 0
pressure (bar)	uptake (mmol/g)
0.105273	0.24026
0.197386	0.383117
0.328977	0.558442
0.552682	0.753247
0.829023	0.961039
1.19748	1.19481
1.71068	1.45455
2.44759	1.70779
3.42136	1.93506
4.6978	2.18182
