Adsorption isotherm of Carbon Dioxide on Silicalite MFI
DOI: 10.1080/01496390701512034
Adsorbate Carbon Dioxide: InChIKey CURLTUGMZLYLDI-UHFFFAOYSA-N
Temperature: 313 K
Tabular data in the source: 0
pressure (bar)	uptake (mmol/g)
0.0657955	0.272727
0.14475	0.480519
0.2895	0.694805
0.486886	0.967532
0.763227	1.24675
1.13168	1.51299
1.63173	1.79221
2.36864	2.03896
3.35557	2.24675
4.64516	2.41558
