Adsorption isotherm of Carbon Dioxide on Silicalite MFI
DOI: 10.1080/01496390701512034
Article source: Figure 2
Adsorbate Carbon Dioxide: InChIKey CURLTUGMZLYLDI-UHFFFAOYSA-N
Kind: experiment
Temperature: 313 K
Tabular data in the source: 0
pressure (bar)	uptake (mmol/g)
0.016719	0.13097
0.05046	0.28144
0.146617	0.482
0.271044	0.69926
0.486259	0.97773
0.758215	1.2422
1.11549	1.51772
1.63731	1.79307
2.35246	2.03197
3.34595	2.23712
4.62346	2.4113
