Adsorption isotherm of Carbon Dioxide, Methane on Silicalite MFI
DOI: 10.1080/01496390701512034
Article source: Figure 5
Adsorbate Carbon Dioxide: InChIKey CURLTUGMZLYLDI-UHFFFAOYSA-N
Adsorbate Methane: InChIKey VNWKTOKETHGBQD-UHFFFAOYSA-N
Kind: experiment
Temperature: 313 K
Tabular data in the source: 0
pressure (bar)	Carbon Dioxide fraction	Carbon Dioxide uptake (mmol/g)	Methane fraction	Methane uptake (mmol/g)	total uptake (mmol/g)
1.01325	0.00457	0.00722	0.00683	0.55856	0.56216
1.01325	0.03425	0.16229	0.041	0.33514	0.48288
1.01325	0.09361	0.2598	0.08884	0.25586	0.48649
1.01325	0.15297	0.35731	0.15945	0.19099	0.53333
1.01325	0.23288	0.45489	0.23462	0.16216	0.60901
1.01325	0.3242	0.56693	0.33257	0.14054	0.6991
1.01325	0.44749	0.72233	0.44875	0.11892	0.82162
1.01325	0.59361	0.90304	0.59226	0.0973	0.99099
1.01325	0.72831	1.08731	0.73576	0.07207	1.14595
1.01325	0.8516	1.24992	0.84738	0.05405	1.29009
1.01325	0.94064	1.37276	0.94989	0.02162	1.38378
1.01325	0.99315	1.44862	0.99544	0.00721	1.43784
