Adsorption isotherm of Carbon Dioxide, Methane on Silicalite MFI
DOI: 10.1080/01496390701512034
Article source: Figure 5b
Adsorbate Carbon Dioxide: InChIKey CURLTUGMZLYLDI-UHFFFAOYSA-N
Adsorbate Methane: InChIKey VNWKTOKETHGBQD-UHFFFAOYSA-N
Kind: experiment
Temperature: 343 K
Tabular data in the source: 0
pressure (bar)	Carbon Dioxide fraction	Carbon Dioxide uptake (mmol/g)	Methane fraction	Methane uptake (mmol/g)	total uptake (mmol/g)
1.01325	0.0046	0.00809	0.9954	0.38253	0.37213
1.01325	0.03701	0.09978	0.96299	0.20528	0.28854
1.01325	0.0875	0.16449	0.9125	0.12464	0.26697
1.01325	0.15157	0.21573	0.84843	0.08022	0.28584
1.01325	0.23396	0.28315	0.76604	0.06394	0.32899
1.01325	0.32552	0.36135	0.67448	0.05369	0.3964
1.01325	0.44449	0.45303	0.55551	0.05345	0.49888
1.01325	0.59566	0.59865	0.40434	0.05518	0.63371
1.01325	0.73779	0.75506	0.26221	0.04885	0.79281
1.01325	0.85703	0.89528	0.14297	0.03049	0.92225
1.01325	0.94658	1.01933	0.05342	0.01219	1.01933
1.01325	1	1.09483	0	0	1.08404
