Adsorption isotherm of Carbon Dioxide on Silicalite MFI
DOI: 10.1080/01496390701512034
Adsorbate Carbon Dioxide: InChIKey CURLTUGMZLYLDI-UHFFFAOYSA-N
Temperature: 313 K
Tabular data in the source: 0
pressure (bar)	uptake (mmol/g)
0.0394773	0.116883
0.0657955	0.194805
0.105273	0.311688
0.157909	0.422078
0.184227	0.493506
0.263182	0.61039
0.2895	0.701299
0.315818	0.75974
0.355295	0.837662
0.447409	0.915584
0.500045	1
0.592159	1.09091
0.644795	1.14935
0.710591	1.20779
0.789545	1.29221
0.8685	1.34416
0.947455	1.3961
1.01325	1.45455
1.10536	1.5
1.21064	1.55844
1.30275	1.61039
1.39486	1.65584
1.48698	1.7013
1.57909	1.74026
1.82911	1.83766
1.93439	1.87662
2.03966	1.91558
2.14493	1.94805
2.26336	1.98052
2.68445	2.0974
2.80289	2.12987
2.98711	2.16883
3.10555	2.19481
3.22398	2.22078
3.34241	2.24026
3.46084	2.25974
3.57927	2.27922
3.6977	2.30519
3.77666	2.31818
3.89509	2.33766
4.02668	2.35714
4.14511	2.37662
4.31618	2.4026
4.46093	2.42857
4.632	2.44156
4.73727	2.46753
4.84255	2.47403
4.97414	2.48701
5.05309	2.5
