Adsorption isotherm of Carbon Dioxide on Silicalite MFI
DOI: 10.1080/01496390701512034
Article source: Figure 2
Adsorbate Carbon Dioxide: InChIKey CURLTUGMZLYLDI-UHFFFAOYSA-N
Kind: experiment
Temperature: 343 K
Tabular data in the source: 0
pressure (bar)	uptake (mmol/g)
0.022494	0
0.197888	0
0.33954	0
0.532159	0
0.809992	0
1.18996	0
1.70621	0
2.43839	0
3.39773	0
4.69216	0
