Adsorption isotherm of Methane on Silicalite MFI
DOI: 10.1080/01496390701512034
Adsorbate Methane: InChIKey VNWKTOKETHGBQD-UHFFFAOYSA-N
Temperature: 313 K
Tabular data in the source: 0
pressure (bar)	uptake (mmol/g)
0.250023	0.162338
0.447409	0.285714
0.72375	0.415584
1.06589	0.564935
1.39486	0.714286
1.86859	0.857143
2.40811	1.01299
3.07923	1.17532
3.89509	1.31818
4.8557	1.48052
