Adsorption isotherm of Methane on Silicalite MFI
DOI: 10.1080/01496390701512034
Adsorbate Methane: InChIKey VNWKTOKETHGBQD-UHFFFAOYSA-N
Temperature: 343 K
Tabular data in the source: 0
pressure (bar)	uptake (mmol/g)
0.276341	0.116883
0.486886	0.207792
0.763227	0.298701
1.0922	0.402597
1.4475	0.519481
1.89491	0.655844
2.47391	0.798701
3.10555	0.922078
4.00036	1.1039
4.9215	1.25974
