Adsorption isotherm of Carbon Dioxide on Silicalite MFI
DOI: 10.1080/01496390701512034
Article source: Figure 2
Adsorbate Carbon Dioxide: InChIKey CURLTUGMZLYLDI-UHFFFAOYSA-N
Kind: experiment
Temperature: 373 K
Tabular data in the source: 0
pressure (bar)	uptake (mmol/g)
0.062315	0.08076
0.11318	0.1671
0.232237	0.26452
0.373991	0.37863
0.612307	0.50379
0.873219	0.65121
1.25329	0.82081
1.77542	1.03205
2.46777	1.27376
3.42701	1.52633
4.70999	1.80084
