Adsorption isotherm of Methane on Silicalite MFI
DOI: 10.1080/01496390701512034
Adsorbate Methane: InChIKey VNWKTOKETHGBQD-UHFFFAOYSA-N
Temperature: 313 K
Tabular data in the source: 0
pressure (bar)	uptake (mmol/g)
0.118432	0.0779221
0.2895	0.181818
0.368455	0.233766
0.579	0.363636
0.763227	0.441558
0.855341	0.487013
0.960614	0.532468
1.0922	0.584416
1.19748	0.62987
1.28959	0.662338
1.46066	0.727273
1.56593	0.766234
1.60541	0.779221
1.71068	0.818182
1.82911	0.850649
1.90807	0.87013
2.01334	0.909091
2.13177	0.935065
2.23705	0.974026
2.35548	1
2.47391	1.02597
2.59234	1.05844
2.71077	1.08442
2.76341	1.1039
2.88184	1.12987
3.13186	1.18182
3.2503	1.20779
3.36873	1.22727
3.50032	1.25325
3.61875	1.27922
3.73718	1.2987
3.93457	1.33117
4.053	1.35065
4.17143	1.37662
4.28986	1.38961
4.43461	1.41558
4.632	1.44156
4.81623	1.47403
5.05309	1.50649
