Adsorption isotherm of Carbon Dioxide on Silicalite MFI
DOI: 10.1080/01496390701512034
Adsorbate Carbon Dioxide: InChIKey CURLTUGMZLYLDI-UHFFFAOYSA-N
Temperature: 343 K
Tabular data in the source: 0
pressure (bar)	uptake (mmol/g)
0.105273	0.25974
0.197386	0.363636
0.250023	0.428571
0.302659	0.506494
0.381614	0.590909
0.43425	0.649351
0.500045	0.707792
0.565841	0.753247
0.618477	0.811688
0.697432	0.863636
0.763227	0.922078
0.842182	0.961039
0.8685	0.993506
0.947455	1.04545
1.02641	1.0974
1.11852	1.14286
1.18432	1.19481
1.27643	1.22727
1.36855	1.27273
1.46066	1.31818
1.56593	1.36364
1.65805	1.40909
1.72384	1.45455
1.82911	1.48052
1.93439	1.51948
2.03966	1.55195
2.14493	1.58442
2.2502	1.62338
2.36864	1.66234
2.43443	1.7013
2.55286	1.72078
2.61866	1.74026
2.73709	1.77273
2.86868	1.80519
2.98711	1.83766
3.10555	1.86364
3.22398	1.88961
3.34241	1.92208
3.46084	1.93506
3.56611	1.96753
3.68455	1.99351
3.85561	2.02597
4.03984	2.06494
4.15827	2.09091
4.26355	2.11039
4.4083	2.13636
4.52673	2.15584
4.60568	2.16883
4.73727	2.18182
4.84255	2.2013
4.97414	2.22727
