Adsorption isotherm of Carbon Dioxide, Methane on Silicalite MFI
DOI: 10.1080/01496390701512034
Article source: Figure 5c
Adsorbate Carbon Dioxide: InChIKey CURLTUGMZLYLDI-UHFFFAOYSA-N
Adsorbate Methane: InChIKey VNWKTOKETHGBQD-UHFFFAOYSA-N
Kind: experiment
Temperature: 373 K
Tabular data in the source: 0
pressure (bar)	Carbon Dioxide fraction	Carbon Dioxide uptake (mmol/g)	Methane fraction	Methane uptake (mmol/g)	total uptake (mmol/g)
1.01325	0.00622	0.0013	0.00887	0.285	0.2861
1.01325	0.04193	0.05381	0.04577	0.18117	0.23229
1.01325	0.09307	0.09417	0.09525	0.113	0.20179
1.01325	0.15908	0.13004	0.16169	0.07175	0.19552
1.01325	0.23762	0.16951	0.2406	0.04753	0.20897
1.01325	0.331	0.20897	0.3331	0.04126	0.24215
1.01325	0.4505	0.27175	0.45184	0.03677	0.30673
1.01325	0.5904	0.36233	0.59454	0.03587	0.39372
1.01325	0.73475	0.47175	0.74067	0.03408	0.49955
1.01325	0.85058	0.57758	0.86061	0.02152	0.59821
1.01325	0.94481	0.66906	0.95085	0.01076	0.66906
1.01325	0.99702	0.72287	0.99655	0.00448	0.72646
