Adsorption isotherm of Methane on Silicalite MFI
DOI: 10.1080/01496390701512034
Article source: Figure 2
Adsorbate Methane: InChIKey VNWKTOKETHGBQD-UHFFFAOYSA-N
Kind: experiment
Temperature: 313 K
Tabular data in the source: 0
pressure (bar)	uptake (mmol/g)
0.113383	0.08349
0.238215	0.16417
0.453733	0.28936
0.708971	0.42843
1.04375	0.57299
1.4069	0.71473
1.86093	0.86752
2.42856	1.01461
3.07572	1.16997
3.88754	1.31679
4.85276	1.47181
