Adsorption isotherm of Cr(VI), Water on iron manganese bimetal oxides (IMBO)
DOI: 10.1016/j.jcis.2016.09.026
Article source: Figure 3
Adsorbate Cr(VI): InChIKey JOPOVCBBYLSVDA-UHFFFAOYSA-N
Adsorbate Water: InChIKey XLYOFNOQVPJJNP-UHFFFAOYSA-N
Kind: experiment
Temperature: 298 K
Tabular data in the source: 0
pressure (bar)	Cr(VI) fraction	Cr(VI) uptake (mg/g)	Water fraction	Water uptake (mg/g)	total uptake (mg/g)
1.01325	0.244	4.848			
1.01325	0.391	10.857			
1.01325	0.83	22.57			
1.01325	1.36	46.105			
1.01325	7.211	69.333			
1.01325	16.092	86.105			
1.01325	32.614	98.351			
1.01325	50.595	105.16			
1.01325	72.245	110.972			
