Adsorption isotherm of Nitrogen on iron manganese bimetal oxides (IMBO)
DOI: 10.1016/j.jcis.2016.09.026
Article source: Figure 1
Adsorbate Nitrogen: InChIKey IJGRMHOSHXDMSA-UHFFFAOYSA-N
Kind: experiment
Temperature: 298 K
Tabular data in the source: 0
pressure (bar)	uptake (cm3(STP)/g)
0.021936	20.682
0.024733	20.048
0.047632	23.604
0.04977	22.674
0.072497	25.384
0.0743	24.835
0.097523	27.418
0.098841	26.826
0.123047	28.945
0.12486	28.438
0.150384	30.26
0.15087	29.457
0.175745	32.083
0.177386	31.153
0.199779	33.567
0.201916	31.876
0.226457	34.882
0.227116	33.614
0.251656	36.578
0.255101	34.464
0.278	37.47
0.278486	35.441
0.302925	38.737
0.303128	36.819
0.329269	39.913
0.329887	38.262
0.356029	39.332
0.356029	41.569
0.378026	42.745
0.380508	40.668
0.404573	42.323
0.404988	44.348
0.42968	45.897
0.430714	44.086
0.454778	45.688
0.455822	48.192
0.478234	50.274
0.480301	47.397
0.504163	52.409
0.506443	48.947
0.53072	55.344
0.531125	51.189
0.555463	57.518
0.555787	53.332
0.580824	60.229
0.58131	55.958
0.606834	58.669
0.607178	63.659
0.630057	61.675
0.631881	66.538
0.658062	69.714
0.658214	64.513
0.681934	67.688
0.682603	75.681
0.707974	82.07
0.708278	71.287
0.732839	90.168
0.735129	76.662
0.757511	81.542
0.758585	100.083
0.78345	89.165
0.784747	113.779
0.809196	97.214
0.810503	129.82
0.83328	108.726
0.835844	149.964
0.859239	123.329
0.859746	171.172
0.884793	142.886
0.888623	192.169
0.91064	209.701
0.912008	166.28
0.935505	191.804
0.93743	223.132
0.960025	215.41
0.962133	232.672
0.986825	235.82
0.989541	243.706
0.993269	243.014
1.00285	262.995
1.00763	263.475
