Adsorption isotherm of Arsenate, Water on iron manganese bimetal oxides (IMBO)
DOI: 10.1016/j.jcis.2016.09.026
Article source: Figure 3
Adsorbate Arsenate: InChIKey HAYXDMNJJFVXCI-UHFFFAOYSA-N
Adsorbate Water: InChIKey XLYOFNOQVPJJNP-UHFFFAOYSA-N
Kind: experiment
Temperature: 298 K
Tabular data in the source: 0
pressure (bar)	Arsenate fraction	Arsenate uptake (mg/g)	Water fraction	Water uptake (mg/g)	total uptake (mg/g)
1.01325	-0.02	25.638			
1.01325	0.013	5.242			
1.01325	0.075	10.571			
1.01325	1.054	51.016			
1.01325	4.682	90.701			
1.01325	18.104	113.178			
1.01325	31.066	125.681			
1.01325	50.66	130.997			
1.01325	68.095	134.496			
