Adsorption isotherm of Deuterium on MFU-4
DOI: 10.1002/adma.201203383
Adsorbate Deuterium: InChIKey UFHFLCQGNIYNRP-VVKOMZTBSA-N
Temperature: 70 K
Tabular data in the source: 0
pressure (bar)	uptake (mmol/g)
0.000632	0.0947643
0.00111045	0.194874
0.00183785	0.337889
0.00242349	0.480903
0.00319576	0.623917
0.00498475	0.967152
0.00808862	1.55351
0.0098556	1.59641
0.0118905	1.83954
0.0204727	2.64042
0.030696	3.39839
0.0513079	4.32799
0.063137	4.58541
0.0800302	5.05736
0.0965544	5.4149
0.194712	6.21578
0.400492	7.74603
0.502659	8.07496
0.600484	8.67562
0.696399	9.13327
0.891494	9.60522
0.993833	9.96275
