Adsorption isotherm of Deuterium on MFU-4
DOI: 10.1002/adma.201203383
Adsorbate Deuterium: InChIKey UFHFLCQGNIYNRP-VVKOMZTBSA-N
Temperature: 60 K
Tabular data in the source: 0
pressure (bar)	uptake (mmol/g)
0.000778	0.109066
0.00174927	0.109066
0.00237608	0.180573
0.00325953	0.266381
0.00425595	0.437999
0.00539469	0.65252
0.00650856	0.781233
0.00793037	1.19597
0.0136542	1.28178
0.0185469	1.26748
0.0278085	1.31039
0.0421091	1.32469
0.0625163	1.38189
0.102451	1.4677
0.196645	1.59641
0.303712	1.83954
0.400492	2.19707
0.618547	2.59751
0.703312	2.68332
0.807633	3.19817
0.909284	3.61292
1.0037	3.69872
