Adsorption isotherm of Hydrogen on MFU-4
DOI: 10.1002/adma.201203383
Adsorbate Hydrogen: InChIKey UFHFLCQGNIYNRP-UHFFFAOYSA-N
Temperature: 70 K
Tabular data in the source: 0
pressure (bar)	uptake (mmol/g)
0.000834	0.05186
0.00147884	0.123367
0.00181978	0.180573
0.0026228	0.294984
0.00322749	0.423697
0.00447145	0.666821
0.00644458	1.03866
0.0098556	1.26748
0.0153728	1.75373
0.0264683	2.55461
0.0429494	3.34119
0.0619017	4.01336
0.0824376	4.4281
0.100446	4.59971
0.20256	5.4578
0.306727	5.60081
0.50765	6.58761
0.606446	7.4314
0.696399	7.80324
0.791833	7.97485
0.900345	8.33239
0.984063	8.20368
