Adsorption isotherm of Hydrogen on MFU-4
DOI: 10.1002/adma.201203383
Adsorbate Hydrogen: InChIKey UFHFLCQGNIYNRP-UHFFFAOYSA-N
Temperature: 60 K
Tabular data in the source: 0
pressure (bar)	uptake (mmol/g)
0.00133757	0.111398
0.00272413	0.111398
0.00349879	0.140001
0.00437691	0.187672
0.00543948	0.330686
0.00662775	0.626249
0.007814	0.712058
0.0137676	0.712058
0.0186394	0.712058
0.0282247	0.731126
0.0424587	0.778798
0.0655761	0.788332
0.10128	0.845538
0.204916	0.931346
0.300242	1.04576
0.406485	1.09343
0.599517	1.21737
0.697571	1.37946
0.817025	1.73223
1.00871	2.31382
