Adsorption isotherm of Deuterium on MFU-4
DOI: 10.1002/adma.201203383
Adsorbate Deuterium: InChIKey UFHFLCQGNIYNRP-VVKOMZTBSA-N
Temperature: 50 K
Tabular data in the source: 0
pressure (bar)	uptake (mmol/g)
0.0018561	0.0661614
0.00393254	0.0661614
0.00508422	0.05186
0.00589631	0.05186
0.00833193	0.223477
0.0136542	0.209176
0.0191048	0.237779
0.0278085	0.237779
0.0425272	0.266381
0.0656818	0.294984
0.104495	0.323587
0.155136	0.35219
0.204571	0.366491
0.283419	0.395094
0.366421	0.4523
0.50765	0.55241
0.656319	0.681123
0.840187	0.838439
1.0037	1.01006
