Adsorption isotherm of Hydrogen on MFU-4
DOI: 10.1002/adma.201203383
Adsorbate Hydrogen: InChIKey UFHFLCQGNIYNRP-UHFFFAOYSA-N
Temperature: 50 K
Tabular data in the source: 0
pressure (bar)	uptake (mmol/g)
0.00526328	0.0732605
0.00840111	0.0827948
0.0135874	0.0637262
0.0188865	0.0637262
0.0282247	0.0827948
0.043306	0.101863
0.0660094	0.111398
0.104671	0.140001
0.203571	0.149535
0.312344	0.168603
0.411875	0.216275
0.508504	0.273481
0.599517	0.340221
0.711491	0.483235
0.901861	0.530906
0.988971	0.559509
