Adsorption isotherm of Nitrogen on SWCNT cryogels
DOI: 10.1007/s10450-021-00315-x
Article source: Figure 4
Adsorbate Nitrogen: InChIKey IJGRMHOSHXDMSA-UHFFFAOYSA-N
Kind: experiment
Temperature: 77 K
Tabular data in the source: 0
pressure (bar)	uptake (ml/g)
0.005725	0.087719
0.005725	0.140351
0.005725	0.157895
0.005725	0.192982
0.011449	0.227872
0.011449	0.245416
0.011449	0.26296
0.017174	0.297849
0.017174	0.315393
0.017174	0.315393
0.028623	0.33254
0.045797	0.384577
0.057246	0.401725
0.074419	0.418674
0.085869	0.435821
0.114492	0.469918
0.125941	0.487065
0.160288	0.520963
0.183186	0.537714
0.211809	0.536723
0.228983	0.536128
0.251881	0.535336
0.280504	0.569432
0.297678	0.568837
0.332025	0.602736
0.372097	0.601348
0.406445	0.600159
0.429343	0.61691
0.469415	0.65061
0.486589	0.650015
0.515212	0.666568
0.532386	0.665973
0.566733	0.664783
0.589631	0.66399
0.618254	0.680543
0.641153	0.697294
0.6755	0.731192
0.692674	0.748142
0.715572	0.764892
0.749919	0.781247
0.767093	0.798196
0.801441	0.814551
0.824339	0.831301
0.864411	0.847458
0.881585	0.864407
0.893034	0.881554
0.915932	0.933393
0.921657	0.968282
0.933106	1.07315
0.944555	1.12538
0.95028	1.19536
0.967453	1.28249
0.973178	1.33492
0.978903	1.47507
0.978903	1.47507
0.973178	1.6858
0.978903	2.01893
0.990352	2.14134
0.993214	2.28159
0.990352	2.33433
0.996076	2.36921
1.0018	2.42165
1.00752	2.47408
0.011449	0.420854
0.022898	0.455546
0.045797	0.472297
0.06297	0.50679
0.074419	0.523937
0.103042	0.54049
0.120216	0.557439
0.143114	0.57419
0.148839	0.591535
0.171737	0.608286
0.194636	0.625037
0.211809	0.624442
0.240432	0.623451
0.263331	0.622658
0.269055	0.62246
0.309127	0.65616
0.343475	0.690058
0.366373	0.689266
0.40072	0.688076
0.417894	0.687481
0.435068	0.704431
0.469415	0.720785
0.498038	0.719794
0.526661	0.718803
0.532386	0.718604
0.555284	0.735355
0.572458	0.734761
0.61253	0.733373
0.618254	0.733175
0.641153	0.749926
0.681225	0.766082
0.704123	0.782833
0.744195	0.798989
0.778542	0.832887
0.801441	0.849638
0.835788	0.883537
0.864411	0.900089
0.870136	0.917435
0.893034	0.969273
0.904483	1.02151
0.915932	1.07374
0.921657	1.12618
0.933106	1.2135
0.933106	1.24859
0.938831	1.30102
0.944555	1.42363
0.944555	1.51135
0.944555	1.66924
0.944555	1.87977
0.961729	2.00198
0.967453	2.10705
0.978903	2.21191
0.978903	2.26455
0.990352	2.36941
0.996076	2.45693
