Adsorption isotherm of Water on SWCNT cryogels
DOI: 10.1007/s10450-021-00315-x
Article source: Figure 7
Adsorbate Water: InChIKey XLYOFNOQVPJJNP-UHFFFAOYSA-N
Kind: experiment
Temperature: 298 K
Tabular data in the source: 0
pressure (bar)	uptake (ml/g)
0.000909	0.026536
0.001954	0.021944
0.003716	0.026139
0.005471	0.025891
0.006173	0.025791
0.007417	0.034504
0.009179	0.038699
0.011636	0.038352
0.012688	0.038203
0.013917	0.038029
0.015313	0.033387
0.016724	0.037632
0.017968	0.046345
0.019235	0.068388
0.019961	0.081618
0.021068	0.112573
0.021649	0.143602
0.022062	0.179099
0.022667	0.223458
0.022913	0.263423
0.023341	0.307807
0.023946	0.352166
0.023993	0.378826
0.024215	0.405461
0.02478	0.427603
0.025513	0.445277
0.026788	0.471764
0.027506	0.480551
0.029276	0.48919
0.030528	0.502346
0.031245	0.511133
0.031803	0.528832
0.032407	0.573191
0.032439	0.590964
0.032493	0.622068
0.032532	0.644284
0.032571	0.666501
0.001801	0.035298
0.00464	0.052675
0.00567	0.039196
0.007432	0.043391
0.00866	0.043217
0.009713	0.043068
0.010942	0.042894
0.012521	0.042671
0.014108	0.046891
0.015703	0.055554
0.016124	0.095495
0.016338	0.117686
0.016561	0.144322
0.017165	0.188681
0.018112	0.228547
0.018335	0.255182
0.018939	0.299541
0.019703	0.334988
0.020292	0.37046
0.021056	0.405908
0.021622	0.42805
0.023256	0.45893
0.024675	0.467618
0.026094	0.476306
0.027346	0.489463
0.028255	0.507112
0.028804	0.520367
0.029896	0.542435
0.030828	0.573414
0.031951	0.613256
0.03254	0.648728
