Adsorption isotherm of Nitrogen on pristine SWCNTs
DOI: 10.1007/s10450-021-00315-x
Article source: Figure 4
Adsorbate Nitrogen: InChIKey IJGRMHOSHXDMSA-UHFFFAOYSA-N
Kind: experiment
Temperature: 77 K
Tabular data in the source: 0
pressure (bar)	uptake (ml/g)
0.005725	0.105263
0.011449	0.140153
0.017174	0.192586
0.022898	0.227475
0.028623	0.227277
0.045797	0.296858
0.051521	0.314204
0.06297	0.348895
0.074419	0.348498
0.080144	0.383388
0.097318	0.417881
0.114492	0.452374
0.143114	0.468927
0.160288	0.468332
0.177462	0.485281
0.206085	0.519378
0.234708	0.53593
0.280504	0.551888
0.303403	0.568639
0.332025	0.567648
0.349199	0.567053
0.377822	0.583606
0.412169	0.582416
0.423619	0.599564
0.446517	0.598771
0.47514	0.59778
0.498038	0.596987
0.515212	0.596392
0.53811	0.613143
0.555284	0.612548
0.583907	0.611557
0.601081	0.610962
0.618254	0.627912
0.641153	0.627119
0.669775	0.643671
0.692674	0.660422
0.709847	0.659828
0.732746	0.659035
0.755644	0.675786
0.772818	0.675191
0.807165	0.674001
0.835788	0.690554
0.858686	0.724849
0.87586	0.741798
0.898758	0.776093
0.904483	0.775895
0.921657	0.810388
0.938831	0.844881
0.944555	0.87977
0.956004	0.932005
0.961729	0.984438
0.973178	1.01913
0.978903	1.07156
0.978903	1.10665
0.978903	1.17683
0.984627	1.22926
0.978903	1.29963
0.984627	1.49242
0.973178	1.65071
0.984627	1.94856
0.990352	2.10625
1.0018	2.22867
0.017174	0.332937
0.040072	0.402319
0.057246	0.436812
0.085869	0.488453
0.114492	0.505005
0.143114	0.521558
0.177462	0.555456
0.217534	0.589157
0.263331	0.605114
0.297678	0.639013
0.332025	0.655367
0.349199	0.654773
0.377822	0.653781
0.40072	0.670532
0.446517	0.704034
0.480864	0.702845
0.498038	0.70225
0.53811	0.700862
0.566733	0.699871
0.578182	0.699475
0.606805	0.698483
0.629703	0.715234
0.646877	0.71464
0.692674	0.730598
0.732746	0.764298
0.73847	0.781643
0.755644	0.781049
0.784267	0.797601
0.801441	0.814551
0.830064	0.831103
0.852962	0.865398
0.881585	0.881951
0.893034	0.881554
0.910208	0.933591
0.927381	0.985628
0.944555	1.02012
0.95028	1.03747
0.973178	1.14194
0.978903	1.21191
0.990352	1.29924
0.990352	1.36941
0.990352	1.49222
0.984627	1.61522
0.984627	1.72049
0.984627	1.84329
0.978903	1.9663
0.996076	2.10606
1.0018	2.21112
