Adsorption isotherm of Water on SWCNT xerogels
DOI: 10.1007/s10450-021-00315-x
Article source: Figure 7
Adsorbate Water: InChIKey XLYOFNOQVPJJNP-UHFFFAOYSA-N
Kind: experiment
Temperature: 298 K
Tabular data in the source: 0
pressure (bar)	uptake (ml/g)
3.1e-05	0.02666
0.000406	0.03994
0.001993	0.04416
0.00342	0.057292
0.005701	0.056969
0.006937	0.061239
0.008875	0.065409
0.010454	0.065186
0.011858	0.064987
0.013285	0.078118
0.014513	0.077945
0.016108	0.086608
0.017543	0.104183
0.018978	0.121757
0.020078	0.148269
0.020643	0.170411
0.021598	0.21472
0.022936	0.276753
0.023341	0.307807
0.023755	0.343304
0.024679	0.36984
0.025771	0.391908
0.027748	0.418295
0.029031	0.449224
0.030473	0.471242
0.031589	0.50664
0.032041	0.564354
0.032653	0.613156
0.0327	0.639816
0.000628	0.066576
0.001688	0.07087
0.003802	0.075016
0.005046	0.083728
0.006465	0.092417
0.007701	0.096686
0.009113	0.100931
0.011043	0.100658
0.012454	0.104903
0.013905	0.131364
0.01502	0.166762
0.015235	0.188954
0.0158	0.211096
0.016381	0.242125
0.016787	0.273179
0.017368	0.304208
0.018124	0.335212
0.019232	0.366166
0.02014	0.383815
0.021056	0.405908
0.022491	0.423483
0.024461	0.445426
0.026071	0.462976
0.026972	0.476182
0.027888	0.498275
0.029339	0.524736
0.030064	0.537967
0.031164	0.564478
0.03208	0.586571
0.032446	0.595408
