Adsorption isotherm of Nitrogen on SWCNT xerogels
DOI: 10.1007/s10450-021-00315-x
Article source: Figure 4
Adsorbate Nitrogen: InChIKey IJGRMHOSHXDMSA-UHFFFAOYSA-N
Kind: experiment
Temperature: 77 K
Tabular data in the source: 0
pressure (bar)	uptake (ml/g)
0	0.087918
0.005725	0.122807
0.005725	0.140351
0.005725	0.175439
0.005725	0.192982
0.011449	0.245416
0.022898	0.297651
0.028623	0.314997
0.034347	0.349886
0.045797	0.367033
0.074419	0.40113
0.097318	0.435425
0.131665	0.434235
0.154564	0.450986
0.171737	0.467935
0.188911	0.484885
0.211809	0.484092
0.246157	0.482902
0.263331	0.482307
0.291953	0.49886
0.303403	0.498464
0.326301	0.515215
0.343475	0.51462
0.366373	0.513827
0.40072	0.530181
0.423619	0.529388
0.457966	0.545743
0.480864	0.54495
0.498038	0.544355
0.520936	0.543562
0.543835	0.525225
0.566733	0.524433
0.589631	0.541183
0.606805	0.540589
0.629703	0.55734
0.658326	0.556348
0.6755	0.555754
0.709847	0.554564
0.727021	0.55397
0.767093	0.58767
0.784267	0.622163
0.830064	0.638121
0.841513	0.637724
0.858686	0.654673
0.864411	0.672019
0.893034	0.723659
0.898758	0.741005
0.910208	0.758152
0.915932	0.757954
0.927381	0.810189
0.938831	0.844881
0.95028	0.897116
0.956004	0.949549
0.967453	0.98424
0.973178	1.03667
0.978903	1.08911
0.978903	1.12419
0.984627	1.15908
0.984627	1.21172
0.996076	1.24641
0.996076	1.26395
-0.005725	0.246011
0.005725	0.315789
0.011449	0.350679
0.022898	0.38537
0.040072	0.402319
0.06297	0.436614
0.074419	0.453762
0.13739	0.486669
0.13739	0.486669
0.177462	0.520369
0.194636	0.537318
0.228983	0.536128
0.246157	0.535534
0.27478	0.534543
0.291953	0.551492
0.320576	0.568044
0.343475	0.567251
0.360648	0.566657
0.383547	0.565864
0.394996	0.565467
0.417894	0.564674
0.435068	0.56408
0.469415	0.580434
0.480864	0.580038
0.526661	0.578452
0.53811	0.578055
0.578182	0.576668
0.606805	0.59322
0.629703	0.592427
0.646877	0.609377
0.6755	0.625929
0.698398	0.64268
0.715572	0.642085
0.73847	0.641292
0.772818	0.657647
0.795716	0.674398
0.807165	0.691545
0.830064	0.690752
0.864411	0.724651
0.87586	0.741798
0.893034	0.758747
0.898758	0.793637
0.910208	0.810784
0.921657	0.845475
0.927381	0.880365
0.938831	0.915056
0.944555	0.949945
0.95028	0.984835
0.961729	1.07216
0.973178	1.12439
0.973178	1.15948
0.984627	1.22926
0.990352	1.26415
