Adsorption isotherm of Water on pristine SWCNTs
DOI: 10.1007/s10450-021-00315-x
Article source: Figure 7
Adsorbate Water: InChIKey XLYOFNOQVPJJNP-UHFFFAOYSA-N
Kind: experiment
Temperature: 298 K
Tabular data in the source: 0
pressure (bar)	uptake (ml/g)
0.002815	0.012933
0.00441	0.021596
0.006173	0.025791
0.007576	0.025593
0.009331	0.025344
0.010376	0.020752
0.013191	0.024798
0.014794	0.037905
0.016381	0.042125
0.01745	0.050863
0.018717	0.072906
0.019625	0.090555
0.020191	0.112697
0.021298	0.143651
0.022445	0.196823
0.023041	0.236738
0.023821	0.281072
0.024609	0.32985
0.025198	0.365322
0.026305	0.396277
0.027061	0.427281
0.027993	0.45826
0.028543	0.471515
0.030345	0.497927
0.031238	0.50669
0.031772	0.511059
0.032306	0.515428
0.003907	0.035001
0.00567	0.039196
0.007935	0.029986
0.010049	0.034132
0.011987	0.038302
0.013909	0.033586
0.015687	0.046667
0.016787	0.073179
0.017009	0.099814
0.017781	0.139705
0.018187	0.170758
0.018775	0.206231
0.01954	0.241678
0.019793	0.286087
0.020374	0.317116
0.020604	0.348194
0.021201	0.38811
0.021591	0.410277
0.022355	0.445724
0.022905	0.45898
0.024164	0.476579
0.025416	0.489736
0.027003	0.493956
0.028933	0.493683
0.030528	0.502346
0.03123	0.502246
0.032306	0.515428
