Adsorption isotherm of Nitrogen on TTF-COF1 after immersing in acids, bases, boiling water, and organic solvents
DOI: 10.1039/d0cc04109b
Article source: Figure S11
Adsorbate Nitrogen: InChIKey IJGRMHOSHXDMSA-UHFFFAOYSA-N
Kind: experiment
Temperature: 77 K
Tabular data in the source: 0
pressure (bar)	uptake (cm3(STP)/g)
0.000925	51.0402
0.000925	34.7086
0.000925	18.1885
0.005022	105.249
0.00165	89.1264
0.00165	72.711
0.00165	65.9271
0.011766	124.051
0.031998	143.733
0.057287	157.887
0.085106	168.607
0.102822	174.352
0.163313	186.548
0.143272	182.007
0.181044	190.176
0.214084	208.928
0.206497	197.083
0.251649	222.51
0.25811	205.67
0.301755	229.746
0.302598	214.985
0.334752	239.138
0.363293	248.381
0.367845	229.243
0.393135	255.123
0.400216	235.776
0.423988	260.525
0.454336	267.225
0.463946	249.093
0.484684	271.203
0.49834	255.374
0.515031	277.275
0.528688	261.907
0.556931	281.855
0.588181	274.471
0.56237	269.08
0.605063	290.74
0.636928	284.183
0.66677	299.958
0.668034	288.791
0.706864	309.16
0.702175	295.072
0.789425	316.251
0.813731	325.642
0.833682	321.454
0.147972	195.867
1.00513	373.805
0.992498	375.598
0.990693	369.323
0.960016	364.841
0.960016	355.876
0.927534	356.773
0.941971	351.843
0.896857	351.394
0.913098	342.878
0.877007	341.534
0.884225	337.052
0.857157	339.741
0.860766	328.984
0.831894	336.155
0.757907	320.916
0.759712	309.263
0.122709	177.49
0.005414	113.845
