Adsorption isotherm of Nitrogen on TTF-COF1
DOI: 10.1039/d0cc04109b
Article source: Figure 2e
Adsorbate Nitrogen: InChIKey IJGRMHOSHXDMSA-UHFFFAOYSA-N
Kind: experiment
Temperature: 77 K
Tabular data in the source: 0
pressure (bar)	uptake (cm3(STP)/g)
0.00081	113.234
0.00208	94.0384
0.001474	78.4251
0.001474	67.9408
0.000175	57.2806
0.000175	46.5352
0.000175	35.7897
0.000175	25.4035
0.001077	16.1204
0.001609	127.821
0.000428	7.77057
0.009665	141.142
0.027826	163.39
0.064082	183.871
0.08797	192.465
0.119941	202.165
0.147222	224.933
0.143313	208.743
0.1771	215.902
0.209577	239.061
0.205077	222.685
0.240754	245.976
0.244663	230.45
0.30181	257.798
0.306227	241.479
0.367283	269.656
0.369621	252.642
0.399961	257.352
0.451431	285.295
0.456375	266.848
0.501372	292.076
0.502407	273.758
0.554064	299.423
0.555647	282.73
0.608882	307.92
0.60558	291.724
0.653351	313.406
0.653603	299.328
0.709535	320.868
0.712037	309.222
0.758603	329.508
0.758069	315.507
0.804547	338.457
0.808038	326.979
0.839189	342.702
0.851313	333.234
0.861935	347.244
0.885349	340.397
0.903658	355.902
0.932577	356.748
0.961616	365.823
0.991612	372.609
1.01272	378.305
0.161057	213.413
0.104765	197.605
0.831866	329.82
0.889721	352.096
0.933503	363.593
0.961649	360.719
0.969468	372.934
0.905358	349.222
0.989795	377.964
1.01325	382.994
0.390914	274.491
0.002345	105.269
0.002345	85.509
0.003909	120.719
0.004691	135.808
