Adsorption isotherm of Ammonia on MOF-177
DOI: 10.1016/j.jcis.2010.04.078
Adsorbate Ammonia: InChIKey QGZKDVFQNNGYKY-UHFFFAOYSA-N
Temperature: 298 K
Tabular data in the source: 0
pressure (bar)	uptake (mmol/g)
0.0128503	4.51923
0.0436912	6.49038
0.0693919	7.06731
0.0822422	7.21154
0.0950926	7.40385
0.113083	7.54808
0.128503	7.78846
0.197895	8.36538
0.215886	8.50962
0.233876	8.60577
0.249297	8.65385
0.262147	8.75
0.336679	9.27885
0.35724	9.32692
0.36495	9.47115
0.38037	9.51923
0.400931	9.71154
0.465183	9.90385
0.490883	10.0962
0.501164	10.1923
0.519154	10.2404
0.526864	10.2404
0.601396	10.3846
0.609107	10.3846
0.632237	10.625
0.642517	10.625
0.655368	10.6731
0.665648	10.7692
0.72219	10.9615
0.72733	10.9615
0.73761	10.9615
0.74532	11.0577
0.758171	11.25
0.773591	11.25
0.796722	11.25
0.855833	11.25
0.863543	11.3462
0.873824	11.4423
0.886674	11.4904
0.907235	11.5865
0.925225	11.6346
0.938075	11.7308
0.999757	11.7308
1.01004	11.8269
1.02546	11.875
1.04602	11.9231
1.06144	11.9712
