Adsorption isotherm of Ammonia on IRMOF-1
DOI: 10.1016/j.jcis.2010.04.078
Adsorbate Ammonia: InChIKey QGZKDVFQNNGYKY-UHFFFAOYSA-N
Temperature: 298 K
Tabular data in the source: 0
pressure (bar)	uptake (mmol/g)
0.0282708	1.05769
0.074532	5
0.131074	7.21154
0.149064	7.40385
0.208176	8.26923
0.228736	8.26923
0.239016	8.50962
0.254437	8.55769
0.269857	8.79808
0.341819	9.27885
0.35981	9.42308
0.388081	9.66346
0.408641	9.85577
0.460042	10
0.475463	10.1442
0.501164	10.2885
0.521724	10.3846
0.534575	10.5769
0.611677	10.8654
0.624527	10.9615
0.650228	11.0577
0.668218	11.1538
0.701629	11.2019
0.73247	11.25
0.776161	11.4423
0.804432	11.5865
0.866114	11.7308
0.884104	11.7308
0.907235	11.8269
0.927795	11.875
0.989477	12.0192
1.01004	12.0673
1.03831	12.2115
1.07172	12.2115
