Adsorption isotherm of Methane on Zeolite 5A
DOI: 10.1021/je4005036
Article source: Table 3
Adsorbate Methane: InChIKey VNWKTOKETHGBQD-UHFFFAOYSA-N
Kind: experiment
Temperature: 323 K
Tabular data in the source: 0
pressure (bar)	uptake (mmol/g)
0.0485	0.02637
0.1349	0.04987
0.2393	0.08028
0.4001	0.1301
0.5865	0.18631
0.7921	0.24588
1.0541	0.31889
1.1901	0.35468
1.5878	0.45083
1.9643	0.53625
2.9792	0.74716
3.9615	0.92306
4.9816	1.08165
5.983	1.20442
6.9618	1.34307
7.9965	1.47338
8.9981	1.57416
10.029	1.66481
