Adsorption isotherm of Methane on Zeolite 5A
DOI: 10.1021/je4005036
Article source: Table 3
Adsorbate Methane: InChIKey VNWKTOKETHGBQD-UHFFFAOYSA-N
Kind: experiment
Temperature: 303 K
Tabular data in the source: 0
pressure (bar)	uptake (mmol/g)
0.0438	0.03291
0.1423	0.08598
0.2476	0.13707
0.3933	0.20758
0.5817	0.29804
0.8025	0.3901
0.9904	0.46611
1.2102	0.55292
1.569	0.67863
1.9881	0.82029
2.9466	1.06739
3.9648	1.31989
5.0044	1.5001
5.9371	1.62991
7.0317	1.76565
7.9781	1.87704
9.0795	1.96202
10.066	2.00226
