Adsorption isotherm of Nitrogen, Methane on Zeolite 5A
DOI: 10.1021/je4005036
Article source: Table 10
Adsorbate Nitrogen: InChIKey IJGRMHOSHXDMSA-UHFFFAOYSA-N
Adsorbate Methane: InChIKey VNWKTOKETHGBQD-UHFFFAOYSA-N
Kind: experiment
Temperature: 303 K
Tabular data in the source: 0
pressure (bar)	Nitrogen fraction	Nitrogen uptake (mmol/g)	Methane fraction	Methane uptake (mmol/g)	total uptake (mmol/g)
8.9451	0.728	0.8613	0.2724	0.5457	1.407
7.055	0.728	0.7788	0.272	0.4852	1.264
5.082	0.729	0.6417	0.2715	0.3955	1.0372
3.02	0.729	0.4833	0.2712	0.2793	0.7626
0.993	0.729	0.2136	0.2709	0.1146	0.3282
7.036	0.513	0.4715	0.4868	0.8723	1.3438
5.0475	0.515	0.4065	0.4855	0.7459	1.1524
3.0197	0.516	0.3076	0.4841	0.5452	0.8528
0.9802	0.518	0.1334	0.4818	0.2245	0.3579
9.1555	0.463	0.5134	0.5369	1.0925	1.6059
6.9991	0.286	0.2432	0.7144	1.1966	1.4398
5.0051	0.286	0.218	0.7141	0.9929	1.2109
3.0008	0.288	0.1767	0.7123	0.7974	0.9741
1.0104	0.289	0.0839	0.7113	0.3469	0.4308
7.0914	0.107	0.0902	0.8933	1.4488	1.539
5.0001	0.107	0.0804	0.893	1.23	1.3104
3.0145	0.108	0.0638	0.8923	0.9598	1.0236
0.9922	0.109	0.0292	0.8914	0.4238	0.453
