Adsorption isotherm of Nitrogen on Zeolite 5A
DOI: 10.1021/je4005036
Article source: Table 4
Adsorbate Nitrogen: InChIKey IJGRMHOSHXDMSA-UHFFFAOYSA-N
Kind: experiment
Temperature: 303 K
Tabular data in the source: 0
pressure (bar)	uptake (mmol/g)
0.0554	0.0249
0.1883	0.06112
0.3873	0.11528
0.5911	0.15696
0.7911	0.20249
0.9883	0.24648
1.1867	0.31346
1.3878	0.34613
1.5902	0.40156
1.9705	0.47674
2.4772	0.56941
2.9602	0.64634
3.841	0.78281
4.9362	0.94415
5.9618	1.0659
6.9192	1.16802
7.953	1.25977
8.9673	1.35311
9.9349	1.40258
