Adsorption isotherm of Nitrogen on Zeolite 5A
DOI: 10.1021/je4005036
Article source: Table 4
Adsorbate Nitrogen: InChIKey IJGRMHOSHXDMSA-UHFFFAOYSA-N
Kind: experiment
Temperature: 323 K
Tabular data in the source: 0
pressure (bar)	uptake (mmol/g)
0.0579	0.01528
0.1917	0.03939
0.3931	0.07802
0.5887	0.11853
0.7908	0.14889
0.9881	0.18291
1.1963	0.21649
1.3916	0.24621
1.6001	0.27419
1.9732	0.32458
2.4729	0.39702
2.9721	0.4582
3.9714	0.58667
4.9351	0.6938
5.972	0.79924
6.951	0.89402
7.9801	0.99041
8.9637	1.08616
9.975	1.16802
