Adsorption isotherm of Nitrogen, Methane on Zeolite 5A
DOI: 10.1021/je4005036
Article source: Table 13, Table 12, Table 15, Table 16, Table 18, Table 14, Table 17, Table 11
Adsorbate Nitrogen: InChIKey IJGRMHOSHXDMSA-UHFFFAOYSA-N
Adsorbate Methane: InChIKey VNWKTOKETHGBQD-UHFFFAOYSA-N
Kind: experiment
Temperature: 323 K
Tabular data in the source: 0
pressure (bar)	Nitrogen fraction	Nitrogen uptake (mmol/g)	Methane fraction	Methane uptake (mmol/g)	total uptake (mmol/g)
7.0593	0.276	0.2081	0.724	0.9432	1.1513
5.0654	0.277	0.1769	0.7234	0.7965	0.9734
2.9921	0.277	0.1296	0.7228	0.5679	0.6975
1.0443	0.278	0.0573	0.7219	0.2454	0.3027
7.0532	0.115	0.0868	0.8849	1.1704	1.2572
4.9807	0.115	0.0737	0.8846	0.9629	1.0366
3.0181	0.116	0.0524	0.8845	0.6679	0.7203
1.0391	0.116	0.0234	0.8841	0.2881	0.3115
