Adsorption isotherm of Carbon Dioxide on TiBDC
DOI: 10.1039/C4nj00138a
Adsorbate Carbon Dioxide: InChIKey CURLTUGMZLYLDI-UHFFFAOYSA-N
Temperature: 298 K
Tabular data in the source: 0
pressure (bar)	uptake (mg/g)
0.0343434	2.77883
0.159596	15.6526
0.183838	19.2999
0.218182	22.0787
0.274747	24.9172
0.305051	27.6852
0.341414	30.4695
0.377778	30.5672
0.4	33.3134
0.438384	36.1031
0.478788	38.8982
0.517172	40.7924
0.559596	44.4885
0.6	47.2836
0.620202	48.2334
0.658586	50.1275
0.717172	54.7626
0.761616	55.7775
0.80202	59.4681
0.820202	59.517
0.862626	63.213
0.894949	65.0909
0.919192	66.9471
0.959596	69.7422
0.991919	71.6201
