Adsorption isotherm of Carbon Dioxide on m-TiBDC
DOI: 10.1039/C4nj00138a
Adsorbate Carbon Dioxide: InChIKey CURLTUGMZLYLDI-UHFFFAOYSA-N
Temperature: 298 K
Tabular data in the source: 0
pressure (bar)	uptake (mg/g)
0.0436367	14.1569
0.0714403	20.5466
0.0853542	22.8268
0.0992317	27.851
0.123076	32.4132
0.142935	36.9773
0.160833	39.2557
0.192639	44.2717
0.232389	51.1132
0.262215	55.2155
0.313923	61.5942
0.361665	66.6029
0.4114	71.6106
0.465124	76.1592
0.514877	79.795
0.566621	83.4299
0.616374	87.0657
0.662142	90.7033
0.709909	93.8827
0.763651	97.0593
0.8174	99.7786
0.869157	102.499
0.916923	105.678
0.964696	108.4
