Adsorption isotherm of Carbon Dioxide on m-TiBDC
DOI: 10.1039/C4nj00138a
Adsorbate Carbon Dioxide: InChIKey CURLTUGMZLYLDI-UHFFFAOYSA-N
Temperature: 298 K
Tabular data in the source: 0
pressure (bar)	uptake (mg/g)
0.019884	2.73481
0.0517081	6.37879
0.0735902	8.65537
0.0875163	10.021
0.139243	15.0278
0.226795	22.3048
0.26063	24.5759
0.409918	33.1967
0.505469	38.1835
0.563202	40.901
0.608982	43.6239
0.662731	46.3433
0.712508	48.1498
0.758295	50.4154
0.808077	51.7646
0.85585	54.4867
0.909611	56.2913
0.95739	58.5561
