Adsorption isotherm of Carbon Dioxide on TiBDC
DOI: 10.1039/C4nj00138a
Adsorbate Carbon Dioxide: InChIKey CURLTUGMZLYLDI-UHFFFAOYSA-N
Temperature: 253 K
Tabular data in the source: 0
pressure (bar)	uptake (mg/g)
0.020202	6.32293
0.0505051	14.464
0.0686869	16.3039
0.0989899	21.7585
0.119192	22.7083
0.147475	27.2619
0.173737	30.9145
0.19798	32.7707
0.240404	38.2578
0.264646	40.114
0.315152	43.8318
0.363636	48.4396
0.416162	51.2673
0.468687	55.886
0.515152	58.6974
0.565657	61.5197
0.616162	64.3419
0.668687	68.9607
0.715152	71.772
0.765657	72.8033
0.820202	76.5319
0.868687	79.3487
0.919192	81.2754
0.971717	83.2076
