Adsorption isotherm of Carbon Dioxide on m-TiBDC
DOI: 10.1039/C4nj00138a
Adsorbate Carbon Dioxide: InChIKey CURLTUGMZLYLDI-UHFFFAOYSA-N
Temperature: 273 K
Tabular data in the source: 0
pressure (bar)	uptake (mg/g)
0.0216999	15.9962
0.0394522	29.2503
0.0612189	40.2159
0.0909599	50.7206
0.126665	62.1372
0.158434	69.8971
0.19021	77.1996
0.243886	85.4068
0.53623	121.858
0.583985	125.952
0.635723	130.045
0.687462	134.137
0.735234	136.859
0.784962	142.324
0.834727	145.045
0.886472	148.68
0.93623	151.858
0.987987	154.579
