Adsorption isotherm of Carbon Dioxide on m-TiBDC
DOI: 10.1039/C4nj00138a
Adsorbate Carbon Dioxide: InChIKey CURLTUGMZLYLDI-UHFFFAOYSA-N
Temperature: 253 K
Tabular data in the source: 0
pressure (bar)	uptake (mg/g)
0.0257994	7.30527
0.0396708	12.7867
0.0535544	17.3536
0.0833136	26.4863
0.113115	32.4178
0.146883	39.7194
0.176715	43.3643
0.196581	47.4711
0.214467	50.6641
0.236361	52.0261
0.270165	56.5838
0.298029	58.4003
0.317913	61.1351
0.337822	62.0406
0.361696	64.3163
0.37363	65.6828
0.395524	67.0447
0.421396	68.8622
0.439306	70.2259
0.461201	71.5879
0.475133	72.4961
0.514949	74.3072
0.558732	77.4884
0.580638	77.9357
0.598555	78.8421
0.616471	79.7486
0.656287	81.5596
0.68018	82.4633
0.718004	84.2753
0.753843	85.6309
0.795658	86.9837
0.815572	87.4319
0.853409	88.3292
0.895217	90.1394
0.91713	90.1294
0.954948	92.3987
0.976861	92.3886
0.994771	93.7524
