Adsorption isotherm of Carbon Dioxide on m-TiBDC
DOI: 10.1039/C4nj00138a
Adsorbate Carbon Dioxide: InChIKey CURLTUGMZLYLDI-UHFFFAOYSA-N
Temperature: 253 K
Tabular data in the source: 0
pressure (bar)	uptake (mg/g)
0.0176915	17.8273
0.0374298	31.5378
0.0531961	44.3354
0.0888707	58.0386
0.118606	69.0006
0.156315	79.5017
0.190113	84.5167
0.57202	126.873
0.611831	129.141
0.669551	132.773
0.729276	135.49
0.773071	137.756
0.810896	139.568
0.872612	142.284
0.912435	143.638
0.972172	145.44
