Adsorption isotherm of Carbon Dioxide on TiBDC_2h
DOI: 10.1039/C4nj00138a
Adsorbate Carbon Dioxide: InChIKey CURLTUGMZLYLDI-UHFFFAOYSA-N
Temperature: 298 K
Tabular data in the source: 0
pressure (bar)	uptake (mg/g)
0.0323232	8.14654
0.0565657	17.1669
0.0969697	25.3351
0.125253	28.9932
0.163636	34.4695
0.2	41.7313
0.242424	46.3229
0.282828	50.9091
0.323232	57.2863
0.363636	62.768
0.40202	67.3487
0.442424	72.8304
0.482828	77.4166
0.519192	83.7829
0.561616	88.3745
0.587879	92.0271
0.620202	97.4871
0.656566	102.062
0.686869	107.517
0.719192	112.081
0.757576	117.558
0.793939	122.133
0.824242	126.692
0.852525	132.141
0.894949	136.733
0.925253	141.292
0.957576	144.961
0.991919	150.426
