Adsorption isotherm of Carbon Dioxide on TiBDC_2h
DOI: 10.1039/C4nj00138a
Adsorbate Carbon Dioxide: InChIKey CURLTUGMZLYLDI-UHFFFAOYSA-N
Temperature: 273 K
Tabular data in the source: 0
pressure (bar)	uptake (mg/g)
0.0505051	6.40434
0.0646465	7.33786
0.0828283	10.0733
0.0949495	10.1058
0.123232	11.9729
0.139394	12.9118
0.155556	14.7463
0.173737	16.5862
0.19596	16.6459
0.234343	17.6445
0.260606	19.5061
0.309091	22.3229
0.361616	23.3596
0.412121	27.0773
0.458586	28.9932
0.507071	30.9145
0.561616	31.9566
0.614141	33.8887
0.664646	35.8155
0.713131	38.6323
0.761616	40.5536
0.810101	41.5794
0.864646	43.517
0.911111	45.4328
0.961616	47.3596
0.99596	49.2429
