Adsorption isotherm of Carbon Dioxide on m-TiBDC
DOI: 10.1039/C4nj00138a
Adsorbate Carbon Dioxide: InChIKey CURLTUGMZLYLDI-UHFFFAOYSA-N
Temperature: 273 K
Tabular data in the source: 0
pressure (bar)	uptake (mg/g)
0.02784	3.6458
0.0576842	6.37606
0.0994686	10.0155
0.119365	11.8357
0.157153	16.3915
0.181039	17.7526
0.198943	19.5737
0.218845	20.9365
0.24074	22.2984
0.276566	24.5686
0.298454	26.3879
0.320349	27.7498
0.336267	29.1145
0.356175	30.02
0.384045	31.3792
0.397978	32.2875
0.423862	33.1903
0.439786	34.0977
0.461687	35.0023
0.511457	37.2661
0.55725	39.0744
0.583153	38.6053
0.599065	40.4273
0.65282	42.6893
0.6827	42.6756
0.718551	43.1165
0.760366	44.4693
0.802186	45.3649
0.820109	45.814
0.857951	46.254
0.897774	47.6077
0.915703	47.5995
0.953545	48.0395
0.985412	48.4823
