Adsorption isotherm of Carbon Dioxide on TiBDC_2h
DOI: 10.1039/C4nj00138a
Adsorbate Carbon Dioxide: InChIKey CURLTUGMZLYLDI-UHFFFAOYSA-N
Temperature: 253 K
Tabular data in the source: 0
pressure (bar)	uptake (mg/g)
0.0262626	14.3989
0.0585859	27.0231
0.0949495	36.076
0.135354	46.0353
0.161616	49.6879
0.20404	57.8616
0.250505	63.3596
0.286869	68.8304
0.333333	73.4328
0.385859	78.0516
0.434343	82.6594
0.482828	87.2673
0.535354	90.9905
0.583838	95.5984
0.636364	99.3216
0.686869	102.144
0.737374	105.862
0.787879	107.788
0.838384	110.611
0.888889	113.433
0.937374	116.25
0.989899	118.182
