Adsorption isotherm of Carbon Dioxide on TiBDC
DOI: 10.1039/C4nj00138a
Adsorbate Carbon Dioxide: InChIKey CURLTUGMZLYLDI-UHFFFAOYSA-N
Temperature: 273 K
Tabular data in the source: 0
pressure (bar)	uptake (mg/g)
0.0565657	29.7042
0.0888889	45.0149
0.119192	56.7381
0.153535	70.2632
0.183838	81.9864
0.214141	92.8141
0.240404	100.944
0.276768	113.579
0.305051	122.611
0.341414	134.35
0.369697	142.486
0.39798	151.517
0.428283	159.658
0.456566	168.689
0.507071	184.944
0.551515	194.915
0.587879	203.967
0.618182	214.795
0.660606	224.76
0.686869	232.89
0.721212	241.042
0.757576	251.886
0.8	260.06
0.826263	267.294
0.858586	276.336
0.90303	285.411
0.953535	296.293
0.989899	301.764
