Adsorption isotherm of Hydrogen on NOTT-300
DOI: 10.1016/j.chemphys.2013.11.004
Adsorbate Hydrogen: InChIKey UFHFLCQGNIYNRP-UHFFFAOYSA-N
Temperature: 77 K
Tabular data in the source: 0
pressure (bar)	uptake (cm3(STP)/g)
9.41265e-05	0.216491
0.0164251	12.7777
0.0250377	15.9199
0.0405685	18.3076
0.0589232	18.8567
0.0772779	19.4057
0.102927	20.0662
0.124718	20.1839
0.143025	20.6247
0.15385	20.5211
0.182982	20.8584
0.204819	21.0843
0.219456	21.4153
0.24487	21.5346
0.262989	21.5424
0.284827	21.7683
0.302993	21.8844
0.335749	22.2233
0.368364	22.2374
0.390201	22.4633
0.466444	22.821
0.510072	23.1645
0.615211	23.3183
0.716773	23.5787
0.822101	24.1654
0.912745	24.3129
1.01073	24.68
