Adsorption isotherm of Hydrogen on NOTT-300
DOI: 10.1016/j.chemphys.2013.11.004
Adsorbate Hydrogen: InChIKey UFHFLCQGNIYNRP-UHFFFAOYSA-N
Temperature: 77 K
Tabular data in the source: 0
pressure (bar)	uptake (cm3(STP)/g)
-0.0140687	12.5183
-0.00886699	0.0739099
0.01352	15.6299
0.014332	18.3706
0.0411964	19.0378
0.0857947	19.5571
0.0859264	20.0016
0.130415	20.1506
0.174947	20.4477
0.201746	20.8926
0.228588	21.4857
0.290877	21.7091
0.32652	22.006
0.379898	22.1552
0.442252	22.6008
0.513429	22.8243
0.593496	23.048
0.700251	23.3463
0.824828	23.7931
0.904894	24.0168
0.984982	24.3145
1.1184	24.6133
1.18954	24.6887
1.49191	25.2128
2.00769	25.9631
2.49665	26.1944
3.01223	26.278
3.50106	26.0648
4.02544	25.8523
