Adsorption isotherm of Methane on {[Cd2(TPPBDA)(OBA)2] 4DMA 8H2O}n
DOI: 10.1021/Cg500269h
Adsorbate Methane: InChIKey VNWKTOKETHGBQD-UHFFFAOYSA-N
Temperature: 273 K
Tabular data in the source: 0
pressure (bar)	uptake (cm3(STP)/g)
0.13508	2.22736
0.203697	3.13395
0.272175	3.83387
0.340584	4.43045
0.403997	4.82204
0.474973	5.62446
0.538457	6.11938
0.606658	6.40596
0.67257	6.90004
0.740703	7.08329
0.804186	7.57821
0.874817	7.86395
0.918735	8.15889
0.989296	8.3413
1.05243	8.31954
