Adsorption isotherm of Carbon Dioxide on {[Cd2(TPPBDA)(OBA)2] 4DMA 8H2O}n
DOI: 10.1021/Cg500269h
Adsorbate Carbon Dioxide: InChIKey CURLTUGMZLYLDI-UHFFFAOYSA-N
Temperature: 273 K
Tabular data in the source: 0
pressure (bar)	uptake (cm3(STP)/g)
0.143554	9.93833
0.21128	12.6927
0.278854	15.241
0.346129	17.3771
0.410896	19.4111
0.48281	21.2359
0.552141	22.8556
0.616456	24.2713
0.690578	25.7858
0.754742	26.9954
0.821339	28.2039
0.887936	29.4124
0.934542	29.9078
1.00099	30.9102
1.07223	31.8074
1.163	32.7994
