Adsorption isotherm of Hydrogen on {[Cd2(TPPBDA)(OBA)2] 4DMA 8H2O}n
DOI: 10.1021/Cg500269h
Adsorbate Hydrogen: InChIKey UFHFLCQGNIYNRP-UHFFFAOYSA-N
Temperature: 77 K
Tabular data in the source: 0
pressure (bar)	uptake (cm3(STP)/g)
0.017551	0.820826
0.0191384	3.19754
0.0326609	5.26006
0.0802498	7.41421
0.144561	9.14916
0.206375	10.7816
0.277834	12.3074
0.344229	13.5248
0.415343	14.5339
0.481254	15.028
0.544875	15.7296
0.613147	16.1195
0.681625	16.8194
0.745177	17.4177
0.816014	18.0134
0.87936	18.3017
0.947769	18.8982
1.01361	19.289
1.08674	19.6772
1.17194	19.958
