Adsorption isotherm of Carbon Dioxide on {[Cd2(TPPBDA)(OBA)2] 4DMA 8H2O}n
DOI: 10.1021/Cg500269h
Adsorbate Carbon Dioxide: InChIKey CURLTUGMZLYLDI-UHFFFAOYSA-N
Temperature: 298 K
Tabular data in the source: 0
pressure (bar)	uptake (mmol/g)
0.0162739	0.0475451
0.0352206	0.0951286
0.0703334	0.16875
0.137865	0.311654
0.194532	0.419993
0.26728	0.537165
0.337204	0.624189
0.396415	0.706759
0.463644	0.789443
0.528244	0.880692
0.598125	0.959113
0.667962	1.02893
0.727109	1.0986
0.791601	1.16834
0.864111	1.2382
0.931211	1.29507
0.993052	1.36908
1.06556	1.43893
1.13001	1.50007
