Adsorption isotherm of Carbon Dioxide on {[Cd2(TPPBDA)(OBA)2] 4DMA 8H2O}n
DOI: 10.1021/Cg500269h
Adsorbate Carbon Dioxide: InChIKey CURLTUGMZLYLDI-UHFFFAOYSA-N
Temperature: 273 K
Tabular data in the source: 0
pressure (bar)	uptake (cm3(STP)/g)
0.0353374	1.7299
0.0681668	3.35827
0.14105	6.50845
0.208691	9.14719
0.278465	11.3735
0.412771	15.3148
0.549512	19.2547
0.61397	20.8668
0.683218	22.3736
0.757483	24.0835
0.821791	25.49
0.886174	26.9994
0.955348	28.4034
1.01951	29.6043
1.09354	31.0058
1.16287	32.6154
