Adsorption isotherm of Hydrogen on {[Cd2(TPPBDA)(OBA)2] 4DMA 8H2O}n
DOI: 10.1021/Cg500269h
Adsorbate Hydrogen: InChIKey UFHFLCQGNIYNRP-UHFFFAOYSA-N
Temperature: 77 K
Tabular data in the source: 0
pressure (bar)	uptake (cm3(STP)/g)
0.145239	13.8001
0.211427	14.7075
0.279974	15.5108
0.35088	16.2099
0.414433	16.8081
0.482911	17.508
0.546326	17.8996
0.612099	18.187
0.680439	18.6803
0.729352	19.1802
0.797554	19.4668
0.860692	19.445
0.928894	19.7316
0.997097	20.0182
1.07009	20.1998
