Adsorption isotherm of Methane on {[Cd2(TPPBDA)(OBA)2] 4DMA 8H2O}n
DOI: 10.1021/Cg500269h
Adsorbate Methane: InChIKey VNWKTOKETHGBQD-UHFFFAOYSA-N
Temperature: 273 K
Tabular data in the source: 0
pressure (bar)	uptake (cm3(STP)/g)
0.0219733	0.0936533
0.041363	-0.017769
0.0611288	0.386111
0.132291	1.18028
0.208244	1.8693
0.271882	2.35743
0.335519	2.84556
0.40174	3.53876
0.470168	3.92173
0.536313	4.51187
0.607325	5.09992
0.670962	5.58805
0.737033	6.07513
0.803027	6.45915
0.871531	6.94519
0.937527	7.32921
1.00846	7.8142
1.07689	8.19717
1.14768	8.47604
