Adsorption isotherm of Methane on {[Cd2(TPPBDA)(OBA)2] 4DMA 8H2O}n
DOI: 10.1021/Cg500269h
Adsorbate Methane: InChIKey VNWKTOKETHGBQD-UHFFFAOYSA-N
Temperature: 298 K
Tabular data in the source: 0
pressure (bar)	uptake (mmol/g)
0.0160799	0.00883269
0.0321813	0.0219668
0.0643411	0.0396321
0.128639	0.0706615
0.195567	0.0931264
0.259886	0.128457
0.334854	0.155338
0.401825	0.186406
0.468774	0.213172
0.530335	0.231259
0.597284	0.258026
0.658888	0.284715
0.725837	0.311482
0.795438	0.333985
0.84898	0.351957
0.926599	0.374575
0.993526	0.39704
1.05774	0.410864
1.11928	0.424649
