Adsorption isotherm of Acetone, Water on Activated Carbon Monolith
DOI: 10.1007/s10450-022-00362-y
Article source: Figure 2
Adsorbate Acetone: InChIKey CSCPPACGZOOCGX-UHFFFAOYSA-N
Adsorbate Water: InChIKey XLYOFNOQVPJJNP-UHFFFAOYSA-N
Kind: experiment
Temperature: 293 K
Tabular data in the source: 0
pressure (bar)	Acetone fraction	Acetone uptake (g/g)	Water fraction	Water uptake (g/g)	total uptake (g/g)
1.01325	0.000289	0.008313			
1.01325	0.000589	0.011805			
1.01325	0.002191	0.022633			
1.01325	0.003167	0.028805			
1.01325	0.005094	0.03428			
1.01325	0.006544	0.037892			
1.01325	0.008095	0.04232			
1.01325	0.010046	0.047563			
1.01325	0.011597	0.048498			
1.01325	0.013272	0.050831			
1.01325	0.014973	0.053164			
1.01325	0.023976	0.063083			
1.01325	0.03303	0.078938			
