Adsorption isotherm of Ethanol, Water on Activated Carbon Monolith
DOI: 10.1007/s10450-022-00362-y
Article source: Figure 2
Adsorbate Ethanol: InChIKey LFQSCWFLJHTTHZ-UHFFFAOYSA-N
Adsorbate Water: InChIKey XLYOFNOQVPJJNP-UHFFFAOYSA-N
Kind: experiment
Temperature: 293 K
Tabular data in the source: 0
pressure (bar)	Ethanol fraction	Ethanol uptake (g/g)	Water fraction	Water uptake (g/g)	total uptake (g/g)
1.01325	0.000688	0.001215			
1.01325	0.001389	0.005639			
1.01325	0.00284	0.010648			
1.01325	0.004915	0.014611			
1.01325	0.006441	0.016827			
1.01325	0.007967	0.019974			
1.01325	0.010268	0.02324			
1.01325	0.011569	0.028714			
1.01325	0.014019	0.029885			
1.01325	0.01512	0.031168			
1.01325	0.017546	0.035482			
1.01325	0.026398	0.044237			
1.01325	0.035751	0.056252			
