Adsorption isotherm of 1-Butanol, Water on Activated Carbon Monolith
DOI: 10.1007/s10450-022-00362-y
Article source: Figure 2
Adsorbate 1-Butanol: InChIKey LRHPLDYGYMQRHN-UHFFFAOYSA-N
Adsorbate Water: InChIKey XLYOFNOQVPJJNP-UHFFFAOYSA-N
Kind: experiment
Temperature: 293 K
Tabular data in the source: 0
pressure (bar)	1-Butanol fraction	1-Butanol uptake (g/g)	Water fraction	Water uptake (g/g)	total uptake (g/g)
1.01325	0.001418	0.034851			
1.01325	0.003848	0.062441			
1.01325	0.007652	0.082004			
1.01325	0.010754	0.093186			
1.01325	0.015531	0.104257			
1.01325	0.020133	0.107878			
1.01325	0.024258	0.109753			
1.01325	0.029684	0.108373			
1.01325	0.03611	0.111185			
