Adsorption isotherm of Carbon Dioxide on Activated Carbon Monolith
DOI: 10.1007/s10450-022-00362-y
Article source: Figure S10C
Adsorbate Carbon Dioxide: InChIKey CURLTUGMZLYLDI-UHFFFAOYSA-N
Kind: experiment
Temperature: 273 K
Tabular data in the source: 0
pressure (bar)	uptake (cm3(STP)/g)
0.007033	1.83574
0.011229	2.76684
0.022242	3.91702
0.030109	4.73857
0.034829	5.53274
0.039549	6.10783
0.042171	6.68292
0.047416	7.25801
0.055807	7.80572
0.062625	8.32603
0.067345	9.17497
0.078883	9.75006
0.086225	10.4347
0.095665	11.0919
0.109301	11.7492
0.121888	12.4886
0.137621	13.0911
0.150733	13.7757
0.172759	14.5425
0.194786	15.3366
0.217862	16.2951
0.245134	17.3084
0.274503	18.4586
0.309117	19.2801
0.345304	20.5124
0.386735	21.6352
0.438656	22.9497
0.489527	24.2916
0.547741	25.5787
0.617493	27.2218
0.694325	28.9745
0.775353	30.7545
0.870803	32.5619
0.979888	34.8349
