Adsorption isotherm of 1-Butanol on Activated Carbon Monolith
DOI: 10.1007/s10450-022-00362-y
Article source: Figure S8B
Adsorbate 1-Butanol: InChIKey LRHPLDYGYMQRHN-UHFFFAOYSA-N
Kind: experiment
Temperature: 313 K
Tabular data in the source: 0
pressure (bar)	uptake (g/g)
0.000133	0.056247
0.000283	0.0632
0.000366	0.069937
0.000432	0.074718
0.000682	0.081667
0.000899	0.088835
0.001066	0.094483
0.001449	0.102515
0.002	0.112283
0.00407	0.135703
0.005939	0.148911
0.007976	0.158637
0.010013	0.167492
0.012051	0.174392
0.013904	0.18347
0.015958	0.193195
