Adsorption isotherm of Methane on CuBTC
DOI: 10.1016/j.seppur.2015.03.041
Article source: Figure 1a
Adsorbate Methane: InChIKey VNWKTOKETHGBQD-UHFFFAOYSA-N
Kind: experiment
Temperature: 308 K
Tabular data in the source: 0
pressure (bar)	uptake (mmol/g)
0.608	0.43
1.03	0.686
2.01	1.2
3.5	1.83
5.01	2.4
7.97	3.34
10	3.87
15	4.93
20	5.63
25	6.22
29.9	6.61
34.9	6.91
40	7.14
