Adsorption isotherm of Nitrogen on CuBTC
DOI: 10.1016/j.seppur.2015.03.041
Article source: Figure 1a
Adsorbate Nitrogen: InChIKey IJGRMHOSHXDMSA-UHFFFAOYSA-N
Kind: experiment
Temperature: 308 K
Tabular data in the source: 0
pressure (bar)	uptake (mmol/g)
0.608	0.143
1.01	0.225
2.02	0.43
3.52	0.707
5.02	0.983
8.02	1.43
10	1.68
15	2.26
20	2.72
25	3.12
30	3.46
34.9	3.73
39.9	3.97
