Adsorption isotherm of Carbon Dioxide, Methane on CuBTC
DOI: 10.1016/j.seppur.2015.03.041
Article source: Table S7
Adsorbate Carbon Dioxide: InChIKey CURLTUGMZLYLDI-UHFFFAOYSA-N
Adsorbate Methane: InChIKey VNWKTOKETHGBQD-UHFFFAOYSA-N
Kind: experiment
Temperature: 308 K
Tabular data in the source: 0
pressure (bar)	Carbon Dioxide fraction	Carbon Dioxide uptake (mmol/g)	Methane fraction	Methane uptake (mmol/g)	total uptake (mmol/g)
0.23017	0.076	0.159	0.924	0	
0.39494	0.138	0.295	0.862	0.098	
0.71898	0.108	0.432	0.892	0.273	
0.96125	0.122	0.524	0.878	0.417	
1.20229	0.122	0.649	0.878	0.515	
1.44307	0.125	0.748	0.875	0.628	
1.72775	0.123	0.846	0.877	0.755	
1.99963	0.143	1.032	0.857	0.881	
2.48912	0.142	1.283	0.858	1.04	
2.99508	0.146	1.423	0.854	1.249	
