Adsorption isotherm of Carbon Dioxide, Methane on CuBTC
DOI: 10.1016/j.seppur.2015.03.041
Article source: Table S6
Adsorbate Carbon Dioxide: InChIKey CURLTUGMZLYLDI-UHFFFAOYSA-N
Adsorbate Methane: InChIKey VNWKTOKETHGBQD-UHFFFAOYSA-N
Kind: experiment
Temperature: 308 K
Tabular data in the source: 0
pressure (bar)	Carbon Dioxide fraction	Carbon Dioxide uptake (mmol/g)	Methane fraction	Methane uptake (mmol/g)	total uptake (mmol/g)
0.22731	0.152	0.234	0.848	0	
0.45772	0.206	0.447	0.794	0.142	
0.66619	0.203	0.616	0.797	0.255	
0.96305	0.23	0.998	0.77	0.352	
1.22881	0.249	1.12	0.751	0.483	
1.46958	0.242	1.368	0.758	0.547	
1.72558	0.252	1.47	0.748	0.667	
1.96757	0.25	1.595	0.75	0.766	
2.49177	0.239	1.937	0.761	0.938	
2.99524	0.241	2.245	0.759	1.108	
