Adsorption isotherm of Carbon Dioxide, Nitrogen on CuBTC
DOI: 10.1016/j.seppur.2015.03.041
Article source: Table S4
Adsorbate Carbon Dioxide: InChIKey CURLTUGMZLYLDI-UHFFFAOYSA-N
Adsorbate Nitrogen: InChIKey IJGRMHOSHXDMSA-UHFFFAOYSA-N
Kind: experiment
Temperature: 308 K
Tabular data in the source: 0
pressure (bar)	Carbon Dioxide fraction	Carbon Dioxide uptake (mmol/g)	Nitrogen fraction	Nitrogen uptake (mmol/g)	total uptake (mmol/g)
0.24066	0.054	0.206	0.946	0	
0.46545	0.165	0.436	0.835	0.043	
0.62871	0.366	0.655	0.634	0.071	
0.97168	0.202	0.78	0.798	0.124	
1.22937	0.225	1.033	0.775	0.132	
1.475	0.203	1.176	0.797	0.174	
1.75537	0.233	1.404	0.767	0.244	
2.00648	0.235	1.655	0.765	0.234	
2.4825	0.232	2.083	0.768	0.292	
2.9896	0.236	2.432	0.764	0.342	
