Adsorption isotherm of Carbon Dioxide on CuBTC
DOI: 10.1016/j.seppur.2015.03.041
Article source: Figure 1a
Adsorbate Carbon Dioxide: InChIKey CURLTUGMZLYLDI-UHFFFAOYSA-N
Kind: experiment
Temperature: 308 K
Tabular data in the source: 0
pressure (bar)	uptake (mmol/g)
0.555	1.75
0.961	2.83
1.94	4.8
4.85	8
7.96	9.35
10	9.83
14.9	10.5
19.9	10.9
24.9	11.1
29.9	11.2
34.9	11.3
39.9	11.3
