Adsorption isotherm of Carbon Dioxide, Nitrogen on CuBTC
DOI: 10.1016/j.seppur.2015.03.041
Article source: Table S5
Adsorbate Carbon Dioxide: InChIKey CURLTUGMZLYLDI-UHFFFAOYSA-N
Adsorbate Nitrogen: InChIKey IJGRMHOSHXDMSA-UHFFFAOYSA-N
Kind: experiment
Temperature: 308 K
Tabular data in the source: 0
pressure (bar)	Carbon Dioxide fraction	Carbon Dioxide uptake (mmol/g)	Nitrogen fraction	Nitrogen uptake (mmol/g)	total uptake (mmol/g)
0.2408	0	0.137	1	0	
0.41451	0.101	0.282	0.899	0.026	
0.72841	0.084	0.47	0.916	0.056	
0.9643	0.101	0.617	0.899	0.064	
1.23432	0.108	0.743	0.892	0.111	
1.483	0.115	0.853	0.885	0.154	
1.73474	0.12	0.946	0.88	0.177	
2.00842	0.142	1.093	0.858	0.218	
2.48934	0.138	1.366	0.862	0.282	
2.99099	0.144	1.524	0.856	0.343	
