Adsorption isotherm of Water on COF-F8
DOI: 10.1021/jacs.0c06474
Article source: Figure 2b
Adsorbate Water: InChIKey XLYOFNOQVPJJNP-UHFFFAOYSA-N
Kind: experiment
Temperature: 298 K
Tabular data in the source: 0
pressure (bar)	uptake (ml/g)
0.000824	2.338
0.001366	4.64988
0.001966	9.23881
0.002327	13.8103
0.002868	13.8495
0.003472	4.80226
0.004194	4.85451
0.004977	4.91111
0.005698	11.7814
0.006119	11.8119
0.006901	14.1412
0.007622	18.7388
0.008223	23.3278
0.009606	27.9733
0.010569	28.043
0.011713	25.853
0.012616	25.9183
0.0146	37.4254
0.017188	37.6127
0.020258	33.2893
0.023806	47.1824
0.009726	30.2547
0.007318	32.3532
0.004976	9.4565
0.00299	7.04013
0.011472	28.1083
0.015023	28.3651
0.017308	37.6214
0.023205	44.8661
0.023747	44.9053
0.02465	42.6979
0.027898	52.0238
0.030907	52.2415
