Adsorption isotherm of Nitrogen on COF-F6
DOI: 10.1021/jacs.0c06474
Article source: Figure 2a
Adsorbate Nitrogen: InChIKey IJGRMHOSHXDMSA-UHFFFAOYSA-N
Kind: experiment
Temperature: 77 K
Tabular data in the source: 0
pressure (bar)	uptake (cm3(STP)/g)
0.003649	19.656
0.007464	30.0983
0.007297	40.5405
0.013152	47.9115
0.017006	55.8968
0.030843	62.0393
0.04669	66.9533
0.076511	69.4103
0.108323	71.8673
0.146155	71.2531
0.199864	73.7101
0.255583	74.9386
0.30534	75.5528
0.378936	79.2383
0.436665	79.2383
0.488384	81.6953
0.540092	84.7666
0.585868	85.3808
0.639606	85.9951
0.689353	87.2236
0.733119	89.0663
0.786808	92.7518
0.836526	95.8231
0.886234	99.5086
0.925939	106.265
0.963557	119.165
0.983248	132.678
0.987004	146.806
0.996703	162.776
1.00241	179.361
1.00219	193.489
1.0058	216.83
0.012849	66.9533
0.086327	78.0098
0.128083	81.0811
0.17982	82.3096
0.227557	84.7666
0.277304	85.9951
0.329032	87.8378
0.378799	87.8378
0.434499	90.2948
0.482265	90.9091
0.533983	93.3661
0.585721	94.5946
0.637469	95.2088
0.685215	97.0516
0.736943	98.8943
0.792653	100.737
0.858266	105.651
0.903954	111.794
0.935687	119.165
0.967254	136.978
0.975031	148.649
0.978748	165.233
0.986427	183.047
0.998029	204.545
