Adsorption isotherm of Nitrogen on COF-F8
DOI: 10.1021/jacs.0c06474
Article source: Figure 2a
Adsorbate Nitrogen: InChIKey IJGRMHOSHXDMSA-UHFFFAOYSA-N
Kind: experiment
Temperature: 77 K
Tabular data in the source: 0
pressure (bar)	uptake (cm3(STP)/g)
9.8e-05	4.914
0.013808	6.75676
0.043658	7.37101
0.075508	7.37101
0.10733	9.21376
0.145152	9.21376
0.192928	9.21376
0.242705	8.59951
0.290461	9.82801
0.374079	9.21376
0.429828	8.59951
0.479594	8.59951
0.52538	8.59951
0.567174	9.21376
0.628904	7.98526
0.670689	9.21376
0.722427	10.4423
0.782147	10.4423
0.829913	11.0565
0.869716	11.6708
0.927397	14.742
0.973084	20.8845
1.00678	30.0983
1.00446	50.9828
0.087384	11.6708
0.145094	12.8993
0.188869	14.1278
0.230673	14.1278
0.276468	13.5135
0.332187	14.742
0.366038	14.1278
0.415815	13.5135
0.457609	14.1278
0.52134	12.285
0.575058	14.1278
0.620854	13.5135
0.674631	11.6708
0.732321	14.1278
0.778116	13.5135
0.805986	13.5135
0.855733	14.742
0.90549	15.3563
0.967112	20.8845
0.996806	31.3268
