Adsorption isotherm of Nitrogen on COF-F10
DOI: 10.1021/jacs.0c06474
Article source: Figure 2a
Adsorbate Nitrogen: InChIKey IJGRMHOSHXDMSA-UHFFFAOYSA-N
Kind: experiment
Temperature: 77 K
Tabular data in the source: 0
pressure (bar)	uptake (cm3(STP)/g)
0.005825	7.98526
0.031675	9.82801
0.049581	10.4423
0.099348	10.4423
0.147084	12.8993
0.206785	14.1278
0.258513	15.9705
0.31027	15.9705
0.387887	17.199
0.439654	16.5848
0.48743	16.5848
0.531215	17.199
0.588944	17.199
0.638701	17.8133
0.690439	19.0418
0.744138	22.113
0.797896	21.4988
0.841671	22.7273
0.887398	26.4128
0.941067	31.3268
0.972811	38.0835
0.994551	47.9115
1.00428	62.0393
1.01005	74.9386
1.01382	87.8378
1.00765	100.737
0.013661	15.9705
0.075323	19.0418
0.12709	18.4275
0.176856	18.4275
0.224593	20.8845
0.268398	20.2703
0.326117	20.8845
0.371903	20.8845
0.42366	20.8845
0.479379	22.113
0.525174	21.4988
0.580894	22.7273
0.62867	22.7273
0.692361	23.3415
0.738127	24.57
0.789855	26.4128
0.843574	28.2555
0.913208	30.7125
0.966809	39.9263
0.976616	49.14
0.988423	57.7396
0.994111	75.5528
0.997907	87.2236
