Adsorption isotherm of Nitrogen on "COF-F6-H after being soaked in H3PO4 (washed and dried before conducting the measurement)"
DOI: 10.1021/jacs.0c06474
Article source: Figure S14
Adsorbate Nitrogen: InChIKey IJGRMHOSHXDMSA-UHFFFAOYSA-N
Kind: experiment
Temperature: 77 K
Tabular data in the source: 0
pressure (bar)	uptake (cm3(STP)/g)
0.005234	3.81742
0.0109	27.405
0.020827	43.919
0.039448	50.0598
0.05569	54.3126
0.085643	57.6284
0.113261	59.9998
0.154612	61.9058
0.179894	63.3327
0.205154	64.2878
0.23952	63.8321
0.285456	65.7403
0.315258	65.7542
0.365822	68.6079
0.423177	69.578
0.476077	73.3762
0.531161	74.817
0.581595	74.8405
0.62526	77.2193
0.66899	81.0132
0.730909	81.5137
0.765404	83.8883
0.834329	87.2223
0.864304	91.0098
0.917247	95.7514
0.966189	113.227
0.996922	133.524
1.0123	168.909
0.207404	63.3455
0.239585	65.2473
0.264824	65.7307
0.29242	67.6304
0.331392	67.6485
0.365908	70.4948
0.400404	72.8693
0.457975	78.5565
0.510831	81.4113
0.575215	85.6865
0.625671	86.1817
0.671607	88.0899
0.708416	90.9372
0.754374	93.3171
0.814065	95.2317
0.880741	99.508
0.931456	105.664
0.969044	125.493
1.00492	158.056
