Adsorption isotherm of Water on COF-F10
DOI: 10.1021/jacs.0c06474
Article source: Figure 2b
Adsorbate Water: InChIKey XLYOFNOQVPJJNP-UHFFFAOYSA-N
Kind: experiment
Temperature: 298 K
Tabular data in the source: 0
pressure (bar)	uptake (ml/g)
0.000885	2.34236
0.001546	6.93564
0.002389	4.7239
0.003171	7.05319
0.004012	11.6595
0.005216	11.7466
0.005938	11.7989
0.007022	11.8772
0.007623	14.1935
0.008525	16.5315
0.010031	12.0949
0.011895	19.048
0.013761	16.9102
0.016408	23.9199
0.019898	28.7178
0.024592	29.0574
0.029589	24.8734
0.001246	2.36848
0.010151	14.3763
0.016468	23.9242
0.02387	31.2778
0.020018	30.9992
0.029227	29.3926
0.031271	40.9041
