Adsorption isotherm of Water on COF-42
DOI: 10.1021/jacs.0c06474
Article source: Figure 2b
Adsorbate Water: InChIKey XLYOFNOQVPJJNP-UHFFFAOYSA-N
Kind: experiment
Temperature: 298 K
Tabular data in the source: 0
pressure (bar)	uptake (ml/g)
0.002204	25.1651
0.000822	13.7015
0.004366	48.0488
0.00635	61.8286
0.007971	80.1277
0.009231	98.4007
0.010431	116.669
0.011149	139.449
0.011566	162.206
0.012223	187.253
0.01264	205.465
0.012877	223.664
0.013054	244.132
0.013292	255.513
0.013528	278.257
0.013585	296.443
0.013579	323.715
0.013634	353.265
0.013808	385.095
0.013864	405.554
0.01386	426.008
0.013915	448.74
0.014031	473.748
0.014083	512.388
0.014797	553.349
0.016113	596.626
0.018333	628.605
0.019594	644.605
0.020916	656.064
0.022295	678.891
0.024696	710.883
0.025837	726.875
0.027217	745.156
0.029558	779.417
0.030273	815.832
0.000818	34.1557
0.001598	45.5758
0.002438	57.0002
0.003221	57.0568
0.003821	63.9184
0.004902	75.3603
0.005381	91.304
0.006043	91.3519
0.006882	109.594
0.007723	114.201
0.008683	130.179
0.009161	148.396
0.009941	162.088
0.010477	187.127
0.010895	205.339
0.011192	223.543
0.011248	246.274
0.011244	264.455
0.0113	284.914
0.011534	319.022
0.011587	355.389
0.011882	382.683
0.011879	400.865
0.011995	423.601
0.01199	444.055
0.012047	464.513
0.012162	487.249
0.012339	505.444
0.012333	534.989
0.012689	560.015
0.012984	589.581
0.013461	612.343
0.01424	630.581
0.015351	644.298
0.016941	669.413
0.018381	689.972
0.019461	705.959
0.021023	719.708
0.022706	733.466
0.024208	747.211
0.02577	758.688
0.027332	774.71
0.029313	797.581
