Adsorption isotherm of Water on COF-F6
DOI: 10.1021/jacs.0c06474
Article source: Figure 2b
Adsorbate Water: InChIKey XLYOFNOQVPJJNP-UHFFFAOYSA-N
Kind: experiment
Temperature: 298 K
Tabular data in the source: 0
pressure (bar)	uptake (ml/g)
0.001606	4.6673
0.002569	4.73696
0.004554	13.9714
0.005938	14.0715
0.007081	16.427
0.007922	23.306
0.008644	25.6309
0.009967	32.5448
0.010869	32.6101
0.013217	28.2345
0.01472	39.7068
0.017067	42.1493
0.022964	44.8487
0.026333	54.1833
0.029825	45.345
0.008583	30.172
0.006416	30.0152
0.010568	32.5883
0.013335	41.8794
0.014839	46.5336
0.017428	39.9028
0.022181	47.0648
0.026333	54.1833
0.030064	56.7259
