Adsorption isotherm of Carbon Dioxide on LTA-5
DOI: 10.1021/La9026656
Adsorbate Carbon Dioxide: InChIKey CURLTUGMZLYLDI-UHFFFAOYSA-N
Temperature: 303 K
Tabular data in the source: 0
pressure (bar)	uptake (mmol/g)
0.210472	1.2217
0.407678	1.86557
0.616936	2.39387
1.01031	3.08726
1.52614	3.73113
2.01726	4.25943
3.06003	4.88679
4.05337	5.28302
5.05882	5.5967
