Adsorption isotherm of Methane on LTA-5
DOI: 10.1021/La9026656
Adsorbate Methane: InChIKey VNWKTOKETHGBQD-UHFFFAOYSA-N
Temperature: 303 K
Tabular data in the source: 0
pressure (bar)	uptake (mmol/g)
0.394366	0.172696
0.591549	0.230511
1.01408	0.422336
1.50704	0.576385
2.01408	0.730488
3.04225	1.11483
4.05634	1.42304
5.07042	1.67418
