Adsorption isotherm of Methane on LTA-SiO2
DOI: 10.1021/La9026656
Adsorbate Methane: InChIKey VNWKTOKETHGBQD-UHFFFAOYSA-N
Temperature: 303 K
Tabular data in the source: 0
pressure (bar)	uptake (mmol/g)
0.183099	0.03874
0.422535	0.13476
0.605634	0.1735
1.01408	0.308206
1.52113	0.443287
2.02817	0.540325
3.04225	0.867552
4.05634	1.13771
5.07042	1.38885
