Adsorption isotherm of Carbon Dioxide on LTA-2
DOI: 10.1021/La9026656
Adsorbate Carbon Dioxide: InChIKey CURLTUGMZLYLDI-UHFFFAOYSA-N
Temperature: 273 K
Tabular data in the source: 0
pressure (bar)	uptake (mmol/g)
0.0385321	4.31011
0.0605505	4.54607
0.0880734	4.68764
0.117431	4.81348
0.170642	4.9236
0.192661	4.97079
0.233028	5.00225
0.291743	5.04944
0.368807	5.0809
0.433028	5.11236
0.47156	5.17528
0.488073	5.14382
0.506422	5.14382
0.524771	5.15955
0.543119	5.15955
0.561468	5.15955
0.577982	5.17528
0.59633	5.17528
0.614679	5.17528
0.633028	5.17528
0.651376	5.19101
0.669725	5.19101
0.688073	5.19101
0.706422	5.19101
0.724771	5.19101
0.743119	5.20674
0.761468	5.20674
0.779817	5.20674
0.798165	5.20674
0.816514	5.20674
0.834862	5.20674
0.853211	5.22247
0.87156	5.22247
0.889908	5.22247
0.908257	5.22247
0.926606	5.22247
0.944954	5.22247
0.963303	5.22247
0.979817	5.2382
0.998165	5.2382
