Adsorption isotherm of Carbon Dioxide on LTA-3.5
DOI: 10.1021/La9026656
Adsorbate Carbon Dioxide: InChIKey CURLTUGMZLYLDI-UHFFFAOYSA-N
Temperature: 303 K
Tabular data in the source: 0
pressure (bar)	uptake (mmol/g)
0.176193	2.64151
0.398169	3.43396
0.607196	3.83019
1.01245	4.30896
1.51562	4.7217
2.03079	4.98585
3.04855	5.33255
4.06614	5.58019
5.05914	5.7783
