Adsorption isotherm of Carbon Dioxide on LTA-2
DOI: 10.1021/La9026656
Adsorbate Carbon Dioxide: InChIKey CURLTUGMZLYLDI-UHFFFAOYSA-N
Temperature: 303 K
Tabular data in the source: 0
pressure (bar)	uptake (mmol/g)
0.191281	4.25943
0.400365	4.68868
0.596791	4.88679
1.01383	5.10142
1.52897	5.34906
2.044	5.53066
3.03708	5.7783
4.06686	5.99292
5.072	6.125
