Adsorption isotherm of Methane on LTA-1
DOI: 10.1021/La9026656
Adsorbate Methane: InChIKey VNWKTOKETHGBQD-UHFFFAOYSA-N
Temperature: 303 K
Tabular data in the source: 0
pressure (bar)	uptake (mmol/g)
0.028169	0.0191289
0.211268	0.305152
0.408451	0.61025
0.591549	0.858229
1.01408	1.37342
1.52113	1.86992
2.02817	2.34739
3.04225	3.24527
4.05634	3.85782
5.09859	4.26124
