Adsorption isotherm of Carbon Dioxide on LTA-2
DOI: 10.1021/La9026656
Adsorbate Carbon Dioxide: InChIKey CURLTUGMZLYLDI-UHFFFAOYSA-N
Temperature: 273 K
Tabular data in the source: 0
pressure (bar)	uptake (mmol/g)
0.00183486	0.00183486
0.00550459	3.09888
0.00917431	3.5236
0.0110092	3.82247
0.0201835	4.12135
0.0256881	4.27865
0.0311927	4.42022
0.0422018	4.54607
0.0550459	4.65618
0.0715596	4.7191
0.0899083	4.76629
0.106422	4.81348
0.289908	4.9236
0.306422	4.93933
0.324771	4.93933
0.343119	4.93933
0.361468	4.93933
0.377982	4.95506
0.39633	4.95506
0.414679	4.95506
0.433028	4.95506
0.451376	4.95506
0.469725	4.95506
0.488073	4.95506
0.506422	4.95506
0.524771	4.95506
0.543119	4.95506
0.561468	4.95506
0.579817	4.97079
0.59633	4.97079
0.614679	4.97079
0.633028	4.97079
0.651376	4.97079
0.669725	4.97079
0.688073	4.97079
0.706422	4.97079
0.724771	4.97079
0.743119	4.97079
0.761468	4.97079
0.779817	4.97079
0.798165	4.97079
0.816514	4.97079
0.834862	4.97079
0.853211	4.97079
0.87156	4.98652
0.889908	4.98652
0.908257	4.98652
0.926606	4.98652
0.944954	4.98652
0.963303	4.98652
0.981651	4.98652
1	4.98652
