Adsorption isotherm of Carbon Dioxide on LTA-2
DOI: 10.1021/La9026656
Adsorbate Carbon Dioxide: InChIKey CURLTUGMZLYLDI-UHFFFAOYSA-N
Temperature: 273 K
Tabular data in the source: 0
pressure (bar)	uptake (mmol/g)
0.0146789	3.85393
0.0293578	4.16854
0.053211	4.34157
0.0880734	4.53034
0.121101	4.65618
0.166972	4.78202
0.19633	4.86067
0.234862	4.9236
0.26055	4.98652
0.315596	5.04944
0.357798	5.09663
0.387156	5.15955
0.433028	5.19101
0.480734	5.22247
0.52844	5.26966
0.577982	5.30112
0.622018	5.33258
0.651376	5.34831
0.680734	5.37978
0.73211	5.41124
0.777982	5.41124
0.807339	5.4427
0.840367	5.4427
0.884404	5.45843
0.924771	5.48989
0.955963	5.50562
1	5.50562
