Adsorption isotherm of Carbon Dioxide on LTA-SiO2
DOI: 10.1021/La9026656
Adsorbate Carbon Dioxide: InChIKey CURLTUGMZLYLDI-UHFFFAOYSA-N
Temperature: 303 K
Tabular data in the source: 0
pressure (bar)	uptake (mmol/g)
0.0245676	0.0330189
0.196425	0.198113
0.491121	0.528302
1.00675	1.0566
2.01356	2.14623
3.04453	3.03774
4.03834	3.69811
5.0685	4.12736
