Adsorption isotherm of Methane on LTA-2
DOI: 10.1021/La9026656
Adsorbate Methane: InChIKey VNWKTOKETHGBQD-UHFFFAOYSA-N
Temperature: 303 K
Tabular data in the source: 0
pressure (bar)	uptake (mmol/g)
0.394366	0.248783
0.619718	0.382792
1.01408	0.593532
1.52113	0.842743
2.02817	1.05391
3.04225	1.53331
4.05634	1.89858
5.07042	2.18777
