Adsorption isotherm of Carbon Dioxide on LTA-1
DOI: 10.1021/La9026656
Adsorbate Carbon Dioxide: InChIKey CURLTUGMZLYLDI-UHFFFAOYSA-N
Temperature: 303 K
Tabular data in the source: 0
pressure (bar)	uptake (mmol/g)
0.202148	3.46698
0.386521	3.78066
0.619711	3.97877
1.01233	4.24292
1.52735	4.42453
2.01781	4.57311
3.04754	4.75472
4.05279	4.95283
5.05789	5.0684
