Adsorption isotherm of Methane on LTA-3.5
DOI: 10.1021/La9026656
Adsorbate Methane: InChIKey VNWKTOKETHGBQD-UHFFFAOYSA-N
Temperature: 303 K
Tabular data in the source: 0
pressure (bar)	uptake (mmol/g)
0.43662	0.191878
0.605634	0.306652
1	0.460326
1.52113	0.69057
2.01408	0.863641
3.04225	1.24799
4.05634	1.57521
5.07042	1.8644
