Adsorption isotherm of Carbon Dioxide on LTA-2
DOI: 10.1021/La9026656
Adsorbate Carbon Dioxide: InChIKey CURLTUGMZLYLDI-UHFFFAOYSA-N
Temperature: 273 K
Tabular data in the source: 0
pressure (bar)	uptake (mmol/g)
0	0.739326
0.00183486	2.70562
0.00366972	2.4382
0.00550459	3.09888
0.012844	3.38202
0.0146789	3.60225
0.0183486	3.79101
0.0275229	4.01124
0.040367	4.18427
0.0605505	4.37303
0.0844037	4.49888
0.0972477	4.60899
0.119266	4.68764
0.137615	4.7191
0.159633	4.81348
0.177982	4.86067
0.2	4.8764
0.223853	4.93933
0.278899	5.00225
0.306422	5.06517
0.33211	5.09663
0.387156	5.14382
0.46422	5.22247
0.533945	5.25393
0.601835	5.31685
0.669725	5.36404
0.73578	5.39551
0.801835	5.42697
0.86789	5.45843
0.937615	5.47416
1	5.52135
