Adsorption isotherm of Hydrogen on [(Ni^II)2Ni^III(mu3-OH)(IN)3(BDC)1.5]
DOI: 10.1021/Cg200579j
Adsorbate Hydrogen: InChIKey UFHFLCQGNIYNRP-UHFFFAOYSA-N
Temperature: 77 K
Tabular data in the source: 0
pressure (bar)	uptake (cm3(STP)/g)
0.00394839	3.89749
0.00698029	11.9063
0.01456	17.0548
0.0372993	33.9305
0.079746	50.8062
0.128256	66.8238
0.196474	85.1296
0.258628	98.0009
0.331394	109.442
0.423867	121.455
0.492085	129.75
0.599717	138.617
0.669451	143.765
0.783148	151.202
0.919583	160.069
0.990833	163.501
1.03783	165.504
