Adsorption isotherm of Nitrogen on [(Ni^II)2Ni^III(mu3-OH)(IN)3(BDC)1.5]
DOI: 10.1021/Cg200579j
Adsorbate Nitrogen: InChIKey IJGRMHOSHXDMSA-UHFFFAOYSA-N
Temperature: 77 K
Tabular data in the source: 0
pressure (bar)	uptake (cm3(STP)/g)
0.00243244	16.1967
0.00243244	47.9459
0.00243244	168.65
0.00394839	89.7061
0.00394839	128.606
0.00394839	190.102
0.0191079	196.109
0.0661024	198.397
0.114613	199.827
0.346553	202.401
0.482989	202.687
0.658839	203.259
0.82711	203.545
0.930195	203.831
0.942322	205.262
