Adsorption isotherm of Carbon Dioxide on [(Ni^II)2Ni^III(mu3-OH)(IN)3(BDC)1.5]
DOI: 10.1021/Cg200579j
Adsorbate Carbon Dioxide: InChIKey CURLTUGMZLYLDI-UHFFFAOYSA-N
Temperature: 273 K
Tabular data in the source: 0
pressure (bar)	uptake (cm3(STP)/g)
0.00296976	21.4206
0.0417867	75.5052
0.101505	139.73
0.171674	197.195
0.232885	247.9
0.300068	300.857
0.389646	363.956
0.462801	414.66
0.53297	461.984
0.62404	521.702
0.765871	602.829
0.855449	653.533
0.949505	701.984
1.00773	732.407
1.05252	750.435
