Adsorption isotherm of Methane on [(Ni^II)2Ni^III(mu3-OH)(IN)3(BDC)1.5]
DOI: 10.1021/Cg200579j
Adsorbate Methane: InChIKey VNWKTOKETHGBQD-UHFFFAOYSA-N
Temperature: 273 K
Tabular data in the source: 0
pressure (bar)	uptake (cm3(STP)/g)
0.0104345	9.02628
0.0761247	32.6883
0.144801	54.0967
0.256773	89.0263
0.328435	109.308
0.419505	132.97
0.529984	155.505
0.59866	170.153
0.691223	187.054
0.827082	212.97
0.895759	226.491
0.964435	237.759
1.00922	243.392
