Adsorption isotherm of Carbon Dioxide on [Zn3(btca)2(OH)2] MeOH
DOI: 10.1021/acs.jpcc.5b02359
Article source: Figure 2
Adsorbate Carbon Dioxide: InChIKey CURLTUGMZLYLDI-UHFFFAOYSA-N
Kind: experiment
Temperature: 196 K
Tabular data in the source: 0
pressure (bar)	uptake (wt%)
0.02003	16.4132
0.03311	0.8712
0.03467	2.0944
0.06229	16.7971
0.06655	4.4082
0.06785	3.7576
0.10005	6.1443
0.10716	17.6642
0.14172	10.3503
0.14951	17.7426
0.15807	17.9402
0.17976	12.3319
0.18804	17.9997
0.20327	18.1907
0.23897	14.7878
0.2437	15.6463
0.25108	18.4116
0.26645	16.2618
0.28951	18.4805
0.29919	16.8136
0.30579	18.685
0.33931	17.5829
0.34921	18.6436
0.36026	18.7012
0.37461	17.868
0.40639	18.7096
0.40999	18.1436
0.46011	18.8883
0.54463	18.4495
0.56036	19.055
0.62892	18.7011
0.65877	19.1358
0.72755	18.9184
0.76153	19.2374
0.82667	19.0969
0.90464	19.3431
0.97002	19.2963
1.01117	19.3921
