Adsorption isotherm of Carbon Dioxide on [Zn3(btca)2(OH)2] MeOH
DOI: 10.1021/acs.jpcc.5b02359
Article source: Figure 2
Adsorbate Carbon Dioxide: InChIKey CURLTUGMZLYLDI-UHFFFAOYSA-N
Kind: experiment
Temperature: 273 K
Tabular data in the source: 0
pressure (bar)	uptake (wt%)
0.0027	0.0311
0.01512	0.877
0.0208	3.2485
0.04432	2.7843
0.05869	3.3482
0.06618	4.1692
0.09119	4.0947
0.09658	4.7539
0.1159	5.1189
0.13957	4.6796
0.15883	5.5168
0.18007	5.0442
0.21365	6.0421
0.22385	5.4519
0.25593	5.789
0.26545	6.6719
0.30688	6.2543
0.31546	7.5289
0.35877	6.8683
0.36452	8.5686
0.39293	7.8375
0.39897	7.673
0.46862	10.1377
0.52718	10.3953
0.56049	10.9074
0.62252	11.1911
0.6652	11.5929
0.73119	11.8806
0.76863	12.142
0.8278	12.3704
0.91176	12.7428
0.97418	12.9571
1.03405	13.1677
