Adsorption isotherm of Carbon Dioxide on [Zn3(btca)2(OH)2] MeOH
DOI: 10.1021/acs.jpcc.5b02359
Article source: Figure 2
Adsorbate Carbon Dioxide: InChIKey CURLTUGMZLYLDI-UHFFFAOYSA-N
Kind: experiment
Temperature: 298 K
Tabular data in the source: 0
pressure (bar)	uptake (wt%)
0.0024	0.0228
0.01971	0.452
0.02833	0.4935
0.0374	0.6719
0.06626	1.4847
0.07555	1.5531
0.09736	2.0632
0.11415	2.4862
0.13844	2.818
0.14893	3.0751
0.17082	3.6143
0.1864	3.4899
0.20379	3.8881
0.21068	3.8715
0.21698	4.1203
0.22777	3.9462
0.25032	4.2245
0.2692	4.3656
0.27392	4.4022
0.28997	4.4649
0.31433	4.6479
0.32038	4.7106
0.33001	4.6793
0.3589	4.8988
0.36759	4.925
0.41517	5.1341
0.42461	5.176
0.45499	5.3735
0.53322	5.5646
0.55496	5.8342
0.62704	5.9604
0.6582	6.3942
0.7241	6.5041
0.76357	7.0424
0.8311	7.1308
0.90509	7.7301
0.97528	7.9344
1.02024	8.188
