Adsorption isotherm of Carbon Dioxide on [Zn3(btca)2(OH)2] MeOH
DOI: 10.1021/acs.jpcc.5b02359
Article source: Figure 2
Adsorbate Carbon Dioxide: InChIKey CURLTUGMZLYLDI-UHFFFAOYSA-N
Kind: experiment
Temperature: 298 K
Tabular data in the source: 0
pressure (bar)	uptake (wt%)
0.00961	0.0353
0.03532	0.5357
0.05912	1.0423
0.11737	3.947
0.12885	4.7651
0.17024	5.5398
0.22637	6.0212
0.32124	6.5864
0.43353	7.1621
0.4955	7.2877
0.54778	7.4971
0.68332	7.9682
0.75497	8.188
0.87307	8.7323
0.92818	11.3293
1.05765	11.9586
1.57937	14.3491
1.93719	15.5304
2.05674	15.7975
2.91372	17.5292
3.07476	17.7207
3.90585	18.7769
4.06369	18.9185
4.81315	19.5946
5.07024	19.7703
