Adsorption isotherm of Carbon Dioxide on [Zn3(btca)2(OH)2] MeOH
DOI: 10.1021/acs.jpcc.5b02359
Article source: Figure 5
Adsorbate Carbon Dioxide: InChIKey CURLTUGMZLYLDI-UHFFFAOYSA-N
Kind: experiment
Temperature: 298 K
Tabular data in the source: 0
pressure (bar)	uptake (wt%)
0.01886	0.4575
0.02421	0.502
0.03597	0.6919
0.06298	1.4544
0.06939	1.3898
0.07491	1.512
0.09623	2.0382
0.1135	2.5867
0.12272	2.4594
0.13193	2.8563
0.14211	2.817
0.1464	3.0472
0.17035	3.6199
0.18579	3.5008
0.20229	3.8663
0.20926	3.8739
0.21677	4.0482
0.22805	3.9464
0.24994	4.1832
0.26862	4.3817
0.28686	4.4733
0.31214	4.6876
0.31925	4.6583
0.32943	4.6927
0.35514	4.8705
0.36672	4.8528
0.36786	4.8573
0.41437	5.1573
0.42209	5.12
0.4557	5.3745
0.53222	5.5705
0.55424	5.8635
0.62627	5.9943
0.65811	6.413
0.7236	6.509
0.76272	7.01
0.82991	7.1334
0.90465	7.7341
0.97386	7.9733
1.02029	8.2228
