Adsorption isotherm of Nitrogen on [Zn3(btca)2(OH)2] MeOH
DOI: 10.1021/acs.jpcc.5b02359
Article source: Figure 5
Adsorbate Nitrogen: InChIKey IJGRMHOSHXDMSA-UHFFFAOYSA-N
Kind: experiment
Temperature: 298 K
Tabular data in the source: 0
pressure (bar)	uptake (wt%)
0.004	0.0173
0.03187	0.0428
0.05753	0.0785
0.08761	0.0633
0.10841	0.0685
0.13539	0.0736
0.16105	0.0838
0.18848	0.0737
0.21148	0.0788
0.26501	0.1044
0.29642	0.1503
0.3358	0.181
0.36898	0.2065
0.39242	0.1811
0.4141	0.1964
0.4548	0.2168
0.52403	0.2373
0.55965	0.2578
0.63596	0.3089
0.66073	0.3166
0.7366	0.3473
0.76602	0.3677
0.83658	0.3933
0.9088	0.4101
0.9785	0.4466
1.01274	0.4547
