Adsorption isotherm of Carbon Dioxide on [Zn3(btca)2(OH)2] MeOH
DOI: 10.1021/acs.jpcc.5b02359
Article source: Figure 2
Adsorbate Carbon Dioxide: InChIKey CURLTUGMZLYLDI-UHFFFAOYSA-N
Kind: experiment
Temperature: 273 K
Tabular data in the source: 0
pressure (bar)	uptake (wt%)
0.00423	0.0295
0.02763	5.031
0.11572	6.3126
0.17303	7.6583
0.22266	7.3605
0.2873	7.8894
0.35962	8.6274
0.41809	13.0417
0.42419	13.341
0.57191	15.1515
0.63346	15.6828
0.77254	16.7977
0.83606	17.1335
0.93011	17.7582
1.08401	18.3126
1.56068	19.7707
1.8931	20.533
2.05008	20.7346
2.90193	21.8777
3.05891	22.0104
3.89692	22.6516
4.07045	22.745
4.87229	23.1698
5.06313	23.27
