Adsorption isotherm of Helium on [Zn3(btca)2(OH)2] MeOH
DOI: 10.1021/acs.jpcc.5b02359
Article source: Figure 5
Adsorbate Helium: InChIKey SWQJXJOGLNCZEY-UHFFFAOYSA-N
Kind: experiment
Temperature: 298 K
Tabular data in the source: 0
pressure (bar)	uptake (wt%)
0.00307	0.0051
0.01958	0.0071
0.03311	0.0132
0.04312	0.0132
0.05647	0.0172
0.06824	0.0132
0.09739	0.0092
0.1139	0.0112
0.12303	0.0092
0.13305	0.0112
0.14762	0.0092
0.16466	0.0012
0.19329	0.0032
0.20067	0.0113
0.21173	0.0073
0.22104	0.0073
0.24317	0.0154
0.24932	0.0134
0.26091	0.0073
0.26794	0.0053
0.29692	0.0074
0.30746	0.0054
0.31905	0.0094
0.34522	0.0094
0.35207	0.0095
0.36612	0.0115
0.39457	0.0115
0.42215	0.0136
0.46577	0.0065
0.52544	0.0081
0.56587	0.0098
0.62344	0.0162
0.67056	0.0067
0.72618	0.0163
0.76586	0.0247
0.82118	0.0248
0.90859	0.0121
0.97682	0.0121
1.01089	0.0182
