Adsorption isotherm of Nitrogen on [Zn3(btca)2(OH)2] MeOH
DOI: 10.1021/acs.jpcc.5b02359
Article source: Figure 2
Adsorbate Nitrogen: InChIKey IJGRMHOSHXDMSA-UHFFFAOYSA-N
Kind: experiment
Temperature: 298 K
Tabular data in the source: 0
pressure (bar)	uptake (wt%)
0.01759	0.0472
0.15325	0.157
0.2986	0.2459
0.43814	0.5231
0.53406	0.3661
0.66487	0.4393
0.72107	0.4759
0.87126	0.5177
0.92654	1.0669
1.08832	0.7268
1.58401	0.9687
1.92346	1.8583
2.08089	1.1926
2.90452	2.4775
3.06288	1.6595
3.90664	2.9961
4.0496	2.012
4.77536	3.3335
5.06469	3.4124
5.06583	3.3975
