Adsorption isotherm of Argon on [Zn3(btca)2(OH)2] MeOH
DOI: 10.1021/acs.jpcc.5b02359
Article source: Figure 5
Adsorbate Argon: InChIKey XKRFYHLGVUSROY-UHFFFAOYSA-N
Kind: experiment
Temperature: 298 K
Tabular data in the source: 0
pressure (bar)	uptake (wt%)
0.0036	0.0101
0.02098	0.0443
0.02854	0.0543
0.05066	0.0865
0.06699	0.0804
0.08209	0.0843
0.09262	0.0904
0.11088	0.0923
0.14161	0.1042
0.14969	0.1324
0.15987	0.1263
0.17971	0.1363
0.19341	0.1464
0.20816	0.1604
0.21589	0.1805
0.24117	0.1905
0.2517	0.1945
0.2704	0.1994
0.28138	0.1943
0.29437	0.1993
0.30649	0.1972
0.32159	0.2012
0.34801	0.2415
0.36393	0.2415
0.38749	0.2604
0.41681	0.2806
0.46105	0.3147
0.52552	0.3404
0.56343	0.3658
0.62403	0.3975
0.66547	0.4215
0.72438	0.4575
0.76397	0.4886
0.82631	0.5135
0.91111	0.5686
0.97882	0.5969
1.00725	0.6183
