Adsorption isotherm of Nitrogen on [Zn3(btca)2(OH)2] MeOH
DOI: 10.1021/acs.jpcc.5b02359
Article source: Figure 2
Adsorbate Nitrogen: InChIKey IJGRMHOSHXDMSA-UHFFFAOYSA-N
Kind: experiment
Temperature: 273 K
Tabular data in the source: 0
pressure (bar)	uptake (wt%)
0.01041	0.0196
0.08699	0.1872
0.13547	0.2524
0.18637	0.2835
0.24115	0.3674
0.30223	0.4451
0.41711	0.5353
0.4748	0.6067
0.52667	0.6379
0.65416	0.7498
0.71184	0.8337
0.86255	1.0115
0.92179	1.0507
1.08242	1.1917
1.57633	1.6035
1.9203	1.88
2.07266	1.9592
2.90296	2.4879
3.06764	2.5769
3.90333	2.9924
4.05262	3.042
4.76446	3.3583
5.06222	3.4677
