Adsorption isotherm of Nitrogen on CdS@g-C3N4
DOI: 10.1016/j.apcatb.2017.03.069
Article source: Figure 3
Adsorbate Nitrogen: InChIKey IJGRMHOSHXDMSA-UHFFFAOYSA-N
Kind: experiment
Temperature: 77 K
Tabular data in the source: 0
pressure (bar)	uptake (cm3(STP)/g)
0.046001	10.727
0.099904	12.871
0.153808	15.685
0.207712	19.17
0.254767	23.057
0.304395	26.542
0.307819	24.799
0.347183	28.418
0.353171	27.211
0.403651	31.635
0.41049	30.562
0.45413	35.12
0.454991	34.449
0.501194	38.337
0.557662	41.956
0.609863	45.843
0.652642	48.389
0.692006	51.875
0.70997	52.813
0.757886	58.578
0.806663	65.281
0.810077	62.867
0.858003	72.119
0.862279	68.229
0.911056	78.688
0.911056	86.063
0.964129	109.53
0.976095	98.399
0.998376	138.092
