Adsorption isotherm of Nitrogen on g-C3N4
DOI: 10.1016/j.apcatb.2017.03.069
Article source: Figure 3
Adsorbate Nitrogen: InChIKey IJGRMHOSHXDMSA-UHFFFAOYSA-N
Kind: experiment
Temperature: 77 K
Tabular data in the source: 0
pressure (bar)	uptake (cm3(STP)/g)
0.050651	12.481
0.095467	12.586
0.101576	10.244
0.1593	12.051
0.1593	14.819
0.211593	15.349
0.213629	13.753
0.256418	16.199
0.263207	13.538
0.30938	17.9
0.315489	15.133
0.358957	19.602
0.360315	17.154
0.410571	17.897
0.460817	20.556
0.497496	25.345
0.507	22.471
0.570834	23.533
0.571523	28.11
0.597998	29.173
0.616338	26.299
0.664547	27.894
0.665915	30.555
0.705299	33.321
0.712767	31.085
0.757592	34.277
0.767775	36.831
0.813958	40.661
0.815316	38.532
0.852674	45.45
0.854031	42.789
0.912434	51.515
0.915838	64.393
0.964098	115.801
0.969499	73.545
1.00083	186.58
