Adsorption isotherm of Nitrogen on CdS
DOI: 10.1016/j.apcatb.2017.03.069
Article source: Figure 3
Adsorbate Nitrogen: InChIKey IJGRMHOSHXDMSA-UHFFFAOYSA-N
Kind: experiment
Temperature: 77 K
Tabular data in the source: 0
pressure (bar)	uptake (cm3(STP)/g)
0.054988	15.956
0.105042	18.369
0.151245	20.513
0.20215	21.651
0.269317	20.911
0.302682	22.385
0.354874	22.786
0.401928	22.784
0.456693	22.782
0.514873	23.049
0.561927	22.511
0.615831	21.838
0.664598	22.373
0.706525	22.506
0.762131	22.638
0.81261	22.77
0.862238	23.573
0.916142	24.376
0.968334	26.654
1.00427	30.542
