Adsorption isotherm of Nitrogen on TiO2@g-C3N4
DOI: 10.1016/j.apcatb.2017.03.069
Article source: Figure 3
Adsorbate Nitrogen: InChIKey IJGRMHOSHXDMSA-UHFFFAOYSA-N
Kind: experiment
Temperature: 77 K
Tabular data in the source: 0
pressure (bar)	uptake (cm3(STP)/g)
0.055576	20.95
0.102468	23.652
0.15314	25.763
0.202727	28.126
0.255547	30.828
0.30784	33.867
0.358501	36.569
0.411868	40.2
0.455528	43.24
0.501346	46.533
0.555787	51.684
0.602679	55.991
0.651193	65.029
0.658204	63.001
0.704023	75.08
0.706718	70.18
0.754157	79.725
0.758484	94.086
0.811303	95.267
0.812418	138.858
0.861985	122.468
0.870648	163.186
0.917014	183.629
0.918078	164.874
0.953672	190.217
1.01081	194.608
