Adsorption isotherm of Nitrogen on TiO2-CdS@g-C3N4
DOI: 10.1016/j.apcatb.2017.03.069
Article source: Figure 3
Adsorbate Nitrogen: InChIKey IJGRMHOSHXDMSA-UHFFFAOYSA-N
Kind: experiment
Temperature: 77 K
Tabular data in the source: 0
pressure (bar)	uptake (cm3(STP)/g)
0.044542	17.483
0.100229	18.12
0.154558	19.396
0.203446	19.394
0.256418	20.244
0.305317	21.307
0.355563	21.943
0.407177	23.645
0.461506	25.559
0.507689	28.325
0.51311	25.344
0.560651	31.303
0.563366	26.62
0.606834	31.94
0.617695	27.682
0.662521	33.216
0.666594	29.81
0.707336	35.769
0.720913	31.298
0.764381	35.98
0.764391	39.811
0.810564	43.642
0.814637	39.384
0.859462	46.407
0.859462	50.452
0.91517	67.906
0.916517	57.262
0.958668	113.885
0.965426	81.528
1.00354	175.191
