Adsorption isotherm of Nitrogen on TPE-Ph COF
DOI: 10.1021/jacs.6b02700
Article source: Figure S8(A)
Adsorbate Nitrogen: InChIKey IJGRMHOSHXDMSA-UHFFFAOYSA-N
Kind: experiment
Temperature: 77 K
Tabular data in the source: 0
pressure (bar)	uptake (cm3(STP)/g)
0.004648	13.9896
0.004648	23.3161
0.004648	33.6788
0.004648	43.0052
0.004648	54.4041
0.004648	63.7306
0.004648	74.0933
0.004648	82.3834
0.004648	92.7461
0.003099	103.109
0.004648	110.363
0.007747	117.617
0.009296	124.87
0.012394	132.124
0.015493	139.378
0.02324	149.741
0.029437	156.995
0.043381	166.321
0.074367	180.829
0.088311	189.119
0.108452	200.518
0.13479	210.881
0.15803	224.352
0.175072	239.896
0.202185	247.15
0.240918	251.295
0.280425	253.368
0.322257	253.368
0.374933	256.477
0.402821	259.585
0.458596	260.622
0.506625	259.585
0.554654	261.658
0.60888	262.694
0.656908	263.731
0.706486	266.839
0.757614	268.912
0.807192	272.021
0.856769	274.093
0.910995	276.166
0.949728	280.311
0.977616	286.529
0.988461	295.855
0.997757	305.181
1.00705	318.653
1.0117	333.161
