Adsorption isotherm of Nitrogen on TPE-Ph COF
DOI: 10.1021/jacs.6b02700
Article source: Figure 2A
Adsorbate Nitrogen: InChIKey IJGRMHOSHXDMSA-UHFFFAOYSA-N
Kind: experiment
Temperature: 77 K
Tabular data in the source: 0
pressure (bar)	uptake (cm3(STP)/g)
0.010203	11.9468
0.013847	20.5645
0.011036	29.1547
0.011505	38.8341
0.015201	48.5272
0.012442	58.1929
0.016138	67.886
0.016606	77.5654
0.02025	86.183
0.017439	94.7733
0.017908	104.453
0.018324	113.057
0.018637	119.51
0.019001	127.038
0.019418	135.642
0.023009	143.184
0.023374	150.712
0.036597	157.22
0.056378	165.906
0.092611	181.114
0.109165	189.786
0.129051	200.623
0.152112	210.399
0.178506	222.339
0.192197	238.526
0.221609	246.178
0.260392	247.417
0.292824	250.781
0.334887	253.11
0.393035	254.432
0.425467	257.796
0.473881	258.001
0.525574	259.296
0.570812	260.563
0.61933	262.92
0.671023	264.214
0.722768	266.584
0.777741	268.968
0.829434	270.263
0.878004	273.695
0.926626	278.202
0.968689	280.532
0.991646	288.156
1.0018	297.876
1.01518	307.611
1.01908	321.606
0.027216	132.908
0.028718	151.588
0.032111	153.782
0.033525	171.363
0.043881	180.143
0.067456	193.304
0.094247	206.462
0.111124	216.334
0.144349	229.485
0.157921	238.261
0.201059	254.698
0.227497	263.46
0.256798	267.824
0.292444	271.082
0.346769	266.628
0.401447	266.568
0.459431	267.604
0.520719	269.736
0.562532	269.69
0.626948	270.719
0.665545	270.678
0.720311	271.717
0.765694	276.063
0.830199	278.191
0.882014	282.531
0.914355	284.693
0.950089	289.05
0.992785	299.993
1.00957	308.766
1.03315	321.927
