Adsorption isotherm of Acetylene on FJI-H8
DOI: 10.1038/Ncomms8575
Article source: Figure 3a
Adsorbate Acetylene: InChIKey HSFWRNGVRCDJHI-UHFFFAOYSA-N
Kind: experiment
Temperature: 303 K
Tabular data in the source: 0
pressure (bar)	uptake (cm3(STP)/g)
0.011051	11.0628
0.038876	28.1493
0.061129	42.2211
0.119782	66.3239
0.172863	87.4121
0.223188	105.483
0.28203	119.518
0.332448	132.556
0.385737	142.57
0.44186	151.574
0.500816	159.57
0.576622	169.561
0.629987	175.549
0.683371	180.529
0.739569	185.507
0.792971	189.481
0.846374	193.454
0.905406	197.423
0.953198	200.395
1.00943	203.359
1.03473	205.348
1.06006	205.323
1.08817	207.308
