Adsorption isotherm of Nitrogen on FJI-H8
DOI: 10.1038/Ncomms8575
Article source: Figure 2
Adsorbate Nitrogen: InChIKey IJGRMHOSHXDMSA-UHFFFAOYSA-N
Kind: experiment
Temperature: 77 K
Tabular data in the source: 0
pressure (bar)	uptake (cm3(STP)/g)
0	17.5157
0.000537	58.9164
0.00058	436.307
0.000899	98.7247
0.00219	240.442
0.003278	359.867
0.003524	136.937
0.00364	399.676
0.004075	197.446
0.004829	280.247
0.004945	457.014
0.005192	320.056
0.025191	484.116
0.047859	495.298
0.095573	506.52
0.134237	511.357
0.204779	516.245
0.316305	521.198
0.427846	524.558
0.521185	526.297
0.609971	528.029
0.687388	528.15
0.742033	528.236
0.796666	529.914
0.887743	530.058
0.944666	530.147
0.981083	531.797
1.00159	530.236
