Adsorption isotherm of Acetylene on FJI-H8
DOI: 10.1038/Ncomms8575
Article source: Figure 3a
Adsorbate Acetylene: InChIKey HSFWRNGVRCDJHI-UHFFFAOYSA-N
Kind: experiment
Temperature: 308 K
Tabular data in the source: 0
pressure (bar)	uptake (cm3(STP)/g)
0.011003	9.0604
0.063687	37.2483
0.119327	60.4027
0.172237	80.5369
0.222419	97.651
0.286728	112.752
0.334237	124.832
0.387459	133.893
0.440681	142.953
0.493903	152.013
0.547181	159.06
0.60046	166.107
0.659425	171.141
0.712761	176.174
0.76331	180.201
0.816673	184.228
0.872851	188.255
0.929058	191.275
0.979607	195.302
1.03303	197.315
1.06112	199.329
1.08923	200.336
