Adsorption isotherm of Acetylene on FJI-H8
DOI: 10.1038/Ncomms8575
Article source: Figure 3a
Adsorbate Acetylene: InChIKey HSFWRNGVRCDJHI-UHFFFAOYSA-N
Kind: experiment
Temperature: 273 K
Tabular data in the source: 0
pressure (bar)	uptake (cm3(STP)/g)
0.00543	21.2175
0.010955	32.3342
0.022014	53.5573
0.038712	73.776
0.049771	94.9991
0.063721	108.144
0.086057	127.359
0.088834	131.402
0.11678	152.642
0.144793	166.811
0.198071	188.076
0.251415	202.271
0.307601	213.438
0.358169	223.589
0.414394	230.716
0.470628	236.833
0.518409	243.951
0.546527	247.009
0.577467	249.061
0.605594	251.109
0.630906	253.154
0.659023	256.213
0.715276	260.309
0.740598	261.344
0.765911	263.39
0.794036	265.438
0.819359	266.473
0.847485	268.522
0.872797	270.567
0.900933	271.605
0.926245	273.651
0.954381	274.689
0.979693	276.734
1.00783	277.772
1.03598	277.8
1.0613	278.836
1.08942	281.894
