Adsorption isotherm of Acetylene on FJI-H8
DOI: 10.1038/Ncomms8575
Article source: Figure 3a
Adsorbate Acetylene: InChIKey HSFWRNGVRCDJHI-UHFFFAOYSA-N
Kind: experiment
Temperature: 295 K
Tabular data in the source: 0
pressure (bar)	uptake (cm3(STP)/g)
0.008104	12.0805
0.038412	35.2349
0.06329	51.3423
0.118732	81.5436
0.171472	107.718
0.224439	125.839
0.277463	141.946
0.333415	154.027
0.383794	164.094
0.437016	173.154
0.493109	180.201
0.546388	187.248
0.599723	192.282
0.653031	198.322
0.734455	205.369
0.787819	209.396
0.843997	213.423
0.872143	213.423
0.897389	216.443
0.925507	217.45
0.956382	220.47
0.981714	220.47
1.00702	221.477
1.03229	223.49
1.06041	224.497
1.08569	226.51
