Adsorption isotherm of Carbon Dioxide on Mg-MOF-74@SBA-15(2')
DOI: 10.1063/1.4902816
Adsorbate Carbon Dioxide: InChIKey CURLTUGMZLYLDI-UHFFFAOYSA-N
Temperature: 293 K
Tabular data in the source: 0
pressure (bar)	uptake (ml/g)
0.330384	1.37255
0.881231	3.52941
1.10014	5.29412
1.20727	7.64706
1.53703	9.41176
1.75532	11.5686
2.63779	14.3137
2.74802	14.7059
3.18895	16.2745
3.51964	17.451
3.85003	18.8235
4.18072	20
4.62227	21.1765
5.17342	23.1373
5.83604	24.7059
9.2644	29.8039
11.0343	32.1569
15.0185	36.2745
17.7852	39.2157
20.663	41.9608
22.7664	43.7255
26.5307	46.6667
28.5226	48.8235
32.1767	51.3725
34.1699	52.7451
37.8246	54.902
39.5964	56.0784
42.9185	58.2353
44.136	59.4118
45.3538	60.3922
46.6822	61.5686
48.0109	62.549
49.2297	62.9412
50.4484	63.3333
51.2237	63.7255
51.8882	64.1176
52.9958	64.7059
54.5465	65.4902
55.3219	65.8824
56.3186	66.4706
