Adsorption isotherm of Carbon Dioxide on Mg-MOF-74@SBA-15(2')
DOI: 10.1063/1.4902816
Adsorbate Carbon Dioxide: InChIKey CURLTUGMZLYLDI-UHFFFAOYSA-N
Temperature: 293 K
Tabular data in the source: 0
pressure (bar)	uptake (ml/g)
0.209595	7.64706
0.532837	13.5294
2.28629	26.2745
5.15635	33.9216
7.81029	38.0392
11.1293	42.1569
13.2312	44.902
16.109	47.6471
19.4314	49.6078
22.1981	52.549
24.6347	53.9216
27.515	55.098
30.2832	57.0588
33.1632	58.4314
35.6001	59.6078
38.7024	60.5882
41.9143	62.3529
44.9061	63.1373
47.3436	63.9216
50.3347	65.098
52.994	65.8824
56.4295	66.4706
