Adsorption isotherm of Carbon Dioxide on Mg-MOF-74@SBA-15(1')
DOI: 10.1063/1.4902816
Adsorbate Carbon Dioxide: InChIKey CURLTUGMZLYLDI-UHFFFAOYSA-N
Temperature: 293 K
Tabular data in the source: 0
pressure (bar)	uptake (ml/g)
0.23276	4.41618
0.238634	0.489772
0.347304	7.85127
1.17958	11.5287
2.24389	20.1131
2.59928	22.5655
2.95576	24.2818
4.6229	29.9188
5.3377	32.1243
6.29041	35.3104
9.27554	39.9601
11.9023	44.1206
15.0097	47.052
18.1149	51.4559
19.6682	53.167
23.4919	57.3223
26.3603	60.0094
28.8692	62.9434
31.9766	65.8748
34.7246	69.0532
37.8327	71.4938
40.3424	73.937
43.2115	76.1333
46.4386	79.0642
48.9483	81.5074
52.1768	83.4567
54.9273	84.9173
