Adsorption isotherm of Nitrogen on Mg-MOF-74
DOI: 10.1063/1.4902816
Adsorbate Nitrogen: InChIKey IJGRMHOSHXDMSA-UHFFFAOYSA-N
Temperature: 77 K
Tabular data in the source: 0
pressure (bar)	uptake (ml/g)
0.0244618	268.007
0.0358763	323.974
0.043437	333.421
0.0437453	337.143
0.0556784	344.824
0.0674573	350.645
0.0790821	354.604
0.090861	360.425
0.107474	370.062
0.119254	375.883
0.133296	381.751
0.197285	390.527
0.240596	395.153
0.274699	397.728
0.334161	406.409
0.372946	410.94
0.443724	419.859
0.482355	422.529
0.518875	427.012
0.578029	431.972
0.623758	438.506
0.676122	443.323
0.726531	451.813
0.762898	454.436
0.795201	462.545
0.818141	466.743
0.832184	472.611
0.864641	482.582
0.885781	492.314
0.918855	509.728
0.93804	523.135
0.966587	540.454
1.00331	574.662
