Adsorption isotherm of Nitrogen on Mg-MOF-74@SBA-15(1')
DOI: 10.1063/1.4902816
Adsorbate Nitrogen: InChIKey IJGRMHOSHXDMSA-UHFFFAOYSA-N
Temperature: 77 K
Tabular data in the source: 0
pressure (bar)	uptake (ml/g)
0.150024	115.823
0.193428	120.354
0.244098	130.579
0.285233	135.067
0.335596	141.582
0.404413	152.153
0.451317	171.566
0.482386	218.454
0.520063	235.839
0.574234	260.946
0.624905	271.171
0.68161	272.252
