Adsorption isotherm of Nitrogen on Mg-MOF-74@SBA-15(2')
DOI: 10.1063/1.4902816
Adsorbate Nitrogen: InChIKey IJGRMHOSHXDMSA-UHFFFAOYSA-N
Temperature: 77 K
Tabular data in the source: 0
pressure (bar)	uptake (ml/g)
0.156058	106.678
0.190389	111.036
0.254207	115.957
0.300034	122.386
0.348128	128.858
0.389109	131.491
0.421634	141.37
0.467194	171.868
0.497956	215.047
0.53048	224.927
0.560121	227.343
0.590069	233.47
0.628937	237.914
0.656309	240.288
0.692447	239.125
