Adsorption isotherm of Nitrogen on Mg-MOF-74@SBA-15(2')
DOI: 10.1063/1.4902816
Adsorbate Nitrogen: InChIKey IJGRMHOSHXDMSA-UHFFFAOYSA-N
Temperature: 77 K
Tabular data in the source: 0
pressure (bar)	uptake (ml/g)
0.000154156	1.86083
0.00719629	59.5941
0.00807218	42.8942
0.0231935	61.7881
0.0324008	63.8394
0.0370816	65.7954
0.0441798	69.6599
0.0558045	73.6195
0.0672751	75.7184
0.0789	79.678
0.0927879	83.6853
0.10215	87.5974
0.150758	101.623
0.168401	96.4212
0.211558	99.1864
0.266648	109.633
0.305124	110.442
0.367003	121.032
0.400953	121.746
0.428729	129.76
0.458306	132.24
0.478985	136.39
0.510824	138.917
0.540709	145.119
0.568178	149.411
0.595799	155.565
0.621158	161.671
0.66133	182.95
0.681749	211.243
0.719965	236.195
0.735962	238.389
0.758749	240.726
0.774593	241.059
0.804323	245.4
0.824693	245.828
0.838273	246.114
0.883693	248.927
0.899691	251.121
0.933639	251.835
0.956426	254.172
0.990989	262.329
