Adsorption isotherm of Carbon Dioxide on Mg-MOF-74@SBA-15(1')
DOI: 10.1063/1.4902816
Adsorbate Carbon Dioxide: InChIKey CURLTUGMZLYLDI-UHFFFAOYSA-N
Temperature: 293 K
Tabular data in the source: 0
pressure (bar)	uptake (ml/g)
0.217708	14.4776
0.324542	23.0661
2.57358	39.7435
5.7955	46.1101
8.30262	50.2711
11.0502	53.6948
13.6785	56.8737
16.4261	60.2975
19.6532	63.2284
22.2829	65.4257
25.3907	68.1117
28.3795	70.3075
31.1297	72.0134
34.1181	74.4546
36.6285	76.407
39.6177	78.3573
42.1285	80.0643
45.1173	82.26
47.9871	83.9655
50.4976	85.9179
53.6082	86.6407
56.4796	87.3646
