Adsorption isotherm of Nitrogen on Mg-MOF-74@SBA-15(1')
DOI: 10.1063/1.4902816
Adsorbate Nitrogen: InChIKey IJGRMHOSHXDMSA-UHFFFAOYSA-N
Temperature: 77 K
Tabular data in the source: 0
pressure (bar)	uptake (ml/g)
0.00174476	48.3339
0.0173285	72.8103
0.0200543	78.4404
0.0387773	86.2645
0.0550828	92.1802
0.0706176	88.7918
0.0734974	96.2827
0.0919121	100.385
0.10791	102.579
0.149882	118.323
0.183831	119.037
0.204201	119.465
0.245403	125.904
0.286912	136.065
0.302293	130.816
0.338968	137.16
0.356612	131.959
0.391795	147.559
0.405682	151.567
0.43238	146.555
0.459693	148.987
0.480372	153.137
0.496522	157.192
0.510102	157.478
0.544977	169.357
0.565347	169.785
0.574554	171.837
0.60233	179.851
0.637204	191.73
0.661687	214.536
0.684986	250.32
0.718214	269.595
0.729684	271.694
0.754581	272.217
0.774796	270.785
0.784465	278.419
0.800617	282.474
0.813888	279.038
0.82716	275.602
0.85509	285.477
0.882403	287.909
0.916045	284.901
0.948347	293.011
0.983373	306.751
