Adsorption isotherm of Nitrogen on SBA-15
DOI: 10.1063/1.4902816
Adsorbate Nitrogen: InChIKey IJGRMHOSHXDMSA-UHFFFAOYSA-N
Temperature: 77 K
Tabular data in the source: 0
pressure (bar)	uptake (ml/g)
0.0115127	111.697
0.0119261	89.4149
0.0180433	135.983
0.0210773	145.335
0.0220023	156.5
0.0279162	173.343
0.0348603	175.346
0.04741	190.471
0.059189	196.291
0.0969432	215.661
0.10615	217.712
0.117621	219.811
0.124719	223.676
0.159901	239.276
0.171372	241.375
0.219827	253.54
0.229034	255.591
0.252592	267.232
0.266171	267.518
0.31478	281.543
0.365805	297.477
0.37455	293.946
0.407161	305.777
0.423158	307.971
0.464977	321.854
0.476448	323.953
0.487918	326.052
0.510859	330.249
0.534263	340.029
0.564303	348.092
0.589816	356.059
0.625152	373.52
0.648865	387.022
0.67278	430.249
0.705075	520.093
0.739123	576.536
0.764327	580.782
0.780324	582.976
0.81201	583.642
0.850949	590.034
0.88747	594.517
0.917201	598.858
0.949041	601.385
0.97425	605.63
1.01997	612.165
