Adsorption isotherm of Nitrogen on SBA-15
DOI: 10.1063/1.4902816
Adsorbate Nitrogen: InChIKey IJGRMHOSHXDMSA-UHFFFAOYSA-N
Temperature: 77 K
Tabular data in the source: 0
pressure (bar)	uptake (ml/g)
0.468482	323.745
0.522807	350.706
0.573408	414.634
0.634356	521.351
0.68161	572.252
