Adsorption isotherm of Methane on MIL-53(Fe)
DOI: 10.1021/Ja902740r
Adsorbate Methane: InChIKey VNWKTOKETHGBQD-UHFFFAOYSA-N
Temperature: 303 K
Tabular data in the source: 0
pressure (bar)	uptake (mmol/g)
1.28265	0.024255
2.46543	0.0590783
3.6946	0.0568261
6.88395	0.130284
10	0.166667
10.9784	0.704608
12.4334	1.35776
15.4593	1.54886
19.2212	1.62457
22.4569	1.77755
27.9222	1.85326
31.6228	2.00641
35.8138	2.15956
41.8427	2.23562
48.8866	2.31168
53.6698	2.38808
