Adsorption isotherm of N-propane on MIL-53(Cr)
DOI: 10.1021/Ja902740r
Adsorbate N-propane: InChIKey ATUOYWHBWRKTHZ-UHFFFAOYSA-N
Temperature: 303 K
Tabular data in the source: 0
pressure (bar)	uptake (mmol/g)
0.0511552	2.28261
0.140197	2.66304
0.263153	2.85326
0.360961	3.08152
0.495123	3.30978
0.56215	3.46196
0.638031	3.57609
4.2309	4.45109
