Adsorption isotherm of N-propane on MIL-53(Fe)
DOI: 10.1021/Ja902740r
Adsorbate N-propane: InChIKey ATUOYWHBWRKTHZ-UHFFFAOYSA-N
Temperature: 303 K
Tabular data in the source: 0
pressure (bar)	uptake (mmol/g)
0.238989	0.0336105
0.473888	0.029799
0.571159	1.25953
0.732597	1.7966
0.939665	2.33368
1.09784	2.56358
1.32319	2.63947
1.64519	2.71518
2.1102	2.82918
2.97148	2.86573
4.05609	2.90246
5.5366	2.97765
6.88395	3.05336
7.79636	3.20651
8.04276	3.39865
8.55918	3.62907
9.39665	3.93624
