Adsorption isotherm of Methane on MIL-53(Cr)
DOI: 10.1021/Ja902740r
Adsorbate Methane: InChIKey VNWKTOKETHGBQD-UHFFFAOYSA-N
Temperature: 303 K
Tabular data in the source: 0
pressure (bar)	uptake (mmol/g)
0.273593	0.190217
0.619999	0.380435
0.850151	0.570652
1.24087	0.722826
1.59738	0.875
1.93117	1.02717
2.05914	1.17935
2.64985	1.29348
3.00959	1.4837
3.21013	1.67391
6.46212	2.66304
9.48043	3.38587
13.0398	3.91848
16.8264	4.33696
20.377	4.67935
23.159	4.94565
26.3215	5.21196
28.0847	5.44022
31.8867	5.59239
34.011	5.78261
41.1737	6.08696
46.7961	6.35326
