Adsorption isotherm of Ethane on MIL-53(Fe)
DOI: 10.1021/Ja902740r
Adsorbate Ethane: InChIKey OTMSDBZUPAUEDD-UHFFFAOYSA-N
Temperature: 303 K
Tabular data in the source: 0
pressure (bar)	uptake (mmol/g)
0.445296	0.0301455
0.688395	0.02772
0.939665	0.0259875
1	1.0641
1.20526	1.17845
1.54593	1.21552
1.86325	1.25295
2.46543	1.32831
2.88044	1.32744
3.36532	1.32658
5.20255	1.40107
7.32597	1.43763
9.10875	1.51334
10.316	1.89726
11.3253	2.39674
12.4334	3.47315
13.2318	4.12665
14.5265	4.89536
14.9858	5.2798
16.9719	5.89449
19.2212	6.20149
21.7691	6.43157
23.899	6.62335
27.9222	6.77633
32.622	6.89085
