Adsorption isotherm of Ethane on MIL-53(Cr)
DOI: 10.1021/Ja902740r
Adsorbate Ethane: InChIKey OTMSDBZUPAUEDD-UHFFFAOYSA-N
Temperature: 303 K
Tabular data in the source: 0
pressure (bar)	uptake (mmol/g)
0.189698	1.36957
0.38096	2.09239
0.632179	2.54891
0.867443	2.81522
1.05013	3.11957
1.44193	3.46196
1.74442	3.69022
2.24637	3.88043
2.89277	4.07065
3.72644	4.29891
8.4793	4.94565
13.2054	5.32609
17.011	5.55435
23.3335	5.78261
28.1903	5.8587
38.642	6.01087
