Adsorption isotherm of N-Butane on MIL-53(Fe)
DOI: 10.1021/Ja902740r
Adsorbate N-Butane: InChIKey IJDNQMDRQITEOD-UHFFFAOYSA-N
Temperature: 303 K
Tabular data in the source: 0
pressure (bar)	uptake (mmol/g)
0.116834	1.86754
0.186325	2.33684
0.270665	2.49449
0.381137	2.53531
0.488865	2.61449
0.58921	2.61554
0.779636	2.69489
1	2.65741
1.28265	2.73659
1.45265	2.85395
2.1769	3.63401
