Adsorption isotherm of N-Butane on MIL-53(Cr)
DOI: 10.1021/Ja902740r
Adsorbate N-Butane: InChIKey IJDNQMDRQITEOD-UHFFFAOYSA-N
Temperature: 303 K
Tabular data in the source: 0
pressure (bar)	uptake (mmol/g)
0.000113459	0.076087
0.0959224	2.3587
0.191847	2.625
0.281934	3.53804
0.38646	3.69022
0.563687	3.7663
0.772407	3.88043
1.12662	3.95652
1.86319	4.03261
