Adsorption isotherm of Isobutane on Silicalite-1
DOI: 10.1016/j.micromeso.2009.02.015
Article source: Figure 2
Adsorbate Isobutane: InChIKey NNPPMTNAJDCUHE-UHFFFAOYSA-N
Kind: experiment
Temperature: 298 K
Tabular data in the source: 0
pressure (bar)	uptake (Conc./uc)
0.000529	2.25
0.0011	2.94
0.00114	2.96
0.00466	3.76
