Adsorption isotherm of N-Butane on Silicalite-1
DOI: 10.1016/j.micromeso.2009.02.015
Article source: Figure 2
Adsorbate N-Butane: InChIKey IJDNQMDRQITEOD-UHFFFAOYSA-N
Kind: experiment
Temperature: 298 K
Tabular data in the source: 0
pressure (bar)	uptake (Conc./uc)
0.00053	4.48
0.00111	6.35
0.00113	6.4
0.00468	8.08
