Adsorption isotherm of N-Butane, Isobutane on Silicalite-1
DOI: 10.1016/j.micromeso.2009.02.015
Article source: Figure 2
Adsorbate N-Butane: InChIKey IJDNQMDRQITEOD-UHFFFAOYSA-N
Adsorbate Isobutane: InChIKey NNPPMTNAJDCUHE-UHFFFAOYSA-N
Kind: experiment
Temperature: 298 K
Tabular data in the source: 0
pressure (bar)	N-Butane fraction	N-Butane uptake (Conc./uc)	Isobutane fraction	Isobutane uptake (Conc./uc)	total uptake (Conc./uc)
0.001059	0.5	3.319	0.5	1.4311	
0.002194	0.5	4.9137	0.5	1.3083	
0.002266	0.5	5.2547	0.5	1.3692	
0.009317	0.5	6.9093	0.5	1.2212	
