Adsorption isotherm of Nitrogen on MIL-100(Cr)
DOI: 10.1021/Ja2062659
Adsorbate Nitrogen: InChIKey IJGRMHOSHXDMSA-UHFFFAOYSA-N
Temperature: 77 K
Tabular data in the source: 0
pressure (bar)	uptake (cm3(STP)/g)
0.00619484	272.017
0.0236738	319.428
0.0455226	363.781
0.0826654	408.134
0.152581	441.781
0.194094	461.664
0.279304	475.428
0.397287	489.193
0.517455	496.84
0.61796	498.37
0.722834	502.958
0.823338	510.605
0.904178	518.252
0.956615	533.546
0.987203	559.546
