Adsorption isotherm of Nitrogen on MIL-100(Cr)
DOI: 10.1021/Ja2062659
Adsorbate Nitrogen: InChIKey IJGRMHOSHXDMSA-UHFFFAOYSA-N
Temperature: 77 K
Tabular data in the source: 0
pressure (bar)	uptake (cm3(STP)/g)
0.00182509	50.2519
0.0345982	79.3107
0.106699	102.252
0.209388	112.958
0.296783	114.487
0.384178	114.487
0.491237	112.958
0.602665	112.958
0.700985	114.487
0.792749	117.546
0.880144	114.487
0.939136	122.134
0.989388	142.017
