Adsorption isotherm of Carbon Dioxide on UFCA-2-700
DOI: 10.1016/j.jcis.2013.10.061
Article source: Figure 9c- UFCA 2 700
Adsorbate Carbon Dioxide: InChIKey CURLTUGMZLYLDI-UHFFFAOYSA-N
Kind: experiment
Temperature: 348 K
Tabular data in the source: 0
pressure (bar)	uptake (mmol/g)
0.007773	-0.00342
0.075287	0.06905
0.130976	0.14964
0.173132	0.21317
0.222288	0.27883
0.267551	0.34236
0.319974	0.41741
0.369276	0.49373
0.420619	0.55384
0.471641	0.63017
0.52313	0.689
0.572273	0.75082
0.624855	0.82501
0.674171	0.88043
0.725807	0.94353
0.774963	1.01047
0.826292	1.07101
0.876701	1.13027
0.92819	1.19166
0.977346	1.2441
1.01125	1.29783
1.02851	1.31872
