Adsorption isotherm of Carbon Dioxide on UFCA-2-500
DOI: 10.1016/j.jcis.2013.10.061
Article source: Figure 9a- UFCA 2 500
Adsorbate Carbon Dioxide: InChIKey CURLTUGMZLYLDI-UHFFFAOYSA-N
Kind: experiment
Temperature: 298 K
Tabular data in the source: 0
pressure (bar)	uptake (mmol/g)
0.071714	0.42642
0.124936	0.62602
0.16616	0.79492
0.213462	0.86221
0.265898	0.97025
0.315694	1.06176
0.36689	1.13141
0.418859	1.20637
0.469588	1.26657
0.519224	1.30905
0.57026	1.37692
0.620522	1.4194
0.672038	1.47428
0.722754	1.51616
0.77271	1.55273
0.823906	1.59225
0.874795	1.62823
0.927857	1.67779
0.975466	1.70196
1.00924	1.72023
1.02853	1.72966
