Adsorption isotherm of Carbon Dioxide on UFC
DOI: 10.1016/j.jcis.2013.10.061
Article source: Figure 9 right- UFC at 298 K
Adsorbate Carbon Dioxide: InChIKey CURLTUGMZLYLDI-UHFFFAOYSA-N
Kind: experiment
Temperature: 298 K
Tabular data in the source: 0
pressure (bar)	uptake (mmol/g)
0.115151	0.61094
0.177279	0.75864
0.210743	0.81003
0.263378	0.89332
0.316161	0.95888
0.366757	1.00967
0.418766	1.0646
0.468588	1.11244
0.519664	1.15377
0.568553	1.19393
0.620562	1.24354
0.671638	1.26774
0.722247	1.29607
0.774256	1.32559
0.825172	1.35156
0.875008	1.38344
0.926084	1.39641
0.977	1.42357
1.01297	1.43418
1.02745	1.45368
