Adsorption isotherm of Carbon Dioxide on UFCA-1-600
DOI: 10.1016/j.jcis.2013.10.061
Article source: Figure 9 right- UFCA 1 600 at 298 K
Adsorbate Carbon Dioxide: InChIKey CURLTUGMZLYLDI-UHFFFAOYSA-N
Kind: experiment
Temperature: 298 K
Tabular data in the source: 0
pressure (bar)	uptake (mmol/g)
0.066381	0.56401
0.115084	0.80608
0.180425	1.05519
0.213569	1.16438
0.265711	1.30778
0.316761	1.42045
0.36781	1.52309
0.418406	1.62099
0.469308	1.70295
0.520357	1.79613
0.570953	1.86981
0.621856	1.9305
0.671665	1.98823
0.722581	2.04537
0.771763	2.10074
0.827185	2.15373
0.874981	2.21325
0.92775	2.25915
0.976173	2.31335
1.01276	2.34513
1.02864	2.35749
