Adsorption isotherm of Carbon Dioxide on UFCA-4-600
DOI: 10.1016/j.jcis.2013.10.061
Article source: Figure 9 right- UFCA 4 600 at 298 K
Adsorbate Carbon Dioxide: InChIKey CURLTUGMZLYLDI-UHFFFAOYSA-N
Kind: experiment
Temperature: 298 K
Tabular data in the source: 0
pressure (bar)	uptake (mmol/g)
0.00016	0.00473
0.069928	0.42531
0.12195	0.64147
0.1626	0.7826
0.215716	0.95444
0.267578	1.09733
0.319134	1.22604
0.36929	1.35593
0.423179	1.47163
0.471148	1.57139
0.523637	1.66936
0.572846	1.75139
0.620976	1.85469
0.674398	1.94085
0.72766	2.01164
0.771123	2.09545
0.827505	2.18633
0.876101	2.27013
0.929524	2.33738
0.978266	2.42295
1.01192	2.46838
1.03076	2.49257
