Adsorption isotherm of Carbon Dioxide on UFCA-2-600
DOI: 10.1016/j.jcis.2013.10.061
Article source: Figure 9 right- UFCA 2 600 at 298 K
Adsorbate Carbon Dioxide: InChIKey CURLTUGMZLYLDI-UHFFFAOYSA-N
Kind: experiment
Temperature: 298 K
Tabular data in the source: 0
pressure (bar)	uptake (mmol/g)
0.001867	0.01478
0.067848	0.50442
0.115937	0.767
0.161373	0.97578
0.215542	1.21294
0.266911	1.40044
0.317027	1.57316
0.36825	1.72046
0.419765	1.87722
0.469268	2.01032
0.518931	2.14284
0.570926	2.2659
0.622922	2.3931
0.672891	2.50788
0.72566	2.62443
0.77563	2.73507
0.826852	2.84985
0.876195	2.94985
0.92695	3.04276
0.978173	3.13921
1.01086	3.20489
1.02924	3.24867
