Adsorption isotherm of Nitrogen on UFCA-2-500
DOI: 10.1016/j.jcis.2013.10.061
Article source: Figure 7a- UFCA 2 500
Adsorbate Nitrogen: InChIKey IJGRMHOSHXDMSA-UHFFFAOYSA-N
Kind: experiment
Temperature: 77 K
Tabular data in the source: 0
pressure (bar)	uptake (cm3(STP)/g)
0.010082	12.33
0.020822	12.85
0.065365	13.03
0.08107	13.83
0.121316	12.08
0.157844	13.38
0.176518	12.42
0.208334	12.27
0.248824	12.28
0.26304	11.32
0.298412	12.62
0.315597	12.46
0.351628	13.44
0.365925	12.16
0.404601	12.65
0.43973	11.7
0.456834	13.15
0.473441	12.99
0.50856	13.49
0.523769	11.73
0.560793	12.38
0.577401	11.9
0.612196	13.68
0.629796	11.92
0.664591	12.41
0.681856	11.94
0.719296	12.59
0.734505	11.31
0.750869	12.12
0.788633	11.65
0.80144	11.97
0.849701	12.31
0.907224	15.54
0.956224	19.09
1.00283	30.98
