Adsorption isotherm of Carbon Dioxide on UFCA-2-600
DOI: 10.1016/j.jcis.2013.10.061
Article source: Figure 1b- CO2
Adsorbate Carbon Dioxide: InChIKey CURLTUGMZLYLDI-UHFFFAOYSA-N
Kind: experiment
Temperature: 298 K
Tabular data in the source: 0
pressure (bar)	uptake (mmol/g)
0.002586	-0.00133
0.066728	0.49649
0.114724	0.76392
0.160853	0.98501
0.213849	1.19942
0.266231	1.38933
0.316641	1.56319
0.367316	1.7219
0.418272	1.87393
0.468228	2.01526
0.519717	2.14724
0.570673	2.27877
0.621709	2.39605
0.672478	2.51778
0.722354	2.63193
0.77411	2.73316
0.825145	2.84197
0.875835	2.94053
0.925897	3.04533
0.976133	3.14388
1.01102	3.21122
1.02797	3.24913
