Adsorption isotherm of Carbon Dioxide on UFCA-2-800
DOI: 10.1016/j.jcis.2013.10.061
Article source: Figure 9a- UFCA 2 800
Adsorbate Carbon Dioxide: InChIKey CURLTUGMZLYLDI-UHFFFAOYSA-N
Kind: experiment
Temperature: 298 K
Tabular data in the source: 0
pressure (bar)	uptake (mmol/g)
0.0056	0.00945
0.074754	0.24523
0.12303	0.39709
0.165533	0.51408
0.219729	0.64641
0.268325	0.77166
0.318934	0.90282
0.372036	1.02984
0.421245	1.14858
0.474508	1.25786
0.52309	1.37897
0.573699	1.49771
0.624002	1.60286
0.676011	1.71509
0.72398	1.82615
0.777549	1.93129
0.826599	2.03998
0.880021	2.14453
0.928297	2.25322
0.981079	2.35245
1.01518	2.42451
1.02889	2.45405
