Adsorption isotherm of Nitrogen on UFA-4-600
DOI: 10.1016/j.jcis.2013.10.061
Article source: Figure 7b- UFA 4 600
Adsorbate Nitrogen: InChIKey IJGRMHOSHXDMSA-UHFFFAOYSA-N
Kind: experiment
Temperature: 77 K
Tabular data in the source: 0
pressure (bar)	uptake (cm3(STP)/g)
0.014145	227.17
0.023518	238.329
0.077696	273.113
0.130172	288.646
0.186114	299.497
0.235793	304.31
0.243707	305.579
0.285483	308.904
0.299	308.466
0.336409	310.698
0.340361	310.348
0.387497	312.317
0.436853	313.848
0.492308	315.38
0.541582	315.511
0.593501	316.605
0.64698	317.305
0.697906	318.442
0.750312	318.53
0.801075	319.405
0.836012	320.368
0.848455	320.324
0.890485	321.155
0.902765	320.936
0.940995	322.774
0.953681	321.943
0.999662	323.649
