Adsorption isotherm of Carbon Dioxide on UFCA-2-600
DOI: 10.1016/j.jcis.2013.10.061
Article source: Figure 9a- UFCA 2 600
Adsorbate Carbon Dioxide: InChIKey CURLTUGMZLYLDI-UHFFFAOYSA-N
Kind: experiment
Temperature: 298 K
Tabular data in the source: 0
pressure (bar)	uptake (mmol/g)
0.006999	0.0124
0.068754	0.49879
0.11823	0.76589
0.16444	0.97389
0.216569	1.20966
0.266525	1.39104
0.317094	1.56652
0.368756	1.71835
0.418712	1.87019
0.469908	2.00783
0.520797	2.13484
0.571686	2.26362
0.624295	2.39121
0.672998	2.50876
0.724674	2.6269
0.775096	2.73617
0.827079	2.84544
0.876261	2.94644
0.92839	3.04566
0.9768	3.12715
1.01134	3.20572
1.02939	3.24174
