Adsorption isotherm of Carbon Dioxide on UFCA-2-800
DOI: 10.1016/j.jcis.2013.10.061
Article source: Figure 9c- UFCA 2 800
Adsorbate Carbon Dioxide: InChIKey CURLTUGMZLYLDI-UHFFFAOYSA-N
Kind: experiment
Temperature: 348 K
Tabular data in the source: 0
pressure (bar)	uptake (mmol/g)
0.001867	0.00042
0.074141	0.08053
0.131136	0.12993
0.168373	0.17254
0.218982	0.22452
0.270538	0.27052
0.318041	0.32208
0.369596	0.37362
0.418819	0.42134
0.474574	0.4652
0.520517	0.51292
0.573779	0.56276
0.622229	0.61559
0.674864	0.65989
0.723154	0.71101
0.777349	0.75189
0.826252	0.80089
0.879061	0.84689
0.92687	0.89076
0.980759	0.94615
1.01581	0.98065
1.03076	0.99428
