Adsorption isotherm of Nitrogen on UFCA-2-700
DOI: 10.1016/j.jcis.2013.10.061
Article source: Figure 8a- UFCA 2 700
Adsorbate Nitrogen: InChIKey IJGRMHOSHXDMSA-UHFFFAOYSA-N
Kind: experiment
Temperature: 77 K
Tabular data in the source: 0
pressure (bar)	uptake (cm3(STP)/g)
1e-06	159.416
9e-06	139.451
1.1e-05	82.127
1.1e-05	80.311
1.2e-05	125.059
3.7e-05	179.688
0.000114	217.75
0.000117	218.883
0.000249	238.726
0.000345	258.813
0.00051	280.922
0.000681	301.622
0.000857	325.139
0.001262	343.143
0.001895	358.882
0.002847	378.906
0.004143	396.787
0.006015	414.053
0.008439	430.339
0.011472	446.501
0.015074	459.049
0.01901	474.413
0.023404	486.898
0.028154	499.566
0.03311	510.457
