Adsorption isotherm of Nitrogen on UFC
DOI: 10.1016/j.jcis.2013.10.061
Article source: Figure 1a- N2
Adsorbate Nitrogen: InChIKey IJGRMHOSHXDMSA-UHFFFAOYSA-N
Kind: experiment
Temperature: 77 K
Tabular data in the source: 0
pressure (bar)	uptake (cm3(STP)/g)
0.017752	1.311
0.023345	1.253
0.066246	-0.16
0.082772	1.318
0.117456	-0.005
0.124528	1.607
0.158472	-0.321
0.176478	2.097
0.209439	-0.614
0.227931	1.916
0.262543	-0.594
0.280295	2.048
0.31432	-0.753
0.331252	1.822
0.367749	-0.509
0.403182	1.617
0.418472	-1.093
0.455537	1.861
0.470584	-1.14
0.506666	1.523
0.524012	-1.008
0.560094	1.52
0.575303	-0.809
0.612287	1.07
0.628316	-0.924
0.662838	1.001
0.67986	-0.926
0.715942	0.864
0.732549	-1.062
0.767314	0.862
0.785319	-1.042
0.820246	0.524
0.83735	-0.978
0.871537	0.297
0.890039	-0.823
0.923658	0.094
0.945605	0.003
0.974453	0.696
1.00355	1.613
