Adsorption isotherm of Nitrogen on UFCA-2-600
DOI: 10.1016/j.jcis.2013.10.061
Article source: Figure 8a- UFCA 2 600
Adsorbate Nitrogen: InChIKey IJGRMHOSHXDMSA-UHFFFAOYSA-N
Kind: experiment
Temperature: 77 K
Tabular data in the source: 0
pressure (bar)	uptake (cm3(STP)/g)
8e-06	34.031
8e-06	36.152
1e-05	99.033
1e-05	102.27
1.1e-05	122.971
1.1e-05	122.787
0.000579	196.815
0.00147	217.711
0.003418	232.666
0.006913	247.379
0.011647	258.663
0.017373	267.069
0.023931	275.371
0.030911	282.844
