Adsorption isotherm of Nitrogen on UFCA-3-600
DOI: 10.1016/j.jcis.2013.10.061
Article source: Figure 7b- UFCA 3 600
Adsorbate Nitrogen: InChIKey IJGRMHOSHXDMSA-UHFFFAOYSA-N
Kind: experiment
Temperature: 77 K
Tabular data in the source: 0
pressure (bar)	uptake (cm3(STP)/g)
0.012311	279.249
0.022018	290.235
0.073521	331.189
0.076075	331.758
0.129331	348.387
0.130973	349.787
0.189265	358.367
0.23403	364.54
0.247385	362.703
0.285554	367.213
0.298919	366.514
0.339895	368.53
0.386069	370.196
0.437673	372.301
0.439244	372.388
0.488052	373.005
0.489623	373.224
0.541815	374.541
0.545027	374.546
0.593339	375.027
0.642482	375.425
0.649655	376.475
0.693681	377.048
0.698636	377.223
0.74481	377.971
0.752966	378.89
0.798228	379.157
0.805655	379.682
0.841433	379.642
0.847452	380.08
0.897912	380.872
0.949527	380.876
0.996612	383.33
