Adsorption isotherm of Carbon Dioxide on UFCA-2-700
DOI: 10.1016/j.jcis.2013.10.061
Article source: Figure 9a- UFCA 2 700
Adsorbate Carbon Dioxide: InChIKey CURLTUGMZLYLDI-UHFFFAOYSA-N
Kind: experiment
Temperature: 298 K
Tabular data in the source: 0
pressure (bar)	uptake (mmol/g)
0.006066	0.01535
0.072247	0.36134
0.123163	0.5721
0.16552	0.74804
0.216582	0.92868
0.266551	1.09692
0.317001	1.25158
0.368063	1.42041
0.418966	1.5609
0.469561	1.70433
0.522024	1.85603
0.5709	1.99534
0.623202	2.12164
0.673958	2.25327
0.722527	2.39434
0.775443	2.51002
0.824799	2.63456
0.875075	2.75732
0.92675	2.86768
0.976573	3.00462
1.01237	3.06658
1.02965	3.11439
