Adsorption isotherm of Nitrogen on UFC
DOI: 10.1016/j.jcis.2013.10.061
Article source: Figure 7a- UFC
Adsorbate Nitrogen: InChIKey IJGRMHOSHXDMSA-UHFFFAOYSA-N
Kind: experiment
Temperature: 77 K
Tabular data in the source: 0
pressure (bar)	uptake (cm3(STP)/g)
0.009504	6.9
0.024723	7.7
0.064737	7.86
0.084819	6.89
0.110698	4.48
0.126241	3.83
0.153355	5.43
0.177005	6.07
0.211475	6.23
0.232146	6.06
0.261824	6.7
0.279687	7.34
0.313084	4.93
0.333511	5.73
0.367901	5.88
0.405351	5.55
0.421228	4.91
0.454706	4.9
0.472478	6.03
0.507203	8.11
0.52539	2
0.557804	5.53
0.575901	-0.25
0.611121	3.6
0.629644	-1.87
0.664783	3.43
0.682718	1.02
0.716449	5.51
0.734312	-0.28
0.770273	5.5
0.788045	0.04
0.821533	5.81
0.840045	5.65
0.873452	6.28
0.888904	6.12
0.925614	4.83
0.948189	4.99
0.978607	3.54
1.00589	1.61
