Adsorption isotherm of Nitrogen on UFCA-4-600
DOI: 10.1016/j.jcis.2013.10.061
Article source: Figure 8a- UFCA 4 600
Adsorbate Nitrogen: InChIKey IJGRMHOSHXDMSA-UHFFFAOYSA-N
Kind: experiment
Temperature: 77 K
Tabular data in the source: 0
pressure (bar)	uptake (cm3(STP)/g)
2e-06	61.884
4e-06	42.285
7e-06	100.592
1e-05	79.867
1e-05	80.625
3.5e-05	121.048
0.000106	141.566
0.000384	157.489
0.001091	176.719
0.003042	193.128
0.006743	207.449
0.01186	219.623
0.018119	227.628
0.025275	235.754
0.032838	242.715
