Adsorption isotherm of Carbon Dioxide on UFCA-1-600
DOI: 10.1016/j.jcis.2013.10.061
Article source: Figure 9 right- UFCA 1 600 at 348 K
Adsorbate Carbon Dioxide: InChIKey CURLTUGMZLYLDI-UHFFFAOYSA-N
Kind: experiment
Temperature: 348 K
Tabular data in the source: 0
pressure (bar)	uptake (mmol/g)
0.072167	0.12235
0.128123	0.22254
0.164586	0.26303
0.217889	0.34146
0.271804	0.40112
0.31904	0.47018
0.36953	0.52558
0.422352	0.56221
0.472388	0.61206
0.521784	0.67301
0.569473	0.71988
0.620896	0.76803
0.674038	0.81233
0.725154	0.84768
0.775656	0.90137
0.826145	0.93118
0.875235	0.96653
0.928057	1.00955
0.97668	1.0368
1.01221	1.07216
1.02903	1.08452
