Adsorption isotherm of Carbon Dioxide on UFCA-3-600
DOI: 10.1016/j.jcis.2013.10.061
Article source: Figure 9 right- UFCA 3 600 at 298 K
Adsorbate Carbon Dioxide: InChIKey CURLTUGMZLYLDI-UHFFFAOYSA-N
Kind: experiment
Temperature: 298 K
Tabular data in the source: 0
pressure (bar)	uptake (mmol/g)
0.00436	0.01065
0.066954	0.51765
0.114977	0.76792
0.16116	0.97086
0.215102	1.19392
0.265018	1.3732
0.316801	1.53474
0.368423	1.69865
0.420992	1.83831
0.469055	1.97086
0.52209	2.10342
0.570766	2.22592
0.623642	2.34428
0.672958	2.45021
0.72506	2.56503
0.77467	2.67215
0.825532	2.7905
0.876088	2.89171
0.925084	2.97635
0.976733	3.07933
1.01157	3.13497
1.0279	3.17936
