Adsorption isotherm of Nitrogen on UFC
DOI: 10.1016/j.jcis.2013.10.061
Article source: Figure 7b- UFC
Adsorbate Nitrogen: InChIKey IJGRMHOSHXDMSA-UHFFFAOYSA-N
Kind: experiment
Temperature: 77 K
Tabular data in the source: 0
pressure (bar)	uptake (cm3(STP)/g)
0.011288	-0.306
0.026537	-0.305
0.065608	-0.435
0.085559	0.485
0.118773	-0.214
0.126606	1.319
0.160397	-0.124
0.180014	1.408
0.211425	-0.56
0.229714	1.235
0.263759	-0.251
0.283538	1.106
0.31734	-0.555
0.334069	1.196
0.367202	-0.597
0.404378	1.506
0.421107	-0.77
0.456966	1.464
0.473117	-0.549
0.511864	1.204
0.524965	-0.678
0.560905	1.118
0.576975	-0.369
0.615053	0.771
0.631133	-4.585
0.631376	-4.568
0.665006	0.641
0.681411	-5.462
0.681573	-5.442
0.718415	-0.669
0.735153	-0.35
0.735316	-0.318
0.770344	-0.798
0.788227	-0.491
0.821695	-0.577
0.839336	-0.489
0.873128	-0.488
0.892005	-0.268
0.927691	-0.485
0.945666	-0.309
0.975253	-0.352
1.00542	1.006
