Adsorption isotherm of Carbon Dioxide on UFC
DOI: 10.1016/j.jcis.2013.10.061
Article source: Figure 1a- CO2 at 298 K
Adsorbate Carbon Dioxide: InChIKey CURLTUGMZLYLDI-UHFFFAOYSA-N
Kind: experiment
Temperature: 298 K
Tabular data in the source: 0
pressure (bar)	uptake (mmol/g)
0.001107	0.03386
0.069021	0.47777
0.114631	0.62306
0.177452	0.7619
0.211249	0.8221
0.263018	0.90381
0.315401	0.971
0.366143	1.02654
0.416712	1.07744
0.468588	1.12385
0.519251	1.16596
0.569913	1.20306
0.620309	1.23621
0.672278	1.27045
0.722767	1.29984
0.773003	1.32834
0.824092	1.35343
0.874501	1.37871
0.925604	1.40542
0.977053	1.42442
1.01102	1.44217
1.02858	1.45185
