Adsorption isotherm of Nitrogen on UFCA-2-600
DOI: 10.1016/j.jcis.2013.10.061
Article source: Figure 1b- N2
Adsorbate Nitrogen: InChIKey IJGRMHOSHXDMSA-UHFFFAOYSA-N
Kind: experiment
Temperature: 77 K
Tabular data in the source: 0
pressure (bar)	uptake (cm3(STP)/g)
0.010518	269.261
0.019677	292.961
0.02061	293.525
0.074818	330.566
0.076085	330.943
0.127153	343.69
0.130892	338.773
0.18204	349.38
0.191373	344.691
0.230302	353.022
0.247608	348.879
0.283153	355.525
0.293417	350.973
0.336247	357.255
0.339054	353.886
0.382654	355.161
0.388419	360.123
0.434563	357.346
0.439487	361.443
0.485965	358.12
0.492754	362.672
0.538218	359.85
0.5445	364.083
0.589711	360.988
0.597088	364.539
0.642137	362.126
0.648409	365.494
0.694137	362.718
0.702111	366.041
0.745114	363.583
0.753088	366.86
0.797286	365.085
0.805767	368.044
0.840542	367.862
0.84962	365.267
0.892035	368.544
0.90162	366.45
0.952769	368.772
0.953701	367.224
1.00129	373.825
