Adsorption isotherm of Carbon Dioxide on UFC
DOI: 10.1016/j.jcis.2013.10.061
Article source: Figure 1a- CO2 at 348 K
Adsorbate Carbon Dioxide: InChIKey CURLTUGMZLYLDI-UHFFFAOYSA-N
Kind: experiment
Temperature: 348 K
Tabular data in the source: 0
pressure (bar)	uptake (mmol/g)
0.001893	0.03637
0.068208	0.11695
0.12639	0.19234
0.1652	0.23729
0.215782	0.2894
0.266005	0.3347
0.317707	0.37337
0.367863	0.41437
0.419819	0.45376
0.470321	0.48329
0.519517	0.51695
0.572953	0.54182
0.621976	0.56742
0.672905	0.59426
0.725047	0.62021
0.77407	0.64312
0.826119	0.6671
0.876528	0.68463
0.927457	0.70431
0.977866	0.72417
1.01366	0.73813
1.02837	0.74815
