Adsorption isotherm of Nitrogen on UFCA-2-800
DOI: 10.1016/j.jcis.2013.10.061
Article source: Figure 7a- UFCA 2 800
Adsorbate Nitrogen: InChIKey IJGRMHOSHXDMSA-UHFFFAOYSA-N
Kind: experiment
Temperature: 77 K
Tabular data in the source: 0
pressure (bar)	uptake (cm3(STP)/g)
0.011581	483.85
0.02447	535.34
0.075132	656.93
0.124478	758.94
0.135056	759.42
0.176792	861.92
0.186053	854.7
0.227627	961.69
0.237293	973.72
0.276638	1056.81
0.282676	1071.73
0.332518	1154.17
0.334089	1156.68
0.390547	1202.28
0.392037	1204.43
0.438413	1239.97
0.446924	1257.77
0.499512	1260.96
0.546973	1269.77
0.605427	1276.33
0.643373	1282.74
0.653374	1282.57
0.701493	1285.77
0.751852	1289.92
0.756979	1292.01
0.805757	1298.41
0.809313	1299
0.855862	1303.04
0.904802	1307.52
0.961605	1308.79
1.00741	1318.88
