Adsorption isotherm of Carbon Dioxide on UFC
DOI: 10.1016/j.jcis.2013.10.061
Article source: Figure 9c- UFC
Adsorbate Carbon Dioxide: InChIKey CURLTUGMZLYLDI-UHFFFAOYSA-N
Kind: experiment
Temperature: 348 K
Tabular data in the source: 0
pressure (bar)	uptake (mmol/g)
0.069034	0.08667
0.170786	0.20109
0.216289	0.27111
0.268645	0.34155
0.316321	0.34712
0.366183	0.38555
0.420565	0.42911
0.468388	0.46199
0.519037	0.4889
0.574193	0.51922
0.621402	0.54485
0.674211	0.5692
0.725327	0.59013
0.773163	0.62728
0.827065	0.63968
0.878008	0.66488
0.92663	0.68838
0.979133	0.70632
1.01497	0.71402
1.0279	0.72726
