Adsorption isotherm of Carbon Dioxide on UFCA-2-500
DOI: 10.1016/j.jcis.2013.10.061
Article source: Figure 9c- UFCA 2 500
Adsorbate Carbon Dioxide: InChIKey CURLTUGMZLYLDI-UHFFFAOYSA-N
Kind: experiment
Temperature: 348 K
Tabular data in the source: 0
pressure (bar)	uptake (mmol/g)
0.129736	0.16514
0.212129	0.23983
0.265392	0.29488
0.318187	0.34396
0.368796	0.39177
0.419419	0.44298
0.468935	0.48012
0.520491	0.52025
0.569393	0.56719
0.622175	0.5941
0.671545	0.63593
0.723407	0.67563
0.772936	0.71832
0.825719	0.7529
0.875861	0.78407
0.928044	0.8242
0.975693	0.85451
1.01229	0.87629
1.03019	0.8908
