Adsorption isotherm of Nitrogen on UFCA-2-600
DOI: 10.1016/j.jcis.2013.10.061
Article source: Figure 7a- UFCA 2 600
Adsorbate Nitrogen: InChIKey IJGRMHOSHXDMSA-UHFFFAOYSA-N
Kind: experiment
Temperature: 77 K
Tabular data in the source: 0
pressure (bar)	uptake (cm3(STP)/g)
0.011652	278.77
0.020579	291.22
0.076055	326.09
0.131439	340.09
0.182527	347.99
0.19195	343.5
0.232622	354.44
0.248246	348.51
0.283051	355.11
0.293468	349.98
0.33803	357.07
0.386383	357.1
0.437309	357.14
0.440612	359.87
0.488893	357.17
0.491122	357.49
0.544115	360.42
0.54445	363.31
0.59727	366.43
0.597514	366.39
0.647365	360
0.650425	365.78
0.696802	367.9
0.698616	367.9
0.750281	367.46
0.752348	367.61
0.803771	370.22
0.804926	370.21
0.844361	370.56
0.847665	370.72
0.899006	369.79
0.902887	369.31
0.955718	371.75
1.00498	376.28
