Adsorption isotherm of Carbon Dioxide on UFCA-2-600
DOI: 10.1016/j.jcis.2013.10.061
Article source: Figure 1b- CO2 at 348 K
Adsorbate Carbon Dioxide: InChIKey CURLTUGMZLYLDI-UHFFFAOYSA-N
Kind: experiment
Temperature: 348 K
Tabular data in the source: 0
pressure (bar)	uptake (mmol/g)
0.005173	-0.00579
0.073527	0.07264
0.128056	0.14927
0.168573	0.20452
0.216756	0.28071
0.267978	0.34532
0.3184	0.41528
0.370076	0.48479
0.420139	0.55251
0.470281	0.62737
0.522397	0.68886
0.57246	0.75837
0.622709	0.82298
0.674371	0.8818
0.723634	0.94997
0.775923	1.00745
0.824652	1.06538
0.876861	1.13177
0.92683	1.18881
0.978586	1.24673
1.01161	1.29352
1.02848	1.31491
