Adsorption isotherm of Nitrogen on UFCA-2-800
DOI: 10.1016/j.jcis.2013.10.061
Article source: Figure 8a- UFCA 2 800
Adsorbate Nitrogen: InChIKey IJGRMHOSHXDMSA-UHFFFAOYSA-N
Kind: experiment
Temperature: 77 K
Tabular data in the source: 0
pressure (bar)	uptake (cm3(STP)/g)
1e-05	99.826
1.8e-05	139.39
2.6e-05	79.555
2.9e-05	120.159
3.4e-05	36.623
3.4e-05	17.111
3.6e-05	17.638
6.3e-05	157.579
0.00011	179.565
0.000127	213.615
0.000135	218.455
0.000204	239.706
0.00024	259.304
0.000392	279.085
0.000469	298.745
0.000701	320.057
0.000822	339.165
0.001012	359.008
0.001302	380.198
0.001709	400.163
0.002183	420.68
0.002755	438.073
0.00359	456.568
0.004718	475.921
0.006169	493.865
0.008104	511.197
0.010485	527.488
0.013383	543.717
0.016705	559.028
0.020412	572.93
0.024516	586.404
0.028939	599.449
0.033554	611.391
