Adsorption isotherm of Nitrogen on UFCA-2-600
DOI: 10.1016/j.jcis.2013.10.061
Article source: Figure 7b- UFCA 2 600
Adsorbate Nitrogen: InChIKey IJGRMHOSHXDMSA-UHFFFAOYSA-N
Kind: experiment
Temperature: 77 K
Tabular data in the source: 0
pressure (bar)	uptake (cm3(STP)/g)
0.013496	268.68
0.022109	291.433
0.022109	291.435
0.080634	325.001
0.08105	325.312
0.128237	340.712
0.132108	337.562
0.184746	349.116
0.191585	343.516
0.236543	352.094
0.252289	346.756
0.286192	354.941
0.296659	350.74
0.335102	356.693
0.340948	351.967
0.385734	354.201
0.391348	357.177
0.439761	359.848
0.439842	359.846
0.488994	356.481
0.493949	361.601
0.54063	358.321
0.547885	361.341
0.593167	359.242
0.598608	363.137
0.647598	362.133
0.652381	364.146
0.698808	361.566
0.70508	364.411
0.750768	363.494
0.75481	363.669
0.802231	363.408
0.809496	364.24
0.848171	365.467
0.897324	365.338
0.900708	365.776
0.955799	366.434
1.00389	372.125
