Adsorption isotherm of Carbon Dioxide on UFC
DOI: 10.1016/j.jcis.2013.10.061
Article source: Figure 9a- UFC
Adsorbate Carbon Dioxide: InChIKey CURLTUGMZLYLDI-UHFFFAOYSA-N
Kind: experiment
Temperature: 298 K
Tabular data in the source: 0
pressure (bar)	uptake (mmol/g)
0.069288	0.40418
0.117564	0.61926
0.177199	0.75749
0.212689	0.80591
0.264392	0.89214
0.316387	0.96182
0.364503	1.00964
0.419152	1.06868
0.467735	1.11118
0.520984	1.15309
0.569566	1.19322
0.621576	1.24104
0.672331	1.27112
0.722154	1.29353
0.772923	1.32598
0.825545	1.35251
0.876301	1.38083
0.926444	1.39436
0.976733	1.42209
1.01286	1.43387
1.02781	1.45276
