Adsorption isotherm of Carbon Dioxide on UFCA-4-600
DOI: 10.1016/j.jcis.2013.10.061
Article source: Figure 9 right- UFCA 4 600 at 348 K
Adsorbate Carbon Dioxide: InChIKey CURLTUGMZLYLDI-UHFFFAOYSA-N
Kind: experiment
Temperature: 348 K
Tabular data in the source: 0
pressure (bar)	uptake (mmol/g)
0.074767	0.09537
0.130536	0.17586
0.167293	0.23165
0.215742	0.29339
0.270098	0.3517
0.318854	0.41088
0.372596	0.46237
0.422125	0.51472
0.473374	0.57603
0.521037	0.6254
0.575553	0.67945
0.621496	0.7284
0.674771	0.77562
0.723674	0.8203
0.777256	0.86838
0.830838	0.90282
0.878034	0.95134
0.927577	0.99729
0.982239	1.04153
1.01713	1.07302
1.02773	1.08238
