Adsorption isotherm of Carbon Dioxide on UFCA-2-600
DOI: 10.1016/j.jcis.2013.10.061
Article source: Figure 9 right- UFCA 2 600 at 348 K
Adsorbate Carbon Dioxide: InChIKey CURLTUGMZLYLDI-UHFFFAOYSA-N
Kind: experiment
Temperature: 348 K
Tabular data in the source: 0
pressure (bar)	uptake (mmol/g)
0.000933	0.00597
0.073501	0.12022
0.129416	0.21444
0.168506	0.26645
0.219115	0.32271
0.269578	0.40414
0.320027	0.47362
0.370636	0.56059
0.421419	0.61941
0.471241	0.68762
0.523424	0.7507
0.572633	0.80568
0.625109	0.87175
0.674011	0.92034
0.725407	0.98087
0.775563	1.03116
0.827265	1.08699
0.877248	1.13387
0.928804	1.1833
0.978333	1.23402
1.01274	1.27324
1.03097	1.28644
