Adsorption isotherm of Carbon Dioxide on UFCA-3-600
DOI: 10.1016/j.jcis.2013.10.061
Article source: Figure 9 right- UFCA 3 600 at 348 K
Adsorbate Carbon Dioxide: InChIKey CURLTUGMZLYLDI-UHFFFAOYSA-N
Kind: experiment
Temperature: 348 K
Tabular data in the source: 0
pressure (bar)	uptake (mmol/g)
0.004053	-0.00043
0.073074	0.09816
0.129616	0.18694
0.167786	0.25011
0.218422	0.32181
0.266885	0.39181
0.319227	0.46863
0.369703	0.5271
0.424072	0.58685
0.474401	0.64789
0.524717	0.70764
0.57146	0.77678
0.626455	0.83227
0.675691	0.8805
0.727407	0.92787
0.778509	0.98464
0.827279	1.04695
0.876821	1.08963
0.928697	1.13999
0.979173	1.18993
1.01438	1.22791
1.02997	1.24413
