Adsorption isotherm of Nitrogen on UFCA-2-700
DOI: 10.1016/j.jcis.2013.10.061
Article source: Figure 7a- UFCA 2 700
Adsorbate Nitrogen: InChIKey IJGRMHOSHXDMSA-UHFFFAOYSA-N
Kind: experiment
Temperature: 77 K
Tabular data in the source: 0
pressure (bar)	uptake (cm3(STP)/g)
0.009869	402.89
0.020863	447.67
0.072316	549.58
0.119047	608.47
0.12773	622.43
0.175373	666.08
0.180419	678.76
0.224587	709.24
0.240556	707.31
0.288776	734.58
0.313175	732.65
0.339652	747.78
0.376443	741.71
0.391743	762.96
0.401835	747.22
0.437319	753.63
0.439132	761.66
0.491325	762.12
0.493473	762.34
0.541694	759.54
0.54831	772.86
0.595041	766.26
0.600827	781.99
0.646484	772.51
0.650618	774.91
0.699173	772.01
0.704715	785.49
0.752521	783.37
0.754831	783.39
0.803791	781.61
0.80752	786.9
0.847715	787.05
0.854251	785.76
0.902633	787.68
0.906433	787.03
0.951259	791.99
0.95515	791.99
1.00502	798.4
