Adsorption isotherm of Nitrogen on UFCA-1-600
DOI: 10.1016/j.jcis.2013.10.061
Article source: Figure 7b- UFCA 1 600
Adsorbate Nitrogen: InChIKey IJGRMHOSHXDMSA-UHFFFAOYSA-N
Kind: experiment
Temperature: 77 K
Tabular data in the source: 0
pressure (bar)	uptake (cm3(STP)/g)
0.00916	111.218
0.020387	116.665
0.022697	116.91
0.073927	128.126
0.075568	123.312
0.12696	130.676
0.130253	125.819
0.177187	132.219
0.180318	128.062
0.230393	132.274
0.230798	132.266
0.284085	128.958
0.284166	128.96
0.334646	129.422
0.334727	129.408
0.384123	130.119
0.387426	134.322
0.436336	131.531
0.43815	131.513
0.490281	132.155
0.492014	132.197
0.525502	133.826
0.541825	131.641
0.578039	133.356
0.59115	132.177
0.649047	133.153
0.696478	132.025
0.702831	133.864
0.750666	131.993
0.753473	133.657
0.803619	134.061
0.839913	135.12
0.852113	133.897
0.892856	135.131
0.901934	134.214
0.947379	135.493
0.955961	135.495
1.00124	139.838
