Adsorption isotherm of Carbon Dioxide on UFC
DOI: 10.1016/j.jcis.2013.10.061
Article source: Figure 9 right- UFC at 348 K
Adsorbate Carbon Dioxide: InChIKey CURLTUGMZLYLDI-UHFFFAOYSA-N
Kind: experiment
Temperature: 348 K
Tabular data in the source: 0
pressure (bar)	uptake (mmol/g)
0.069928	0.09418
0.126003	0.16406
0.16432	0.20838
0.215249	0.2659
0.267738	0.30038
0.316801	0.34724
0.367103	0.38685
0.419899	0.42517
0.471921	0.45881
0.520357	0.49244
0.573006	0.5184
0.620669	0.54521
0.673771	0.56989
0.7247	0.59115
0.77455	0.62735
0.827185	0.63966
0.877808	0.66348
0.92671	0.68603
0.978266	0.70431
1.01332	0.7128
1.02656	0.72728
