Adsorption isotherm of Carbon Dioxide on UFCA-2-600
DOI: 10.1016/j.jcis.2013.10.061
Article source: Figure 9c- UFCA 2 600
Adsorbate Carbon Dioxide: InChIKey CURLTUGMZLYLDI-UHFFFAOYSA-N
Kind: experiment
Temperature: 348 K
Tabular data in the source: 0
pressure (bar)	uptake (mmol/g)
0.006853	0.00809
0.074701	0.1146
0.128083	0.20194
0.169479	0.26328
0.218502	0.33826
0.267845	0.40599
0.318267	0.48097
0.36869	0.55083
0.420512	0.61727
0.470788	0.68543
0.52245	0.74122
0.5721	0.80213
0.624242	0.87369
0.673731	0.92266
0.724767	0.98058
0.77551	1.03254
0.826865	1.08961
0.876821	1.14668
0.92771	1.19309
0.977506	1.2297
1.01144	1.26973
1.0245	1.29785
