Adsorption isotherm of Carbon Dioxide on ZMmt
DOI: 10.1007/s10450-020-00200-z
Article source: Figure 9A
Adsorbate Carbon Dioxide: InChIKey CURLTUGMZLYLDI-UHFFFAOYSA-N
Kind: experiment
Temperature: 273 K
Tabular data in the source: 0
pressure (bar)	uptake (mg/g)
0.102256	1.09598
0.555523	3.34385
1.00829	5.04625
1.71927	7.16948
2.46729	9.52166
3.43694	12.5657
5.0987	17.2322
