Adsorption isotherm of Carbon Dioxide on ZMmt-8h
DOI: 10.1007/s10450-020-00200-z
Article source: Figure 9C
Adsorbate Carbon Dioxide: InChIKey CURLTUGMZLYLDI-UHFFFAOYSA-N
Kind: experiment
Temperature: 303 K
Tabular data in the source: 0
pressure (bar)	uptake (mg/g)
0.125319	4.65374
0.592964	12.2992
0.998781	18.1163
1.5231	22.4377
2.16726	26.5928
3.24208	31.4127
5.21839	37.7285
