Adsorption isotherm of Nitrogen on ZMmt-8h
DOI: 10.1007/s10450-020-00200-z
Article source: Figure 5c
Adsorbate Nitrogen: InChIKey IJGRMHOSHXDMSA-UHFFFAOYSA-N
Kind: experiment
Temperature: 77 K
Tabular data in the source: 0
pressure (bar)	uptake (cm3(STP)/g)
0.01393	14.7226
0.013861	19.1343
0.016159	22.8141
0.01847	25.7586
0.030205	28.7169
0.044297	31.6785
0.051366	31.6887
0.079596	34.6709
0.098423	36.1688
0.121987	36.203
0.140803	38.4362
0.169056	39.9478
0.178481	39.9615
0.192585	42.1878
0.29616	48.9558
0.402126	53.5214
0.489253	57.3243
0.508057	60.2927
0.55508	66.9786
0.59977	72.1906
0.653885	77.4162
0.693827	84.8271
0.705574	87.05
0.740792	95.1893
0.766608	101.844
0.787711	108.493
0.799435	112.186
0.808814	115.141
0.827549	122.521
0.843963	127.692
0.853296	133.588
0.869652	142.435
0.885973	153.488
0.904662	163.81
0.913972	171.176
0.923293	177.807
0.930247	185.17
0.934902	188.853
0.93951	195.478
0.939418	201.36
0.946429	205.047
0.955739	212.413
0.9626	225.658
0.969461	238.904
0.976449	244.061
0.981058	250.685
0.988012	258.048
0.987989	259.519
0.990229	266.875
0.992505	272.025
0.997137	277.179
0.315022	48.2479
0.338551	50.4879
0.364424	53.4666
0.380896	54.9611
0.413873	55.7443
0.435034	58.7162
0.444436	60.2004
0.460907	61.6949
0.472666	63.1826
0.519793	63.251
0.552758	64.7694
0.566862	66.9957
0.583333	68.4902
0.597448	69.9813
0.620942	74.4272
0.637367	78.8628
0.653827	81.0925
0.693746	89.974
0.710183	93.6743
0.721907	97.3678
0.740677	102.542
0.757102	106.978
0.764078	112.87
0.78048	118.776
0.796894	123.947
0.801537	128.366
0.817916	135.742
0.824927	139.429
0.836594	146.799
0.84826	154.169
0.862236	164.483
0.869178	172.582
0.878488	179.948
0.87843	183.624
0.880717	188.039
0.880694	189.51
0.885361	192.458
0.901705	202.041
0.90636	205.724
0.91098	211.613
0.915647	214.561
0.922646	218.983
0.927278	224.136
0.943646	232.248
0.9483	235.932
0.952921	241.821
0.957518	249.18
0.966862	254.341
0.973827	260.969
0.983149	267.6
0.994757	278.646
