Adsorption isotherm of Carbon Dioxide on ZMmt-3h
DOI: 10.1007/s10450-020-00200-z
Article source: Figure 9B
Adsorbate Carbon Dioxide: InChIKey CURLTUGMZLYLDI-UHFFFAOYSA-N
Kind: experiment
Temperature: 273 K
Tabular data in the source: 0
pressure (bar)	uptake (mg/g)
0.114398	8.37365
0.55791	20.2582
0.980114	27.6184
1.46358	32.9653
2.09077	38.3074
3.17023	46.6511
5.14362	59.1548
