Adsorption isotherm of Nitrogen on ZMmt-1h
DOI: 10.1007/s10450-020-00200-z
Article source: Figure 5b
Adsorbate Nitrogen: InChIKey IJGRMHOSHXDMSA-UHFFFAOYSA-N
Kind: experiment
Temperature: 77 K
Tabular data in the source: 0
pressure (bar)	uptake (cm3(STP)/g)
0.01375	30.2892
0.015998	37.8633
0.022969	46.1914
0.039493	49.2094
0.063108	52.9796
0.07968	52.9672
0.110409	55.9745
0.1293	58.9907
0.157662	61.9998
0.169487	62.7485
0.216788	65.7435
0.268835	67.9773
0.287751	69.4783
0.335052	72.4732
0.387052	77.7374
0.410726	77.7197
0.455683	79.2012
0.510063	83.706
0.562098	86.6974
0.609435	87.4196
0.668549	91.9209
0.715826	96.431
0.767826	101.695
0.81747	106.203
0.848223	107.696
0.904982	111.441
0.947476	118.985
0.978121	127.295
0.992242	132.588
0.249908	67.2339
0.308986	74.0079
0.330293	73.992
0.370503	76.2346
0.394154	77.7321
0.424883	80.7394
0.453268	82.2333
0.509895	94.3122
0.557172	98.8223
0.599786	98.7905
0.656568	101.021
0.71096	104.768
0.763007	107.002
0.815007	112.266
0.859953	114.505
0.900139	118.263
0.952115	125.042
0.978073	130.326
0.989863	133.347
