Adsorption isotherm of Nitrogen on ZMmt-16h
DOI: 10.1007/s10450-020-00200-z
Article source: Figure 5c
Adsorbate Nitrogen: InChIKey IJGRMHOSHXDMSA-UHFFFAOYSA-N
Kind: experiment
Temperature: 77 K
Tabular data in the source: 0
pressure (bar)	uptake (cm3(STP)/g)
0.014103	3.69349
0.016402	7.37329
0.01631	13.2555
0.016286	14.7261
0.020941	18.4093
0.023275	19.8833
0.039723	22.8483
0.04909	26.5384
0.072619	28.7784
0.091435	31.0116
0.112608	33.2482
0.143229	34.028
0.169114	36.2714
0.218539	40.0196
0.258597	40.0777
0.298614	42.7094
0.388103	46.1481
0.411621	49.1234
0.430448	50.6213
0.456333	52.8647
0.508138	55.1458
0.562265	59.6361
0.618748	64.1299
0.649322	67.8507
0.708092	76.7595
0.750449	80.4975
0.788081	84.9639
0.809195	90.8769
0.827931	98.257
0.848999	107.111
0.860677	113.746
0.869998	120.377
0.888618	135.11
0.900307	141.009
0.90718	153.519
0.916513	159.415
0.925719	173.399
0.930339	179.288
0.9512	201.377
0.960371	217.567
0.960279	223.449
0.964899	229.338
0.971737	244.054
0.978609	256.564
0.987838	269.077
0.990033	279.375
0.989941	285.257
0.989825	292.61
0.31508	44.5715
0.362172	46.8457
0.411597	50.5939
0.439862	51.3702
0.482218	55.1082
0.519851	59.5746
0.571644	62.5909
0.62577	67.0812
0.675173	72.3
0.715103	80.4462
0.76439	93.0177
0.790171	101.879
0.801815	110.719
0.820538	118.835
0.843917	130.633
0.850893	136.526
0.864893	145.369
0.881272	152.746
0.895225	164.531
0.906857	174.107
0.916178	180.738
0.927786	191.784
0.93236	200.614
0.943992	210.19
0.948555	219.756
0.960105	234.478
0.960036	238.89
0.969311	248.462
0.973885	257.292
0.976115	265.384
0.985355	277.162
0.989929	285.992
