Adsorption isotherm of Carbon Dioxide on ZMmt
DOI: 10.1007/s10450-020-00200-z
Article source: Figure 9A
Adsorbate Carbon Dioxide: InChIKey CURLTUGMZLYLDI-UHFFFAOYSA-N
Kind: experiment
Temperature: 303 K
Tabular data in the source: 0
pressure (bar)	uptake (mg/g)
0.111046	0.641832
0.572852	2.16282
0.97882	3.04491
1.51383	4.06923
2.13248	5.91553
3.23076	8.64727
5.14491	12.4161
