Adsorption isotherm of Carbon Dioxide on ZMmt-24h
DOI: 10.1007/s10450-020-00200-z
Article source: Figure 9D
Adsorbate Carbon Dioxide: InChIKey CURLTUGMZLYLDI-UHFFFAOYSA-N
Kind: experiment
Temperature: 273 K
Tabular data in the source: 0
pressure (bar)	uptake (mg/g)
0.083669	9.66321
0.513789	24.4822
0.978133	32.9667
1.48414	38.9499
2.06949	45.9304
3.15385	54.3942
5.12511	67.4952
