Adsorption isotherm of Nitrogen on ZMmt-3h
DOI: 10.1007/s10450-020-00200-z
Article source: Figure 5b
Adsorbate Nitrogen: InChIKey IJGRMHOSHXDMSA-UHFFFAOYSA-N
Kind: experiment
Temperature: 77 K
Tabular data in the source: 0
pressure (bar)	uptake (cm3(STP)/g)
0.013738	31.0468
0.013631	37.8651
0.027728	44.6727
0.039505	48.4518
0.065499	51.4627
0.07968	52.9672
0.096216	55.2276
0.122222	57.4809
0.13877	58.9836
0.16242	60.4811
0.200251	63.4831
0.258212	66.0913
0.309034	70.9775
0.335028	73.9884
0.410726	77.7197
0.507647	86.7381
0.55728	92.0041
0.604521	98.7869
0.663599	105.561
0.71078	116.132
0.750931	122.162
0.807522	136.514
0.859403	149.354
0.904169	162.957
0.930103	169.756
0.951278	178.073
0.9607	181.096
0.97237	191.694
0.988846	197.742
0.970074	187.15
0.249872	69.5066
0.394178	76.2169
0.413069	79.2331
0.507564	92.0412
0.554769	101.097
0.604401	106.363
0.656305	117.688
0.708198	129.77
0.760078	142.61
0.811982	153.935
0.866266	164.5
0.904037	171.29
0.946543	178.077
0.965399	183.366
0.986563	192.441
0.991202	198.498
