Adsorption isotherm of Carbon Dioxide on ZMmt-3h
DOI: 10.1007/s10450-020-00200-z
Article source: Figure 9B
Adsorbate Carbon Dioxide: InChIKey CURLTUGMZLYLDI-UHFFFAOYSA-N
Kind: experiment
Temperature: 303 K
Tabular data in the source: 0
pressure (bar)	uptake (mg/g)
0.113624	3.84853
0.577096	12.3805
0.978394	17.5626
1.53349	21.5663
2.11951	26.2394
3.1883	32.2371
5.16083	39.7129
