Adsorption isotherm of Nitrogen on ZMmt-4h
DOI: 10.1007/s10450-020-00200-z
Article source: Figure 5b
Adsorbate Nitrogen: InChIKey IJGRMHOSHXDMSA-UHFFFAOYSA-N
Kind: experiment
Temperature: 77 K
Tabular data in the source: 0
pressure (bar)	uptake (cm3(STP)/g)
0.014145	5.28893
0.016429	10.5903
0.013977	15.8951
0.016285	19.6813
0.018593	23.4674
0.020876	28.7687
0.025564	31.7955
0.034962	36.334
0.051462	40.8671
0.06801	42.3699
0.077468	43.1204
0.108185	46.8853
0.127124	46.8711
0.148419	47.6128
0.169702	49.112
0.209948	49.0819
0.261996	51.3157
0.302195	54.316
0.387386	56.525
0.413392	58.7783
0.491422	64.7806
0.512717	65.5222
0.552892	70.0376
0.612006	74.5389
0.645054	80.5748
0.656867	82.0811
0.689916	88.117
0.697006	88.8693
0.741868	96.4115
0.760724	101.7
0.793748	109.252
0.807893	113.029
0.83146	119.829
0.845581	125.122
0.866756	133.439
0.876178	136.463
0.88554	143.274
0.90204	147.807
0.918493	155.37
0.934969	161.419
0.951398	170.497
0.944331	168.23
0.956073	174.282
0.967838	178.818
0.972501	183.36
0.977177	187.145
0.98184	191.687
0.986503	196.229
0.988834	198.5
0.98881	200.015
0.988763	203.045
0.993426	207.587
0.995733	211.373
0.354254	55.7922
0.399176	59.5465
0.415736	60.2917
0.427537	62.5556
0.436995	63.3061
0.448796	65.57
0.462965	67.8322
0.507886	71.5864
0.550417	76.8577
0.576422	79.111
0.609543	80.6013
0.630766	85.8885
0.654356	91.1739
0.692044	103.267
0.710912	107.798
0.729827	109.299
0.741605	113.078
0.765172	119.879
0.776865	128.961
0.795709	135.008
0.819324	138.778
0.835812	144.069
0.8523	149.359
0.871132	156.163
0.892343	162.208
0.91829	168.249
0.925344	171.274
0.939489	175.052
0.948899	178.832
0.960593	187.915
0.969979	193.211
0.977009	197.751
0.98166	203.05
0.988679	208.348
