Adsorption isotherm of Carbon Dioxide on ZMmt-24h
DOI: 10.1007/s10450-020-00200-z
Article source: Figure 9D
Adsorbate Carbon Dioxide: InChIKey CURLTUGMZLYLDI-UHFFFAOYSA-N
Kind: experiment
Temperature: 303 K
Tabular data in the source: 0
pressure (bar)	uptake (mg/g)
0.125225	7.3285
0.559012	16.6474
0.995355	22.1328
1.52237	26.6153
2.11949	30.9287
3.18529	37.2265
5.121	43.662
