Adsorption isotherm of Carbon Dioxide on ZMmt-8h
DOI: 10.1007/s10450-020-00200-z
Article source: Figure 9C
Adsorbate Carbon Dioxide: InChIKey CURLTUGMZLYLDI-UHFFFAOYSA-N
Kind: experiment
Temperature: 273 K
Tabular data in the source: 0
pressure (bar)	uptake (mg/g)
0.128643	7.97784
0.590443	19.7784
0.99626	25.5956
1.54224	31.5789
2.12756	36.8975
3.2367	46.0388
5.24316	62.4931
