Adsorption isotherm of Carbon Dioxide on ZMmt-3h
DOI: 10.1007/s10450-020-00200-z
Article source: Figure 9B
Adsorbate Carbon Dioxide: InChIKey CURLTUGMZLYLDI-UHFFFAOYSA-N
Kind: experiment
Temperature: 288 K
Tabular data in the source: 0
pressure (bar)	uptake (mg/g)
0.124264	6.02695
0.547099	17.0742
0.979426	23.596
1.52443	28.6057
2.12086	34.1164
3.2312	42.9619
5.16335	54.4614
