Adsorption isotherm of Carbon Dioxide on ZMmt
DOI: 10.1007/s10450-020-00200-z
Article source: Figure 9A
Adsorbate Carbon Dioxide: InChIKey CURLTUGMZLYLDI-UHFFFAOYSA-N
Kind: experiment
Temperature: 288 K
Tabular data in the source: 0
pressure (bar)	uptake (mg/g)
0.120213	0.596794
0.554811	2.57109
0.95153	3.40731
1.48667	4.568
2.10493	6.00519
3.20342	8.96421
5.1696	14.2354
