Adsorption isotherm of Carbon Dioxide on ZMmt-8h
DOI: 10.1007/s10450-020-00200-z
Article source: Figure 9C
Adsorbate Carbon Dioxide: InChIKey CURLTUGMZLYLDI-UHFFFAOYSA-N
Kind: experiment
Temperature: 288 K
Tabular data in the source: 0
pressure (bar)	uptake (mg/g)
0.126648	5.98338
0.617618	16.9529
0.993601	22.9363
1.52091	30.2493
2.16607	35.4017
3.2672	46.5374
5.19983	59.169
