Adsorption isotherm of Nitrogen on ZMmt-24h
DOI: 10.1007/s10450-020-00200-z
Article source: Figure 5c
Adsorbate Nitrogen: InChIKey IJGRMHOSHXDMSA-UHFFFAOYSA-N
Kind: experiment
Temperature: 77 K
Tabular data in the source: 0
pressure (bar)	uptake (cm3(STP)/g)
0.01639	8.10857
0.032723	18.4264
0.044447	22.1199
0.056194	24.3428
0.074999	27.3113
0.089091	30.2729
0.11732	33.2551
0.145539	36.9725
0.176113	40.6933
0.223206	42.9676
0.256148	45.9565
0.289125	46.7397
0.317436	44.5749
0.34808	43.8841
0.395115	49.8347
0.425712	52.085
0.453965	53.5966
0.505793	54.4071
0.557598	56.6882
0.611736	60.4432
0.658736	68.5997
0.705747	76.0208
0.752678	88.589
0.808999	103.377
0.846412	121.813
0.911685	166.761
0.95083	224.906
0.976103	266.119
0.987434	294.812
0.322126	46.0523
0.381	48.3436
0.432828	49.1541
0.465782	51.4079
0.529264	60.3235
0.618655	70.0121
0.668034	76.7014
0.703299	81.8996
0.740815	93.7188
0.799539	105.569
0.871973	144.644
0.89519	166.737
0.906568	192.489
0.908635	210.874
0.959389	280.065
0.991985	305.113
