Adsorption isotherm of Carbon Dioxide on ZMmt-24h
DOI: 10.1007/s10450-020-00200-z
Article source: Figure 9D
Adsorbate Carbon Dioxide: InChIKey CURLTUGMZLYLDI-UHFFFAOYSA-N
Kind: experiment
Temperature: 288 K
Tabular data in the source: 0
pressure (bar)	uptake (mg/g)
0.144337	8.66119
0.53679	19.9814
0.982577	26.2999
1.50948	30.949
2.11594	36.2621
3.17129	43.227
5.11478	52.9955
