Adsorption isotherm of Nitrogen on ZMmt
DOI: 10.1007/s10450-020-00200-z
Article source: Figure 5a
Adsorbate Nitrogen: InChIKey IJGRMHOSHXDMSA-UHFFFAOYSA-N
Kind: experiment
Temperature: 77 K
Tabular data in the source: 0
pressure (bar)	uptake (cm3(STP)/g)
0.009296	2.38443
0.009296	4.00243
0.006972	5.27981
0.01162	6.47202
0.01162	7.06813
0.020916	7.57907
0.027888	7.91971
0.037183	8.26034
0.046479	8.51581
0.062747	8.94161
0.074367	9.19708
0.092959	9.53771
0.106903	9.70803
0.125494	9.9635
0.137114	10.219
0.153382	10.4745
0.204509	11.0706
0.290496	11.837
0.402046	12.8589
0.453174	13.5401
0.518245	13.9659
0.555428	14.562
0.601908	14.9027
0.655359	15.5839
0.704162	16.0949
0.762261	16.8613
0.806417	17.4574
0.852896	18.82
0.908671	20.0973
0.948179	22.7372
0.97839	28.2725
0.99001	31.4234
0.244017	11.4964
0.302116	11.837
0.323032	12.1776
0.350919	12.4331
0.383455	12.8589
0.418314	13.3698
0.460146	13.7105
0.506625	16.2652
0.553104	17.1168
0.604232	17.7129
0.653035	18.1387
0.706486	18.7348
0.759937	19.2457
0.790149	19.8418
0.852896	20.9489
0.894728	22.4818
0.950503	25.4623
0.97839	28.2725
0.992334	31.8491
