Adsorption isotherm of Nitrogen on TTF-COF
DOI: 10.1039/c4sc02593h
Article source: Figure S19
Adsorbate Nitrogen: InChIKey IJGRMHOSHXDMSA-UHFFFAOYSA-N
Kind: experiment
Temperature: 77 K
Tabular data in the source: 0
pressure (bar)	uptake (cm3(STP)/g)
0	35.7955
0	45.4545
0	51.7045
0	57.3864
0	61.9318
0	64.7727
0	67.6136
0	69.3182
0.001561	74.4318
0.001561	89.2045
0.003122	100
0.004684	107.386
0.004684	113.068
0.006245	118.182
0.006245	123.295
0.006245	127.273
0.006245	131.25
0.010929	134.659
0.017174	151.705
0.029664	167.045
0.039031	175.284
0.053082	182.386
0.060889	184.091
0.068695	187.5
0.078062	188.636
0.089772	190.341
0.101481	192.045
0.159247	197.727
0.207646	201.705
0.256045	205.682
0.31225	208.523
0.351281	210.511
0.409047	213.068
0.454323	215.341
0.508967	217.614
0.555804	219.318
0.605764	221.023
0.655724	223.295
0.705684	224.432
0.757986	226.705
0.818094	230.114
0.868054	232.955
0.919575	238.068
0.961729	245.455
1.01169	275.284
0.891473	246.591
0.796237	239.205
0.697878	236.364
0.597958	233.523
0.501161	230.114
0.479303	226.136
0.452762	224.432
0.424659	223.864
0.398118	222.159
0.295076	218.75
0.196717	214.773
0.099139	206.25
0.046837	194.886
0.009367	154.83
