Adsorption isotherm of Nitrogen on [Zn2(pnta)3(OH)]*2DMF
DOI: 10.1039/C2ce05948g
Adsorbate Nitrogen: InChIKey IJGRMHOSHXDMSA-UHFFFAOYSA-N
Temperature: 77 K
Tabular data in the source: 0
pressure (bar)	uptake (cm3(STP)/g)
0.00182509	0.599265
0.0171192	1.29842
0.0608167	1.82279
0.161321	2.52195
0.25964	3.13372
0.362329	3.74548
0.462833	4.26985
0.563338	4.96901
0.659472	5.58078
0.709724	6.36733
0.757791	6.62952
0.812413	7.06649
0.867035	8.02784
0.904178	9.16397
0.952245	12.922
0.991573	40.6262
