Adsorption isotherm of Nitrogen on activated Zr 4 mesaconate framework
DOI: 10.1002/ejic.201500374
Article source: Figure 5
Adsorbate Nitrogen: InChIKey IJGRMHOSHXDMSA-UHFFFAOYSA-N
Kind: experiment
Temperature: 77 K
Tabular data in the source: 0
pressure (bar)	uptake (cm3(STP)/g)
0	0
2.33175	2.78075
4.23954	5.5615
7.20722	8.98396
10.3868	12.4064
20.5618	21.1765
30.3127	27.8075
40.6996	33.369
50.8745	38.7166
61.2614	42.7807
71.4363	46.631
81.3991	50.2674
91.5741	53.4759
96.6615	55.1872
