Adsorption isotherm of Carbon Dioxide on ZSM-5
DOI: 10.1021/jp4037183
Article source: Figure 6
Adsorbate Carbon Dioxide: InChIKey CURLTUGMZLYLDI-UHFFFAOYSA-N
Kind: experiment
Temperature: 308 K
Tabular data in the source: 0
pressure (bar)	uptake (mmol/g)
0.008006	0.06424
0.01892	0.0834
0.03857	0.1431
0.1201	0.3482
1.012	1.471
