Adsorption isotherm of Methane on ZSM-5
DOI: 10.1021/jp4037183
Article source: Figure 8
Adsorbate Methane: InChIKey VNWKTOKETHGBQD-UHFFFAOYSA-N
Kind: experiment
Temperature: 308 K
Tabular data in the source: 0
pressure (bar)	uptake (mmol/g)
0.3378	0.07091
0.6057	0.1219
0.7604	0.1475
0.8571	0.1642
0.8929	0.1702
0.9293	0.1754
0.9688	0.181
1.013	0.188
