Adsorption isotherm of Hydrogen on MOF-216
DOI: 10.1002/aic.14842
Article source: Figure 2a
Adsorbate Hydrogen: InChIKey UFHFLCQGNIYNRP-UHFFFAOYSA-N
Kind: experiment
Temperature: 298 K
Tabular data in the source: 0
pressure (bar)	uptake (mol/l)
0	0
3.93443	0.348416
6.22951	0.538462
9.83607	0.823529
16.0656	1.26697
24.918	1.93213
40	2.91403
63.2787	4.21267
100	5.95475
