Adsorption isotherm of Hydrogen on MOF-401
DOI: 10.1002/aic.14842
Article source: Figure 2a
Adsorbate Hydrogen: InChIKey UFHFLCQGNIYNRP-UHFFFAOYSA-N
Kind: experiment
Temperature: 298 K
Tabular data in the source: 0
pressure (bar)	uptake (mol/l)
0	0
3.94323	0.187946
5.91484	0.281919
9.85807	0.469865
15.77	0.688721
25.6251	1.09552
40.0792	1.69007
63.4033	2.66019
100.192	4.09904
