Adsorption isotherm of Hydrogen on MOF-254
DOI: 10.1002/aic.14842
Article source: Figure 2b
Adsorbate Hydrogen: InChIKey UFHFLCQGNIYNRP-UHFFFAOYSA-N
Kind: experiment
Temperature: 77 K
Tabular data in the source: 0
pressure (bar)	uptake (mol/l)
0	0
0.123853	14.8624
0.825688	19.0826
1.5	20
2.83945	20.7339
4.17431	20.9174
5.84404	21.2844
10.1789	21.4679
15.5122	21.4679
25.182	21.8349
40.1835	22.0183
63.185	22.2018
100.187	22.3853
