Adsorption isotherm of Hydrogen on MOF-254
DOI: 10.1002/aic.14842
Article source: Figure 2a
Adsorbate Hydrogen: InChIKey UFHFLCQGNIYNRP-UHFFFAOYSA-N
Kind: experiment
Temperature: 298 K
Tabular data in the source: 0
pressure (bar)	uptake (mol/l)
0	0
2.62295	0.411765
6.22951	0.855204
10.4918	1.33032
16.0656	1.93213
25.5738	2.78733
40.3279	3.89593
62.9508	5.25792
100	6.84163
