Adsorption isotherm of Hydrogen on MOF-216
DOI: 10.1002/aic.14842
Article source: Figure 2b
Adsorbate Hydrogen: InChIKey UFHFLCQGNIYNRP-UHFFFAOYSA-N
Kind: experiment
Temperature: 77 K
Tabular data in the source: 0
pressure (bar)	uptake (mol/l)
0	0
0.334448	19.9087
0.668896	21.1872
1.67224	22.6484
2.34114	23.5616
3.67893	24.4749
6.35452	25.2055
9.699	25.9361
15.7191	26.8493
25.0836	27.3973
63.2107	28.4932
100	28.8584
