Adsorption isotherm of Hydrogen on MOF-401
DOI: 10.1002/aic.14842
Article source: Figure 2b
Adsorbate Hydrogen: InChIKey UFHFLCQGNIYNRP-UHFFFAOYSA-N
Kind: experiment
Temperature: 77 K
Tabular data in the source: 0
pressure (bar)	uptake (mol/l)
0	0
0.668896	0.730594
1.33779	1.64384
2.34114	2.37443
3.67893	3.83562
6.35452	5.84475
9.699	8.58447
15.7191	12.6027
25.0836	18.9954
39.4649	27.9452
63.2107	34.3379
100	37.9909
