Adsorption isotherm of Carbon Dioxide on MTAF-3
DOI: 10.1039/C2cc34380k
Adsorbate Carbon Dioxide: InChIKey CURLTUGMZLYLDI-UHFFFAOYSA-N
Temperature: 273 K
Tabular data in the source: 0
pressure (bar)	uptake (wt%)
0.0124192	0.505208
0.0649566	1.69833
0.114398	2.79964
0.17301	3.71663
0.250068	4.67881
0.330174	5.5489
0.441053	6.60156
0.55186	7.37836
0.647282	8.06388
0.78573	8.79351
0.89649	9.3864
0.998033	9.9797
1.078	10.2981
