Adsorption isotherm of Nitrogen on MTAF-3
DOI: 10.1039/C2cc34380k
Adsorbate Nitrogen: InChIKey IJGRMHOSHXDMSA-UHFFFAOYSA-N
Temperature: 77 K
Tabular data in the source: 0
pressure (bar)	uptake (cm3(STP)/g)
0.00597976	130.502
0.00735971	96.6182
0.00937213	204.537
0.0106371	168.144
0.0140869	243.433
0.0270239	269.77
0.0573252	291.065
0.148632	299.735
0.295308	300.806
0.433245	303.143
0.574057	304.221
0.711707	300.283
0.849414	297.601
0.954864	294.959
