Adsorption isotherm of Carbon Dioxide on MOF-508
DOI: 10.1039/C2cc34380k
Adsorbate Carbon Dioxide: InChIKey CURLTUGMZLYLDI-UHFFFAOYSA-N
Temperature: 273 K
Tabular data in the source: 0
pressure (bar)	uptake (wt%)
0.00921729	-0.000399796
0.0677112	0.456833
0.126146	0.684184
0.199979	1.0488
0.276872	1.3673
0.353765	1.68581
0.439864	1.95793
0.513673	2.23059
0.624362	2.54763
0.728907	2.86494
0.83038	3.18237
0.977963	3.58977
1.07019	3.81565
