Adsorption isotherm of Nitrogen on MOF-508
DOI: 10.1039/C2cc34380k
Adsorbate Nitrogen: InChIKey IJGRMHOSHXDMSA-UHFFFAOYSA-N
Temperature: 77 K
Tabular data in the source: 0
pressure (bar)	uptake (cm3(STP)/g)
0.00689972	22.5796
0.0155244	146.804
0.037546	179.404
0.12891	189.328
0.206014	208.055
0.311925	215.452
0.443997	217.796
0.561178	215.139
0.658004	216.272
0.775299	216.125
0.872125	217.259
0.960039	215.893
