Adsorption isotherm of Water on G-Zr
DOI: 10.1007/s10450-021-00335-7
Article source: Figure 18
Adsorbate Water: InChIKey XLYOFNOQVPJJNP-UHFFFAOYSA-N
Kind: experiment
Temperature: 278 K
Tabular data in the source: 0
pressure (bar)	uptake (mg/g)
0.000415	12.9616
0.00049	17.8975
0.00052	19.1032
0.000535	20.3466
0.000624	23.9638
0.000669	26.413
0.000788	29.9548
0.000803	29.9171
0.000877	33.572
0.000892	33.5343
0.000951	35.9457
0.000981	37.1515
0.001248	42.8787
0.001545	53.6549
0.001768	62.0573
0.002005	69.1409
0.002316	76.0362
0.002612	81.688
0.003026	90.8817
0.003219	95.5162
0.00353	102.411
0.003797	109.42
0.003901	112.999
0.004064	120.271
0.004154	123.888
0.004273	128.711
0.004437	137.265
0.004645	144.424
0.004814	169.631
0.004981	235.87
0.005225	314.732
0.005364	388.734
0.0055	401.206
0.005515	401.168
0.005561	407.46
0.005577	412.547
0.005621	413.715
0.00568	413.564
0.005725	416.014
0.005829	418.312
