Adsorption isotherm of Water on G-Ti
DOI: 10.1007/s10450-021-00335-7
Article source: Figure 18
Adsorbate Water: InChIKey XLYOFNOQVPJJNP-UHFFFAOYSA-N
Kind: experiment
Temperature: 278 K
Tabular data in the source: 0
pressure (bar)	uptake (mg/g)
0.000386	13.0369
0.000462	21.8161
0.000521	22.9465
0.000626	29.0882
0.00067	30.2562
0.00076	33.8734
0.000804	35.0414
0.000893	38.6586
0.000953	39.789
0.001116	44.4989
0.001294	51.7332
0.001339	52.9013
0.00165	61.0776
0.001858	66.9555
0.002079	70.2336
0.002376	79.7287
0.002657	85.4182
0.00279	87.6413
0.003012	90.9194
0.003293	96.6089
0.003485	101.243
0.003781	108.176
0.00387	110.512
0.00399	116.616
0.004094	120.196
0.004272	126.149
0.004407	133.497
0.004555	138.244
0.004674	144.348
0.004885	159.194
0.005012	193.482
0.005157	236.699
0.005286	372.268
0.005514	397.325
0.005589	403.542
0.005648	403.391
0.005648	403.391
0.005692	403.278
0.00578	403.052
0.00584	406.745
