Adsorption isotherm of Water on C-Al
DOI: 10.1007/s10450-021-00335-7
Article source: Figure 19
Adsorbate Water: InChIKey XLYOFNOQVPJJNP-UHFFFAOYSA-N
Kind: experiment
Temperature: 278 K
Tabular data in the source: 0
pressure (bar)	uptake (mg/g)
0.000125	6.66667
0.000193	10.6667
0.000261	14.6667
0.000287	18.6667
0.000377	24
0.000445	28
0.000468	29.3333
0.000579	33.3333
0.000603	36
0.000736	41.3333
0.000824	44
0.00098	50.6667
0.001001	50.6667
0.00141	74.6667
0.001915	89.3333
0.002267	100
0.002618	110.667
0.003011	120
0.003441	124
0.003983	133.333
0.004397	142.667
0.004767	150.667
0.005221	157.333
0.005633	164
0.005833	172
0.005923	177.333
0.006155	194.667
0.006427	270.667
0.006772	334.667
0.00695	362.667
0.007132	373.333
0.007435	378.667
0.007674	382.667
0.008044	390.667
0.00822	396
0.008241	396
0.008308	398.667
0.008308	398.667
