Adsorption isotherm of Water on G-Li
DOI: 10.1007/s10450-021-00335-7
Article source: Figure 18
Adsorbate Water: InChIKey XLYOFNOQVPJJNP-UHFFFAOYSA-N
Kind: experiment
Temperature: 278 K
Tabular data in the source: 0
pressure (bar)	uptake (mg/g)
0.000386	13.0369
0.00043	14.205
0.00049	17.8975
0.00052	19.1032
0.000594	21.477
0.000624	21.4017
0.000653	21.3263
0.000757	23.6247
0.000772	24.8681
0.000861	27.2042
0.000993	26.8651
0.000993	26.8651
0.001186	32.7807
0.001511	37.0761
0.001821	41.4092
0.002057	44.6496
0.002293	46.6089
0.002617	49.6232
0.002927	53.9563
0.003208	58.3647
0.00346	64.1296
0.003756	71.0625
0.003934	77.0158
0.003993	78.1462
0.004187	87.9051
0.004381	95.1017
0.004577	113.828
0.00466	145.667
0.004888	219.442
0.005012	293.482
0.005226	318.576
0.005317	329.879
0.005378	334.853
0.005422	337.302
0.005437	338.546
0.005467	339.751
0.005571	343.331
0.005601	345.818
0.005764	349.246
0.005779	349.209
