Adsorption isotherm of Water on C-Ti
DOI: 10.1007/s10450-021-00335-7
Article source: Figure 19
Adsorbate Water: InChIKey XLYOFNOQVPJJNP-UHFFFAOYSA-N
Kind: experiment
Temperature: 278 K
Tabular data in the source: 0
pressure (bar)	uptake (mg/g)
0.000166	5.33333
0.000345	13.3333
0.000413	17.3333
0.000479	20
0.000567	22.6667
0.000655	25.3333
0.000745	29.3333
0.00079	32
0.000855	33.3333
0.00099	40
0.001011	40
0.001304	54.6667
0.00174	65.3333
0.002194	72
0.002719	85.3333
0.00314	101.333
0.003555	110.667
0.003864	121.333
0.004255	129.333
0.004739	144
0.005135	156
0.00536	168
0.005609	181.333
0.005654	184
0.006033	220
0.006214	290.667
0.00664	430.667
0.006946	478.667
0.007129	490.667
0.007366	493.333
0.007647	497.333
0.007732	497.333
0.007817	497.333
0.00786	497.333
0.007946	498.667
0.008033	500
0.008098	501.333
0.008165	504
0.008207	504
0.008316	506.667
0.008509	508
