Adsorption isotherm of Water on PSi
DOI: 10.1007/s10450-021-00335-7
Article source: Figure 18
Adsorbate Water: InChIKey XLYOFNOQVPJJNP-UHFFFAOYSA-N
Kind: experiment
Temperature: 278 K
Tabular data in the source: 0
pressure (bar)	uptake (mg/g)
0.000473	10.2487
0.000562	12.5848
0.000606	12.4717
0.000666	14.8832
0.00071	14.7702
0.000784	17.1439
0.000813	17.0686
0.000917	18.0859
0.000932	19.3293
0.000932	19.3293
0.001006	20.422
0.001229	31.3866
0.001524	34.4763
0.001805	38.8847
0.002544	51.0927
0.002943	56.4808
0.003209	62.208
0.003535	70.3466
0.003728	74.9812
0.003891	79.691
0.00404	87.0008
0.004129	90.6179
0.004264	99.2464
0.004403	120.686
0.004483	142.276
0.004728	224.981
0.004899	306.594
0.005057	393.368
0.005192	453.278
0.0054	460.437
0.005533	463.941
0.005682	468.689
0.005711	469.895
0.005771	472.306
0.00583	473.436
