Adsorption isotherm of Water on C-Li
DOI: 10.1007/s10450-021-00335-7
Article source: Figure 19
Adsorbate Water: InChIKey XLYOFNOQVPJJNP-UHFFFAOYSA-N
Kind: experiment
Temperature: 278 K
Tabular data in the source: 0
pressure (bar)	uptake (mg/g)
0.000251	5.33333
0.00053	8
0.000553	9.33333
0.00077	13.3333
0.00086	17.3333
0.000946	18.6667
0.001054	20
0.001184	22.6667
0.001291	22.6667
0.001789	30.6667
0.002113	36
0.002613	45.3333
0.002976	46.6667
0.003451	53.3333
0.003952	64
0.004146	66.6667
0.004645	76
0.004994	84
0.005455	97.3333
0.005567	102.667
0.005729	114.667
0.005896	132
0.006051	157.333
0.006399	264
0.006807	368
0.006928	421.333
0.007148	428
0.007495	434.667
0.007627	438.667
0.007694	441.333
0.007845	444
0.008	449.333
0.008109	452
0.008155	454.667
0.008244	458.667
0.008289	461.333
