Adsorption isotherm of Water on C-Zr
DOI: 10.1007/s10450-021-00335-7
Article source: Figure 19
Adsorbate Water: InChIKey XLYOFNOQVPJJNP-UHFFFAOYSA-N
Kind: experiment
Temperature: 278 K
Tabular data in the source: 0
pressure (bar)	uptake (mg/g)
0.000119	1.33333
0.000187	5.33333
0.000234	9.33333
0.000346	14.6667
0.00039	16
0.000481	21.3333
0.000593	26.6667
0.000682	30.6667
0.00075	34.6667
0.000796	37.3333
0.000862	40
0.000973	44
0.001018	46.6667
0.001355	62.6667
0.001817	77.3333
0.002342	90.6667
0.002606	98.6667
0.003068	113.333
0.003438	121.333
0.004067	132
0.004262	136
0.004628	140
0.005148	148
0.005391	157.333
0.005502	161.333
0.005706	173.333
0.005933	186.667
0.006146	226.667
0.006389	274.667
0.006584	298.667
0.006845	304
0.007088	312
0.007238	313.333
0.007366	313.333
0.007472	313.333
0.00758	314.667
0.007801	322.667
0.007868	325.333
0.008	329.333
0.008021	329.333
0.008085	329.333
0.008128	329.333
