Adsorption isotherm of Water on G-Al
DOI: 10.1007/s10450-021-00335-7
Article source: Figure 18
Adsorbate Water: InChIKey XLYOFNOQVPJJNP-UHFFFAOYSA-N
Kind: experiment
Temperature: 278 K
Tabular data in the source: 0
pressure (bar)	uptake (mg/g)
0.000401	15.5614
0.000417	19.367
0.000433	21.8915
0.000507	25.5463
0.000552	29.2766
0.000671	32.8184
0.000775	36.3979
0.000864	40.0151
0.000924	42.4265
0.000969	44.8757
0.001265	53.0897
0.001488	58.9299
0.001814	68.3497
0.002067	79.2389
0.002349	86.2095
0.002703	92.9917
0.003118	100.904
0.003295	104.295
0.003577	112.547
0.003771	121.025
0.003964	129.503
0.004069	134.363
0.004173	137.943
0.004396	146.345
0.004456	150.038
0.004561	160.023
0.004742	173.662
0.004909	191.183
0.005024	233.195
0.0052	331.462
0.005379	439.977
0.005499	447.362
0.005587	448.417
0.005676	449.473
0.005706	450.678
0.005795	453.014
0.005898	455.313
0.005913	456.556
0.005957	456.443
