Adsorption isotherm of Carbon Dioxide on {[Cu(ina)2(H2O)][Cu(ina)2(bipy)]}n
DOI: 10.1002/chem.201302084
Adsorbate Carbon Dioxide: InChIKey CURLTUGMZLYLDI-UHFFFAOYSA-N
Temperature: 195 K
Tabular data in the source: 0
pressure (bar)	uptake (cm3(STP)/g)
0.00406209	0.624244
0.00627537	5.72811
0.00627537	7.61584
0.0217683	8.52475
0.0505409	9.22391
0.10366	9.85315
0.178911	10.5174
0.35376	11.4612
0.46885	11.9856
0.648126	12.9644
0.800842	13.8034
0.889373	14.2579
