Adsorption isotherm of Nitrogen on {[Cu(ina)2(H2O)][Cu(ina)2(bipy)]}n
DOI: 10.1002/chem.201302084
Adsorbate Nitrogen: InChIKey IJGRMHOSHXDMSA-UHFFFAOYSA-N
Temperature: 77 K
Tabular data in the source: 0
pressure (bar)	uptake (cm3(STP)/g)
0.00400996	0.0649162
0.00619484	0.34458
0.021489	0.624244
0.0935898	1.14861
0.17443	1.35836
0.25527	1.53315
0.342665	1.77786
0.412581	1.91769
0.482497	2.19735
0.52401	2.33719
0.543674	2.30223
0.607035	2.37214
0.641993	2.4071
0.707539	2.4071
0.740312	2.4071
0.790565	2.65181
0.827707	3.10626
0.884514	4.78424
0.904178	8.52475
