Adsorption isotherm of Nitrogen on TPB-DMTP-COF
DOI: 10.1021/jacs.0c00969
Article source: Figure S3b
Adsorbate Nitrogen: InChIKey IJGRMHOSHXDMSA-UHFFFAOYSA-N
Kind: experiment
Temperature: 77 K
Tabular data in the source: 0
pressure (bar)	uptake (cm3(STP)/g)
0.019788	31.856
0.022244	54.3975
0.025752	86.5997
0.027507	102.701
0.03326	115.512
0.038523	163.816
0.043856	192.763
0.046312	215.305
0.052768	234.557
0.059223	253.809
0.079292	318.006
0.104132	365.997
0.132621	407.479
0.157531	436.115
0.180617	468.006
0.205527	496.641
0.225385	518.906
0.242717	537.985
0.264399	556.994
0.361304	826.42
0.419615	841.62
0.464523	853.809
0.513782	865.928
0.55834	874.896
0.600021	877.458
0.673208	889.197
0.718537	885.249
0.782251	910.042
0.825757	909.349
0.881542	921.364
0.903294	921.018
0.9428	923.615
0.973604	926.35
0.998164	951.766
1.03402	960.873
1.06546	989.404
1.09037	1018.04
1.11633	1056.34
1.12784	1081.96
1.13787	1114.06
1.14356	1146.23
1.14749	1162.29
0.101886	385.388
0.167565	468.213
0.219561	525.45
0.275907	582.618
0.350848	810.457
0.402914	848.338
0.458348	857.133
0.507257	866.032
0.538061	868.767
0.590197	887.292
0.64528	892.867
0.713415	898.234
0.765972	900.623
0.807232	919.321
0.87284	921.503
0.918521	920.776
0.949676	926.731
0.990585	942.209
1.02742	980.332
1.04006	996.26
1.06819	1034.52
1.10707	1111.32
1.13759	1191.48
