Adsorption isotherm of Nitrogen on P-StTaTp-COF
DOI: 10.1021/jacs.0c00969
Article source: Figure S9d
Adsorbate Nitrogen: InChIKey IJGRMHOSHXDMSA-UHFFFAOYSA-N
Kind: experiment
Temperature: 77 K
Tabular data in the source: 0
pressure (bar)	uptake (cm3(STP)/g)
0.01159	22.2222
0.009557	31.746
0.012054	42.8571
0.010092	55.5556
0.010413	69.8413
0.01077	85.7143
0.010948	93.6508
0.011198	104.762
0.013837	122.222
0.018794	142.857
0.023537	153.968
0.030776	176.19
0.051674	206.349
0.083947	242.857
0.097641	252.381
0.11836	274.603
0.141398	300
0.16201	317.46
0.1782	338.095
0.192073	355.556
0.282475	379.365
0.323093	387.302
0.379438	395.238
0.426618	395.238
0.478328	396.825
0.525686	404.762
0.572866	404.762
0.624718	412.698
0.660665	412.698
0.710163	415.873
0.761872	417.46
0.825029	428.571
0.85206	431.746
0.888114	436.508
0.930979	444.444
0.958224	457.143
0.971918	466.667
0.981119	476.19
0.990391	488.889
0.999627	500
1.00665	512.698
1.01371	526.984
1.01603	530.159
0.067543	212.698
0.104453	255.556
0.15741	312.698
0.219425	373.016
0.260507	401.587
0.312573	419.048
0.346309	420.635
0.398196	430.159
0.461139	431.746
0.515344	444.444
0.562881	460.317
0.619119	463.492
0.668582	465.079
0.709093	468.254
0.763192	476.19
0.819358	476.19
0.848637	479.365
0.864363	479.365
0.878022	487.302
0.916251	488.889
0.945564	493.651
0.96821	501.587
1.0069	523.81
1.02299	539.683
