Adsorption isotherm of Nitrogen on P-StPtTp-COF
DOI: 10.1021/jacs.0c00969
Article source: Figure S13d
Adsorbate Nitrogen: InChIKey IJGRMHOSHXDMSA-UHFFFAOYSA-N
Kind: experiment
Temperature: 77 K
Tabular data in the source: 0
pressure (bar)	uptake (cm3(STP)/g)
0.011821	18.9835
0.013286	36.6627
0.016147	46.1712
0.019458	61.1194
0.020923	78.7986
0.021599	86.9582
0.026981	101.895
0.031575	107.313
0.032702	120.912
0.036238	138.58
0.038873	145.369
0.046439	161.655
0.063079	187.416
0.096626	217.167
0.119141	238.815
0.137063	255.046
0.159466	275.333
0.173358	292.946
0.193351	309.165
0.217937	330.802
0.235746	345.672
0.282326	357.667
0.347209	365.481
0.393225	370.676
0.46387	373.018
0.509549	374.133
0.569838	376.531
0.611825	383.108
0.667859	384.167
0.709395	385.305
0.767387	384.993
0.805006	388.873
0.863563	395.361
0.882541	399.341
0.907508	400.567
0.926374	403.187
0.949495	407.145
0.972954	415.182
0.998597	424.568
1.02654	436.663
1.03779	447.487
1.04491	458.333
1.05617	469.157
1.05684	477.316
0.082762	249.895
0.153097	298.497
0.198015	340.432
0.240072	372.86
0.27445	387.641
0.330597	390.06
0.386631	391.12
0.432422	393.595
0.488795	398.735
0.522159	401.277
0.580109	425.455
0.633621	421.086
0.669395	427.697
0.73601	431.42
0.775362	431.209
0.81253	429.649
0.86028	430.753
0.891798	436.026
0.923091	438.579
0.945874	438.457
0.969107	443.774
0.988311	450.473
1.0228	466.615
1.04867	478.721
