Adsorption isotherm of Nitrogen on S-TmPtTp-COF
DOI: 10.1021/jacs.0c00969
Article source: Figure S12d
Adsorbate Nitrogen: InChIKey IJGRMHOSHXDMSA-UHFFFAOYSA-N
Kind: experiment
Temperature: 77 K
Tabular data in the source: 0
pressure (bar)	uptake (cm3(STP)/g)
0.01172	17.8344
0.010005	39.4904
0.01401	56.051
0.021823	68.7898
0.021982	85.3503
0.027811	91.7197
0.035674	109.554
0.037645	114.65
0.053223	135.032
0.076552	161.783
0.097824	174.522
0.113291	183.439
0.13264	196.178
0.155847	210.191
0.167456	217.834
0.184895	231.847
0.21414	273.885
0.270032	287.898
0.314327	295.541
0.36439	303.185
0.412494	307.006
0.458674	310.828
0.514457	313.376
0.558715	317.197
0.602998	323.567
0.664535	324.841
0.712676	332.484
0.747272	331.21
0.81459	333.758
0.843503	341.401
0.878136	343.949
0.908985	352.866
0.918659	359.236
0.947634	373.248
0.972813	392.357
1.00384	420.382
1.00593	436.943
1.00795	447.134
1.01003	463.694
1.01413	490.446
0.069069	183.439
0.107866	219.108
0.17549	253.503
0.208641	301.911
0.258716	310.828
0.326132	323.567
0.376122	323.567
0.426222	335.032
0.474325	338.854
0.507084	346.497
0.568659	351.592
0.612868	350.318
0.660947	351.592
0.716766	357.962
0.759114	363.057
0.812949	363.057
0.841838	368.153
0.857232	369.427
0.87652	375.796
0.909279	383.439
0.936318	396.178
0.951773	403.822
0.971159	420.382
0.990668	449.682
1.00642	487.898
