Adsorption isotherm of Nitrogen on P-StTaDm-COF
DOI: 10.1021/jacs.0c00969
Article source: Figure 2c
Adsorbate Nitrogen: InChIKey IJGRMHOSHXDMSA-UHFFFAOYSA-N
Kind: experiment
Temperature: 77 K
Tabular data in the source: 0
pressure (bar)	uptake (cm3(STP)/g)
0.009167	22.8037
0.003821	44.0707
0.003068	56.464
0.00583	77.6885
0.013078	91.8098
0.043772	153.596
0.081624	197.645
0.10882	216.972
0.16576	280.39
0.220905	306.65
0.269449	308.165
0.319374	320.293
0.371434	330.64
0.425198	346.287
0.467338	353.146
0.515128	367.055
0.573593	372.058
0.607193	386.042
0.65179	385.808
0.711959	396.112
0.763911	408.229
0.795592	420.453
0.809782	420.378
0.835812	425.552
0.853518	434.308
0.87709	446.574
0.90269	458.829
0.943107	494.016
0.971774	555.812
0.014567	100.652
0.028954	130.665
0.058913	171.216
0.076188	187.054
0.109035	213.431
0.133989	236.309
0.148376	266.322
0.186874	299.749
0.24907	310.042
0.308808	327.428
0.355002	334.266
0.405142	342.853
0.448986	355.012
0.501907	351.195
0.55237	354.47
0.598241	366.619
0.648274	376.977
0.692548	382.054
0.750259	399.451
0.792076	411.621
0.834646	411.398
0.878597	421.787
0.902062	435.824
0.927769	446.309
0.948884	465.667
0.961782	486.838
0.969137	499.189
0.975093	534.556
