Adsorption isotherm of Nitrogen on S-TmPtDm-COF
DOI: 10.1021/jacs.0c00969
Article source: Figure S10d
Adsorbate Nitrogen: InChIKey IJGRMHOSHXDMSA-UHFFFAOYSA-N
Kind: experiment
Temperature: 77 K
Tabular data in the source: 0
pressure (bar)	uptake (cm3(STP)/g)
0.011331	26.7371
0.011966	35.2398
0.014888	49.3874
0.015417	56.4729
0.018233	69.2034
0.019185	81.9573
0.019819	90.46
0.024817	107.418
0.030344	131.462
0.032949	141.358
0.035871	155.506
0.040128	162.545
0.064932	194.856
0.084355	230.072
0.107995	246.796
0.133394	262.079
0.160763	278.755
0.174871	292.762
0.200587	312.296
0.212408	320.658
0.234184	337.405
0.302369	425.907
0.340289	433.94
0.371981	433.541
0.439306	435.529
0.503432	444.651
0.551903	444.04
0.59137	447.798
0.665835	445.441
0.72208	448.988
0.748497	452.911
0.793663	458.015
0.838511	458.869
0.859124	460.027
0.887299	462.509
0.924479	460.622
0.949349	468.82
0.978159	479.804
0.997543	489.489
1.03029	503.261
1.04046	514.48
1.04929	532.809
1.05429	549.767
0.081473	241.456
0.141632	297.436
0.183743	336.622
0.244603	376.99
0.297833	440.149
0.345498	453.733
0.385176	460.325
0.44712	465.218
0.478813	464.819
0.540757	469.712
0.600308	467.544
0.638016	472.742
0.68297	475.013
0.714663	474.613
0.778154	475.232
0.836052	475.921
0.86391	474.151
0.903589	480.744
0.931553	480.391
0.958181	487.148
0.971549	491.235
1.02949	517.455
1.05461	554.018
