Adsorption isotherm of Nitrogen on P-DpTaDm-COF
DOI: 10.1021/jacs.0c00969
Article source: Figure S17d
Adsorbate Nitrogen: InChIKey IJGRMHOSHXDMSA-UHFFFAOYSA-N
Kind: experiment
Temperature: 77 K
Tabular data in the source: 0
pressure (bar)	uptake (cm3(STP)/g)
0.003439	21.813
0.006937	35.92
0.005008	48.738
0.006704	61.5607
0.011991	78.234
0.01557	83.3668
0.035369	98.7764
0.064196	118.044
0.082229	128.323
0.109313	139.896
0.132819	146.336
0.158079	159.188
0.185163	170.761
0.205009	181.042
0.214002	188.746
0.262791	205.474
0.30986	211.944
0.360566	217.137
0.414909	221.052
0.458295	233.927
0.512661	235.278
0.563321	245.598
0.606788	249.499
0.653857	255.969
0.700915	263.721
0.75341	271.48
0.804117	276.672
0.825833	280.546
0.863839	287.004
0.894583	294.735
0.918031	307.586
0.932462	315.296
0.966692	338.416
0.991708	378.192
0.998714	405.124
1.00032	428.203
1.00363	462.822
1.01944	517.97
0.051368	133.412
0.114484	169.389
0.154163	191.234
0.195678	210.518
0.242597	233.654
0.302203	256.806
0.34	286.341
0.379808	294.084
0.446897	291.605
0.486785	290.373
0.546531	298.141
0.589987	303.324
0.638938	302.104
0.682406	306.005
0.747601	312.498
0.80371	321.543
0.845411	320.314
0.86528	328.032
0.914173	333.222
0.935855	340.941
0.957466	356.353
0.97536	382.017
0.993021	433.321
1.00484	529.49
