Adsorption isotherm of Nitrogen on S-TmTaDm-COF
DOI: 10.1021/jacs.0c00969
Article source: Figure 2c
Adsorbate Nitrogen: InChIKey IJGRMHOSHXDMSA-UHFFFAOYSA-N
Kind: experiment
Temperature: 77 K
Tabular data in the source: 0
pressure (bar)	uptake (cm3(STP)/g)
0.001058	22.8462
-0.000126	42.3214
0.000395	67.0975
-0.003355	95.4357
0.002924	125.491
0.001632	146.737
0.006422	167.951
0.042983	233.246
0.077534	264.923
0.139389	314.157
0.191108	363.443
0.232117	488.892
0.282365	495.708
0.31053	499.101
0.379238	502.28
0.423727	503.817
0.465867	510.676
0.514195	515.732
0.556873	513.739
0.617257	520.502
0.661531	525.58
0.702289	521.826
0.765239	519.727
0.791053	528.441
0.81911	533.604
0.849518	533.444
0.873198	543.94
0.909148	552.601
0.936344	571.927
0.94935	591.328
0.963522	624.882
-0.000233	44.0919
0.000287	68.868
-0.003139	91.8948
-0.005184	125.534
-0.000395	146.748
0.010584	166.159
0.025187	192.631
0.05493	236.723
0.072098	254.332
0.097267	273.669
0.112623	287.748
0.127872	303.598
0.151444	315.863
0.17437	338.752
0.249088	476.414
0.296771	492.093
0.337421	490.11
0.401967	495.082
0.448591	494.837
0.501082	498.102
0.539167	504.982
0.585684	506.508
0.654391	509.688
0.694719	513.017
0.745398	512.751
0.801942	515.994
0.826053	519.408
0.850379	519.28
0.884302	527.952
0.905955	538.458
0.935609	550.692
0.951072	563.001
0.964401	577.09
0.969837	587.681
0.975057	601.813
0.977605	626.578
