Adsorption isotherm of Nitrogen on P-StPtDm-COF
DOI: 10.1021/jacs.0c00969
Article source: Figure S11d
Adsorbate Nitrogen: InChIKey IJGRMHOSHXDMSA-UHFFFAOYSA-N
Kind: experiment
Temperature: 77 K
Tabular data in the source: 0
pressure (bar)	uptake (cm3(STP)/g)
0.015565	12.0902
0.015991	27.0539
0.012545	39.3173
0.011228	59.7325
0.011732	77.4169
0.012196	93.7409
0.012583	107.344
0.009176	120.968
0.017423	144.053
0.023463	156.265
0.029619	172.559
0.032097	192.954
0.046152	220.089
0.069615	244.453
0.092923	263.375
0.12413	293.14
0.137914	310.753
0.157466	331.056
0.180774	349.978
0.206289	379.773
0.223867	397.366
0.271994	421.597
0.323411	428.124
0.36724	434.691
0.44336	442.446
0.494506	439.45
0.530669	443.337
0.568729	447.214
0.623941	453.721
0.6771	454.796
0.72089	460.003
0.768281	458.387
0.833095	468.924
0.846414	470.213
0.874949	472.781
0.930122	477.926
0.974106	489.935
0.981772	492.615
1.01259	508.776
1.0225	523.689
1.02843	531.82
1.03071	545.413
0.073874	260.757
0.113405	316.327
0.173844	373.145
0.234089	423.161
0.270523	436.571
0.33162	449.848
0.373667	460.507
0.421174	462.973
0.478129	464.028
0.527494	465.123
0.57504	468.949
0.599781	471.537
0.664517	479.353
0.727201	481.737
0.780361	482.812
0.808819	482.66
0.831663	485.258
0.867825	489.145
0.892489	489.013
0.928729	495.621
0.95556	505.001
0.995749	517.03
1.02328	550.895
