Adsorption isotherm of Nitrogen on S-TmTaTp-COF
DOI: 10.1021/jacs.0c00969
Article source: Figure S8d
Adsorbate Nitrogen: InChIKey IJGRMHOSHXDMSA-UHFFFAOYSA-N
Kind: experiment
Temperature: 77 K
Tabular data in the source: 0
pressure (bar)	uptake (cm3(STP)/g)
0.013944	31.8138
0.016268	45.969
0.018592	60.1242
0.018592	76.0534
0.020916	88.4387
0.020916	99.0582
0.02324	118.523
0.025564	134.448
0.027888	150.373
0.03486	168.06
0.039507	180.442
0.051127	212.28
0.083663	237.002
0.109226	259.966
0.127818	277.633
0.141762	289.998
0.15803	305.898
0.171974	316.493
0.188241	330.624
0.202185	348.299
0.213805	367.748
0.274228	441.979
0.311412	457.843
0.364863	455.98
0.406694	461.216
0.46247	466.429
0.529865	466.311
0.5624	466.254
0.632119	473.212
0.683247	478.432
0.725078	481.899
0.759937	485.378
0.815713	488.82
0.848248	486.994
0.87846	495.79
0.910995	495.734
0.941207	504.53
0.966771	516.875
0.994658	538.065
1.00163	548.673
1.0086	562.82
1.01325	587.59
1.01325	598.21
0.055775	263.599
0.120846	311.273
0.160354	339.523
0.220777	390.745
0.271904	466.761
0.309088	480.856
0.348595	487.866
0.406694	489.535
0.471765	492.961
0.497329	492.916
0.534513	499.931
0.587964	501.608
0.636767	501.522
0.687894	501.433
0.739022	504.883
0.801769	508.314
0.838952	508.249
0.87846	508.18
0.906347	515.211
0.927263	524.024
0.950503	536.372
0.971419	552.265
0.99001	566.392
1.01557	605.285
