Adsorption isotherm of Nitrogen on P-StTtDm-COF
DOI: 10.1021/jacs.0c00969
Article source: Figure S15d
Adsorbate Nitrogen: InChIKey IJGRMHOSHXDMSA-UHFFFAOYSA-N
Kind: experiment
Temperature: 77 K
Tabular data in the source: 0
pressure (bar)	uptake (cm3(STP)/g)
0.014913	14.3471
0.015088	31.0132
0.015217	43.235
0.015287	49.9015
0.015369	57.679
0.023929	72.0952
0.028273	85.4143
0.03465	92.06
0.049516	106.456
0.083395	129.677
0.110886	145.143
0.129887	152.858
0.142581	160.594
0.167947	173.844
0.184822	179.344
0.208073	191.489
0.229188	200.309
0.26921	207.955
0.302902	213.4
0.35974	220.991
0.422862	226.338
0.475415	226.166
0.528049	233.77
0.570138	238.076
0.614364	245.708
0.673281	251.07
0.717449	253.147
0.759538	257.453
0.81216	263.947
0.839569	271.634
0.862739	276.002
0.890137	282.579
0.917557	291.378
0.936605	303.537
0.95793	332.356
0.981356	361.168
1.00049	381.105
1.00484	395.535
0.062433	135.302
0.121735	177.329
0.166113	199.405
0.212593	221.475
0.263219	237.975
0.305366	247.836
0.372925	275.392
0.412889	277.482
0.459193	282.886
0.51386	283.817
0.566436	285.866
0.614843	291.262
0.658998	292.228
0.719983	294.25
0.772559	296.299
0.799945	301.765
0.827319	306.119
0.865192	309.328
0.890475	314.8
0.903135	319.203
0.93483	334.654
0.95814	352.355
0.983552	370.049
