Adsorption isotherm of Nitrogen on S-DpTaDm-COF
DOI: 10.1021/jacs.0c00969
Article source: Figure S16d
Adsorbate Nitrogen: InChIKey IJGRMHOSHXDMSA-UHFFFAOYSA-N
Kind: experiment
Temperature: 77 K
Tabular data in the source: 0
pressure (bar)	uptake (cm3(STP)/g)
0.013094	15.2893
0.014646	28.8513
0.012104	49.186
0.011658	64.4395
0.011063	84.7775
0.016265	106.82
0.021664	122.083
0.022672	154.288
0.027972	172.941
0.033372	188.205
0.044319	213.647
0.066908	240.803
0.087598	266.261
0.104441	290.018
0.127228	310.396
0.14417	330.763
0.168757	356.228
0.183899	371.507
0.20089	390.18
0.255116	468.237
0.303382	483.572
0.351697	497.212
0.408054	502.391
0.473906	516.06
0.522518	519.531
0.571032	526.392
0.615698	531.552
0.66606	541.805
0.716869	536.806
0.755591	545.345
0.807852	557.297
0.840927	559.047
0.879648	567.586
0.91652	572.733
0.935856	577.85
0.958941	588.058
0.975882	608.425
0.987078	625.393
0.994525	637.27
0.998026	650.835
0.060468	261.131
0.105448	322.223
0.151121	359.588
0.198396	408.82
0.229291	485.143
0.281206	508.958
0.333666	514.131
0.393573	531.18
0.436241	538.031
0.4906	544.902
0.527422	551.743
0.568092	560.286
0.640086	563.796
0.692695	563.884
0.743206	569.053
0.782126	570.813
0.822846	577.661
0.861716	581.116
0.888796	587.941
0.911979	594.759
0.942759	608.37
0.967494	628.75
0.986533	644.036
0.992131	652.52
