Adsorption isotherm of Nitrogen on S-TmTtDm-COF
DOI: 10.1021/jacs.0c00969
Article source: Figure S14d
Adsorbate Nitrogen: InChIKey IJGRMHOSHXDMSA-UHFFFAOYSA-N
Kind: experiment
Temperature: 77 K
Tabular data in the source: 0
pressure (bar)	uptake (cm3(STP)/g)
0.016261	6.84027
0.017942	14.4713
0.019636	21.339
0.019442	32.0263
0.019358	36.6066
0.019219	44.2404
0.022635	56.449
0.024371	61.0265
0.027843	70.1816
0.034981	77.8044
0.040327	83.9032
0.056422	99.1462
0.086945	121.238
0.106803	129.605
0.121218	137.216
0.142867	147.108
0.153657	153.961
0.180709	166.898
0.196845	179.851
0.211176	192.043
0.272848	201.874
0.323687	207.14
0.367389	204.784
0.416409	210.054
0.469151	210.738
0.512756	213.726
0.558124	219.764
0.603603	219.696
0.659956	221.901
0.71442	227.926
0.776314	225.542
0.808989	229.31
0.839887	230.79
0.859856	233.05
0.887088	236.062
0.916084	242.126
0.941414	249.721
0.957661	256.567
0.982907	268.743
0.995503	276.357
1.00622	287.028
1.01147	298.47
0.063254	123.563
0.111969	145.627
0.162531	166.162
0.216509	198.905
0.27089	209.51
0.309078	210.216
0.36725	212.418
0.410896	213.116
0.47622	222.178
0.525296	224.394
0.54707	227.415
0.619795	229.595
0.674329	231.803
0.721544	236.312
0.765093	242.353
0.816002	243.803
0.84329	243.762
0.875937	249.056
0.892254	252.085
0.924861	259.67
0.944719	268.037
0.97002	277.159
0.988018	287.819
1.00601	298.479
