Adsorption isotherm of Carbon Dioxide on S-TTPP
DOI: 10.1002/marc.201300328
Adsorbate Carbon Dioxide: InChIKey CURLTUGMZLYLDI-UHFFFAOYSA-N
Temperature: 298 K
Tabular data in the source: 0
pressure (bar)	uptake (mmol/g)
0.0140693	0.0106015
0.0549143	0.081024
0.0830833	0.140883
0.133788	0.207785
0.191534	0.28877
0.252097	0.369756
0.319703	0.450742
0.395759	0.535249
0.478858	0.612714
0.608435	0.732432
0.735196	0.834545
0.816886	0.897925
0.901393	0.961306
0.987309	1.02469
1.02675	1.0599
