Adsorption isotherm of Carbon Dioxide on O-TTPP
DOI: 10.1002/marc.201300328
Adsorbate Carbon Dioxide: InChIKey CURLTUGMZLYLDI-UHFFFAOYSA-N
Temperature: 298 K
Tabular data in the source: 0
pressure (bar)	uptake (mmol/g)
0.0549143	0.13032
0.0760411	0.183137
0.128154	0.292292
0.205619	0.447221
0.288717	0.602151
0.363365	0.714827
0.45914	0.873278
0.54083	0.982432
0.625337	1.10215
0.708435	1.22187
0.794351	1.3275
0.884492	1.43666
0.963365	1.52116
1.00984	1.56342
