Adsorption isotherm of Carbon Dioxide on S-TTPP
DOI: 10.1002/marc.201300328
Adsorbate Carbon Dioxide: InChIKey CURLTUGMZLYLDI-UHFFFAOYSA-N
Temperature: 273 K
Tabular data in the source: 0
pressure (bar)	uptake (mmol/g)
0.0126608	0.0422916
0.0464636	0.190179
0.063365	0.260601
0.091534	0.352151
0.142238	0.50708
0.198576	0.654968
0.263365	0.799334
0.328154	0.922573
0.390126	1.05286
0.47745	1.18666
0.605619	1.36271
0.729562	1.51412
0.854914	1.65849
0.942238	1.73947
1.02252	1.82398
