Adsorption isotherm of Carbon Dioxide on O-TTPP
DOI: 10.1002/marc.201300328
Adsorbate Carbon Dioxide: InChIKey CURLTUGMZLYLDI-UHFFFAOYSA-N
Temperature: 273 K
Tabular data in the source: 0
pressure (bar)	uptake (mmol/g)
0.0323791	0.172573
0.078858	0.447221
0.130971	0.654968
0.201393	0.890883
0.2859	1.10567
0.36759	1.30638
0.460548	1.48595
0.542238	1.6268
0.625337	1.75708
0.712661	1.88032
0.794351	1.99652
0.878858	2.09159
0.923928	2.15145
0.964773	2.20778
1.00562	2.243
