Adsorption isotherm of Nitrogen on S-TTPP
DOI: 10.1002/marc.201300328
Adsorbate Nitrogen: InChIKey IJGRMHOSHXDMSA-UHFFFAOYSA-N
Temperature: 77 K
Tabular data in the source: 0
pressure (bar)	uptake (cm3(STP)/g)
0.00372489	152.884
0.00372489	246.701
0.0194565	274.16
0.0566402	287.889
0.125287	303.907
0.233978	319.924
0.348389	331.366
0.459941	345.095
0.602955	359.968
0.710216	375.986
0.817476	404.589
0.909005	445.777
0.931888	480.1
0.967641	562.477
0.993384	735.238
