Adsorption isotherm of Nitrogen on O-TTPP
DOI: 10.1002/marc.201300328
Adsorbate Nitrogen: InChIKey IJGRMHOSHXDMSA-UHFFFAOYSA-N
Temperature: 77 K
Tabular data in the source: 0
pressure (bar)	uptake (cm3(STP)/g)
0.00515504	5.29291
0.00515504	105.975
0.0180263	124.281
0.05521	138.01
0.120997	149.451
0.196794	154.028
0.269731	159.748
0.348389	163.181
0.418466	164.325
0.494264	168.901
0.600095	173.478
0.673032	175.766
0.747399	178.054
0.817476	181.487
0.888983	184.919
0.963351	196.36
0.993384	207.801
