Adsorption isotherm of Nitrogen on DA-COF
DOI: 10.1002/adma.201201185
Article source: Figure 3(a)
Adsorbate Nitrogen: InChIKey IJGRMHOSHXDMSA-UHFFFAOYSA-N
Kind: experiment
Temperature: 77 K
Tabular data in the source: 0
pressure (bar)	uptake (cm3(STP)/g)
0	19.7287
0.015097	236.745
0.045191	308.261
0.053905	327.99
0.072751	372.38
0.100312	414.303
0.114092	489.519
0.12159	531.443
0.151785	554.87
0.181878	567.201
0.20569	572.133
0.235783	577.065
0.262128	584.464
0.284622	588.163
0.314715	593.095
0.363655	600.493
0.420093	609.125
0.469033	614.057
0.516656	618.989
0.569345	626.387
0.619501	632.552
0.669657	638.718
0.719813	651.048
0.771185	657.213
0.820125	668.311
0.872814	685.573
0.920436	712.7
0.963094	791.615
0.98569	902.589
0.101578	445.129
0.121641	554.871
0.144216	574.599
0.169294	585.697
0.195628	591.862
0.21945	598.027
0.245784	606.658
0.270872	611.591
0.343603	616.523
0.393759	621.455
0.445182	628.853
0.496594	639.951
0.598172	653.514
0.616978	655.98
0.648328	659.679
0.698494	667.078
0.752409	675.709
0.801319	684.34
0.8565	701.603
0.912928	733.662
0.966853	848.335
0.976884	912.454
