Adsorption isotherm of Methanol on CBV-901
DOI: 10.1021/Jp0103530
Adsorbate Methanol: InChIKey OKKJLVBELUTLKV-UHFFFAOYSA-N
Temperature: 293 K
Tabular data in the source: 0
pressure (bar)	uptake (g/g)
0.00421773	0.169319
0.00633041	0.817206
0.0168938	1.04256
0.0563304	1.85946
0.0901332	2.59185
0.121119	4.11298
0.12957	5.32425
0.139429	8.33833
0.145767	11.5778
0.147175	13.4933
0.159852	15.4088
0.194359	16.8172
0.280978	17.9721
0.314077	18.282
0.411964	19.0707
0.438725	19.3242
