Adsorption isotherm of Argon on CBV-901
DOI: 10.1021/Jp0103530
Adsorbate Argon: InChIKey XKRFYHLGVUSROY-UHFFFAOYSA-N
Temperature: 87 K
Tabular data in the source: 0
pressure (bar)	uptake (ml/g)
7.03e-05	0.0507957
0.000352	0.388824
0.000676	0.769106
0.000944	1.17474
0.00119703	1.70713
0.00136604	2.22263
0.00153506	2.90713
0.00163365	3.49868
0.00174633	4.11558
0.00187309	4.63953
0.00211252	5.05361
0.0024083	5.33249
0.00297168	5.58601
0.00335196	5.67051
0.00388717	5.77192
0.00461957	5.80573
0.00598576	5.85643
0.00764774	5.86488
