Adsorption isotherm of Methanol on CBV-901
DOI: 10.1021/Jp0103530
Adsorbate Methanol: InChIKey OKKJLVBELUTLKV-UHFFFAOYSA-N
Temperature: 293 K
Tabular data in the source: 0
pressure (bar)	uptake (g/g)
0.00633041	2.05664
0.0168938	2.31016
0.108443	4.19749
0.123232	5.01439
0.133091	16.5355
0.153514	19.7468
0.195063	21.0707
0.387316	22.8454
