Adsorption isotherm of Methanol on CBV-901
DOI: 10.1021/Jp0103530
Adsorbate Methanol: InChIKey OKKJLVBELUTLKV-UHFFFAOYSA-N
Temperature: 294 K
Tabular data in the source: 0
pressure (bar)	uptake (ml/g)
0.0163634	0.0101367
0.052403	0.0217208
0.0792897	0.0307307
0.0970235	0.0405987
0.106748	0.0500376
0.114757	0.0650541
0.119906	0.0826449
0.126198	0.126407
0.131347	0.168883
0.141644	0.192909
0.173679	0.212216
0.249191	0.22809
0.368179	0.24182
0.390489	0.243107
