Adsorption isotherm of Nitrogen on CBV-901
DOI: 10.1021/Jp0103530
Adsorbate Nitrogen: InChIKey IJGRMHOSHXDMSA-UHFFFAOYSA-N
Temperature: 77 K
Tabular data in the source: 0
pressure (bar)	uptake (ml/g)
0.00139321	5.12707
0.0014237	0.958051
0.0014237	3.04256
0.0126608	8.81721
0.035196	10.0285
0.0647735	11.1271
0.0929425	11.3806
0.152097	11.5778
0.230971	11.8595
0.308435	12.2257
0.412661	12.5919
0.50421	12.9017
0.597168	13.3524
0.681675	13.7186
0.757731	14.1693
0.839421	14.7045
0.905619	15.4933
0.947872	16.4228
0.973224	17.8031
