Adsorption isotherm of Methanol on CBV-901
DOI: 10.1021/Jp0103530
Adsorbate Methanol: InChIKey OKKJLVBELUTLKV-UHFFFAOYSA-N
Temperature: 333 K
Tabular data in the source: 0
pressure (bar)	uptake (g/g)
0.00280928	0.14115
0.0302741	1.01439
0.0732318	1.63411
0.115485	2.42284
0.143654	3.69045
0.161964	5.60594
0.178161	9.15523
0.212668	12.5073
0.273232	14.0003
0.322528	14.4792
0.357035	14.7327
0.390133	14.9862
0.423936	15.0426
0.448584	15.1552
