Adsorption isotherm of Water on CBV-901
DOI: 10.1021/Jp0103530
Adsorbate Water: InChIKey XLYOFNOQVPJJNP-UHFFFAOYSA-N
Temperature: 294 K
Tabular data in the source: 0
pressure (bar)	uptake (ml/g)
0.00835464	0.00198484
0.0381016	0.0045591
0.0741412	0.00584623
0.108465	0.0075624
0.135351	0.00799144
0.163382	0.00970761
0.1794	0.00884953
0.198278	0.00884953
0.214867	0.00927857
0.22402	0.00927857
0.377332	0.0152852
