Adsorption isotherm of Methanol on CBV-901
DOI: 10.1021/Jp0103530
Adsorbate Methanol: InChIKey OKKJLVBELUTLKV-UHFFFAOYSA-N
Temperature: 333 K
Tabular data in the source: 0
pressure (bar)	uptake (g/g)
0.01126	1.94397
0.118302	3.77495
0.148584	5.29608
0.177457	9.1834
0.208443	14.3102
0.239429	17.6341
0.295767	19.8595
0.384499	20.8735
0.472528	21.4088
