Adsorption isotherm of Cyclohexane on CBV-901
DOI: 10.1021/Jp0103530
Adsorbate Cyclohexane: InChIKey XDTMQSROBMDMFD-UHFFFAOYSA-N
Temperature: 294 K
Tabular data in the source: 0
pressure (bar)	uptake (ml/g)
0.00206202	0.0225789
0.00263407	0.0620508
0.00377819	0.0907967
0.00549436	0.118255
0.00949876	0.14314
0.0192237	0.157298
0.0409619	0.171886
0.0638442	0.18347
0.0770015	0.188619
0.125626	0.206209
0.250907	0.238817
0.368751	0.259411
