Adsorption isotherm of Hydrogen on DUT-12
DOI: 10.1002/ejic.201000415
Adsorbate Hydrogen: InChIKey UFHFLCQGNIYNRP-UHFFFAOYSA-N
Temperature: 77 K
Tabular data in the source: 0
pressure (bar)	uptake (cm3(STP)/g)
0.00837971	8.6895
0.0979595	56.2324
0.205018	77.2071
0.305523	90.8408
0.408212	102.726
0.508716	114.263
0.61359	123.701
0.711909	132.441
0.805859	139.432
0.915102	146.774
