Adsorption isotherm of Nitrogen on DUT-12
DOI: 10.1002/ejic.201000415
Adsorbate Nitrogen: InChIKey IJGRMHOSHXDMSA-UHFFFAOYSA-N
Temperature: 77 K
Tabular data in the source: 0
pressure (bar)	uptake (cm3(STP)/g)
0.00619484	161.805
0.0345982	196.545
0.108884	208.999
0.205018	213.587
0.4388	222.108
0.556783	222.108
0.657287	222.763
0.753422	225.385
0.912918	227.352
0.960985	238.494
0.993758	269.301
