Adsorption isotherm of Carbon Dioxide on DUT-10(Zn)
DOI: 10.1002/ejic.201000415
Adsorbate Carbon Dioxide: InChIKey CURLTUGMZLYLDI-UHFFFAOYSA-N
Temperature: 195 K
Tabular data in the source: 0
pressure (bar)	uptake (cm3(STP)/g)
0.00837971	20.2256
0.0236738	39.234
0.0520772	72.6626
0.0739259	78.5617
0.209388	98.881
0.35796	112.646
0.465018	122.478
0.561153	131.654
0.808044	149.352
0.921657	154.595
