Adsorption isotherm of Hydrogen on DUT-10(Zn)
DOI: 10.1002/ejic.201000415
Adsorbate Hydrogen: InChIKey UFHFLCQGNIYNRP-UHFFFAOYSA-N
Temperature: 77 K
Tabular data in the source: 0
pressure (bar)	uptake (cm3(STP)/g)
0.0520772	28.6155
0.106699	40.5013
0.194094	52.7366
0.298968	61.1265
0.403842	66.0206
0.504346	70.2155
0.60922	73.0122
0.6988	74.7601
0.801489	74.7601
0.901993	75.1097
