Adsorption isotherm of Nitrogen on DUT-10(Zn)
DOI: 10.1002/ejic.201000415
Adsorbate Nitrogen: InChIKey IJGRMHOSHXDMSA-UHFFFAOYSA-N
Temperature: 77 K
Tabular data in the source: 0
pressure (bar)	uptake (cm3(STP)/g)
0.0171192	2.5281
0.111069	3.83903
0.187539	5.80541
0.43443	6.46088
0.517455	7.11634
0.602665	7.11634
0.657287	7.7718
0.711909	7.11634
0.803674	6.46088
0.978464	8.42726
