Adsorption isotherm of Water on DUT-10(Zn)
DOI: 10.1002/ejic.201000415
Adsorbate Water: InChIKey XLYOFNOQVPJJNP-UHFFFAOYSA-N
Temperature: 298 K
Tabular data in the source: 0
pressure (bar)	uptake (cm3(STP)/g)
0.0608167	6.36713
0.156951	12.9218
0.211573	14.2327
0.303338	24.7201
0.401657	33.8965
0.513086	71.9134
0.567707	94.1991
0.6988	117.796
0.808044	150.569
0.840817	187.275
0.901993	347.207
0.952245	562.199
