Adsorption isotherm of Nitrogen on Ni-DABCO
DOI: 10.1016/j.micromeso.2012.10.025
Adsorbate Nitrogen: InChIKey IJGRMHOSHXDMSA-UHFFFAOYSA-N
Temperature: 77 K
Tabular data in the source: 0
pressure (bar)	uptake (cm3(STP)/g)
0.00182509	2.84008
0.00400996	492.252
0.021489	515.193
0.0477074	524.37
0.08922	542.722
0.121993	542.722
0.165691	548.84
0.26401	556.487
0.373254	564.134
0.517455	573.311
0.670397	580.958
0.768716	590.134
0.834262	600.84
0.893254	622.252
0.939136	628.37
0.978464	629.899
