Adsorption isotherm of Nitrogen on Cu-DABCO
DOI: 10.1016/j.micromeso.2012.10.025
Adsorbate Nitrogen: InChIKey IJGRMHOSHXDMSA-UHFFFAOYSA-N
Temperature: 77 K
Tabular data in the source: 0
pressure (bar)	uptake (cm3(STP)/g)
0.00182509	2.84008
0.00619484	372.958
0.0389679	394.37
0.100144	403.546
0.222497	411.193
0.318632	418.84
0.454094	420.37
0.591741	426.487
0.725018	435.664
0.814598	441.781
0.856111	452.487
0.880144	461.664
0.917287	461.664
0.987203	466.252
