Adsorption isotherm of Water on Zn(II) MOF 2'
DOI: 10.1021/acssuschemeng.7b02087
Article source: Figure S10
Adsorbate Water: InChIKey XLYOFNOQVPJJNP-UHFFFAOYSA-N
Kind: experiment
Temperature: 298 K
Tabular data in the source: 0
pressure (bar)	uptake (mmol/g)
0.00018	0.207859
0.000402	0.717365
0.000447	0.8951
0.000714	1.26834
0.001084	1.81932
0.00141	2.29328
0.001529	2.47101
0.001885	2.9509
0.002285	3.4604
0.002745	3.95213
0.003041	4.3076
0.003693	4.79341
0.004079	5.07186
0.004701	5.52212
0.005546	6.03163
0.006703	6.49374
0.007088	6.66555
0.008007	6.90253
0.009223	7.17505
0.009683	7.24615
0.011743	7.60754
0.013493	7.85044
0.015568	8.06373
0.020267	8.45474
0.023099	8.58508
0.026524	8.76282
0.029148	8.85168
0.030926	8.88723
0.029859	8.89316
0.025842	8.80429
0.022802	8.69765
0.019941	8.53176
0.017525	8.3718
0.015716	8.21184
0.013759	7.99856
0.012084	7.78528
0.010646	7.54237
0.008926	7.2106
0.008378	7.09211
0.007459	6.86106
0.006718	6.62408
0.006184	6.41672
0.005102	5.93684
0.004642	5.61099
0.003886	4.92375
0.003338	4.38462
