Adsorption isotherm of Carbon Dioxide on Zn(II) MOF 2' after 8 days exposure to water vapor
DOI: 10.1021/acssuschemeng.7b02087
Article source: Figure S14B
Adsorbate Carbon Dioxide: InChIKey CURLTUGMZLYLDI-UHFFFAOYSA-N
Kind: experiment
Temperature: 298 K
Tabular data in the source: 0
pressure (bar)	uptake (mmol/g)
0.077347	0.043375
0.232042	0.090694
0.696127	0.145899
1.4696	0.216877
3.17124	0.303628
4.4088	0.382492
5.64636	0.414038
6.57453	0.445584
7.5027	0.516562
8.74026	0.555994
9.82312	0.611199
10.906	0.650631
13.6905	0.761041
16.475	0.839905
19.1048	0.942429
21.7346	1.01341
24.6738	1.10016
27.3036	1.14748
30.0881	1.1948
32.8726	1.24211
35.5025	1.28155
38.2096	1.33281
40.9168	1.37618
43.6239	1.41561
46.4858	1.44716
49.0383	1.49448
51.9001	1.5418
53.6791	1.56546
54.2979	1.57729
54.3752	1.64432
52.983	1.70741
48.1874	1.7705
42.7731	1.77839
38.1323	1.72319
32.8726	1.63644
27.3036	1.57334
22.5081	1.48659
16.3203	1.38013
10.906	1.21057
5.49167	1.00158
2.70716	0.891167
