Adsorption isotherm of Carbon Dioxide on Zn(II) MOF 2' after 10 days exposure to water vapor
DOI: 10.1021/acssuschemeng.7b02087
Article source: Figure S14B
Adsorbate Carbon Dioxide: InChIKey CURLTUGMZLYLDI-UHFFFAOYSA-N
Kind: experiment
Temperature: 298 K
Tabular data in the source: 0
pressure (bar)	uptake (mmol/g)
0	0
0.541432	0.01183
1.6243	0.059148
3.32594	0.114353
4.4088	0.161672
5.49167	0.193218
6.57453	0.23265
7.65739	0.264196
8.58556	0.295741
9.82312	0.319401
10.8286	0.35489
13.5358	0.421924
16.3203	0.485016
19.1048	0.548107
21.8893	0.595426
24.6738	0.650631
27.3036	0.705836
30.0881	0.753155
32.8726	0.800473
35.5025	0.847792
38.287	0.887224
40.9168	0.934543
43.7013	0.973975
46.4858	1.01341
48.9609	1.05284
51.9001	1.09227
53.7564	1.12382
54.2205	1.13959
54.2205	1.17902
53.0603	1.2224
48.1874	1.28155
42.7731	1.33675
38.2096	1.36435
32.8726	1.32886
27.3036	1.27366
21.8893	1.17902
16.3203	1.06861
10.906	0.942429
5.49167	0.780757
2.70716	0.666404
