Adsorption isotherm of Carbon Dioxide on Zn(II) MOF 1'
DOI: 10.1021/acssuschemeng.7b02087
Article source: Figure S15B
Adsorbate Carbon Dioxide: InChIKey CURLTUGMZLYLDI-UHFFFAOYSA-N
Kind: experiment
Temperature: 298 K
Tabular data in the source: 0
pressure (bar)	uptake (mmol/g)
0.070536	0.16129
0.376194	0.815412
0.752388	1.20968
1.10507	1.46057
1.43424	1.65771
1.81043	1.79211
2.16312	1.89964
2.53931	1.99821
2.89199	2.09677
3.2917	2.14158
3.62087	2.21326
3.99706	2.27151
4.37325	2.34767
4.74945	2.39247
5.12564	2.41935
5.50184	2.4552
5.85452	2.5
6.25422	2.5
6.60691	2.5448
6.9831	2.55376
7.38281	2.58065
8.08817	2.61649
8.84056	2.66129
9.54592	2.71505
10.2748	2.74194
11.0272	2.75986
11.7561	2.81362
12.4849	2.82258
13.2138	2.8405
13.9427	2.86738
14.6951	2.89426
15.1888	2.93011
14.9772	2.92115
14.2719	2.89426
13.5195	2.85842
12.7671	2.84946
12.0147	2.8405
11.2388	2.78674
10.5099	2.7509
9.71051	2.71505
8.98163	2.70609
8.58193	2.67025
8.20573	2.63441
7.52388	2.63441
7.24173	2.61649
6.77149	2.57169
6.67744	2.56272
6.27774	2.53136
5.90154	2.50896
5.52535	2.5
5.14916	2.4552
4.79647	2.41039
4.39677	2.38351
4.02057	2.32079
3.66789	2.27599
3.2917	2.22222
2.75092	2.13262
2.23365	1.99821
1.78692	1.85484
1.41073	1.71147
1.03453	1.50538
0.681852	1.24552
