Adsorption isotherm of Methane on Zn(II) MOF 1'
DOI: 10.1021/acssuschemeng.7b02087
Article source: Figure S11A
Adsorbate Methane: InChIKey VNWKTOKETHGBQD-UHFFFAOYSA-N
Kind: experiment
Temperature: 298 K
Tabular data in the source: 0
pressure (bar)	uptake (mmol/g)
0	0
0.5959	0
1.49914	0.002463
2.47766	0.01473
3.11745	0.019331
4.43468	0.030064
5.26265	0.039265
6.31644	0.042332
7.44549	0.051532
8.34874	0.060732
9.40252	0.072999
10.5316	0.079133
13.3166	0.100601
15.8005	0.126668
18.5855	0.143536
21.2952	0.161936
24.0049	0.183404
26.6018	0.211005
29.1986	0.226339
31.8331	0.24474
34.4675	0.269274
37.2525	0.290742
39.8117	0.306076
42.5214	0.33061
45.1559	0.342877
47.8656	0.367412
50.2743	0.379679
52.0808	0.395013
52.6829	0.398079
51.4786	0.388879
46.6613	0.364345
41.5806	0.333677
37.2525	0.299942
31.8331	0.260074
26.5641	0.223272
21.0694	0.180337
15.7252	0.131269
10.4563	0.085267
5.26265	0.039265
2.6282	0.01473
