Adsorption isotherm of Carbon Dioxide on Zn(II) MOF 2' after 4 days exposure to water vapor
DOI: 10.1021/acssuschemeng.7b02087
Article source: Figure S14B
Adsorbate Carbon Dioxide: InChIKey CURLTUGMZLYLDI-UHFFFAOYSA-N
Kind: experiment
Temperature: 298 K
Tabular data in the source: 0
pressure (bar)	uptake (mmol/g)
0	0.130126
0.232042	0.193218
0.541432	0.279968
1.6243	0.421924
3.32594	0.540221
4.25411	0.611199
5.49167	0.642744
6.41984	0.745268
7.65739	0.761041
8.58556	0.824132
9.82312	0.855678
11.0607	0.89511
13.6905	1.02129
16.3203	1.13959
19.2595	1.24211
21.8893	1.31309
24.5191	1.41561
27.3036	1.51025
30.0881	1.58912
32.8726	1.67587
35.5025	1.74685
38.4417	1.82571
40.9168	1.92823
43.6239	1.98738
46.4858	2.07808
49.2703	2.18849
51.9001	2.26735
53.6018	2.32256
54.2979	2.33044
54.3752	2.37776
53.1377	2.40931
48.3421	2.38959
42.9278	2.29101
38.1323	2.19243
32.8726	2.07019
27.1489	1.95189
21.7346	1.80205
16.3203	1.55757
10.906	1.31309
5.41432	1.01341
2.70716	0.690063
