Adsorption isotherm of Carbon Dioxide on Zn(II) MOF 2' after 6 days exposure to water vapor
DOI: 10.1021/acssuschemeng.7b02087
Article source: Figure S14B
Adsorbate Carbon Dioxide: InChIKey CURLTUGMZLYLDI-UHFFFAOYSA-N
Kind: experiment
Temperature: 298 K
Tabular data in the source: 0
pressure (bar)	uptake (mmol/g)
1.4696	0.264196
3.48063	0.366719
4.09941	0.421924
5.41432	0.477129
6.49718	0.520505
7.65739	0.587539
8.74026	0.626972
9.97781	0.67429
11.0607	0.721609
13.6905	0.847792
16.475	0.966088
19.2595	1.10804
21.7346	1.26577
24.6738	1.32886
27.4583	1.41561
30.0881	1.50237
32.8726	1.58912
35.6572	1.66798
38.287	1.73107
40.9168	1.79416
43.5466	1.84148
46.4858	1.90457
49.2703	1.95978
51.7454	1.99921
53.6018	2.04653
54.3752	2.0623
54.2979	2.153
52.983	2.18849
48.3421	2.16483
42.9278	2.10962
38.287	2.0623
32.7953	1.9795
27.1489	1.85726
21.7346	1.7153
16.3203	1.51025
10.906	1.22634
5.56901	0.749211
2.55246	0.516562
