Adsorption isotherm of Methane on Zn(II) MOF 1'
DOI: 10.1021/acssuschemeng.7b02087
Article source: Figure S15A
Adsorbate Methane: InChIKey VNWKTOKETHGBQD-UHFFFAOYSA-N
Kind: experiment
Temperature: 298 K
Tabular data in the source: 0
pressure (bar)	uptake (mmol/g)
0.125471	0.012559
0.878294	0.213501
1.38018	0.389325
3.13676	0.722135
4.64241	1.02983
6.14806	1.28101
7.66474	1.47724
9.04433	1.63713
10.4239	1.79702
12.7475	1.97145
14.9984	2.15678
17.1767	2.32758
19.355	2.48747
21.6059	2.61102
23.7842	2.74184
26.0351	2.83633
29.6656	2.95261
33.2962	3.05436
36.9267	3.13431
40.5935	3.22516
43.0985	3.2506
40.775	3.22152
37.5075	3.13431
34.3127	3.07617
31.3357	3.00349
28.5039	2.91627
25.6358	2.80726
22.9855	2.6837
20.3715	2.54561
16.5958	2.31304
14.1997	2.14588
11.8761	1.94601
9.62521	1.72798
7.44691	1.49177
5.63165	1.19379
3.889	0.874004
3.01768	0.681406
2.11005	0.536049
