Adsorption isotherm of Carbon Dioxide on Zn(II) MOF 1'
DOI: 10.1021/acssuschemeng.7b02087
Article source: Figure S11A
Adsorbate Carbon Dioxide: InChIKey CURLTUGMZLYLDI-UHFFFAOYSA-N
Kind: experiment
Temperature: 298 K
Tabular data in the source: 0
pressure (bar)	uptake (mmol/g)
0.148925	0.01013
0.5374	0.048465
1.78052	0.143536
3.33441	0.266207
4.34445	0.33981
5.43218	0.41648
6.5976	0.487016
7.68533	0.551419
8.77305	0.621955
9.70539	0.671024
10.8708	0.729293
13.5124	0.858098
16.5425	0.974636
19.2619	1.07891
21.9035	1.17704
24.5451	1.25065
27.3421	1.33652
30.1391	1.40705
32.6254	1.47452
35.5001	1.53893
38.3748	1.6064
41.0164	1.66466
43.8134	1.7168
46.3774	1.7628
49.2521	1.81494
51.7383	1.86401
53.6807	1.89467
54.3022	1.91307
53.2145	1.89774
48.3197	1.8272
42.9588	1.73827
38.2194	1.65546
32.6254	1.52973
27.1867	1.39172
21.7481	1.22918
16.3095	1.03597
10.8708	0.793696
5.43218	0.48395
2.63516	0.275408
0.848179	0.119001
