Adsorption isotherm of Nitrogen on Zn(II) MOF 1'
DOI: 10.1021/acssuschemeng.7b02087
Article source: Figure S11A
Adsorbate Nitrogen: InChIKey IJGRMHOSHXDMSA-UHFFFAOYSA-N
Kind: experiment
Temperature: 298 K
Tabular data in the source: 0
pressure (bar)	uptake (mmol/g)
0.004809	0
0.069879	0
0.132494	0
0.186515	0.002463
0.247903	0.002463
0.300696	0.008597
0.357172	0.00553
0.409965	0.011664
0.456619	0.008597
0.524145	0.011664
0.575711	0.008597
0.611929	0.01473
0.660425	0.019331
0.726724	0.019331
0.763556	0.020864
0.816349	0.020864
0.864231	0.026998
0.797933	0.023931
0.746367	0.017797
0.698485	0.01473
0.645692	0.01473
0.59781	0.01473
0.545017	0.008597
0.495907	0.008597
0.438203	0.008597
0.381727	0.008597
0.325251	0.008597
0.283507	0.008597
0.227031	0.00553
0.171782	0.002463
0.115306	0
0.060057	0
0.004809	0
