Adsorption isotherm of Carbon Dioxide on Zn(II) MOF 2' after 2 days exposure to water vapor
DOI: 10.1021/acssuschemeng.7b02087
Article source: Figure S14B
Adsorbate Carbon Dioxide: InChIKey CURLTUGMZLYLDI-UHFFFAOYSA-N
Kind: experiment
Temperature: 298 K
Tabular data in the source: 0
pressure (bar)	uptake (mmol/g)
0	0.035489
0	0.090694
0	0.138013
0	0.185331
0	0.23265
0	0.272082
0	0.311514
0.077347	0.358833
0.077347	0.429811
0.232042	0.445584
0.541432	0.500789
1.6243	0.619085
3.32594	0.705836
4.25411	0.745268
5.49167	0.816246
6.41984	0.871451
7.65739	0.966088
8.74026	1.02918
9.82312	1.06073
10.7513	1.15536
13.5358	1.23423
16.475	1.37224
19.2595	1.45505
21.7346	1.58123
24.6738	1.67587
27.3036	1.78628
30.0881	1.84937
32.8726	1.89669
35.5025	1.97161
38.287	2.04653
40.9168	2.09385
43.7013	2.18849
46.6405	2.26735
49.193	2.35804
51.7454	2.41719
53.6018	2.44874
54.3752	2.46057
54.3752	2.55126
53.1377	2.54338
48.1874	2.51972
42.9278	2.44874
38.1323	2.36199
32.718	2.24369
27.3036	2.09385
21.7346	1.93612
16.3203	1.73107
10.906	1.44716
5.49167	1.10016
2.70716	0.824132
