Adsorption isotherm of Methane on Zn(II) MOF 2'
DOI: 10.1021/acssuschemeng.7b02087
Article source: Figure S15A
Adsorbate Methane: InChIKey VNWKTOKETHGBQD-UHFFFAOYSA-N
Kind: experiment
Temperature: 298 K
Tabular data in the source: 0
pressure (bar)	uptake (mmol/g)
0.185882	0.060003
0.766764	0.975754
1.27504	1.28101
2.79985	1.76068
4.10684	2.03686
5.84948	2.26217
7.59213	2.44386
9.33477	2.60376
10.9322	2.70914
13.2557	2.81452
15.6519	2.97442
17.9754	3.11251
20.2989	3.20699
22.7677	3.32328
25.1638	3.42502
28.8669	3.56311
32.5701	3.6576
36.2006	3.78842
39.8311	3.86836
43.4616	3.96285
43.1712	3.95558
39.0324	3.872
33.9496	3.70847
31.0089	3.61399
28.2497	3.51587
24.4377	3.38868
21.7511	3.25786
17.9028	3.11977
15.5793	2.95988
13.2557	2.82179
11.0774	2.72004
8.8265	2.57469
6.57558	2.35665
4.39728	2.11317
2.79985	1.83336
1.27504	1.35368
0.440018	0.895808
