Adsorption isotherm of Carbon Dioxide on Zn(II) MOF 3'
DOI: 10.1021/acssuschemeng.7b02087
Article source: Figure S12
Adsorbate Carbon Dioxide: InChIKey CURLTUGMZLYLDI-UHFFFAOYSA-N
Kind: experiment
Temperature: 298 K
Tabular data in the source: 0
pressure (bar)	uptake (mmol/g)
0	0
0.487149	0.007126
1.58324	0.024228
3.16647	0.047031
4.38434	0.064133
5.60221	0.081235
6.45473	0.098337
7.55081	0.112589
8.76868	0.131116
9.86477	0.146793
10.9	0.163895
13.6402	0.195249
16.3195	0.232304
19.1206	0.269359
21.6781	0.297862
24.601	0.332067
27.4021	0.366271
30.0815	0.397625
32.7608	0.428979
35.6837	0.457482
38.2412	0.488836
41.0423	0.514489
43.5998	0.548694
46.401	0.571496
49.0803	0.60285
51.7596	0.628504
53.83	0.651306
54.3171	0.668409
53.0993	0.669834
48.2278	0.645606
42.8082	0.611401
38.2412	0.580048
32.7608	0.537292
27.2803	0.484561
21.7999	0.426128
16.3195	0.366271
10.8391	0.295012
5.35864	0.206651
2.67932	0.149644
