Adsorption isotherm of Carbon Dioxide on Zn(II) MOF 1' after 8 days exposure to water vapor
DOI: 10.1021/acssuschemeng.7b02087
Article source: Figure S14A
Adsorbate Carbon Dioxide: InChIKey CURLTUGMZLYLDI-UHFFFAOYSA-N
Kind: experiment
Temperature: 298 K
Tabular data in the source: 0
pressure (bar)	uptake (mmol/g)
40.9993	1.57528
43.6213	1.64818
46.2434	1.74327
49.2627	1.7813
51.8053	1.81933
54.3479	1.85103
54.3479	1.85737
53.0766	1.84469
48.2298	1.77813
