Adsorption isotherm of Carbon Dioxide on Zn(II) MOF 1' after 10 days exposure to water vapor
DOI: 10.1021/acssuschemeng.7b02087
Article source: Figure S14A
Adsorbate Carbon Dioxide: InChIKey CURLTUGMZLYLDI-UHFFFAOYSA-N
Kind: experiment
Temperature: 298 K
Tabular data in the source: 0
pressure (bar)	uptake (mmol/g)
0	0
0.317824	0.028526
0.476736	0.044374
1.58912	0.139461
3.17824	0.215531
4.13171	0.285261
5.40301	0.342314
6.51539	0.399366
7.62778	0.462758
8.58125	0.545166
9.69363	0.602219
10.806	0.684628
13.3486	0.805071
16.3679	0.925515
19.2284	1.03962
21.9299	1.12203
24.4725	1.21078
27.4918	1.29318
30.1933	1.36292
32.8948	1.43265
35.4374	1.47702
38.2978	1.52773
40.9993	1.55943
43.7008	1.61648
46.4023	1.65452
49.1038	1.68621
51.8053	1.73059
53.5534	1.7496
54.3479	1.7496
54.3479	1.80666
53.0766	1.79398
48.2298	1.77496
42.9062	1.7401
38.1389	1.65452
32.7359	1.52773
27.174	1.38827
21.7709	1.22979
16.3679	1.03328
10.9649	0.792393
5.40301	0.488114
2.7015	0.278922
