Adsorption isotherm of Water on Zn(II) MOF 1'
DOI: 10.1021/acssuschemeng.7b02087
Article source: Figure S10
Adsorbate Water: InChIKey XLYOFNOQVPJJNP-UHFFFAOYSA-N
Kind: experiment
Temperature: 298 K
Tabular data in the source: 0
pressure (bar)	uptake (mmol/g)
0.000269	0.08937
0.000373	0.373745
0.000476	0.539631
0.000758	0.72329
0.001069	0.906949
0.001425	1.08468
0.001544	1.20317
0.001929	1.26834
0.002315	1.42238
0.002789	1.56457
0.00316	1.71268
0.003738	1.84302
0.004168	1.97336
0.004672	2.17479
0.005576	2.30513
0.006629	2.43547
0.007118	2.53026
0.008007	2.6132
0.009238	2.73762
0.009712	2.75539
0.011832	2.89165
0.013507	3.01014
0.015612	3.09901
0.020223	3.22342
0.023084	3.30044
0.026612	3.34191
0.029148	3.38931
0.030926	3.43078
0.029889	3.45448
0.025842	3.47817
0.022817	3.47817
0.019941	3.39523
0.01748	3.35376
0.015716	3.30044
0.013789	3.26489
0.012069	3.1701
0.010646	3.07531
0.008926	2.93312
0.008393	2.89758
0.007488	2.82056
0.006732	2.72577
0.006184	2.6369
0.005102	2.45916
0.004642	2.3229
0.003886	2.13924
0.003293	1.96151
0.003056	1.87856
0.002389	1.7186
0.001929	1.4757
0.001129	1.07283
