Adsorption isotherm of Carbon Dioxide on Zn(II) MOF 1' after 4 days exposure to water vapor
DOI: 10.1021/acssuschemeng.7b02087
Article source: Figure S14A
Adsorbate Carbon Dioxide: InChIKey CURLTUGMZLYLDI-UHFFFAOYSA-N
Kind: experiment
Temperature: 298 K
Tabular data in the source: 0
pressure (bar)	uptake (mmol/g)
3.9728	0.335975
5.2441	0.418384
6.6743	0.494453
7.46886	0.548336
8.50179	0.618067
10.6471	0.748019
16.209	0.988906
19.1489	1.08399
21.9299	1.17908
35.5168	1.50238
38.1389	1.55943
40.9993	1.62282
43.7008	1.67987
46.4023	1.72742
53.7123	1.87322
54.3479	1.87005
53.0766	1.85737
48.3093	1.78764
42.9062	1.69255
38.1389	1.6038
32.7359	1.48336
27.174	1.3439
21.7709	1.17908
16.3679	0.988906
10.806	0.748019
5.40301	0.437401
2.62205	0.234548
