Adsorption isotherm of Nitrogen on Zn(II) MOF 2'
DOI: 10.1021/acssuschemeng.7b02087
Article source: Figure S11B
Adsorbate Nitrogen: InChIKey IJGRMHOSHXDMSA-UHFFFAOYSA-N
Kind: experiment
Temperature: 298 K
Tabular data in the source: 0
pressure (bar)	uptake (mmol/g)
0	0
0.01142	0
0.043494	0.007681
0.06026	0.010392
0.075569	0.010392
0.093063	0.015813
0.107643	0.015813
0.126596	0.015813
0.149922	0.013102
0.181996	0.021235
0.212612	0.021235
0.266555	0.023946
0.31904	0.021235
0.355488	0.026657
0.406515	0.032078
0.457542	0.026657
0.510027	0.032078
0.561054	0.026657
0.610623	0.0375
0.663108	0.0375
0.714135	0.0375
0.763704	0.0375
0.813273	0.0375
0.867216	0.0375
0.85701	0.042922
0.836599	0.0375
0.805983	0.0375
0.754956	0.042922
0.703929	0.0375
0.655089	0.032078
0.603333	0.026657
0.553764	0.023946
0.504195	0.021235
0.453168	0.015813
0.400683	0.021235
0.351114	0.015813
0.301545	0.015813
0.260724	0.015813
0.200949	0.010392
0.164501	0.015813
0.14409	0.010392
0.125138	0.010392
0.103269	0.00497
0.085774	0.00497
0.068279	0.010392
0.052242	0.00497
0.037663	0.00497
0.020168	0.00497
0.010691	0.00497
0.004131	0.00497
