Adsorption isotherm of Carbon Dioxide on Zn(II) MOF 3'
DOI: 10.1021/acssuschemeng.7b02087
Article source: Figure S12
Adsorbate Carbon Dioxide: InChIKey CURLTUGMZLYLDI-UHFFFAOYSA-N
Kind: experiment
Temperature: 273 K
Tabular data in the source: 0
pressure (bar)	uptake (mmol/g)
0	0.00285
0.329658	0.021378
0.857111	0.064133
1.71422	0.126841
2.37354	0.161045
2.90099	0.1981
3.56031	0.229454
4.08776	0.263658
4.68115	0.297862
5.27453	0.326366
5.93385	0.36057
7.38434	0.420428
8.90077	0.483135
10.3513	0.542993
11.8347	0.6
13.3512	0.651306
14.7687	0.702613
16.3181	0.753919
17.8015	0.799525
19.1861	0.845131
20.7025	0.887886
22.153	0.927791
23.6695	0.973397
25.1859	1.01615
26.5704	1.05036
28.0869	1.09026
29.1088	1.12162
29.4055	1.13587
28.7462	1.13444
26.1089	1.09311
23.2739	1.03325
20.7025	0.981948
17.8015	0.909264
14.7687	0.825178
11.8018	0.735392
8.83484	0.625653
5.93385	0.497387
2.96692	0.332067
1.4505	0.220903
