Adsorption isotherm of Carbon Dioxide on Zn(II) MOF 2'
DOI: 10.1021/acssuschemeng.7b02087
Article source: Figure S15B
Adsorbate Carbon Dioxide: InChIKey CURLTUGMZLYLDI-UHFFFAOYSA-N
Kind: experiment
Temperature: 298 K
Tabular data in the source: 0
pressure (bar)	uptake (mmol/g)
0.070536	0.331541
0.32917	1.44265
0.658339	2.04301
1.03453	2.39247
1.34019	2.62545
1.71639	2.78674
2.05731	2.92563
2.42175	3.01523
2.77443	3.10932
3.19765	3.21685
3.55033	3.28853
3.90301	3.37814
4.27921	3.44086
4.6554	3.52151
5.03159	3.60215
5.38428	3.64695
5.73696	3.70072
6.08964	3.76344
6.48935	3.86201
6.84203	3.95161
7.24173	4.0233
7.90007	4.14875
8.65246	4.23835
9.33431	4.319
10.122	4.41308
10.8156	4.43548
11.5209	4.49821
12.2263	4.48029
12.9552	4.50717
13.637	4.53405
14.3659	4.53405
15.0242	4.57437
14.8832	4.56989
14.2954	4.56093
13.6135	4.56093
12.9787	4.53405
12.1323	4.51613
11.5445	4.51613
10.7215	4.47133
10.2278	4.42652
9.47539	4.319
8.48788	4.25627
7.87656	4.16667
7.47685	4.1129
6.91256	4.0233
6.51286	3.95161
6.11315	3.85305
5.73696	3.7724
5.33725	3.6828
4.98457	3.61111
4.58486	3.4767
4.20867	3.42294
3.80896	3.37814
3.40926	3.24373
2.86848	3.14516
2.44526	3.01523
2.02204	2.91219
1.78692	2.82258
1.41073	2.60753
0.916973	2.38351
0.493755	1.74731
