Adsorption isotherm of Carbon Dioxide on Zn(II) MOF 1' after 2 days exposure to water vapor
DOI: 10.1021/acssuschemeng.7b02087
Article source: Figure S14A
Adsorbate Carbon Dioxide: InChIKey CURLTUGMZLYLDI-UHFFFAOYSA-N
Kind: experiment
Temperature: 298 K
Tabular data in the source: 0
pressure (bar)	uptake (mmol/g)
9.69363	0.671949
10.0909	0.706815
13.4281	0.858954
16.3679	0.976228
19.0694	1.07765
21.7709	1.17908
24.393	1.25515
27.174	1.3439
30.0344	1.41363
32.6564	1.48653
35.4374	1.54041
38.1389	1.60697
40.9993	1.66086
43.5419	1.7084
46.4818	1.76545
49.1038	1.81616
51.8053	1.87005
54.3479	1.92076
53.0766	1.90174
48.2298	1.83201
