Adsorption isotherm of Carbon Dioxide on Zn(II) MOF 2'
DOI: 10.1021/acssuschemeng.7b02087
Article source: Figure S11B
Adsorbate Carbon Dioxide: InChIKey CURLTUGMZLYLDI-UHFFFAOYSA-N
Kind: experiment
Temperature: 298 K
Tabular data in the source: 0
pressure (bar)	uptake (mmol/g)
0.115326	0.042922
0	0.015813
0.653511	0.097139
1.69144	0.30497
3.45977	0.548946
4.19016	0.659639
5.38186	0.808735
6.53511	0.923946
7.61149	1.03238
8.76474	1.12726
9.84111	1.21762
10.8406	1.29443
13.6084	1.47063
16.4531	1.64684
19.3747	1.77786
21.9119	1.88629
24.6797	1.99473
27.1399	2.08961
30.0615	2.17545
32.8678	2.25452
35.5203	2.32455
38.2112	2.39232
40.979	2.45557
43.6699	2.51883
46.5146	2.57756
49.2056	2.63178
51.7427	2.67696
53.7033	2.71988
54.2799	2.74021
53.1266	2.73117
48.3598	2.64985
42.978	2.55949
38.2112	2.46913
32.8293	2.33358
27.2168	2.17997
21.835	1.98569
16.4531	1.7372
10.9944	1.40738
5.53563	0.923946
2.69093	0.5625
0.922604	0.268825
