Adsorption isotherm of Methane on Zn(II) MOF 2'
DOI: 10.1021/acssuschemeng.7b02087
Article source: Figure S11B
Adsorbate Methane: InChIKey VNWKTOKETHGBQD-UHFFFAOYSA-N
Kind: experiment
Temperature: 298 K
Tabular data in the source: 0
pressure (bar)	uptake (mmol/g)
0	0
0.4767	0.010392
1.59397	0.040211
3.24752	0.078163
4.18602	0.10256
6.50994	0.16762
7.31437	0.189307
8.38694	0.221837
9.45952	0.243524
10.5321	0.270633
13.3029	0.330271
15.8056	0.384488
18.3976	0.444127
21.0791	0.503765
23.8499	0.563404
26.4867	0.606777
29.1234	0.658283
31.8048	0.704367
34.4863	0.747741
37.0336	0.793825
39.7598	0.829066
42.3518	0.883283
44.9439	0.915813
47.7147	0.948343
50.128	0.986295
52.005	1.0134
52.7201	1.02425
51.4687	1.0134
46.7315	0.942922
41.5474	0.867018
37.0783	0.796536
31.7155	0.709789
26.442	0.61762
21.0344	0.509187
15.7162	0.38991
10.5321	0.276054
5.16922	0.145934
2.66654	0.075452
