Adsorption isotherm of Carbon Dioxide on AC
DOI: 10.1007/s13738-013-0347-9
Adsorbate Carbon Dioxide: InChIKey CURLTUGMZLYLDI-UHFFFAOYSA-N
Temperature: 298 K
Tabular data in the source: 0
pressure (bar)	uptake (mmol/g)
0.560321	1.78679
1.05248	2.88221
3.18904	6.28493
5.1948	8.76574
8.16142	11.4788
11.3029	13.789
14.3789	15.6382
17.3923	17.2569
20.3396	18.357
25.3938	20.3829
29.4238	21.8883
