Adsorption isotherm of Carbon Dioxide on AC
DOI: 10.1007/s13738-013-0347-9
Adsorbate Carbon Dioxide: InChIKey CURLTUGMZLYLDI-UHFFFAOYSA-N
Temperature: 308 K
Tabular data in the source: 0
pressure (bar)	uptake (mmol/g)
0.494702	1.4578
1.05992	2.21857
3.07918	4.98534
5.17337	7.40322
8.22249	10.0211
11.2636	12.0124
14.2201	13.5866
17.2542	15.0209
20.3659	16.3151
25.3883	18.079
29.3729	19.3652
