Adsorption isotherm of Carbon Dioxide on MIL-101
DOI: 10.1007/s13738-013-0347-9
Adsorbate Carbon Dioxide: InChIKey CURLTUGMZLYLDI-UHFFFAOYSA-N
Temperature: 298 K
Tabular data in the source: 0
pressure (bar)	uptake (mmol/g)
0.502224	2.82895
1.15827	3.61842
3.18384	5.52632
5.20756	7.36842
8.37658	9.86842
11.4622	11.9079
14.483	14.1447
17.5	16.25
20.6579	18.3553
25.6653	21.1184
29.8073	23.1579
