Adsorption isotherm of Nitrogen on MIL-101
DOI: 10.1007/s13738-013-0347-9
Adsorbate Nitrogen: InChIKey IJGRMHOSHXDMSA-UHFFFAOYSA-N
Temperature: 298 K
Tabular data in the source: 0
pressure (bar)	uptake (mmol/g)
8.03517	0.937088
11.0898	1.00056
14.0853	1.12152
17.1399	1.18498
20.134	1.19073
25.1056	1.31549
29.1768	1.2657
