Adsorption isotherm of Carbon Dioxide on AC
DOI: 10.1007/s13738-013-0347-9
Adsorbate Carbon Dioxide: InChIKey CURLTUGMZLYLDI-UHFFFAOYSA-N
Temperature: 328 K
Tabular data in the source: 0
pressure (bar)	uptake (mmol/g)
0.566984	0.900028
1.05284	1.66153
3.06238	3.66237
5.15127	5.66248
8.19331	7.72337
10.1173	9.23754
14.2694	11.2185
18.2629	13.2009
20.4161	14.0166
25.36	15.8509
29.4222	16.997
