Adsorption isotherm of Nitrogen on AC
DOI: 10.1007/s13738-013-0347-9
Adsorbate Nitrogen: InChIKey IJGRMHOSHXDMSA-UHFFFAOYSA-N
Temperature: 298 K
Tabular data in the source: 0
pressure (bar)	uptake (mmol/g)
1.1412	0.29021
3.06155	0.639519
5.0996	0.816243
8.03655	1.0523
11.0327	1.23086
14.2684	1.40989
17.0828	1.41529
20.1375	1.47876
25.0505	1.71861
29.183	1.78415
