Adsorption isotherm of Carbon Dioxide on MIL-101
DOI: 10.1007/s13738-013-0347-9
Adsorbate Carbon Dioxide: InChIKey CURLTUGMZLYLDI-UHFFFAOYSA-N
Temperature: 318 K
Tabular data in the source: 0
pressure (bar)	uptake (mmol/g)
0.554114	2.17105
1.20274	2.69737
3.14492	4.14474
5.23536	5.85526
8.25426	8.02632
11.4047	9.86842
14.4199	11.9079
17.5723	13.8158
20.5819	15.6579
25.6616	18.4868
29.7368	20.6579
