Adsorption isotherm of Carbon Dioxide on MIL-101
DOI: 10.1007/s13738-013-0347-9
Adsorbate Carbon Dioxide: InChIKey CURLTUGMZLYLDI-UHFFFAOYSA-N
Temperature: 308 K
Tabular data in the source: 0
pressure (bar)	uptake (mmol/g)
0.422535	2.5
1.28428	3.09211
3.23202	4.73684
5.17976	6.38158
8.34507	8.75
11.4177	10.3289
14.4366	12.5
17.45	14.4737
20.5319	16.3816
25.6134	19.2763
29.8314	21.5132
