Adsorption isotherm of Carbon Dioxide on MIL-101
DOI: 10.1007/s13738-013-0347-9
Adsorbate Carbon Dioxide: InChIKey CURLTUGMZLYLDI-UHFFFAOYSA-N
Temperature: 298 K
Tabular data in the source: 0
pressure (bar)	uptake (mmol/g)
0.572739	2.82368
1.12133	3.63119
3.17938	5.47846
5.11767	7.32549
8.14142	9.80826
11.2202	11.8879
14.3004	14.0828
17.3214	16.3351
20.3375	18.1842
25.3429	21.1316
29.3784	23.0979
