Adsorption isotherm of Carbon Dioxide on MIL-101
DOI: 10.1007/s13738-013-0347-9
Adsorbate Carbon Dioxide: InChIKey CURLTUGMZLYLDI-UHFFFAOYSA-N
Temperature: 328 K
Tabular data in the source: 0
pressure (bar)	uptake (mmol/g)
0.611564	1.71053
1.11935	2.23684
3.13195	3.68421
5.2891	5.26316
8.30801	7.43421
11.3881	9.27632
14.4737	11.3158
17.5593	13.3553
20.6375	15.1316
25.6486	18.0263
29.6497	20.0658
