Adsorption isotherm of Carbon Dioxide on AC
DOI: 10.1007/s13738-013-0347-9
Adsorbate Carbon Dioxide: InChIKey CURLTUGMZLYLDI-UHFFFAOYSA-N
Temperature: 298 K
Tabular data in the source: 0
pressure (bar)	uptake (mmol/g)
0.499123	1.80595
1.06788	2.84524
3.09421	6.16904
5.18929	8.65655
8.16082	11.4145
11.2831	13.5443
14.244	15.4666
17.2808	17.1097
20.3898	18.1951
25.4131	20.0287
29.4012	21.5933
