Adsorption isotherm of Carbon Dioxide on AC
DOI: 10.1007/s13738-013-0347-9
Adsorbate Carbon Dioxide: InChIKey CURLTUGMZLYLDI-UHFFFAOYSA-N
Temperature: 318 K
Tabular data in the source: 0
pressure (bar)	uptake (mmol/g)
3.06945	4.21941
5.15834	6.21951
8.12457	8.55966
11.2451	10.5502
14.2801	12.054
17.3141	13.4883
20.3447	14.644
25.3662	16.3383
29.3517	17.694
