Adsorption isotherm of Nitrogen on PEHA-MIL-101
DOI: 10.1016/S1003-9953(11)60374-5
Adsorbate Nitrogen: InChIKey IJGRMHOSHXDMSA-UHFFFAOYSA-N
Temperature: 77 K
Tabular data in the source: 0
pressure (bar)	uptake (cm3(STP)/g)
0.0022437	78.5714
0.00448739	39.2857
0.00897478	128.571
0.0179496	157.143
0.0314117	182.143
0.0538487	214.286
0.0830167	239.286
0.0987226	257.143
0.123403	257.143
0.148084	267.857
0.175008	282.143
0.201933	282.143
0.231101	292.857
0.267	300
0.314117	296.429
0.358991	307.143
0.399378	310.714
0.453226	317.857
0.502588	317.857
0.547462	325
0.596823	332.143
0.643941	335.714
0.691058	339.286
0.738176	350
0.78305	353.571
0.82568	360.714
0.852604	364.286
0.870554	375
0.895234	400
0.906453	414.286
0.915428	478.571
