Adsorption isotherm of Nitrogen on MIL-101
DOI: 10.1016/S1003-9953(11)60374-5
Adsorbate Nitrogen: InChIKey IJGRMHOSHXDMSA-UHFFFAOYSA-N
Temperature: 77 K
Tabular data in the source: 0
pressure (bar)	uptake (cm3(STP)/g)
0.0022437	182.143
0.00673109	207.143
0.0134622	250
0.029168	289.286
0.051605	321.429
0.0830167	357.143
0.0987226	367.857
0.125647	382.143
0.152571	392.857
0.168277	396.429
0.197445	407.143
0.267	414.286
0.311874	417.857
0.363479	428.571
0.399378	432.143
0.450983	435.714
0.500344	442.857
0.547462	446.429
0.596823	450
0.648428	457.143
0.693302	460.714
0.738176	471.429
0.78305	482.143
0.827924	496.429
0.85036	503.571
0.866066	517.857
0.890747	539.286
0.906453	553.571
0.917671	575
0.926646	592.857
0.935621	625
0.949083	707.143
0.95357	857.143
0.960302	982.143
0.964789	1057.14
