Adsorption isotherm of Carbon Dioxide on PEHA-MIL-101
DOI: 10.1016/S1003-9953(11)60374-5
Adsorbate Carbon Dioxide: InChIKey CURLTUGMZLYLDI-UHFFFAOYSA-N
Temperature: 298 K
Tabular data in the source: 0
pressure (bar)	uptake (mmol/g)
0.630091	0.087487
1.18145	0.165256
1.65383	0.223566
2.20519	0.301334
2.7563	0.369363
3.30766	0.447131
3.54385	0.476286
3.85902	0.5249
4.4886	0.592907
5.03971	0.660935
5.59082	0.728964
6.14192	0.796992
6.69278	0.85528
7.24388	0.923309
7.79499	0.991337
8.3461	1.05937
8.8972	1.12739
9.52679	1.1954
10.0779	1.26343
10.3138	1.28284
10.55	1.312
11.1793	1.37027
11.8084	1.41879
12.5162	1.47704
13.1453	1.52556
13.7746	1.58383
14.4822	1.63233
15.1112	1.68086
15.8193	1.74884
16.6051	1.78759
17.3126	1.83609
18.0199	1.87486
18.3343	1.89425
19.0416	1.93301
19.7491	1.98152
21.1637	2.05905
21.3999	2.0882
22.1067	2.10748
22.8922	2.13649
24.6207	2.21393
25.0141	2.25278
25.5649	2.31107
26.1943	2.36933
26.8236	2.4276
27.4529	2.48587
28.0822	2.54413
28.7116	2.6024
28.8693	2.63158
29.1829	2.62175
29.9679	2.63127
30.8314	2.64077
31.6162	2.64055
32.4012	2.65007
33.1859	2.64986
