Adsorption isotherm of Carbon Dioxide on MIL-101
DOI: 10.1016/S1003-9953(11)60374-5
Adsorbate Carbon Dioxide: InChIKey CURLTUGMZLYLDI-UHFFFAOYSA-N
Temperature: 298 K
Tabular data in the source: 0
pressure (bar)	uptake (mmol/g)
0.708056	0.0679848
1.33738	0.126251
1.96671	0.184518
2.59604	0.242784
3.22511	0.29131
3.4613	0.320465
3.85393	0.330096
4.40478	0.388385
5.11233	0.436889
5.7414	0.485415
6.4492	0.54366
7.07827	0.592186
7.78582	0.64069
8.49336	0.689195
9.12244	0.737721
9.75176	0.795987
10.3808	0.844514
11.0097	0.8833
11.7169	0.922064
12.4245	0.970568
13.0536	1.01909
13.7611	1.0676
14.4687	1.1161
15.0977	1.16463
15.8053	1.21313
16.1197	1.23253
16.4338	1.24218
17.0632	1.30045
17.7707	1.34895
18.4783	1.39746
19.1071	1.43624
19.8146	1.48475
20.5222	1.53325
21.1515	1.59152
21.5444	1.61089
21.7801	1.62056
22.4091	1.66909
23.0382	1.71761
23.7458	1.76612
24.4533	1.81462
25.0821	1.85341
25.7104	1.87272
26.5744	1.9017
27.3597	1.92096
27.6738	1.93061
28.4591	1.94987
29.1659	1.96916
29.9511	1.98842
30.2653	1.99807
31.0503	2.00759
31.7571	2.02688
32.4638	2.04616
33.2488	2.05568
33.9554	2.06523
