Adsorption isotherm of Carbon Dioxide on MIL-53(Al)
DOI: 10.1016/j.micromeso.2010.07.009
Adsorbate Carbon Dioxide: InChIKey CURLTUGMZLYLDI-UHFFFAOYSA-N
Temperature: 313 K
Tabular data in the source: 0
pressure (bar)	uptake (molecules/unitcell)
0.120299	0.0842701
0.513576	0.674186
1.03795	1.02377
2.02114	1.24225
3.92198	1.41704
6.2161	1.59183
8.57576	1.70108
13.9506	1.85402
16.4413	2.18175
18.7354	3.29603
21.1606	4.73805
24.2413	4.58511
27.0598	5.00024
28.6985	5.06578
