Adsorption isotherm of Carbon Dioxide on MIL-53(Al)
DOI: 10.1016/j.micromeso.2010.07.009
Adsorbate Carbon Dioxide: InChIKey CURLTUGMZLYLDI-UHFFFAOYSA-N
Temperature: 293 K
Tabular data in the source: 0
pressure (bar)	uptake (molecules/unitcell)
0.0619484	0.326794
0.127495	0.621752
0.236738	0.883936
0.608167	1.1199
1.08884	1.2641
1.98464	1.45419
3.71069	1.74259
6.02665	1.96545
8.34262	2.06377
