Adsorption isotherm of Carbon Dioxide on MIL-53(Al)
DOI: 10.1016/j.micromeso.2010.07.009
Adsorbate Carbon Dioxide: InChIKey CURLTUGMZLYLDI-UHFFFAOYSA-N
Temperature: 253 K
Tabular data in the source: 0
pressure (bar)	uptake (molecules/unitcell)
0.513576	1.46074
1.36568	1.89772
3.13543	2.46578
4.97072	5.85234
8.96904	7.11956
14.1472	8.05906
