Adsorption isotherm of Carbon Dioxide on MIL-53(Al)
DOI: 10.1016/j.micromeso.2010.07.009
Adsorbate Carbon Dioxide: InChIKey CURLTUGMZLYLDI-UHFFFAOYSA-N
Temperature: 363 K
Tabular data in the source: 0
pressure (bar)	uptake (molecules/unitcell)
0.0107935	0.0908272
0.316938	0.228474
0.579122	0.300575
0.906854	0.457886
1.8245	0.720071
3.5287	0.897046
5.49509	1.02814
7.19929	1.16579
9.23122	1.20511
11.1976	1.28377
13.2295	1.34931
15.2615	1.38864
17.0968	1.46074
18.9976	1.55251
21.0951	1.65083
22.9304	1.71637
25.159	1.80158
27.1253	1.91301
28.9606	2.01789
29.8127	2.0441
