Adsorption isotherm of Carbon Dioxide on MIL-53(Al)
DOI: 10.1016/j.micromeso.2010.07.009
Adsorbate Carbon Dioxide: InChIKey CURLTUGMZLYLDI-UHFFFAOYSA-N
Temperature: 283 K
Tabular data in the source: 0
pressure (bar)	uptake (molecules/unitcell)
0.185845	0.936371
1.8245	1.50444
3.92198	1.74477
6.085	1.98511
8.37912	2.48763
10.4111	4.16998
12.7052	5.43721
15.9169	5.76494
18.6699	5.98343
21.2917	6.35486
24.0447	6.4204
26.601	6.57335
28.3707	6.72629
29.3539	6.76998
