Adsorption isotherm of Carbon Dioxide on MIL-53(Al)
DOI: 10.1016/j.micromeso.2010.07.009
Adsorbate Carbon Dioxide: InChIKey CURLTUGMZLYLDI-UHFFFAOYSA-N
Temperature: 303 K
Tabular data in the source: 0
pressure (bar)	uptake (molecules/unitcell)
0.0547527	0.237211
0.251391	0.717884
0.579122	1.13301
1.16904	1.3078
1.69341	1.39519
3.79089	1.65738
6.085	1.89772
8.44467	1.91956
11.1321	2.09435
13.6228	2.53133
18.6043	4.41032
21.0295	5.50276
24.0447	5.63385
26.7321	5.83049
28.6985	5.93973
