Adsorption isotherm of Carbon Dioxide on MIL-53(Al)
DOI: 10.1016/j.micromeso.2010.07.009
Adsorbate Carbon Dioxide: InChIKey CURLTUGMZLYLDI-UHFFFAOYSA-N
Temperature: 303 K
Tabular data in the source: 0
pressure (bar)	uptake (molecules/unitcell)
0.120299	0.224727
0.251391	0.749097
0.579122	1.11616
0.906854	1.29095
1.89005	1.43078
3.65979	1.67548
6.085	1.88523
11.0665	2.06002
13.8195	2.56691
16.1791	3.4933
18.5388	4.47212
21.0951	5.45095
24.0447	5.66069
26.7321	5.85296
28.8951	5.92288
