Adsorption isotherm of Carbon Dioxide on MIL-53(Al)
DOI: 10.1016/j.micromeso.2010.07.009
Adsorbate Carbon Dioxide: InChIKey CURLTUGMZLYLDI-UHFFFAOYSA-N
Temperature: 393 K
Tabular data in the source: 0
pressure (bar)	uptake (molecules/unitcell)
0.120299	0.130155
0.579122	0.261247
1.03795	0.385785
2.02114	0.602088
3.98753	0.844609
6.87156	1.08713
9.6245	1.31654
12.5085	1.44763
15.2615	1.55251
18.0144	1.6836
20.7018	1.99167
23.3892	2.03755
25.88	2.14242
28.4363	2.16209
29.3539	2.26041
