Adsorption isotherm of Carbon Dioxide on MIL-53(Al)
DOI: 10.1016/j.micromeso.2010.07.009
Adsorbate Carbon Dioxide: InChIKey CURLTUGMZLYLDI-UHFFFAOYSA-N
Temperature: 303 K
Tabular data in the source: 0
pressure (bar)	uptake (molecules/unitcell)
0.251391	0.0499371
0.382484	1.34338
0.710215	1.90271
1.62786	2.23481
2.74215	2.46204
3.85643	2.68926
4.90517	2.7417
5.75727	2.8291
6.34719	3.03884
7.46148	4.43716
9.42786	6.77935
12.0497	7.40859
14.5405	7.70574
16.6379	7.9854
18.4732	8.09027
20.1774	8.23011
21.4884	8.3175
22.8648	8.43985
24.8968	8.50977
26.4043	8.59716
27.7153	8.71952
28.9606	8.78943
