Adsorption isotherm of Carbon Dioxide on MIL-53(Al)
DOI: 10.1016/j.micromeso.2010.07.009
Adsorbate Carbon Dioxide: InChIKey CURLTUGMZLYLDI-UHFFFAOYSA-N
Temperature: 293 K
Tabular data in the source: 0
pressure (bar)	uptake (molecules/unitcell)
1.8245	1.43889
3.85643	1.72293
6.15055	1.98511
8.44467	2.07251
10.6732	2.77167
12.8363	3.73301
14.3438	4.86914
16.5724	5.34982
19.522	5.98343
22.8648	6.09267
26.2077	6.22377
27.7808	6.4204
28.9606	6.37671
