Adsorption isotherm of Hydrogen on CuBTC
DOI: 10.1021/Jp207411b
Adsorbate Hydrogen: InChIKey UFHFLCQGNIYNRP-UHFFFAOYSA-N
Temperature: 323 K
Tabular data in the source: 0
pressure (bar)	uptake (wt%)
0.0278641	0.18677
0.0842021	0.206206
0.985611	0.24508
5.01378	0.301699
9.97153	0.332967
14.9856	0.365925
19.4645	0.450432
