Adsorption isotherm of Hydrogen on CuBTC
DOI: 10.1021/Jp207411b
Adsorbate Hydrogen: InChIKey UFHFLCQGNIYNRP-UHFFFAOYSA-N
Temperature: 298 K
Tabular data in the source: 0
pressure (bar)	uptake (wt%)
0.0278641	0.180433
0.0560331	0.298743
0.0842021	0.398321
0.534906	0.435785
1.09829	0.461419
2.56308	0.492968
4.95744	0.518602
7.43631	0.54325
9.94336	0.562968
12.056	0.579729
15.0138	0.595504
