Adsorption isotherm of Hydrogen on CuBTC
DOI: 10.1021/Jp207411b
Adsorbate Hydrogen: InChIKey UFHFLCQGNIYNRP-UHFFFAOYSA-N
Temperature: 298 K
Tabular data in the source: 0
pressure (bar)	uptake (wt%)
0.0560331	0.007898
1.07012	0.019729
2.53491	0.03156
4.9011	0.054236
9.97153	0.0926867
12.4786	0.113391
19.4927	0.172546
