Adsorption isotherm of Hydrogen on CuBTC
DOI: 10.1021/Jp207411b
Adsorbate Hydrogen: InChIKey UFHFLCQGNIYNRP-UHFFFAOYSA-N
Temperature: 323 K
Tabular data in the source: 0
pressure (bar)	uptake (wt%)
0.112371	0.0659246
0.450399	0.082826
1.01378	0.0963472
1.9997	0.110713
5.01378	0.123389
7.9997	0.134375
9.99969	0.141981
11.9152	0.143671
15.0419	0.173249
18.9856	0.194375
