Adsorption isotherm of Nitrogen on CuBTC
DOI: 10.1021/Jp207411b
Adsorbate Nitrogen: InChIKey IJGRMHOSHXDMSA-UHFFFAOYSA-N
Temperature: 77 K
Tabular data in the source: 0
pressure (bar)	uptake (cm3(STP)/g)
0.00372489	2.593
0.00515504	309.359
0.0323278	319.37
0.0537799	325.09
0.100975	336.531
0.15961	342.967
0.209665	344.397
0.309776	349.403
0.399875	351.548
0.495694	354.408
0.602955	357.984
0.703065	361.559
0.797454	365.134
0.894704	369.425
0.95191	374.43
