Adsorption isotherm of Hydrogen on CuBTC
DOI: 10.1021/Jp207411b
Adsorbate Hydrogen: InChIKey UFHFLCQGNIYNRP-UHFFFAOYSA-N
Temperature: 298 K
Tabular data in the source: 0
pressure (bar)	uptake (wt%)
0.14054	0.0127447
1.04195	0.0127447
2.50674	0.0190827
5.09829	0.0507728
7.60533	0.0697869
10.056	0.095139
12.5349	0.101477
15.0138	0.120491
19.5208	0.171195
