Adsorption isotherm of Hydrogen on CuBTC
DOI: 10.1021/Jp207411b
Adsorbate Hydrogen: InChIKey UFHFLCQGNIYNRP-UHFFFAOYSA-N
Temperature: 77 K
Tabular data in the source: 0
pressure (bar)	uptake (wt%)
0.112371	0.234576
1.04195	2.26908
2.56308	2.94725
5.09829	3.36556
7.54899	3.56838
9.99969	3.66345
12.5631	3.74584
15.0983	3.77753
19.5772	3.79021
