Adsorption isotherm of Hydrogen on CuBTC
DOI: 10.1021/Jp207411b
Adsorbate Hydrogen: InChIKey UFHFLCQGNIYNRP-UHFFFAOYSA-N
Temperature: 323 K
Tabular data in the source: 0
pressure (bar)	uptake (wt%)
0.000305	0.174094
0.0842021	0.199446
0.506737	0.228178
0.929273	0.240009
2.36589	0.257756
5.01378	0.277192
7.52082	0.297474
9.91519	0.31353
11.9997	0.323671
15.0983	0.343953
