Adsorption isotherm of Hydrogen on CuBTC
DOI: 10.1021/Jp207411b
Adsorbate Hydrogen: InChIKey UFHFLCQGNIYNRP-UHFFFAOYSA-N
Temperature: 298 K
Tabular data in the source: 0
pressure (bar)	uptake (wt%)
0.0560331	0.000975
0.0842021	0.0364895
4.9011	0.0680388
7.54899	0.0867712
19.9152	0.172546
