Adsorption isotherm of Hydrogen on CuBTC
DOI: 10.1021/Jp207411b
Adsorbate Hydrogen: InChIKey UFHFLCQGNIYNRP-UHFFFAOYSA-N
Temperature: 323 K
Tabular data in the source: 0
pressure (bar)	uptake (wt%)
0.0278641	0.0743753
0.478568	0.118319
0.901104	0.145361
5.01378	0.24846
9.97153	0.320291
15.1265	0.409868
