Adsorption isotherm of Nitrogen on CuBTC
DOI: 10.1021/Jp207411b
Adsorbate Nitrogen: InChIKey IJGRMHOSHXDMSA-UHFFFAOYSA-N
Temperature: 77 K
Tabular data in the source: 0
pressure (bar)	uptake (cm3(STP)/g)
0.00372489	2.593
0.00372489	376.575
0.0308976	387.301
0.0580703	395.882
0.100975	405.178
0.15961	414.474
0.216816	415.904
0.306915	420.195
0.407025	424.485
0.499985	424.485
0.601525	425.915
0.695914	428.061
0.800315	428.776
0.903285	428.776
0.95048	430.206
