Adsorption isotherm of Nitrogen on {Co3(HCOO)(BTB)2(DEF)*(N(C2H5)2)}n
DOI: 10.1016/j.micromeso.2013.03.052
Adsorbate Nitrogen: InChIKey IJGRMHOSHXDMSA-UHFFFAOYSA-N
Temperature: 77 K
Tabular data in the source: 0
pressure (bar)	uptake (cm3(STP)/g)
-0.0038202	0.52082
0.00412379	2.6166
0.019607	2.62493
0.0737982	2.6541
0.120349	3.7249
0.17449	3.23117
0.22486	3.78115
0.275181	3.80823
0.32163	3.83323
0.375822	3.8624
0.41453	3.88323
0.468721	3.9124
0.515221	4.4603
0.588716	3.97698
0.662261	4.01656
0.716503	4.56863
0.809351	4.09573
0.859672	4.12281
0.906172	4.67071
0.944829	4.16864
0.983538	4.18947
