Adsorption isotherm of Nitrogen on {Co3O(BTB)2(DMF)*2(N(CH3)2)*(H2O)}n
DOI: 10.1016/j.micromeso.2013.03.052
Adsorbate Nitrogen: InChIKey IJGRMHOSHXDMSA-UHFFFAOYSA-N
Temperature: 77 K
Tabular data in the source: 0
pressure (bar)	uptake (cm3(STP)/g)
-0.00316241	7.31856
0.00040479	4.18322
0.000961375	9.93516
0.00126497	13.0726
0.00543936	16.2121
0.00569235	18.8266
0.0100185	23.5348
0.0180638	26.6764
0.0338505	29.8221
0.0573283	32.4492
0.0960363	32.47
0.134795	33.0137
0.185115	33.0408
0.235435	33.0679
0.281886	33.0929
0.332205	33.12
0.382526	33.1471
0.428976	33.1721
0.483167	33.2012
0.525746	33.2241
0.587628	32.7346
0.668915	32.7783
0.723157	33.3304
0.816055	33.3804
0.870297	33.9324
0.908955	33.4304
0.974813	33.9887
