Adsorption isotherm of Carbon Dioxide on {Co3(HCOO)(BTB)2(DEF)*(N(C2H5)2)}n
DOI: 10.1016/j.micromeso.2013.03.052
Adsorbate Carbon Dioxide: InChIKey CURLTUGMZLYLDI-UHFFFAOYSA-N
Temperature: 273 K
Tabular data in the source: 0
pressure (bar)	uptake (cm3(STP)/g)
1.73565	1.84971
3.60481	2.31214
5.20695	3.23699
7.07611	4.62428
8.81176	5.54913
10.5474	5.54913
12.1496	6.47399
14.0187	6.93642
15.7544	7.39884
17.49	8.3237
19.0921	8.3237
20.9613	9.24855
22.5634	9.71098
24.4326	10.1734
26.0347	10.6358
27.7704	11.0983
29.6396	11.5607
31.2417	11.5607
33.1109	12.0231
34.3125	12.4855
