Adsorption isotherm of Carbon Dioxide on {Co3O(HBTC)2(H2O)(DMF)}n
DOI: 10.1016/j.micromeso.2013.03.052
Adsorbate Carbon Dioxide: InChIKey CURLTUGMZLYLDI-UHFFFAOYSA-N
Temperature: 273 K
Tabular data in the source: 0
pressure (bar)	uptake (cm3(STP)/g)
0.400536	3.23699
0.934582	5.54913
1.2016	6.93642
1.60214	8.78613
1.73565	9.71098
2.00267	11.5607
2.53672	12.948
2.80374	14.3353
3.33779	15.7225
3.73831	17.1098
5.34046	22.1965
7.07611	27.2832
8.67825	32.3699
10.4139	36.5318
12.1496	41.6185
13.8852	45.3179
15.6208	49.4798
17.49	53.6416
19.0921	56.8786
20.9613	60.578
22.5634	64.2775
24.4326	67.9769
26.1683	70.289
27.7704	73.526
29.6396	76.3006
31.3752	79.5376
33.1109	82.7746
34.5795	85.5491
