Adsorption isotherm of Nitrogen on {Co3O(HBTC)2(H2O)(DMF)}n
DOI: 10.1016/j.micromeso.2013.03.052
Adsorbate Nitrogen: InChIKey IJGRMHOSHXDMSA-UHFFFAOYSA-N
Temperature: 77 K
Tabular data in the source: 0
pressure (bar)	uptake (cm3(STP)/g)
0.0038961	40.2635
0.00503457	12.0289
0.00589475	20.9182
0.00680553	30.3305
0.00867768	49.6779
0.0134086	58.5693
0.0182409	68.5065
0.0229212	76.8751
0.031017	80.5396
0.0776689	82.6562
0.112556	83.1978
0.162928	83.7478
0.213299	84.2978
0.286945	85.3832
0.333395	85.4082
0.383715	85.4353
0.434086	85.9853
0.480536	86.0103
0.530856	86.0373
0.608374	87.1248
0.670306	87.1581
0.720627	87.1852
0.817497	88.2831
0.867869	88.8331
0.914368	89.381
0.949257	89.9227
0.991941	90.9914
