Adsorption isotherm of Carbon Dioxide on {Co2(BTC)Cl(DEF)3}n
DOI: 10.1016/j.micromeso.2013.03.052
Adsorbate Carbon Dioxide: InChIKey CURLTUGMZLYLDI-UHFFFAOYSA-N
Temperature: 273 K
Tabular data in the source: 0
pressure (bar)	uptake (cm3(STP)/g)
0.534046	1.84971
1.86916	4.62428
3.60481	7.86127
5.34046	10.6358
7.07611	12.948
8.81176	15.7225
10.4139	18.0347
12.2831	20.3468
13.8852	22.1965
15.6208	24.0462
17.3565	26.3584
19.0921	28.2081
20.8278	30.0578
22.697	31.9075
24.4326	33.7572
26.1683	35.1445
27.7704	36.5318
29.6396	38.8439
31.3752	40.2312
33.1109	41.6185
34.5795	43.4682
