Adsorption isotherm of Nitrogen on {Co2(BTC)Cl(DEF)3}n
DOI: 10.1016/j.micromeso.2013.03.052
Adsorbate Nitrogen: InChIKey IJGRMHOSHXDMSA-UHFFFAOYSA-N
Temperature: 77 K
Tabular data in the source: 0
pressure (bar)	uptake (cm3(STP)/g)
0.00187215	19.3474
0.00217575	22.4848
0.00247934	25.6222
0.00538876	15.6892
0.00660313	28.2388
0.00695732	31.8992
0.0110812	34.5158
0.0229465	37.1365
0.0309917	40.2781
0.0735705	40.301
0.116149	40.3239
0.166571	41.3968
0.209099	40.8969
0.278774	40.9344
0.325223	40.9594
0.383285	40.9906
0.421993	41.0114
0.480106	41.5656
0.526555	41.5906
0.6001	41.6302
0.665904	41.6656
0.716224	41.6927
0.816865	41.7468
0.867186	41.7739
0.913635	41.7989
0.971695	41.8302
