Adsorption isotherm of Carbon Dioxide on {Co3O(BTB)2(DMF)*2(N(CH3)2)*(H2O)}n
DOI: 10.1016/j.micromeso.2013.03.052
Adsorbate Carbon Dioxide: InChIKey CURLTUGMZLYLDI-UHFFFAOYSA-N
Temperature: 273 K
Tabular data in the source: 0
pressure (bar)	uptake (cm3(STP)/g)
0.534046	1.38728
1.73565	3.69942
3.60481	6.01156
5.34046	8.3237
6.9426	10.1734
8.67825	12.0231
10.5474	14.3353
12.1496	16.6474
14.0187	18.0347
15.7544	19.8844
17.3565	22.1965
19.2257	24.0462
20.8278	25.4335
22.5634	27.7457
24.4326	29.1329
26.0347	30.9827
27.7704	32.8324
29.6396	34.6821
31.2417	36.0694
32.9773	37.4566
34.5795	38.8439
