Adsorption isotherm of Nitrogen on MPL2
DOI: 10.1039/c5ta09132b
Article source: Figure 1
Adsorbate Nitrogen: InChIKey IJGRMHOSHXDMSA-UHFFFAOYSA-N
Kind: experiment
Temperature: 77 K
Tabular data in the source: 0
pressure (bar)	uptake (cm3(STP)/g)
0.008172	24.234
0.012383	24.619
0.035746	26.87
0.051366	32.264
0.074596	27.756
0.076496	28.251
0.084105	28.526
0.106246	29.296
0.127165	30.302
0.129473	33.207
0.144416	29.352
0.148627	32.731
0.163977	29.291
0.16873	33.559
0.182859	29.408
0.200925	33.311
0.205	33.438
0.254446	29.522
0.258248	29.669
0.286774	33.373
0.295197	29.427
0.302532	29.755
0.337306	33.606
0.354558	29.81
0.405362	33.245
0.437147	34.191
0.456029	30.989
0.490124	35.017
0.505339	31.459
0.556278	31.633
0.562933	35.842
0.605932	31.812
0.609118	35.424
0.657653	33.773
0.660347	34.244
0.707139	36.498
0.711558	40.686
0.761153	43.143
0.763093	43.599
0.811379	44.301
0.813144	44.419
0.81912	50.526
0.82374	47.383
0.845335	55.919
0.860959	50.463
0.87155	62.142
0.883234	55.975
0.896814	68.542
0.910807	62.494
0.920039	78.441
0.936476	77.017
0.960786	94.03
0.96431	118.041
0.980594	168.373
0.983866	132.149
0.989681	213.073
0.99119	168.075
0.997134	268.208
1.00122	229.435
1.00839	324.172
