Adsorption isotherm of Nitrogen on MPL1
DOI: 10.1039/c5ta09132b
Article source: Figure 1
Adsorbate Nitrogen: InChIKey IJGRMHOSHXDMSA-UHFFFAOYSA-N
Kind: experiment
Temperature: 77 K
Tabular data in the source: 0
pressure (bar)	uptake (cm3(STP)/g)
0.008082	19.379
0.035522	22.1
0.04938	25.239
0.071924	22.921
0.08347	23.571
0.090128	26.119
0.106698	25.937
0.123946	23.918
0.14568	25.988
0.165643	23.494
0.185884	25.742
0.204698	23.273
0.254722	25.332
0.304527	25.321
0.335145	26.35
0.355842	25.592
0.404788	28.593
0.441227	28.961
0.454807	26.982
0.504186	30.171
0.537821	30.163
0.555715	28.842
0.587842	30.811
0.608107	28.736
0.639805	31.647
0.657698	29.572
0.709018	33.702
0.755375	35.291
0.791172	40.271
0.812301	39.419
0.83063	41.58
0.842077	45.753
0.859598	45.809
0.870608	52.387
0.885956	52.68
0.904442	64.592
0.910959	62.1
0.936646	75.671
0.944551	97.367
0.959629	130.569
0.961307	138.743
0.986481	177.331
0.987199	178.638
0.991199	259.32
0.994422	229.262
0.997365	304.611
1.00049	306.626
1.00556	338.994
