Adsorption isotherm of Nitrogen on MPL4
DOI: 10.1039/c5ta09132b
Article source: Figure 1
Adsorbate Nitrogen: InChIKey IJGRMHOSHXDMSA-UHFFFAOYSA-N
Kind: experiment
Temperature: 77 K
Tabular data in the source: 0
pressure (bar)	uptake (cm3(STP)/g)
0.00416	12.019
0.009338	13.516
0.034047	14.921
0.050123	17.081
0.070625	16.137
0.083788	16.839
0.104181	16.835
0.125546	17.066
0.145399	17.673
0.165685	17.575
0.186185	17.947
0.205391	18.884
0.254809	18.78
0.28351	19.338
0.305306	19.145
0.355372	19.229
0.405438	19.031
0.455719	19.585
0.505785	19.763
0.558225	19.47
0.624692	19.832
0.659652	19.073
0.707775	19.157
0.756395	19.276
0.809492	20.758
0.832443	21.649
0.86156	22.837
0.885539	24.326
0.90986	26.112
0.936578	29.541
0.959185	34.911
0.990008	52.822
0.997198	61.182
1.00473	74.618
1.00849	89.399
0.35617	20.374
0.406695	20.592
0.458762	20.81
0.50695	21.479
0.557792	22.066
0.606594	22.06
0.660712	22.558
0.710451	22.74
0.761594	23.581
0.811185	25.235
0.837985	26.252
0.863988	28.224
0.889453	30.996
0.915349	35.648
0.941462	43.499
0.96067	51.82
0.986139	67.665
0.996393	78.245
