Adsorption isotherm of Nitrogen on MPL3
DOI: 10.1039/c5ta09132b
Article source: Figure 1
Adsorbate Nitrogen: InChIKey IJGRMHOSHXDMSA-UHFFFAOYSA-N
Kind: experiment
Temperature: 77 K
Tabular data in the source: 0
pressure (bar)	uptake (cm3(STP)/g)
0.007234	16.265
0.034853	20.927
0.072395	22.955
0.099688	22.769
0.117083	22.974
0.134978	23.051
0.15587	23.277
0.177876	23.839
0.204333	23.356
0.233368	24.806
0.274823	24.869
0.284881	25.107
0.323213	24.202
0.338856	25.286
0.375103	24.207
0.386323	25.338
0.425589	23.929
0.440046	25.249
0.47639	24.354
0.487944	25.363
0.524993	24.693
0.536467	24.993
0.576538	24.324
0.588697	24.475
0.624949	24.605
0.641532	25.733
0.67823	25.44
0.690055	26.153
0.726481	26.394
0.743334	26.395
0.759917	26.931
0.81048	30.968
0.834946	32.809
0.858461	35.065
0.886598	39.338
0.909842	44.678
0.936167	52.865
0.960479	66.36
0.983017	93.258
0.991215	116.568
1.00052	160.826
1.00747	228.587
0.843085	38.467
0.867144	43.176
0.896598	50.24
0.94051	67.426
0.962186	88.542
0.985517	148.654
0.994269	190.14
