Adsorption isotherm of Carbon Dioxide on 3D-TPB-COF-F
DOI: 10.1002/anie.201905591
Article source: Figure S23
Adsorbate Carbon Dioxide: InChIKey CURLTUGMZLYLDI-UHFFFAOYSA-N
Kind: experiment
Temperature: 273 K
Tabular data in the source: 0
pressure (bar)	uptake (cm3(STP)/g)
-0.000851	0.542299
0.014463	4.98915
0.025523	7.80911
0.03403	10.1952
0.049344	14.2082
0.063807	17.3536
0.07827	20.6074
0.094434	23.5358
0.119106	27.8742
0.150584	32.8633
0.19142	38.3948
0.231406	43.2755
0.272242	47.6139
0.302018	50.5423
0.342855	54.1215
0.38284	57.4837
0.437288	61.4967
0.475572	64.2082
0.513006	66.7028
0.550439	68.872
0.588723	71.0412
0.627858	73.102
0.662739	74.8373
0.701873	76.898
0.740157	78.5249
0.775038	80.0434
0.815024	81.6703
0.852457	83.2972
0.88904	84.7072
0.928174	86.0087
0.963055	87.2017
1.00134	88.5033
