Adsorption isotherm of Nitrogen on 3D-TPB-COF-H
DOI: 10.1002/anie.201905591
Article source: Figure S10
Adsorbate Nitrogen: InChIKey IJGRMHOSHXDMSA-UHFFFAOYSA-N
Kind: experiment
Temperature: 77 K
Tabular data in the source: 0
pressure (bar)	uptake (cm3(STP)/g)
0	0.438048
0	9.199
0	17.9599
0	50.8135
0	61.7647
0	74.4681
0	83.229
0	97.6846
0	106.446
0	130.538
0	167.334
0	35.9199
0	89.7998
0.00093	42.0526
0.00093	143.242
0.00093	151.126
0.00093	181.352
0.00093	190.551
0.00093	196.683
0.003718	215.081
0.005578	222.966
0.010225	230.413
0.019521	237.422
0.030676	244.431
0.039972	248.811
0.052057	252.753
0.065071	255.82
0.102255	261.952
0.151523	268.961
0.20172	275.532
0.251918	281.227
0.302116	285.169
0.354173	289.549
0.403441	293.054
0.455498	296.12
0.504766	299.625
0.555893	302.253
0.60702	305.757
0.657218	308.824
0.707416	311.452
0.759473	314.08
0.808741	317.146
0.859868	320.213
0.911925	322.841
0.004648	225.156
0.009296	234.355
0.019521	243.554
0.030676	249.687
0.040902	253.63
0.049268	256.258
0.101325	267.209
0.151523	274.218
0.20172	279.474
0.252848	283.855
0.303045	287.797
0.353243	291.74
0.40437	294.806
0.455498	298.31
0.505695	303.129
0.555893	305.757
0.606091	307.947
0.656289	310.576
0.708345	312.766
0.757614	315.832
0.808741	318.461
0.858939	321.527
0.910995	324.155
0.960264	328.536
1.00117	336.421
