Adsorption isotherm of Carbon Dioxide on 3D-TPB-COF-Me
DOI: 10.1002/anie.201905591
Article source: Figure S22
Adsorbate Carbon Dioxide: InChIKey CURLTUGMZLYLDI-UHFFFAOYSA-N
Kind: experiment
Temperature: 273 K
Tabular data in the source: 0
pressure (bar)	uptake (cm3(STP)/g)
0.014901	3.20285
0.024214	5.57533
0.033527	7.23606
0.049359	10.3203
0.063328	12.93
0.07916	15.5397
0.094992	18.0308
0.120137	21.9454
0.149007	26.2159
0.190916	31.9098
0.230961	37.1293
0.271938	41.7556
0.30174	45.0771
0.341786	49.1103
0.382763	53.0249
0.437709	57.8885
0.475892	61.21
0.513144	64.1756
0.550396	67.0225
0.588579	69.7509
0.626762	72.3606
0.664945	74.8517
0.702197	77.1056
0.74038	79.3594
0.778563	81.6133
0.814884	83.6299
0.853067	85.5279
0.89125	87.5445
0.928502	89.2052
0.965754	91.1032
1.00207	92.6453
