Adsorption isotherm of Carbon Dioxide on 3D-TPB-COF-H
DOI: 10.1002/anie.201905591
Article source: Figure S21
Adsorbate Carbon Dioxide: InChIKey CURLTUGMZLYLDI-UHFFFAOYSA-N
Kind: experiment
Temperature: 298 K
Tabular data in the source: 0
pressure (bar)	uptake (cm3(STP)/g)
0.00092	0.117371
0.016565	1.29108
0.023928	1.87793
0.036812	2.69953
0.050616	3.87324
0.064421	4.92958
0.080066	5.86855
0.096631	6.80751
0.12148	8.80282
0.150009	10.5634
0.192343	13.3803
0.232836	15.8451
0.272409	18.3099
0.303699	20.1878
0.344192	22.6526
0.384685	24.8826
0.438063	27.6995
0.476715	29.8122
0.513527	32.0423
0.55218	33.9202
0.590832	35.7981
0.625804	37.5587
0.663536	39.7887
0.702189	41.6667
0.740841	43.5446
0.776733	45.4225
0.816306	47.3005
0.854958	49.061
0.88993	50.7042
0.928582	52.1127
0.966315	53.9906
1.00405	55.3991
