Adsorption isotherm of Carbon Dioxide on 3D-TPB-COF-H
DOI: 10.1002/anie.201905591
Article source: Figure S21
Adsorbate Carbon Dioxide: InChIKey CURLTUGMZLYLDI-UHFFFAOYSA-N
Kind: experiment
Temperature: 273 K
Tabular data in the source: 0
pressure (bar)	uptake (cm3(STP)/g)
-0.00092	0.352113
0.013804	2.69953
0.023928	4.46009
0.034051	5.98592
0.049696	8.33333
0.066262	10.9155
0.080986	13.1455
0.096631	15.493
0.120559	19.4836
0.150929	25.1174
0.191422	32.277
0.231916	38.3803
0.272409	43.662
0.302779	47.1831
0.343272	51.4085
0.383765	55.3991
0.438983	60.0939
0.476715	63.0282
0.514448	66.0798
0.55126	68.7793
0.589912	71.1268
0.627644	73.5916
0.663536	75.5869
0.703109	77.8169
0.740841	79.9296
0.776733	81.6901
0.816306	83.6854
0.854038	85.446
0.89085	87.0892
0.929503	88.8498
0.967235	90.2582
1.00313	91.784
