Adsorption isotherm of Carbon Dioxide on 3D-TPB-COF-Me
DOI: 10.1002/anie.201905591
Article source: Figure S22
Adsorbate Carbon Dioxide: InChIKey CURLTUGMZLYLDI-UHFFFAOYSA-N
Kind: experiment
Temperature: 298 K
Tabular data in the source: 0
pressure (bar)	uptake (cm3(STP)/g)
0	0.355872
0.014901	1.54211
0.023282	2.25385
0.034458	3.20285
0.05029	4.50771
0.064259	5.69395
0.07916	6.76157
0.094061	7.82918
0.122	9.84579
0.149939	11.981
0.191847	14.7094
0.230961	17.3191
0.27287	19.8102
0.302671	21.5896
0.342717	23.962
0.383694	26.4531
0.436778	29.3001
0.477755	31.3167
0.515007	33.0961
0.551327	35.2313
0.58951	36.8921
0.627693	38.5528
0.663083	40.4508
0.701266	42.1115
0.74038	43.7722
0.776701	45.3144
0.815815	47.2123
0.85493	48.7544
0.889388	50.1779
0.927571	51.4828
0.966685	53.0249
1.00207	54.3298
