Adsorption isotherm of Carbon Dioxide on 3D-TPB-COF-F
DOI: 10.1002/anie.201905591
Article source: Figure S23
Adsorbate Carbon Dioxide: InChIKey CURLTUGMZLYLDI-UHFFFAOYSA-N
Kind: experiment
Temperature: 298 K
Tabular data in the source: 0
pressure (bar)	uptake (cm3(STP)/g)
0.000851	0.32538
0.015314	1.73536
0.02297	2.7115
0.033179	4.01301
0.049344	5.53145
0.064657	6.94143
0.079971	8.45987
0.093583	9.97831
0.119957	12.4729
0.151435	15.1844
0.19142	18.3297
0.231406	21.3666
0.271391	24.0781
0.30372	26.3557
0.342855	29.0672
0.383691	31.4534
0.439841	34.7072
0.477274	36.551
0.513856	38.6117
0.55214	40.4555
0.589574	42.0824
0.627858	43.9262
0.662739	45.5531
0.701023	47.397
0.738456	48.8069
0.775889	50.3254
0.815024	51.8438
0.851606	53.1453
0.88904	54.4469
0.928174	55.9653
0.963906	57.0499
1.00134	58.5683
