Adsorption isotherm of Nitrogen on 3D-TPB-COF-Me
DOI: 10.1002/anie.201905591
Article source: Figure S10
Adsorbate Nitrogen: InChIKey IJGRMHOSHXDMSA-UHFFFAOYSA-N
Kind: experiment
Temperature: 77 K
Tabular data in the source: 0
pressure (bar)	uptake (cm3(STP)/g)
0	60
0	97.6271
0	0.338983
0	37.9661
0	51.5254
0	90.8475
0	140.678
0	82.7119
0.00084	46.7797
0.00084	72.2034
0.00084	102.034
0.00084	107.797
0.00084	113.898
0.00084	157.966
0.00084	162.034
0.00084	175.254
0.00084	191.864
0.00084	184.407
0.00084	152.203
0.003361	202.712
0.005881	208.814
0.010922	213.898
0.021004	220.339
0.032767	223.729
0.043689	227.119
0.052931	229.153
0.064693	231.525
0.101661	235.932
0.151231	241.017
0.203322	245.763
0.252892	249.492
0.304143	252.881
0.355394	255.932
0.404964	258.305
0.454534	261.356
0.506625	264.068
0.557876	266.441
0.607446	269.153
0.659537	270.508
0.709107	273.559
0.759517	275.593
0.809928	277.966
0.861178	280.339
0.910749	282.373
0.96284	286.102
0.005041	211.525
0.010082	217.966
0.020164	224.407
0.030246	228.475
0.042009	231.186
0.051251	233.22
0.101661	240.678
0.152072	245.763
0.202482	249.831
0.252892	253.22
0.303303	256.271
0.353713	258.644
0.404964	261.356
0.454534	263.729
0.505785	267.119
0.556195	269.153
0.606606	271.525
0.657856	273.22
0.708267	275.593
0.758677	277.627
0.809928	279.661
0.860338	282.034
0.909909	284.068
0.961159	287.458
1.00149	293.559
