Adsorption isotherm of Nitrogen on 3D-TPB-COF-F
DOI: 10.1002/anie.201905591
Article source: Figure S10
Adsorbate Nitrogen: InChIKey IJGRMHOSHXDMSA-UHFFFAOYSA-N
Kind: experiment
Temperature: 77 K
Tabular data in the source: 0
pressure (bar)	uptake (cm3(STP)/g)
0	25.89
0.000853	53.0744
0.000853	71.1974
0.000853	88.9968
0.000853	104.207
0.000853	152.751
0.000853	0
0.000853	57.6052
0.000853	64.0777
0.000853	77.6699
0.000853	97.7346
0.000853	110.032
0.000853	114.563
0.000853	118.447
0.000853	133.01
0.000853	140.129
0.000853	144.984
0.000853	158.576
0.001706	163.43
0.002559	173.463
0.00597	177.994
0.011088	184.466
0.018764	190.939
0.028999	195.793
0.039234	200.324
0.052027	203.883
0.066527	206.796
0.102348	211.65
0.151817	217.799
0.202138	222.006
0.253312	225.243
0.304487	228.155
0.354808	230.421
0.405982	233.01
0.456304	234.951
0.507478	237.864
0.556946	239.806
0.607268	241.424
0.658442	243.366
0.708763	245.307
0.759937	246.602
0.810259	248.867
0.86058	251.456
0.910049	253.722
0.962076	257.282
0.005117	180.259
0.010235	187.379
0.019617	194.822
0.030705	200
0.040939	202.913
0.049468	205.502
0.102348	214.563
0.15267	219.741
0.202991	223.625
0.253312	226.861
0.303634	229.45
0.353955	232.039
0.405982	234.304
0.456304	236.57
0.505772	239.482
0.556946	241.1
0.607268	243.042
0.658442	244.984
0.708763	246.602
0.759085	248.867
0.810259	250.162
0.86058	252.427
0.910902	254.693
0.962929	258.252
1.00216	268.932
