Adsorption isotherm of Hydrogen on FJI-H5
DOI: 10.1039/C3cc48381a
Adsorbate Hydrogen: InChIKey UFHFLCQGNIYNRP-UHFFFAOYSA-N
Temperature: 77 K
Tabular data in the source: 0
pressure (bar)	uptake (wt%)
0.0433087	0.268541
0.0704447	0.415834
0.0976955	0.528527
0.11945	0.632521
0.143996	0.727889
0.171333	0.814631
0.198727	0.884072
0.226121	0.953513
0.253486	1.0316
0.278147	1.09237
0.305598	1.14451
0.330287	1.19663
0.357739	1.24877
0.382399	1.30954
0.407117	1.353
0.431806	1.40512
0.459315	1.43996
0.486795	1.48345
0.511513	1.52692
0.533497	1.56171
0.561006	1.59655
0.588515	1.63139
0.618729	1.68355
0.643504	1.70972
0.670984	1.75321
0.692968	1.788
0.720505	1.81419
0.748014	1.84903
0.775523	1.88387
0.800298	1.91004
0.825073	1.9362
0.855345	1.97107
0.874595	1.99719
0.902132	2.02337
0.935195	2.04961
0.954474	2.06708
0.976458	2.10187
1.004	2.12806
1.03156	2.1456
1.07012	2.18054
