Adsorption isotherm of Hydrogen on FJI-H5
DOI: 10.1039/C3cc48381a
Adsorbate Hydrogen: InChIKey UFHFLCQGNIYNRP-UHFFFAOYSA-N
Temperature: 77 K
Tabular data in the source: 0
pressure (bar)	uptake (wt%)
0.231073	-0.0392311
0.556288	0.349999
1.01159	0.894922
2.38776	1.59461
3.95906	2.52784
6.48717	3.34307
8.98276	4.11937
12.3342	4.9726
17.2997	5.8629
22.0701	6.51966
27.8948	7.17519
32.7987	7.67595
38.757	8.17548
43.8269	8.55916
49.3915	8.90331
54.9886	9.28638
59.961	9.55329
65.4605	9.81959
70.9275	10.047
75.8349	10.236
81.0383	10.4637
86.4728	10.6522
91.9398	10.8796
96.8471	11.0686
102.249	11.2182
