Adsorption isotherm of Nitrogen on FJI-H5
DOI: 10.1039/C3cc48381a
Adsorbate Nitrogen: InChIKey IJGRMHOSHXDMSA-UHFFFAOYSA-N
Temperature: 77 K
Tabular data in the source: 0
pressure (bar)	uptake (cm3(STP)/g)
-0.00179154	328.601
0.00242386	49.5401
0.00253677	117.065
0.00271742	225.106
0.00538968	423.201
0.0125558	508.798
0.0314649	617.012
0.0527225	729.749
0.0692303	801.928
0.0834045	878.586
0.0951851	923.712
0.116352	982.429
0.125761	1009.53
0.125791	1027.53
0.130511	1050.08
0.13289	1072.61
0.14233	1117.72
0.149383	1135.79
0.177498	1149.55
0.193885	1149.71
0.217311	1158.93
0.339091	1187.07
0.421058	1205.83
0.442127	1206.03
0.47725	1210.85
0.505351	1215.62
0.521737	1215.77
0.535784	1215.9
0.629441	1225.77
0.648177	1230.44
0.671595	1235.16
0.695005	1235.38
0.725439	1235.66
0.753539	1240.42
0.80505	1245.4
0.830793	1241.14
0.847189	1245.79
0.865917	1245.97
0.884652	1250.64
0.905715	1246.34
0.922117	1255.49
0.943179	1251.18
