Adsorption isotherm of Methane on FJI-H5
DOI: 10.1039/C3cc48381a
Adsorbate Methane: InChIKey VNWKTOKETHGBQD-UHFFFAOYSA-N
Temperature: 298 K
Tabular data in the source: 0
pressure (bar)	uptake (cm3(STP)/g)
0.246902	5.89678
1.2321	23.5823
2.461	39.2958
4.18049	58.9342
5.90159	82.5069
7.62109	102.145
11.5491	141.412
15.9668	182.637
20.3814	215.992
25.285	249.339
30.1885	282.685
35.0889	308.162
40.7227	333.625
45.8684	361.065
50.5227	382.613
55.4214	404.156
60.5639	423.727
65.7055	441.33
70.8472	458.934
75.9888	476.538
80.8852	492.179
86.2713	509.778
