Adsorption isotherm of Hydrogen on FJI-H5
DOI: 10.1039/C3cc48381a
Adsorbate Hydrogen: InChIKey UFHFLCQGNIYNRP-UHFFFAOYSA-N
Temperature: 87 K
Tabular data in the source: 0
pressure (bar)	uptake (wt%)
0.0162013	0.112597
0.0408618	0.173364
0.0682846	0.234155
0.092945	0.294922
0.120368	0.355713
0.147819	0.407853
0.175271	0.459994
0.197226	0.503436
0.224706	0.546927
0.252186	0.590417
0.279667	0.633907
0.304413	0.668723
0.326369	0.712166
0.353906	0.738356
0.389645	0.790568
0.408895	0.816686
0.436375	0.860176
0.458388	0.886318
0.488659	0.921182
0.516197	0.947372
0.540943	0.982188
0.568452	1.01703
0.593256	1.03454
0.612535	1.05201
0.64554	1.09555
0.667581	1.11304
0.695119	1.13923
0.722627	1.17407
0.747431	1.19159
0.777731	1.2178
0.802478	1.25262
0.824519	1.27011
0.857581	1.29635
0.879623	1.31384
0.90716	1.34003
0.934698	1.36622
0.956768	1.37506
0.984305	1.40125
1.00638	1.41009
1.03668	1.4363
1.06421	1.46249
