Adsorption isotherm of Nitrogen on FJI-H5
DOI: 10.1039/C3cc48381a
Adsorbate Nitrogen: InChIKey IJGRMHOSHXDMSA-UHFFFAOYSA-N
Temperature: 77 K
Tabular data in the source: 0
pressure (bar)	uptake (cm3(STP)/g)
0.102253	950.787
0.111655	973.382
0.116368	991.432
0.12108	1009.48
0.123466	1036.51
0.125829	1050.04
0.128193	1063.57
0.135262	1090.64
0.142322	1113.22
0.151716	1131.31
0.168112	1135.96
0.184514	1145.12
0.203258	1154.3
0.222001	1163.47
0.233714	1168.08
0.254791	1172.78
0.268844	1177.41
0.296944	1182.17
0.31568	1186.85
0.329726	1186.98
0.348463	1191.65
0.362516	1196.29
0.378896	1191.94
0.397625	1192.11
0.421042	1196.83
0.435112	1210.46
0.45384	1210.64
0.470227	1210.79
0.486622	1215.44
0.505351	1215.62
0.521745	1220.27
0.538133	1220.42
0.55452	1220.57
0.573256	1225.25
0.594325	1225.44
0.60603	1225.55
0.631789	1230.29
0.648185	1234.95
0.666913	1235.12
0.680959	1235.25
0.699688	1235.42
0.716082	1240.08
0.741834	1240.32
0.767593	1245.06
0.788655	1240.75
0.819096	1245.53
0.842506	1245.75
0.875281	1246.05
0.891676	1250.71
0.912745	1250.9
0.933822	1255.6
0.966597	1255.9
