Adsorption isotherm of Hydrogen on FJI-H5
DOI: 10.1039/C3cc48381a
Adsorbate Hydrogen: InChIKey UFHFLCQGNIYNRP-UHFFFAOYSA-N
Temperature: 77 K
Tabular data in the source: 0
pressure (bar)	uptake (wt%)
3.97529	2.46973
5.89393	3.16279
8.34079	3.85482
12.075	4.50566
16.2709	5.07819
21.1595	5.53324
26.4767	5.87134
31.43	6.09401
36.6143	6.27752
41.6988	6.3451
47.2784	6.37301
52.0656	6.40245
57.2481	6.27629
62.233	6.22794
67.482	6.17907
72.4337	6.09206
77.088	5.96693
82.6011	5.91755
87.7836	5.79139
92.7685	5.74303
98.0175	5.69416
