Adsorption isotherm of Methane on FJI-H5
DOI: 10.1039/C3cc48381a
Adsorbate Methane: InChIKey VNWKTOKETHGBQD-UHFFFAOYSA-N
Temperature: 298 K
Tabular data in the source: 0
pressure (bar)	uptake (cm3(STP)/g)
2.47691	31.7322
3.96208	49.5834
5.93907	69.4245
7.91768	91.2459
11.3734	121.017
15.8095	150.808
20.4907	180.604
25.4121	204.464
30.332	226.343
35.4937	244.267
40.407	258.226
45.5655	272.189
50.4789	286.148
55.3906	298.127
61.0361	308.139
65.943	314.177
70.8515	322.195
76.0035	328.238
80.9087	332.295
85.8156	338.333
