Adsorption isotherm of Carbon monoxide on PCN-9
DOI: 10.1021/Ja063538z
Adsorbate Carbon monoxide: InChIKey UGFAIRIUMAVXCW-UHFFFAOYSA-N
Temperature: 195 K
Tabular data in the source: 0
pressure (bar)	uptake (cm3(STP)/g)
0.0161603	1.6
0.0438636	6.4
0.0669498	12.8
0.101579	16.8
0.131591	21.6
0.159294	25.6
0.186998	28
0.212392	29.6
0.251639	34.4
0.297811	38.4
0.337057	40
0.373995	43.2
0.420167	46.4
0.46634	49.6
0.503278	51.2
0.547141	53.6
0.586388	55.2
0.630251	58.4
0.667189	60.8
0.690275	61.6
0.71567	62.4
0.752608	64
0.784928	65.6
0.819557	66.4
0.847261	68
0.872656	68.8
0.900359	69.6
0.928062	70.4
0.955766	72
0.983469	73.6
1.01579	74.4
1.03888	75.2
