Adsorption isotherm of Hydrogen on PCN-9
DOI: 10.1021/Ja063538z
Adsorbate Hydrogen: InChIKey UFHFLCQGNIYNRP-UHFFFAOYSA-N
Temperature: 113 K
Tabular data in the source: 0
pressure (bar)	uptake (cm3(STP)/g)
0.0225492	1.05541
0.0428436	2.63852
0.0653928	4.22164
0.0856871	5.27704
0.105981	6.86016
0.128531	8.44327
0.148825	10.0264
0.171374	11.0818
0.191669	12.6649
0.214218	13.7203
0.232257	15.3034
0.254806	16.3588
0.275101	17.942
0.29765	18.9974
0.317944	20.0528
0.338239	21.1082
0.360788	22.1636
0.381082	23.219
0.403631	24.2744
0.423926	25.3298
0.44422	26.3852
0.466769	27.4406
0.487064	29.0237
0.509613	30.0792
0.529907	30.6069
0.550201	31.6623
0.572751	32.7177
0.593045	33.7731
0.615594	34.3008
0.635889	35.3562
0.653928	36.4116
0.676477	36.9393
0.699026	37.9947
0.719321	39.0501
0.74187	39.5778
0.762164	40.6332
0.784713	41.1609
0.807263	42.2164
0.827557	42.7441
0.850106	43.7995
0.872656	44.3272
0.890695	45.3826
0.913244	45.9103
0.933538	46.438
0.956088	47.4934
0.976382	48.0211
