Adsorption isotherm of Methane on PCN-9
DOI: 10.1021/Ja063538z
Adsorbate Methane: InChIKey VNWKTOKETHGBQD-UHFFFAOYSA-N
Temperature: 157 K
Tabular data in the source: 0
pressure (bar)	uptake (cm3(STP)/g)
0.0110738	56.383
0.0200868	74.4681
0.0245418	92.5532
0.042683	108.511
0.0562905	120.213
0.0744377	135.106
0.0971551	147.872
0.126704	161.702
0.154003	170.213
0.18357	180.851
0.222271	188.298
0.25868	197.872
0.301939	205.319
0.356593	212.766
0.395306	218.085
0.447693	223.404
0.486418	226.596
0.516033	228.723
0.55931	232.979
0.59575	237.234
0.627644	239.362
0.682322	242.553
0.714211	245.745
0.734728	244.681
0.787127	247.872
0.844078	252.128
0.896477	255.319
0.937493	256.383
0.98762	258.511
