Adsorption isotherm of Hydrogen on PCN-9
DOI: 10.1021/Ja063538z
Adsorbate Hydrogen: InChIKey UFHFLCQGNIYNRP-UHFFFAOYSA-N
Temperature: 77 K
Tabular data in the source: 0
pressure (bar)	uptake (wt%)
0.00393887	0.0411128
0.00587423	0.0959156
0.00980855	0.141595
0.011753	0.187265
0.0136884	0.242068
0.0196035	0.296888
0.023556	0.324302
0.0373988	0.411119
0.043323	0.456806
0.0532224	0.507077
0.0671061	0.552799
0.0829706	0.607661
0.106786	0.67169
0.122664	0.712854
0.144511	0.754043
0.162375	0.799782
0.182237	0.836397
0.20806	0.882169
0.245818	0.932559
0.291522	0.996682
0.331269	1.04708
0.376982	1.10207
0.412763	1.13875
0.462469	1.18006
0.502231	1.21676
0.549951	1.2535
0.589726	1.2765
0.631486	1.30407
0.671252	1.33621
0.774648	1.41428
0.810448	1.43269
0.862167	1.45118
1.04116	1.54327
1.05707	1.55247
