Adsorption isotherm of Carbon monoxide on PCN-9
DOI: 10.1021/Ja063538z
Adsorbate Carbon monoxide: InChIKey UGFAIRIUMAVXCW-UHFFFAOYSA-N
Temperature: 157 K
Tabular data in the source: 0
pressure (bar)	uptake (cm3(STP)/g)
0.00461722	14.4
0.0138517	28
0.0323206	43.2
0.0369378	48.8
0.0484809	55.2
0.0669498	62.4
0.0900359	72.8
0.110813	79.2
0.129282	83.2
0.143134	86.4
0.170837	92
0.212392	100.8
0.253947	107.2
0.297811	112
0.339366	117.6
0.38323	121.6
0.424785	126.4
0.470957	130.4
0.512512	132.8
0.554067	135.2
0.639486	142.4
0.678732	145.6
0.724904	148
0.766459	150.4
0.787237	151.2
0.8311	153.6
0.868038	155.2
0.893433	155.2
0.911902	156.8
0.934988	157.6
0.960383	158.4
1.01348	160
1.03195	160.8
