Adsorption isotherm of Nitrogen on PCN-9
DOI: 10.1021/Ja063538z
Adsorbate Nitrogen: InChIKey IJGRMHOSHXDMSA-UHFFFAOYSA-N
Temperature: 77 K
Tabular data in the source: 0
pressure (bar)	uptake (cm3(STP)/g)
0.00343656	40.1869
0.00487375	122.43
0.00498788	97.1963
0.0050851	75.7009
0.00534717	17.757
0.00542326	0.934579
0.00834835	154.206
0.00989967	211.215
0.0133912	239.252
0.0240982	271.963
0.0421137	288.785
0.0583624	296.262
0.0782378	301.869
0.0908893	304.673
0.105358	305.607
0.119827	306.542
0.141525	309.346
0.193973	313.084
0.2609	315.888
0.331453	316.822
0.400193	318.692
0.472563	317.757
0.548531	321.495
0.622698	323.364
0.944717	326.168
0.964613	327.103
