Adsorption isotherm of Carbon monoxide on PCN-9
DOI: 10.1021/Ja063538z
Adsorbate Carbon monoxide: InChIKey UGFAIRIUMAVXCW-UHFFFAOYSA-N
Temperature: 157 K
Tabular data in the source: 0
pressure (bar)	uptake (cm3(STP)/g)
0.00230861	11.2
0.00923445	18.4
0.0138517	27.2
0.0323206	44
0.0600239	60.8
0.08311	69.6
0.106196	76.8
0.136208	85.6
0.168529	92.8
0.198541	98.4
0.219318	102.4
0.237787	105.6
0.258565	108.8
0.281651	112
0.302428	114.4
0.325514	117.6
0.346292	120
0.364761	121.6
0.385538	124
0.406316	125.6
0.429402	128
0.452488	129.6
0.473266	131.2
0.494043	132.8
0.514821	134.4
0.535598	136
0.558684	137.6
0.593313	140.8
0.621017	141.6
0.644103	142.4
0.66488	144
0.683349	146.4
0.708744	146.4
0.74799	148.8
0.787237	150.4
0.819557	152
0.86573	154.4
0.904976	156
0.94884	157.6
0.983469	158.4
1.01579	158.4
1.03888	159.2
