Adsorption isotherm of Methane on PCN-9
DOI: 10.1021/Ja063538z
Adsorbate Methane: InChIKey VNWKTOKETHGBQD-UHFFFAOYSA-N
Temperature: 175 K
Tabular data in the source: 0
pressure (bar)	uptake (cm3(STP)/g)
0.00669158	25.5319
0.0248207	43.617
0.0475078	61.7021
0.0793231	77.6596
0.104338	87.234
0.152112	102.128
0.195353	112.766
0.229496	120.213
0.270463	129.787
0.311455	135.106
0.354732	139.362
0.409386	146.809
0.441262	152.128
0.479987	155.319
0.507323	157.447
0.539211	160.638
0.575663	162.766
0.609824	167.021
0.639433	170.213
0.685014	170.213
0.716902	173.404
0.760185	176.596
0.803474	178.723
0.833095	179.787
0.883221	181.915
0.931068	184.043
0.962963	186.17
