Adsorption isotherm of Oxygen on PCN-9
DOI: 10.1021/Ja063538z
Adsorbate Oxygen: InChIKey MYMOFIZGZYHOMD-UHFFFAOYSA-N
Temperature: 143 K
Tabular data in the source: 0
pressure (bar)	uptake (cm3(STP)/g)
0.0232578	35.3887
0.041758	49.866
0.0625384	61.9303
0.0902148	73.9946
0.120184	85.2547
0.150134	94.1019
0.189291	104.558
0.223833	112.601
0.267581	122.252
0.320518	131.099
0.366547	138.338
0.40796	143.164
0.428666	145.576
0.453983	149.598
0.474695	152.815
0.495395	154.424
0.516102	156.836
0.527608	158.445
0.550606	160.054
0.571313	162.466
0.594318	164.879
0.608122	166.488
0.631121	168.097
0.674833	172.922
0.709337	176.139
0.750732	178.552
0.812839	184.182
0.886427	188.204
0.930126	191.421
0.983014	193.834
