Adsorption isotherm of Methane on PCN-9
DOI: 10.1021/Ja063538z
Adsorbate Methane: InChIKey VNWKTOKETHGBQD-UHFFFAOYSA-N
Temperature: 195 K
Tabular data in the source: 0
pressure (bar)	uptake (cm3(STP)/g)
0.00907363	7.44681
0.0204202	15.9574
0.0340458	24.4681
0.0499565	31.9149
0.0681462	39.3617
0.0840629	45.7447
0.102265	51.0638
0.122746	56.383
0.143232	60.6383
0.163713	65.9574
0.1842	70.2128
0.204687	74.4681
0.227459	77.6596
0.247952	80.8511
0.270724	84.0426
0.291217	87.234
0.313989	90.4255
0.334488	92.5532
0.35726	95.7447
0.377759	97.8723
0.400537	100
0.421036	102.128
0.443814	104.255
0.464313	106.383
0.487091	108.511
0.50759	110.638
0.530374	111.702
0.553152	113.83
0.573651	115.957
0.596435	117.021
0.616934	119.149
0.639718	120.213
0.662502	121.277
0.683001	123.404
0.705785	124.468
0.72857	125.532
0.751354	126.596
0.771853	128.723
0.794637	129.787
0.817421	130.851
0.837926	131.915
0.86071	132.979
0.881215	134.043
0.903999	135.106
0.926783	136.17
0.949567	137.234
0.972357	137.234
0.992863	138.298
1.01337	139.362
