Adsorption isotherm of Hydrogen on PCN-9
DOI: 10.1021/Ja063538z
Adsorbate Hydrogen: InChIKey UFHFLCQGNIYNRP-UHFFFAOYSA-N
Temperature: 87 K
Tabular data in the source: 0
pressure (bar)	uptake (cm3(STP)/g)
0.00459095	6.33245
0.0136834	11.0818
0.0227759	15.8311
0.0386415	20.0528
0.054519	25.3298
0.0681368	30.6069
0.0840084	35.3562
0.11119	41.1609
0.129304	44.3272
0.149695	49.0765
0.170074	52.7704
0.192701	55.409
0.215345	59.6306
0.256086	65.4354
0.301327	69.657
0.344321	74.934
0.387303	79.1557
0.432533	82.3219
0.4823	87.0712
0.52527	90.2375
0.570506	93.9314
0.611216	97.0976
0.658694	99.2084
0.703912	101.319
0.722007	102.902
0.744616	103.958
0.767231	105.541
0.789846	107.124
0.812455	108.179
0.837324	109.235
0.862192	110.29
0.889327	111.873
0.909682	113.456
0.93681	114.512
0.957159	115.567
0.979762	116.095
1.00463	117.15
1.02951	118.734
1.04984	118.734
1.06793	119.789
