Adsorption isotherm of Methane on PCN-9
DOI: 10.1021/Ja063538z
Adsorbate Methane: InChIKey VNWKTOKETHGBQD-UHFFFAOYSA-N
Temperature: 195 K
Tabular data in the source: 0
pressure (bar)	uptake (cm3(STP)/g)
0.00907969	6.38298
0.0204081	18.0851
0.0454045	30.8511
0.0658611	40.4255
0.0885967	50
0.122746	56.383
0.145481	65.9574
0.204687	74.4681
0.2434	79.7872
0.282107	86.1702
0.327651	92.5532
0.368649	96.8085
0.409659	98.9362
0.45293	104.255
0.493928	108.511
0.532659	110.638
0.573663	113.83
0.614667	117.021
0.655671	120.213
0.673903	120.213
0.696682	122.34
0.726297	124.468
0.760464	127.66
0.799189	130.851
0.82881	131.915
0.86071	132.979
0.892604	135.106
0.924504	136.17
0.954119	138.298
0.981455	140.426
1.02247	141.489
