Adsorption isotherm of Oxygen on PCN-9
DOI: 10.1021/Ja063538z
Adsorbate Oxygen: InChIKey MYMOFIZGZYHOMD-UHFFFAOYSA-N
Temperature: 195 K
Tabular data in the source: 0
pressure (bar)	uptake (cm3(STP)/g)
0.00920697	1.60858
0.0299073	3.21716
0.0506137	5.63003
0.071314	7.23861
0.0943129	8.84718
0.115013	10.4558
0.13572	12.8686
0.158719	14.4772
0.179419	16.0858
0.200119	17.6944
0.220819	19.3029
0.243818	20.9115
0.266811	21.7158
0.287511	23.3244
0.31051	24.933
0.331211	26.5416
0.351905	27.3458
0.374904	28.9544
0.395604	30.563
0.418597	31.3673
0.439297	32.9759
0.46229	33.7802
0.48299	35.3887
0.505983	36.193
0.528976	36.9973
0.549676	38.6059
0.572669	39.4102
0.595661	40.2145
0.616362	41.8231
0.639355	42.6273
0.662347	43.4316
0.68534	44.2359
0.706034	45.0402
0.729027	45.8445
0.75202	46.6488
0.77272	48.2574
0.795713	49.0617
0.818706	49.866
0.841698	50.6702
0.862392	51.4745
0.885385	52.2788
0.908378	53.0831
0.931371	53.8874
0.954357	53.8874
0.97735	54.6917
0.998044	55.496
1.01874	56.3003
1.04173	57.1046
