Adsorption isotherm of Hydrogen on PCN-9
DOI: 10.1021/Ja063538z
Adsorbate Hydrogen: InChIKey UFHFLCQGNIYNRP-UHFFFAOYSA-N
Temperature: 113 K
Tabular data in the source: 0
pressure (bar)	uptake (cm3(STP)/g)
0.0113045	0.527704
0.0384567	3.69393
0.0768895	5.27704
0.0995103	7.38786
0.113069	7.38786
0.133418	8.44327
0.203522	13.1926
0.239701	15.3034
0.282665	17.942
0.32337	20.5805
0.359549	22.6913
0.400247	24.8021
0.443206	26.9129
0.488423	29.0237
0.535895	30.6069
0.565289	32.19
0.599202	33.7731
0.644414	35.3562
0.685101	36.4116
0.725799	38.5224
0.746149	39.5778
0.789095	40.6332
0.807184	41.6887
0.825262	41.6887
0.865954	43.2718
0.886304	44.3272
0.902122	44.3272
0.917957	45.9103
0.94056	46.438
0.95413	47.4934
0.972214	48.0211
1.00386	48.5488
