Adsorption isotherm of Oxygen on PCN-9
DOI: 10.1021/Ja063538z
Adsorbate Oxygen: InChIKey MYMOFIZGZYHOMD-UHFFFAOYSA-N
Temperature: 195 K
Tabular data in the source: 0
pressure (bar)	uptake (cm3(STP)/g)
0.0138043	1.60858
0.0437115	4.82574
0.062107	5.63003
0.0759175	8.0429
0.0989226	10.4558
0.124214	11.2601
0.147219	13.6729
0.165621	15.2815
0.179419	16.0858
0.204723	18.4987
0.246117	20.9115
0.287518	24.1287
0.328912	26.5416
0.370306	28.9544
0.411701	31.3673
0.455394	33.7802
0.494483	35.3887
0.535878	37.8016
0.577266	39.4102
0.618654	41.0188
0.660049	43.4316
0.678444	44.2359
0.719832	45.8445
0.742825	46.6488
0.758922	47.4531
0.781915	48.2574
0.81181	49.866
0.837101	50.6702
0.86699	51.4745
0.896885	53.0831
0.926773	53.8874
0.958967	55.496
0.984252	55.496
1.01184	56.3003
1.03254	57.9088
