Adsorption isotherm of Hydrogen on PCN-9
DOI: 10.1021/Ja063538z
Adsorbate Hydrogen: InChIKey UFHFLCQGNIYNRP-UHFFFAOYSA-N
Temperature: 77 K
Tabular data in the source: 0
pressure (bar)	uptake (cm3(STP)/g)
0.00207301	15.746
0.00876453	20.9887
0.0199387	27.8019
0.0243446	36.1965
0.0377571	44.0573
0.0489313	50.8705
0.0600937	58.7335
0.0780303	64.4901
0.0914783	69.2013
0.107165	74.9601
0.125107	80.1918
0.156527	87.51
0.199192	95.342
0.212652	99.0033
0.241845	104.224
0.293529	110.472
0.331705	117.259
0.376662	121.414
0.417112	126.099
0.464313	130.777
0.504769	134.936
0.545226	139.096
0.585699	141.681
0.632912	145.309
0.662135	147.905
0.71161	150.481
0.729582	153.088
0.776818	154.616
0.801529	158.266
0.848759	160.319
0.886983	162.906
0.925218	164.444
0.965692	167.028
1.01293	168.557
1.0579	171.137
