Adsorption isotherm of Carbon monoxide on PCN-9
DOI: 10.1021/Ja063538z
Adsorbate Carbon monoxide: InChIKey UGFAIRIUMAVXCW-UHFFFAOYSA-N
Temperature: 143 K
Tabular data in the source: 0
pressure (bar)	uptake (cm3(STP)/g)
0.0115431	36.8
0.0184689	51.2
0.0253947	62.4
0.0392464	72.8
0.0530981	83.2
0.0808014	96
0.103888	104
0.117739	107.2
0.161603	118.4
0.200849	127.2
0.244713	134.4
0.286268	140.8
0.327823	145.6
0.364761	150.4
0.408624	155.2
0.447871	158.4
0.484809	162.4
0.521746	165.6
0.597931	171.2
0.717978	178.4
0.81494	184.8
0.886507	187.2
0.985778	192
