Adsorption isotherm of Carbon monoxide on PCN-9
DOI: 10.1021/Ja063538z
Adsorbate Carbon monoxide: InChIKey UGFAIRIUMAVXCW-UHFFFAOYSA-N
Temperature: 143 K
Tabular data in the source: 0
pressure (bar)	uptake (cm3(STP)/g)
0.0230861	54.4
0.0323206	64.8
0.0438636	76
0.0577153	84.8
0.0808014	96.8
0.106196	107.2
0.136208	116
0.156986	122.4
0.186998	128.8
0.221627	135.2
0.256256	141.6
0.293194	145.6
0.334749	150.4
0.373995	155.2
0.431711	160.8
0.454797	161.6
0.470957	163.2
0.494043	164.8
0.505586	165.6
0.528672	167.2
0.544833	168.8
0.567919	169.6
0.58177	171.2
0.604856	172
0.639486	174.4
0.685658	177.6
0.743373	180
0.808014	184
0.858804	185.6
0.909593	187.2
0.94884	188.8
0.98116	189.6
