Adsorption isotherm of Oxygen on PCN-9
DOI: 10.1021/Ja063538z
Adsorbate Oxygen: InChIKey MYMOFIZGZYHOMD-UHFFFAOYSA-N
Temperature: 157 K
Tabular data in the source: 0
pressure (bar)	uptake (cm3(STP)/g)
0.0092686	9.65147
0.0300675	24.1287
0.0577377	35.3887
0.0830908	44.2359
0.115346	53.8874
0.147589	61.9303
0.170612	66.756
0.191337	71.5818
0.228165	78.0161
0.278797	86.059
0.317918	91.689
0.370843	98.9276
0.414554	103.753
0.455961	107.775
0.518062	112.601
0.55717	116.622
0.605466	119.839
0.66297	124.665
0.713559	127.078
0.777958	131.903
0.840053	135.925
0.895233	137.534
0.945822	139.946
1.00561	143.164
