Adsorption isotherm of Oxygen on PCN-9
DOI: 10.1021/Ja063538z
Adsorbate Oxygen: InChIKey MYMOFIZGZYHOMD-UHFFFAOYSA-N
Temperature: 143 K
Tabular data in the source: 0
pressure (bar)	uptake (cm3(STP)/g)
0.00476371	21.7158
0.018642	32.9759
0.0256304	45.0402
0.030277	51.4745
0.0487218	58.7131
0.0786968	70.7775
0.0948306	76.4075
0.129397	87.6676
0.150116	91.689
0.189261	100.536
0.226101	108.579
0.272136	116.622
0.308964	123.056
0.348096	130.295
0.384924	136.729
0.444745	143.968
0.470061	147.989
0.509175	152.815
0.545984	156.836
0.589696	161.662
0.624194	164.075
0.649504	167.292
0.667912	169.705
0.690911	171.314
0.709313	172.922
0.725422	175.335
0.766822	178.552
0.789827	180.965
0.824332	184.182
0.856526	185.791
0.886433	189.008
0.930132	192.225
0.960027	193.834
0.985325	195.442
