Adsorption isotherm of Methane on PCN-9
DOI: 10.1021/Ja063538z
Adsorbate Methane: InChIKey VNWKTOKETHGBQD-UHFFFAOYSA-N
Temperature: 175 K
Tabular data in the source: 0
pressure (bar)	uptake (cm3(STP)/g)
0.0225719	38.2979
0.0384281	55.3191
0.0656732	73.4043
0.104319	90.4255
0.131607	101.064
0.156634	108.511
0.19305	117.021
0.229465	125.532
0.268172	131.915
0.313716	138.298
0.354696	145.745
0.427588	152.128
0.450366	154.255
0.468586	156.383
0.516415	161.702
0.568814	164.894
0.593877	165.957
0.616649	169.149
0.673606	172.34
0.735122	175.532
0.785242	178.723
0.826252	180.851
0.878663	181.915
0.933335	186.17
0.962963	186.17
