Adsorption isotherm of Hydrogen on PCN-9
DOI: 10.1021/Ja063538z
Adsorbate Hydrogen: InChIKey UFHFLCQGNIYNRP-UHFFFAOYSA-N
Temperature: 87 K
Tabular data in the source: 0
pressure (bar)	uptake (cm3(STP)/g)
0.00891808	7.3403
0.0425174	20.9555
0.0716695	29.8507
0.116543	41.3551
0.177163	53.3689
0.215339	60.1555
0.262516	66.9332
0.320945	73.6998
0.368134	79.4277
0.424329	84.6217
0.49177	90.3296
0.556973	94.9898
0.628937	98.5935
0.678406	101.694
0.73912	105.309
0.793095	107.881
0.84932	110.45
0.91004	113.54
0.970772	115.58
1.01351	117.113
1.05174	118.65
1.07199	118.63
