Adsorption isotherm of Oxygen on PCN-9
DOI: 10.1021/Ja063538z
Adsorbate Oxygen: InChIKey MYMOFIZGZYHOMD-UHFFFAOYSA-N
Temperature: 157 K
Tabular data in the source: 0
pressure (bar)	uptake (cm3(STP)/g)
0.00928709	12.0643
0.0162262	17.6944
0.0346586	23.3244
0.0439149	31.3673
0.0646522	37.8016
0.0761886	43.4316
0.0969135	48.2574
0.126858	56.3003
0.142985	61.126
0.170606	65.9517
0.195935	71.5818
0.216647	74.7989
0.253463	79.6247
0.30179	86.8633
0.338612	92.4933
0.382323	97.319
0.426035	102.145
0.46974	106.166
0.511147	110.188
0.554859	115.013
0.596265	119.035
0.642269	123.056
0.681371	126.273
0.71587	128.686
0.76416	131.099
0.780251	131.099
0.807847	132.708
0.835443	134.316
0.849248	135.925
0.88374	137.534
0.906726	137.534
0.922823	138.338
0.934323	139.142
0.952724	140.751
0.966516	140.751
0.982613	141.555
1.00331	143.164
1.03091	144.772
