Adsorption isotherm of Carbon monoxide on PCN-9
DOI: 10.1021/Ja063538z
Adsorbate Carbon monoxide: InChIKey UGFAIRIUMAVXCW-UHFFFAOYSA-N
Temperature: 195 K
Tabular data in the source: 0
pressure (bar)	uptake (cm3(STP)/g)
0.0115431	1.6
0.030012	5.6
0.0507895	9.6
0.071567	12.8
0.0923445	16
0.113122	18.4
0.1339	21.6
0.154677	24
0.175455	26.4
0.196232	28.8
0.21701	31.2
0.240096	32.8
0.263182	35.2
0.283959	36.8
0.307045	39.2
0.327823	40.8
0.350909	42.4
0.371687	44
0.394773	45.6
0.41555	46.4
0.436328	48
0.459414	49.6
0.480191	51.2
0.503278	52
0.526364	53.6
0.547141	54.4
0.570227	56
0.593313	56.8
0.614091	57.6
0.634868	59.2
0.657955	60
0.681041	60.8
0.701818	61.6
0.724904	62.4
0.745682	64
0.766459	64.8
0.789545	65.6
0.810323	66.4
0.8311	67.2
0.854187	68
0.877273	68.8
0.89805	68.8
0.921136	69.6
0.944222	70.4
0.965	72
0.988086	72
1.00886	72.8
1.02964	73.6
