Adsorption isotherm of Methane on PCN-9
DOI: 10.1021/Ja063538z
Adsorbate Methane: InChIKey VNWKTOKETHGBQD-UHFFFAOYSA-N
Temperature: 157 K
Tabular data in the source: 0
pressure (bar)	uptake (cm3(STP)/g)
0.00883118	50
0.0110132	67.0213
0.0245721	87.234
0.0313728	93.617
0.0427133	103.191
0.0517506	117.021
0.0631033	124.468
0.0767167	135.106
0.119897	156.383
0.12671	160.638
0.13582	161.702
0.156276	171.277
0.172205	175.532
0.194965	180.851
0.23366	189.362
0.276918	196.809
0.324717	207.447
0.358866	213.83
0.411247	220.213
0.438583	222.34
0.486418	226.596
0.518306	229.787
0.561583	234.043
0.602593	236.17
0.659551	239.362
0.680056	240.426
0.698282	241.489
0.741571	243.617
0.814481	246.809
0.860055	247.872
0.894235	248.936
0.917013	251.064
0.951186	253.191
0.989917	255.319
