Adsorption isotherm of Hydrogen on PCN-9
DOI: 10.1021/Ja063538z
Adsorbate Hydrogen: InChIKey UFHFLCQGNIYNRP-UHFFFAOYSA-N
Temperature: 77 K
Tabular data in the source: 0
pressure (bar)	uptake (cm3(STP)/g)
0.0110088	21.5115
0.0266302	33.0447
0.0355424	40.9099
0.055676	51.3888
0.0780539	62.3904
0.0982111	70.7695
0.125125	78.617
0.158771	88.0327
0.187953	94.3032
0.223867	102.142
0.250823	106.315
0.282266	111.533
0.349666	120.916
0.399105	126.641
0.453039	132.887
0.486756	136.004
0.545208	140.671
0.626138	147.415
0.668856	150.523
0.698091	152.069
0.718325	153.624
0.772294	156.72
0.846497	161.371
0.934213	164.96
0.997183	168.047
1.03991	170.105
