Adsorption isotherm of Nitrogen on NaY zeolite
DOI: 10.1007/s10450-020-00205-8
Article source: Figure 4
Adsorbate Nitrogen: InChIKey IJGRMHOSHXDMSA-UHFFFAOYSA-N
Kind: experiment
Temperature: 358 K
Tabular data in the source: 0
pressure (bar)	uptake (mmol/g)
0.087108	0.014019
0.226481	0.016822
0.400697	0.030841
0.574913	0.036449
0.766551	0.04486
0.923345	0.047664
1.11498	0.047664
1.27178	0.058879
1.5331	0.075701
1.82927	0.08972
1.96864	0.092523
2.1777	0.109346
2.47387	0.117757
2.92683	0.142991
3.39721	0.165421
3.81533	0.18785
4.30314	0.218692
4.80836	0.249533
5.38328	0.27757
5.97561	0.311215
6.51568	0.330841
6.86411	0.353271
7.38676	0.375701
7.90941	0.409346
8.36237	0.437383
8.97213	0.476636
9.3554	0.504673
