Adsorption isotherm of Carbon Dioxide on NaY zeolite
DOI: 10.1007/s10450-020-00205-8
Article source: Figure 4
Adsorbate Carbon Dioxide: InChIKey CURLTUGMZLYLDI-UHFFFAOYSA-N
Kind: experiment
Temperature: 318 K
Tabular data in the source: 0
pressure (bar)	uptake (mmol/g)
0.104526	0.091744
0.101281	0.414836
0.149991	0.814611
0.251272	1.22953
0.2989	1.737
0.347454	2.15216
0.483423	2.61307
0.654697	3.05844
0.791902	3.39626
0.947455	3.65708
1.08636	3.82567
1.32886	4.1784
1.59002	4.42335
1.86969	4.5759
2.06178	4.69809
2.28918	4.80474
2.56915	4.92652
2.77944	4.98709
3.32289	5.12304
3.76104	5.2441
4.28754	5.31859
4.97221	5.39235
5.58627	5.49721
6.32351	5.58612
6.88547	5.62968
7.51757	5.6883
8.32527	5.7615
9.18616	5.78829
