Adsorption isotherm of Nitrogen on NaY zeolite
DOI: 10.1007/s10450-020-00205-8
Article source: Figure 4
Adsorbate Nitrogen: InChIKey IJGRMHOSHXDMSA-UHFFFAOYSA-N
Kind: experiment
Temperature: 318 K
Tabular data in the source: 0
pressure (bar)	uptake (mmol/g)
0.121951	0.014019
0.226481	0.025234
0.313589	0.033645
0.43554	0.042056
0.557491	0.056075
0.662021	0.070093
0.836237	0.103738
1.23693	0.151402
1.58537	0.185047
1.82927	0.218692
2.47387	0.285981
2.97909	0.34486
3.72822	0.417757
4.58188	0.504673
5.2439	0.591589
6.09756	0.675701
7.00348	0.742991
7.94425	0.827103
8.65854	0.880374
9.28571	0.928037
