Adsorption isotherm of Nitrogen on NaY zeolite
DOI: 10.1007/s10450-020-00205-8
Article source: Figure 4
Adsorbate Nitrogen: InChIKey IJGRMHOSHXDMSA-UHFFFAOYSA-N
Kind: experiment
Temperature: 298 K
Tabular data in the source: 0
pressure (bar)	uptake (mmol/g)
0.069686	0.028037
0.121951	0.042056
0.191638	0.056075
0.278746	0.078505
0.522648	0.109346
0.731707	0.123364
0.888502	0.159813
1.02787	0.185047
1.39373	0.229907
1.56794	0.257944
1.82927	0.297196
2.38676	0.375701
3.24042	0.518692
4.23345	0.658879
5.2439	0.779439
6.25435	0.9
7.38676	1.03178
8.85017	1.15794
