Adsorption isotherm of Nitrogen on NaY zeolite
DOI: 10.1007/s10450-020-00205-8
Article source: Figure 1
Adsorbate Nitrogen: InChIKey IJGRMHOSHXDMSA-UHFFFAOYSA-N
Kind: experiment
Temperature: 77 K
Tabular data in the source: 0
pressure (bar)	uptake (mmol/g)
0.008774	5.61256
0.006991	9.13204
0.00872	14.7568
0.008679	21.7909
0.008658	25.3079
0.005109	29.5332
0.005097	31.6435
0.003297	37.9766
0.00678	45.0057
0.013788	52.03
0.013759	56.9538
0.013726	62.5811
0.010156	70.3234
0.008365	75.2497
0.008336	80.1735
0.006549	84.3964
0.006503	92.1339
0.006462	99.1679
0.006446	101.982
0.009933	108.307
0.009896	114.638
0.009879	117.452
0.011612	122.373
0.011592	125.89
0.011542	134.331
0.011505	140.662
0.01148	144.882
0.007923	150.514
0.00789	156.141
0.011368	163.874
0.013098	169.499
0.016593	174.418
0.016552	181.452
0.016531	184.969
0.01651	188.486
0.016486	192.706
0.016444	199.74
0.016403	206.774
0.021665	210.987
0.033938	221.521
0.049781	224.313
0.072686	224.985
0.107917	227.046
0.132588	227.012
0.15902	226.975
0.187215	226.936
0.225984	226.882
0.259465	226.835
0.294709	226.786
0.310556	228.875
0.33876	227.429
0.35991	226.696
0.405719	228.039
0.451535	227.976
0.495578	230.025
0.559004	232.047
0.608358	229.868
0.662982	230.496
0.705257	233.25
0.772225	232.454
0.816275	233.096
0.860326	233.739
0.904381	233.677
0.948411	237.837
0.974827	240.614
0.985367	246.226
0.992362	255.361
0.999357	264.495
1.00278	282.075
0.092078	223.551
0.14846	224.879
0.18722	226.232
0.234799	226.166
0.285894	227.502
0.32994	228.848
0.377519	228.782
0.435667	229.404
0.483234	231.449
0.532584	229.973
0.583671	232.716
0.633012	232.647
0.682353	232.579
0.738743	232.501
0.786318	233.138
0.842704	233.763
0.888509	235.81
0.92022	237.172
0.957197	242.045
