Adsorption isotherm of Carbon monoxide on NaY zeolite
DOI: 10.1007/s10450-020-00205-8
Article source: Figure 4
Adsorbate Carbon monoxide: InChIKey UGFAIRIUMAVXCW-UHFFFAOYSA-N
Kind: experiment
Temperature: 358 K
Tabular data in the source: 0
pressure (bar)	uptake (mmol/g)
0.179539	0.031713
0.269389	0.039569
0.431142	0.05131
0.628907	0.058994
0.826592	0.074677
0.988385	0.082419
1.16808	0.098131
1.32984	0.109872
1.49155	0.125614
1.67137	0.129326
1.83304	0.149067
1.97677	0.164837
2.31798	0.216291
2.62334	0.255803
3.01871	0.28717
3.36021	0.310624
3.77348	0.349962
4.11493	0.377416
4.58197	0.436669
5.06731	0.463892
5.55237	0.519116
6.05569	0.546311
6.52285	0.593563
7.06206	0.628701
7.47546	0.656039
7.88877	0.691378
8.30217	0.718717
9.03907	0.769537
