Adsorption isotherm of Methane on NaY zeolite
DOI: 10.1007/s10450-020-00205-8
Article source: Figure 4
Adsorbate Methane: InChIKey VNWKTOKETHGBQD-UHFFFAOYSA-N
Kind: experiment
Temperature: 298 K
Tabular data in the source: 0
pressure (bar)	uptake (mmol/g)
0.086493	0.07653
0.226216	0.103805
0.453046	0.163856
0.592462	0.213014
0.801778	0.273075
0.941271	0.316762
1.08069	0.36592
1.16779	0.398695
1.46437	0.48059
1.79574	0.578877
2.24894	0.731802
2.68486	0.868325
3.2605	1.03212
3.819	1.16858
4.49965	1.33779
5.30257	1.52882
6.15827	1.70341
6.99684	1.85065
7.74807	1.98153
8.62205	2.1014
9.47843	2.22675
