Adsorption isotherm of Carbon monoxide on NaY zeolite
DOI: 10.1007/s10450-020-00205-8
Article source: Figure 4
Adsorbate Carbon monoxide: InChIKey UGFAIRIUMAVXCW-UHFFFAOYSA-N
Kind: experiment
Temperature: 298 K
Tabular data in the source: 0
pressure (bar)	uptake (mmol/g)
0.08949	0.043857
0.17914	0.071713
0.232857	0.095627
0.376425	0.127398
0.501807	0.179197
0.645294	0.218968
0.878471	0.282594
1.03987	0.330336
1.20118	0.386078
1.43447	0.437705
1.6318	0.489389
1.8649	0.561016
2.18789	0.636499
2.58274	0.719868
2.94177	0.787293
3.44454	0.870489
3.9292	0.965713
4.46798	1.04485
5.00667	1.13199
5.67131	1.21493
6.22808	1.29403
6.83884	1.36906
7.53957	1.43994
8.1863	1.5149
9.12077	1.59341
