Adsorption isotherm of Carbon Dioxide on NaY zeolite
DOI: 10.1007/s10450-020-00205-8
Article source: Figure 4
Adsorbate Carbon Dioxide: InChIKey CURLTUGMZLYLDI-UHFFFAOYSA-N
Kind: experiment
Temperature: 338 K
Tabular data in the source: 0
pressure (bar)	uptake (mmol/g)
0.120556	0.245516
0.170347	0.537594
0.27271	0.844814
0.340231	1.12143
0.390485	1.36735
0.441049	1.5825
0.63098	1.92008
0.681543	2.13524
0.784679	2.36553
0.940077	2.64173
1.1314	2.84085
1.37514	3.07049
1.49616	3.26994
1.77489	3.5148
1.93153	3.66793
2.05332	3.79044
2.29814	3.91239
2.59554	4.04948
2.85809	4.15596
3.24274	4.35418
3.75088	4.50568
4.20692	4.59589
4.68022	4.71678
5.22414	4.80658
5.78532	4.92706
6.45195	5.04706
7.17208	5.08989
7.92706	5.16333
8.75202	5.26722
