Adsorption isotherm of Carbon Dioxide on NaY zeolite
DOI: 10.1007/s10450-020-00205-8
Article source: Figure 4
Adsorbate Carbon Dioxide: InChIKey CURLTUGMZLYLDI-UHFFFAOYSA-N
Kind: experiment
Temperature: 358 K
Tabular data in the source: 0
pressure (bar)	uptake (mmol/g)
0.173592	0.214502
0.189313	0.399045
0.310179	0.613872
0.359815	0.921335
0.461869	1.25933
0.670148	1.5199
0.808744	1.71926
0.96476	1.93393
1.13758	2.22544
1.41647	2.45492
1.59099	2.57719
1.85215	2.82214
1.97363	2.97543
2.60264	3.34175
3.10971	3.60095
3.61661	3.87554
4.21233	4.0574
4.80773	4.27004
5.54467	4.38971
6.14115	4.49465
6.71975	4.63044
7.24686	4.64339
7.79093	4.71781
8.28212	4.80785
8.82742	4.75918
9.4068	4.81804
