Adsorption isotherm of Methane on NaY zeolite
DOI: 10.1007/s10450-020-00205-8
Article source: Figure 4
Adsorbate Methane: InChIKey VNWKTOKETHGBQD-UHFFFAOYSA-N
Kind: experiment
Temperature: 338 K
Tabular data in the source: 0
pressure (bar)	uptake (mmol/g)
0.157083	0.038198
0.244496	0.049091
0.349346	0.065445
0.419245	0.076348
0.541608	0.092692
0.646305	0.119987
0.856311	0.130813
1.01355	0.158079
1.15335	0.179885
1.38056	0.212583
1.64265	0.256203
1.88745	0.283422
2.23664	0.359817
2.72602	0.430665
3.28537	0.506946
3.96723	0.58863
4.68382	0.692177
5.43513	0.817586
5.95953	0.888415
6.6414	0.970099
7.3056	1.06273
7.93485	1.14992
8.98411	1.25875
