Adsorption isotherm of Methane on NaY zeolite
DOI: 10.1007/s10450-020-00205-8
Article source: Figure 4
Adsorbate Methane: InChIKey VNWKTOKETHGBQD-UHFFFAOYSA-N
Kind: experiment
Temperature: 358 K
Tabular data in the source: 0
pressure (bar)	uptake (mmol/g)
0.174673	0.032718
0.297112	0.043592
0.436912	0.065397
0.559352	0.076271
0.751998	0.076165
1.01439	0.097904
1.15419	0.119709
1.39892	0.152398
1.74864	0.1905
1.88837	0.217776
2.518	0.277606
2.99002	0.337523
3.51449	0.402882
4.3188	0.49544
5.07072	0.577085
5.75251	0.66424
6.34689	0.740501
7.13392	0.816657
7.86833	0.898312
8.98756	1.01258
