Adsorption isotherm of Methane on NaY zeolite
DOI: 10.1007/s10450-020-00205-8
Article source: Figure 4
Adsorbate Methane: InChIKey VNWKTOKETHGBQD-UHFFFAOYSA-N
Kind: experiment
Temperature: 318 K
Tabular data in the source: 0
pressure (bar)	uptake (mmol/g)
0.139493	0.043678
0.261626	0.076434
0.401502	0.092769
0.558585	0.130976
0.733411	0.152762
0.855621	0.180048
1.01278	0.212784
1.15243	0.245531
1.36197	0.28918
1.5628	0.330098
1.78099	0.381948
1.93811	0.41742
2.23472	0.49658
2.68877	0.589329
3.00308	0.654803
3.59677	0.780299
4.12056	0.894892
4.85443	1.01484
5.55305	1.15122
6.32187	1.27662
6.93338	1.38022
7.71971	1.50561
8.59377	1.62002
9.48533	1.73441
