Adsorption isotherm of Hydrogen on NaY zeolite
DOI: 10.1007/s10450-020-00205-8
Article source: Figure 4
Adsorbate Hydrogen: InChIKey UFHFLCQGNIYNRP-UHFFFAOYSA-N
Kind: experiment
Temperature: 338 K
Tabular data in the source: 0
pressure (bar)	uptake (mmol/g)
1.20121	0.028877
2.1904	0.050672
3.46207	0.076574
4.68095	0.104267
5.61702	0.123102
7.10067	0.153717
8.40782	0.182581
9.32697	0.211515
