Adsorption isotherm of Nitrogen on NaY zeolite
DOI: 10.1007/s10450-020-00205-8
Article source: Figure 4
Adsorbate Nitrogen: InChIKey IJGRMHOSHXDMSA-UHFFFAOYSA-N
Kind: experiment
Temperature: 338 K
Tabular data in the source: 0
pressure (bar)	uptake (mmol/g)
0.121951	0.011215
0.243902	0.019626
0.33101	0.036449
0.505226	0.039252
0.662021	0.047664
0.818815	0.064486
0.993031	0.075701
1.11498	0.084112
1.34146	0.100935
1.5331	0.123364
1.74216	0.137383
1.89895	0.145794
2.35192	0.171028
2.64808	0.193458
2.92683	0.215888
3.25784	0.243925
3.50174	0.274766
4.1115	0.319626
4.56446	0.350467
5.12195	0.398131
5.62718	0.437383
6.14983	0.473832
6.70732	0.513084
7.16028	0.560748
8.03136	0.619626
9.26829	0.720561
