Adsorption isotherm of Hydrogen on NaY zeolite
DOI: 10.1007/s10450-020-00205-8
Article source: Figure 4
Adsorbate Hydrogen: InChIKey UFHFLCQGNIYNRP-UHFFFAOYSA-N
Kind: experiment
Temperature: 298 K
Tabular data in the source: 0
pressure (bar)	uptake (mmol/g)
0.989527	0.028321
2.35013	0.064896
3.56897	0.091994
4.87625	0.12264
6.16602	0.155071
7.66792	0.19459
8.97524	0.225829
9.75263	0.245287
