Adsorption isotherm of Carbon monoxide on NaY zeolite
DOI: 10.1007/s10450-020-00205-8
Article source: Figure 4
Adsorbate Carbon monoxide: InChIKey UGFAIRIUMAVXCW-UHFFFAOYSA-N
Kind: experiment
Temperature: 318 K
Tabular data in the source: 0
pressure (bar)	uptake (mmol/g)
0.107436	0.047828
0.233177	0.063627
0.340933	0.079455
0.502566	0.103196
0.646173	0.130966
0.87959	0.170593
1.00517	0.202392
1.16676	0.230133
1.36429	0.261817
1.61561	0.309415
1.99264	0.376812
2.24384	0.43641
2.62106	0.483806
2.89017	0.551376
3.21332	0.610859
3.68032	0.674111
4.09347	0.72545
4.57837	0.796675
5.09948	0.843841
5.58462	0.891065
6.10553	0.958231
6.57265	1.00948
7.12961	1.06859
7.65068	1.11976
8.20776	1.16687
8.72888	1.21403
9.286	1.25714
