Adsorption isotherm of Carbon monoxide on NaY zeolite
DOI: 10.1007/s10450-020-00205-8
Article source: Figure 4
Adsorbate Carbon monoxide: InChIKey UGFAIRIUMAVXCW-UHFFFAOYSA-N
Kind: experiment
Temperature: 338 K
Tabular data in the source: 0
pressure (bar)	uptake (mmol/g)
0.233457	0.035626
0.413076	0.059339
0.556644	0.091109
0.718237	0.118851
1.04174	0.142333
1.25745	0.153988
1.49095	0.185614
1.6886	0.205298
1.97605	0.236838
2.40723	0.284148
2.62258	0.331804
3.17975	0.370912
3.41308	0.418539
3.9344	0.445705
4.36554	0.497015
4.83265	0.548268
5.26379	0.599578
5.80293	0.642715
6.23415	0.686025
6.82721	0.733076
7.25847	0.772386
7.88734	0.83538
8.37244	0.886604
9.14519	0.949368
