Adsorption isotherm of Hydrogen on NaY zeolite
DOI: 10.1007/s10450-020-00205-8
Article source: Figure 4
Adsorbate Hydrogen: InChIKey UFHFLCQGNIYNRP-UHFFFAOYSA-N
Kind: experiment
Temperature: 318 K
Tabular data in the source: 0
pressure (bar)	uptake (mmol/g)
1.04223	0.025342
2.33162	0.052429
3.58611	0.084866
4.73449	0.113165
5.93561	0.139079
7.06623	0.165599
8.33811	0.19447
9.55687	0.220381
