Adsorption isotherm of Carbon Dioxide on NaY zeolite
DOI: 10.1007/s10450-020-00205-8
Article source: Figure 4
Adsorbate Carbon Dioxide: InChIKey CURLTUGMZLYLDI-UHFFFAOYSA-N
Kind: experiment
Temperature: 298 K
Tabular data in the source: 0
pressure (bar)	uptake (mmol/g)
0.082933	0.491844
0.130406	1.0147
0.141183	1.69158
0.257414	2.36796
0.267882	3.07561
0.403078	3.61344
0.573116	4.18189
0.763047	4.51947
0.988593	4.81074
1.26748	5.04022
1.66956	5.25375
1.80923	5.34542
2.10694	5.45173
2.38706	5.55813
2.79022	5.66396
3.29898	5.75392
3.75502	5.84413
4.45695	5.94858
5.00118	6.00761
5.79115	6.09627
6.59931	6.12331
7.33687	6.18144
7.93382	6.24022
8.60122	6.2833
9.33877	6.34143
