Adsorption isotherm of Hydrogen on NaY zeolite
DOI: 10.1007/s10450-020-00205-8
Article source: Figure 4
Adsorbate Hydrogen: InChIKey UFHFLCQGNIYNRP-UHFFFAOYSA-N
Kind: experiment
Temperature: 358 K
Tabular data in the source: 0
pressure (bar)	uptake (mmol/g)
1.25391	0.025899
2.77295	0.058288
3.86796	0.080065
4.71547	0.093572
5.98735	0.122443
7.22349	0.144788
8.42432	0.166545
9.60731	0.185337
