Adsorption isotherm of Nitrogen on CuBTC
DOI: 10.1016/j.micromeso.2012.06.011
Adsorbate Nitrogen: InChIKey IJGRMHOSHXDMSA-UHFFFAOYSA-N
Temperature: 77 K
Tabular data in the source: 0
pressure (bar)	uptake (cm3(STP)/g)
0.0487366	495.653
0.0985056	511.098
0.153423	522.254
0.201476	529.118
0.250387	530.834
0.355073	537.699
0.455469	541.99
0.556723	546.28
0.657978	549.712
0.76009	554.861
0.80471	557.435
0.85877	560.009
0.905964	561.725
0.950585	564.3
0.994347	569.448
