Adsorption isotherm of Carbon Dioxide on Crushed Luscar Coal
DOI: 10.1139/t09-057
Article source: Table 2
Adsorbate Carbon Dioxide: InChIKey CURLTUGMZLYLDI-UHFFFAOYSA-N
Kind: experiment
Temperature: 323 K
Tabular data in the source: 1
pressure (bar)	uptake (cm3(STP)/g)
1.5	0.786
2.5	3.876
5	10.009
10	20.491
20	31.586
40	38.292
