Adsorption isotherm of Carbon Dioxide on Luscar Coal
DOI: 10.1139/t09-057
Article source: Table 4
Adsorbate Carbon Dioxide: InChIKey CURLTUGMZLYLDI-UHFFFAOYSA-N
Kind: experiment
Temperature: 323 K
Tabular data in the source: 1
pressure (bar)	uptake (cm3(STP)/g)
1.5	0.39
5	5.16
10	16.91
20	36.36
40	43.58
