Adsorption isotherm of Carbon Dioxide on Crushed Luscar Coal
DOI: 10.1139/t09-057
Article source: Table 2
Adsorbate Carbon Dioxide: InChIKey CURLTUGMZLYLDI-UHFFFAOYSA-N
Kind: experiment
Temperature: 323 K
Tabular data in the source: 1
pressure (bar)	uptake (cm3(STP)/g)
1.5	0.489
2.5	4.85
5	10.401
10	20.914
20	35.057
40	40.688
