Adsorption isotherm of Carbon Dioxide on Luscar Coal
DOI: 10.1139/t09-057
Article source: Table 4
Adsorbate Carbon Dioxide: InChIKey CURLTUGMZLYLDI-UHFFFAOYSA-N
Kind: experiment
Temperature: 323 K
Tabular data in the source: 1
pressure (bar)	uptake (cm3(STP)/g)
1.5	0.33
2.5	1.28
5	4.68
10	15.03
20	42.73
40	48.9
