Adsorption isotherm of Nitrogen on BSP/JUC-120
DOI: 10.1039/C2jm34618d
Adsorbate Nitrogen: InChIKey IJGRMHOSHXDMSA-UHFFFAOYSA-N
Temperature: 77 K
Tabular data in the source: 0
pressure (bar)	uptake (cm3(STP)/g)
0.00227522	20.6452
0.00682567	36.129
0.0182018	46.4516
0.0295779	54.1935
0.0659815	67.0968
0.0910089	72.2581
0.113761	77.4194
0.129688	80
0.161541	82.5806
0.177467	83.871
0.211596	83.871
0.225247	85.1613
0.261651	85.1613
0.30488	83.871
0.36176	83.871
0.411815	85.1613
0.45732	85.1613
0.5142	85.1613
0.546053	85.1613
0.56198	83.871
0.589283	85.1613
0.618861	83.871
0.646163	82.5806
0.671191	83.871
0.693943	83.871
0.71442	85.1613
0.741723	82.5806
0.755374	83.871
0.76675	83.871
0.800878	82.5806
0.823631	83.871
0.841832	83.871
0.860034	83.871
0.885062	85.1613
0.910089	85.1613
0.932841	91.6129
0.957869	103.226
