Adsorption isotherm of Nitrogen on JUC-120
DOI: 10.1039/C2jm34618d
Adsorbate Nitrogen: InChIKey IJGRMHOSHXDMSA-UHFFFAOYSA-N
Temperature: 77 K
Tabular data in the source: 0
pressure (bar)	uptake (cm3(STP)/g)
0.00227522	140.645
0.00455044	125.161
0.00682567	189.677
0.00910089	209.032
0.0113761	232.258
0.020477	256.774
0.0295779	270.968
0.040954	289.032
0.0568806	314.839
0.0728071	325.161
0.0864585	336.774
0.0955593	345.806
0.109211	357.419
0.120587	365.161
0.141064	375.484
0.166091	385.806
0.186568	388.387
0.218421	392.258
0.259375	394.839
0.30943	396.129
0.36176	398.71
0.400439	400
0.430017	401.29
0.448219	402.581
0.473246	402.581
0.498274	403.871
0.525576	403.871
0.546053	406.452
0.571081	406.452
0.593833	405.161
0.618861	406.452
0.646163	406.452
0.659815	407.742
0.682567	409.032
0.707594	409.032
0.753099	410.323
0.780401	410.323
0.816805	410.323
0.850933	411.613
0.880511	412.903
0.903263	414.194
0.92374	419.355
0.939667	425.806
0.955593	436.129
