Adsorption isotherm of Carbon Dioxide on MIL-53(Al)
DOI: 10.1016/j.micromeso.2008.11.007
Adsorbate Carbon Dioxide: InChIKey CURLTUGMZLYLDI-UHFFFAOYSA-N
Temperature: 312 K
Tabular data in the source: 0
pressure (bar)	uptake (mmol/g)
1.01452	1.29779
2.18968	1.63245
3.20856	1.81729
3.973	1.88533
4.81548	2.05319
6.20626	2.40491
6.92959	2.95459
8.00671	3.28905
