Adsorption isotherm of Nitrogen on MIL-53(Al)
DOI: 10.1016/j.micromeso.2008.11.007
Adsorbate Nitrogen: InChIKey IJGRMHOSHXDMSA-UHFFFAOYSA-N
Temperature: 463 K
Tabular data in the source: 0
pressure (bar)	uptake (cm3(STP)/g)
-0.00313972	205.801
-0.00156986	265.193
0.00470958	285.912
0.0690738	291.436
0.141287	295.58
0.241758	296.961
0.379906	301.105
0.538462	303.867
0.700157	309.392
0.77865	309.392
0.866562	312.155
0.937206	314.917
1.00314	429.558
