Adsorption isotherm of Methane on MIL-53(Al)
DOI: 10.1016/j.micromeso.2008.11.007
Adsorbate Methane: InChIKey VNWKTOKETHGBQD-UHFFFAOYSA-N
Temperature: 312 K
Tabular data in the source: 0
pressure (bar)	uptake (mmol/g)
-0.00313972	15.1934
0.0502355	17.9558
0.0989011	20.7182
0.142857	20.7182
0.21821	23.4807
0.312402	23.4807
0.384615	22.0994
0.464678	23.4807
0.613815	27.6243
0.766091	31.768
0.907378	35.9116
0.968603	37.2928
0.99529	66.2983
0.99843	103.591
1	138.122
