Adsorption isotherm of Nitrogen on MIL-53(Al)
DOI: 10.1016/j.micromeso.2008.11.007
Adsorbate Nitrogen: InChIKey IJGRMHOSHXDMSA-UHFFFAOYSA-N
Temperature: 463 K
Tabular data in the source: 0
pressure (bar)	uptake (cm3(STP)/g)
-0.00156986	147.79
0.0204082	168.508
0.10832	179.558
0.156986	182.32
0.233909	183.702
0.287284	185.083
0.361068	189.227
0.508634	194.751
0.657771	201.657
0.808477	211.326
0.946625	218.232
0.992151	230.663
0.99529	265.193
0.99843	337.017
