Adsorption isotherm of Nitrogen on MIL-53(Al)
DOI: 10.1016/j.micromeso.2008.11.007
Adsorbate Nitrogen: InChIKey IJGRMHOSHXDMSA-UHFFFAOYSA-N
Temperature: 473 K
Tabular data in the source: 0
pressure (bar)	uptake (cm3(STP)/g)
-0.00313972	81.4917
0	37.2928
0.00313972	135.359
0.0423862	158.84
0.11146	162.983
0.188383	167.127
0.257457	167.127
0.309262	171.271
0.383046	171.271
0.530612	176.796
0.676609	183.702
0.822606	183.702
0.956044	193.37
0.993721	211.326
0.99686	317.68
