Adsorption isotherm of R-134A on Maxsorb III
DOI: 10.1080/01457631003603949
Article source: Figure 3
Adsorbate R-134A: InChIKey LVGUZGTVOIAKKC-UHFFFAOYSA-N
Kind: experiment
Temperature: 293 K
Tabular data in the source: 0
pressure (bar)	uptake (g/g)
0.502262	1.05909
0.828054	1.21281
1.14027	1.3704
1.52715	1.51634
1.91403	1.65843
2.3552	1.79659
2.79638	1.91548
3.31222	1.97262
3.8552	2.03358
4.45249	2.05594
5.01584	2.07448
