Adsorption isotherm of R-134A on Maxsorb III
DOI: 10.1080/01457631003603949
Article source: Figure 3
Adsorbate R-134A: InChIKey LVGUZGTVOIAKKC-UHFFFAOYSA-N
Kind: experiment
Temperature: 298 K
Tabular data in the source: 0
pressure (bar)	uptake (g/g)
0.549774	1.00893
0.828054	1.16657
1.19457	1.32795
1.58824	1.45461
1.99548	1.59281
2.44344	1.72326
2.90498	1.83442
3.40045	1.90315
3.95701	1.99106
4.56787	2.01725
5.15158	2.03963
