Adsorption isotherm of R-134A on Maxsorb III
DOI: 10.1080/01457631003603949
Article source: Figure 3
Adsorbate R-134A: InChIKey LVGUZGTVOIAKKC-UHFFFAOYSA-N
Kind: experiment
Temperature: 318 K
Tabular data in the source: 0
pressure (bar)	uptake (g/g)
0.71267	0.808333
1.03846	0.965911
1.43213	1.09643
1.8733	1.20761
2.33484	1.31107
2.81674	1.41449
3.33258	1.50632
3.87557	1.59425
4.46606	1.68598
5.10407	1.77379
5.72851	1.83465
