Adsorption isotherm of R-134A on Maxsorb III
DOI: 10.1080/01457631003603949
Article source: Figure 3
Adsorbate R-134A: InChIKey LVGUZGTVOIAKKC-UHFFFAOYSA-N
Kind: experiment
Temperature: 338 K
Tabular data in the source: 0
pressure (bar)	uptake (g/g)
0.88914	0.63855
1.24208	0.769117
1.66968	0.891882
2.1448	0.991465
2.64027	1.09102
3.17647	1.17511
3.73982	1.25146
4.3371	1.32776
4.97511	1.40401
5.66742	1.4879
6.35294	1.55253
