Adsorption isotherm of Methane on CuBTC
DOI: 10.1002/chem.200902719
Adsorbate Methane: InChIKey VNWKTOKETHGBQD-UHFFFAOYSA-N
Temperature: 313 K
Tabular data in the source: 0
pressure (bar)	uptake (mmol/g)
0.398653	0.282663
0.51945	0.373116
1.02684	0.723618
1.51015	0.994975
2.00554	1.27764
2.51302	1.5603
2.99635	1.82035
3.52804	2.0804
4.01138	2.32915
4.50686	2.54397
5.00232	2.7701
5.50991	2.97362
6.01747	3.19975
6.51296	3.40327
7.00846	3.60678
7.52813	3.8103
8.01155	4.00251
8.51915	4.19472
9.0026	4.36432
9.5102	4.55653
10.0178	4.73744
