Adsorption isotherm of Methane on CuBTC
DOI: 10.1002/chem.200902719
Adsorbate Methane: InChIKey VNWKTOKETHGBQD-UHFFFAOYSA-N
Temperature: 313 K
Tabular data in the source: 0
pressure (bar)	uptake (mmol/g)
0.616079	0.452261
0.785229	0.55402
0.954379	0.655779
1.06305	0.768844
1.26849	0.859296
1.43766	0.949749
1.58264	1.0402
1.67929	1.10804
1.78804	1.16457
1.8847	1.22111
1.98135	1.27764
2.07803	1.32286
2.17469	1.3794
2.28344	1.43593
2.39219	1.49246
2.58552	1.59422
2.69428	1.65075
2.80303	1.70729
2.8997	1.75251
3.09303	1.85427
3.20179	1.9108
3.31055	1.95603
3.4193	2.01256
3.5643	2.09171
3.68516	2.13693
3.79391	2.19347
3.90268	2.23869
4.09601	2.34045
4.20478	2.38568
4.59147	2.56658
4.70024	2.61181
4.80899	2.66834
4.91776	2.71357
5.24404	2.86055
5.35281	2.90578
5.59451	3.00754
5.70327	3.05276
5.81204	3.09799
5.92081	3.14322
6.07793	3.19975
6.17459	3.25628
6.28335	3.30151
6.40421	3.34673
6.59756	3.43719
6.70632	3.48241
6.81509	3.52764
6.93595	3.57286
7.0447	3.6294
7.17767	3.66332
7.28643	3.70854
7.3952	3.75377
7.58856	3.83291
7.69733	3.87814
7.8061	3.92337
8.16867	4.05905
8.27744	4.10427
8.39831	4.13819
8.59167	4.21734
8.70046	4.25126
8.82131	4.29648
8.93008	4.34171
9.09929	4.39824
9.20806	4.44347
9.32893	4.47739
9.57063	4.57915
9.67943	4.60176
9.80029	4.64698
9.90907	4.6809
