Adsorption isotherm of Methane on CuBTC
DOI: 10.1002/chem.200902719
Adsorbate Methane: InChIKey VNWKTOKETHGBQD-UHFFFAOYSA-N
Temperature: 298 K
Tabular data in the source: 0
pressure (bar)	uptake (mmol/g)
1.30436	1.16457
1.57002	1.43593
1.67884	1.43593
1.77549	1.50377
1.87213	1.57161
2.06541	1.71859
2.16206	1.77513
2.25871	1.84296
2.57282	2.04648
2.66947	2.11432
3.08024	2.37437
3.1769	2.4309
3.27355	2.49874
3.38228	2.56658
3.636	2.72487
3.76887	2.82663
3.87761	2.89447
4.22805	3.06407
4.32471	3.1206
4.43346	3.17714
4.57844	3.26759
4.68719	3.32412
4.78385	3.38065
4.8926	3.43719
5.07383	3.55025
5.18259	3.59548
5.27924	3.66332
5.38799	3.71985
5.53291	3.85553
5.62967	3.83291
5.72633	3.88945
5.83509	3.94598
5.94384	4.00251
6.08883	4.08166
6.19758	4.13819
6.30635	4.18342
6.40301	4.23995
6.58427	4.3304
6.69302	4.38693
6.80178	4.43216
6.89844	4.48869
7.0797	4.57915
7.18847	4.62437
7.29723	4.6696
7.40598	4.72613
7.57516	4.80528
7.68393	4.8505
7.79268	4.90704
7.90145	4.95226
8.0827	5.04271
8.19147	5.08794
8.409	5.17839
8.59026	5.26884
8.69903	5.31407
8.80779	5.3593
8.91656	5.40452
9.08576	5.47236
9.19452	5.51759
9.30329	5.56281
9.41205	5.60804
9.59333	5.68719
9.70209	5.73241
9.82297	5.76633
9.93173	5.81156
