Adsorption isotherm of Methane on CuBTC
DOI: 10.1002/chem.200902719
Adsorbate Methane: InChIKey VNWKTOKETHGBQD-UHFFFAOYSA-N
Temperature: 303 K
Tabular data in the source: 0
pressure (bar)	uptake (mmol/g)
1.24411	1.00628
1.34074	1.08543
1.66694	1.30025
1.8119	1.40201
1.94479	1.49246
2.10188	1.57161
2.22271	1.63945
2.31934	1.71859
2.57305	1.87688
2.66971	1.93342
3.08052	2.17085
3.17718	2.22739
3.28593	2.28392
3.38257	2.35176
3.5638	2.46482
3.66047	2.51005
3.76922	2.56658
3.86588	2.62312
4.08339	2.73618
4.18004	2.79271
4.2888	2.84925
4.39755	2.90578
4.57879	3.00754
4.68754	3.06407
4.79629	3.1206
4.89295	3.17714
5.07419	3.27889
5.18297	3.31281
5.27963	3.36935
5.3884	3.41457
5.59381	3.52764
5.70258	3.57286
5.81133	3.6294
5.92009	3.67462
6.10133	3.77638
6.2101	3.82161
6.31885	3.87814
6.42762	3.92337
6.58471	4.00251
6.69347	4.04774
6.80222	4.10427
6.91099	4.1495
7.08017	4.22864
7.18894	4.27387
7.2977	4.3191
7.40645	4.37563
7.67232	4.48869
7.78109	4.53392
7.88986	4.57915
8.27657	4.74874
8.38534	4.79397
8.5787	4.87312
8.68747	4.91834
8.79623	4.96357
8.91711	4.99749
9.07421	5.06533
9.20716	5.11055
9.40052	5.1897
9.60598	5.26884
9.76308	5.33668
9.94437	5.40452
