Adsorption isotherm of Methane on CuBTC
DOI: 10.1002/chem.200902719
Adsorbate Methane: InChIKey VNWKTOKETHGBQD-UHFFFAOYSA-N
Temperature: 288 K
Tabular data in the source: 0
pressure (bar)	uptake (mmol/g)
0.567362	0.712312
0.639868	0.746231
0.72439	0.836683
0.808927	0.915829
0.893449	1.00628
1.07458	1.18719
1.15914	1.25503
1.25575	1.34548
1.34029	1.42462
1.42482	1.50377
1.58184	1.63945
1.66639	1.70729
1.76302	1.78643
1.84757	1.85427
1.9442	1.93342
2.07704	2.05779
2.17369	2.12563
2.25824	2.19347
2.35487	2.27261
2.43942	2.34045
2.57229	2.44221
2.66894	2.51005
2.76558	2.57789
2.85012	2.65704
2.94676	2.72487
3.07964	2.82663
3.17628	2.89447
3.27292	2.96231
3.36957	3.03015
3.46621	3.09799
3.57492	3.18844
3.67158	3.24497
3.76822	3.31281
3.86487	3.38065
4.08231	3.53894
4.17897	3.59548
4.27561	3.66332
4.37225	3.73116
4.57762	3.87814
4.67428	3.93467
4.78301	4.00251
4.87966	4.07035
5.08504	4.20603
5.1817	4.26256
5.27834	4.3304
5.38709	4.38693
5.5804	4.51131
5.67706	4.56784
5.78579	4.63568
5.88244	4.70352
6.08783	4.82789
6.19658	4.88442
6.29324	4.94095
6.40199	4.99749
6.57114	5.09925
6.67989	5.15578
6.77655	5.21231
6.8853	5.26884
7.07862	5.38191
7.18737	5.43844
7.28403	5.49497
7.39278	5.55151
7.57404	5.64196
7.68279	5.69849
7.79156	5.74372
7.90031	5.80025
8.08155	5.90201
8.19032	5.94724
8.28698	6.00377
8.39573	6.0603
8.70992	6.20729
8.81869	6.25251
8.92744	6.30905
9.08454	6.37688
9.19331	6.42211
9.26581	6.45603
9.37458	6.50126
9.58002	6.59171
9.68879	6.63693
9.79755	6.68216
9.90632	6.72739
