Adsorption isotherm of Methane on CuBTC
DOI: 10.1002/chem.200902719
Adsorbate Methane: InChIKey VNWKTOKETHGBQD-UHFFFAOYSA-N
Temperature: 288 K
Tabular data in the source: 0
pressure (bar)	uptake (mmol/g)
0.507024	0.621859
1.0142	1.13065
1.50936	1.58291
2.00454	2.02387
2.52397	2.40829
3.00713	2.79271
3.52661	3.14322
3.98563	3.49372
4.51721	3.84422
4.98835	4.17211
5.50787	4.48869
6.01535	4.77136
6.49862	5.07663
7.00609	5.3706
7.51363	5.60804
7.99695	5.86809
8.50449	6.10553
9.01203	6.34296
9.51959	6.5691
10.0151	6.78392
