Adsorption isotherm of Methane on CuBTC
DOI: 10.1002/chem.200902719
Adsorbate Methane: InChIKey VNWKTOKETHGBQD-UHFFFAOYSA-N
Temperature: 283 K
Tabular data in the source: 0
pressure (bar)	uptake (mmol/g)
0.579363	0.780151
0.663915	0.84799
0.748437	0.938442
0.820882	1.01759
0.893312	1.10804
1.07443	1.30025
1.15897	1.3794
1.24349	1.46985
1.31594	1.54899
1.40047	1.62814
1.56953	1.79774
1.65407	1.87688
1.7507	1.95603
1.83523	2.03518
1.91977	2.11432
2.07678	2.25
2.16132	2.32915
2.25795	2.40829
2.34249	2.48744
2.42704	2.55528
2.58405	2.69095
2.6686	2.75879
2.76523	2.83794
2.84977	2.91709
2.9464	2.99623
3.07927	3.09799
3.16382	3.16583
3.26045	3.24497
3.345	3.31281
3.44163	3.39196
3.57451	3.49372
3.67115	3.56156
3.76778	3.6407
3.85233	3.70854
3.94898	3.77638
4.08185	3.87814
4.1785	3.94598
4.27514	4.01382
4.37177	4.09296
4.57713	4.23995
4.67378	4.30779
4.77042	4.37563
4.85497	4.44347
5.08451	4.60176
5.18115	4.6696
5.27779	4.73744
5.37444	4.80528
5.57982	4.94095
5.67648	4.99749
5.78521	5.06533
5.88187	5.12186
6.08725	5.25754
6.1839	5.32538
6.28056	5.38191
6.38929	5.44975
6.5826	5.57412
6.67925	5.63065
6.78801	5.68719
6.88465	5.75503
7.07798	5.85678
7.17464	5.91332
7.28339	5.96985
7.39213	6.03769
7.57337	6.13945
7.68212	6.19598
7.79089	6.24121
7.88755	6.29774
8.08088	6.3995
8.18963	6.45603
8.28629	6.51256
8.39504	6.5691
8.5763	6.65955
8.68507	6.70477
8.79383	6.75
8.90258	6.80653
9.09593	6.89698
9.2047	6.94221
9.31345	6.99874
9.42222	7.04397
9.5914	7.12312
9.70016	7.16834
9.80893	7.21357
9.91768	7.2701
