Adsorption isotherm of Methane on CuBTC
DOI: 10.1002/chem.200902719
Adsorbate Methane: InChIKey VNWKTOKETHGBQD-UHFFFAOYSA-N
Temperature: 283 K
Tabular data in the source: 0
pressure (bar)	uptake (mmol/g)
0.434579	0.542714
0.519025	0.689698
1.00197	1.23241
1.50915	1.74121
2.01638	2.20477
2.52365	2.64573
3.00677	3.06407
3.51409	3.4598
4.00935	3.84422
4.51672	4.20603
5.012	4.56784
5.51942	4.89573
6.01476	5.21231
6.51012	5.51759
7.01757	5.82286
7.51296	6.10553
8.00836	6.37688
8.50379	6.62563
8.99924	6.86307
9.54304	7.11181
10.0143	7.32663
