Adsorption isotherm of Methane on CuBTC
DOI: 10.1002/chem.200902719
Adsorbate Methane: InChIKey VNWKTOKETHGBQD-UHFFFAOYSA-N
Temperature: 278 K
Tabular data in the source: 0
pressure (bar)	uptake (mmol/g)
0.33792	0.486181
0.518888	0.791457
1.01385	1.3907
1.52098	1.93342
2.01605	2.45352
2.52329	2.91709
2.99426	3.36935
3.51361	3.82161
4.00881	4.23995
4.51616	4.62437
4.99932	5.00879
5.50669	5.3706
5.98993	5.69849
6.48522	6.04899
6.99266	6.36558
7.48803	6.65955
7.99554	6.9196
8.50305	7.17965
8.99848	7.42839
9.51812	7.66583
10.0257	7.89196
