Adsorption isotherm of Methane on CuBTC
DOI: 10.1002/chem.200902719
Adsorbate Methane: InChIKey VNWKTOKETHGBQD-UHFFFAOYSA-N
Temperature: 273 K
Tabular data in the source: 0
pressure (bar)	uptake (mmol/g)
0.567043	0.949749
0.639473	1.0402
0.711903	1.13065
0.784333	1.22111
0.844671	1.31156
0.917085	1.41332
1.07401	1.61683
1.14644	1.70729
1.23097	1.78643
1.3034	1.87688
1.37583	1.96734
1.44826	2.05779
1.58108	2.20477
1.65351	2.29523
1.73804	2.37437
1.81047	2.46482
1.89499	2.55528
1.96742	2.64573
2.0761	2.75879
2.16064	2.83794
2.23307	2.92839
2.3176	3.00754
2.39003	3.09799
2.57115	3.2902
2.65569	3.36935
2.74021	3.4598
2.81266	3.53894
2.89719	3.61809
3.07831	3.8103
3.16285	3.88945
3.24739	3.96859
3.33193	4.04774
3.41645	4.13819
3.56137	4.27387
3.6459	4.35302
3.73044	4.43216
3.81498	4.51131
3.89952	4.59045
4.06859	4.74874
4.15314	4.81658
4.24976	4.90704
4.33431	4.97487
4.41884	5.05402
4.56378	5.17839
4.64833	5.24623
4.74496	5.32538
4.82951	5.39322
4.92614	5.47236
5.07109	5.58543
5.15565	5.65327
5.25227	5.73241
5.34892	5.80025
5.43347	5.86809
5.56634	5.96985
5.66299	6.03769
5.75963	6.10553
5.85628	6.17337
6.08583	6.32035
6.18247	6.38819
6.27911	6.45603
6.37576	6.52387
6.58114	6.65955
6.67778	6.72739
6.77443	6.79523
6.87107	6.86307
7.07646	6.98744
7.17311	7.05528
7.26977	7.11181
7.3785	7.17965
