Adsorption isotherm of Methane on CuBTC
DOI: 10.1002/chem.200902719
Adsorbate Methane: InChIKey VNWKTOKETHGBQD-UHFFFAOYSA-N
Temperature: 308 K
Tabular data in the source: 0
pressure (bar)	uptake (mmol/g)
1.26837	0.949749
1.35297	0.983668
1.70333	1.2098
1.81207	1.27764
1.90873	1.33417
2.07788	1.43593
2.17454	1.49246
2.28329	1.54899
2.37996	1.59422
2.56117	1.71859
2.74243	1.80905
2.83907	1.87688
2.91155	1.93342
3.09282	2.01256
3.20157	2.0691
3.31032	2.12563
3.407	2.17085
3.58824	2.27261
3.69699	2.32915
3.80574	2.38568
3.9024	2.44221
4.08366	2.53266
4.19241	2.5892
4.30118	2.63442
4.39784	2.69095
4.59118	2.78141
4.69994	2.83794
4.8087	2.88317
4.90536	2.9397
5.08663	3.01884
5.19538	3.07538
5.30415	3.1206
5.4129	3.17714
5.58208	3.25628
5.69085	3.30151
5.7996	3.35804
5.90837	3.40327
6.08962	3.49372
6.19839	3.53894
6.30716	3.58417
6.5851	3.70854
6.69387	3.75377
6.79054	3.79899
6.89931	3.84422
7.14101	3.94598
7.24978	3.99121
7.35854	4.03643
7.58817	4.12688
7.69693	4.17211
7.8057	4.21734
7.91447	4.26256
8.09575	4.3304
8.20452	4.37563
8.31329	4.42085
8.43414	4.46608
8.61542	4.54523
8.76044	4.60176
8.86921	4.64698
9.07467	4.72613
9.18345	4.76005
9.30431	4.80528
9.41309	4.8392
9.60645	4.91834
9.75148	4.97487
9.9086	5.03141
