Adsorption isotherm of Methane on CuBTC
DOI: 10.1002/chem.200902719
Adsorbate Methane: InChIKey VNWKTOKETHGBQD-UHFFFAOYSA-N
Temperature: 293 K
Tabular data in the source: 0
pressure (bar)	uptake (mmol/g)
1.0868	1.09673
1.25592	1.22111
1.4129	1.3794
1.56993	1.50377
1.66657	1.57161
1.75112	1.63945
1.84775	1.71859
1.9444	1.78643
2.07727	1.88819
2.17391	1.95603
2.25847	2.02387
2.35511	2.09171
2.57255	2.25
2.6692	2.31784
2.76584	2.38568
2.8625	2.44221
3.07996	2.5892
3.1766	2.65704
3.27324	2.72487
3.36989	2.79271
3.57528	2.91709
3.67193	2.98492
3.76859	3.04146
3.87732	3.1093
4.09479	3.24497
4.19144	3.31281
4.30019	3.36935
4.39685	3.42588
4.59015	3.55025
4.6868	3.61809
4.78345	3.67462
4.89219	3.74246
5.08551	3.85553
5.18217	3.91206
5.29092	3.96859
5.38756	4.03643
5.59299	4.13819
5.68965	4.19472
5.79838	4.26256
5.90714	4.3191
6.08838	4.42085
6.19713	4.47739
6.29379	4.53392
6.40254	4.59045
6.58378	4.69221
6.69253	4.74874
6.78919	4.80528
6.89794	4.86181
7.09129	4.95226
7.20004	5.00879
7.30881	5.05402
7.41756	5.11055
7.58672	5.20101
7.69548	5.25754
7.80424	5.30276
7.9009	5.3593
8.11843	5.44975
8.23925	5.52889
8.36009	5.58543
8.57762	5.67588
8.68639	5.72111
8.79514	5.77764
8.90391	5.82286
9.08518	5.90201
9.19394	5.94724
9.30271	5.99246
9.41148	6.03769
9.58066	6.11683
9.68942	6.16206
9.79819	6.20729
9.93116	6.24121
