Adsorption isotherm of Methane on CuBTC
DOI: 10.1002/chem.200902719
Adsorbate Methane: InChIKey VNWKTOKETHGBQD-UHFFFAOYSA-N
Temperature: 278 K
Tabular data in the source: 0
pressure (bar)	uptake (mmol/g)
0.579241	0.870603
0.663778	0.949749
0.736208	1.0402
0.808638	1.13065
0.881068	1.22111
0.953498	1.31156
1.07422	1.45854
1.15876	1.53769
1.23119	1.62814
1.31571	1.71859
1.38815	1.79774
1.56927	1.98995
1.65381	2.0691
1.73833	2.15955
1.81078	2.23869
1.89531	2.31784
2.07645	2.49874
2.16099	2.57789
2.24552	2.65704
2.33006	2.73618
2.4146	2.81533
2.58367	2.97362
2.66822	3.04146
2.76484	3.13191
2.84937	3.21106
2.93391	3.2902
3.07885	3.41457
3.1634	3.48241
3.26001	3.57286
3.34456	3.6407
3.44119	3.71985
3.58613	3.84422
3.67068	3.91206
3.76731	3.99121
3.85185	4.07035
3.94848	4.1495
4.09343	4.26256
4.17796	4.34171
4.27461	4.40955
4.35914	4.48869
4.45579	4.55653
4.58865	4.6696
4.68529	4.73744
4.78194	4.80528
4.86647	4.88442
5.08391	5.04271
5.18056	5.11055
5.26511	5.17839
5.36174	5.25754
5.45838	5.32538
5.57918	5.41583
5.67582	5.48367
5.77247	5.55151
5.86911	5.61935
6.07449	5.75503
6.17114	5.82286
6.26778	5.8907
6.36444	5.94724
6.58191	6.08291
6.67856	6.15075
6.7752	6.21859
6.87184	6.28643
7.06516	6.3995
7.16182	6.45603
7.27057	6.51256
7.36722	6.5804
7.46388	6.63693
7.57264	6.68216
7.6693	6.73869
7.77805	6.79523
7.8868	6.85176
8.08014	6.95352
8.18889	7.01005
8.28555	7.06658
8.3943	7.12312
8.58763	7.22487
8.6964	7.2701
8.80515	7.32663
8.91392	7.37186
