Adsorption isotherm of Methane on CuBTC
DOI: 10.1002/chem.200902719
Adsorbate Methane: InChIKey VNWKTOKETHGBQD-UHFFFAOYSA-N
Temperature: 293 K
Tabular data in the source: 0
pressure (bar)	uptake (mmol/g)
1.00223	1.0402
1.50954	1.44724
1.99267	1.85427
2.51217	2.19347
3.01956	2.54397
3.51488	2.87186
4.01021	3.19975
4.51765	3.51633
5.01299	3.83291
5.4963	4.10427
6.01586	4.39824
6.51127	4.65829
7.00669	4.91834
7.5142	5.17839
8.00965	5.41583
8.50512	5.64196
9.01267	5.86809
9.50817	6.07161
10.0157	6.28643
