Adsorption isotherm of Methane on CuBTC
DOI: 10.1002/chem.200902719
Adsorbate Methane: InChIKey VNWKTOKETHGBQD-UHFFFAOYSA-N
Temperature: 273 K
Tabular data in the source: 0
pressure (bar)	uptake (mmol/g)
0.301538	0.565327
0.422214	0.746231
0.530828	0.904523
1.02573	1.54899
1.5086	2.14824
2.01569	2.72487
2.51077	3.23367
2.99373	3.76508
3.48888	4.22864
3.99613	4.6809
4.50338	5.13317
4.9986	5.5402
5.50595	5.92462
6.00121	6.29774
6.49652	6.63693
7.02817	6.9309
7.48724	7.24749
7.49929	7.28141
8.0068	7.54146
8.0189	7.53015
8.51429	7.81281
9.02182	8.06156
9.51728	8.28769
10.0248	8.52513
