Adsorption isotherm of Methane on CuBTC
DOI: 10.1002/chem.200902719
Adsorbate Methane: InChIKey VNWKTOKETHGBQD-UHFFFAOYSA-N
Temperature: 303 K
Tabular data in the source: 0
pressure (bar)	uptake (mmol/g)
0.785062	0.678392
0.966213	0.84799
1.40114	1.13065
1.60655	1.24372
1.99311	1.52638
2.4039	1.77513
2.51267	1.82035
2.80262	2.01256
3.00801	2.13693
3.51549	2.4196
4.02299	2.69095
4.51839	2.96231
5.0259	3.22236
5.50921	3.49372
6.01675	3.73116
6.50011	3.96859
6.99559	4.18342
7.51522	4.42085
8.0107	4.63568
8.5183	4.82789
9.00169	5.04271
9.52137	5.24623
10.0169	5.41583
