Adsorption isotherm of Methane on CuBTC
DOI: 10.1002/chem.200902719
Adsorbate Methane: InChIKey VNWKTOKETHGBQD-UHFFFAOYSA-N
Temperature: 308 K
Tabular data in the source: 0
pressure (bar)	uptake (mmol/g)
0.700571	0.565327
0.797169	0.667085
0.893843	0.712312
0.990503	0.768844
1.09924	0.836683
1.19585	0.927136
1.38919	1.02889
1.51001	1.09673
1.60666	1.16457
2.01746	1.40201
2.40409	1.63945
2.50076	1.68467
2.80284	1.84296
3.00819	2.00126
3.50364	2.23869
4.98993	2.99623
5.50956	3.23367
6.02922	3.44849
6.5126	3.67462
6.99597	3.90075
7.51566	4.09296
7.99906	4.29648
8.50664	4.51131
9.00216	4.69221
9.53395	4.88442
10.0174	5.06533
