Adsorption isotherm of Hydrogen on CAU-1
DOI: 10.1039/c1ee01380g
Adsorbate Hydrogen: InChIKey UFHFLCQGNIYNRP-UHFFFAOYSA-N
Temperature: 77 K
Tabular data in the source: 0
pressure (bar)	uptake (wt%)
0.00793979	0.230453
0.026466	0.337449
0.052932	0.510288
0.0899843	0.674897
0.113804	0.781893
0.169382	0.962963
0.185262	1.02058
0.24878	1.17695
0.328178	1.33333
0.378463	1.42387
0.494914	1.60494
0.659003	1.76955
0.823092	1.90947
0.984534	2.02469
