Adsorption isotherm of Carbon Dioxide on CAU-1
DOI: 10.1039/c1ee01380g
Adsorbate Carbon Dioxide: InChIKey CURLTUGMZLYLDI-UHFFFAOYSA-N
Temperature: 323 K
Tabular data in the source: 0
pressure (bar)	uptake (mmol/g)
0.0236434	9.09091
0.0551679	21.2121
0.0814383	30.303
0.131352	45.4545
0.183893	60.6061
0.472868	127.273
0.525408	139.394
0.63049	157.576
0.730318	178.788
0.832772	196.97
0.88794	209.091
0.987768	227.273
