Adsorption isotherm of Carbon Dioxide on CAU-1
DOI: 10.1039/c1ee01380g
Adsorbate Carbon Dioxide: InChIKey CURLTUGMZLYLDI-UHFFFAOYSA-N
Temperature: 273 K
Tabular data in the source: 0
pressure (bar)	uptake (mmol/g)
0.00525408	18.1818
0.0105082	36.3636
0.0262704	72.7273
0.0577949	115.152
0.0788113	145.455
0.133979	196.97
0.183893	242.424
0.365159	378.788
0.522781	478.788
0.677777	569.697
0.732945	600
0.777604	624.242
0.882686	672.727
0.937854	700
1.03768	748.485
