Adsorption isotherm of Hydrogen on CAU-1
DOI: 10.1039/c1ee01380g
Adsorbate Hydrogen: InChIKey UFHFLCQGNIYNRP-UHFFFAOYSA-N
Temperature: 87 K
Tabular data in the source: 0
pressure (bar)	uptake (wt%)
0.00793979	0.090535
0.0317592	0.148148
0.0899843	0.304527
0.174675	0.493827
0.251427	0.625514
0.330825	0.748971
0.492267	0.954733
0.661649	1.11934
0.823092	1.25926
0.981888	1.36626
