Adsorption isotherm of Nitrogen on CAU-1
DOI: 10.1039/c1ee01380g
Adsorbate Nitrogen: InChIKey IJGRMHOSHXDMSA-UHFFFAOYSA-N
Temperature: 273 K
Tabular data in the source: 0
pressure (bar)	uptake (mmol/g)
0.0231524	0.0443315
0.0462931	0.0438453
0.0799522	0.0431381
0.130447	0.0644862
0.155691	0.0639558
0.183045	0.0857901
0.210393	0.0852155
0.363974	0.126807
0.469171	0.169414
0.519666	0.190762
0.574367	0.212022
0.677454	0.232265
0.727949	0.253613
0.780547	0.274917
0.883634	0.29516
0.938336	0.31642
0.990934	0.337724
1.03933	0.359116
