Adsorption isotherm of Carbon Dioxide on CAU-1
DOI: 10.1039/c1ee01380g
Adsorbate Carbon Dioxide: InChIKey CURLTUGMZLYLDI-UHFFFAOYSA-N
Temperature: 298 K
Tabular data in the source: 0
pressure (bar)	uptake (mmol/g)
0.0288975	24.2424
0.0551679	48.4848
0.0788113	66.6667
0.131352	96.9697
0.183893	121.212
0.367786	196.97
0.619982	278.788
0.832772	348.485
0.882686	360.606
0.985141	384.848
1.03243	400
