Adsorption isotherm of Hydrogen on CAU-1
DOI: 10.1039/c1ee01380g
Adsorbate Hydrogen: InChIKey UFHFLCQGNIYNRP-UHFFFAOYSA-N
Temperature: 77 K
Tabular data in the source: 0
pressure (bar)	uptake (wt%)
0.386635	1.50788
1.41841	2.4709
2.9201	2.98178
4.54094	3.24916
6.04682	3.4353
7.43772	3.54021
9.17683	3.63366
10.5682	3.70377
12.0177	3.76232
13.4675	3.79766
14.801	3.85616
17.237	3.89189
19.3249	3.92748
21.065	3.93974
22.6312	3.95193
24.4873	3.96424
25.9374	3.97639
27.4457	3.97697
28.8958	3.98912
30.2879	4.00125
