Adsorption isotherm of Nitrogen on CAU-1
DOI: 10.1039/c1ee01380g
Adsorbate Nitrogen: InChIKey IJGRMHOSHXDMSA-UHFFFAOYSA-N
Temperature: 77 K
Tabular data in the source: 0
pressure (bar)	uptake (cm3(STP)/g)
0.00274593	315.966
0.0109837	363.025
0.0247134	379.832
0.0631565	396.639
0.0878699	400
0.115329	406.723
0.167502	413.445
0.214183	416.807
0.266356	423.529
0.315783	426.891
0.365209	430.252
0.417382	433.613
0.466809	436.975
0.518982	440.336
0.568409	443.697
0.617835	447.059
0.670008	450.42
0.722181	453.782
0.771608	457.143
0.821035	460.504
0.873207	463.866
0.906159	470.588
0.930872	477.311
0.958331	484.034
0.980299	500.84
0.994028	517.647
0.996774	547.899
