Adsorption isotherm of Methane on CAU-1
DOI: 10.1039/c1ee01380g
Adsorbate Methane: InChIKey VNWKTOKETHGBQD-UHFFFAOYSA-N
Temperature: 273 K
Tabular data in the source: 0
pressure (bar)	uptake (mmol/g)
0.0505122	0.0885746
0.0757684	0.132862
0.130488	0.221348
0.180988	0.265105
0.20625	0.331801
0.260958	0.37547
0.313574	0.464
0.364081	0.530166
0.418794	0.596243
0.469301	0.662409
0.521911	0.72853
0.574521	0.794652
0.627131	0.860773
0.677637	0.926939
0.730247	0.993061
0.833364	1.12535
0.888071	1.16902
0.938578	1.23518
0.995389	1.27881
1.03748	1.34515
