Adsorption isotherm of Carbon Dioxide on CAU-1
DOI: 10.1039/c1ee01380g
Adsorbate Carbon Dioxide: InChIKey CURLTUGMZLYLDI-UHFFFAOYSA-N
Temperature: 273 K
Tabular data in the source: 0
pressure (bar)	uptake (mmol/g)
0.00851495	0.380773
0.0233351	0.739006
0.0528988	1.16415
0.0761101	1.43257
0.130948	1.96924
0.183664	2.43872
0.208961	2.63987
0.26166	3.04212
0.364941	3.80186
0.470314	4.51673
0.522989	4.82935
0.628333	5.43218
0.731567	6.01264
0.83479	6.54829
0.885337	6.77131
0.990646	7.23969
