Adsorption isotherm of Hydrogen on CAU-1
DOI: 10.1039/c1ee01380g
Adsorbate Hydrogen: InChIKey UFHFLCQGNIYNRP-UHFFFAOYSA-N
Temperature: 110 K
Tabular data in the source: 0
pressure (bar)	uptake (wt%)
0.688946	0.556964
1.55387	0.963222
3.40317	1.50903
5.25546	1.82288
6.93476	2.05548
8.55725	2.19528
10.5278	2.3352
12.0927	2.44018
13.658	2.52196
15.2235	2.58055
17.8908	2.67435
20.2106	2.72163
22.1825	2.75717
25.8361	2.83975
27.7501	2.86368
29.4901	2.88754
