Adsorption isotherm of Nitrogen on Cosalen@MIL-100(Cr)
DOI: 10.1016/S2095-4956(14)60178-9
Adsorbate Nitrogen: InChIKey IJGRMHOSHXDMSA-UHFFFAOYSA-N
Temperature: 77 K
Tabular data in the source: 0
pressure (bar)	uptake (cm3(STP)/g)
-0.00217343	-0.00223714
0.00217343	77.0492
0.0086937	121.311
0.0173874	134.426
0.0217343	140.984
0.0369482	155.738
0.0456419	165.574
0.0586824	172.131
0.0695496	178.689
0.0782432	181.967
0.0912837	188.525
0.0978039	191.803
0.149966	201.639
0.173874	204.918
0.202129	208.197
0.230382	211.475
0.252117	211.475
0.299933	214.754
0.347748	219.672
0.395563	224.59
0.443378	226.23
0.491194	229.508
0.541182	232.787
0.586824	236.066
0.638986	239.344
0.688975	242.623
0.734617	245.902
0.782432	249.18
0.832421	254.098
0.880236	259.016
0.919358	267.213
0.949786	280.328
0.965	301.639
