Adsorption isotherm of Nitrogen on MIL-100(Cr)
DOI: 10.1016/S2095-4956(14)60178-9
Adsorbate Nitrogen: InChIKey IJGRMHOSHXDMSA-UHFFFAOYSA-N
Temperature: 77 K
Tabular data in the source: 0
pressure (bar)	uptake (cm3(STP)/g)
0.143446	342.623
0.169527	344.262
0.193434	349.18
0.228209	354.098
0.24125	355.738
0.291238	362.295
0.334707	363.934
0.384696	368.852
0.434684	373.77
0.480326	378.689
0.530315	378.689
0.57813	383.607
0.623772	386.885
0.673761	390.164
0.723749	391.803
0.775912	396.721
0.821554	401.639
0.871543	408.197
0.923705	422.951
0.951959	454.098
