Adsorption isotherm of Nitrogen on MIL-100(Cr)
DOI: 10.1016/S2095-4956(14)60178-9
Adsorbate Nitrogen: InChIKey IJGRMHOSHXDMSA-UHFFFAOYSA-N
Temperature: 77 K
Tabular data in the source: 0
pressure (bar)	uptake (cm3(STP)/g)
-0.00217343	73.7705
0.00217343	142.623
0.00434684	98.3607
0.00652027	208.197
0.0108671	219.672
0.0217343	239.344
0.0326013	254.098
0.0391217	265.574
0.0521622	280.328
0.0565089	290.164
0.0652027	293.443
0.0804166	303.279
0.0891103	306.557
0.0956306	311.475
0.147792	337.705
0.171701	340.984
0.197781	347.541
0.228209	352.459
0.245596	352.459
0.293412	357.377
0.345575	363.934
0.389042	367.213
0.441205	368.852
0.493367	372.131
0.541182	373.77
0.591171	377.049
0.638986	381.967
0.682455	383.607
0.73679	385.246
0.782432	390.164
0.832421	395.082
0.875889	401.639
0.928051	413.115
0.945439	432.787
0.962826	455.738
