Adsorption isotherm of Nitrogen on Cosalen@MIL-100(Cr)
DOI: 10.1016/S2095-4956(14)60178-9
Adsorbate Nitrogen: InChIKey IJGRMHOSHXDMSA-UHFFFAOYSA-N
Temperature: 77 K
Tabular data in the source: 0
pressure (bar)	uptake (cm3(STP)/g)
0.0499887	170.492
0.0956306	195.082
0.143446	203.279
0.189088	211.475
0.236903	216.393
0.286892	221.311
0.332534	224.59
0.382522	227.869
0.428164	231.148
0.47598	232.787
0.528142	236.066
0.57161	239.344
0.625945	240.984
0.671587	245.902
0.723749	249.18
0.775912	252.459
0.81938	255.738
0.86937	262.295
0.923705	272.131
0.947612	288.525
0.965	301.639
