Adsorption isotherm of Carbon Dioxide on FCNF
DOI: 10.1039/C2cc16877d
Adsorbate Carbon Dioxide: InChIKey CURLTUGMZLYLDI-UHFFFAOYSA-N
Temperature: 298 K
Tabular data in the source: 0
pressure (bar)	uptake (mmol/g)
0.0254553	0.0465053
0.0738205	0.103177
0.114549	0.144339
0.155278	0.20628
0.206188	0.257732
0.254553	0.298819
0.297828	0.319177
0.323283	0.344903
0.369102	0.38082
0.425104	0.421833
0.506561	0.478182
0.539653	0.503834
0.595655	0.534457
0.651657	0.559886
0.692385	0.575074
0.740751	0.605771
0.796752	0.62081
0.845117	0.641118
0.918938	0.661178
0.985122	0.686508
1.0564	0.701398
