Adsorption isotherm of Hydrogen on C48H55N4O19Zn3@FCNF
DOI: 10.1039/C2cc16877d
Adsorbate Hydrogen: InChIKey UFHFLCQGNIYNRP-UHFFFAOYSA-N
Temperature: 77 K
Tabular data in the source: 0
pressure (bar)	uptake (wt%)
0.00475059	0.0481452
0.0380048	0.150034
0.0783848	0.243404
0.0950119	0.280184
0.135392	0.353724
0.168646	0.410287
0.2019	0.458352
0.251781	0.526199
0.327791	0.602471
0.351544	0.630732
0.422803	0.687188
0.475059	0.715368
0.508314	0.732271
0.551069	0.749147
0.598575	0.768843
0.646081	0.785705
0.726841	0.808139
0.748219	0.810912
0.826603	0.83052
0.859857	0.833258
0.897862	0.844482
0.950119	0.85
0.992874	0.855544
