Adsorption isotherm of Nitrogen on CNF
DOI: 10.1039/C2cc16877d
Adsorbate Nitrogen: InChIKey IJGRMHOSHXDMSA-UHFFFAOYSA-N
Temperature: 77 K
Tabular data in the source: 0
pressure (bar)	uptake (cm3(STP)/g)
0.0103986	0.997056
0.0225303	2.49293
0.0433276	3.82176
0.0623917	4.98442
0.102253	6.14534
0.147314	6.72372
0.187175	7.05304
0.216638	7.13375
0.240901	7.46437
0.259965	7.46279
0.289428	7.70982
0.327556	7.87297
0.350087	7.95425
0.37435	8.11856
0.400347	8.36588
0.428076	8.52989
0.457539	8.77692
0.493934	8.94021
0.528596	9.26997
0.566724	9.43312
0.594454	9.76345
0.615251	9.67857
0.646447	10.0918
0.682842	10.4214
0.719237	10.6678
0.760832	11.0802
0.792028	11.4102
0.823224	11.9066
0.854419	12.403
0.89948	13.0645
0.925477	13.8108
0.958406	15.2218
0.961872	15.0551
0.979203	16.1348
