Adsorption isotherm of Hydrogen on FCNF
DOI: 10.1039/C2cc16877d
Adsorbate Hydrogen: InChIKey UFHFLCQGNIYNRP-UHFFFAOYSA-N
Temperature: 77 K
Tabular data in the source: 0
pressure (bar)	uptake (wt%)
0.0308789	0.0225754
0.064133	0.0394784
0.104513	0.0620269
0.142518	0.087415
0.190024	0.112776
0.232779	0.126819
0.304038	0.157779
0.351544	0.174642
0.394299	0.19435
0.43943	0.199888
0.475059	0.211119
0.553444	0.222228
0.648456	0.241789
0.700713	0.247307
0.731591	0.250052
0.80285	0.255516
0.840855	0.263907
0.926366	0.260832
0.95962	0.266403
