Adsorption isotherm of Nitrogen on C48H55N4O19Zn3
DOI: 10.1039/C2cc16877d
Adsorbate Nitrogen: InChIKey IJGRMHOSHXDMSA-UHFFFAOYSA-N
Temperature: 77 K
Tabular data in the source: 0
pressure (bar)	uptake (cm3(STP)/g)
0.0259965	3.49056
0.0450607	5.7343
0.0641248	7.06327
0.0883882	8.47498
0.109185	9.47117
0.133449	10.0513
0.168111	10.7968
0.192374	11.0443
0.242634	12.038
0.265165	12.2025
0.291161	12.6161
0.329289	12.9456
0.353553	13.2762
0.388215	13.606
0.428076	14.1016
0.467938	14.2646
0.511265	14.8431
0.570191	15.5867
0.596187	16.2498
0.632582	17.0784
0.656846	17.409
0.677643	17.7399
0.710572	17.9035
0.750433	18.7318
0.774697	19.0624
0.79896	19.2267
0.835355	19.7226
0.840555	19.8885
0.890815	20.4665
0.897747	20.549
0.92201	21.4618
0.923744	21.7111
0.939341	23.0404
0.958406	24.8683
0.975737	27.4448
0.986135	30.1883
