Adsorption isotherm of Carbon Dioxide on C48H55N4O19Zn3
DOI: 10.1039/C2cc16877d
Adsorbate Carbon Dioxide: InChIKey CURLTUGMZLYLDI-UHFFFAOYSA-N
Temperature: 298 K
Tabular data in the source: 0
pressure (bar)	uptake (mmol/g)
0.0280009	0.0828441
0.0687294	0.238292
0.0890937	0.316015
0.134913	0.440244
0.178187	0.559303
0.221461	0.641999
0.267281	0.71428
0.305464	0.755466
0.348738	0.801798
0.392012	0.83774
0.440377	0.873632
0.481106	0.909599
0.516743	0.945616
0.562563	0.976338
0.613474	1.00701
0.694931	1.05817
0.781479	1.10927
0.806934	1.11422
0.862936	1.13445
0.890937	1.13937
0.977485	1.1645
1.01567	1.17972
1.05894	1.18968
