Adsorption isotherm of Nitrogen on C48H55N4O19Zn3@FCNF
DOI: 10.1039/C2cc16877d
Adsorbate Nitrogen: InChIKey IJGRMHOSHXDMSA-UHFFFAOYSA-N
Temperature: 77 K
Tabular data in the source: 0
pressure (bar)	uptake (cm3(STP)/g)
0.0034662	1.33027
0.00866551	10.8101
0.0121317	12.6393
0.0294627	13.8021
0.0537262	14.3822
0.0797227	15.0453
0.12825	15.5403
0.192374	16.3665
0.237435	16.8618
0.258232	17.0263
0.280763	17.1908
0.327556	17.5195
0.376083	17.9313
0.431542	18.5088
0.483536	19.0034
0.537262	19.4979
0.584055	20.0762
0.632582	20.6543
0.667244	21.3998
0.710572	21.9783
0.7487	22.3078
0.795494	23.385
0.861352	24.3774
0.896014	25.2893
0.923744	26.7007
0.939341	27.8637
0.953206	29.0268
0.960139	30.0241
0.97227	32.2684
0.984402	34.0969
1.00173	36.5071
