Adsorption isotherm of Carbon Dioxide on C48H55N4O19Zn3@FCNF
DOI: 10.1039/C2cc16877d
Adsorbate Carbon Dioxide: InChIKey CURLTUGMZLYLDI-UHFFFAOYSA-N
Temperature: 298 K
Tabular data in the source: 0
pressure (bar)	uptake (mmol/g)
0.0229098	0.134842
0.0432741	0.23854
0.0610928	0.311093
0.0840026	0.404377
0.109458	0.487245
0.175642	0.642445
0.196006	0.699389
0.264736	0.82859
0.300373	0.895775
0.346193	0.962861
0.389467	1.02478
0.483652	1.13815
0.526926	1.19487
0.616019	1.2979
0.674567	1.34408
0.715295	1.38524
0.784025	1.4573
0.817117	1.47775
0.845117	1.49826
0.908756	1.52881
0.949484	1.55439
1.01821	1.58489
1.05894	1.61046
