Adsorption isotherm of Hydrogen on C48H55N4O19Zn3
DOI: 10.1039/C2cc16877d
Adsorbate Hydrogen: InChIKey UFHFLCQGNIYNRP-UHFFFAOYSA-N
Temperature: 77 K
Tabular data in the source: 0
pressure (bar)	uptake (wt%)
0.00475059	0.00475059
0.0332542	0.195373
0.0451306	0.229334
0.0665083	0.266101
0.0902613	0.311359
0.163895	0.390471
0.206651	0.424344
0.261283	0.461016
0.313539	0.494862
0.365796	0.514544
0.4038	0.528601
0.472684	0.551069
0.510689	0.55946
0.567696	0.573463
0.605701	0.584686
0.667458	0.59301
0.705463	0.604234
0.745843	0.606952
0.821853	0.618068
0.852732	0.620814
0.921615	0.626284
0.952494	0.62903
0.992874	0.628915
