Adsorption isotherm of Methane on MIL-53(Cu)
DOI: 10.1016/S1003-9953(11)60419-2
Adsorbate Methane: InChIKey VNWKTOKETHGBQD-UHFFFAOYSA-N
Temperature: 298 K
Tabular data in the source: 0
pressure (bar)	uptake (mmol/g)
0.378378	0.0732601
1.04054	0.29304
1.7973	0.512821
2.55405	0.732601
3.31081	0.952381
4.06757	1.17216
4.35135	1.28205
5.01351	1.4652
5.67568	1.68498
6.33784	1.94139
7.09459	2.1978
7.75676	2.41758
8.51351	2.67399
9.17568	2.89377
9.93243	3.22344
10.5946	3.36996
11.3514	3.58974
12.1081	3.80952
12.8649	4.0293
13.6216	4.24908
14.3784	4.46886
15.0405	4.68864
15.7973	4.90842
16.5541	5.12821
17.2162	5.31136
17.973	5.53114
18.6351	5.75092
19.3919	6.00733
20.0541	6.26374
20.7162	6.37363
21.5676	6.55678
22.4189	6.73993
23.2703	6.88645
24.1216	7.0696
24.973	7.21612
25.8243	7.39927
26.5811	7.50916
27.4324	7.65568
28.2838	7.8022
29.1351	7.91209
30.0811	8.02198
30.9324	8.09524
31.8784	8.20513
32.7297	8.27839
33.6757	8.38828
34.527	8.46154
34.9054	8.49817
