Adsorption isotherm of Hydrogen on [Li(C6H4NO2)2]*DMF
DOI: 10.1002/anie.200906322
Adsorbate Hydrogen: InChIKey UFHFLCQGNIYNRP-UHFFFAOYSA-N
Temperature: 87 K
Tabular data in the source: 0
pressure (bar)	uptake (molecules/unitcell)
0	0
0.132409	0.988954
1.23581	1.40851
2.82472	1.64621
6.2232	1.79729
9.31274	1.84546
12.4023	1.85407
14.6091	1.85457
22.2888	1.77719
27.541	1.69135
30.145	1.68403
