Adsorption isotherm of Hydrogen on [Li(C6H4NO2)2]*DMF
DOI: 10.1002/anie.200906322
Adsorbate Hydrogen: InChIKey UFHFLCQGNIYNRP-UHFFFAOYSA-N
Temperature: 77 K
Tabular data in the source: 0
pressure (bar)	uptake (molecules/unitcell)
0	0.0474684
0.0441362	0.371845
0.220681	1.09182
0.35309	1.51116
1.5889	1.82789
4.36948	1.96301
8.56242	1.96396
12.4023	1.92527
18.3607	1.79212
22.2888	1.7139
26.1728	1.60402
30.1009	1.55744
