Adsorption isotherm of Carbon Dioxide on Coal
DOI: 10.1016/j.fuel.2013.11.051
Adsorbate Carbon Dioxide: InChIKey CURLTUGMZLYLDI-UHFFFAOYSA-N
Temperature: 328 K
Tabular data in the source: 0
pressure (bar)	uptake (mmol/g)
1.61616	0.0213925
6.46465	0.0569986
8.88889	0.0748016
12.1212	0.110444
15.3535	0.135372
16.7003	0.146056
18.0471	0.160311
21.2795	0.185239
23.9731	0.206608
26.6667	0.224405
29.6296	0.245767
32.3232	0.263564
33.9394	0.270671
36.9024	0.295605
40.1347	0.316961
42.0202	0.327633
44.1751	0.345443
47.4074	0.363228
49.8316	0.370316
53.3333	0.391667
56.2963	0.413029
59.2593	0.427249
61.4141	0.441486
64.3771	0.459277
67.0707	0.469931
69.7643	0.480586
73.266	0.498365
77.037	0.512566
80.2694	0.530351
84.8485	0.551677
88.8889	0.573016
95.0842	0.597878
98.8552	0.608508
102.357	0.622715
104.512	0.633381
106.936	0.64047
108.822	0.647571
112.323	0.658207
114.747	0.668867
117.441	0.679521
119.865	0.68661
123.636	0.69724
125.522	0.704341
127.407	0.711442
130.37	0.718519
134.141	0.73272
137.643	0.743356
