Adsorption isotherm of Carbon Dioxide on Coal
DOI: 10.1016/j.fuel.2013.11.051
Adsorbate Carbon Dioxide: InChIKey CURLTUGMZLYLDI-UHFFFAOYSA-N
Temperature: 318 K
Tabular data in the source: 0
pressure (bar)	uptake (mmol/g)
39.4604	39.4604
44.0135	3.13676
48.0607	3.05215
55.1433	2.89985
59.6965	2.81521
63.7437	2.71371
70.3204	2.57832
74.8735	2.49368
78.9207	2.40906
86.5093	2.30737
91.0624	2.2396
96.1214	2.18869
103.71	2.07011
108.263	2.01923
113.322	1.96831
120.911	1.86662
125.464	1.81573
130.523	1.76481
137.605	1.66314
142.159	1.61226
147.218	1.56134
154.806	1.44277
159.359	1.375
170.489	1.13809
174.536	1.05347
179.595	1.00255
187.184	0.968372
192.243	0.95121
196.29	0.96786
205.396	0.967348
210.455	0.967063
215.514	0.966778
223.609	0.966323
228.668	0.966038
233.727	0.965754
