Adsorption isotherm of Carbon Dioxide on Coal
DOI: 10.1016/j.fuel.2013.11.051
Adsorbate Carbon Dioxide: InChIKey CURLTUGMZLYLDI-UHFFFAOYSA-N
Temperature: 333 K
Tabular data in the source: 0
pressure (bar)	uptake (mmol/g)
1.96429	-0.00249819
4.19592	0.198152
6.15944	0.500887
8.21301	0.498276
9.10587	0.49714
10.3554	0.699039
11.6054	0.69745
12.9444	0.797491
13.9263	0.897986
15.4436	1.09954
17.1403	0.995643
18.3898	1.19754
19.6393	1.39944
21.1577	1.19402
22.6748	1.49732
24.3717	1.29168
26.1566	1.59464
27.7638	1.5926
28.7459	1.59135
31.8702	1.89261
32.763	1.89147
34.8158	2.19409
36.6906	2.29345
38.0299	2.29175
39.101	2.39213
40.4398	2.59392
41.6898	2.59233
43.0288	2.69237
43.8322	2.79309
46.0641	2.892
47.2245	2.99227
48.5633	3.19405
50.7954	3.19121
51.5987	3.29193
52.8482	3.49383
55.8834	3.69346
56.5977	3.69255
57.4906	3.69142
58.2931	4.09737
58.2944	3.58865
58.3772	6.13215
58.46	8.67565
58.5285	16.8151
58.5423	11.4226
58.6256	13.7626
58.6939	22.0038
58.7006	19.3585
58.7748	25.2596
58.8667	24.242
59.132	25.2591
60.6514	24.6467
62.4382	24.2375
63.6887	24.0324
65.4757	23.5214
67.0836	23.2141
68.6916	22.9068
69.9429	22.3965
