Adsorption isotherm of Carbon Dioxide on Coal
DOI: 10.1016/j.fuel.2013.11.051
Adsorbate Carbon Dioxide: InChIKey CURLTUGMZLYLDI-UHFFFAOYSA-N
Temperature: 333 K
Tabular data in the source: 0
pressure (bar)	uptake (mmol/g)
1.96429	-0.00249819
4.19592	0.198152
6.15944	0.500887
8.21301	0.498276
10.3554	0.699039
12.9444	0.797491
15.4436	1.09954
18.3898	1.19754
21.1577	1.19402
22.6748	1.49732
24.3717	1.29168
26.1566	1.59464
28.7459	1.59135
31.8702	1.89261
34.8158	2.19409
36.6906	2.29345
39.101	2.39213
41.6898	2.59233
43.8322	2.79309
46.0641	2.892
48.5633	3.19405
50.7954	3.19121
52.8482	3.49383
55.8834	3.69346
57.4906	3.69142
58.2931	4.09737
58.2944	3.58865
58.3772	6.13215
58.46	8.67565
58.5285	16.8151
58.5423	11.4226
58.6256	13.7626
58.6939	22.0038
58.7006	19.3585
58.7748	25.2596
58.8667	24.242
59.132	25.2591
60.6514	24.6467
62.4382	24.2375
63.6887	24.0324
65.4757	23.5214
67.0836	23.2141
68.6916	22.9068
69.9429	22.3965
