Adsorption isotherm of Carbon Dioxide on Coal
DOI: 10.1016/j.fuel.2013.11.051
Adsorbate Carbon Dioxide: InChIKey CURLTUGMZLYLDI-UHFFFAOYSA-N
Temperature: 328 K
Tabular data in the source: 0
pressure (bar)	uptake (mmol/g)
2.42424	0.0249459
7.00337	0.0641294
10.5051	0.0997655
15.0842	0.131806
18.0471	0.15674
21.2795	0.181668
23.7037	0.199471
25.8586	0.220851
29.0909	0.238636
31.7845	0.263576
36.633	0.292039
39.8653	0.313396
44.7138	0.34543
48.7542	0.373912
54.1414	0.398791
58.4512	0.427267
64.1077	0.455712
67.6094	0.473491
73.8047	0.501924
77.037	0.52328
82.1549	0.541023
85.6566	0.558802
90.7744	0.576545
96.1616	0.601425
100.741	0.61918
105.32	0.633363
109.63	0.647553
114.209	0.665308
118.519	0.679497
123.098	0.697252
127.946	0.71143
132.795	0.725607
138.99	0.743326
