Adsorption isotherm of Carbon Dioxide on Coal
DOI: 10.1016/j.fuel.2013.11.051
Adsorbate Carbon Dioxide: InChIKey CURLTUGMZLYLDI-UHFFFAOYSA-N
Temperature: 326 K
Tabular data in the source: 0
pressure (bar)	uptake (mmol/g)
1.07503	0.223125
2.15006	0.293125
3.22508	0.37625
4.47928	0.455
5.55431	0.49
6.62934	0.525
7.88354	0.546875
10.0336	0.608125
11.467	0.634375
12.7212	0.65625
14.3337	0.678125
18.0963	0.730625
19.7088	0.748125
21.5006	0.76125
22.9339	0.774375
27.0549	0.805
28.8466	0.81375
30.4591	0.826875
31.8925	0.835625
36.3718	0.861875
38.1635	0.870625
39.776	0.879375
41.5677	0.888125
45.5095	0.91
47.3012	0.914375
48.9138	0.923125
50.7055	0.9275
55.0056	0.945
56.7973	0.949375
58.4099	0.95375
60.0224	0.958125
63.0683	0.9625
64.3225	0.97125
65.9351	0.975625
67.5476	0.98
69.3393	0.984375
73.1019	0.984375
74.7144	0.9975
76.5062	0.9975
78.1187	1.00188
79.9104	1.00625
83.3147	1.015
85.1064	1.015
86.7189	1.01938
88.5106	1.02375
94.0649	1.04125
97.1109	1.03687
100.694	1.04125
102.307	1.04562
104.099	1.04562
105.89	1.05
111.445	1.05
113.236	1.05875
114.849	1.05875
116.461	1.05875
118.253	1.06312
121.299	1.07187
122.912	1.07187
124.703	1.07187
126.495	1.07625
130.078	1.07187
131.691	1.08062
133.483	1.08062
134.916	1.085
136.708	1.085
140.291	1.08937
142.083	1.08937
143.695	1.09375
145.487	1.09375
147.637	1.09375
149.25	1.08937
151.041	1.09375
