Adsorption isotherm of Carbon Dioxide on Coal
DOI: 10.1016/j.fuel.2013.11.051
Adsorbate Carbon Dioxide: InChIKey CURLTUGMZLYLDI-UHFFFAOYSA-N
Temperature: 353 K
Tabular data in the source: 0
pressure (bar)	uptake (mmol/g)
1.00671	0.0311688
2.61745	0.0701299
4.22819	0.109091
5.43624	0.136364
9.66443	0.222078
12.6846	0.261039
14.698	0.292208
16.3087	0.311688
18.1208	0.331169
20.7383	0.358442
22.349	0.377922
24.1611	0.397403
27.1812	0.420779
28.9933	0.436364
30.8054	0.451948
33.8255	0.475325
35.6376	0.487013
37.651	0.502597
40.4698	0.522078
42.2819	0.533766
44.094	0.545455
47.3154	0.561039
49.3289	0.568831
51.1409	0.580519
54.1611	0.596104
55.9732	0.603896
57.9866	0.615584
61.0067	0.631169
63.0201	0.638961
64.8322	0.646753
68.0537	0.658442
70.0671	0.666234
71.8792	0.674026
75.1007	0.685714
77.1141	0.693506
78.9262	0.697403
82.349	0.709091
84.3624	0.716883
86.1745	0.720779
88.9933	0.728571
91.0067	0.736364
92.8188	0.74026
96.2416	0.751948
98.0537	0.75974
100.067	0.75974
103.289	0.771429
105.302	0.775325
