Adsorption isotherm of Carbon Dioxide on Coal
DOI: 10.1016/j.fuel.2013.11.051
Adsorbate Carbon Dioxide: InChIKey CURLTUGMZLYLDI-UHFFFAOYSA-N
Temperature: 353 K
Tabular data in the source: 0
pressure (bar)	uptake (mmol/g)
0.3367	0.0843172
1.26263	0.231801
1.93603	0.316047
2.6936	0.421373
4.20875	0.589829
5.47138	0.695048
6.81818	0.789701
7.99663	0.884389
9.00673	0.936918
10.3535	1.02102
11.6162	1.08405
12.963	1.1787
14.5623	1.24165
16.0774	1.29408
17.0034	1.33608
18.771	1.38844
20.3704	1.4514
21.8013	1.48274
22.9798	1.52469
24.4108	1.56658
26.0101	1.59789
27.5253	1.65031
28.7037	1.68171
30.2189	1.72358
31.5657	1.7444
33.0808	1.77572
34.3434	1.79655
36.0269	1.84894
37.1212	1.85926
38.7205	1.89057
39.9832	1.9114
41.4141	1.95329
43.1818	1.98456
44.6128	2.00536
