Adsorption isotherm of Carbon Dioxide on Coal
DOI: 10.1016/j.fuel.2013.11.051
Adsorbate Carbon Dioxide: InChIKey CURLTUGMZLYLDI-UHFFFAOYSA-N
Temperature: 353 K
Tabular data in the source: 0
pressure (bar)	uptake (mmol/g)
0.809676	0.0364672
2.15965	0.100285
4.17964	0.166382
6.73382	0.223362
8.74924	0.262108
10.8978	0.296296
13.7157	0.328205
16.5343	0.364672
19.3506	0.387464
22.5694	0.414815
27.6648	0.451282
31.4187	0.474074
35.976	0.496866
40.1316	0.519658
43.2143	0.533333
46.9673	0.551567
50.0492	0.560684
54.3372	0.574359
56.8834	0.583476
60.3678	0.597151
63.7176	0.606268
67.4695	0.617664
71.7563	0.624501
75.2404	0.635897
78.0533	0.638177
82.3405	0.647293
85.2881	0.654131
90.6471	0.665527
94.3987	0.674644
97.8816	0.679202
100.159	0.683761
102.437	0.690598
104.045	0.692877
106.857	0.692877
