Adsorption isotherm of Carbon Dioxide on Coal
DOI: 10.1016/j.fuel.2013.11.051
Adsorbate Carbon Dioxide: InChIKey CURLTUGMZLYLDI-UHFFFAOYSA-N
Temperature: 318 K
Tabular data in the source: 0
pressure (bar)	uptake (mmol/g)
39.9663	3.32265
46.543	3.22101
54.1315	3.03493
62.226	2.89945
70.8263	2.71331
77.9089	2.56102
86.5093	2.45927
95.1096	2.35752
104.722	2.23883
114.84	2.12012
125.97	1.98447
135.582	1.89955
145.194	1.79774
157.841	1.66201
166.442	1.56026
173.524	1.45859
177.066	1.18835
180.607	0.98562
183.642	0.76604
185.666	0.698415
190.725	0.816274
192.749	0.917426
198.82	0.967718
203.879	0.950555
215.008	0.933052
222.597	0.949502
234.233	0.948848
241.315	0.965327
