Adsorption isotherm of Carbon Dioxide on Coal
DOI: 10.1016/j.fuel.2013.11.051
Adsorbate Carbon Dioxide: InChIKey CURLTUGMZLYLDI-UHFFFAOYSA-N
Temperature: 353 K
Tabular data in the source: 0
pressure (bar)	uptake (mmol/g)
0.943605	0.0364672
2.289	0.0729345
3.09562	0.0911681
4.30746	0.129915
5.24763	0.145869
6.05426	0.164103
6.86088	0.182336
8.87668	0.223362
9.81647	0.237037
10.8906	0.252991
11.8304	0.266667
14.2472	0.303134
15.4544	0.31453
16.3942	0.328205
17.4672	0.337322
20.1511	0.369231
21.358	0.378348
22.5652	0.389744
23.6386	0.40114
26.4553	0.426211
27.6618	0.433048
28.869	0.444444
30.0759	0.453561
33.0258	0.474074
34.0987	0.483191
35.0374	0.490028
36.2435	0.494587
37.3157	0.499145
39.7291	0.5151
41.0695	0.521937
42.276	0.528775
43.4821	0.533333
46.2966	0.544729
47.5034	0.553846
48.7099	0.560684
49.7821	0.565242
50.9886	0.57208
53.4013	0.583476
54.7409	0.585755
55.9474	0.592593
57.1535	0.597151
62.5141	0.617664
63.7202	0.622222
67.3386	0.635897
68.6783	0.638177
69.8848	0.645014
71.2244	0.647293
74.3067	0.658689
75.6464	0.660969
76.8525	0.665527
78.1925	0.670085
81.4083	0.679202
82.7484	0.683761
83.9541	0.68604
85.2938	0.688319
88.3761	0.699715
89.7157	0.701994
91.0554	0.704274
92.2615	0.708832
95.477	0.71567
96.8166	0.717949
98.0227	0.722507
99.3624	0.724786
102.444	0.731624
103.784	0.733903
104.989	0.736182
106.329	0.740741
