Adsorption isotherm of Carbon Dioxide on Coal
DOI: 10.1016/j.fuel.2013.11.051
Adsorbate Carbon Dioxide: InChIKey CURLTUGMZLYLDI-UHFFFAOYSA-N
Temperature: 326 K
Tabular data in the source: 0
pressure (bar)	uptake (mmol/g)
0.622949	0.132231
1.53993	0.214876
3.07239	0.380165
3.98812	0.454545
4.89763	0.487603
6.41513	0.553719
7.62739	0.595041
8.53939	0.644628
10.6587	0.702479
12.4764	0.760331
13.3884	0.809917
14.6007	0.85124
16.7187	0.900826
18.5365	0.958678
21.8655	1.04132
23.0765	1.07438
25.4948	1.1157
27.9131	1.15702
29.4231	1.17355
32.1429	1.21488
34.56	1.24793
37.2785	1.28099
39.9958	1.30579
41.8099	1.33884
44.5284	1.3719
47.247	1.40496
50.8688	1.42975
53.5861	1.45455
56.6049	1.47934
60.2268	1.50413
61.7368	1.52066
64.7544	1.53719
67.4717	1.56198
69.2819	1.57025
71.0935	1.58678
73.8095	1.60331
76.8259	1.61157
81.0495	1.6281
82.5607	1.65289
85.5771	1.66116
88.2931	1.67769
89.8019	1.68595
91.9149	1.70248
94.6298	1.71074
97.6461	1.71901
103.378	1.7438
106.395	1.75207
109.111	1.7686
110.92	1.7686
113.032	1.77686
116.049	1.79339
118.764	1.80165
122.686	1.81818
124.194	1.81818
127.21	1.82645
130.226	1.83471
132.338	1.84298
133.847	1.85124
136.863	1.8595
139.88	1.86777
143.499	1.87603
145.309	1.8843
148.324	1.8843
151.342	1.90083
