Adsorption isotherm of Hydrogen on F-MOF-6
DOI: 10.1021/Cg9013812
Adsorbate Hydrogen: InChIKey UFHFLCQGNIYNRP-UHFFFAOYSA-N
Temperature: 77 K
Tabular data in the source: 0
pressure (bar)	uptake (wt%)
0.0119243	0.0226391
0.0138589	0.0528608
0.0217732	0.0855859
0.0395667	0.166144
0.0435113	0.188804
0.0554105	0.224038
0.0613701	0.236617
0.0752441	0.281921
0.0792038	0.297024
0.0990675	0.339794
0.144755	0.437912
0.206396	0.538508
0.242209	0.586274
0.307886	0.664189
0.333764	0.69183
0.409471	0.742011
0.439354	0.762085
0.487187	0.784631
0.53103	0.807187
0.600792	0.837233
0.63269	0.847226
0.684533	0.859686
0.726401	0.872172
0.776249	0.884637
0.846056	0.892013
0.875965	0.899492
0.921838	0.904411
0.923833	0.904406
0.961731	0.906826
