Adsorption isotherm of 3-Methylpentane, 2,3-dimethyl-butane on Zeolite Beta
DOI: 10.1260/026361707782398173
Article source: Table 3.2
Adsorbate 3-Methylpentane: InChIKey PFEOZHBOMNWTJB-UHFFFAOYSA-N
Adsorbate 2,3-dimethyl-butane: InChIKey ZFFMLCVRJBZUDZ-UHFFFAOYSA-N
Kind: experiment
Temperature: 473 K
Tabular data in the source: 0
pressure (bar)	3-Methylpentane fraction	3-Methylpentane uptake (g Adsorbate / 100g Adsorbent)	2,3-dimethyl-butane fraction	2,3-dimethyl-butane uptake (g Adsorbate / 100g Adsorbent)	total uptake (g Adsorbate / 100g Adsorbent)
0.006	0.5	0.351	0.5	0.233	
0.044	0.5	1.358	0.5	0.975	
0.085	0.5	1.877	0.5	1.43	
0.132	0.5	2.148	0.5	1.743	
