Adsorption isotherm of 2,2-Dimethyl-Butane on Zeolite Beta
DOI: 10.1260/026361707782398173
Article source: Figure 2a
Adsorbate 2,2-Dimethyl-Butane: InChIKey HNRMPXKDFBEGFZ-UHFFFAOYSA-N
Kind: experiment
Temperature: 523 K
Tabular data in the source: 0
pressure (bar)	uptake (g Adsorbate / 100g Adsorbent)
0.00299	0.0383
0.0636	0.333
0.107	0.546
0.263	1.17
