Adsorption isotherm of 3-Methylpentane on Zeolite Beta
DOI: 10.1260/026361707782398173
Article source: Figure 2c
Adsorbate 3-Methylpentane: InChIKey PFEOZHBOMNWTJB-UHFFFAOYSA-N
Kind: experiment
Temperature: 473 K
Tabular data in the source: 0
pressure (bar)	uptake (g Adsorbate / 100g Adsorbent)
0.003	0.266
0.061	2.41
0.124	3.3
0.269	4.49
