Adsorption isotherm of 2,2-Dimethyl-Butane, 3-Methylpentane on Zeolite Beta
DOI: 10.1260/026361707782398173
Article source: Table 3.2
Adsorbate 2,2-Dimethyl-Butane: InChIKey HNRMPXKDFBEGFZ-UHFFFAOYSA-N
Adsorbate 3-Methylpentane: InChIKey PFEOZHBOMNWTJB-UHFFFAOYSA-N
Kind: experiment
Temperature: 523 K
Tabular data in the source: 0
pressure (bar)	2,2-Dimethyl-Butane fraction	2,2-Dimethyl-Butane uptake (g Adsorbate / 100g Adsorbent)	3-Methylpentane fraction	3-Methylpentane uptake (g Adsorbate / 100g Adsorbent)	total uptake (g Adsorbate / 100g Adsorbent)
0.006	0.5	0.033	0.5	0.103	
0.105	0.5	0.339	0.5	0.803	
0.146	0.5	0.469	0.5	1.062	
