Adsorption isotherm of 2,3-dimethyl-butane on Zeolite Beta
DOI: 10.1260/026361707782398173
Article source: Figure 2b
Adsorbate 2,3-dimethyl-butane: InChIKey ZFFMLCVRJBZUDZ-UHFFFAOYSA-N
Kind: experiment
Temperature: 423 K
Tabular data in the source: 0
pressure (bar)	uptake (g Adsorbate / 100g Adsorbent)
0.00303	0.669
0.0201	2.94
0.0593	5.2
0.116	6.01
0.291	6.97
