Adsorption isotherm of 2,3-dimethyl-butane on Zeolite Beta
DOI: 10.1260/026361707782398173
Article source: Figure 2b
Adsorbate 2,3-dimethyl-butane: InChIKey ZFFMLCVRJBZUDZ-UHFFFAOYSA-N
Kind: experiment
Temperature: 523 K
Tabular data in the source: 0
pressure (bar)	uptake (g Adsorbate / 100g Adsorbent)
0.00303	0.0327
0.0592	0.365
0.117	0.724
0.291	1.77
