Adsorption isotherm of 3-Methylpentane on Zeolite Beta
DOI: 10.1260/026361707782398173
Article source: Figure 2c
Adsorbate 3-Methylpentane: InChIKey PFEOZHBOMNWTJB-UHFFFAOYSA-N
Kind: experiment
Temperature: 523 K
Tabular data in the source: 0
pressure (bar)	uptake (g Adsorbate / 100g Adsorbent)
0.003	0.0584
0.061	0.709
0.124	1.17
0.269	2.03
