Adsorption isotherm of 2,2-Dimethyl-Butane on Zeolite Beta
DOI: 10.1260/026361707782398173
Article source: Figure 2a
Adsorbate 2,2-Dimethyl-Butane: InChIKey HNRMPXKDFBEGFZ-UHFFFAOYSA-N
Kind: experiment
Temperature: 423 K
Tabular data in the source: 0
pressure (bar)	uptake (g Adsorbate / 100g Adsorbent)
0.003	0.481
0.0179	2.02
0.0639	4.36
0.106	5.28
0.193	6.33
0.263	6.89
