Adsorption isotherm of 3-Methylpentane, 2,3-dimethyl-butane on Zeolite Beta
DOI: 10.1260/026361707782398173
Article source: Table 3.2
Adsorbate 3-Methylpentane: InChIKey PFEOZHBOMNWTJB-UHFFFAOYSA-N
Adsorbate 2,3-dimethyl-butane: InChIKey ZFFMLCVRJBZUDZ-UHFFFAOYSA-N
Kind: experiment
Temperature: 523 K
Tabular data in the source: 0
pressure (bar)	3-Methylpentane fraction	3-Methylpentane uptake (g Adsorbate / 100g Adsorbent)	2,3-dimethyl-butane fraction	2,3-dimethyl-butane uptake (g Adsorbate / 100g Adsorbent)	total uptake (g Adsorbate / 100g Adsorbent)
0.005	0.5	0.058	0.5	0.027	
0.036	0.5	0.273	0.5	0.191	
0.144	0.5	0.859	0.5	0.653	
