Adsorption isotherm of 2,2-Dimethyl-Butane, 3-Methylpentane on Zeolite Beta
DOI: 10.1260/026361707782398173
Article source: Table 3.2
Adsorbate 2,2-Dimethyl-Butane: InChIKey HNRMPXKDFBEGFZ-UHFFFAOYSA-N
Adsorbate 3-Methylpentane: InChIKey PFEOZHBOMNWTJB-UHFFFAOYSA-N
Kind: experiment
Temperature: 473 K
Tabular data in the source: 0
pressure (bar)	2,2-Dimethyl-Butane fraction	2,2-Dimethyl-Butane uptake (g Adsorbate / 100g Adsorbent)	3-Methylpentane fraction	3-Methylpentane uptake (g Adsorbate / 100g Adsorbent)	total uptake (g Adsorbate / 100g Adsorbent)
0.006	0.5	0.114	0.5	0.346	
0.02	0.5	0.317	0.5	0.904	
0.044	0.5	0.617	0.5	1.517	
0.084	0.5	0.946	0.5	2.243	
0.131	0.5	1.122	0.5	2.514	
