Adsorption isotherm of 2,2-Dimethyl-Butane, 3-Methylpentane on Zeolite Beta
DOI: 10.1260/026361707782398173
Article source: Table 3.2
Adsorbate 2,2-Dimethyl-Butane: InChIKey HNRMPXKDFBEGFZ-UHFFFAOYSA-N
Adsorbate 3-Methylpentane: InChIKey PFEOZHBOMNWTJB-UHFFFAOYSA-N
Kind: experiment
Temperature: 423 K
Tabular data in the source: 0
pressure (bar)	2,2-Dimethyl-Butane fraction	2,2-Dimethyl-Butane uptake (g Adsorbate / 100g Adsorbent)	3-Methylpentane fraction	3-Methylpentane uptake (g Adsorbate / 100g Adsorbent)	total uptake (g Adsorbate / 100g Adsorbent)
0.006	0.5	0.583	0.5	1.62	
0.044	0.5	1.702	0.5	3.518	
0.084	0.5	2.209	0.5	3.962	
0.14	0.5	2.384	0.5	4.057	
