Adsorption isotherm of 3-Methylpentane on Zeolite Beta
DOI: 10.1260/026361707782398173
Article source: Figure 2c
Adsorbate 3-Methylpentane: InChIKey PFEOZHBOMNWTJB-UHFFFAOYSA-N
Kind: experiment
Temperature: 423 K
Tabular data in the source: 0
pressure (bar)	uptake (g Adsorbate / 100g Adsorbent)
0.00299	1.88
0.019	4.16
0.0609	5.68
0.124	6.37
0.267	7.22
