Adsorption isotherm of 2,2-Dimethyl-Butane on Zeolite Beta
DOI: 10.1260/026361707782398173
Article source: Figure 2a
Adsorbate 2,2-Dimethyl-Butane: InChIKey HNRMPXKDFBEGFZ-UHFFFAOYSA-N
Kind: experiment
Temperature: 473 K
Tabular data in the source: 0
pressure (bar)	uptake (g Adsorbate / 100g Adsorbent)
0.003	0.082
0.0636	1.09
0.106	1.69
0.263	3.32
