Adsorption isotherm of Methane on NJU-Bai12
DOI: 10.1021/Ic301598n
Adsorbate Methane: InChIKey VNWKTOKETHGBQD-UHFFFAOYSA-N
Temperature: 273 K
Tabular data in the source: 0
pressure (bar)	uptake (mmol/g)
0.0842092	-0.00749964
0.726562	0.779055
1.32303	1.25099
2.10303	1.88023
2.88303	2.45704
4.21362	3.4009
5.17715	3.97771
6.0948	4.55452
7.19597	5.18376
8.02186	5.70813
9.07715	6.2325
9.9948	6.75687
11.096	7.33368
12.1972	7.80561
13.4819	8.43485
14.9501	8.85435
16.2807	9.43116
17.703	9.79821
18.8042	10.2177
20.0889	10.5323
