Adsorption isotherm of Hydrogen on NJU-Bai12
DOI: 10.1021/Ic301598n
Adsorbate Hydrogen: InChIKey UFHFLCQGNIYNRP-UHFFFAOYSA-N
Temperature: 77 K
Tabular data in the source: 0
pressure (bar)	uptake (mmol/g)
0.0163059	1.66234
0.0829725	0.124552
0.0829725	2.9025
0.149639	4.48989
0.182973	5.58123
0.382973	6.57335
0.549639	8.06153
0.716306	9.4009
1.24964	11.2859
1.44964	12.1292
1.68297	12.9229
1.94964	13.8158
2.21631	14.4607
2.74964	15.6017
3.28297	16.5442
4.01631	17.9828
5.01631	19.3221
6.04964	20.6615
6.94964	21.4552
7.91631	22.2985
8.94964	23.0922
9.98297	23.6379
11.0496	24.2331
12.0163	24.8284
12.9496	25.3245
14.0163	25.7709
15.0496	26.0686
16.1163	26.4654
16.9163	26.7134
18.1163	26.9615
19.0496	27.1599
20.0163	27.3583
