Adsorption isotherm of Nitrogen on NJU-Bai12
DOI: 10.1021/Ic301598n
Adsorbate Nitrogen: InChIKey IJGRMHOSHXDMSA-UHFFFAOYSA-N
Temperature: 77 K
Tabular data in the source: 0
pressure (bar)	uptake (cm3(STP)/g)
-0.000862	123.348
0.000826	268.681
0.000826	471.348
0.00251422	18.0144
0.00420256	512.681
0.00757923	556.681
0.00926756	594.014
0.0143326	623.348
0.0227742	646.014
0.0329042	667.348
0.0514759	678.014
0.0801776	688.681
0.112256	698.014
0.147711	704.681
0.178101	708.681
0.216933	714.014
0.252388	715.348
0.306414	718.014
0.377324	720.681
0.409403	724.681
0.461741	724.681
0.517456	724.681
0.564729	724.681
0.615379	724.681
0.666029	727.348
0.714991	728.681
0.767329	727.348
0.819668	728.681
0.839928	730.014
0.902396	728.681
0.951358	728.681
0.995254	728.681
1.01551	731.348
