Adsorption isotherm of Hydrogen on NJU-Bai12
DOI: 10.1021/Ic301598n
Adsorbate Hydrogen: InChIKey UFHFLCQGNIYNRP-UHFFFAOYSA-N
Temperature: 87 K
Tabular data in the source: 0
pressure (bar)	uptake (mmol/g)
0.00264577	0.0251804
0.0168591	0.308514
0.0452858	0.708514
0.0754891	1.07518
0.109246	1.42518
0.132342	1.65851
0.157216	1.84185
0.192749	2.15851
0.237166	2.54185
0.288689	2.90851
0.349096	3.25851
0.404172	3.55851
0.461026	3.90851
0.507219	4.10851
0.565849	4.39185
0.620926	4.65851
0.668896	4.84185
0.727526	5.10851
0.784379	5.30851
0.832349	5.49185
0.885649	5.69185
0.938949	5.89185
0.992249	6.05851
1.04555	6.20851
1.07753	6.32518
