Adsorption isotherm of Nitrogen on NJU-Bai12
DOI: 10.1021/Ic301598n
Adsorbate Nitrogen: InChIKey IJGRMHOSHXDMSA-UHFFFAOYSA-N
Temperature: 273 K
Tabular data in the source: 0
pressure (bar)	uptake (mmol/g)
0.0842092	-0.00749964
0.313621	0.726618
0.726562	1.61805
1.09362	2.45704
1.73597	3.76796
2.60774	5.07889
3.20421	6.07519
4.2595	7.17637
4.99362	8.22511
6.18656	9.74578
7.01244	11.0043
8.02186	12.4201
9.07715	13.5212
10.1324	14.6224
11.6924	16.1431
13.0689	16.8772
14.1242	17.454
15.0877	18.0833
16.1889	18.3979
17.1524	18.9222
18.0701	19.2369
18.9877	19.4466
20.0889	19.8661
