Adsorption isotherm of Carbon Dioxide on NJU-Bai12
DOI: 10.1021/Ic301598n
Adsorbate Carbon Dioxide: InChIKey CURLTUGMZLYLDI-UHFFFAOYSA-N
Temperature: 273 K
Tabular data in the source: 0
pressure (bar)	uptake (mmol/g)
0.0842092	-0.00749964
0.221856	1.09368
0.405386	2.03754
0.68068	3.13872
1.00186	4.03015
1.32303	4.97401
1.87362	6.38981
2.33244	7.43855
2.83715	8.85435
3.11244	9.85065
4.12186	12.4201
5.08539	15.3041
6.18656	17.454
7.15009	18.7649
8.20539	19.8661
9.94892	20.9673
11.4172	21.8063
13.3901	22.4355
15.5466	23.1172
17.7489	23.6416
19.2171	23.7989
19.9972	23.9038
