Adsorption isotherm of Hydrogen on NJU-Bai12
DOI: 10.1021/Ic301598n
Adsorbate Hydrogen: InChIKey UFHFLCQGNIYNRP-UHFFFAOYSA-N
Temperature: 77 K
Tabular data in the source: 0
pressure (bar)	uptake (mmol/g)
0.0163059	1.66234
0.0829725	0.124552
0.0829725	2.9025
0.149639	4.48989
0.182973	5.58123
0.382973	6.57335
0.549639	8.06153
0.716306	9.4009
0.916306	10.4922
1.14964	11.6828
1.48297	12.8237
1.81631	13.7662
2.14964	14.6591
2.58297	15.8497
3.04964	16.9906
4.04964	18.7765
5.01631	20.4631
6.01631	21.604
6.94964	22.7449
7.98297	23.9355
8.91631	24.7292
9.91631	25.6717
10.983	26.4158
12.1496	27.2591
13.083	27.656
14.1163	28.3504
15.0163	28.7969
16.1163	29.4418
17.0163	29.8386
18.083	30.2851
18.883	30.7811
20.0163	31.1284
