Adsorption isotherm of Carbon Dioxide on NJU-Bai12
DOI: 10.1021/Ic301598n
Adsorbate Carbon Dioxide: InChIKey CURLTUGMZLYLDI-UHFFFAOYSA-N
Temperature: 298 K
Tabular data in the source: 0
pressure (bar)	uptake (mmol/g)
0.0842092	-0.00749964
0.543033	0.149811
1.36892	0.359559
2.28656	0.726618
3.34186	0.936366
4.07597	1.25099
5.3148	1.67048
6.5995	1.98511
8.11362	2.24729
9.76539	2.61435
11.463	2.92897
13.2524	3.24359
14.7207	3.55821
16.143	3.87284
17.2442	4.03015
18.6207	4.2399
19.5842	4.39721
19.9972	4.55452
