Adsorption isotherm of Hydrogen on NJU-Bai12
DOI: 10.1021/Ic301598n
Adsorbate Hydrogen: InChIKey UFHFLCQGNIYNRP-UHFFFAOYSA-N
Temperature: 77 K
Tabular data in the source: 0
pressure (bar)	uptake (mmol/g)
9.08e-05	0.000875641
0.00442244	0.42518
0.0150824	0.758514
0.0257424	1.10851
0.0381791	1.52518
0.0541691	1.92518
0.0808191	2.47518
0.102139	2.92518
0.128789	3.35851
0.160769	3.77518
0.212292	4.44185
0.263816	5.02518
0.341989	5.70851
0.427269	6.37518
0.505442	6.85851
0.588946	7.40851
0.668896	7.85851
0.748846	8.29185
0.832349	8.69185
0.908746	9.04185
0.947832	9.19185
0.981589	9.37518
1.02423	9.52518
1.04733	9.64185
1.07575	9.72518
