Adsorption isotherm of Nitrogen on NJU-Bai12
DOI: 10.1021/Ic301598n
Adsorbate Nitrogen: InChIKey IJGRMHOSHXDMSA-UHFFFAOYSA-N
Temperature: 298 K
Tabular data in the source: 0
pressure (bar)	uptake (mmol/g)
0.0842092	-0.00749964
0.726562	0.0449373
1.32303	0.202248
2.10303	0.359559
2.65362	0.51687
4.03009	0.779055
5.08539	0.988803
6.04891	1.19855
6.96656	1.35586
7.93009	1.46074
9.07715	1.67048
9.94892	1.82779
11.0042	2.03754
12.1513	2.19485
13.3442	2.35216
14.1701	2.50948
15.2254	2.66679
16.143	2.8241
17.1066	2.87653
18.1619	3.03384
18.9877	3.19116
20.1348	3.19116
