Adsorption isotherm of Methane on NJU-Bai12
DOI: 10.1021/Ic301598n
Adsorbate Methane: InChIKey VNWKTOKETHGBQD-UHFFFAOYSA-N
Temperature: 298 K
Tabular data in the source: 0
pressure (bar)	uptake (mmol/g)
0.0842092	-0.00749964
0.588915	0.411996
1.09362	0.779055
1.96539	1.25099
2.65362	1.56561
3.84656	2.03754
4.90186	2.56191
6.46186	3.19116
8.02186	3.71553
9.30656	4.18746
11.7842	5.07889
12.9771	5.55082
14.5372	6.02275
16.4183	6.59956
17.8407	6.91418
18.8501	7.2288
20.1348	7.43855
