Adsorption isotherm of Nitrogen on MIL-100(Fe)
DOI: 10.1021/acsami.6b00608
Article source: Figure 2
Adsorbate Nitrogen: InChIKey IJGRMHOSHXDMSA-UHFFFAOYSA-N
Kind: experiment
Temperature: 77 K
Tabular data in the source: 0
pressure (bar)	uptake (cm3(STP)/g)
0.001034	197.129
0.00491	290.078
0.009319	317.98
0.018572	344.398
0.030544	366.772
0.040396	381.551
0.050245	403.264
0.05279	412.262
0.065103	434.306
0.071984	440.334
0.087697	457.756
0.091943	463.453
0.110206	481.289
0.115386	489.05
0.125741	507.374
0.13821	528.278
0.151899	532.738
0.154529	533.263
0.169971	537.919
0.17813	540.739
0.192225	541.202
0.200316	543.563
0.216757	543.741
0.234238	545.963
0.238444	546.666
0.257062	549.422
0.274833	549.532
0.294316	552.242
0.301381	552.245
0.317868	553.186
0.33735	553.712
0.357048	555.695
0.378138	556.533
0.396978	557.995
0.415377	558.701
0.421581	560.013
0.43453	559.624
0.460562	559.633
0.47796	561.08
0.50089	562.135
0.502912	562.136
0.51667	563.32
0.522335	563.583
0.543511	564.114
0.559022	565.037
0.566576	563.729
0.580198	564.781
0.602318	565.706
0.621336	565.843
0.627	566.631
0.639005	566.634
0.662339	566.642
0.682301	567.303
0.687965	567.829
0.701319	568.489
0.724113	568.496
0.742726	570.206
0.748716	569.818
0.761461	570.978
0.766049	570.979
0.782194	570.984
0.803945	570.991
0.809383	571.488
0.822809	571.493
0.828586	571.329
0.84456	571.665
0.851868	571.832
0.87141	572.169
0.883475	573.163
0.893842	573.001
0.902168	573.499
0.906077	574.161
0.922221	573.671
0.940744	574.997
0.950261	573.349
0.972522	575.007
0.980848	575.836
0.987307	575.838
1.006	576.834
