Adsorption isotherm of Nitrogen on AC
DOI: 10.1021/acsami.6b00608
Article source: Figure 2
Adsorbate Nitrogen: InChIKey IJGRMHOSHXDMSA-UHFFFAOYSA-N
Kind: experiment
Temperature: 77 K
Tabular data in the source: 0
pressure (bar)	uptake (cm3(STP)/g)
0.00209	169.134
0.008542	211.979
0.020352	223.456
0.029018	233.859
0.032503	232.951
0.041765	242.611
0.050518	246.823
0.069638	254.834
0.090967	261.36
0.093516	262.351
0.112296	266.317
0.113997	267.06
0.133372	269.705
0.136856	271.11
0.151217	274.249
0.152747	274.332
0.170763	277.472
0.173738	278.464
0.191668	281.274
0.213594	283.507
0.216313	284.416
0.235289	286.106
0.238661	286.959
0.2564	288.273
0.257682	289.125
0.275151	290.569
0.297895	293.017
0.300104	294.173
0.317102	294.341
0.336816	297.152
0.356703	298.806
0.377438	300.957
0.396304	302.777
0.41568	302.945
0.421458	305.093
0.436585	305.756
0.456981	306.586
0.458511	309.393
0.476697	307.58
0.480095	313.524
0.498792	311.382
0.501851	318.482
0.518916	311.78
0.522759	319.315
0.538274	312.897
0.543129	321.678
0.559926	314.998
0.56505	324.106
0.579486	316.509
0.59763	319.199
0.601608	326.472
0.61854	318.351
0.62353	327.066
0.641136	321.238
0.660359	322.356
0.662989	328.45
0.67965	323.08
0.682887	329.567
0.687406	330.617
0.700559	325.64
0.720929	325.709
0.723761	333.638
0.740962	329.513
0.742985	333.445
0.750404	334.822
0.761472	330.494
0.784926	334.551
0.785946	337.441
0.80341	332.285
0.805789	336.165
0.826058	333.857
0.830051	338.564
0.84641	337.122
0.850447	341.539
0.872556	343.232
0.884428	341.531
0.895153	344.809
0.897986	344.197
0.906498	343.783
0.92304	347.53
0.941154	345.146
0.950866	350.848
0.97061	352.17
0.984888	353.081
1.00384	357.708
