Adsorption isotherm of Nitrogen on MAF-6
DOI: 10.1021/acsami.6b00608
Article source: Figure 2
Adsorbate Nitrogen: InChIKey IJGRMHOSHXDMSA-UHFFFAOYSA-N
Kind: experiment
Temperature: 77 K
Tabular data in the source: 0
pressure (bar)	uptake (cm3(STP)/g)
0.001547	96.7
0.003903	195.445
0.009152	227.495
0.018684	263.501
0.031752	302.63
0.040126	323.752
0.05146	344.364
0.069454	356.026
0.091984	363.583
0.112557	367.557
0.132899	371.776
0.153142	374.277
0.173383	376.646
0.193356	379.016
0.212991	380.86
0.233841	382.771
0.254624	384.026
0.274528	385.281
0.29504	387.126
0.315418	388.447
0.335053	389.243
0.35624	389.843
0.376955	391.23
0.396455	391.894
0.41771	392.822
0.43613	394.142
0.457925	394.546
0.478504	395.276
0.498747	395.811
0.520677	396.345
0.522093	398.509
0.541661	398.06
0.544225	400.29
0.559946	397.937
0.566761	401.087
0.580638	398.254
0.600701	399.007
0.602657	402.064
0.620339	400.255
0.622039	402.238
0.641338	401.008
0.643208	403.817
0.65902	399.448
0.663441	404.735
0.682143	400.487
0.689161	404.685
0.703195	401.283
0.722494	401.423
0.724248	405.882
0.743141	402.22
0.744355	402.362
0.751372	407.599
0.765407	404.459
0.783768	403.294
0.785695	404.428
0.789016	409.331
0.805189	405.073
0.810438	409.654
0.824898	404.146
0.832396	412.162
0.844927	406.445
0.855317	414.566
0.883084	410.152
0.895363	419.859
0.90724	412.262
0.918305	424.065
0.923163	425.379
0.942283	418.33
0.951804	436.668
0.960986	423.789
0.974248	445.598
0.984959	437.345
1.00536	459.487
