Adsorption isotherm of Nitrogen on CuBTC
DOI: 10.1021/acsami.6b00608
Article source: Figure 2
Adsorbate Nitrogen: InChIKey IJGRMHOSHXDMSA-UHFFFAOYSA-N
Kind: experiment
Temperature: 77 K
Tabular data in the source: 0
pressure (bar)	uptake (cm3(STP)/g)
0.003477	308.749
0.009361	316.764
0.023168	319.995
0.030339	322.703
0.042219	325.413
0.050353	327.081
0.071973	332.811
0.094129	335.94
0.113931	337.612
0.135445	339.492
0.138549	340.95
0.154711	341.787
0.171088	342.625
0.173872	342.313
0.193565	345.234
0.195386	343.777
0.215013	344.066
0.217306	345.247
0.235242	343.679
0.239018	345.909
0.256146	343.947
0.257628	346.177
0.276509	347.363
0.296469	346.32
0.30166	348.288
0.319394	349.081
0.337533	349.283
0.356854	349.572
0.376056	348.504
0.379198	350.818
0.398058	351.155
0.403581	350.578
0.418958	351.078
0.437648	350.919
0.459567	353.073
0.479361	353.244
0.500444	351.103
0.502062	352.545
0.519462	352.183
0.52184	353.092
0.540531	352.024
0.542654	353.759
0.55996	350.757
0.564883	353.152
0.579782	353.358
0.601955	355.099
0.62158	354.444
0.625487	354.528
0.641104	354.686
0.661325	355.471
0.663519	356.357
0.683921	356.01
0.688844	356.208
0.702375	355.328
0.724371	356.427
0.745243	356.434
0.749531	356.882
0.762816	355.641
0.766187	356.101
0.784865	355.647
0.786552	356.369
0.805567	355.523
0.808062	356.572
0.826005	354.949
0.829913	356.303
0.843989	354.902
0.854588	357.439
0.878391	358.954
0.882398	356.506
0.901924	359.289
0.905252	357.587
0.924986	359.69
0.942462	358.755
0.952147	361.236
0.962513	358.596
0.976444	362.234
0.985111	359.429
1.00524	364.391
