Adsorption isotherm of Carbon Dioxide on MIL-91(Al)
DOI: 10.1021/jp512596u
Article source: Figure 2
Adsorbate Carbon Dioxide: InChIKey CURLTUGMZLYLDI-UHFFFAOYSA-N
Kind: experiment
Temperature: 303 K
Tabular data in the source: 0
pressure (bar)	uptake (mmol/g)
0	0
0.078072	0.372549
0.137435	1.2549
0.159381	0.656863
0.302572	1.7549
0.311207	1.51961
0.330995	0.980392
0.389279	1.89216
0.556935	2.32353
0.56413	2.12745
0.826408	2.48039
0.997302	2.82353
1.99604	3.10784
3.4535	3.39216
5.37003	3.66667
6.8354	3.73529
7.75031	3.80392
10.1331	3.87255
11.6928	3.87255
12.9757	3.91176
15.9101	3.95098
18.9372	3.96078
21.2294	4
25.1743	4
29.3017	4.02941
33.4298	4.03922
37.4661	4.04902
41.5024	4.05882
46.7314	4.06863
