Adsorption isotherm of Carbon Dioxide on MIL-91(Al)-second cycle
DOI: 10.1021/jp512596u
Article source: Figure 3
Adsorbate Carbon Dioxide: InChIKey CURLTUGMZLYLDI-UHFFFAOYSA-N
Kind: experiment
Temperature: 303 K
Tabular data in the source: 0
pressure (bar)	uptake (mmol/g)
0	0
0	0.005365
0.022774	0.048509
0.062112	0.12399
0.178054	0.479452
0.204969	0.5925
0.248447	0.909938
0.26501	1.1197
0.291925	1.27039
0.354037	1.52341
0.401656	1.60431
0.47619	1.80364
0.507246	1.87907
0.587992	2.05155
0.614907	2.08933
0.637681	2.15397
0.695652	2.21879
0.757764	2.33203
0.792961	2.34835
0.850932	2.45081
0.89648	2.47256
0.942029	2.55883
1.01449	2.62911
