Adsorption isotherm of Methane on MIL-91(Al)
DOI: 10.1021/jp512596u
Article source: Figure 3
Adsorbate Methane: InChIKey VNWKTOKETHGBQD-UHFFFAOYSA-N
Kind: experiment
Temperature: 303 K
Tabular data in the source: 0
pressure (bar)	uptake (mmol/g)
6e-06	0.005365
0.059255	0.026559
0.113343	0.037047
0.239545	0.057942
0.316836	0.09515
0.422437	0.116137
0.499701	0.126521
0.579546	0.142259
0.636214	0.1581
0.703178	0.16853
0.757271	0.184383
0.83196	0.194778
0.904085	0.215915
0.976204	0.231687
