Adsorption isotherm of Nitrogen on MIL-91(Al)
DOI: 10.1021/jp512596u
Article source: Figure 3
Adsorbate Nitrogen: InChIKey IJGRMHOSHXDMSA-UHFFFAOYSA-N
Kind: experiment
Temperature: 303 K
Tabular data in the source: 0
pressure (bar)	uptake (mmol/g)
0	0
6e-06	0.005353
0.255499	0.01492
0.505843	0.035217
0.756175	0.044806
0.99876	0.049078
1.24136	0.069409
