Adsorption isotherm of Carbon Dioxide on MIL-91(Al)-first cycle
DOI: 10.1021/jp512596u
Article source: Figure 3
Adsorbate Carbon Dioxide: InChIKey CURLTUGMZLYLDI-UHFFFAOYSA-N
Kind: experiment
Temperature: 303 K
Tabular data in the source: 0
pressure (bar)	uptake (mmol/g)
0	0
0.070133	0.139485
0.117565	0.246781
0.14634	0.429185
0.166925	0.520386
0.208075	0.729614
0.249122	1.06223
0.251312	0.912017
0.308915	1.21245
0.347923	1.51288
0.368642	1.44313
0.374707	1.60408
0.403668	1.56116
0.448928	1.79721
0.471686	1.75966
0.545867	2.00107
0.587189	2.00107
0.614009	2.04936
0.657291	2.17811
0.69241	2.18348
0.743997	2.26395
0.791491	2.29614
0.845157	2.36052
0.888532	2.37661
0.935999	2.44099
1.01448	2.47854
