Adsorption isotherm of Carbon Dioxide on MIL-91(Al)-third cycle
DOI: 10.1021/jp512596u
Article source: Figure 3
Adsorbate Carbon Dioxide: InChIKey CURLTUGMZLYLDI-UHFFFAOYSA-N
Kind: experiment
Temperature: 303 K
Tabular data in the source: 0
pressure (bar)	uptake (mmol/g)
0	0
0.022752	0.026824
0.043416	0.075107
0.055807	0.112661
0.109549	0.219957
0.163228	0.402361
0.17557	0.498927
0.175619	0.439914
0.204387	0.70279
0.20863	0.579399
0.249678	1.01395
0.255982	0.901288
0.28898	1.05687
0.29504	1.23927
0.303384	1.16416
0.354877	1.48605
0.367344	1.4324
0.371387	1.55043
0.39417	1.5397
0.443673	1.76502
0.466398	1.82403
0.474747	1.74356
0.507815	1.8133
0.538751	1.95815
0.609113	1.99571
0.656635	2.11373
0.714575	2.15129
0.749722	2.2103
0.799385	2.24249
0.844885	2.3015
0.894548	2.33369
0.937999	2.36588
1.01251	2.39807
