Adsorption isotherm of Carbon Dioxide on MIL-91(Al)
DOI: 10.1021/jp512596u
Article source: Figure 3
Adsorbate Carbon Dioxide: InChIKey CURLTUGMZLYLDI-UHFFFAOYSA-N
Kind: experiment
Temperature: 303 K
Tabular data in the source: 0
pressure (bar)	uptake (mmol/g)
0	0.005376
0.038384	0.075269
0.074205	0.150538
0.153466	0.370968
0.212148	0.655914
0.252947	0.876344
0.257943	1.00538
0.296124	1.27957
0.35228	1.52688
0.400794	1.72581
0.462134	1.91935
0.518401	2.05914
0.579813	2.1828
0.654028	2.32258
0.725735	2.4086
0.802559	2.50538
1.25867	2.7957
