Adsorption isotherm of Methane on MIL-91(Al)
DOI: 10.1021/jp512596u
Article source: Figure 2
Adsorbate Methane: InChIKey VNWKTOKETHGBQD-UHFFFAOYSA-N
Kind: experiment
Temperature: 303 K
Tabular data in the source: 0
pressure (bar)	uptake (mmol/g)
0	-1.8e-05
1.08454	0.225261
2.5347	0.450594
6.17648	0.715494
9.00472	0.813895
11.377	0.892637
13.7498	0.961595
17.5846	1.04062
21.0581	1.0413
24.2568	1.05171
26.9957	1.11096
29.553	1.1506
33.0254	1.17085
36.1316	1.20081
38.5958	1.26978
41.3369	1.28989
43.6183	1.35883
46.0842	1.39845
