Adsorption isotherm of Nitrogen on MIL-91(Al)
DOI: 10.1021/jp512596u
Article source: Figure 2
Adsorbate Nitrogen: InChIKey IJGRMHOSHXDMSA-UHFFFAOYSA-N
Kind: experiment
Temperature: 303 K
Tabular data in the source: 0
pressure (bar)	uptake (mmol/g)
0	0
0.733047	0.048924
2.10848	0.088063
3.4839	0.127202
3.9419	0.166341
5.22505	0.234834
8.25078	0.332681
11.3686	0.410959
14.6697	0.499022
17.6962	0.55773
20.7225	0.626223
23.8412	0.655577
26.8678	0.704501
29.8944	0.753425
33.0126	0.812133
35.8563	0.831703
39.1583	0.870841
42.1853	0.900196
45.1206	0.92955
48.2391	0.968689
