Adsorption isotherm of Carbon Dioxide on ONC1000
DOI: 10.1016/j.jssc.2012.08.035
Article source: Figure 6
Adsorbate Carbon Dioxide: InChIKey CURLTUGMZLYLDI-UHFFFAOYSA-N
Isotherm type: excess
Temperature: 298 K
Tabular data in the source: 0
pressure (bar)	uptake (mg/g)
0.257481	24.3085
0.499467	191.584
0.512654	69.91
0.856841	94.2097
1.11465	115.476
1.27554	231.049
1.97974	133.64
2.05358	252.263
2.5725	264.378
2.93185	148.752
3.61166	276.44
3.71122	157.799
4.21728	288.546
4.66367	169.869
5.61612	181.94
6.46999	303.526
6.48252	187.936
7.17518	196.991
8.215	202.969
8.82194	202.908
9.15591	321.505
9.86142	211.928
10.5544	217.941
11.3222	333.453
11.5075	223.928
12.4603	232.957
13.2403	235.92
14.0091	342.306
14.0194	248.008
15.1465	247.894
15.8392	256.949
16.1755	354.253
16.6186	265.996
17.6584	271.974
18.6026	360.091
18.6115	277.961
19.2181	280.941
19.8244	286.963
19.9111	286.955
20.6901	299.043
21.0287	375.054
21.7299	305.021
22.596	314.059
23.2026	317.039
23.2834	371.784
24.0684	329.119
24.9351	332.072
25.7102	380.663
25.7148	338.077
26.5802	353.198
27.2725	365.296
27.9655	371.309
28.0503	389.551
28.9183	380.338
29.5239	392.444
30.477	398.431
