Adsorption isotherm of Carbon Dioxide on ONC900
DOI: 10.1016/j.jssc.2012.08.035
Article source: Figure 6
Adsorbate Carbon Dioxide: InChIKey CURLTUGMZLYLDI-UHFFFAOYSA-N
Isotherm type: excess
Temperature: 298 K
Tabular data in the source: 0
pressure (bar)	uptake (mg/g)
0.272279	97.7099
0.378129	268.702
0.711655	128.244
1.06315	152.672
1.08246	329.771
1.87134	366.412
1.93891	186.26
2.57134	387.786
2.90121	213.74
3.4461	412.214
3.77496	229.008
4.23165	418.321
4.56218	250.382
5.34806	259.542
6.30836	268.702
6.50342	458.015
7.09491	283.969
7.969	302.29
8.8614	488.55
8.92997	317.557
9.89027	326.718
10.5889	335.878
11.219	516.031
11.6368	348.092
12.3355	357.252
13.2085	366.412
13.4878	528.244
14.1698	384.733
14.9557	393.893
15.8288	403.053
16.1071	555.725
16.6147	412.214
17.4013	427.481
18.1871	436.641
18.5513	577.099
19.1478	448.855
20.0212	461.069
20.7209	479.389
20.9083	598.473
21.5067	488.55
22.0307	494.656
23.2539	516.031
23.2652	619.847
23.9553	549.618
24.9149	552.672
25.7084	632.061
25.7883	564.885
26.4887	589.313
27.3631	610.687
28.149	619.847
28.1523	650.382
28.8486	638.168
29.549	662.595
30.4237	687.023
