Adsorption isotherm of Carbon Dioxide on ONC800
DOI: 10.1016/j.jssc.2012.08.035
Article source: Figure 6
Adsorbate Carbon Dioxide: InChIKey CURLTUGMZLYLDI-UHFFFAOYSA-N
Isotherm type: excess
Temperature: 298 K
Tabular data in the source: 0
pressure (bar)	uptake (mg/g)
0.433526	79.3452
0.953757	112.88
1.04046	354.093
1.21387	125.067
1.7341	384.556
1.99422	158.576
2.60116	402.789
2.94798	176.799
3.3815	414.923
3.81503	188.925
4.07514	436.226
4.76879	201.041
5.46243	213.184
6.41618	225.301
6.50289	460.407
7.19653	231.329
8.15029	240.392
8.84393	475.436
9.01734	246.41
9.71098	252.447
10.6647	261.51
11.185	487.411
11.4451	270.591
12.4855	282.699
13.1792	288.735
13.7861	505.467
13.9595	294.762
15.1734	309.906
15.7803	319.005
16.1272	514.389
16.6474	331.13
17.341	337.166
18.2948	343.176
19.0751	358.364
19.9422	367.436
20.7225	541.402
20.8092	376.508
21.5896	388.642
22.4566	394.661
23.1503	550.315
23.3237	412.893
23.9306	428.099
24.8844	449.376
25.4913	470.688
26.2717	482.822
27.2254	497.992
27.8324	568.16
28.0058	519.287
28.8728	543.626
29.5665	561.876
30.2601	583.18
