Adsorption isotherm of Nitrogen on ONC1000
DOI: 10.1016/j.jssc.2012.08.035
Article source: Figure 2
Adsorbate Nitrogen: InChIKey IJGRMHOSHXDMSA-UHFFFAOYSA-N
Isotherm type: excess
Temperature: 77 K
Tabular data in the source: 0
pressure (bar)	uptake (cm3(STP)/g)
0.009305	118.182
0.022656	130.909
0.031544	136.364
0.051519	141.818
0.078139	145.455
0.100337	152.727
0.124733	154.545
0.15357	158.182
0.180182	160
0.204585	163.636
0.233421	167.273
0.2556	169.091
0.280003	172.727
0.30884	176.364
0.35542	181.818
0.404238	192.727
0.408659	189.091
0.450853	207.273
0.464109	194.545
0.468617	214.545
0.49994	290.909
0.510703	203.636
0.544324	301.818
0.555081	212.727
0.590918	310.909
0.603918	229.091
0.639702	312.727
0.659449	256.364
0.681829	312.727
0.699486	290.909
0.735048	314.545
0.754996	312.727
0.78605	316.364
0.823742	316.364
0.876948	314.545
0.92795	316.364
0.967858	316.364
1.00556	318.182
