Adsorption isotherm of Nitrogen on ONC700
DOI: 10.1016/j.jssc.2012.08.035
Article source: Figure 2
Adsorbate Nitrogen: InChIKey IJGRMHOSHXDMSA-UHFFFAOYSA-N
Isotherm type: excess
Temperature: 77 K
Tabular data in the source: 0
pressure (bar)	uptake (cm3(STP)/g)
0.024336	169.091
0.033185	172.727
0.042034	176.364
0.057521	180
0.075219	187.273
0.099555	194.545
0.126103	196.364
0.148226	203.636
0.176986	209.091
0.201323	209.091
0.230083	216.364
0.252206	218.182
0.276542	223.636
0.309727	227.273
0.351762	234.545
0.402645	241.818
0.455742	249.091
0.504413	258.182
0.555296	336.364
0.559721	270.909
0.597331	285.455
0.610605	385.455
0.639365	396.364
0.652639	321.818
0.685824	400
0.701311	370.909
0.732283	400
0.763256	400
0.783167	401.818
0.818564	405.455
0.831839	403.636
0.873872	405.455
0.922544	407.273
0.953517	407.273
0.97564	407.273
0.995552	407.273
1.00882	407.273
