Adsorption isotherm of Nitrogen on ONC800
DOI: 10.1016/j.jssc.2012.08.035
Article source: Figure 2
Adsorbate Nitrogen: InChIKey IJGRMHOSHXDMSA-UHFFFAOYSA-N
Isotherm type: excess
Temperature: 77 K
Tabular data in the source: 0
pressure (bar)	uptake (cm3(STP)/g)
0.022172	174.545
0.028823	181.818
0.044344	185.455
0.077601	198.182
0.104208	201.818
0.128597	207.273
0.148551	210.909
0.177374	216.364
0.199546	221.818
0.230586	225.455
0.254975	229.091
0.277147	234.545
0.294884	236.364
0.308188	240
0.348097	245.455
0.399092	254.545
0.403526	252.727
0.44787	265.455
0.452304	260
0.507733	270.909
0.512167	329.091
0.552077	352.727
0.556511	281.818
0.605289	300
0.607506	398.182
0.640764	416.364
0.660719	334.545
0.685108	425.455
0.700628	378.182
0.733886	423.636
0.760492	420
0.784881	429.091
0.820356	427.273
0.833659	429.091
0.873567	429.091
0.900174	429.091
0.92678	430.909
0.951169	432.727
0.975558	432.727
1.0066	436.364
