Adsorption isotherm of Nitrogen on ONC900
DOI: 10.1016/j.jssc.2012.08.035
Article source: Figure 2
Adsorbate Nitrogen: InChIKey IJGRMHOSHXDMSA-UHFFFAOYSA-N
Isotherm type: excess
Temperature: 77 K
Tabular data in the source: 0
pressure (bar)	uptake (cm3(STP)/g)
0.00731	178.182
0.02066	190.909
0.03399	198.182
0.053971	205.455
0.076163	210.909
0.105013	218.182
0.127205	223.636
0.153826	227.273
0.180445	230.909
0.202643	238.182
0.23148	241.818
0.251455	247.273
0.278074	250.909
0.304694	254.545
0.349071	263.636
0.360157	263.636
0.400106	274.545
0.404527	270.909
0.451156	289.091
0.455569	283.636
0.506584	289.091
0.506739	330.909
0.553388	354.545
0.557647	307.273
0.606485	323.636
0.609086	427.273
0.646959	476.364
0.664273	361.818
0.686888	481.818
0.708851	425.455
0.740114	485.455
0.757811	474.545
0.788898	487.273
0.817708	483.636
0.835466	489.091
0.877579	485.455
0.884244	489.091
0.92416	490.909
0.959635	490.909
0.975162	492.727
1.00177	494.545
