Adsorption isotherm of Carbon Dioxide on ONC700
DOI: 10.1016/j.jssc.2012.08.035
Article source: Figure 6
Adsorbate Carbon Dioxide: InChIKey CURLTUGMZLYLDI-UHFFFAOYSA-N
Isotherm type: excess
Temperature: 298 K
Tabular data in the source: 0
pressure (bar)	uptake (mg/g)
0.321169	245.244
1.01082	300.486
1.79009	331.217
1.8977	141.19
2.65797	346.632
2.85154	165.809
3.43858	365.102
3.80639	181.232
4.21984	377.443
4.93514	196.673
6.41172	212.149
6.56398	411.399
7.36757	218.377
8.23612	227.661
8.99707	426.973
9.10468	236.946
9.79932	246.212
10.5813	252.422
11.2559	445.594
11.4498	261.706
12.3184	270.99
13.1	280.266
13.8629	461.187
14.0548	295.689
14.8368	301.899
15.7916	317.322
15.9488	470.595
16.4866	323.524
17.4411	342.012
18.3103	345.166
18.4686	489.243
19.2655	357.524
19.9605	363.725
20.7287	495.604
20.7411	382.196
21.6956	400.684
22.3906	406.885
23.2495	505.057
23.3467	410.048
23.8671	422.362
24.9083	443.924
25.5083	523.679
25.6899	453.199
26.3845	462.466
27.2527	474.815
27.9411	542.318
28.0333	493.286
28.8136	514.821
29.5939	536.357
30.2882	548.688
