Adsorption isotherm of Carbon Dioxide on C78H54N18O13Zn4
DOI: 10.1039/C1dt11431j
Adsorbate Carbon Dioxide: InChIKey CURLTUGMZLYLDI-UHFFFAOYSA-N
Temperature: 298 K
Tabular data in the source: 0
pressure (bar)	uptake (cm3(STP)/g)
0.180038	0.0425869
0.804939	0.597132
1.07334	0.789061
1.9683	1.40749
3.22306	2.13243
5.19576	3.19845
8.70154	4.41304
12.8446	5.22181
16.3608	5.62542
23.3983	6.04849
28.2725	6.17394
35.0432	6.27703
40.2808	6.23156
