Adsorption isotherm of Carbon Dioxide on C78H54N18O13Zn4
DOI: 10.1039/C1dt11431j
Adsorbate Carbon Dioxide: InChIKey CURLTUGMZLYLDI-UHFFFAOYSA-N
Temperature: 298 K
Tabular data in the source: 0
pressure (bar)	uptake (cm3(STP)/g)
0.357322	0.29859
0.625176	0.533203
1.07279	0.831745
1.87635	1.53558
2.77269	2.0473
5.10327	3.36923
8.33789	4.60531
12.3912	5.37144
16.1781	5.79625
24.2093	6.17611
27.8199	6.25955
30.7994	6.2793
36.759	6.25478
40.4622	6.16744
