Adsorption isotherm of Nitrogen on C78H54N18O13Zn4
DOI: 10.1039/C1dt11431j
Adsorbate Nitrogen: InChIKey IJGRMHOSHXDMSA-UHFFFAOYSA-N
Temperature: 77 K
Tabular data in the source: 0
pressure (bar)	uptake (cm3(STP)/g)
0.00137577	151.24
0.0043754	180.992
0.00451073	195.868
0.0101153	211.983
0.0211327	223.14
0.0402808	228.099
0.0594514	235.537
0.0840348	238.017
0.125015	242.975
0.138671	244.215
0.157808	247.934
0.179628	246.694
0.217857	249.174
0.234242	250.413
0.275199	252.893
0.307947	252.893
0.332508	252.893
0.351634	255.372
0.430786	256.612
0.488094	256.612
0.545414	257.851
0.605463	259.091
0.64368	260.331
0.703718	260.331
0.76105	262.81
0.801996	264.05
0.826557	264.05
0.845671	265.289
0.87569	265.289
0.903002	267.769
0.924868	271.488
0.949485	277.686
0.963277	293.802
0.965927	285.124
0.968825	303.719
