Adsorption isotherm of Nitrogen on TAH-CCOF2
DOI: 10.1002/anie.201903534
Article source: Figure S2
Adsorbate Nitrogen: InChIKey IJGRMHOSHXDMSA-UHFFFAOYSA-N
Kind: experiment
Temperature: 77 K
Tabular data in the source: 0
pressure (bar)	uptake (cm3(STP)/g)
0.002418	34.5679
0.004837	49.6914
0.012091	60.4938
0.016928	69.1358
0.026601	77.7778
0.038692	84.2593
0.053202	92.9012
0.05562	95.0617
0.079803	101.543
0.101567	110.185
0.120913	116.667
0.140259	120.988
0.162023	127.469
0.183788	136.111
0.200715	146.914
0.246662	175
0.299864	190.123
0.355484	196.605
0.428032	198.765
0.454632	203.086
0.507834	207.407
0.556199	211.728
0.606983	213.889
0.657766	218.21
0.710968	222.531
0.759333	229.012
0.812535	235.494
0.829462	239.815
0.8609	246.296
0.885082	252.778
0.911683	267.901
0.933447	287.346
0.960048	321.914
0.979394	399.691
0.993904	483.951
1.00358	572.531
1.01083	648.148
0.99874	589.815
0.991486	529.321
0.984231	481.79
0.962467	395.37
0.935866	328.395
0.914101	291.667
0.889919	274.383
0.868155	263.58
0.839135	254.938
0.812535	248.457
0.756915	237.654
0.70855	231.173
0.657766	229.012
0.606983	224.691
0.556199	222.531
0.510252	216.049
0.457051	213.889
0.403849	211.728
0.353066	200.926
0.299864	200.926
0.258754	192.284
0.234571	177.16
0.210388	159.877
0.195879	155.556
0.176533	146.914
0.16686	142.593
0.142677	129.63
0.094312	120.988
0.077384	114.506
0.060456	105.864
0.050783	99.3827
0.038692	92.9012
0.026601	86.4198
0.016928	77.7778
