Adsorption isotherm of Nitrogen on SAH-CCOF1-Boc
DOI: 10.1002/anie.201903534
Article source: Figure S2
Adsorbate Nitrogen: InChIKey IJGRMHOSHXDMSA-UHFFFAOYSA-N
Kind: experiment
Temperature: 77 K
Tabular data in the source: 0
pressure (bar)	uptake (cm3(STP)/g)
0	35.6436
0.002424	42.5743
0.004848	50.495
0.009696	58.4158
0.019392	66.3366
0.026664	71.2871
0.036361	77.2277
0.046057	81.1881
0.058177	85.1485
0.077569	91.0891
0.099386	96.0396
0.118778	102.97
0.140594	107.921
0.162411	111.881
0.181803	118.812
0.198772	125.743
0.247252	148.515
0.300581	168.317
0.356334	174.257
0.429056	177.228
0.479961	180.198
0.506625	181.188
0.559954	183.168
0.630251	185.149
0.681156	186.139
0.707821	188.119
0.76115	189.109
0.833871	191.089
0.860535	192.079
0.8872	194.059
0.91144	196.04
0.935681	197.03
0.959921	200.99
0.984161	206.931
0.991434	209.901
1.00113	225.743
1.0084	248.515
0.991434	216.832
0.972041	210.891
0.942953	207.921
0.913864	206.931
0.892048	205.941
0.865383	205.941
0.836295	204.951
0.787814	206.931
0.763574	206.931
0.68358	205.941
0.656916	204.951
0.606011	205.941
0.533289	204.951
0.506625	205.941
0.458144	202.97
0.407239	201.98
0.332094	199.01
0.303005	197.03
0.256949	183.168
0.223012	167.327
0.21574	164.356
0.20362	158.416
0.174531	148.515
0.159987	143.564
0.145443	139.604
0.099386	127.723
0.072721	119.802
0.060601	113.861
0.050905	108.911
0.041209	104.95
0.031513	100
0.019392	92.0792
0.009696	84.1584
0.004848	76.2376
0.002424	68.3168
