Adsorption isotherm of Nitrogen on MH-CCOF2
DOI: 10.1002/anie.201903534
Article source: Figure S2
Adsorbate Nitrogen: InChIKey IJGRMHOSHXDMSA-UHFFFAOYSA-N
Kind: experiment
Temperature: 77 K
Tabular data in the source: 0
pressure (bar)	uptake (cm3(STP)/g)
0	43.6137
0	48.5981
0.004848	56.0748
0.004848	62.3053
0.009696	72.2741
0.019392	83.4891
0.02424	88.4735
0.033937	90.9657
0.038785	93.4579
0.048481	98.4424
0.053329	103.427
0.077569	112.15
0.099386	119.626
0.118778	125.857
0.162411	139.564
0.181803	145.794
0.198772	152.025
0.13817	133.333
0.247252	183.178
0.324822	226.791
0.375727	234.268
0.426632	239.252
0.45572	242.991
0.501777	244.237
0.555106	247.975
0.606011	250.467
0.65934	254.206
0.710245	255.452
0.756301	257.944
0.812054	262.928
0.831447	264.174
0.860535	266.667
0.8872	269.159
0.913864	270.405
0.938105	275.389
0.964769	282.866
0.986586	294.081
0.991434	301.558
0.998706	322.741
1.00598	353.894
0.991434	316.511
0.986586	296.573
0.976889	295.327
0.942953	284.112
0.913864	280.374
0.889624	279.128
0.865383	277.882
0.838719	276.636
0.812054	275.389
0.787814	274.143
0.758725	272.897
0.707821	270.405
0.656916	269.159
0.606011	266.667
0.555106	265.421
0.506625	262.928
0.45572	260.436
0.402391	256.698
0.35391	252.96
0.303005	246.729
0.256949	226.791
0.230284	191.9
0.206044	180.685
0.181803	169.47
0.150291	160.748
0.140594	157.009
0.099386	143.302
0.072721	132.087
0.060601	125.857
0.050905	120.872
0.043633	117.134
0.031513	110.903
0.019392	102.181
0.009696	90.9657
0.004848	82.243
