Adsorption isotherm of Nitrogen on MH-CCOF3
DOI: 10.1002/anie.201903534
Article source: Figure S2
Adsorbate Nitrogen: InChIKey IJGRMHOSHXDMSA-UHFFFAOYSA-N
Kind: experiment
Temperature: 77 K
Tabular data in the source: 0
pressure (bar)	uptake (cm3(STP)/g)
0	24.5283
0	30.1887
0.007272	36.7925
0.009696	43.3962
0.021816	50
0.033937	55.6604
0.038785	58.4906
0.043633	60.3774
0.053329	62.2642
0.060601	64.1509
0.082417	69.8113
0.10181	74.5283
0.118778	78.3019
0.140594	82.0755
0.162411	85.8491
0.181803	89.6226
0.201196	94.3396
0.2521	112.264
0.298157	138.679
0.35391	142.453
0.426632	147.17
0.479961	150
0.506625	150.943
0.55753	153.774
0.608435	155.66
0.656916	157.547
0.707821	160.377
0.756301	162.264
0.80963	164.151
0.826599	166.038
0.860535	168.868
0.884776	170.755
0.909016	173.585
0.933257	177.358
0.957497	182.075
0.986586	195.283
0.98901	204.717
0.996282	225.472
1.00355	246.226
0.98901	214.151
0.942953	188.679
0.913864	184.906
0.889624	183.019
0.865383	181.132
0.838719	180.189
0.814478	178.302
0.787814	178.302
0.763574	178.302
0.707821	177.358
0.65934	174.528
0.608435	175.472
0.55753	173.585
0.506625	172.642
0.458144	169.811
0.407239	167.925
0.32967	166.038
0.305429	164.151
0.256949	148.113
0.22786	128.302
0.213316	122.642
0.181803	116.038
0.150291	109.434
0.145443	107.547
0.099386	98.1132
0.072721	90.566
0.063025	88.6792
0.053329	84.9057
0.043633	81.1321
0.033937	77.3585
0.02424	70.7547
0.009696	60.3774
0.009696	56.6038
0.004848	54.717
0.004848	50.9434
