Adsorption isotherm of Nitrogen on MH-CCOF1
DOI: 10.1002/anie.201903534
Article source: Figure S2
Adsorbate Nitrogen: InChIKey IJGRMHOSHXDMSA-UHFFFAOYSA-N
Kind: experiment
Temperature: 77 K
Tabular data in the source: 0
pressure (bar)	uptake (cm3(STP)/g)
0	59.0062
0	68.323
0.004848	80.7453
0.009696	93.1677
0.019392	105.59
0.029089	118.012
0.038785	121.118
0.048481	130.435
0.058177	133.54
0.077569	149.068
0.10181	158.385
0.121202	167.702
0.140594	177.019
0.159987	189.441
0.184227	195.652
0.20362	204.969
0.2521	226.708
0.300581	326.087
0.368455	341.615
0.421783	350.932
0.45572	354.037
0.509049	357.143
0.55753	360.248
0.608435	361.801
0.65934	363.354
0.710245	366.46
0.76115	366.46
0.80963	369.565
0.831447	371.118
0.862959	372.671
0.884776	374.224
0.91144	375.776
0.938105	378.882
0.964769	383.54
0.984161	391.304
0.993858	400.621
1.00355	419.255
1.0084	450.311
0.998706	420.807
0.984161	397.516
0.945377	385.093
0.916288	381.988
0.889624	381.988
0.867807	381.988
0.843567	378.882
0.812054	378.882
0.758725	375.776
0.707821	374.224
0.65934	372.671
0.606011	369.565
0.55753	368.012
0.509049	366.46
0.45572	360.248
0.402391	361.801
0.358758	352.484
0.303005	341.615
0.247252	242.236
0.220588	225.155
0.196347	215.839
0.174531	204.969
0.157563	197.205
0.143019	190.994
0.096962	167.702
0.072721	153.727
0.063025	149.068
0.058177	145.963
0.046057	136.646
0.033937	128.882
