Adsorption isotherm of Nitrogen on MH-CCOF4
DOI: 10.1002/anie.201903534
Article source: Figure S2
Adsorbate Nitrogen: InChIKey IJGRMHOSHXDMSA-UHFFFAOYSA-N
Kind: experiment
Temperature: 77 K
Tabular data in the source: 0
pressure (bar)	uptake (cm3(STP)/g)
0	19.4805
0	22.4026
0.004848	29.2208
0.009696	31.1688
0.019392	37.013
0.026664	39.4481
0.033937	41.3961
0.041209	42.8571
0.050905	44.3182
0.060601	45.2922
0.077569	48.7013
0.099386	51.6234
0.118778	53.5714
0.13817	56.4935
0.162411	59.4156
0.181803	62.3377
0.201196	66.2338
0.269069	83.2792
0.324822	84.7403
0.358758	85.2273
0.404815	85.7143
0.45572	86.6883
0.506625	86.6883
0.555106	87.1753
0.606011	87.6623
0.65934	88.1494
0.707821	88.6364
0.756301	89.6104
0.812054	90.0974
0.829023	90.5844
0.860535	91.0714
0.884776	92.0455
0.91144	93.0195
0.938105	94.4805
0.959921	96.4286
0.986586	102.273
0.993858	108.117
1.00113	119.805
1.00598	137.825
0.993858	122.24
0.986586	110.065
0.947801	99.8377
0.916288	97.8896
0.892048	97.4026
0.862959	96.9156
0.838719	96.9156
0.80963	96.9156
0.790238	96.4286
0.76115	96.4286
0.712669	96.4286
0.65934	96.4286
0.606011	95.9416
0.535714	96.4286
0.511473	96.4286
0.450872	95.9416
0.404815	95.4545
0.332094	95.4545
0.300581	94.9675
0.254525	93.9935
0.232708	87.1753
0.210892	81.3312
0.201196	78.8961
0.169683	74.026
0.157563	71.5909
0.145443	69.1558
0.094538	63.3117
0.067873	59.4156
0.060601	57.9545
0.048481	56.0065
0.041209	54.0584
0.029089	51.1364
0.019392	48.2143
0.004848	42.8571
0.004848	41.8831
0.004848	39.9351
0.004848	38.961
0.004848	37.013
0.002424	34.5779
