Adsorption isotherm of Nitrogen on G-CCOF1
DOI: 10.1002/anie.201903534
Article source: Figure S2
Adsorbate Nitrogen: InChIKey IJGRMHOSHXDMSA-UHFFFAOYSA-N
Kind: experiment
Temperature: 77 K
Tabular data in the source: 0
pressure (bar)	uptake (cm3(STP)/g)
-0.002424	82.2981
0.002424	97.8261
0.007272	108.696
0.007272	118.012
0.019392	130.435
0.026664	141.304
0.038785	150.621
0.043633	155.28
0.053329	161.491
0.075145	178.571
0.096962	190.994
0.118778	201.863
0.13817	212.733
0.159987	225.155
0.179379	232.919
0.196347	243.789
0.264221	291.925
0.310278	336.957
0.349062	354.037
0.416935	369.565
0.477536	372.671
0.528441	375.776
0.55753	378.882
0.608435	381.988
0.656916	383.54
0.710245	388.199
0.763574	389.752
0.80963	394.41
0.831447	394.41
0.860535	394.41
0.8872	397.516
0.91144	399.068
0.938105	400.621
0.962345	405.28
0.98901	409.938
0.998706	414.596
1.00355	427.019
1.0084	437.888
1.0084	444.099
0.991434	431.677
0.974465	420.807
0.940529	413.043
0.916288	411.491
0.889624	409.938
0.865383	408.385
0.838719	406.832
0.812054	406.832
0.756301	403.727
0.707821	402.174
0.654492	400.621
0.608435	395.963
0.555106	395.963
0.504201	392.857
0.45572	388.199
0.399967	385.093
0.358758	374.224
0.307853	354.037
0.242404	290.373
0.210892	268.634
0.186651	256.211
0.174531	248.447
0.155139	239.13
0.140594	232.919
0.094538	204.969
0.072721	192.547
0.053329	183.23
0.048481	177.019
0.038785	169.255
0.029089	158.385
0.021816	147.516
