Adsorption isotherm of Nitrogen on TAH-CCOF1
DOI: 10.1002/anie.201903534
Article source: Figure S2
Adsorbate Nitrogen: InChIKey IJGRMHOSHXDMSA-UHFFFAOYSA-N
Kind: experiment
Temperature: 77 K
Tabular data in the source: 0
pressure (bar)	uptake (cm3(STP)/g)
0	11.9454
0	32.4232
0.004848	46.0751
0.009696	52.901
0.019392	63.1399
0.031513	69.9659
0.046057	76.7918
0.058177	80.2048
0.077569	88.7372
0.10181	93.8567
0.121202	100.683
0.140594	105.802
0.162411	110.922
0.179379	119.454
0.201196	124.573
0.244828	158.703
0.298157	174.061
0.356334	180.887
0.426632	186.007
0.45572	189.42
0.506625	191.126
0.55753	196.246
0.608435	199.659
0.65934	201.365
0.707821	206.485
0.763574	209.898
0.812054	213.311
0.826599	216.724
0.860535	221.843
0.8872	226.962
0.91144	233.788
0.935681	244.027
0.959921	264.505
0.981737	310.58
0.991434	354.949
0.998706	426.621
1.00355	511.945
0.996282	455.631
0.986586	397.611
0.964769	313.993
0.933257	267.918
0.896896	242.321
0.862959	233.788
0.838719	230.375
0.816903	226.962
0.790238	225.256
0.758725	220.137
0.707821	216.724
0.65934	215.017
0.608435	209.898
0.555106	206.485
0.504201	201.365
0.458144	201.365
0.407239	199.659
0.349062	194.539
0.305429	191.126
0.254525	180.887
0.232708	162.116
0.208468	148.464
0.20362	141.638
0.169683	127.986
0.157563	126.28
0.147867	122.867
0.099386	109.215
0.072721	100.683
0.063025	95.5631
0.050905	90.4437
0.043633	87.0307
0.031513	80.2048
0.019392	69.9659
