Adsorption isotherm of Nitrogen on Ni@IL-OMO
DOI: 10.1039/c7ra10758g
Article source: Figure 3
Adsorbate Nitrogen: InChIKey IJGRMHOSHXDMSA-UHFFFAOYSA-N
Kind: experiment
Temperature: 77 K
Tabular data in the source: 0
pressure (bar)	uptake (cm3(STP)/g)
-0.000628	17.274
0.004164	39.949
0.004539	41.471
0.024459	62.02
0.050287	73.44
0.07353	79.23
0.100462	85.476
0.150272	96.903
0.199343	107.113
0.201187	105.744
0.253946	113.824
0.302277	122.816
0.304486	121.295
0.353931	130.287
0.404846	145.975
0.405576	139.28
0.459449	148.577
0.508145	211.134
0.509249	159.244
0.534712	238.076
0.55832	170.062
0.606661	311.443
0.610349	186.511
0.651304	246.022
0.659045	260.48
0.704803	309.341
0.704803	330.645
0.711075	315.886
0.763094	322.444
0.804049	335.999
0.814748	328.393
0.863079	332.972
0.912515	343.334
0.91288	336.182
0.961211	348.522
0.966013	342.74
0.987038	352.181
0.995154	351.879
1.00328	355.686
