Adsorption isotherm of Nitrogen on C24H21N3
DOI: 10.1002/macp.201200195
Adsorbate Nitrogen: InChIKey IJGRMHOSHXDMSA-UHFFFAOYSA-N
Temperature: 77 K
Tabular data in the source: 0
pressure (bar)	uptake (cm3(STP)/g)
0.00421011	6.90674
0.00702701	67.0476
0.0295622	70.9912
0.0704073	73.949
0.0971678	73.949
0.16759	74.442
0.270407	75.4279
0.318295	75.4279
0.446464	75.4279
0.495759	76.4138
0.588717	75.9208
0.699985	74.9349
0.799985	75.4279
0.899985	75.9208
0.981675	83.3152
0.997168	99.0898
