Adsorption isotherm of Nitrogen on C24H21N3
DOI: 10.1002/macp.201200195
Adsorbate Nitrogen: InChIKey IJGRMHOSHXDMSA-UHFFFAOYSA-N
Temperature: 77 K
Tabular data in the source: 0
pressure (bar)	uptake (cm3(STP)/g)
0.00515504	12.6307
0.00515504	66.0466
0.00515504	107.878
0.00944547	136.195
0.035188	152.284
0.0723718	161.294
0.128147	168.373
0.182493	174.165
0.25686	178.67
0.314066	181.888
0.409885	185.75
0.508565	188.967
0.607245	193.472
0.707355	195.403
0.806035	197.977
0.906145	201.195
0.960491	203.126
0.991954	204.413
