Adsorption isotherm of Nitrogen on C24H21N3
DOI: 10.1002/macp.201200195
Adsorbate Nitrogen: InChIKey IJGRMHOSHXDMSA-UHFFFAOYSA-N
Temperature: 77 K
Tabular data in the source: 0
pressure (bar)	uptake (cm3(STP)/g)
0.00561856	10.3574
0.00561856	233.667
0.0112524	271.625
0.0211115	281.977
0.0549143	287.893
0.105619	289.865
0.197168	292.822
0.245055	294.301
0.370407	294.794
0.470407	294.794
0.57745	295.78
0.678858	297.259
0.788717	297.752
0.881675	298.245
0.930971	298.245
0.983083	298.738
