Adsorption isotherm of Carbon Dioxide on C24H21N3
DOI: 10.1002/macp.201200195
Adsorbate Carbon Dioxide: InChIKey CURLTUGMZLYLDI-UHFFFAOYSA-N
Temperature: 195 K
Tabular data in the source: 0
pressure (bar)	uptake (cm3(STP)/g)
0.0112524	73.8089
0.0337876	98.0343
0.0746326	117.753
0.129562	130.71
0.187309	140.851
0.242238	151.555
0.32252	161.133
0.412661	175.781
0.528154	190.992
0.623928	205.077
0.726745	217.471
0.826745	231.555
0.928154	243.95
0.968999	248.457
1.02252	254.654
