Adsorption isotherm of Carbon Dioxide on C24H21N3
DOI: 10.1002/macp.201200195
Adsorbate Carbon Dioxide: InChIKey CURLTUGMZLYLDI-UHFFFAOYSA-N
Temperature: 298 K
Tabular data in the source: 0
pressure (bar)	uptake (cm3(STP)/g)
0.0154777	2.28306
0.0239284	11.6633
0.0323791	19.776
0.0492805	23.4521
0.0816749	28.3957
0.107027	31.438
0.152097	37.3957
0.205619	42.2126
0.260548	46.269
0.312661	49.8183
0.409844	54.7619
0.512661	59.5788
0.612661	63.2549
0.712661	66.8042
0.814069	69.4662
0.921112	72.2549
0.96759	73.5225
1.00703	74.4098
