Adsorption isotherm of Carbon Dioxide on C24H21N3
DOI: 10.1002/macp.201200195
Adsorbate Carbon Dioxide: InChIKey CURLTUGMZLYLDI-UHFFFAOYSA-N
Temperature: 195 K
Tabular data in the source: 0
pressure (bar)	uptake (cm3(STP)/g)
0.0182946	74.3723
0.0436467	92.9638
0.0830833	105.922
0.136604	116.626
0.190126	124.513
0.264773	134.654
0.384492	147.612
0.463365	155.499
0.561957	165.64
0.609844	169.584
0.687309	177.471
0.725337	181.415
0.766182	187.048
0.816886	191.555
0.890126	198.879
0.926745	202.26
0.964773	207.33
1.01266	210.147
