Adsorption isotherm of Carbon Dioxide on C24H21N3
DOI: 10.1002/macp.201200195
Adsorbate Carbon Dioxide: InChIKey CURLTUGMZLYLDI-UHFFFAOYSA-N
Temperature: 298 K
Tabular data in the source: 0
pressure (bar)	uptake (cm3(STP)/g)
0.00971678	0.99938
0.0176041	1.78952
0.0225337	2.21558
0.0366182	3.50149
0.0419703	4.00501
0.050421	4.72544
