Adsorption isotherm of Carbon Dioxide on C24H21N3
DOI: 10.1002/macp.201200195
Adsorbate Carbon Dioxide: InChIKey CURLTUGMZLYLDI-UHFFFAOYSA-N
Temperature: 298 K
Tabular data in the source: 0
pressure (bar)	uptake (cm3(STP)/g)
0.0126608	9.76194
0.02252	16.607
0.0295622	23.3253
0.0337876	29.5366
0.0535059	33.3394
0.0774495	36.1281
0.12252	41.4521
0.174633	46.0155
0.233788	49.8183
0.307027	53.6211
0.407027	57.8042
0.511252	61.3535
0.609844	64.5225
0.663365	65.9169
0.766182	67.945
0.863365	70.2267
0.916886	71.2408
0.970407	72.0014
1.00703	73.0155
