Adsorption isotherm of Nitrogen on C24H21N3
DOI: 10.1002/macp.201200195
Adsorbate Nitrogen: InChIKey IJGRMHOSHXDMSA-UHFFFAOYSA-N
Temperature: 77 K
Tabular data in the source: 0
pressure (bar)	uptake (cm3(STP)/g)
0.0537799	2.97726
0.105265	2.97726
0.15389	3.62083
0.206805	2.97726
0.254	2.3337
0.301195	2.3337
0.35554	2.97726
0.401305	2.97726
0.45422	3.62083
0.505705	2.97726
0.55719	2.97726
0.602955	2.97726
0.65301	2.97726
0.698774	4.26439
0.75455	4.26439
0.803175	4.26439
0.901855	4.90796
0.994814	4.26439
