Adsorption isotherm of Carbon Dioxide on C24H21N3
DOI: 10.1002/macp.201200195
Adsorbate Carbon Dioxide: InChIKey CURLTUGMZLYLDI-UHFFFAOYSA-N
Temperature: 298 K
Tabular data in the source: 0
pressure (bar)	uptake (cm3(STP)/g)
0.0112524	2.28306
0.0239284	11.9169
0.0394214	25.9873
0.0535059	28.5225
0.0774495	32.4521
0.129562	39.931
0.181675	45.8887
0.260548	52.3535
0.357731	59.4521
0.460548	66.0436
0.557731	71.1141
0.663365	75.9309
0.764773	79.607
0.866182	83.5366
0.96759	86.9591
1.01407	88.2267
