Adsorption isotherm of Carbon Dioxide on C24H21N3
DOI: 10.1002/macp.201200195
Adsorbate Carbon Dioxide: InChIKey CURLTUGMZLYLDI-UHFFFAOYSA-N
Temperature: 298 K
Tabular data in the source: 0
pressure (bar)	uptake (cm3(STP)/g)
0.00915341	1.34797
0.0163365	2.31628
0.0245055	3.28459
0.0329562	4.20642
0.0405619	5.07403
