Adsorption isotherm of Carbon Dioxide on C24H21N3
DOI: 10.1002/macp.201200195
Adsorbate Carbon Dioxide: InChIKey CURLTUGMZLYLDI-UHFFFAOYSA-N
Temperature: 298 K
Tabular data in the source: 0
pressure (bar)	uptake (cm3(STP)/g)
0.0253369	4.05771
0.0999848	10.1422
0.184492	15.4662
0.264773	20.0295
0.35914	23.7056
0.457731	27.5084
0.509844	29.4098
0.561957	31.0577
0.611252	32.4521
0.718295	35.114
0.815478	37.0155
0.916886	39.0436
0.968999	40.438
1.00844	40.8183
