Adsorption isotherm of Carbon Dioxide on C24H21N3
DOI: 10.1002/macp.201200195
Adsorbate Carbon Dioxide: InChIKey CURLTUGMZLYLDI-UHFFFAOYSA-N
Temperature: 298 K
Tabular data in the source: 0
pressure (bar)	uptake (cm3(STP)/g)
0.0140693	1.64926
0.0520974	4.94503
0.101393	8.74785
0.157731	13.438
0.215478	16.7338
0.284492	20.7901
0.357731	24.7197
0.456323	29.9169
0.552097	34.1
0.661957	38.7901
0.763365	42.7197
0.864774	46.3957
0.911252	48.1704
0.963365	50.0718
0.992943	51.3394
