Adsorption isotherm of Carbon Dioxide on C24H21N3
DOI: 10.1002/macp.201200195
Adsorbate Carbon Dioxide: InChIKey CURLTUGMZLYLDI-UHFFFAOYSA-N
Temperature: 298 K
Tabular data in the source: 0
pressure (bar)	uptake (cm3(STP)/g)
0.02252	3.04363
0.0774495	7.98729
0.132379	12.2971
0.212661	17.4943
0.290126	21.1704
0.363365	23.8324
0.463365	27.1281
0.574633	30.0436
0.674633	32.7056
0.776041	34.8605
0.874633	36.8887
0.918295	37.3957
0.973224	38.5366
1.01689	39.2971
