Adsorption isotherm of Nitrogen on C24H21N3
DOI: 10.1002/macp.201200195
Adsorbate Nitrogen: InChIKey IJGRMHOSHXDMSA-UHFFFAOYSA-N
Temperature: 77 K
Tabular data in the source: 0
pressure (bar)	uptake (cm3(STP)/g)
0.00421011	10.3574
0.00561856	165.146
0.00561856	284.442
0.0211115	304.653
0.0520974	315.498
0.109844	320.921
0.174633	322.893
0.27745	325.85
0.37745	326.343
0.478858	328.315
0.580266	327.822
0.684492	327.822
0.784492	328.808
0.8859	329.794
0.935196	329.301
0.973224	334.231
0.999985	344.583
