Adsorption isotherm of Carbon Dioxide on C24H21N3
DOI: 10.1002/macp.201200195
Adsorbate Carbon Dioxide: InChIKey CURLTUGMZLYLDI-UHFFFAOYSA-N
Temperature: 195 K
Tabular data in the source: 0
pressure (bar)	uptake (cm3(STP)/g)
0.00702701	6.20328
0.00843546	45.0765
0.0168862	103.668
0.0253369	130.147
0.0464636	163.95
0.0802664	196.062
0.108435	211.274
0.178858	237.753
0.257731	256.908
0.37745	280.006
0.52252	306.485
0.676041	333.527
0.792943	352.682
0.919703	372.964
0.987309	383.105
