Adsorption isotherm of Nitrogen on C24H21N3
DOI: 10.1002/macp.201200195
Adsorbate Nitrogen: InChIKey IJGRMHOSHXDMSA-UHFFFAOYSA-N
Temperature: 298 K
Tabular data in the source: 0
pressure (bar)	uptake (cm3(STP)/g)
0.0253506	0.124028
0.0329562	0.170506
0.0438013	0.209239
0.0543647	0.263464
0.077745	0.364168
0.102956	0.480366
