Adsorption isotherm of Nitrogen on C24H21N3
DOI: 10.1002/macp.201200195
Adsorbate Nitrogen: InChIKey IJGRMHOSHXDMSA-UHFFFAOYSA-N
Temperature: 298 K
Tabular data in the source: 0
pressure (bar)	uptake (cm3(STP)/g)
0.0199985	0.0930416
0.022252	0.108535
0.0312661	0.131774
0.0476041	0.185999
0.0564773	0.201492
0.0768999	0.286704
0.102393	0.387408
