Adsorption isotherm of Nitrogen on C24H21N3
DOI: 10.1002/macp.201200195
Adsorbate Nitrogen: InChIKey IJGRMHOSHXDMSA-UHFFFAOYSA-N
Temperature: 77 K
Tabular data in the source: 0
pressure (bar)	uptake (cm3(STP)/g)
0.00515504	99.5119
0.00515504	199.908
0.00658518	4.26439
0.0108756	258.472
0.0308976	287.433
0.075232	309.957
0.135298	327.334
0.211096	343.423
0.291184	358.225
0.378422	370.453
0.481393	383.967
0.584363	397.482
0.683043	409.066
0.790304	420.651
0.916156	433.522
0.991954	439.957
