Adsorption isotherm of Methane on Carbon
DOI: 10.1007/s10450-006-0138-z
Adsorbate Methane: InChIKey VNWKTOKETHGBQD-UHFFFAOYSA-N
Temperature: 273 K
Tabular data in the source: 0
pressure (bar)	uptake (mmol/g)
0.530811	1.24639
1.18153	1.98434
2.08252	2.87675
4.03466	3.92362
6.08692	4.66157
7.8889	5.07345
10.3916	5.41669
14.8465	6.01735
20.2024	6.48071
25.0077	6.66949
30.0132	6.94408
34.0677	7.1157
