Adsorption isotherm of Carbon Dioxide on Carbon
DOI: 10.1007/s10450-006-0138-z
Adsorbate Carbon Dioxide: InChIKey CURLTUGMZLYLDI-UHFFFAOYSA-N
Temperature: 303 K
Tabular data in the source: 0
pressure (bar)	uptake (mmol/g)
0.50692	0.0194412
1.02523	0.0308496
1.49847	0.0397229
2.00551	0.046906
2.49002	0.0519764
3.0196	0.058737
3.5041	0.0629623
4.01115	0.0667651
4.50692	0.0697229
5.0027	0.0743708
5.50974	0.076906
5.99424	0.0802863
6.49002	0.0836665
