Adsorption isotherm of Carbon Dioxide on Carbon
DOI: 10.1007/s10450-006-0138-z
Adsorbate Carbon Dioxide: InChIKey CURLTUGMZLYLDI-UHFFFAOYSA-N
Temperature: 273 K
Tabular data in the source: 0
pressure (bar)	uptake (mmol/g)
0.480756	3.09986
1.48186	4.88467
2.78329	6.54936
5.23598	7.93946
7.4384	8.69458
10.3416	9.29524
15.3471	9.7586
19.852	10.3593
25.308	10.6682
30.2134	10.7883
