Adsorption isotherm of Carbon Dioxide on Carbon
DOI: 10.1007/s10450-006-0138-z
Adsorbate Carbon Dioxide: InChIKey CURLTUGMZLYLDI-UHFFFAOYSA-N
Temperature: 303 K
Tabular data in the source: 0
pressure (bar)	uptake (mmol/g)
0.50692	0.00972288
0.98016	0.016906
1.49847	0.0223989
2.00551	0.0274694
2.51255	0.0308496
3.0196	0.0333849
3.51537	0.0371877
3.97734	0.0401454
4.47312	0.0426806
4.99143	0.0452158
5.49847	0.0473285
5.99424	0.0481736
6.47875	0.0507088
