Adsorption isotherm of Methane on Carbon
DOI: 10.1007/s10450-006-0138-z
Adsorbate Methane: InChIKey VNWKTOKETHGBQD-UHFFFAOYSA-N
Temperature: 298 K
Tabular data in the source: 0
pressure (bar)	uptake (mmol/g)
0.831141	1.02329
1.73213	1.74408
3.28384	2.56784
5.53631	3.35728
7.98901	3.95794
10.3416	4.43847
12.6942	4.76454
15.5974	5.12494
20.4026	5.53682
25.3581	5.88005
29.7629	6.08599
34.368	6.29193
