Adsorption isotherm of Carbon Dioxide on Carbon
DOI: 10.1007/s10450-006-0138-z
Adsorbate Carbon Dioxide: InChIKey CURLTUGMZLYLDI-UHFFFAOYSA-N
Temperature: 303 K
Tabular data in the source: 0
pressure (bar)	uptake (mmol/g)
0.495653	0.0321173
1.00269	0.0485961
1.521	0.0629623
2.00551	0.0739482
2.50129	0.0840891
3.0196	0.0916947
3.5041	0.100568
3.98861	0.107329
4.50692	0.112821
4.99143	0.118314
5.49847	0.124652
5.99424	0.128455
6.52382	0.132681
