Adsorption isotherm of Carbon Dioxide on Carbon
DOI: 10.1007/s10450-006-0138-z
Adsorbate Carbon Dioxide: InChIKey CURLTUGMZLYLDI-UHFFFAOYSA-N
Temperature: 303 K
Tabular data in the source: 0
pressure (bar)	uptake (mmol/g)
0.50692	0.070568
1.01396	0.107751
1.49847	0.132681
2.00551	0.150005
2.49002	0.166906
2.99706	0.182962
3.51537	0.196061
4.02241	0.207469
4.48439	0.218033
5.01396	0.228174
5.4872	0.238314
5.99424	0.245498
6.49002	0.254793
