Adsorption isotherm of Carbon Dioxide on Carbon
DOI: 10.1007/s10450-006-0138-z
Adsorbate Carbon Dioxide: InChIKey CURLTUGMZLYLDI-UHFFFAOYSA-N
Temperature: 303 K
Tabular data in the source: 0
pressure (bar)	uptake (mmol/g)
0.495653	0.0409905
1.00269	0.0638074
1.50974	0.0823989
2.01678	0.0993003
2.51255	0.110286
2.99706	0.121272
3.51537	0.13099
4.01115	0.140286
4.49565	0.148314
5.0027	0.155498
5.49847	0.163103
6.00551	0.169441
6.51255	0.174512
