Adsorption isotherm of Carbon Dioxide on Carbon
DOI: 10.1007/s10450-006-0138-z
Adsorbate Carbon Dioxide: InChIKey CURLTUGMZLYLDI-UHFFFAOYSA-N
Temperature: 298 K
Tabular data in the source: 0
pressure (bar)	uptake (mmol/g)
0.530811	1.45233
1.28164	3.13418
2.53301	4.48995
5.13587	6.08599
7.68868	6.9784
10.4417	7.73352
13.6452	8.21405
17.4995	8.62593
20.5028	8.90052
25.4081	9.26091
30.3636	9.50118
