Adsorption isotherm of Carbon Dioxide on Carbon
DOI: 10.1007/s10450-006-0138-z
Adsorbate Carbon Dioxide: InChIKey CURLTUGMZLYLDI-UHFFFAOYSA-N
Temperature: 303 K
Tabular data in the source: 0
pressure (bar)	uptake (mmol/g)
0.495653	0.0156384
1.01396	0.0249342
1.53227	0.0325398
2.00551	0.0388778
2.49002	0.0443708
2.99706	0.0490187
3.52664	0.0536665
4.02241	0.0583144
4.50692	0.0612722
5.02523	0.0642299
5.49847	0.0667651
6.01678	0.0701454
6.49002	0.071413
