Adsorption isotherm of Carbon Dioxide on Carbon
DOI: 10.1007/s10450-006-0138-z
Adsorbate Carbon Dioxide: InChIKey CURLTUGMZLYLDI-UHFFFAOYSA-N
Temperature: 303 K
Tabular data in the source: 0
pressure (bar)	uptake (mmol/g)
0.495653	0.0523989
0.991427	0.0819764
1.521	0.104371
2.01678	0.11916
2.51255	0.135638
3.00833	0.148737
3.49284	0.160568
3.99988	0.170709
4.48439	0.18085
4.99143	0.188878
5.49847	0.196906
5.98298	0.204089
6.49002	0.211272
