Adsorption isotherm of Nitrogen on Ni(II)/SSZ-13
DOI: 10.1016/j.cej.2019.03.234
Article source: Figure 4b
Adsorbate Nitrogen: InChIKey IJGRMHOSHXDMSA-UHFFFAOYSA-N
Kind: experiment
Temperature: 298 K
Tabular data in the source: 0
pressure (bar)	uptake (mmol/g)
0.0496	0.0166
0.149	0.0432
0.198	0.0499
0.299	0.0698
0.398	0.0898
0.5	0.0997
0.599	0.12
0.699	0.146
0.799	0.156
0.899	0.183
0.999	0.206
