Adsorption isotherm of Carbon Dioxide on Co(II)/SSZ-13
DOI: 10.1016/j.cej.2019.03.234
Article source: Figure 4a
Adsorbate Carbon Dioxide: InChIKey CURLTUGMZLYLDI-UHFFFAOYSA-N
Kind: experiment
Temperature: 298 K
Tabular data in the source: 0
pressure (bar)	uptake (mmol/g)
0.0114	0.18
0.0217	0.292
0.0519	0.528
0.0839	0.732
0.106	0.855
0.159	1.09
0.211	1.31
0.263	1.49
0.315	1.65
0.352	1.75
0.402	1.87
0.451	2.01
0.502	2.12
0.553	2.23
0.603	2.34
0.703	2.49
0.803	2.66
0.904	2.79
1	2.92
