Adsorption isotherm of Carbon Dioxide on Ni(II)/SSZ-13
DOI: 10.1016/j.cej.2019.03.234
Article source: Figure 4b
Adsorbate Carbon Dioxide: InChIKey CURLTUGMZLYLDI-UHFFFAOYSA-N
Kind: experiment
Temperature: 298 K
Tabular data in the source: 0
pressure (bar)	uptake (mmol/g)
0.00863	0.166
0.0151	0.249
0.0205	0.313
0.0507	0.585
0.0836	0.811
0.105	0.941
0.157	1.19
0.21	1.42
0.263	1.6
0.315	1.77
0.351	1.87
0.402	2.01
0.452	2.12
0.502	2.25
0.553	2.36
0.603	2.46
0.704	2.6
0.804	2.77
0.905	2.9
1	3.04
