Adsorption isotherm of Carbon Dioxide, Nitrogen on Ni(II)/SSZ-13
DOI: 10.1016/j.cej.2019.03.234
Article source: Table S3
Adsorbate Carbon Dioxide: InChIKey CURLTUGMZLYLDI-UHFFFAOYSA-N
Adsorbate Nitrogen: InChIKey IJGRMHOSHXDMSA-UHFFFAOYSA-N
Kind: experiment
Temperature: 298 K
Tabular data in the source: 0
pressure (bar)	Carbon Dioxide fraction	Carbon Dioxide uptake (mmol/g)	Nitrogen fraction	Nitrogen uptake (mmol/g)	total uptake (mmol/g)
1.013	0.15	1.04	0.85	0.24	
