Adsorption isotherm of Nitrogen on Co(II)/SSZ-13
DOI: 10.1016/j.cej.2019.03.234
Article source: Figure 4a
Adsorbate Nitrogen: InChIKey IJGRMHOSHXDMSA-UHFFFAOYSA-N
Kind: experiment
Temperature: 298 K
Tabular data in the source: 0
pressure (bar)	uptake (mmol/g)
0.0503	0.0209
0.0999	0.0313
0.15	0.0452
0.2	0.0521
0.299	0.0694
0.399	0.0761
0.5	0.0968
0.6	0.111
0.699	0.121
0.8	0.138
0.899	0.162
0.998	0.176
