Adsorption isotherm of Hydrogen on C59H63N5O17Zn4
DOI: 10.1021/Ja043756x
Adsorbate Hydrogen: InChIKey UFHFLCQGNIYNRP-UHFFFAOYSA-N
Temperature: 77 K
Tabular data in the source: 0
pressure (bar)	uptake (cm3(STP)/g)
0.00240677	6.17528
0.00481354	15.437
0.00962708	21.6147
0.0168474	37.0541
0.031288	53.5297
0.0409151	65.8852
0.0553557	73.1015
0.0673895	81.3441
0.0794234	86.5004
0.105898	99.9018
0.15644	119.5
0.211796	132.931
0.262338	144.299
0.30566	152.574
0.370643	162.928
0.409151	169.14
0.459693	175.364
0.510235	179.53
0.560777	185.755
0.61854	190.957
0.666675	197.179
0.719624	197.233
0.772573	202.431
0.823115	205.568
0.871251	207.675
0.921793	210.812
0.969928	214.977
1.00603	218.1
