Adsorption isotherm of Nitrogen on C59H63N5O17Zn4
DOI: 10.1021/Ja043756x
Adsorbate Nitrogen: InChIKey IJGRMHOSHXDMSA-UHFFFAOYSA-N
Temperature: 77 K
Tabular data in the source: 0
pressure (bar)	uptake (cm3(STP)/g)
0.00240677	0.00240677
0.00481354	98.7703
0.00962708	215.03
0.0144406	232.525
0.0288812	239.741
0.0529489	245.939
0.0986776	248.043
0.151626	252.212
0.204575	254.323
0.257524	257.463
0.30566	257.512
0.353795	259.618
0.454879	262.808
0.507828	262.861
0.555964	262.91
0.657048	266.099
0.762946	267.236
0.815895	267.289
0.86403	268.367
0.912166	269.445
0.962708	269.496
1.00844	270.571
