Adsorption isotherm of Nitrogen on [(CH3)NH2]3[(Cu4Cl)3-(btc)8].TMA
DOI: 10.1039/C1cc14118j
Adsorbate Nitrogen: InChIKey IJGRMHOSHXDMSA-UHFFFAOYSA-N
Temperature: 77 K
Tabular data in the source: 0
pressure (bar)	uptake (cm3(STP)/g)
0.00211416	152.987
0.00422833	168.66
0.012685	182.099
0.0295983	185.843
0.0697674	188.112
0.0824524	189.614
0.116279	191.132
0.135307	192.638
0.167019	192.662
0.183932	193.421
0.249471	194.216
0.300211	195
0.348837	194.29
0.401691	195.076
0.450317	195.112
0.503171	194.405
0.754757	196.086
0.799154	195.373
0.811839	195.382
0.849894	195.41
0.868922	196.171
0.902748	196.196
0.92389	196.212
0.957717	196.983
0.976744	197.744
0.983087	197.749
