Adsorption isotherm of Nitrogen on [(CH3)NH2]3[(Cu4Cl)3-(btc)8].xMeOH
DOI: 10.1039/C1cc14118j
Adsorbate Nitrogen: InChIKey IJGRMHOSHXDMSA-UHFFFAOYSA-N
Temperature: 273 K
Tabular data in the source: 0
pressure (bar)	uptake (mmol/g)
0.0608365	0.00106731
0.081749	0.00143419
0.123574	0.0197118
0.140684	0.0375559
0.159696	0.0203455
0.19962	0.0561337
0.247148	0.0569675
0.302281	0.0579348
0.351711	0.0763458
0.403042	0.112334
0.45057	0.0780802
0.501901	0.0789807
0.553232	0.114969
0.60076	0.115803
0.65019	0.11667
0.701521	0.117571
0.750951	0.135982
0.80038	0.136849
0.851711	0.102662
0.876426	0.120639
0.901141	0.121073
0.925856	0.121506
0.952471	0.104429
0.975285	0.0872857
