Adsorption isotherm of Hydrogen on [(CH3)NH2]3[(Cu4Cl)3-(btc)8].TMA
DOI: 10.1039/C1cc14118j
Adsorbate Hydrogen: InChIKey UFHFLCQGNIYNRP-UHFFFAOYSA-N
Temperature: 87 K
Tabular data in the source: 0
pressure (bar)	uptake (mmol/g)
0.334737	2.22297
0.402105	2.48311
0.467368	2.79054
0.530526	3.00338
0.6	3.21622
0.665263	3.42905
0.728421	3.61824
0.825263	3.85473
0.888421	4.02027
0.955789	4.20946
0.993684	4.30405
