Adsorption isotherm of Hydrogen on [(CH3)NH2]3[(Cu4Cl)3-(btc)8].TMA
DOI: 10.1039/C1cc14118j
Adsorbate Hydrogen: InChIKey UFHFLCQGNIYNRP-UHFFFAOYSA-N
Temperature: 77 K
Tabular data in the source: 0
pressure (bar)	uptake (mmol/g)
0.0147368	0.638514
0.0210526	0.922297
0.0315789	1.06419
0.0484211	1.46622
0.0778947	1.89189
0.105263	2.24662
0.132632	2.55405
0.157895	2.76689
0.181053	2.93243
0.216842	3.19257
0.233684	3.35811
0.263158	3.52365
0.328421	3.90203
0.402105	4.20946
0.465263	4.4223
0.534737	4.68243
0.602105	4.82432
0.663158	5.03716
0.730526	5.15541
0.795789	5.2973
0.888421	5.48649
0.953684	5.62838
1.01895	5.74662
