Adsorption isotherm of Hydrogen on [(CH3)NH2]3[(Cu4Cl)3-(btc)8].xMeOH
DOI: 10.1039/C1cc14118j
Adsorbate Hydrogen: InChIKey UFHFLCQGNIYNRP-UHFFFAOYSA-N
Temperature: 87 K
Tabular data in the source: 0
pressure (bar)	uptake (mmol/g)
0.0631579	0.780405
0.155789	1.44257
0.206316	1.86824
0.235789	1.96284
0.263158	2.15203
0.4	2.81419
0.463158	3.14527
0.530526	3.40541
0.597895	3.64189
0.661053	3.87838
0.728421	4.06757
0.791579	4.25676
0.858947	4.49324
0.924211	4.68243
0.991579	4.77703
