Adsorption isotherm of Hydrogen on [(CH3)NH2]3[(Cu4Cl)3-(btc)8].TPA
DOI: 10.1039/C1cc14118j
Adsorbate Hydrogen: InChIKey UFHFLCQGNIYNRP-UHFFFAOYSA-N
Temperature: 77 K
Tabular data in the source: 0
pressure (bar)	uptake (mmol/g)
0.0421053	0.685811
0.0757895	0.993243
0.103158	1.20608
0.130526	1.39527
0.162105	1.53716
0.181053	1.63176
0.212632	1.77365
0.233684	1.84459
0.267368	1.93919
0.332632	2.12838
0.397895	2.27027
0.465263	2.41216
0.532632	2.55405
0.6	2.64865
0.663158	2.69595
0.728421	2.76689
0.789474	2.86149
0.858947	2.90878
0.926316	2.97973
1.01684	3.05068
