Adsorption isotherm of Carbon Dioxide on [(CH3)NH2]3[(Cu4Cl)3-(btc)8].TEA
DOI: 10.1039/C1cc14118j
Adsorbate Carbon Dioxide: InChIKey CURLTUGMZLYLDI-UHFFFAOYSA-N
Temperature: 298 K
Tabular data in the source: 0
pressure (bar)	uptake (mmol/g)
0.13308	0.458475
0.155894	0.529051
0.18251	0.599693
0.212928	0.652858
0.237643	0.705924
0.264259	0.776566
0.290875	0.829664
0.315589	0.900273
0.344106	0.953405
0.368821	0.988927
0.39924	1.04209
0.422053	1.11267
0.45057	1.14826
0.479087	1.20139
0.501901	1.23688
0.528517	1.28997
0.562738	1.36075
0.593156	1.41392
0.627376	1.4496
0.657795	1.52031
0.692015	1.57354
0.724335	1.62674
0.756654	1.6624
0.788973	1.7156
0.821293	1.76879
0.855513	1.82203
0.887833	1.87523
0.922053	1.92846
0.961977	1.98179
1	2.03509
