Adsorption isotherm of Nitrogen on [(CH3)NH2]3[(Cu4Cl)3-(btc)8].TEA
DOI: 10.1039/C1cc14118j
Adsorbate Nitrogen: InChIKey IJGRMHOSHXDMSA-UHFFFAOYSA-N
Temperature: 77 K
Tabular data in the source: 0
pressure (bar)	uptake (cm3(STP)/g)
0.00211416	0.00211416
0.0105708	133.59
0.0295983	136.589
0.0613108	138.852
0.0866808	140.363
0.122622	141.883
0.143763	144.137
0.179704	144.91
0.255814	145.713
0.300211	146.493
0.350951	147.277
0.403805	148.063
0.505285	148.885
0.551797	149.666
0.598309	148.954
0.651163	150.486
0.699789	150.522
0.752643	151.308
0.79704	152.834
0.820296	152.105
0.849894	153.619
0.864693	153.63
0.904863	154.407
0.951374	155.188
0.97463	157.444
0.993658	160.443
