Adsorption isotherm of Nitrogen on [(CH3)NH2]3[(Cu4Cl)3-(btc)8].TMA
DOI: 10.1039/C1cc14118j
Adsorbate Nitrogen: InChIKey IJGRMHOSHXDMSA-UHFFFAOYSA-N
Temperature: 273 K
Tabular data in the source: 0
pressure (bar)	uptake (mmol/g)
0.121673	0.00213461
0.178707	0.0206791
0.203422	0.0562004
0.250951	0.0745781
0.34981	0.0412247
0.401141	0.077213
0.448669	0.0429591
0.501901	0.0789807
0.553232	0.0798813
0.60076	0.098259
0.65019	0.0991261
0.703422	0.117604
0.771863	0.101261
0.821293	0.0845841
0.842205	0.084951
0.870722	0.0854513
0.895437	0.103429
0.923954	0.0688413
0.948669	0.104363
0.973384	0.0872524
