Adsorption isotherm of Hydrogen on [(CH3)NH2]3[(Cu4Cl)3-(btc)8].xMeOH
DOI: 10.1039/C1cc14118j
Adsorbate Hydrogen: InChIKey UFHFLCQGNIYNRP-UHFFFAOYSA-N
Temperature: 77 K
Tabular data in the source: 0
pressure (bar)	uptake (mmol/g)
0.0336842	1.27703
0.0568421	1.58446
0.0757895	1.91554
0.101053	2.31757
0.155789	3.02703
0.185263	3.31081
0.208421	3.5473
0.237895	3.83108
0.265263	4.04392
0.328421	4.51689
0.465263	5.27365
0.593684	5.86486
0.795789	6.59797
0.871579	6.81081
0.930526	7.09459
0.995789	7.21284
