Adsorption isotherm of Carbon Dioxide on [(CH3)NH2]3[(Cu4Cl)3-(btc)8].xMeOH
DOI: 10.1039/C1cc14118j
Adsorbate Carbon Dioxide: InChIKey CURLTUGMZLYLDI-UHFFFAOYSA-N
Temperature: 273 K
Tabular data in the source: 0
pressure (bar)	uptake (mmol/g)
0.0798479	0.738243
0.104563	0.966747
0.131179	1.1602
0.157795	1.38873
0.186312	1.59976
0.212928	1.81075
0.235741	2.00414
0.26616	2.19765
0.315589	2.53185
0.368821	2.83103
0.437262	3.20065
0.473384	3.41181
0.524715	3.6057
0.595057	3.97535
0.652091	4.29214
0.728137	4.60927
0.792776	4.82093
0.859316	5.05016
0.920152	5.29684
1	5.5614
