Adsorption isotherm of Nitrogen on [(CH3)NH2]3[(Cu4Cl)3-(btc)8].xMeOH
DOI: 10.1039/C1cc14118j
Adsorbate Nitrogen: InChIKey IJGRMHOSHXDMSA-UHFFFAOYSA-N
Temperature: 77 K
Tabular data in the source: 0
pressure (bar)	uptake (cm3(STP)/g)
0.00211416	0.00211416
0.012685	220.159
0.0295983	224.649
0.0570825	228.401
0.0845666	230.66
0.122622	232.927
0.141649	234.434
0.164905	235.944
0.186047	236.706
0.2537	238.249
0.302326	239.032
0.350951	240.56
0.399577	241.343
0.452431	242.129
0.501057	242.911
0.551797	243.695
0.600423	243.732
0.79704	245.371
0.816068	246.131
0.852008	246.904
0.871036	246.919
0.902748	247.689
0.953488	248.473
0.97463	249.235
0.993658	252.234
