Adsorption isotherm of Carbon Dioxide on [(CH3)NH2]3[(Cu4Cl)3-(btc)8].xMeOH
DOI: 10.1039/C1cc14118j
Adsorbate Carbon Dioxide: InChIKey CURLTUGMZLYLDI-UHFFFAOYSA-N
Temperature: 298 K
Tabular data in the source: 0
pressure (bar)	uptake (mmol/g)
0.180608	0.757555
0.235741	0.951504
0.26616	1.0573
0.311787	1.216
0.372624	1.44513
0.437262	1.63925
0.473384	1.76269
0.528517	1.95664
0.593156	2.13321
0.653992	2.30972
0.724335	2.53902
0.788973	2.7156
0.859316	2.89227
0.927757	3.08645
1.0019	3.29828
