Adsorption isotherm of Hydrogen on [(CH3)NH2]3[(Cu4Cl)3-(btc)8].TEA
DOI: 10.1039/C1cc14118j
Adsorbate Hydrogen: InChIKey UFHFLCQGNIYNRP-UHFFFAOYSA-N
Temperature: 87 K
Tabular data in the source: 0
pressure (bar)	uptake (mmol/g)
0.0757895	0.780405
0.0926316	0.898649
0.111579	1.04054
0.130526	1.18243
0.157895	1.27703
0.183158	1.44257
0.208421	1.53716
0.237895	1.67905
0.332632	1.98649
0.402105	2.15203
0.465263	2.34122
0.528421	2.5777
0.595789	2.69595
0.665263	2.83784
0.728421	2.93243
0.797895	3.07432
0.886316	3.21622
0.953684	3.33446
1.01895	3.42905
