Adsorption isotherm of Nitrogen on [(CH3)NH2]3[(Cu4Cl)3-(btc)8].TPA
DOI: 10.1039/C1cc14118j
Adsorbate Nitrogen: InChIKey IJGRMHOSHXDMSA-UHFFFAOYSA-N
Temperature: 273 K
Tabular data in the source: 0
pressure (bar)	uptake (mmol/g)
0.0323194	0.000567007
0.0589354	0.00103395
0.0798479	0.00140084
0.0969582	0.00170102
0.119772	0.00210126
0.159696	0.00280168
0.18251	0.0207458
0.19962	0.021046
0.249049	0.039457
0.30038	0.0403575
0.351711	0.0412581
0.401141	0.0421253
0.45057	0.0429925
0.503802	0.0614702
0.551331	0.062304
0.621673	0.0635381
0.671103	0.0644053
0.720532	0.0477286
0.773764	0.0486625
0.819392	0.0143753
0.870722	0.0328197
0.895437	0.0332533
0.920152	0.0336869
0.944867	0.0341205
0.969582	0.0170102
0.992395	0.0174104
