Adsorption isotherm of Hydrogen on [(CH3)NH2]3[(Cu4Cl)3-(btc)8].TPA
DOI: 10.1039/C1cc14118j
Adsorbate Hydrogen: InChIKey UFHFLCQGNIYNRP-UHFFFAOYSA-N
Temperature: 87 K
Tabular data in the source: 0
pressure (bar)	uptake (mmol/g)
0.0210526	0.141892
0.0484211	0.331081
0.0778947	0.52027
0.103158	0.662162
0.124211	0.733108
0.157895	0.875
0.183158	0.969595
0.216842	1.06419
0.24	1.18243
0.263158	1.25338
0.332632	1.41892
0.402105	1.60811
0.463158	1.75
0.530526	1.91554
0.6	2.03378
0.663158	2.15203
0.734737	2.27027
0.797895	2.36486
0.871579	2.45946
0.936842	2.5777
1.01684	2.6723
1.05474	2.76689
