Adsorption isotherm of Carbon Dioxide on [(CH3)NH2]3[(Cu4Cl)3-(btc)8].TEA
DOI: 10.1039/C1cc14118j
Adsorbate Carbon Dioxide: InChIKey CURLTUGMZLYLDI-UHFFFAOYSA-N
Temperature: 273 K
Tabular data in the source: 0
pressure (bar)	uptake (mmol/g)
0.0456274	0.263958
0.081749	0.422487
0.104563	0.52815
0.13308	0.669001
0.159696	0.827363
0.18251	0.95057
0.211027	1.09142
0.237643	1.23224
0.262357	1.33794
0.315589	1.56694
0.370722	1.79598
0.422053	2.0074
0.477186	2.20135
0.526616	2.3952
0.595057	2.58939
0.659696	2.80105
0.724335	2.94253
0.792776	3.10163
0.855513	3.26062
0.922053	3.3846
1.0019	3.54389
