Adsorption isotherm of Carbon Dioxide on [(CH3)NH2]3[(Cu4Cl)3-(btc)8].TMA
DOI: 10.1039/C1cc14118j
Adsorbate Carbon Dioxide: InChIKey CURLTUGMZLYLDI-UHFFFAOYSA-N
Temperature: 298 K
Tabular data in the source: 0
pressure (bar)	uptake (mmol/g)
0.184411	0.70499
0.211027	0.740544
0.237643	0.846274
0.264259	0.899373
0.290875	0.970015
0.315589	1.04062
0.342205	1.11127
0.370722	1.14685
0.395437	1.21746
0.422053	1.28811
0.448669	1.35875
0.477186	1.41188
0.501901	1.46495
0.528517	1.53559
0.562738	1.60636
0.595057	1.67711
0.625475	1.76536
0.657795	1.81856
0.693916	1.87182
0.726236	1.94257
0.756654	2.01327
0.788973	2.08402
0.823194	2.15479
0.855513	2.20799
0.891635	2.2788
0.920152	2.33193
0.961977	2.3853
1.0019	2.45617
