Adsorption isotherm of Hydrogen on [(CH3)NH2]3[(Cu4Cl)3-(btc)8].TEA
DOI: 10.1039/C1cc14118j
Adsorbate Hydrogen: InChIKey UFHFLCQGNIYNRP-UHFFFAOYSA-N
Temperature: 77 K
Tabular data in the source: 0
pressure (bar)	uptake (mmol/g)
0.0378947	1.01689
0.08	1.77365
0.101053	1.98649
0.157895	2.5777
0.187368	2.76689
0.210526	2.93243
0.235789	3.12162
0.263158	3.28716
0.328421	3.61824
0.397895	3.90203
0.465263	4.11486
0.530526	4.30405
0.595789	4.49324
0.663158	4.61149
0.728421	4.77703
0.791579	4.89527
0.861053	5.03716
0.924211	5.13176
1.01895	5.27365
