Adsorption isotherm of Nitrogen on [(CH3)NH2]3[(Cu4Cl)3-(btc)8].TEA
DOI: 10.1039/C1cc14118j
Adsorbate Nitrogen: InChIKey IJGRMHOSHXDMSA-UHFFFAOYSA-N
Temperature: 273 K
Tabular data in the source: 0
pressure (bar)	uptake (mmol/g)
0.0969582	0.00170102
0.138783	0.0375225
0.159696	0.00280168
0.18251	0.0207458
0.203422	0.0211127
0.252852	0.00443599
0.351711	0.00617037
0.401141	0.00703756
0.454373	0.00797145
0.501901	-0.00873858
0.555133	0.00973918
0.602662	0.010573
0.652091	0.0114402
0.840304	0.032286
0.872624	0.032853
0.897338	0.0508305
0.920152	0.0512307
0.971483	0.0345874
