Adsorption isotherm of Carbon Dioxide on [(CH3)NH2]3[(Cu4Cl)3-(btc)8].TMA
DOI: 10.1039/C1cc14118j
Adsorbate Carbon Dioxide: InChIKey CURLTUGMZLYLDI-UHFFFAOYSA-N
Temperature: 273 K
Tabular data in the source: 0
pressure (bar)	uptake (mmol/g)
0.0304183	0.316323
0.0494297	0.457008
0.0646388	0.597625
0.0931559	0.75602
0.119772	0.94947
0.13308	1.01988
0.159696	1.17824
0.211027	1.47739
0.239544	1.60069
0.287072	1.86469
0.340304	2.11123
0.395437	2.34027
0.423954	2.46358
0.45057	2.55176
0.501901	2.74565
0.560837	2.95721
0.627376	3.1689
0.692015	3.34547
0.756654	3.52205
0.790875	3.61037
0.823194	3.69865
0.853612	3.78691
0.887833	3.85768
0.923954	3.94603
0.961977	4.01688
1.0038	4.10533
