Adsorption isotherm of Carbon Dioxide on [(CH3)NH2]3[(Cu4Cl)3-(btc)8].TPA
DOI: 10.1039/C1cc14118j
Adsorbate Carbon Dioxide: InChIKey CURLTUGMZLYLDI-UHFFFAOYSA-N
Temperature: 273 K
Tabular data in the source: 0
pressure (bar)	uptake (mmol/g)
0.0456274	0.211327
0.0798479	0.369822
0.104563	0.493063
0.13308	0.633914
0.157795	0.722067
0.186312	0.845374
0.211027	0.933527
0.237643	1.03926
0.264259	1.14499
0.315589	1.32133
0.372624	1.49777
0.423954	1.62147
0.475285	1.78027
0.526616	1.90398
0.595057	2.06307
0.659696	2.18701
0.726236	2.29344
0.792776	2.39987
0.857414	2.50627
0.920152	2.59509
1	2.68421
