Adsorption isotherm of Nitrogen on [(CH3)NH2]3[(Cu4Cl)3-(btc)8].TPA
DOI: 10.1039/C1cc14118j
Adsorbate Nitrogen: InChIKey IJGRMHOSHXDMSA-UHFFFAOYSA-N
Temperature: 77 K
Tabular data in the source: 0
pressure (bar)	uptake (cm3(STP)/g)
0.00211416	87.315
0.00422833	78.3614
0.012685	91.8005
0.02537	94.0488
0.0613108	96.3144
0.0824524	97.8227
0.118393	97.8495
0.141649	99.3594
0.158562	100.118
0.17759	100.879
0.196617	100.893
0.249471	102.425
0.30444	102.466
0.353066	104.741
0.403805	105.525
0.450317	105.56
0.501057	107.09
0.547569	107.125
0.598309	107.163
0.651163	109.441
0.704017	108.734
0.752643	108.771
0.79704	108.804
0.82241	110.315
0.864693	109.601
0.917548	109.64
0.959831	111.164
0.983087	111.928
0.989429	114.171
