Adsorption isotherm of Carbon Dioxide on [(CH3)NH2]3[(Cu4Cl)3-(btc)8].TPA
DOI: 10.1039/C1cc14118j
Adsorbate Carbon Dioxide: InChIKey CURLTUGMZLYLDI-UHFFFAOYSA-N
Temperature: 298 K
Tabular data in the source: 0
pressure (bar)	uptake (mmol/g)
0.0342205	0.0532319
0.0627376	0.123908
0.0912548	0.212127
0.119772	0.265259
0.131179	0.300547
0.184411	0.406744
0.237643	0.495397
0.288973	0.619105
0.340304	0.707725
0.397338	0.813988
0.448669	0.885064
0.501901	0.991261
0.562738	1.08005
0.627376	1.18645
0.692015	1.2753
0.724335	1.3285
0.756654	1.3817
0.790875	1.41738
0.823194	1.45304
0.855513	1.50624
0.922053	1.59512
0.963878	1.64849
1	1.68421
