Adsorption isotherm of Nitrogen on COF-DM
DOI: 10.1021/acs.inorgchem.0c03783
Article source: FIgure S5a
Adsorbate Nitrogen: InChIKey IJGRMHOSHXDMSA-UHFFFAOYSA-N
Kind: experiment
Temperature: 77 K
Tabular data in the source: 0
pressure (bar)	uptake (cm3(STP)/g)
0.003271	63.5938
0.002115	48.5673
0.002027	37.8765
0.00194	27.1857
0.000295	15.5445
0.007687	80.4107
0.01408	90.9742
0.02914	112.89
0.262557	243.853
0.320823	265.814
0.361285	268.742
0.425433	272.54
0.455652	274.258
0.511435	276.708
0.557916	278.268
0.609046	280.049
0.660175	281.608
0.711305	283.39
0.762435	285.172
0.834333	287.615
0.86222	288.394
0.892449	291.29
0.920339	292.403
0.940622	294.289
0.991988	301.866
1.00416	309.164
0.811921	287.933
0.964265	297.222
0.203751	187.085
0.18118	177.796
0.162081	169.834
0.142988	162.536
0.123889	154.574
0.103065	147.276
0.085697	139.314
0.066625	134.67
0.005201	71.6396
0.010506	85.5726
0.001615	56.3796
0.003242	43.7736
0.001419	32.4945
0.001332	21.8788
0.00124	10.5997
0.052513	129.818
0.089818	145.676
0.15041	167.948
0.201698	188.973
0.253166	231.915
0.304574	267.551
0.355714	270.58
0.406853	273.431
0.457988	275.747
0.509121	277.885
0.560251	279.667
0.609059	281.627
0.660189	283.409
0.71132	285.191
0.760123	286.616
0.810809	288.489
0.838699	289.528
0.866593	291.013
0.894486	292.498
0.920986	294.013
0.945631	296.062
0.988901	303.878
1.01126	311.621
