Adsorption isotherm of Nitrogen on Cu(II)@COF-DM
DOI: 10.1021/acs.inorgchem.0c03783
Article source: FIgure S5b
Adsorbate Nitrogen: InChIKey IJGRMHOSHXDMSA-UHFFFAOYSA-N
Kind: experiment
Temperature: 77 K
Tabular data in the source: 0
pressure (bar)	uptake (cm3(STP)/g)
0.003494	19.6854
0.000811	5.08484
0.006901	40.1757
0.030994	61.8907
0.061081	72.7112
0.139737	96.8295
0.25305	126.363
0.299404	151.124
0.348098	179.805
0.41764	188.259
0.47514	194.933
0.508151	197.052
0.556643	201.055
0.609758	205.948
0.659026	210.693
0.709065	215.735
0.759876	221.073
0.809797	226.875
0.8366	231.148
0.863431	236.406
0.891163	241.391
0.915902	247.268
0.935575	254.393
0.962626	266.142
0.985887	284.936
0.997977	292.233
0.996312	298.868
1.00325	306.165
0.119897	92.641
0.161212	101.261
0.180175	108.557
0.202554	113.198
0.078544	79.3768
0.09922	86.0089
0.012292	47.5386
0.004956	32.9431
0.001465	26.3088
0.001346	11.7123
0.049557	74.3609
0.100452	90.0341
0.15364	103.955
0.202202	116.392
0.253088	130.996
0.308707	160.032
0.352749	184.259
0.405868	189.597
0.456674	194.401
0.507474	198.314
0.558276	202.584
0.609084	207.567
0.659892	212.549
0.710702	217.71
0.761513	223.048
0.814648	230.376
0.842373	234.53
0.870108	239.872
0.897851	246.253
0.923285	252.427
0.946447	262.996
0.974276	279.86
0.988239	294.291
1.00686	314.066
