Adsorption isotherm of 1,1,2-Trichloroethene on Silicalite MFI
DOI: 10.1016/S1387-1811(02)00428-6
Adsorbate 1,1,2-Trichloroethene: InChIKey XSTXAVWGXDQKEL-UHFFFAOYSA-N
Temperature: 323 K
Tabular data in the source: 0
pressure (bar)	uptake (mmol/g)
0.00020438	0.655753
0.000554745	0.790961
0.000759124	0.877512
0.00131387	0.990851
0.00265693	1.15769
0.00522628	1.29089
0.00931387	1.38477
