Adsorption isotherm of Water on Silicalite MFI
DOI: 10.1016/S1387-1811(02)00428-6
Adsorbate Water: InChIKey XLYOFNOQVPJJNP-UHFFFAOYSA-N
Temperature: 308 K
Tabular data in the source: 0
pressure (bar)	uptake (mmol/g)
0.0014079	0.23549
0.00176074	0.282588
0.0026098	0.36501
0.0030339	0.412108
0.00353012	0.447431
0.00416886	0.482755
0.00473634	0.518078
0.00537551	0.547514
0.00587303	0.565176
0.00644094	0.594612
0.00708054	0.618161
0.00772015	0.64171
0.00835975	0.665259
0.00899978	0.682921
0.00964025	0.694696
0.0102082	0.724132
0.0109195	0.741794
0.0115595	0.759455
0.0121991	0.783004
0.01291	0.806553
0.0135504	0.818328
0.0141905	0.83599
0.0149017	0.853652
0.0155418	0.871313
0.0162535	0.883088
0.0168935	0.90075
0.0175336	0.918411
0.0181736	0.936073
0.0188141	0.947848
0.0195254	0.965509
0.0201654	0.983171
0.0208767	1.00083
0.021588	1.01849
0.022228	1.03616
0.0228681	1.05382
0.0235794	1.07148
0.0242194	1.08914
