Adsorption isotherm of Water on Silicalite MFI
DOI: 10.1016/S1387-1811(02)00428-6
Adsorbate Water: InChIKey XLYOFNOQVPJJNP-UHFFFAOYSA-N
Temperature: 348 K
Tabular data in the source: 0
pressure (bar)	uptake (mmol/g)
0.00099417	0.047098
0.00163377	0.070647
0.00220212	0.094196
0.00284215	0.111858
0.00355344	0.12952
0.00419348	0.147181
0.0049052	0.158956
0.00554481	0.182505
0.00618571	0.188392
0.00689743	0.200167
0.0075379	0.211941
0.00825005	0.217828
0.00896178	0.229603
0.00953142	0.23549
0.0101719	0.247265
0.0108836	0.259039
0.0115958	0.264926
0.0122362	0.276701
0.012948	0.288475
0.0136601	0.294363
0.014301	0.30025
0.0150127	0.312024
0.0157249	0.317912
0.0163654	0.329686
0.0170775	0.335573
0.0177184	0.341461
0.0184306	0.347348
0.0191427	0.353235
0.0197836	0.359122
0.0204958	0.36501
0.0212079	0.370897
0.0219205	0.370897
0.0226327	0.376784
0.0232736	0.382671
0.0239857	0.388559
0.0246983	0.388559
0.0254105	0.394446
