Adsorption isotherm of 1,1,2-Trichloroethene on Zeolite DAY
DOI: 10.1016/S1387-1811(02)00428-6
Adsorbate 1,1,2-Trichloroethene: InChIKey XSTXAVWGXDQKEL-UHFFFAOYSA-N
Temperature: 308 K
Tabular data in the source: 0
pressure (bar)	uptake (mmol/g)
0.000459819	0.311112
0.000516967	0.375948
0.000574115	0.440784
0.000745394	0.648266
0.000802542	0.713102
0.00085969	0.777938
0.000945906	0.836271
0.00100305	0.901107
0.0010602	0.965943
0.00111735	1.03078
0.00123197	1.1345
0.00134718	1.19282
0.00143331	1.25764
0.00154851	1.31596
0.00166371	1.37428
0.0018079	1.43258
0.00198116	1.48438
0.00215449	1.52969
0.00226978	1.58152
0.00253049	1.59436
0.00279094	1.62665
0.00305149	1.65246
0.00334118	1.66527
0.00363079	1.68458
0.00389141	1.70389
0.00418111	1.71671
0.00447072	1.73601
0.00476049	1.74234
0.0050212	1.75518
0.00531097	1.76151
0.00560066	1.77432
0.00586145	1.78067
0.00615123	1.787
0.00644092	1.79982
0.00673078	1.79966
0.00699157	1.80601
0.00728126	1.81882
0.00757103	1.82515
0.00783174	1.83799
0.00812168	1.83134
0.00841137	1.84416
0.00867216	1.8505
0.00896202	1.85035
0.00925179	1.85668
0.00954157	1.86301
0.00983134	1.86934
0.0101212	1.86918
0.010382	1.87553
