Adsorption isotherm of Water on Silicalite MFI
DOI: 10.1016/S1387-1811(02)00428-6
Adsorbate Water: InChIKey XLYOFNOQVPJJNP-UHFFFAOYSA-N
Temperature: 298 K
Tabular data in the source: 0
pressure (bar)	uptake (mmol/g)
0.00133405	0.270814
0.00168646	0.323799
0.00260548	0.423882
0.00310127	0.465093
0.00359706	0.506304
0.00395163	0.529853
0.00444785	0.565176
0.0050149	0.606387
0.00558281	0.635823
0.00600864	0.659372
0.00664824	0.682921
0.00721615	0.712357
0.00785619	0.730019
0.00821032	0.759455
0.00884949	0.788892
0.00934658	0.812441
0.00955949	0.824215
0.0101274	0.853652
0.0107666	0.883088
0.0114062	0.906637
0.0117607	0.930186
0.0123282	0.965509
0.0128961	0.994946
0.0132507	1.01849
0.0138182	1.05382
0.0143861	1.08325
0.0150253	1.11269
0.0155927	1.14801
0.0162319	1.17745
0.0167998	1.20689
0.017439	1.23632
0.0180069	1.26576
0.0182902	1.28931
0.0188577	1.32463
0.0194252	1.35996
0.0199927	1.39528
0.0204889	1.4306
0.0210564	1.46593
0.0215521	1.50714
0.0221196	1.54246
0.0226867	1.58367
0.0231829	1.61899
0.0236791	1.65432
0.0242457	1.70142
0.0247437	1.71319
