Adsorption isotherm of 1,1,2-Trichloroethene on Silicalite MFI
DOI: 10.1016/S1387-1811(02)00428-6
Adsorbate 1,1,2-Trichloroethene: InChIKey XSTXAVWGXDQKEL-UHFFFAOYSA-N
Temperature: 348 K
Tabular data in the source: 0
pressure (bar)	uptake (mmol/g)
0.000233577	0.2871
0.000525547	0.378993
0.000788321	0.465491
0.00134307	0.567989
0.00262774	0.713194
0.00516788	0.851844
0.00931387	0.978202
