Adsorption isotherm of 1,1,2-Trichloroethene on Zeolite DAY
DOI: 10.1016/S1387-1811(02)00428-6
Adsorbate 1,1,2-Trichloroethene: InChIKey XSTXAVWGXDQKEL-UHFFFAOYSA-N
Temperature: 298 K
Tabular data in the source: 0
pressure (bar)	uptake (mmol/g)
0.000172432	0.116667
0.00025626	0.363116
0.000368991	0.616036
0.000397154	0.680887
0.000425316	0.745739
0.000509638	0.953267
0.000566786	1.0181
0.000623934	1.08294
0.000652178	1.1413
0.000709326	1.20614
0.00079546	1.27096
0.000881594	1.33578
0.000938824	1.39413
0.00102496	1.45895
0.00114016	1.51727
0.00125536	1.57559
0.00139955	1.63389
0.00163086	1.67917
0.00186233	1.71148
0.00212287	1.73728
0.00244139	1.76306
0.002731	1.78236
0.00299162	1.80168
0.00328131	1.8145
0.00354202	1.82733
0.00383171	1.84015
0.00409242	1.85298
0.00438211	1.8658
0.00470087	1.87211
0.00499056	1.88493
0.00525127	1.89776
0.00554105	1.90409
0.00583082	1.91042
0.00609161	1.91677
0.00638138	1.9231
0.00667116	1.92943
0.00696093	1.93576
0.00722172	1.9421
0.0075115	1.94843
0.00780127	1.95476
0.00814902	1.96106
0.00843879	1.96739
0.00872857	1.97372
0.00898936	1.98007
0.00927913	1.9864
0.00956891	1.99273
0.00985876	1.99257
0.0101485	1.9989
