Adsorption isotherm of Trichloromethane on Zeolite DAY
DOI: 10.1016/S1387-1811(02)00428-6
Adsorbate Trichloromethane: InChIKey HEDRZPFGACZZDS-UHFFFAOYSA-N
Temperature: 298 K
Tabular data in the source: 0
pressure (bar)	uptake (mmol/g)
0.000563474	0.119668
0.000988979	0.261774
0.00127776	0.448755
0.00170492	0.620777
0.00184828	0.69557
0.00199163	0.770362
0.00213499	0.845155
0.00411129	1.33878
0.00467186	1.4061
0.00523243	1.47341
0.00565421	1.5482
0.00649279	1.60804
0.0071934	1.69031
0.00830834	1.71275
0.0094241	1.75014
0.0108179	1.78006
0.012072	1.8025
0.0134654	1.82494
0.0147195	1.84737
0.0159736	1.86981
0.0173666	1.88477
0.0187595	1.89973
0.0200133	1.91469
0.0214058	1.92217
0.0226595	1.93712
0.0240525	1.95208
0.025445	1.95956
0.0265591	1.96704
0.027952	1.982
0.0292058	1.99696
0.0305983	2.00444
0.0319908	2.01192
0.0332445	2.02688
0.0343582	2.02688
0.0357507	2.03435
0.0371437	2.04931
0.0385362	2.05679
0.0397895	2.06427
0.0411816	2.06427
0.0425746	2.07923
0.0439671	2.08671
0.0452204	2.09419
0.0466129	2.10167
0.0480051	2.10167
0.0493976	2.10915
0.0507901	2.11663
0.0519046	2.13158
