Adsorption isotherm of Trichloromethane on Silicalite MFI
DOI: 10.1016/S1387-1811(02)00428-6
Adsorbate Trichloromethane: InChIKey HEDRZPFGACZZDS-UHFFFAOYSA-N
Temperature: 298 K
Tabular data in the source: 0
pressure (bar)	uptake (mmol/g)
0.000148326	0.164543
0.000292509	0.254294
0.000725472	0.531026
0.00101094	0.658173
0.0012993	0.837675
0.00158353	0.942385
0.00228994	1.12937
0.00438681	1.28643
0.00536419	1.33878
0.00661916	1.37618
0.0077345	1.4061
0.00912744	1.42106
0.0103808	1.42854
0.0117729	1.42854
0.013165	1.42854
0.0145571	1.42854
