Adsorption isotherm of 1,1,2-Trichloroethene on Silicalite MFI
DOI: 10.1016/S1387-1811(02)00428-6
Adsorbate 1,1,2-Trichloroethene: InChIKey XSTXAVWGXDQKEL-UHFFFAOYSA-N
Temperature: 298 K
Tabular data in the source: 0
pressure (bar)	uptake (mmol/g)
0.000116788	0.623306
0.000145985	0.894329
0.000262774	1.11648
0.000437956	1.30606
0.000525547	1.36561
0.000788321	1.43042
0.00154745	1.5219
0.00186861	1.55413
0.00256934	1.56976
0.0030073	1.58563
0.00370803	1.59584
0.0040292	1.59013
0.00475912	1.61115
0.00545985	1.61594
0.00618978	1.6207
0.0069781	1.62541
0.00759124	1.63027
0.00840876	1.62954
0.00908029	1.63435
0.00966423	1.6284
0.0102774	1.63327
