Adsorption isotherm of 1,1,2-Trichloroethene on Silicalite MFI
DOI: 10.1016/S1387-1811(02)00428-6
Adsorbate 1,1,2-Trichloroethene: InChIKey XSTXAVWGXDQKEL-UHFFFAOYSA-N
Temperature: 308 K
Tabular data in the source: 0
pressure (bar)	uptake (mmol/g)
0.000233577	0.959301
0.000525547	1.1054
0.000817518	1.20272
0.00134307	1.30524
0.00262774	1.43418
0.00519708	1.50776
0.00934307	1.56364
