Adsorption isotherm of 1,1,2-Trichloroethene on Silicalite MFI
DOI: 10.1016/S1387-1811(02)00428-6
Adsorbate 1,1,2-Trichloroethene: InChIKey XSTXAVWGXDQKEL-UHFFFAOYSA-N
Temperature: 308 K
Tabular data in the source: 0
pressure (bar)	uptake (mmol/g)
0.00020438	0.715384
0.000291971	0.845408
0.000408759	1.02419
0.000554745	1.14332
0.000905109	1.26227
0.00113869	1.31085
0.00137226	1.354
0.00160584	1.3809
0.00189781	1.40774
0.00248175	1.43974
0.00289051	1.45563
0.00332847	1.4715
0.00359124	1.47668
0.00388321	1.48184
0.00414599	1.49244
0.0049927	1.49168
0.00575182	1.50725
0.00636496	1.51212
0.00674453	1.5172
0.0070073	1.51696
0.00735766	1.51665
0.00776642	1.51628
0.00811679	1.51596
0.00835036	1.52117
0.00864234	1.52091
0.00893431	1.52064
0.00925547	1.52577
