Adsorption isotherm of Water on Silicalite MFI
DOI: 10.1016/S1387-1811(02)00428-6
Adsorbate Water: InChIKey XLYOFNOQVPJJNP-UHFFFAOYSA-N
Temperature: 323 K
Tabular data in the source: 0
pressure (bar)	uptake (mmol/g)
0.00112891	0.153069
0.00155344	0.194279
0.00218916	0.270814
0.0027575	0.294363
0.00339667	0.323799
0.00396459	0.353235
0.00460419	0.376784
0.00524379	0.400333
0.00588426	0.412108
0.00652386	0.435657
0.0071639	0.453318
0.00780393	0.47098
0.00851522	0.488642
0.009084	0.506304
0.00979572	0.518078
0.0104358	0.53574
0.0111475	0.547514
0.0118588	0.565176
0.0124992	0.576951
0.0131397	0.588725
0.0138514	0.6005
0.0144915	0.618161
0.0152036	0.624049
0.0159154	0.635823
0.0165558	0.647598
0.0172675	0.659372
0.0179084	0.665259
0.0186202	0.677034
0.0193319	0.688808
0.0199724	0.700583
0.0206845	0.70647
0.0213967	0.712357
0.0220371	0.724132
0.0227489	0.735906
0.0233898	0.741794
0.0241019	0.747681
0.0248141	0.753568
0.0255258	0.765343
