Adsorption isotherm of 1,1,2-Trichloroethene on Silicalite MFI
DOI: 10.1016/S1387-1811(02)00428-6
Adsorbate 1,1,2-Trichloroethene: InChIKey XSTXAVWGXDQKEL-UHFFFAOYSA-N
Temperature: 308 K
Tabular data in the source: 0
pressure (bar)	uptake (mmol/g)
0.000116788	0.596201
0.000175182	0.758778
0.00020438	0.888855
0.000350365	1.01883
0.000642336	1.16493
0.00128467	1.28903
0.00172263	1.35369
0.00224818	1.40742
0.00274453	1.4395
0.00327007	1.46613
0.00379562	1.4765
0.00467153	1.50281
0.00534307	1.52389
0.00583942	1.52344
0.00651095	1.53909
0.00706569	1.54401
0.00756204	1.54357
0.00843796	1.55362
0.00919708	1.55835
