Adsorption isotherm of 1,1,2-Trichloroethene on Silicalite MFI
DOI: 10.1016/S1387-1811(02)00428-6
Adsorbate 1,1,2-Trichloroethene: InChIKey XSTXAVWGXDQKEL-UHFFFAOYSA-N
Temperature: 348 K
Tabular data in the source: 0
pressure (bar)	uptake (mmol/g)
0.000116788	0.146261
0.000233577	0.216628
0.000642336	0.422255
0.000992701	0.535779
0.00137226	0.584225
0.00181022	0.638039
0.00230657	0.6918
0.00309489	0.750719
0.00376642	0.804322
0.00452555	0.830741
0.00554745	0.878606
0.00659854	0.915604
0.00753285	0.936443
0.00837956	0.962783
0.00916788	0.978334
