Adsorption isotherm of 1,1,2-Trichloroethene on Silicalite MFI
DOI: 10.1016/S1387-1811(02)00428-6
Adsorbate 1,1,2-Trichloroethene: InChIKey XSTXAVWGXDQKEL-UHFFFAOYSA-N
Temperature: 323 K
Tabular data in the source: 0
pressure (bar)	uptake (mmol/g)
0.000145985	0.341389
0.00020438	0.455177
0.000291971	0.563517
0.000408759	0.688094
0.000554745	0.801803
0.000817518	0.909985
0.000963504	0.958642
0.00110949	1.00188
0.00131387	1.04506
0.00145985	1.07203
0.00166423	1.1098
0.00192701	1.13666
0.00218978	1.15811
0.00280292	1.20092
0.00329927	1.22758
0.00423358	1.25926
0.00452555	1.26442
0.00481752	1.26415
0.00516788	1.27468
0.00581022	1.29036
0.00654015	1.30055
0.00683212	1.30028
0.00764964	1.31038
0.00794161	1.31012
0.00837956	1.31515
0.00867153	1.31488
0.0089927	1.32001
0.00928467	1.31975
