Adsorption isotherm of 1,1,2-Trichloroethene on Zeolite DAY
DOI: 10.1016/S1387-1811(02)00428-6
Adsorbate 1,1,2-Trichloroethene: InChIKey XSTXAVWGXDQKEL-UHFFFAOYSA-N
Temperature: 323 K
Tabular data in the source: 0
pressure (bar)	uptake (mmol/g)
0.000780144	0.194179
0.000924331	0.252481
0.00115506	0.34317
0.00127027	0.401488
0.00141445	0.45979
0.00152965	0.518108
0.00164486	0.576426
0.00176006	0.634744
0.00187518	0.699548
0.00199038	0.757866
0.00210558	0.816184
0.00222078	0.874502
0.00242269	0.952233
0.00256688	1.01054
0.00274014	1.06234
0.00291339	1.11413
0.00308665	1.16593
0.00325999	1.21125
0.00346231	1.25655
0.00366463	1.30184
0.00389594	1.34712
0.00409835	1.38594
0.00432974	1.42473
0.00467699	1.46995
0.00493745	1.50224
0.00519808	1.52156
0.0054587	1.54088
0.00574839	1.5537
0.0060091	1.56653
0.00629887	1.57286
0.00658857	1.58568
0.00684927	1.59851
0.00713905	1.60484
0.00739975	1.61767
0.00768953	1.624
0.00812415	1.63674
0.00841392	1.64307
0.00867463	1.6559
0.00896441	1.66223
0.00925426	1.66208
0.00954396	1.67489
0.00983381	1.67474
0.0100946	1.68108
