Adsorption isotherm of 1,1,2-Trichloroethene on Silicalite MFI
DOI: 10.1016/S1387-1811(02)00428-6
Adsorbate 1,1,2-Trichloroethene: InChIKey XSTXAVWGXDQKEL-UHFFFAOYSA-N
Temperature: 348 K
Tabular data in the source: 0
pressure (bar)	uptake (mmol/g)
8.76e-05	0.10834
0.000233577	0.184102
0.000350365	0.276153
0.000408759	0.341152
0.000642336	0.427676
0.000992701	0.535779
0.00116788	0.578989
0.00137226	0.61133
0.00157664	0.649092
0.00181022	0.681407
0.0019562	0.697538
0.00230657	0.735168
0.00277372	0.778114
0.00335766	0.810112
0.00391241	0.831295
0.00452555	0.857846
0.00481752	0.863003
0.00513869	0.868134
0.00554745	0.884027
0.00583942	0.894606
0.00610219	0.899789
0.00654015	0.910235
0.00712409	0.92055
0.00764964	0.925496
0.00808759	0.930521
0.00837956	0.930257
0.00867153	0.940835
0.00925547	0.940308
