Adsorption isotherm of 1,1,2-Trichloroethene on Silicalite MFI
DOI: 10.1016/S1387-1811(02)00428-6
Adsorbate 1,1,2-Trichloroethene: InChIKey XSTXAVWGXDQKEL-UHFFFAOYSA-N
Temperature: 298 K
Tabular data in the source: 0
pressure (bar)	uptake (mmol/g)
0.000116788	0.623306
0.000145985	0.894329
0.000233577	1.0623
0.000350365	1.28445
0.000525547	1.39272
0.000875912	1.46829
0.00148905	1.53821
0.00221898	1.57008
0.00274453	1.58044
0.00385401	1.59028
0.00443796	1.60602
0.00472993	1.60033
0.0050219	1.60007
0.00545985	1.6051
0.00575182	1.60483
0.0060438	1.60457
0.00633577	1.6043
0.00654015	1.60954
0.00683212	1.60928
0.00712409	1.60901
0.00741606	1.60875
0.00770803	1.60849
0.00849635	1.61319
0.00878832	1.61293
0.00908029	1.61267
0.00948905	1.6123
0.00978102	1.61203
0.010365	1.60609
