Adsorption isotherm of 1,1,2-Trichloroethene on Silicalite MFI
DOI: 10.1016/S1387-1811(02)00428-6
Adsorbate 1,1,2-Trichloroethene: InChIKey XSTXAVWGXDQKEL-UHFFFAOYSA-N
Temperature: 323 K
Tabular data in the source: 0
pressure (bar)	uptake (mmol/g)
0.000145985	0.000145985
0.000262774	0.666542
0.000379562	0.726067
0.000671533	0.834223
0.00105109	0.936879
0.00157664	1.02856
0.00218978	1.12016
0.00289051	1.16832
0.00359124	1.21647
0.00464234	1.26431
0.00519708	1.2855
0.00589781	1.31739
0.00659854	1.3276
0.00753285	1.34844
0.00826277	1.36404
0.00913869	1.37951
