Adsorption isotherm of Methane on Cu-BTC
DOI: 10.1021/la800803w
Article source: Figure 2
Adsorbate Methane: InChIKey VNWKTOKETHGBQD-UHFFFAOYSA-N
Kind: experiment
Temperature: 295 K
Tabular data in the source: 0
pressure (bar)	uptake (mmol/g)
0.02933	0
0.06735	0
0.1537	0
0.1761	0
0.2678	0
0.40066	0
0.43868	0
0.57865	0
0.7705	0
0.96917	0
