Adsorption isotherm of Carbon monoxide on CuBTC
DOI: 10.1021/La800803w
Adsorbate Carbon monoxide: InChIKey UGFAIRIUMAVXCW-UHFFFAOYSA-N
Temperature: 298 K
Tabular data in the source: 0
pressure (bar)	uptake (mmol/g)
0.746717	0.468183
1.40218	1.07121
3.25932	2.35591
5.4442	3.6144
9.48621	5.50213
13.5282	7.04902
17.898	8.20264
21.6123	9.06785
25.982	9.69709
30.1333	10.1952
34.1753	10.5361
38.3265	10.9818
42.2593	11.1653
