Adsorption isotherm of Nitrogen on CuBTC
DOI: 10.1021/la800803w
Article source: Figure 2
Adsorbate Nitrogen: InChIKey IJGRMHOSHXDMSA-UHFFFAOYSA-N
Kind: experiment
Temperature: 295 K
Tabular data in the source: 0
pressure (bar)	uptake (mmol/g)
0.0156	0.0187
0.11612	0.0493
0.22184	0.0861
0.34835	0.1166
0.63951	0.2023
0.82669	0.2698
