Adsorption isotherm of Methane on CuBTC
DOI: 10.1021/la800803w
Article source: Figure 4
Adsorbate Methane: InChIKey VNWKTOKETHGBQD-UHFFFAOYSA-N
Kind: experiment
Temperature: 298 K
Tabular data in the source: 0
pressure (bar)	uptake (mmol/g)
0.000618	0.5039
0.001235	1.1914
0.003246	2.3588
0.005335	3.4573
0.009439	5.0578
0.013159	6.1999
0.017424	7.02
0.021612	7.6337
0.03395	8.6951
0.041945	9.0512
