Adsorption isotherm of Nitrogen on Cu-BTC
DOI: 10.1021/la800803w
Article source: Figure 4
Adsorbate Nitrogen: InChIKey IJGRMHOSHXDMSA-UHFFFAOYSA-N
Kind: experiment
Temperature: 298 K
Tabular data in the source: 0
pressure (bar)	uptake (mmol/g)
0.000542	0
0.001162	0
0.003099	0
0.007131	0
0.009225	0
0.013336	0
0.017447	0
0.021637	0
0.025594	0
0.033975	0
0.042047	0
