Adsorption isotherm of Nitrogen on CuBTC
DOI: 10.1021/La800803w
Adsorbate Nitrogen: InChIKey IJGRMHOSHXDMSA-UHFFFAOYSA-N
Temperature: 298 K
Tabular data in the source: 0
pressure (bar)	uptake (mmol/g)
1.29294	0.363309
3.47781	0.887679
7.41058	1.75289
9.48621	2.14617
13.5282	2.74919
17.6795	3.29978
21.8307	3.74549
25.982	4.11255
34.2845	4.79423
42.3686	5.18751
