Adsorption isotherm of Carbon monoxide on Cu-BTC
DOI: 10.1021/la800803w
Article source: Figure 4
Adsorbate Carbon monoxide: InChIKey UGFAIRIUMAVXCW-UHFFFAOYSA-N
Kind: experiment
Temperature: 298 K
Tabular data in the source: 0
pressure (bar)	uptake (mmol/g)
0.000463	0
0.00139	0
0.003245	0
0.005411	0
0.009514	0
0.013309	0
0.017416	0
0.021603	0
0.025558	0
0.029748	0
0.033783	0
0.03805	0
0.041931	0
