Adsorption isotherm of Nitrogen on CuBTC
DOI: 10.1021/La800803w
Adsorbate Nitrogen: InChIKey IJGRMHOSHXDMSA-UHFFFAOYSA-N
Temperature: 295 K
Tabular data in the source: 0
pressure (bar)	uptake (mmol/g)
0.150397	0.202881
0.176615	0.233469
0.266195	0.336158
0.401657	0.47599
0.440985	0.517503
0.580817	0.65078
0.770901	0.819015
0.969724	0.978511
