Adsorption isotherm of Hydrogen on CuBTC
DOI: 10.1021/La800803w
Adsorbate Hydrogen: InChIKey UFHFLCQGNIYNRP-UHFFFAOYSA-N
Temperature: 298 K
Tabular data in the source: 0
pressure (bar)	uptake (mmol/g)
0.528229	0.101124
3.47781	0.17978
7.62907	0.284654
11.5618	0.389527
15.9316	0.546838
19.7551	0.677931
25.8728	0.809023
34.1753	1.01877
42.4778	1.2023
