Adsorption isotherm of Hydrogen on CuBTC
DOI: 10.1021/La800803w
Adsorbate Hydrogen: InChIKey UFHFLCQGNIYNRP-UHFFFAOYSA-N
Temperature: 298 K
Tabular data in the source: 0
pressure (bar)	uptake (mmol/g)
0.670377	0.0212238
5.21491	0.161056
19.0233	0.541224
30.0351	0.833997
44.8922	1.24475
64.6435	1.75601
