Adsorption isotherm of Methane on CuBTC
DOI: 10.1021/La800803w
Adsorbate Methane: InChIKey VNWKTOKETHGBQD-UHFFFAOYSA-N
Temperature: 298 K
Tabular data in the source: 0
pressure (bar)	uptake (mmol/g)
0.528229	0.441964
1.72991	1.14986
3.47781	2.3297
5.4442	3.43087
9.48621	5.00398
13.5282	6.18381
17.898	7.04902
21.8307	7.59961
34.2845	8.72701
42.3686	9.06785
