Adsorption isotherm of Methane on CuBTC
DOI: 10.1021/La800803w
Adsorbate Methane: InChIKey VNWKTOKETHGBQD-UHFFFAOYSA-N
Temperature: 295 K
Tabular data in the source: 0
pressure (bar)	uptake (mmol/g)
0.0345982	0.0302758
0.0717411	0.0848976
0.154766	0.154814
0.176615	0.183217
0.26838	0.22473
0.401657	0.403889
0.440985	0.443217
0.580817	0.567755
0.770901	0.707587
0.971909	0.891116
