Adsorption isotherm of Carbon monoxide on CuBTC
DOI: 10.1021/La800803w
Adsorbate Carbon monoxide: InChIKey UGFAIRIUMAVXCW-UHFFFAOYSA-N
Temperature: 295 K
Tabular data in the source: 0
pressure (bar)	uptake (mmol/g)
0.0433377	0.025906
0.0848503	0.0914522
0.141657	0.143889
0.222497	0.240024
0.325186	0.312124
0.421321	0.403889
0.541489	0.438847
0.672581	0.563385
0.840817	0.65515
1.0025	0.755654
