Adsorption isotherm of Hydrogen on CuBTC
DOI: 10.1021/La800803w
Adsorbate Hydrogen: InChIKey UFHFLCQGNIYNRP-UHFFFAOYSA-N
Temperature: 298 K
Tabular data in the source: 0
pressure (bar)	uptake (mmol/g)
1.36954	0.0387028
4.34097	0.139207
8.36113	0.270299
13.9544	0.449459
20.0721	0.654837
30.7342	0.917022
45.4166	1.2666
60.2737	1.56374
70.9359	1.72543
