Adsorption isotherm of Carbon monoxide on CuBTC
DOI: 10.1021/la800803w
Article source: Figure 2
Adsorbate Carbon monoxide: InChIKey UGFAIRIUMAVXCW-UHFFFAOYSA-N
Kind: experiment
Temperature: 295 K
Tabular data in the source: 0
pressure (bar)	uptake (mmol/g)
0.03972	0.038
0.08117	0.1011
0.1399	0.133
0.21762	0.2341
0.3247	0.3039
0.42142	0.4052
0.54231	0.4625
0.67876	0.5514
0.84111	0.6531
0.99655	0.7484
