Adsorption isotherm of Hydrogen on CuBTC
DOI: 10.1021/la800803w
Article source: Figure 4
Adsorbate Hydrogen: InChIKey UFHFLCQGNIYNRP-UHFFFAOYSA-N
Kind: experiment
Temperature: 298 K
Tabular data in the source: 0
pressure (bar)	uptake (mmol/g)
0.00062	0.1598
0.003337	0.2249
0.007141	0.3573
0.011488	0.489
0.015524	0.5981
0.019638	0.7531
0.025616	0.8596
0.033922	1.0776
0.041995	1.2271
