Adsorption isotherm of Hydrogen on Cu-BTC
DOI: 10.1021/la800803w
Article source: Figure 3
Adsorbate Hydrogen: InChIKey UFHFLCQGNIYNRP-UHFFFAOYSA-N
Kind: experiment
Temperature: 298 K
Tabular data in the source: 0
pressure (bar)	uptake (mmol/g)
0.000679	0
0.004345	0
0.018828	0
0.030201	0
0.044697	0
0.064867	0
