Adsorption isotherm of Nitrogen on CuBTC
DOI: 10.1021/La800803w
Adsorbate Nitrogen: InChIKey IJGRMHOSHXDMSA-UHFFFAOYSA-N
Temperature: 295 K
Tabular data in the source: 0
pressure (bar)	uptake (mmol/g)
0.124178	0.043385
0.218128	0.0848976
0.351405	0.117671
0.639808	0.196326
0.823338	0.274982
