Adsorption isotherm of Carbon monoxide on CuBTC
DOI: 10.1021/La800803w
Adsorbate Carbon monoxide: InChIKey UGFAIRIUMAVXCW-UHFFFAOYSA-N
Temperature: 295 K
Tabular data in the source: 0
pressure (bar)	uptake (mmol/g)
0.0826654	0.060864
0.143842	0.111116
0.224682	0.198511
0.320817	0.268427
0.423506	0.373301
0.543674	0.493469
0.679136	0.620192
0.843002	0.751284
1.0025	0.886746
