Adsorption isotherm of Nitrogen on CuBTC
DOI: 10.1021/La800803w
Adsorbate Nitrogen: InChIKey IJGRMHOSHXDMSA-UHFFFAOYSA-N
Temperature: 295 K
Tabular data in the source: 0
pressure (bar)	uptake (mmol/g)
0.021489	0.0171665
0.0477074	0.0237211
0.100144	0.0477547
0.161321	0.0717884
0.242161	0.106746
0.340481	0.152629
0.445354	0.198511
0.596111	0.257503
0.764346	0.323049
0.901993	0.375486
0.998128	0.403889
