Adsorption isotherm of Nitrogen on Gamma-Fe2O3/C-5
DOI: 10.1016/j.carbon.2013.03.032
Adsorbate Nitrogen: InChIKey IJGRMHOSHXDMSA-UHFFFAOYSA-N
Temperature: 77 K
Tabular data in the source: 0
pressure (bar)	uptake (cm3(STP)/g)
0.0066467	641.425
0.0614224	681.079
0.148151	713.523
0.230314	735.152
0.364971	763.99
0.479087	785.62
0.586357	810.854
0.700473	843.297
0.784919	875.741
0.878494	929.814
0.95381	1005.52
1.00174	1084.82
1.01087	1138.9
