Adsorption isotherm of Nitrogen on Gamma-Fe2O3/C-6
DOI: 10.1016/j.carbon.2013.03.032
Adsorbate Nitrogen: InChIKey IJGRMHOSHXDMSA-UHFFFAOYSA-N
Temperature: 77 K
Tabular data in the source: 0
pressure (bar)	uptake (cm3(STP)/g)
0.00208205	861.322
0.0431639	900.975
0.120763	926.209
0.223467	944.233
0.369536	969.467
0.492781	991.096
0.643415	1019.94
0.730143	1045.17
0.803177	1077.61
0.869365	1113.66
0.93327	1164.13
0.994892	1261.46
1.01543	1333.56
