Adsorption isotherm of Nitrogen on Gamma-Fe2O3/C-4
DOI: 10.1016/j.carbon.2013.03.032
Adsorbate Nitrogen: InChIKey IJGRMHOSHXDMSA-UHFFFAOYSA-N
Temperature: 77 K
Tabular data in the source: 0
pressure (bar)	uptake (cm3(STP)/g)
0.00436438	482.812
0.0705517	518.861
0.202926	554.909
0.376383	576.538
0.522452	616.192
0.70732	666.659
0.832847	713.523
0.92414	782.015
0.978916	857.717
1.0063	955.048
