Adsorption isotherm of Nitrogen on Gamma-Fe2O3/C-2
DOI: 10.1016/j.carbon.2013.03.032
Adsorbate Nitrogen: InChIKey IJGRMHOSHXDMSA-UHFFFAOYSA-N
Temperature: 77 K
Tabular data in the source: 0
pressure (bar)	uptake (cm3(STP)/g)
0.00436438	172.795
0.0340346	198.029
0.0956573	223.263
0.198362	252.101
0.303349	270.126
0.419747	291.755
0.520169	306.174
0.647979	331.408
0.721014	353.037
0.823718	374.666
0.889905	403.505
0.937834	428.739
0.978916	464.788
1.00859	497.231
