Adsorption isotherm of Nitrogen on Gamma-Fe2O3/C-1
DOI: 10.1016/j.carbon.2013.03.032
Adsorbate Nitrogen: InChIKey IJGRMHOSHXDMSA-UHFFFAOYSA-N
Temperature: 77 K
Tabular data in the source: 0
pressure (bar)	uptake (cm3(STP)/g)
0.00208205	93.4879
0.022623	129.536
0.0910926	151.166
0.234879	180.004
0.401488	205.238
0.542992	223.263
0.670803	237.682
0.803177	262.916
0.901317	288.15
0.972069	316.989
1.0063	342.223
