Adsorption isotherm of Nitrogen on Gamma-Fe2O3/C-3
DOI: 10.1016/j.carbon.2013.03.032
Adsorbate Nitrogen: InChIKey IJGRMHOSHXDMSA-UHFFFAOYSA-N
Temperature: 77 K
Tabular data in the source: 0
pressure (bar)	uptake (cm3(STP)/g)
0.00208205	309.779
0.0294699	345.828
0.116198	389.086
0.253138	414.32
0.435723	446.763
0.593204	464.788
0.709602	479.207
0.819153	515.256
0.901317	540.49
0.972069	590.958
1.02	645.03
