Adsorption isotherm of Nitrogen on Gamma-Fe2O3/C-7
DOI: 10.1016/j.carbon.2013.03.032
Adsorbate Nitrogen: InChIKey IJGRMHOSHXDMSA-UHFFFAOYSA-N
Temperature: 77 K
Tabular data in the source: 0
pressure (bar)	uptake (cm3(STP)/g)
0.00436438	1012.73
0.0614224	1063.19
0.161845	1099.24
0.307913	1128.08
0.474523	1153.31
0.60918	1174.94
0.718731	1218.2
0.841977	1261.46
0.917293	1319.14
0.960657	1373.21
0.999457	1459.73
1.01087	1517.4
