Adsorption isotherm of Hydrogen on UTSA-36a
DOI: 10.1002/chem.201100350
Adsorbate Hydrogen: InChIKey UFHFLCQGNIYNRP-UHFFFAOYSA-N
Temperature: 77 K
Tabular data in the source: 0
pressure (bar)	uptake (cm3(STP)/g)
0.00656653	4.23861
0.00656653	8.52096
0.0111985	13.721
0.0135144	20.4504
0.0389901	40.9445
0.0945733	60.8268
0.117733	66.3327
0.180264	76.4268
0.330802	93.5563
0.462812	103.039
0.60177	108.85
0.84263	118.027
0.895898	118.639
0.976956	121.392
1.02559	122.615
1.05802	122.615
