Adsorption isotherm of Acetylene on UTSA-36a
DOI: 10.1002/chem.201100350
Adsorbate Acetylene: InChIKey HSFWRNGVRCDJHI-UHFFFAOYSA-N
Temperature: 296 K
Tabular data in the source: 0
pressure (bar)	uptake (cm3(STP)/g)
0.0358148	6.25444
0.0671669	10.3953
0.0955331	14.2826
0.126885	17.6629
0.183618	23.3249
0.247815	28.1418
0.314998	33.2122
0.404575	38.1981
0.473251	41.3249
0.555364	44.7051
0.647928	47.8319
0.74497	50.8742
0.840519	53.0713
0.955477	55.4375
1.01967	56.2826
1.057	56.6206
