Adsorption isotherm of Methane on UTSA-36a
DOI: 10.1002/chem.201100350
Adsorbate Methane: InChIKey VNWKTOKETHGBQD-UHFFFAOYSA-N
Temperature: 273 K
Tabular data in the source: 0
pressure (bar)	uptake (cm3(STP)/g)
0.0115281	0.41488
0.0676184	2.24546
0.0994533	3.27517
0.158575	5.22016
0.252564	7.96603
0.311687	9.56779
0.378388	11.1696
0.469346	13.3434
0.566366	15.4028
0.655808	17.4622
0.783148	19.636
0.875621	21.2378
0.96961	22.8395
1.03025	23.9836
1.06208	24.4413
