Adsorption isotherm of Acetylene on UTSA-36a
DOI: 10.1002/chem.201100350
Adsorbate Acetylene: InChIKey HSFWRNGVRCDJHI-UHFFFAOYSA-N
Temperature: 273 K
Tabular data in the source: 0
pressure (bar)	uptake (cm3(STP)/g)
0.0433631	13.5722
0.0676184	22.0386
0.100969	29.361
0.129772	34.7383
0.194958	43.548
0.258628	50.7559
0.319266	55.79
0.38142	60.0232
0.472377	64.8285
0.555755	68.4897
0.663387	71.5788
0.748281	73.867
0.84227	76.1553
0.942322	78.4435
1.00448	79.2444
1.05602	80.1597
