Adsorption isotherm of Nitrogen on UTSA-36a
DOI: 10.1002/chem.201100350
Adsorbate Nitrogen: InChIKey IJGRMHOSHXDMSA-UHFFFAOYSA-N
Temperature: 77 K
Tabular data in the source: 0
pressure (bar)	uptake (cm3(STP)/g)
0.00182509	94.4177
0.00400996	22.3168
0.00400996	47.4429
0.00400996	71.4765
0.00400996	111.897
0.00619484	122.821
0.0149343	130.468
0.0630016	138.661
0.132918	144.67
0.222497	156.687
0.323002	168.703
0.399472	175.258
0.495607	180.174
0.593926	186.182
0.687876	191.645
0.759976	194.376
0.821153	197.653
0.884514	205.846
0.923842	208.577
0.95006	210.762
