Adsorption isotherm of Ethene on UTSA-36a
DOI: 10.1002/chem.201100350
Adsorbate Ethene: InChIKey VGGSQFUCUMXWEO-UHFFFAOYSA-N
Temperature: 273 K
Tabular data in the source: 0
pressure (bar)	uptake (cm3(STP)/g)
0.0115281	3.04634
0.0357834	12.7713
0.0661024	20.7801
0.102485	26.1575
0.12674	30.9627
0.161607	35.5392
0.193442	38.5139
0.249533	43.548
0.284399	46.1795
0.351101	49.2686
0.411739	52.4721
0.498149	55.1035
0.595169	57.9638
0.687643	59.9088
0.95445	62.9979
1.03025	63.6844
1.0636	63.7988
