Adsorption isotherm of Ethene on UTSA-36a
DOI: 10.1002/chem.201100350
Adsorbate Ethene: InChIKey VGGSQFUCUMXWEO-UHFFFAOYSA-N
Temperature: 296 K
Tabular data in the source: 0
pressure (bar)	uptake (cm3(STP)/g)
0.0328289	5.32486
0.0626881	8.87415
0.0970261	12.7615
0.126885	15.8882
0.158237	18.4235
0.189589	21.1277
0.25528	25.4375
0.312012	28.3953
0.376209	31.6911
0.43742	34.3108
0.500125	36.3389
0.592688	39.0432
0.683758	41.2404
0.777815	43.0995
0.868885	44.3671
0.925618	45.1277
0.985336	45.7192
1.02565	46.2263
1.05849	46.3108
