Adsorption isotherm of Ethane on UTSA-36a
DOI: 10.1002/chem.201100350
Adsorbate Ethane: InChIKey OTMSDBZUPAUEDD-UHFFFAOYSA-N
Temperature: 273 K
Tabular data in the source: 0
pressure (bar)	uptake (cm3(STP)/g)
0.00849624	1.67341
0.0221398	10.7119
0.0403312	18.6063
0.0721662	28.3313
0.0979374	33.823
0.125225	38.7427
0.163123	42.9759
0.225277	47.438
0.288947	50.8703
0.354133	53.1586
0.443574	55.6756
0.567882	58.3071
0.720994	59.5656
0.871073	60.5953
0.983253	61.5106
1.03025	61.7394
