Adsorption isotherm of Methane on UTSA-36a
DOI: 10.1002/chem.201100350
Adsorbate Methane: InChIKey VNWKTOKETHGBQD-UHFFFAOYSA-N
Temperature: 296 K
Tabular data in the source: 0
pressure (bar)	uptake (cm3(STP)/g)
0.0104345	0.42345
0.0671669	1.18401
0.0940402	1.60655
0.15973	2.62063
0.219449	3.63472
0.285139	4.31077
0.340378	5.07134
0.406068	5.8319
0.529984	7.35303
0.594181	8.11359
0.685251	9.12768
0.777815	10.3108
0.871871	11.4094
0.924125	11.7474
0.991308	12.4234
1.01818	12.7615
1.05998	13.0995
