Adsorption isotherm of Ethane on UTSA-36a
DOI: 10.1002/chem.201100350
Adsorbate Ethane: InChIKey OTMSDBZUPAUEDD-UHFFFAOYSA-N
Temperature: 296 K
Tabular data in the source: 0
pressure (bar)	uptake (cm3(STP)/g)
0.00894159	0.845985
0.0268571	4.98683
0.065674	12.0009
0.0970261	16.3108
0.128378	19.7756
0.15973	22.9023
0.222435	27.8882
0.344857	34.9023
0.438913	38.1136
0.53297	41.0713
0.627026	43.2685
0.74497	45.2122
0.840519	46.4798
0.930097	47.4094
0.99728	48.0854
1.057	48.508
