Adsorption isotherm of Nitrogen on [Cu2(EBTC)(H2O)2]*8H2O*DMF*DMSO
DOI: 10.1039/B917046d
Adsorbate Nitrogen: InChIKey IJGRMHOSHXDMSA-UHFFFAOYSA-N
Temperature: 77 K
Tabular data in the source: 0
pressure (bar)	uptake (cm3(STP)/g)
0.0135144	205.628
0.0135144	444.216
0.0158304	302.636
0.0158304	517.628
0.0158304	598.905
0.0343581	629.056
0.0899413	638.233
0.284483	646.098
0.534607	648.72
0.960745	647.409
