Adsorption isotherm of Hydrogen on [Cu2(EBTC)(H2O)2]*8H2O*DMF*DMSO
DOI: 10.1039/B917046d
Adsorbate Hydrogen: InChIKey UFHFLCQGNIYNRP-UHFFFAOYSA-N
Temperature: 77 K
Tabular data in the source: 0
pressure (bar)	uptake (cm3(STP)/g)
0.0274102	15.5436
0.0783615	62.7369
0.129313	92.8881
0.263639	145.325
0.421125	187.275
0.527659	212.182
0.661985	237.09
0.789363	258.065
0.976956	282.972
1.03022	288.216
