Adsorption isotherm of Methane on [Cu2(EBTC)(H2O)2]*8H2O*DMF*DMSO
DOI: 10.1039/B917046d
Adsorbate Methane: InChIKey VNWKTOKETHGBQD-UHFFFAOYSA-N
Temperature: 273 K
Tabular data in the source: 0
pressure (bar)	uptake (cm3(STP)/g)
0.0505699	1.12343
0.122365	1.12343
0.233531	3.74528
0.372489	8.98898
0.518395	11.6108
0.629561	15.5436
0.729148	16.8545
0.84263	22.0982
0.951481	27.3419
1.06033	29.9638
