Adsorption isotherm of Acetylene on [Cu2(EBTC)(H2O)2]*8H2O*DMF*DMSO
DOI: 10.1039/B917046d
Adsorbate Acetylene: InChIKey HSFWRNGVRCDJHI-UHFFFAOYSA-N
Temperature: 273 K
Tabular data in the source: 0
pressure (bar)	uptake (cm3(STP)/g)
0.00888249	32.695
0.0366741	67.653
0.113101	105.342
0.219635	131.014
0.328486	153.955
0.43502	174.166
0.548503	192.191
0.692093	213.493
0.840314	232.065
1.05802	254.46
