Adsorption isotherm of Acetylene on [Cu2(EBTC)(H2O)2]*8H2O*DMF*DMSO
DOI: 10.1039/B917046d
Adsorbate Acetylene: InChIKey HSFWRNGVRCDJHI-UHFFFAOYSA-N
Temperature: 295 K
Tabular data in the source: 0
pressure (bar)	uptake (cm3(STP)/g)
0.00888249	3.19919
0.0343581	37.611
0.101521	62.737
0.184896	85.132
0.284483	103.157
0.441968	120.636
0.585558	134.292
0.731464	145.762
0.916741	156.687
1.06033	161.603
