Adsorption isotherm of Carbon Dioxide on [Cu2(EBTC)(H2O)2]*8H2O*DMF*DMSO
DOI: 10.1039/B917046d
Adsorbate Carbon Dioxide: InChIKey CURLTUGMZLYLDI-UHFFFAOYSA-N
Temperature: 273 K
Tabular data in the source: 0
pressure (bar)	uptake (cm3(STP)/g)
0.0158304	3.74528
0.117733	20.7873
0.231215	47.0058
0.374805	74.5352
0.48134	95.51
0.620298	119.107
0.766204	142.703
0.87737	161.056
0.98622	174.165
1.05802	183.342
