Adsorption isotherm of Nitrogen on TT DBC-COF
DOI: 10.1039/c9nr08007d
Article source: Figure S8
Adsorbate Nitrogen: InChIKey IJGRMHOSHXDMSA-UHFFFAOYSA-N
Kind: experiment
Temperature: 77 K
Tabular data in the source: 0
pressure (bar)	uptake (cm3(STP)/g)
0.000144	121.604
0.003313	173.019
0.005425	196.1
0.010706	211.178
0.018099	235.303
0.029716	248.957
0.043094	257.225
0.055063	266.255
0.156452	318.846
0.243055	374.221
0.272626	378.894
0.287412	380.882
0.33177	386.35
0.346556	387.94
0.358173	389.158
0.380352	391.321
0.405699	393.905
0.42999	395.943
0.455337	398.611
0.48174	401.163
0.508144	403.019
0.533491	404.99
0.557782	407.128
0.583129	408.917
0.609532	410.674
0.633823	412.695
0.658114	414.269
0.685574	415.429
0.708809	417.749
0.734156	419.952
0.759503	421.924
0.78485	424.244
0.813366	426.216
0.835544	428.419
0.865116	431.783
0.886239	434.567
0.914754	438.185
0.939045	442.222
0.236395	372.771
0.223763	371.581
0.212936	363.258
0.203913	348.989
0.203913	354.935
0.211131	369.203
0.018045	241.974
0.009023	224.138
0.007218	218.193
0.005414	206.302
0.001805	188.466
0.028873	257.432
0.0397	263.377
0.050527	271.7
0.063159	277.646
0.063159	274.078
0.070377	282.402
0.073986	277.646
0.081204	288.347
0.081204	283.591
0.092032	294.293
0.093836	288.347
0.102859	300.238
0.102859	294.293
0.111882	304.994
0.111882	299.049
0.122709	310.939
0.122709	303.805
0.131732	315.696
0.131732	308.561
0.144363	319.263
0.146168	315.696
0.153386	325.208
0.166018	329.964
0.166018	326.397
0.173236	334.721
0.175041	329.964
0.180454	339.477
0.182259	335.91
0.193086	344.233
0.193086	340.666
0.221959	378.716
0.23459	379.905
0.241809	382.283
0.250831	383.472
0.261659	384.661
0.270681	387.039
0.283313	388.228
0.29414	389.417
0.304967	389.417
0.315795	390.606
0.324817	392.985
0.335645	392.985
0.344667	394.174
0.35369	395.363
0.295945	383.472
0.304967	383.472
0.31399	383.472
0.323013	384.661
0.339254	385.85
0.252636	375.149
0.261659	377.527
0.958211	456.005
0.96543	456.005
0.996107	480.975
0.934752	447.681
0.913098	444.114
0.887834	441.736
0.862571	436.98
0.837307	434.602
0.810239	432.224
0.784976	429.845
0.759712	428.656
0.734448	425.089
0.709185	423.9
0.682117	422.711
0.656853	422.711
0.631589	420.333
0.606326	417.955
0.581062	415.577
0.557603	414.388
0.530535	413.199
0.505272	410.82
0.480008	408.442
0.45294	406.064
0.429481	402.497
0.404217	401.308
0.378954	398.93
