Adsorption isotherm of Nitrogen on TA DBC-COF
DOI: 10.1039/c9nr08007d
Article source: Figure S6
Adsorbate Nitrogen: InChIKey IJGRMHOSHXDMSA-UHFFFAOYSA-N
Kind: experiment
Temperature: 77 K
Tabular data in the source: 0
pressure (bar)	uptake (cm3(STP)/g)
0.005866	338.335
0.019587	377.24
0.015365	346.709
0.035068	399.745
0.050196	420.183
0.064973	435.834
0.07975	448.994
0.094527	465.443
0.110095	479.545
0.12408	493.856
0.138857	507.613
0.153634	524.96
0.164189	538.618
0.172632	584.975
0.187409	611.992
0.194587	636.038
0.203593	622.709
0.216963	626.048
0.23174	632.329
0.246516	637.713
0.261293	642.797
0.266571	677.49
0.27607	647.881
0.290847	652.367
0.305624	657.153
0.3204	662.237
0.335177	667.919
0.349954	672.705
0.379507	681.677
0.409905	692.145
0.436152	699.821
0.451984	704.706
0.482945	711.286
0.533608	725.941
0.578361	740.297
0.607492	745.082
0.638453	755.998
0.663222	764.582
0.688553	771.281
0.713885	780.493
0.730632	789.146
0.763	803.103
0.788684	814.269
0.8169	828.645
0.838995	847.068
0.890362	897.313
0.937507	997.385
0.964246	1099.13
0.992911	1455.99
0.961478	1191.93
0.937441	1067.24
0.911555	993.888
0.911555	935.208
0.863481	872.861
0.88382	938.875
0.861632	902.201
0.833897	872.861
0.808011	854.523
0.780276	836.186
0.758089	821.516
0.732203	810.513
0.706317	806.846
0.680431	792.176
0.656394	784.841
0.630508	781.174
0.610169	770.171
0.580585	770.171
0.554699	729.829
0.554699	748.166
0.532511	748.166
0.484437	737.164
0.427118	718.826
0.40493	707.824
0.379044	704.156
0.356856	696.822
0.506625	737.164
0.506625	718.826
0.454853	726.161
0.343913	685.819
0.332819	682.152
0.325423	682.152
0.310631	678.484
0.303235	678.484
0.290292	674.817
0.284745	674.817
0.273651	667.482
0.260708	660.147
0.255161	660.147
0.24037	656.479
0.231125	652.812
0.218182	641.809
0.210786	641.809
0.205239	638.142
0.183051	627.139
0.171957	608.802
0.160863	557.457
0.151618	539.12
0.144222	528.117
0.131279	524.45
0.123883	513.447
0.109091	498.777
0.101695	487.775
0.090601	480.44
0.083205	473.105
0.072111	462.103
0.061017	451.1
0.048074	436.43
0.042527	421.76
0.044376	414.425
0.031433	410.758
0.020339	392.421
0.009245	363.081
0.003698	322.738
0.003698	297.066
0.001849	29.3399
