Adsorption isotherm of Nitrogen on Biph DBC-COF
DOI: 10.1039/c9nr08007d
Article source: Figure 2a
Adsorbate Nitrogen: InChIKey IJGRMHOSHXDMSA-UHFFFAOYSA-N
Kind: experiment
Temperature: 77 K
Tabular data in the source: 0
pressure (bar)	uptake (cm3(STP)/g)
0.001923	157.754
0.001923	262.032
0.001923	278.075
0.003845	307.487
0.003845	296.791
0.007691	328.877
0.007691	320.856
0.009613	347.594
0.009613	344.92
0.017304	379.679
0.021149	377.005
0.02884	403.743
0.030763	401.07
0.040376	419.786
0.042299	414.439
0.992101	1104.28
0.961338	1010.7
0.961338	986.631
0.932498	962.567
0.936343	943.85
0.909426	938.503
0.915194	925.134
0.888276	925.134
0.888276	909.091
0.861359	914.438
0.861359	901.07
0.830596	903.743
0.838287	893.048
0.811369	895.722
0.811369	882.353
0.782529	887.701
0.788297	879.679
0.757534	885.027
0.76138	871.658
0.734462	879.679
0.738307	868.984
0.709467	871.658
0.71139	860.963
0.684472	866.31
0.68255	855.615
0.657555	863.636
0.657555	852.941
0.63256	858.289
0.634483	844.92
0.607565	852.941
0.611411	839.572
0.582571	847.594
0.582571	836.898
0.557576	842.246
0.555653	828.877
0.530658	836.898
0.532581	826.203
0.503741	831.551
0.507586	823.529
0.482592	823.529
0.482592	815.508
0.455674	818.182
0.457597	810.16
0.428757	815.508
0.428757	807.487
0.405685	807.487
0.403762	799.465
0.378767	794.118
0.38069	796.791
0.355695	794.118
0.355695	786.096
0.346082	791.444
0.346082	786.096
0.334546	786.096
0.336468	780.749
0.324932	783.422
0.324932	775.401
0.315319	778.075
0.311473	775.401
0.303783	772.727
0.30186	770.053
0.294169	745.989
0.294169	719.251
0.048067	430.481
0.048067	425.134
0.061526	446.524
0.061526	438.503
0.071139	457.219
0.071139	451.872
0.080752	462.567
0.080752	457.219
0.092288	475.936
0.092288	470.588
0.101902	486.631
0.101902	483.957
0.111515	491.979
0.111515	486.631
0.123051	505.348
0.123051	500
0.128819	513.369
0.140355	524.064
0.151891	542.781
0.151891	534.759
0.161505	550.802
0.161505	548.128
0.140355	532.086
0.130742	510.695
0.163427	542.781
0.173041	561.497
0.173041	556.15
0.180731	572.193
0.180731	566.845
0.19419	582.888
0.19419	577.54
0.201881	590.909
0.203804	582.888
0.213417	601.604
0.213417	596.257
0.221108	609.626
0.221108	601.604
0.232644	625.668
0.282633	684.492
0.282633	676.471
0.274943	671.123
0.274943	665.775
0.261484	652.406
0.261484	649.733
0.25187	647.059
0.25187	639.037
0.242257	633.69
0.242257	628.342
0.234566	620.321
