Adsorption isotherm of Oxygen on PCM-10
DOI: 10.1021/Ic4022239
Adsorbate Oxygen: InChIKey MYMOFIZGZYHOMD-UHFFFAOYSA-N
Temperature: 77 K
Tabular data in the source: 0
pressure (bar)	uptake (cm3(STP)/g)
0.0606848	1.55883
0.0829159	1.7347
0.105156	2.08261
0.135485	2.60395
0.155705	2.95152
0.177953	3.47148
0.208274	3.82078
0.236592	4.51382
0.256802	4.68934
0.283074	4.86591
0.309372	5.5586
0.333632	5.90686
0.357892	6.25512
0.388212	6.60442
0.408441	7.12403
0.43068	7.47195
0.456978	8.16464
0.483258	8.51325
0.509538	8.86186
0.531778	9.20977
0.560087	9.73077
0.582327	10.0787
0.606596	10.599
0.630856	10.9472
0.659174	11.6403
0.685463	12.1609
0.709723	12.5092
0.73602	13.2019
0.762301	13.5505
0.784558	14.2425
0.808844	15.1069
0.833121	15.7992
0.853341	16.1468
0.883687	17.0122
0.907982	18.0487
0.930265	19.2568
0.954612	21.3255
0.970913	24.081
