Adsorption isotherm of Carbon Dioxide on O=PCM-10
DOI: 10.1021/Ic4022239
Adsorbate Carbon Dioxide: InChIKey CURLTUGMZLYLDI-UHFFFAOYSA-N
Temperature: 196 K
Tabular data in the source: 0
pressure (bar)	uptake (cm3(STP)/g)
0.0226843	34.7084
0.0537789	41.8665
0.0771388	45.4426
0.0985661	48.076
0.12392	49.7646
0.151223	51.641
0.178538	52.9515
0.199994	54.2642
0.225361	55.3867
0.246825	56.322
0.276105	57.0656
0.303425	58.1874
0.32685	58.7446
0.348314	59.6799
0.37174	60.2371
0.399063	61.1702
0.426399	61.5372
0.447867	62.2838
0.473246	62.8403
0.500581	63.2073
0.525956	63.9525
0.545479	64.3225
0.57476	65.0661
0.598189	65.4346
0.627478	65.801
0.650904	66.3581
0.676286	66.7259
0.699712	67.2831
0.723141	67.6516
0.750477	68.0187
0.768043	68.5781
0.791477	68.7579
0.826621	69.3107
0.848101	69.4913
0.869578	69.8605
0.89496	70.2283
0.920343	70.5961
0.947683	70.7745
0.96721	70.9558
0.988691	71.1363
