Adsorption isotherm of Carbon Dioxide on [Me-PCM-10]I
DOI: 10.1021/Ic4022239
Adsorbate Carbon Dioxide: InChIKey CURLTUGMZLYLDI-UHFFFAOYSA-N
Temperature: 196 K
Tabular data in the source: 0
pressure (bar)	uptake (cm3(STP)/g)
0.0251329	11.8773
0.0523376	18.2821
0.0796243	20.9133
0.103017	22.98
0.151776	26.1691
0.2025	28.7915
0.227862	30.1027
0.247377	30.85
0.274701	31.7831
0.298126	32.3403
0.327403	33.2727
0.346922	33.8314
0.374258	34.1984
0.39962	35.5096
0.423045	36.0668
0.442573	36.2481
0.473803	37.1797
0.501138	37.5467
0.524564	38.1039
0.549942	38.6604
0.573368	39.2176
0.600703	39.5846
0.626082	40.1411
0.647558	40.5104
0.672937	41.0668
0.702226	41.4331
0.719796	41.8039
0.751038	42.1694
0.772518	42.35
0.793995	42.7192
0.82522	43.8395
0.844744	44.2095
0.872075	44.7653
0.895505	45.1338
0.913083	45.1271
0.946274	45.6807
0.971661	45.8598
