Adsorption isotherm of Carbon Dioxide on ClAu-PCM-10
DOI: 10.1021/Ic4022239
Adsorbate Carbon Dioxide: InChIKey CURLTUGMZLYLDI-UHFFFAOYSA-N
Temperature: 196 K
Tabular data in the source: 0
pressure (bar)	uptake (cm3(STP)/g)
0.0755624	28.0847
0.0950529	29.9641
0.128211	32.0271
0.149671	33.1511
0.175033	34.4623
0.196506	35.0202
0.223833	35.7646
0.253114	36.5083
0.27068	37.0677
0.292144	38.003
0.348699	41.9439
0.377992	42.1215
0.401418	42.6787
0.424851	42.8585
0.448281	43.2271
0.471706	43.7843
0.497093	43.9634
0.522467	44.7085
0.545897	45.077
0.571275	45.6335
0.598603	46.3779
0.622028	46.9351
0.645462	47.1149
0.672794	47.6706
0.696219	48.2278
0.721602	48.5956
0.748933	49.1513
0.768461	49.3327
0.797745	49.8876
0.819218	50.4456
0.848503	51.0006
0.871932	51.3691
0.899268	51.7361
0.920748	51.9167
0.942229	52.0973
0.991041	52.8336
