Adsorption isotherm of Carbon Dioxide on ClAu-PCM-10
DOI: 10.1021/Ic4022239
Adsorbate Carbon Dioxide: InChIKey CURLTUGMZLYLDI-UHFFFAOYSA-N
Temperature: 196 K
Tabular data in the source: 0
pressure (bar)	uptake (cm3(STP)/g)
0.0500405	34.1321
0.0714719	36.5768
0.096834	37.888
0.124145	39.3871
0.145601	40.6998
0.165112	41.6358
0.190487	42.3809
0.217814	43.1254
0.247095	43.869
0.274422	44.6134
0.299801	45.1699
0.321277	45.5391
0.346652	46.2843
0.370081	46.6528
0.399366	47.2078
0.426698	47.7635
0.448178	47.9441
0.469651	48.502
0.49308	48.8705
0.518467	49.0496
0.545803	49.4167
0.571185	49.7845
0.594619	49.9643
0.618048	50.3328
0.643431	50.7006
0.668818	50.8797
0.694204	51.0588
0.715681	51.428
0.743021	51.6064
0.770361	51.7848
0.793782	52.5306
0.821134	52.143
0.84261	52.5122
0.869946	52.8793
0.89338	53.0591
0.922673	53.2367
0.942204	53.2294
0.963689	53.2212
