Adsorption isotherm of Nitrogen on PCM-10
DOI: 10.1021/Ic4022239
Adsorbate Nitrogen: InChIKey IJGRMHOSHXDMSA-UHFFFAOYSA-N
Temperature: 77 K
Tabular data in the source: 0
pressure (bar)	uptake (cm3(STP)/g)
0.0242774	0.692349
0.0485374	1.04061
0.0748003	1.04513
0.103092	1.22204
0.121274	1.22517
0.149566	1.40208
0.179886	1.75138
0.20412	1.5835
0.232412	1.76041
0.254635	1.76424
0.280915	2.11285
0.303137	2.11667
0.329391	1.94914
0.351614	1.95297
0.377894	2.30157
0.404166	2.47814
0.426388	2.48196
0.446608	2.82952
0.470841	2.66165
0.499133	2.83856
0.525405	3.01512
0.555717	3.19238
0.577948	3.36825
0.606231	3.37312
0.630482	3.54933
0.650693	3.72485
0.678985	3.90176
0.707277	4.07867
0.725485	4.59793
0.751756	4.7745
0.778037	5.1231
0.806337	5.47206
0.824545	5.99132
0.852872	6.85641
0.883218	7.72184
0.899415	8.4128
0.927802	10.4822
0.954178	12.7233
0.98078	19.4376
