Adsorption isotherm of Hydrogen on PCM-10
DOI: 10.1021/Ic4022239
Adsorbate Hydrogen: InChIKey UFHFLCQGNIYNRP-UHFFFAOYSA-N
Temperature: 77 K
Tabular data in the source: 0
pressure (bar)	uptake (cm3(STP)/g)
0.0243035	1.20848
0.0486417	3.10514
0.0709423	4.65737
0.097292	6.38233
0.12163	8.27899
0.147971	9.83191
0.172292	11.3845
0.200662	13.1098
0.231078	15.3516
0.25135	16.7314
0.2777	18.4564
0.300009	20.1806
0.32635	21.7336
0.3527	23.4585
0.37905	25.1835
0.403388	27.0802
0.42366	28.46
0.450027	30.529
0.476403	32.7701
0.498686	33.9783
0.527064	35.8756
0.553397	37.2565
0.577718	38.8091
0.602047	40.5337
0.626403	42.7744
0.652744	44.3274
0.675053	46.0516
0.703423	47.7769
0.729782	49.6739
0.758178	51.9154
0.778449	53.2952
0.796709	54.8467
0.831149	56.7451
0.85547	58.2977
0.881854	60.7109
0.904163	62.4351
0.932525	63.9884
0.954843	65.8847
0.983204	67.438
1.00353	69.8501
