Adsorption isotherm of Hydrogen on [Me-PCM-10]BF4
DOI: 10.1021/Ic4022239
Adsorbate Hydrogen: InChIKey UFHFLCQGNIYNRP-UHFFFAOYSA-N
Temperature: 77 K
Tabular data in the source: 0
pressure (bar)	uptake (cm3(STP)/g)
0.0271603	-0.00466272
0.0568004	0.333596
0.088899	0.328086
0.111137	0.83929
0.133364	1.00715
0.160541	1.5175
0.18031	2.02913
0.20747	2.02447
0.229708	2.53567
0.256884	3.04603
0.28405	3.21304
0.308773	4.23884
0.335938	4.40585
0.355718	5.26082
0.380409	5.25658
0.400162	5.25319
0.429823	6.27814
0.454525	6.61725
0.479222	6.78468
0.506387	6.95169
0.526146	7.11997
0.555812	8.3166
0.580514	8.65571
0.60768	8.82272
0.627443	9.16267
0.649671	9.33053
0.679305	9.49711
0.704002	9.66455
0.723808	11.3779
0.755912	11.544
0.780614	11.8832
0.805316	12.2223
0.830007	12.218
0.852245	12.7292
0.88188	12.8958
0.904149	14.4371
0.926377	14.6049
0.951084	15.1157
0.980729	15.6256
