Adsorption isotherm of Carbon Dioxide on [Me-PCM-10]PF6
DOI: 10.1021/Ic4022239
Adsorbate Carbon Dioxide: InChIKey CURLTUGMZLYLDI-UHFFFAOYSA-N
Temperature: 196 K
Tabular data in the source: 0
pressure (bar)	uptake (cm3(STP)/g)
0.0229832	20.9347
0.0502985	22.2452
0.0737198	22.991
0.0990902	23.9249
0.122516	24.4821
0.151792	25.4144
0.16937	25.4078
0.196694	26.3409
0.225987	26.5185
0.25137	26.8863
0.276748	27.4427
0.29822	28.0007
0.323607	28.1798
0.345088	28.3603
0.368517	28.7289
0.395853	29.0959
0.42124	29.275
0.44858	29.4534
0.466154	29.6354
0.497396	30.001
0.520834	29.9921
0.540357	30.3621
0.571603	30.539
0.595036	30.7189
0.61847	30.8987
0.645814	30.8884
0.669248	31.0682
0.696588	31.2466
0.720021	31.4264
0.739553	31.419
0.764939	31.5981
0.79619	31.5863
0.817674	31.5782
0.845018	31.5679
0.870417	31.181
