Adsorption isotherm of Hydrogen on PCM-10
DOI: 10.1021/Ic4022239
Adsorbate Hydrogen: InChIKey UFHFLCQGNIYNRP-UHFFFAOYSA-N
Temperature: 77 K
Tabular data in the source: 0
pressure (bar)	uptake (cm3(STP)/g)
0.0261283	-1.34327
0.104513	4.28209
0.133017	8.45933
0.225653	12.725
0.401425	24.002
0.432304	26.8032
0.524941	33.8275
0.574822	36.6549
0.605701	38.0768
0.750594	50.6905
0.997625	68.9622
