Adsorption isotherm of Hydrogen on ClAu-PCM-10
DOI: 10.1021/Ic4022239
Adsorbate Hydrogen: InChIKey UFHFLCQGNIYNRP-UHFFFAOYSA-N
Temperature: 77 K
Tabular data in the source: 0
pressure (bar)	uptake (cm3(STP)/g)
0.023753	12.4466
0.0522565	24.8997
0.0760095	38.7255
0.106888	51.1819
0.130641	65.0078
0.154394	78.8336
0.180523	92.6628
0.2019	103.727
0.230404	117.559
0.249406	131.378
0.273159	143.825
0.301663	157.657
0.327791	171.487
0.353919	183.936
0.377672	196.383
0.401425	207.45
0.425178	224.035
0.451306	236.485
0.477435	250.314
0.508314	262.77
0.527316	272.451
0.551069	286.277
0.574822	301.483
0.60095	315.312
0.627078	327.761
0.653207	341.591
0.679335	355.42
0.703088	369.246
0.726841	384.451
0.750594	396.897
0.774347	409.344
0.80285	423.176
0.826603	438.382
0.850356	450.828
0.876485	461.899
0.895487	475.718
0.92399	489.55
0.954869	503.386
0.971496	515.823
0.990499	525.504
