Adsorption isotherm of Carbon Dioxide on O=PCM-10
DOI: 10.1021/Ic4022239
Adsorbate Carbon Dioxide: InChIKey CURLTUGMZLYLDI-UHFFFAOYSA-N
Temperature: 196 K
Tabular data in the source: 0
pressure (bar)	uptake (cm3(STP)/g)
0.0537134	44.8854
0.0731875	47.5196
0.0965679	50.1522
0.119952	52.5962
0.147259	54.2841
0.172622	55.5952
0.199941	56.717
0.225307	57.8395
0.248725	58.7741
0.272142	59.7086
0.299465	60.6417
0.322891	61.1989
0.346312	61.9448
0.371686	62.6899
0.397065	63.2464
0.422439	63.9915
0.44392	64.1721
0.473201	64.9158
0.49663	65.2843
0.518102	65.8422
0.54934	66.3965
0.568864	66.7665
0.594254	66.7569
0.617672	67.6914
0.641097	68.2486
0.666484	68.4277
0.68796	68.797
0.7153	68.9754
0.742632	69.5311
0.766069	69.5222
0.793409	69.7006
0.816839	70.0691
0.844187	69.8701
0.871519	70.4258
0.889093	70.6079
0.918382	70.9742
0.945722	71.1526
0.9633	71.1459
