Adsorption isotherm of Hydrogen on O=PCM-10
DOI: 10.1021/Ic4022239
Adsorbate Hydrogen: InChIKey UFHFLCQGNIYNRP-UHFFFAOYSA-N
Temperature: 77 K
Tabular data in the source: 0
pressure (bar)	uptake (cm3(STP)/g)
0.0546318	6.97191
0.0760095	11.1393
0.102138	12.5547
0.130641	15.3526
0.154394	19.5233
0.180523	20.9387
0.204276	20.9714
0.225653	25.1388
0.254157	27.9368
0.27791	27.9695
0.306413	33.5261
0.327791	33.5556
0.351544	36.347
0.377672	39.1416
0.4038	41.9363
0.427553	43.3483
0.453682	46.143
0.477435	50.3137
0.498812	51.7225
0.527316	54.5204
0.551069	55.9325
0.579572	58.7304
0.60095	61.5186
0.624703	62.9306
0.648456	64.3427
0.674584	67.1374
0.705463	71.3179
0.805226	79.7313
0.876485	88.1055
0.907363	90.9067
0.92399	92.309
0.950119	95.1036
0.973872	96.5157
0.992874	99.3005
