Adsorption isotherm of Oxygen on [Me-PCM-10]BF4
DOI: 10.1021/Ic4022239
Adsorbate Oxygen: InChIKey MYMOFIZGZYHOMD-UHFFFAOYSA-N
Temperature: 77 K
Tabular data in the source: 0
pressure (bar)	uptake (cm3(STP)/g)
0.0246965	0.167434
0.0691513	0.50315
0.0889096	0.671432
0.111126	0.495944
0.140751	0.319184
0.172865	0.828693
0.195077	0.481532
0.222242	0.648542
0.239526	0.645575
0.264217	0.641336
0.288909	0.637097
0.325956	0.974085
0.338302	0.971965
0.365462	0.967303
0.380271	0.793086
0.414844	0.958825
0.444469	0.782065
0.47164	1.12075
0.493862	1.11693
0.513609	0.94187
0.540775	1.10888
0.562992	0.933392
0.592621	0.928305
0.617318	1.09574
0.642014	1.26317
0.666706	1.25893
0.691391	1.08302
0.718557	1.25003
0.740774	1.07455
0.767945	1.41323
0.7951	1.23689
0.822266	1.4039
0.842019	1.40051
0.869179	1.39585
0.893881	1.73496
0.921052	2.07364
0.948238	2.92734
0.955651	3.09774
0.980395	4.81023
