Adsorption isotherm of Carbon Dioxide on [Me-PCM-10]F
DOI: 10.1021/Ic4022239
Adsorbate Carbon Dioxide: InChIKey CURLTUGMZLYLDI-UHFFFAOYSA-N
Temperature: 196 K
Tabular data in the source: 0
pressure (bar)	uptake (cm3(STP)/g)
0.0248749	23.7642
0.0502371	25.0754
0.0697562	25.6341
0.0951307	26.3792
0.11856	26.7477
0.140037	27.117
0.179087	27.6683
0.208372	28.2233
0.229848	28.5925
0.255231	28.9603
0.270848	29.3318
0.292324	29.701
0.32357	29.8779
0.347008	29.8691
0.372387	30.4255
0.395824	30.4167
0.421207	30.7845
0.446598	30.7749
0.470027	31.1434
0.497363	31.5104
0.518848	31.5023
0.538371	31.8723
0.569617	32.0492
0.593051	32.229
0.616488	32.2202
0.645781	32.3978
0.665313	32.3904
0.692653	32.5688
0.718039	32.7479
0.745387	32.5489
0.768825	32.5401
0.786407	32.3448
0.813756	32.1458
0.839142	32.3249
0.868435	32.5025
0.884064	32.3079
