Adsorption isotherm of Carbon Dioxide on [Me-PCM-10]BF4
DOI: 10.1021/Ic4022239
Adsorbate Carbon Dioxide: InChIKey CURLTUGMZLYLDI-UHFFFAOYSA-N
Temperature: 196 K
Tabular data in the source: 0
pressure (bar)	uptake (cm3(STP)/g)
0.0307425	23.3846
0.0520715	30.5464
0.0754314	34.1225
0.0987872	37.8873
0.124121	40.5192
0.151403	43.3391
0.174808	44.8397
0.198209	46.529
0.225512	48.4055
0.248921	49.7174
0.274279	51.2173
0.301599	52.339
0.323063	53.2743
0.35428	54.772
0.375744	55.7073
0.40306	57.0177
0.422575	57.7651
0.451851	58.6974
0.477226	59.4426
0.49869	60.3779
0.522107	61.3124
0.551379	62.4334
0.570895	63.1808
0.596269	63.9259
0.623597	64.6703
0.648971	65.4155
0.676303	65.9712
0.701677	66.7163
0.723141	67.6516
0.742664	68.0216
0.768047	68.3894
0.799273	69.5097
0.818788	70.2571
0.851971	71.1879
0.875396	71.7451
0.898817	72.491
0.922243	73.0482
0.943686	74.9269
0.970998	76.426
0.99231	84.3425
