Adsorption isotherm of Carbon Dioxide on PCM-10
DOI: 10.1021/Ic4022239
Adsorbate Carbon Dioxide: InChIKey CURLTUGMZLYLDI-UHFFFAOYSA-N
Temperature: 196 K
Tabular data in the source: 0
pressure (bar)	uptake (cm3(STP)/g)
0.00201207	-0.171674
0.0261569	36.5665
0.0523139	43.2618
0.0784708	46.3519
0.102616	48.927
0.126761	50.6438
0.150905	52.0172
0.179074	53.3906
0.201207	54.4206
0.227364	55.279
0.255533	56.309
0.27163	56.9957
0.297787	57.6824
0.323944	58.3691
0.350101	59.0558
0.380282	60.0858
0.406439	60.4292
0.428571	61.1159
0.448692	61.2876
0.474849	61.9742
0.503018	62.4893
0.529175	63.0043
0.549296	63.3476
0.577465	63.8627
0.60161	64.3777
0.629779	64.721
0.651911	65.0644
0.676056	65.5794
0.702213	65.9227
0.724346	66.2661
0.746479	66.4378
0.774648	66.7811
0.802817	67.4678
0.828974	67.8112
0.855131	68.1545
0.881288	68.3262
0.903421	68.6695
0.929577	69.1845
0.953722	69.5279
0.975855	70.2146
