Adsorption isotherm of Carbon Dioxide on [Me-PCM-10]I
DOI: 10.1021/Ic4022239
Adsorbate Carbon Dioxide: InChIKey CURLTUGMZLYLDI-UHFFFAOYSA-N
Temperature: 196 K
Tabular data in the source: 0
pressure (bar)	uptake (cm3(STP)/g)
0.0754518	33.1791
0.104704	35.2435
0.120304	36.3697
0.149585	37.1134
0.171049	38.0487
0.198369	39.1704
0.227654	39.7254
0.249134	39.906
0.270598	40.8413
0.299891	41.0189
0.321367	41.3882
0.344793	41.9454
0.372137	41.935
0.395562	42.4922
0.420945	42.86
0.444383	42.8512
0.471718	43.2182
0.495152	43.3981
0.520535	43.7658
0.543968	43.9457
0.569355	44.1248
0.594742	44.3039
0.620133	44.2943
0.647464	44.85
0.670898	45.0298
0.694331	45.2097
0.721675	45.1994
0.747062	45.3785
0.770496	45.5583
0.795878	45.9261
0.815414	45.73
0.848613	45.9062
0.86814	46.0875
0.889629	45.8907
0.913055	46.4479
0.936496	46.2504
0.963844	46.0514
0.995095	46.0396
