Adsorption isotherm of Carbon Dioxide on PCM-10
DOI: 10.1021/Ic4022239
Adsorbate Carbon Dioxide: InChIKey CURLTUGMZLYLDI-UHFFFAOYSA-N
Temperature: 196 K
Tabular data in the source: 0
pressure (bar)	uptake (cm3(STP)/g)
0.0265496	36.5938
0.0498481	43.0001
0.0771225	46.1973
0.100507	48.6413
0.125857	50.5185
0.151211	52.2071
0.176585	52.9522
0.196092	54.0769
0.223416	55.01
0.252688	56.1311
0.274152	57.0664
0.299535	57.4341
0.322952	58.3687
0.348331	58.9252
0.375662	59.4809
0.39908	60.4154
0.426415	60.7825
0.45179	61.5276
0.473266	61.8969
0.496696	62.2654
0.524031	62.6324
0.54941	63.1889
0.574793	63.5567
0.600171	64.1131
0.625554	64.4809
0.648983	64.8494
0.674366	65.2172
0.701698	65.7729
0.725127	66.1415
0.748557	66.51
0.771994	66.5011
0.799326	67.0569
0.82276	67.2367
0.848138	67.7932
0.873525	67.9723
0.896954	68.3408
0.920384	68.7093
0.947712	69.4537
0.969192	69.6343
