Adsorption isotherm of Carbon Dioxide on [Me-PCM-10]BF4
DOI: 10.1021/Ic4022239
Adsorbate Carbon Dioxide: InChIKey CURLTUGMZLYLDI-UHFFFAOYSA-N
Temperature: 196 K
Tabular data in the source: 0
pressure (bar)	uptake (cm3(STP)/g)
5.29855e-06	0.171673
0.0303448	23.1708
0.0552638	30.5485
0.0776025	34.3214
0.107333	37.5781
0.132125	40.8357
0.156911	43.9216
0.179176	45.2911
0.203915	46.8319
0.228653	48.3728
0.255856	49.7415
0.28307	51.4536
0.307803	52.8227
0.330057	53.8489
0.357255	55.046
0.384447	56.0713
0.406695	56.9259
0.428954	58.1238
0.456152	59.3208
0.480864	60.0033
0.500638	60.6866
0.535238	61.7107
0.552538	62.2227
0.577261	63.2485
0.601973	63.931
0.631629	64.7843
0.653872	65.4671
0.678585	66.1496
0.703297	66.8321
0.7305	68.2008
0.750264	68.5407
0.777445	69.2228
0.807091	69.7327
0.82935	70.9306
0.849119	71.4422
0.881233	71.9517
0.908415	72.6337
0.930669	73.66
0.957882	75.372
0.972739	76.7429
