Adsorption isotherm of Carbon Dioxide on PCM-10
DOI: 10.1021/Ic4022239
Adsorbate Carbon Dioxide: InChIKey CURLTUGMZLYLDI-UHFFFAOYSA-N
Temperature: 196 K
Tabular data in the source: 0
pressure (bar)	uptake (cm3(STP)/g)
0.0477844	48.0952
0.0750547	51.4811
0.0964901	53.7372
0.121848	55.237
0.147206	56.7369
0.172568	58.0481
0.201833	59.5465
0.225254	60.2924
0.246722	61.039
0.27405	61.7834
0.299428	62.3398
0.324799	63.2737
0.348224	63.8309
0.37165	64.3881
0.395079	64.7566
0.422411	65.3123
0.447789	65.8688
0.469266	66.238
0.496601	66.6051
0.521984	66.9728
0.547371	67.1519
0.572753	67.5197
0.600089	67.8868
0.62157	68.0673
0.643046	68.4366
0.670386	68.6149
0.69382	68.7948
0.713343	69.1648
0.746538	69.5296
0.769967	69.8981
0.795362	69.6999
0.818792	70.0684
0.846128	70.4354
0.869561	70.6153
0.894944	70.983
0.918382	70.9742
0.939866	70.9661
0.96721	70.9558
0.994554	70.9455
