Adsorption isotherm of Carbon Dioxide on [Me-PCM-10]PF6
DOI: 10.1021/Ic4022239
Adsorbate Carbon Dioxide: InChIKey CURLTUGMZLYLDI-UHFFFAOYSA-N
Temperature: 196 K
Tabular data in the source: 0
pressure (bar)	uptake (cm3(STP)/g)
0.0232821	7.16103
0.0505728	9.60356
0.0778677	11.8574
0.0993277	12.9814
0.122741	14.1046
0.153966	15.2249
0.173477	16.161
0.200805	16.9054
0.228133	17.6498
0.251554	18.3956
0.274979	18.9528
0.308158	20.0724
0.323783	20.0665
0.349154	21.0003
0.370634	21.1809
0.397962	21.9253
0.42334	22.4818
0.450672	23.0375
0.47605	23.5939
0.499476	24.1511
0.522901	24.7083
0.550237	25.0754
0.573667	25.4439
0.600998	25.9996
0.624424	26.5568
0.643951	26.7381
0.675189	27.2924
0.698618	27.6609
0.725946	28.4053
0.747427	28.5859
0.774762	28.9529
0.80209	29.6973
0.825519	30.0658
0.846996	30.4351
0.872378	30.8029
0.903608	31.7345
