Adsorption isotherm of Nitrogen on [Me-PCM-10]BF4
DOI: 10.1021/Ic4022239
Adsorbate Nitrogen: InChIKey IJGRMHOSHXDMSA-UHFFFAOYSA-N
Temperature: 77 K
Tabular data in the source: 0
pressure (bar)	uptake (cm3(STP)/g)
0.0493772	0.0493772
0.0716046	-0.0122926
0.0963011	0.155141
0.0987755	0.32639
0.118528	0.322999
0.1284	0.149631
0.140756	0.490857
0.158034	0.316217
0.162983	0.658715
0.177787	0.312826
0.180278	0.999094
0.207417	0.30774
0.22718	0.647694
0.227191	0.99104
0.251872	0.643456
0.259279	0.642184
0.264228	0.984682
0.28397	0.637945
0.286439	0.637521
0.301254	0.634978
0.306192	0.63413
0.328425	0.973661
0.365462	0.967303
0.390153	0.963064
0.427206	1.47172
0.449428	1.46791
0.474119	1.46367
0.496341	1.45986
0.521033	1.45562
0.545724	1.45138
0.565466	1.10464
0.587699	1.44417
0.609916	1.26868
0.617344	1.9541
0.639577	2.29363
0.664268	2.2894
0.688959	2.28516
0.713651	2.28092
0.738342	2.27668
0.763033	2.27244
0.819844	2.94938
0.844541	3.11682
0.866768	3.28468
0.891459	3.28044
0.916156	3.44787
0.938373	3.27238
0.963069	3.43982
