Adsorption isotherm of Carbon Dioxide on [Me-PCM-10]F
DOI: 10.1021/Ic4022239
Adsorbate Carbon Dioxide: InChIKey CURLTUGMZLYLDI-UHFFFAOYSA-N
Temperature: 196 K
Tabular data in the source: 0
pressure (bar)	uptake (cm3(STP)/g)
0.0272826	2.81989
0.0565305	5.07301
0.0799314	6.76229
0.0994505	7.32096
0.124813	8.63215
0.150175	9.94333
0.179443	11.253
0.19895	12.3778
0.226274	13.3108
0.249695	14.0567
0.277014	15.1785
0.306295	15.9222
0.327767	16.4801
0.34924	17.038
0.37461	17.9718
0.401933	18.9049
0.429265	19.4607
0.454644	20.0171
0.474163	20.5758
0.503444	21.3195
0.530771	22.0639
0.560052	22.8075
0.57763	22.8009
0.593243	23.361
0.626426	24.2919
0.6518	25.0371
0.677183	25.4048
0.704511	26.1492
0.727944	26.3291
0.749412	27.0757
0.776744	27.6314
0.79822	28.0007
0.821646	28.5579
0.850935	28.9242
0.876305	29.858
0.891926	30.0408
0.923156	30.9724
0.950484	31.7168
