Adsorption isotherm of Carbon Dioxide on [Me-PCM-10]BF4
DOI: 10.1021/Ic4022239
Adsorbate Carbon Dioxide: InChIKey CURLTUGMZLYLDI-UHFFFAOYSA-N
Temperature: 196 K
Tabular data in the source: 0
pressure (bar)	uptake (cm3(STP)/g)
0.0495328	57.5285
0.0729132	60.1612
0.0982385	63.1705
0.12555	64.6696
0.150908	66.1695
0.174313	67.6701
0.19773	68.6046
0.223088	70.1045
0.242607	70.6632
0.27188	71.7842
0.299207	72.5286
0.322629	73.2745
0.344093	74.2098
0.373378	74.7648
0.392901	75.1348
0.420228	75.8792
0.447556	76.6236
0.470981	77.1808
0.496356	77.9259
0.519785	78.2944
0.545172	78.4735
0.578363	79.027
0.592023	79.5879
0.623265	79.9535
0.644737	80.5114
0.668167	80.8799
0.693549	81.2477
0.720881	81.8034
0.742357	82.1727
0.76774	82.5405
0.79117	82.909
0.820458	83.2753
0.841935	83.6446
0.865368	83.8244
0.890751	84.1922
0.918091	84.3705
0.943474	84.7383
0.963001	84.9196
