Adsorption isotherm of Nitrogen on 2D-NiPc-BTDA-COF
DOI: 10.1021/ja2052396
Article source: Figure 3 (a)
Adsorbate Nitrogen: InChIKey IJGRMHOSHXDMSA-UHFFFAOYSA-N
Kind: experiment
Temperature: 77 K
Tabular data in the source: 0
pressure (bar)	uptake (cm3(STP)/g)
0	21.5223
0	52.4934
0.011176	132.283
0.027307	181.102
0.043448	203.675
0.053378	207.874
0.079449	216.273
0.107992	222.572
0.129098	227.297
0.16137	229.921
0.184959	233.071
0.209783	235.171
0.237101	238.32
0.261925	241.47
0.28675	243.57
0.310338	246.194
0.361234	249.344
0.408401	253.018
0.460542	257.218
0.510192	261.942
0.561087	266.667
0.611983	270.866
0.664125	276.115
0.711291	282.415
0.760951	289.764
0.811846	297.113
0.857767	308.136
0.908662	330.184
0.958322	384.252
0.011176	134.908
0.098062	224.672
0.121651	228.346
0.147722	232.021
0.172546	235.696
0.197371	237.795
0.222206	240.42
0.248267	242.52
0.273101	245.669
0.299162	246.719
0.348821	251.444
0.400953	256.168
0.451849	260.367
0.500262	265.617
0.549921	271.916
0.602053	277.165
0.651712	281.365
0.703844	287.664
0.755976	293.963
0.813082	304.462
0.859013	317.06
0.907426	339.108
0.937216	373.753
