Adsorption isotherm of 1-Butanol on ZIF-8
DOI: 10.1021/acssuschemeng.7b02604
Article source: Figure 6
Adsorbate 1-Butanol: InChIKey LRHPLDYGYMQRHN-UHFFFAOYSA-N
Kind: experiment
Temperature: 308 K
Tabular data in the source: 0
pressure (bar)	uptake (mmol/g)
2.6e-05	0.0064
0.000921	0.8329
0.001813	3.4283
0.002721	3.8707
0.003646	4.0261
0.004554	4.1013
0.005488	4.1535
0.006388	4.1765
0.007309	4.2006
0.00821	4.221
0.009123	4.2312
0.010031	4.2439
0.010961	4.2566
0.011861	4.2578
0.013674	4.2666
0.01552	4.2895
0.01735	4.3111
