Adsorption isotherm of 1-Butanol on ZIF-8_55-71_45
DOI: 10.1021/acssuschemeng.7b02604
Article source: Figure 6
Adsorbate 1-Butanol: InChIKey LRHPLDYGYMQRHN-UHFFFAOYSA-N
Kind: experiment
Temperature: 308 K
Tabular data in the source: 0
pressure (bar)	uptake (mmol/g)
2.6e-05	0.0072
0.001844	2.7288
0.002199	2.7882
0.002743	2.8428
0.003663	2.8942
0.004557	2.9455
0.005508	2.9808
0.007285	3.0273
0.009104	3.069
0.01096	3.1075
0.012764	3.1459
0.014646	3.1844
0.016475	3.2325
