Adsorption isotherm of 1-Butanol on ZIF-8_55-71_45
DOI: 10.1021/acssuschemeng.7b02604
Article source: Figure 6
Adsorbate 1-Butanol: InChIKey LRHPLDYGYMQRHN-UHFFFAOYSA-N
Kind: experiment
Temperature: 308 K
Tabular data in the source: 0
pressure (bar)	uptake (mmol/g)
2.6e-05	0.0072
0.000922	0.6039
0.001807	1.692
0.002753	1.8118
0.003641	1.8679
0.004562	1.9163
0.005483	1.9545
0.006396	1.9748
0.007333	1.9952
0.00823	2.0207
0.009142	2.0308
0.010039	2.0486
0.01096	2.0537
0.011856	2.0587
0.012802	2.0689
0.01369	2.0791
0.015516	2.0892
0.017358	2.1069
