Adsorption isotherm of Water on ZIF-90
DOI: 10.1021/acssuschemeng.7b02604
Article source: Figure S4b
Adsorbate Water: InChIKey XLYOFNOQVPJJNP-UHFFFAOYSA-N
Kind: experiment
Temperature: 308 K
Tabular data in the source: 0
pressure (bar)	uptake (mmol/g)
0.000134	0.052
0.005759	0.1087
0.01136	0.0498
0.033467	17.0362
0.036252	18.202
0.039016	18.9617
0.041925	19.6173
0.044566	20.2937
0.045845	20.5538
0.046876	20.7723
0.04799	20.9595
0.049166	21.1572
0.050218	21.282
