Adsorption isotherm of 1-Butanol on ZIF-8_70-90_30
DOI: 10.1021/acssuschemeng.7b02604
Article source: Figure 6
Adsorbate 1-Butanol: InChIKey LRHPLDYGYMQRHN-UHFFFAOYSA-N
Kind: experiment
Temperature: 308 K
Tabular data in the source: 0
pressure (bar)	uptake (mmol/g)
2.6e-05	0.0072
0.000921	0.9702
0.001816	1.5105
0.002738	1.5975
0.003661	1.6379
0.004569	1.6642
0.005511	1.6864
0.006394	1.7046
0.007289	1.7207
0.008205	1.7389
0.009127	1.753
0.010023	1.7671
0.011847	1.8015
0.015529	1.8559
0.017353	1.9105
