Adsorption isotherm of Water on ZIF-8
DOI: 10.1021/acssuschemeng.7b02604
Article source: Figure S4b
Adsorbate Water: InChIKey XLYOFNOQVPJJNP-UHFFFAOYSA-N
Kind: experiment
Temperature: 308 K
Tabular data in the source: 0
pressure (bar)	uptake (mmol/g)
0.000134	0.052
0.003062	0.0834
0.005635	0.1092
0.01125	0.1081
0.016852	0.0808
0.022376	0.0929
0.028043	0.0919
0.033567	0.1236
0.039169	0.1554
0.044628	0.174
0.050281	0.278
0.053024	0.4021
0.054662	0.4739
