Adsorption isotherm of 1-Butanol on ZIF-71
DOI: 10.1021/acssuschemeng.7b02604
Article source: Figure 6
Adsorbate 1-Butanol: InChIKey LRHPLDYGYMQRHN-UHFFFAOYSA-N
Kind: experiment
Temperature: 308 K
Tabular data in the source: 0
pressure (bar)	uptake (mmol/g)
2.6e-05	0.0072
0.000921	0.4198
0.001822	2.9261
0.002734	3.283
0.003614	3.4232
0.004559	3.5175
0.005489	3.5863
0.006377	3.6423
0.007314	3.678
0.008227	3.7162
0.00914	3.7544
0.010036	3.7747
0.010965	3.7823
0.011853	3.8205
0.013671	3.8613
0.015513	3.879
0.017347	3.8942
