Adsorption isotherm of 1-Butanol on ZIF-71
DOI: 10.1021/acssuschemeng.7b02604
Article source: Figure 6
Adsorbate 1-Butanol: InChIKey LRHPLDYGYMQRHN-UHFFFAOYSA-N
Kind: experiment
Temperature: 308 K
Tabular data in the source: 0
pressure (bar)	uptake (mmol/g)
2.6e-05	0.0072
0.000911	0.4834
0.001817	2.9553
0.002747	3.3086
0.003662	3.4467
0.004556	3.5205
0.005476	3.5895
0.00638	3.6425
0.007305	3.6923
0.00822	3.7195
0.009119	3.7548
0.010029	3.7724
0.010959	3.7885
0.011858	3.8206
0.013683	3.8622
0.015518	3.8798
0.017363	3.8958
