Adsorption isotherm of 1-Butanol on ZIF-8_70-90_30
DOI: 10.1021/acssuschemeng.7b02604
Article source: Figure 6
Adsorbate 1-Butanol: InChIKey LRHPLDYGYMQRHN-UHFFFAOYSA-N
Kind: experiment
Temperature: 308 K
Tabular data in the source: 0
pressure (bar)	uptake (mmol/g)
2.6e-05	0.0072
0.000919	1.7813
0.001829	3.7139
0.002708	3.8923
0.003654	3.9713
0.004575	4.0325
0.005471	4.0732
0.006475	4.1012
0.007297	4.1369
0.008177	4.1445
0.009172	4.1725
0.009986	4.1903
0.010965	4.2081
0.011911	4.2208
0.012799	4.2259
0.015545	4.2666
0.017371	4.3761
