Adsorption isotherm of Water on ZIF-71
DOI: 10.1021/acssuschemeng.7b02604
Article source: Figure S4b
Adsorbate Water: InChIKey XLYOFNOQVPJJNP-UHFFFAOYSA-N
Kind: experiment
Temperature: 308 K
Tabular data in the source: 0
pressure (bar)	uptake (mmol/g)
0.000134	0.052
0.002517	0.088
0.003817	0.093
0.00914	0.0608
0.011379	0.0812
0.013607	0.0912
0.018476	0.0903
0.023634	0.0997
0.027822	0.1094
0.028978	0.1456
0.034219	0.1342
0.039789	0.1644
0.044927	0.1687
0.049528	0.1834
