Adsorption isotherm of Water on ZIF-8_70-90_30
DOI: 10.1021/acssuschemeng.7b02604
Article source: Figure S4b
Adsorbate Water: InChIKey XLYOFNOQVPJJNP-UHFFFAOYSA-N
Kind: experiment
Temperature: 308 K
Tabular data in the source: 0
pressure (bar)	uptake (mmol/g)
0.000134	0.052
0.002899	0.0932
0.004715	0.0824
0.006107	0.077
0.008521	0.0817
0.011513	0.1124
0.022438	0.0843
0.02806	0.0833
0.030866	0.1088
0.033424	0.0979
0.039098	0.0916
0.040212	0.1227
0.041192	0.1641
0.04178	0.1744
0.043421	0.2627
0.045277	0.5331
0.045865	0.6163
0.046773	0.8921
0.047391	1.246
0.048042	1.777
0.048588	2.5528
0.049041	3.6045
0.049505	3.9741
0.05031	4.1354
