Adsorption isotherm of 1-Butanol on ZIF-8
DOI: 10.1021/acssuschemeng.7b02604
Article source: Figure 6
Adsorbate 1-Butanol: InChIKey LRHPLDYGYMQRHN-UHFFFAOYSA-N
Kind: experiment
Temperature: 308 K
Tabular data in the source: 0
pressure (bar)	uptake (mmol/g)
2.6e-05	0.0072
0.00092	0.2746
0.001828	2.5826
0.002748	2.7304
0.003658	2.801
0.004557	2.8459
0.005487	2.8748
0.006418	2.8908
0.007296	2.9101
0.008206	2.9229
0.009136	2.9292
0.010067	2.8971
0.010966	2.9484
0.011844	2.958
0.013695	2.9708
0.015535	2.99
0.017354	3.051
