Adsorption isotherm of Water on ZIF-8_50-90_50
DOI: 10.1021/acssuschemeng.7b02604
Article source: Figure S4b
Adsorbate Water: InChIKey XLYOFNOQVPJJNP-UHFFFAOYSA-N
Kind: experiment
Temperature: 308 K
Tabular data in the source: 0
pressure (bar)	uptake (mmol/g)
0.000134	0.052
0.004364	0.1189
0.03067	0.2494
0.033517	0.3218
0.039025	0.8831
0.040201	1.7785
0.041273	3.3612
0.041891	5.0169
0.04354	8.2345
0.044652	11.723
0.045868	15.2947
0.04696	18.2313
0.047434	19.585
0.047434	19.5121
0.047475	19.71
0.047558	19.7516
0.047599	19.7828
0.047784	19.9598
0.047805	19.9911
0.047949	20.116
0.048011	20.1368
0.048155	20.1993
0.048259	20.2409
0.048424	20.2826
0.048486	20.3242
0.04863	20.3867
0.048713	20.4283
0.048836	20.4699
0.04896	20.5116
0.049043	20.5324
0.049208	20.574
0.049228	20.5844
0.04929	20.5948
0.049352	20.6156
0.049394	20.626
0.049517	20.6573
0.049682	20.6989
0.049723	20.7093
0.049806	20.7301
0.049889	20.7405
0.049971	20.7717
0.050012	20.7717
