Adsorption isotherm of Water on ZIF-8_30-90_70
DOI: 10.1021/acssuschemeng.7b02604
Article source: Figure S4b
Adsorbate Water: InChIKey XLYOFNOQVPJJNP-UHFFFAOYSA-N
Kind: experiment
Temperature: 308 K
Tabular data in the source: 0
pressure (bar)	uptake (mmol/g)
0.000134	0.052
0.039062	4.7936
0.040307	10.3041
0.041318	15.7884
0.041941	18.6617
0.04363	19.7242
0.044731	20.1427
0.045814	20.3716
0.046866	20.6005
0.047176	20.6681
0.047567	20.7722
0.047825	20.8398
0.048093	20.8866
0.048351	20.9282
0.048516	20.9438
0.048857	20.9854
0.048991	21.001
0.049207	21.0114
0.049538	21.0217
0.049775	21.0373
0.049971	21.0477
0.05026	21.0581
0.050435	21.0684
