Adsorption isotherm of Water on ZIF-8_55-71_45
DOI: 10.1021/acssuschemeng.7b02604
Article source: Figure S4b
Adsorbate Water: InChIKey XLYOFNOQVPJJNP-UHFFFAOYSA-N
Kind: experiment
Temperature: 308 K
Tabular data in the source: 0
pressure (bar)	uptake (mmol/g)
0.000134	0.052
0.00261	0.0516
0.006396	0.0769
0.011471	0.2166
0.013586	0.2005
0.016217	0.2521
0.018538	0.2621
0.021272	0.2772
0.023428	0.2872
0.026316	0.3231
0.031836	0.4054
0.036849	0.4357
0.041955	0.5285
0.046958	0.6265
0.049135	0.8396
