Adsorption isotherm of Hydrogen on Graphite(Ar milled)
DOI: 10.1166/jnn.2012.6407
Article source: Figure 5
Adsorbate Hydrogen: InChIKey UFHFLCQGNIYNRP-UHFFFAOYSA-N
Kind: experiment
Temperature: 298 K
Tabular data in the source: 0
pressure (bar)	uptake (cm3(STP)/g)
4.24628	0.133362
8.49257	0.405999
12.5265	2.21097
19.3206	4.70847
26.327	7.76278
32.9087	9.28564
39.7028	11.5046
46.4968	12.0522
53.2909	14.8283
61.7834	18.8555
70.0637	20.5152
78.5563	23.2889
86.8365	25.9236
95.1168	28.2798
