Adsorption isotherm of Hydrogen on Graphite
DOI: 10.1166/jnn.2012.6407
Article source: Figure 5
Adsorbate Hydrogen: InChIKey UFHFLCQGNIYNRP-UHFFFAOYSA-N
Kind: experiment
Temperature: 298 K
Tabular data in the source: 0
pressure (bar)	uptake (cm3(STP)/g)
4.03397	-0.005618
8.70488	0.127152
12.9512	0.121238
19.7452	0.111775
26.5393	0.102313
33.3333	0.092851
40.1274	0.083388
46.9214	0.213201
53.7155	0.064463
62.4204	0.052339
70.913	0.040511
79.1932	0.028979
87.6858	0.017151
95.1168	0.006801
