Adsorption isotherm of Hydrogen on Graphite(O2 milled)
DOI: 10.1166/jnn.2012.6407
Article source: Figure 5
Adsorbate Hydrogen: InChIKey UFHFLCQGNIYNRP-UHFFFAOYSA-N
Kind: experiment
Temperature: 298 K
Tabular data in the source: 0
pressure (bar)	uptake (cm3(STP)/g)
4.24628	0.551189
8.49257	2.07731
12.7389	5.27474
19.7452	7.49339
26.5393	12.4979
33.3333	16.2488
40.1274	18.8856
46.9214	22.2188
53.7155	26.2483
62.2081	29.1613
70.7006	33.7455
79.1932	37.912
87.2611	42.079
95.5414	46.385
