Adsorption isotherm of Carbon Dioxide on JLU-Liu1
DOI: 10.1039/C3cc47462c
Adsorbate Carbon Dioxide: InChIKey CURLTUGMZLYLDI-UHFFFAOYSA-N
Temperature: 283 K
Tabular data in the source: 0
pressure (bar)	uptake (cm3(STP)/g)
0.00893763	1.51379
0.0508838	8.72387
0.102151	15.1692
0.151089	19.3205
0.202356	23.0348
0.311882	27.7323
0.400435	31.0096
0.507631	33.9592
0.617157	36.3625
0.752317	39.2029
0.959718	42.9171
