Adsorption isotherm of Carbon Dioxide on JLU-Liu1
DOI: 10.1039/C3cc47462c
Adsorbate Carbon Dioxide: InChIKey CURLTUGMZLYLDI-UHFFFAOYSA-N
Temperature: 273 K
Tabular data in the source: 0
pressure (bar)	uptake (cm3(STP)/g)
0.00893763	1.51379
0.0229197	7.52219
0.0602052	15.497
0.106812	20.3037
0.151089	24.8919
0.209347	28.8247
0.311882	33.6314
0.407426	36.6903
0.514622	39.6398
0.654443	42.6987
0.803585	45.539
0.964378	48.5978
