Adsorption isotherm of Nitrogen on JLU-Liu1
DOI: 10.1039/C3cc47462c
Adsorbate Nitrogen: InChIKey IJGRMHOSHXDMSA-UHFFFAOYSA-N
Temperature: 298 K
Tabular data in the source: 0
pressure (bar)	uptake (cm3(STP)/g)
0.00893763	0.0655336
0.0532141	0.0655336
0.286248	0.0655336
0.481997	0.142004
0.745326	0.142004
0.950396	0.0655336
