Adsorption isotherm of Carbon Dioxide on JLU-Liu1
DOI: 10.1039/C3cc47462c
Adsorbate Carbon Dioxide: InChIKey CURLTUGMZLYLDI-UHFFFAOYSA-N
Temperature: 298 K
Tabular data in the source: 0
pressure (bar)	uptake (cm3(STP)/g)
0.00893763	1.51379
0.0881693	8.50538
0.151089	12.1104
0.255954	17.3541
0.400435	22.2701
0.556568	26.4214
0.70804	29.5894
0.857182	32.2113
0.959718	33.8499
