Adsorption isotherm of Carbon Dioxide on JLU-Liu1
DOI: 10.1039/C3cc47462c
Adsorbate Carbon Dioxide: InChIKey CURLTUGMZLYLDI-UHFFFAOYSA-N
Temperature: 298 K
Tabular data in the source: 0
pressure (bar)	uptake (cm3(STP)/g)
0.00893763	0.0655336
0.0508838	4.34789
0.106812	8.63024
0.15808	11.7655
0.207017	14.5949
0.260615	17.042
0.309552	18.9538
0.36315	21.0185
0.458694	24.0773
0.607836	27.3655
0.749987	30.2714
0.892138	32.9479
0.971369	34.1714
