Adsorption isotherm of Methane on JLU-Liu1
DOI: 10.1039/C3cc47462c
Adsorbate Methane: InChIKey VNWKTOKETHGBQD-UHFFFAOYSA-N
Temperature: 298 K
Tabular data in the source: 0
pressure (bar)	uptake (cm3(STP)/g)
0.00893763	0.0655336
0.209347	0.294945
0.374801	0.371416
0.547247	0.447887
0.736005	0.447887
0.859513	0.524357
0.952726	0.447887
0.999333	0.371416
