Adsorption isotherm of M-Xylene on Zeolite MYm
DOI: 10.1039/B007281h
Adsorbate M-Xylene: InChIKey IVSZLXZYQVIEFR-UHFFFAOYSA-N
Temperature: 423 K
Tabular data in the source: 0
pressure (bar)	uptake (molecules/supercage)
4.17e-05	0.827225
5.61e-05	1.03665
7.73e-05	1.39267
9.15e-05	1.61257
0.000121873	1.72775
0.000190864	1.87435
0.000236696	2
0.000428942	2.30366
0.00059876	2.46073
0.000737901	2.55497
0.000939126	2.64921
0.00112526	2.67016
0.00126482	2.6911
0.00147424	2.71204
0.0016138	2.73298
0.00175349	2.73298
0.00190864	2.74346
0.00207938	2.74346
0.00221124	2.75393
0.00236645	2.75393
0.00259139	2.77487
0.00277764	2.77487
0.00292515	2.7644
