Adsorption isotherm of M-Xylene on Zeolite BaX
DOI: 10.1039/B007281h
Adsorbate M-Xylene: InChIKey IVSZLXZYQVIEFR-UHFFFAOYSA-N
Temperature: 423 K
Tabular data in the source: 0
pressure (bar)	uptake (molecules/supercage)
0.000520844	2.79032
0.00125528	2.83871
0.00176634	2.85484
0.00240518	2.87097
0.00301221	2.87097
0.00387457	2.90323
0.00441771	2.90323
0.0052802	2.91935
0.0058871	2.93548
0.00662192	2.93548
0.00716505	2.93548
0.00764429	2.93548
0.00841093	2.95161
0.0100081	2.98387
