Adsorption isotherm of M-Xylene on Zeolite MYm
DOI: 10.1039/B007281h
Adsorbate M-Xylene: InChIKey IVSZLXZYQVIEFR-UHFFFAOYSA-N
Temperature: 423 K
Tabular data in the source: 0
pressure (bar)	uptake (molecules/supercage)
4.04e-06	0.638743
1.79e-05	2.25131
9.9e-05	2.98429
0.00023824	3.06806
0.000438856	3.26702
0.000663546	3.32984
0.000864832	3.41361
0.000996456	3.46597
0.00117477	3.49738
0.00140746	3.51832
0.0016558	3.51832
0.00187303	3.5288
0.00212913	3.5288
0.00243179	3.5288
0.0028354	3.51832
0.00299837	3.51832
