Adsorption isotherm of P-Xylene on Zeolite MYm
DOI: 10.1039/B007281h
Adsorbate P-Xylene: InChIKey URLKBWYHVLBVBO-UHFFFAOYSA-N
Temperature: 423 K
Tabular data in the source: 0
pressure (bar)	uptake (molecules/supercage)
6.72e-06	0.17801
1.66e-05	1.15183
2.09e-05	1.74869
8.69e-05	2.40838
0.00011718	2.53403
0.000216665	2.77487
0.0002859	2.87958
0.000440624	2.96335
0.000649853	3.01571
0.000897824	3.07853
0.000998468	3.12042
0.00126208	3.1623
0.00148695	3.19372
0.00163422	3.22513
0.0018902	3.24607
0.00216945	3.26702
0.00241773	3.27749
0.00264273	3.28796
0.002891	3.29843
0.00299195	3.28796
