Adsorption isotherm of P-Xylene on Zeolite BaX
DOI: 10.1039/B007281h
Adsorbate P-Xylene: InChIKey URLKBWYHVLBVBO-UHFFFAOYSA-N
Temperature: 423 K
Tabular data in the source: 0
pressure (bar)	uptake (molecules/supercage)
1.03e-05	2.70968
0.000295527	3
0.000453339	3.24194
0.00106011	3.27419
0.00150727	3.29032
0.00243327	3.35484
0.00300809	3.3871
0.00390227	3.43548
0.00502035	3.45161
0.00591454	3.5
0.00664936	3.5
0.00738406	3.51613
0.00859786	3.54839
0.00952412	3.58065
0.0100033	3.58065
