Adsorption isotherm of P-Xylene on Zeolite MYm
DOI: 10.1039/B007281h
Adsorbate P-Xylene: InChIKey URLKBWYHVLBVBO-UHFFFAOYSA-N
Temperature: 423 K
Tabular data in the source: 0
pressure (bar)	uptake (molecules/supercage)
6.36e-06	0.240838
8.95e-05	1.95812
0.000235355	2.23037
0.000281126	2.36649
0.000373034	2.57592
0.000418987	2.68063
0.000503256	2.86911
0.000534116	2.90052
0.000626754	2.98429
0.000820524	3.02618
0.00120055	3.06806
0.00141778	3.07853
0.00167388	3.07853
0.00189117	3.07853
0.00209295	3.07853
0.00227138	3.08901
0.00245769	3.07853
0.0026517	3.07853
0.00281468	3.07853
0.00299317	3.07853
