Adsorption isotherm of Nitrogen on [Ni8(L3)6]
DOI: 10.1002/anie.201303484
Adsorbate Nitrogen: InChIKey IJGRMHOSHXDMSA-UHFFFAOYSA-N
Temperature: 77 K
Tabular data in the source: 0
pressure (bar)	uptake (mmol/g)
0	0
0.00192762	6.28492
0.00385523	18.2961
0.0250591	20.8101
0.0597562	21.2291
0.0771048	21.648
0.119513	22.486
0.138788	22.486
0.158064	22.7654
0.177341	23.0447
0.196617	23.0447
0.237098	23.6034
0.289143	23.743
0.339261	24.3017
0.389379	24.7207
0.433715	25.1397
0.478049	25.6983
0.530095	25.9777
0.574431	26.5363
0.626476	27.095
0.68045	28.2123
0.72864	29.4693
0.774903	31.2849
0.821166	33.2402
0.861646	35.6145
0.875139	36.5922
0.894415	38.5475
0.913691	40.2235
0.92333	41.4804
0.929112	42.4581
0.936823	42.5978
