Adsorption isotherm of Water on [Ni8(L5)6]
DOI: 10.1002/anie.201303484
Adsorbate Water: InChIKey XLYOFNOQVPJJNP-UHFFFAOYSA-N
Temperature: 298 K
Tabular data in the source: 0
pressure (bar)	uptake (mmol/g)
0.000465053	-0.554281
0.00196356	0.75431
0.00501224	1.51503
0.00744087	1.90074
0.0100762	2.47334
0.0125048	3.04473
0.0147267	3.24353
0.0180338	4.37714
0.020359	7.91873
0.0219092	26.3099
0.0234594	44.8867
0.0252163	53.4382
0.0269215	55.1193
0.0283683	56.2419
0.0298668	58.4789
0.0308486	62.9409
