Adsorption isotherm of Water on [Ni8(L5-CH3)6]
DOI: 10.1002/anie.201303484
Adsorbate Water: InChIKey XLYOFNOQVPJJNP-UHFFFAOYSA-N
Temperature: 298 K
Tabular data in the source: 0
pressure (bar)	uptake (mmol/g)
0.000516728	0.374407
0.00268698	1.50129
0.0041855	1.8815
0.00501224	1.88639
0.00651076	2.08092
0.00821595	2.27667
0.00857766	1.90746
0.00935275	2.28339
0.0106963	2.29133
0.011058	2.29347
0.0119364	2.67001
0.0129182	2.86149
0.0133832	3.04992
0.0141066	3.05419
0.0151401	3.24598
0.0158635	3.62161
0.0166903	3.81217
0.0172587	4.0012
0.0180854	4.56312
0.0187572	4.93844
0.0195323	5.31438
0.0204107	5.8766
0.0211341	6.99493
0.0219609	13.6842
0.0227877	28.1718
0.0235111	31.5183
0.0246995	32.6393
0.0251646	32.4564
0.0261981	33.3909
0.0267148	33.5796
0.0276449	33.9565
0.0283683	34.3321
0.0289884	34.5215
0.0299185	35.641
0.0303835	38.4289
