Adsorption isotherm of Nitrogen on [Ni8(L4)6]
DOI: 10.1002/anie.201303484
Adsorbate Nitrogen: InChIKey IJGRMHOSHXDMSA-UHFFFAOYSA-N
Temperature: 77 K
Tabular data in the source: 0
pressure (bar)	uptake (mmol/g)
0	0
0.00192762	16.2011
0.00385523	10.8939
0.00578286	20.3911
0.0115658	22.067
0.0269867	23.4637
0.0578286	24.0223
0.0790324	24.4413
0.0983081	24.581
0.119513	24.8603
0.136861	24.8603
0.156137	25.1397
0.173485	25.2793
0.19469	25.2793
0.240953	25.6983
0.287215	25.838
0.389379	25.9777
0.441425	26.257
0.48576	26.5363
0.53395	26.676
0.636114	26.9553
0.68045	27.095
0.730568	27.095
0.77683	27.6536
0.823093	27.7933
0.867428	28.6313
0.896343	29.6089
0.919475	31.1453
0.929112	32.8212
0.936823	34.0782
0.938751	34.7765
