Adsorption isotherm of Water on [Ni8(L5-CF3)6]
DOI: 10.1002/anie.201303484
Adsorbate Water: InChIKey XLYOFNOQVPJJNP-UHFFFAOYSA-N
Temperature: 298 K
Tabular data in the source: 0
pressure (bar)	uptake (mmol/g)
0.00165353	0.752478
0.0041855	0.767442
0.00635575	0.594592
0.00852601	1.16445
0.00981781	1.72911
0.0109546	1.55015
0.0128148	1.9325
0.014675	1.94349
0.0176721	2.33256
0.0189122	2.52557
0.0205657	2.72101
0.0223226	2.91707
0.0235627	3.11008
0.0250096	6.83216
0.0258363	17.0492
0.0265081	28.0081
0.0273349	39.3393
0.0281616	44.9144
0.0291434	46.5913
0.0298151	47.7094
0.0304352	47.8987
