Adsorption isotherm of Nitrogen on [Ni8(L1)6]
DOI: 10.1002/anie.201303484
Adsorbate Nitrogen: InChIKey IJGRMHOSHXDMSA-UHFFFAOYSA-N
Temperature: 77 K
Tabular data in the source: 0
pressure (bar)	uptake (mmol/g)
0.00578286	1.11732
0.0327696	1.95531
0.0578286	2.3743
0.0751772	2.51397
0.0963809	2.65363
0.115658	2.7933
0.134933	2.93296
0.154209	3.07263
0.171558	3.21229
0.190835	3.35196
0.239025	3.63128
0.289143	3.77095
0.341188	4.18994
0.387452	4.46927
0.433715	4.88827
0.481905	5.02793
0.528168	5.58659
0.574431	6.00559
0.628403	6.28492
0.676595	6.98324
0.726713	7.96089
0.77683	9.49721
0.821166	11.8715
0.852008	14.1061
0.873212	15.7821
0.894415	17.7374
0.909836	18.7151
0.929112	18.9944
