Adsorption isotherm of Nitrogen on [Ni8(L2)6]
DOI: 10.1002/anie.201303484
Adsorbate Nitrogen: InChIKey IJGRMHOSHXDMSA-UHFFFAOYSA-N
Temperature: 77 K
Tabular data in the source: 0
pressure (bar)	uptake (mmol/g)
0	6.42458
0.00192762	4.32961
0.00385523	2.23464
0.0115658	9.07821
0.0289143	9.63687
0.0578286	9.9162
0.0790324	10.0559
0.100237	10.1955
0.119513	10.4749
0.140716	10.4749
0.159993	10.4749
0.175414	10.4749
0.192762	10.4749
0.239025	10.8939
0.292998	10.7542
0.385523	11.1732
0.435642	11.1732
0.481905	11.4525
0.532023	11.4525
0.578286	11.5922
0.626476	11.8715
0.676595	12.1508
0.72864	12.2905
0.778758	12.8492
0.826948	13.6872
0.877067	15.3631
0.89827	16.6201
0.915619	17.5978
0.932967	17.8771
