Adsorption isotherm of Nitrogen on [Ni8(L5)6]
DOI: 10.1002/anie.201303484
Adsorbate Nitrogen: InChIKey IJGRMHOSHXDMSA-UHFFFAOYSA-N
Temperature: 77 K
Tabular data in the source: 0
pressure (bar)	uptake (mmol/g)
0	0
0.00192762	2.3743
0.0134933	16.3408
0.0212038	18.2961
0.0385523	23.1844
0.0597562	25.2793
0.0751772	26.1173
0.0983081	26.676
0.119513	27.095
0.140716	27.3743
0.159993	27.6536
0.179269	27.933
0.198545	28.0726
0.296854	28.7709
0.381668	29.3296
0.433715	29.7486
0.478049	30.1676
0.52624	30.3073
0.576358	30.7263
0.626476	31.1453
0.825021	34.3575
0.873212	36.0335
0.89827	37.9888
0.909836	40.2235
0.925257	44.2737
0.932967	45.6704
0.936823	47.067
0.942606	49.0223
