Adsorption isotherm of Carbon Dioxide on Zeolite 13X
DOI: 10.1016/j.micromeso.2017.09.004
Article source: Figure 5
Adsorbate Carbon Dioxide: InChIKey CURLTUGMZLYLDI-UHFFFAOYSA-N
Kind: experiment
Temperature: 343 K
Tabular data in the source: 0
pressure (bar)	uptake (mmol/g)
1	1.56
2	2.42
3	3.11
4	3.4
5	3.64
6	3.8
7	3.97
8	4.08
9	4.17
10	4.24
1	0.158
2	0.249
3	0.367
4	0.503
5	0.633
6	0.751
7	0.842
8	0.915
9	0.989
10	1.06
