Adsorption isotherm of Methane, Water on Zeolite 13X
DOI: 10.1016/j.micromeso.2017.09.004
Article source: Figure 11
Adsorbate Methane: InChIKey VNWKTOKETHGBQD-UHFFFAOYSA-N
Adsorbate Water: InChIKey XLYOFNOQVPJJNP-UHFFFAOYSA-N
Kind: experiment
Temperature: 343 K
Tabular data in the source: 0
pressure (bar)	Methane fraction	Methane uptake (mmol/g)	Water fraction	Water uptake (mmol/g)	total uptake (mmol/g)
1.491	0.99	0.117	0.01	0.029	
2.9	0.99	0.222	0.01	0.029	
4.419	0.99	0.323	0.01	0.029	
5.705	0.99	0.408	0.01	0.029	
7.019	0.99	0.491	0.01	0.029	
8.496	0.99	0.573	0.01	0.029	
9.618	0.99	0.628	0.01	0.029	
