Adsorption isotherm of Carbon Dioxide, Methane on Zeolite 13X
DOI: 10.1016/j.micromeso.2017.09.004
Article source: Figure 8
Adsorbate Carbon Dioxide: InChIKey CURLTUGMZLYLDI-UHFFFAOYSA-N
Adsorbate Methane: InChIKey VNWKTOKETHGBQD-UHFFFAOYSA-N
Kind: experiment
Temperature: 343 K
Tabular data in the source: 0
pressure (bar)	Carbon Dioxide fraction	Carbon Dioxide uptake (mmol/g)	Methane fraction	Methane uptake (mmol/g)	total uptake (mmol/g)
1.299	0.7	1.857	0.3	0.029	
3.192	0.7	2.872	0.3	0.048	
5.117	0.7	3.24	0.3	0.116	
7.119	0.7	3.404	0.3	0.193	
9.514	0.7	3.559	0.3	0.232	
