Adsorption isotherm of Carbon Dioxide, Water on Zeolite 13X
DOI: 10.1016/j.micromeso.2017.09.004
Article source: Figure 11
Adsorbate Carbon Dioxide: InChIKey CURLTUGMZLYLDI-UHFFFAOYSA-N
Adsorbate Water: InChIKey XLYOFNOQVPJJNP-UHFFFAOYSA-N
Kind: experiment
Temperature: 343 K
Tabular data in the source: 0
pressure (bar)	Carbon Dioxide fraction	Carbon Dioxide uptake (mmol/g)	Water fraction	Water uptake (mmol/g)	total uptake (mmol/g)
1.517	0.99	1.716	0.01	0.031	
2.513	0.99	2.46	0.01	0.038	
4.014	0.99	3.08	0.01	0.054	
5.516	0.99	3.303	0.01	0.054	
7.017	0.99	3.395	0.01	0.061	
8.44	0.99	3.464	0.01	0.077	
9.53	0.99	3.51	0.01	0.077	
