Adsorption isotherm of Carbon Dioxide, Methane on Zeolite 13X
DOI: 10.1016/j.micromeso.2017.09.004
Article source: Figure 8
Adsorbate Carbon Dioxide: InChIKey CURLTUGMZLYLDI-UHFFFAOYSA-N
Adsorbate Methane: InChIKey VNWKTOKETHGBQD-UHFFFAOYSA-N
Kind: experiment
Temperature: 343 K
Tabular data in the source: 0
pressure (bar)	Carbon Dioxide fraction	Carbon Dioxide uptake (mmol/g)	Methane fraction	Methane uptake (mmol/g)	total uptake (mmol/g)
1.29	0.5	1.192	0.5	0.238	
3.18	0.5	2.073	0.5	0.441	
5.083	0.5	2.506	0.5	0.527	
7.286	0.5	2.752	0.5	0.592	
9.579	0.5	2.868	0.5	0.657	
