Adsorption isotherm of Carbon Dioxide, Methane on Zeolite 13X
DOI: 10.1016/j.micromeso.2017.09.004
Article source: Figure 8
Adsorbate Carbon Dioxide: InChIKey CURLTUGMZLYLDI-UHFFFAOYSA-N
Adsorbate Methane: InChIKey VNWKTOKETHGBQD-UHFFFAOYSA-N
Kind: experiment
Temperature: 343 K
Tabular data in the source: 0
pressure (bar)	Carbon Dioxide fraction	Carbon Dioxide uptake (mmol/g)	Methane fraction	Methane uptake (mmol/g)	total uptake (mmol/g)
1.391	0.3	0.53	0.7	0.326	
3.296	0.3	1.13	0.7	0.622	
5.213	0.3	1.421	0.7	0.837	
6.995	0.3	1.612	0.7	0.994	
9.601	0.3	1.739	0.7	1.132	
