Adsorption isotherm of Carbon monoxide on LIFM-11(Cu)
DOI: 10.1039/C4cc06697a
Adsorbate Carbon monoxide: InChIKey UGFAIRIUMAVXCW-UHFFFAOYSA-N
Temperature: 298 K
Tabular data in the source: 0
pressure (bar)	uptake (ml/g)
0.0854664	0.762111
0.167235	1.11064
0.20809	1.90993
0.297293	2.25226
0.375324	3.02056
0.416199	3.40317
0.471924	4.19006
0.512818	4.15598
0.575998	4.52
0.646594	5.2945
0.680033	5.68331
0.720927	5.64923
0.754386	5.62135
0.787825	6.01015
0.821264	6.39895
0.858421	6.78465
0.89186	7.17345
0.929055	6.72579
0.962495	7.11459
0.999632	7.91697
