Adsorption isotherm of Carbon monoxide on LIFM-10(Cu)
DOI: 10.1039/C4cc06697a
Adsorbate Carbon monoxide: InChIKey UGFAIRIUMAVXCW-UHFFFAOYSA-N
Temperature: 298 K
Tabular data in the source: 0
pressure (bar)	uptake (ml/g)
0.156043	1.9533
0.252682	2.28943
0.356717	3.45274
0.412462	3.82295
0.460771	4.19936
0.553634	5.78864
0.616814	6.15265
0.661445	5.6988
0.70232	6.0814
0.750629	6.45781
0.806374	6.82802
0.858401	7.20133
0.906692	7.99442
0.962437	8.36464
0.999593	8.75034
