Adsorption isotherm of Nitrogen on LIFM-10(Cu)
DOI: 10.1039/C4cc06697a
Adsorbate Nitrogen: InChIKey IJGRMHOSHXDMSA-UHFFFAOYSA-N
Temperature: 298 K
Tabular data in the source: 0
pressure (bar)	uptake (ml/g)
0.092921	0.339232
0.546296	3.71142
0.590888	4.09093
0.628064	4.05995
0.676393	4.01967
0.71355	4.40538
0.754424	4.78798
0.802753	4.74771
0.83993	4.71673
0.884522	5.09623
0.921659	5.89862
0.96629	5.44476
1.0109	5.40758
