Adsorption isotherm of Carbon Dioxide on LIFM-11(Cu)
DOI: 10.1039/C4cc06697a
Adsorbate Carbon Dioxide: InChIKey CURLTUGMZLYLDI-UHFFFAOYSA-N
Temperature: 298 K
Tabular data in the source: 0
pressure (bar)	uptake (ml/g)
-0.00370399	0.00308666
0.0108419	2.90763
0.0180569	4.98495
0.0362682	8.30311
0.0434833	10.3804
0.0873524	16.5939
0.12771	20.7269
0.168069	24.8599
0.208504	28.1596
0.248939	31.4592
0.285632	35.1786
0.333552	37.6387
0.370245	41.3581
0.414422	44.238
0.454935	46.7042
0.495447	49.1705
0.535921	52.0534
0.576433	54.5196
0.616907	57.4026
0.664866	59.4459
0.701636	62.332
0.745891	64.3784
0.786442	66.428
0.826993	68.4775
0.867544	70.527
0.908095	72.5766
0.952311	75.0397
0.992862	77.0893
