Adsorption isotherm of Methane on LIFM-11(Cu)
DOI: 10.1039/C4cc06697a
Adsorbate Methane: InChIKey VNWKTOKETHGBQD-UHFFFAOYSA-N
Temperature: 298 K
Tabular data in the source: 0
pressure (bar)	uptake (ml/g)
0.0445533	1.21287
0.085389	2.42884
0.126263	2.81145
0.170817	4.02432
0.211691	4.40692
0.252527	5.62289
0.293363	6.83886
0.334237	7.22147
0.37881	8.01766
0.415928	9.23673
0.4605	10.0329
0.501375	10.4155
0.54223	11.2148
0.583085	12.0141
0.623959	12.3967
0.67223	13.6065
0.713105	13.9891
0.75396	14.7884
0.798552	15.1679
0.839426	15.5505
0.876544	16.7695
0.921156	16.7324
0.962011	17.5317
1.00287	18.3309
