Adsorption isotherm of Methane on LIFM-10(Cu)
DOI: 10.1039/C4cc06697a
Adsorbate Methane: InChIKey VNWKTOKETHGBQD-UHFFFAOYSA-N
Temperature: 298 K
Tabular data in the source: 0
pressure (bar)	uptake (ml/g)
0.0854277	1.59548
0.126263	2.81145
0.167118	3.61073
0.207954	4.8267
0.248829	5.20931
0.293382	6.42218
0.334237	7.22147
0.371374	8.02385
0.423363	9.23053
0.456802	9.61933
0.505073	10.8291
0.545928	11.6284
0.586802	12.011
0.631375	12.8072
0.668513	13.6096
0.709368	14.4089
0.75394	15.205
0.794776	16.421
0.83565	16.8036
0.880223	17.5998
0.917341	18.8189
0.961933	19.1984
1.00279	19.9977
