Adsorption isotherm of Nitrogen on LIFM-11(Cu)
DOI: 10.1039/C4cc06697a
Adsorbate Nitrogen: InChIKey IJGRMHOSHXDMSA-UHFFFAOYSA-N
Temperature: 298 K
Tabular data in the source: 0
pressure (bar)	uptake (ml/g)
0.0446308	-0.453859
0.0817876	-0.0681563
0.122643	0.731131
0.170972	0.690857
0.208148	0.659877
0.252759	0.622701
0.293634	1.00531
0.338206	1.80149
0.3791	1.76742
0.420013	1.31666
0.464605	1.69616
0.501762	2.08187
0.546373	2.04469
0.587248	2.42729
0.635577	2.38702
0.672753	2.35604
0.713627	2.73864
0.754521	2.70457
0.799094	3.50076
0.83627	3.46978
0.880881	3.4326
0.925493	3.39542
0.966387	3.36134
1.00356	3.33036
