Adsorption isotherm of Carbon Dioxide on LIFM-10(Cu)
DOI: 10.1039/C4cc06697a
Adsorbate Carbon Dioxide: InChIKey CURLTUGMZLYLDI-UHFFFAOYSA-N
Temperature: 298 K
Tabular data in the source: 0
pressure (bar)	uptake (ml/g)
0.0296054	2.892
0.0407002	4.13275
0.0851179	8.2624
0.125857	11.5618
0.166596	14.8612
0.207315	18.5772
0.248093	21.0433
0.292549	24.3395
0.333327	26.8056
0.374085	29.6883
0.414863	32.1543
0.459339	35.0339
0.496399	37.503
0.540874	40.3826
0.574236	42.4381
0.626147	45.3115
0.659509	47.3671
0.711439	49.8238
0.744782	52.296
0.792995	54.7558
0.826376	56.3947
0.867173	58.444
0.919103	60.9007
0.9599	62.9501
0.996979	65.0025
