Adsorption isotherm of Nitrogen on TNT
DOI: 10.1080/1536383x.2016.1179287
Article source: Figure 4- titanate nanotubes
Adsorbate Nitrogen: InChIKey IJGRMHOSHXDMSA-UHFFFAOYSA-N
Kind: experiment
Temperature: 77 K
Tabular data in the source: 0
pressure (bar)	uptake (cm3(STP)/g)
0.048362	55.28
0.055688	58.9
0.092074	66.42
0.101973	72.64
0.138136	75.57
0.152109	85.05
0.171624	84.69
0.201535	98.36
0.221608	96.99
0.254123	109.48
0.30131	122.45
0.353422	135.13
0.402392	150.41
0.410589	146.62
0.44356	164.38
0.462093	158.5
0.500353	181.28
0.515683	173.18
0.536161	195.34
0.57509	192.88
0.596966	213.14
0.621092	208.36
0.648926	230.63
0.679962	227.56
0.699771	250.92
0.732671	248.26
0.746512	277.92
0.790051	276.97
0.798836	336.98
0.839559	393.02
0.840896	386
0.890768	502.56
0.891214	399.49
0.941603	623.32
0.948605	580.86
0.996612	752.2
1.00406	783.03
