Adsorption isotherm of Carbon Dioxide on ZIF-8-W_200_2d
DOI: 10.1021/acs.jpcc.5b01519
Article source: Figure 7c
Adsorbate Carbon Dioxide: InChIKey CURLTUGMZLYLDI-UHFFFAOYSA-N
Kind: experiment
Temperature: 303 K
Tabular data in the source: 0
pressure (bar)	uptake (mmol/g)
0	0
0	0.008642
0.076923	0.068471
0.153846	0.119658
0.252137	0.187944
0.303419	0.222069
0.363248	0.25612
0.423077	0.307455
0.448718	0.333159
0.452991	0.315838
0.474359	0.350222
0.504274	0.367247
0.529915	0.375667
0.542735	0.392841
0.581197	0.409792
0.594017	0.418323
0.615385	0.444065
0.636752	0.452522
0.65812	0.469621
0.679487	0.48672
0.688034	0.469363
0.709402	0.512388
0.739316	0.503487
0.764957	0.52055
0.773504	0.53776
0.790598	0.546254
0.820513	0.56328
0.846154	0.580342
0.871795	0.597404
0.897436	0.614467
0.923077	0.631529
0.948718	0.648591
0.974359	0.665654
1	0.682716
