Adsorption isotherm of Carbon Dioxide on ZIF-8-W_100_7d
DOI: 10.1021/acs.jpcc.5b01519
Article source: Figure 7c
Adsorbate Carbon Dioxide: InChIKey CURLTUGMZLYLDI-UHFFFAOYSA-N
Kind: experiment
Temperature: 303 K
Tabular data in the source: 0
pressure (bar)	uptake (mmol/g)
0	0
0.008547	0.043136
0.051282	0.077335
0.102564	0.111459
0.209402	0.188314
0.217949	0.153672
0.320513	0.256489
0.363248	0.247478
0.423077	0.290171
0.42735	0.324702
0.448718	0.307233
0.452991	0.341764
0.470085	0.315691
0.482906	0.35879
0.504274	0.375889
0.529915	0.392951
0.555556	0.410014
0.581197	0.418434
0.58547	0.392471
0.602564	0.444175
0.619658	0.45267
0.636752	0.461164
0.666667	0.478189
0.688034	0.495289
0.713675	0.512351
0.739316	0.520771
0.74359	0.494808
0.773504	0.546402
0.833333	0.589095
0.871795	0.606046
0.901709	0.623072
0.923077	0.648813
0.944444	0.65727
0.974359	0.682938
1	0.708642
