Adsorption isotherm of Carbon Dioxide on ZIF-8-M_100_7d
DOI: 10.1021/acs.jpcc.5b01519
Article source: Figure 7b
Adsorbate Carbon Dioxide: InChIKey CURLTUGMZLYLDI-UHFFFAOYSA-N
Kind: experiment
Temperature: 303 K
Tabular data in the source: 0
pressure (bar)	uptake (mmol/g)
0	0
0.055556	0.043478
0.076923	0.052174
0.106838	0.069565
0.153846	0.095652
0.478632	0.304348
0.636752	0.391304
0.688034	0.426087
0.74359	0.46087
0.764957	0.469565
0.794872	0.486957
0.816239	0.504348
0.846154	0.521739
0.871795	0.53913
0.901709	0.556522
0.92735	0.573913
0.948718	0.591304
0.974359	0.608696
1	0.626087
