Adsorption isotherm of Nitrogen on ZIF-8-M_250_2d_V
DOI: 10.1021/acs.jpcc.5b01519
Article source: Figure 5
Adsorbate Nitrogen: InChIKey IJGRMHOSHXDMSA-UHFFFAOYSA-N
Kind: experiment
Temperature: 77 K
Tabular data in the source: 0
pressure (bar)	uptake (cm3(STP)/g)
0	0
0.004275	248.649
0.008551	286.486
0.012826	313.514
0.025652	335.135
0.034203	356.757
0.042753	362.162
0.06413	367.568
0.076956	367.568
0.085506	367.568
0.102608	367.568
0.149636	367.568
0.205216	372.973
0.256519	372.973
0.307822	372.973
0.342026	372.973
0.363402	378.378
0.401879	378.378
0.461734	378.378
0.504487	383.784
0.555791	383.784
0.615646	383.784
0.645573	383.784
0.662674	389.189
0.705428	383.784
0.756731	389.189
0.808034	400
0.859338	400
0.914918	448.649
0.953395	448.649
0.970497	535.135
1.00898	545.946
