Adsorption isotherm of Carbon Dioxide on ZIF-8-M_200_2d
DOI: 10.1021/acs.jpcc.5b01519
Article source: Figure 7b
Adsorbate Carbon Dioxide: InChIKey CURLTUGMZLYLDI-UHFFFAOYSA-N
Kind: experiment
Temperature: 303 K
Tabular data in the source: 0
pressure (bar)	uptake (mmol/g)
0	0
0.25641	0.191304
0.303419	0.217391
0.358974	0.252174
0.42735	0.295652
0.448718	0.313043
0.478632	0.330435
0.529915	0.365217
0.581197	0.4
0.632479	0.434783
0.688034	0.46087
0.713675	0.478261
0.74359	0.504348
0.769231	0.521739
0.790598	0.530435
0.816239	0.547826
0.846154	0.573913
0.871795	0.591304
0.893162	0.608696
0.931624	0.626087
0.952991	0.643478
0.974359	0.652174
1	0.678261
