Adsorption isotherm of Nitrogen on ZIF-8-C_200_2d
DOI: 10.1021/acs.jpcc.5b01519
Article source: Figure 4a
Adsorbate Nitrogen: InChIKey IJGRMHOSHXDMSA-UHFFFAOYSA-N
Kind: experiment
Temperature: 77 K
Tabular data in the source: 0
pressure (bar)	uptake (cm3(STP)/g)
0	0
0.0005	53.2544
0.006634	207.101
0.007411	289.941
0.012435	325.444
0.017515	366.864
0.022428	390.533
0.045994	402.367
0.064813	408.284
0.083577	408.284
0.107032	408.284
0.158632	408.284
0.257198	414.201
0.308799	414.201
0.341636	414.201
0.365091	414.201
0.407309	414.201
0.45891	414.201
0.515202	414.201
0.566803	414.201
0.613712	414.201
0.665313	414.201
0.716914	414.201
0.76857	420.118
0.806098	420.118
0.867081	420.118
0.909354	426.036
0.970337	426.036
1.00798	437.87
