Adsorption isotherm of Nitrogen on ZIF-8-C_250_2d
DOI: 10.1021/acs.jpcc.5b01519
Article source: Figure 4a
Adsorbate Nitrogen: InChIKey IJGRMHOSHXDMSA-UHFFFAOYSA-N
Kind: experiment
Temperature: 77 K
Tabular data in the source: 0
pressure (bar)	uptake (cm3(STP)/g)
0	0
0.000222	23.6686
0.0005	53.2544
0.005857	124.26
0.010825	153.846
0.0297	165.68
0.04852	171.598
0.062593	171.598
0.081356	171.598
0.104867	177.515
0.156467	177.515
0.208124	183.432
0.25978	189.349
0.306689	189.349
0.344217	189.349
0.362982	189.349
0.4052	189.349
0.461548	195.266
0.51337	218.935
0.560113	201.183
0.564971	218.935
0.611936	224.852
0.658624	201.183
0.663537	224.852
0.715138	224.852
0.761881	207.101
0.766738	224.852
0.799631	230.769
0.84654	230.769
0.860447	213.018
0.907522	230.769
0.968505	230.769
1.0062	248.521
