Adsorption isotherm of Carbon Dioxide on ZIF-8-W_250_2d
DOI: 10.1021/acs.jpcc.5b01519
Article source: Figure 7c
Adsorbate Carbon Dioxide: InChIKey CURLTUGMZLYLDI-UHFFFAOYSA-N
Kind: experiment
Temperature: 303 K
Tabular data in the source: 0
pressure (bar)	uptake (mmol/g)
0	0.008642
0.051282	0.042767
0.076923	0.059829
0.106838	0.076855
0.149573	0.102411
0.209402	0.162388
0.247863	0.153414
0.299145	0.178896
0.320513	0.21328
0.363248	0.21291
0.423077	0.238319
0.448718	0.272665
0.470085	0.281123
0.474359	0.25516
0.495726	0.298185
0.521368	0.272038
0.534188	0.297853
0.555556	0.314952
0.576923	0.306125
0.581197	0.323372
0.606838	0.340435
0.632479	0.340213
0.666667	0.365844
0.688034	0.357017
0.713675	0.382721
0.739316	0.373858
0.773504	0.390846
0.790598	0.399341
0.820513	0.416366
0.850427	0.424749
0.871795	0.433207
0.897436	0.450269
0.92735	0.458653
0.952991	0.475715
0.978632	0.484135
0.995726	0.501271
