Adsorption isotherm of Nitrogen on ZIF-8-W_250_2d
DOI: 10.1021/acs.jpcc.5b01519
Article source: Figure 4c
Adsorbate Nitrogen: InChIKey IJGRMHOSHXDMSA-UHFFFAOYSA-N
Kind: experiment
Temperature: 77 K
Tabular data in the source: 0
pressure (bar)	uptake (cm3(STP)/g)
0	0
0.004669	71.0059
0.009339	106.509
0.014008	159.763
0.032686	171.598
0.051363	177.515
0.07004	177.515
0.098056	183.432
0.140081	189.349
0.154089	189.349
0.186774	195.266
0.238137	195.266
0.261484	201.183
0.284831	201.183
0.317516	201.183
0.378218	201.183
0.429581	207.101
0.457597	207.101
0.485613	248.521
0.536976	254.438
0.560322	213.018
0.588339	254.438
0.639701	254.438
0.663049	224.852
0.695734	260.355
0.747097	260.355
0.761105	230.769
0.789121	266.272
0.840484	260.355
0.863831	260.355
0.896517	266.272
0.952548	272.189
0.980565	278.107
1.00391	295.858
