Adsorption isotherm of Nitrogen on ZIF-8-C_100_2d
DOI: 10.1021/acs.jpcc.5b01519
Article source: Figure 4a
Adsorbate Nitrogen: InChIKey IJGRMHOSHXDMSA-UHFFFAOYSA-N
Kind: experiment
Temperature: 77 K
Tabular data in the source: 0
pressure (bar)	uptake (cm3(STP)/g)
0	0
0.003636	224.852
0.007717	355.03
0.01213	414.201
0.021512	414.201
0.044967	414.201
0.105921	420.118
0.152832	420.118
0.218505	420.118
0.293561	420.118
0.335752	426.036
0.363898	426.036
0.401425	426.036
0.457716	426.036
0.509317	426.036
0.556228	426.036
0.607827	426.036
0.659428	426.036
0.711029	426.036
0.76263	426.036
0.85645	426.036
0.903332	431.953
0.964287	437.87
1.00176	449.704
