Adsorption isotherm of Carbon Dioxide on ZIF-8-C_100_2d
DOI: 10.1021/acs.jpcc.5b01519
Article source: Figure 7a
Adsorbate Carbon Dioxide: InChIKey CURLTUGMZLYLDI-UHFFFAOYSA-N
Kind: experiment
Temperature: 303 K
Tabular data in the source: 0
pressure (bar)	uptake (mmol/g)
0	0
0.12766	0.095652
0.293617	0.2
0.361702	0.234783
0.429787	0.278261
0.446809	0.304348
0.47234	0.313043
0.506383	0.330435
0.52766	0.33913
0.553191	0.365217
0.574468	0.373913
0.604255	0.391304
0.621277	0.408696
0.634043	0.417391
0.659574	0.434783
0.67234	0.443478
0.685106	0.452174
0.710638	0.46087
0.73617	0.469565
0.757447	0.486957
0.787234	0.504348
0.817021	0.521739
0.842553	0.53913
0.868085	0.556522
0.893617	0.573913
0.914894	0.591304
0.92766	0.6
0.948936	0.608696
0.970213	0.626087
0.995745	0.652174
