Adsorption isotherm of Nitrogen on ZIF-8-C_250_2d_V
DOI: 10.1021/acs.jpcc.5b01519
Article source: Figure 5
Adsorbate Nitrogen: InChIKey IJGRMHOSHXDMSA-UHFFFAOYSA-N
Kind: experiment
Temperature: 77 K
Tabular data in the source: 0
pressure (bar)	uptake (cm3(STP)/g)
0	0
0.004275	335.135
0.025652	389.189
0.06413	394.595
0.07268	394.595
0.085506	400
0.102608	400
0.149636	405.405
0.196665	400
0.256519	400
0.303547	400
0.33775	400
0.406155	400
0.453183	400
0.508763	405.405
0.555791	405.405
0.611371	405.405
0.662674	405.405
0.709703	405.405
0.743905	405.405
0.795209	405.405
0.859338	405.405
0.902091	405.405
0.957671	405.405
1.0047	427.027
