Adsorption isotherm of Carbon Dioxide on ZIF-8-C_250_2d
DOI: 10.1021/acs.jpcc.5b01519
Article source: Figure 7a
Adsorbate Carbon Dioxide: InChIKey CURLTUGMZLYLDI-UHFFFAOYSA-N
Kind: experiment
Temperature: 303 K
Tabular data in the source: 0
pressure (bar)	uptake (mmol/g)
0	0
0.017021	0.043478
0.021277	0.008696
0.038298	0.026087
0.051064	0.069565
0.055319	0.043478
0.07234	0.052174
0.102128	0.069565
0.106383	0.095652
0.148936	0.095652
0.208511	0.147826
0.212766	0.130435
0.251064	0.156522
0.302128	0.173913
0.319149	0.208696
0.357447	0.208696
0.421277	0.243478
0.446809	0.269565
0.47234	0.286957
0.476596	0.269565
0.497872	0.295652
0.52766	0.321739
0.561702	0.33913
0.574468	0.330435
0.625532	0.373913
0.629787	0.356522
0.659574	0.391304
0.680851	0.382609
0.706383	0.417391
0.731915	0.417391
0.765957	0.426087
0.774468	0.452174
0.795745	0.443478
0.821277	0.46087
0.842553	0.469565
0.868085	0.478261
0.893617	0.495652
0.923404	0.513043
0.93617	0.521739
0.944681	0.521739
0.970213	0.53913
0.995745	0.565217
