Adsorption isotherm of Nitrogen on ZIF-8-M_250_2d
DOI: 10.1021/acs.jpcc.5b01519
Article source: Figure 4b
Adsorbate Nitrogen: InChIKey IJGRMHOSHXDMSA-UHFFFAOYSA-N
Kind: experiment
Temperature: 77 K
Tabular data in the source: 0
pressure (bar)	uptake (cm3(STP)/g)
0	0
0.004691	118.343
0.009382	147.929
0.014073	171.598
0.028146	189.349
0.037528	195.266
0.056292	201.183
0.070365	207.101
0.089129	207.101
0.107892	213.018
0.164184	224.852
0.206403	230.769
0.253312	236.686
0.262694	236.686
0.309605	242.604
0.356514	242.604
0.38466	248.521
0.408115	248.521
0.469097	248.521
0.511316	254.438
0.562917	260.355
0.609827	260.355
0.656736	260.355
0.717718	266.272
0.759938	266.272
0.811538	272.189
0.858448	278.107
0.924121	307.692
0.971031	579.882
0.999177	650.888
