Adsorption isotherm of Nitrogen on ZIF-8-M_200_2d
DOI: 10.1021/acs.jpcc.5b01519
Article source: Figure 4b
Adsorbate Nitrogen: InChIKey IJGRMHOSHXDMSA-UHFFFAOYSA-N
Kind: experiment
Temperature: 77 K
Tabular data in the source: 0
pressure (bar)	uptake (cm3(STP)/g)
0	0
0.004691	254.438
0.009382	301.775
0.018764	325.444
0.023455	343.195
0.032837	372.781
0.056292	384.615
0.084437	384.615
0.103202	390.533
0.159493	396.45
0.206403	396.45
0.258004	396.45
0.304913	402.367
0.361204	402.367
0.403423	402.367
0.459716	402.367
0.511316	408.284
0.558226	408.284
0.614517	414.201
0.661427	414.201
0.713028	414.201
0.750556	420.118
0.764629	420.118
0.806847	420.118
0.844375	420.118
0.863139	420.118
0.900667	437.87
0.961649	751.479
0.966341	473.373
0.999177	840.237
