Adsorption isotherm of Carbon Dioxide on ZIF-8-M_250_2d
DOI: 10.1021/acs.jpcc.5b01519
Article source: Figure 7b
Adsorbate Carbon Dioxide: InChIKey CURLTUGMZLYLDI-UHFFFAOYSA-N
Kind: experiment
Temperature: 303 K
Tabular data in the source: 0
pressure (bar)	uptake (mmol/g)
0	0
0.021368	0.026087
0.025641	0.06087
0.051282	0.043478
0.055556	0.078261
0.076923	0.06087
0.102564	0.130435
0.106838	0.078261
0.153846	0.104348
0.209402	0.13913
0.247863	0.156522
0.303419	0.182609
0.320513	0.243478
0.363248	0.2
0.418803	0.234783
0.452991	0.252174
0.478632	0.26087
0.508547	0.313043
0.534188	0.286957
0.555556	0.33913
0.58547	0.313043
0.602564	0.347826
0.615385	0.356522
0.632479	0.365217
0.675214	0.382609
0.688034	0.356522
0.722222	0.391304
0.74359	0.373913
0.764957	0.382609
0.773504	0.417391
0.794872	0.391304
0.811966	0.408696
0.82906	0.434783
0.850427	0.426087
0.876068	0.434783
0.905983	0.452174
0.92735	0.469565
0.948718	0.469565
0.982906	0.486957
1	0.495652
