Adsorption isotherm of Nitrogen on ZIF-8-W_250_2d_V
DOI: 10.1021/acs.jpcc.5b01519
Article source: Figure 5
Adsorbate Nitrogen: InChIKey IJGRMHOSHXDMSA-UHFFFAOYSA-N
Kind: experiment
Temperature: 77 K
Tabular data in the source: 0
pressure (bar)	uptake (cm3(STP)/g)
0	0
0.004275	264.865
0.008551	313.514
0.012826	329.73
0.029927	394.595
0.042753	400
0.059854	400
0.07268	405.405
0.089782	405.405
0.106883	410.811
0.153912	410.811
0.205216	416.216
0.256519	416.216
0.303547	416.216
0.363402	421.622
0.406155	421.622
0.457459	421.622
0.504487	421.622
0.555791	421.622
0.611371	421.622
0.658399	421.622
0.709703	421.622
0.748181	421.622
0.765281	421.622
0.80376	421.622
0.859338	427.027
0.919193	432.432
0.961946	443.243
1.00042	486.486
