Adsorption isotherm of Nitrogen on ZIF-8-W_200_2d
DOI: 10.1021/acs.jpcc.5b01519
Article source: Figure 4c
Adsorbate Nitrogen: InChIKey IJGRMHOSHXDMSA-UHFFFAOYSA-N
Kind: experiment
Temperature: 77 K
Tabular data in the source: 0
pressure (bar)	uptake (cm3(STP)/g)
0	0
0.004669	82.8402
0.009339	266.272
0.014008	289.941
0.018677	325.444
0.023347	337.278
0.037355	378.698
0.056032	384.615
0.093387	384.615
0.107395	384.615
0.154089	384.615
0.168097	384.615
0.200783	390.533
0.256814	390.533
0.308177	390.533
0.359541	390.533
0.406234	390.533
0.462266	396.45
0.50896	396.45
0.560322	396.45
0.611686	396.45
0.667718	396.45
0.714411	396.45
0.765774	396.45
0.798459	402.367
0.845153	402.367
0.859161	402.367
0.901186	402.367
0.957217	408.284
0.999242	420.118
