Adsorption isotherm of Nitrogen on ZIF-8-M_100_7d
DOI: 10.1021/acs.jpcc.5b01519
Article source: Figure 4b
Adsorbate Nitrogen: InChIKey IJGRMHOSHXDMSA-UHFFFAOYSA-N
Kind: experiment
Temperature: 77 K
Tabular data in the source: 0
pressure (bar)	uptake (cm3(STP)/g)
0	0
0.004691	295.858
0.009382	331.361
0.023455	349.112
0.028146	384.615
0.042219	396.45
0.056292	402.367
0.070365	402.367
0.084437	402.367
0.107892	408.284
0.159493	408.284
0.206403	408.284
0.262694	408.284
0.304913	414.201
0.370587	420.118
0.403423	414.201
0.455024	420.118
0.511316	420.118
0.558226	420.118
0.614517	420.118
0.666118	426.036
0.713028	426.036
0.764629	426.036
0.811538	431.953
0.872521	437.87
0.91943	473.373
0.961649	502.959
0.975722	668.639
1.00387	680.473
