Adsorption isotherm of Nitrogen on ZIF-8-W_100_7d
DOI: 10.1021/acs.jpcc.5b01519
Article source: Figure 4c
Adsorbate Nitrogen: InChIKey IJGRMHOSHXDMSA-UHFFFAOYSA-N
Kind: experiment
Temperature: 77 K
Tabular data in the source: 0
pressure (bar)	uptake (cm3(STP)/g)
0	0
0.004669	59.1716
0.009339	284.024
0.014008	319.527
0.028016	349.112
0.037355	384.615
0.084048	390.533
0.107395	390.533
0.172766	396.45
0.210121	396.45
0.261484	402.367
0.308177	402.367
0.359541	408.284
0.406234	408.284
0.457597	408.284
0.50896	408.284
0.555653	414.201
0.611686	414.201
0.663049	414.201
0.714411	414.201
0.742428	420.118
0.761105	420.118
0.803129	420.118
0.863831	431.953
0.915194	437.87
0.966556	473.373
0.971225	562.13
0.999242	721.893
