Adsorption isotherm of Ethene on ZIF-8
DOI: 10.1021/La401471g
Adsorbate Ethene: InChIKey VGGSQFUCUMXWEO-UHFFFAOYSA-N
Temperature: 323 K
Tabular data in the source: 0
pressure (bar)	uptake (mmol/g)
0.16783	0.117412
0.20445	0.151214
0.253276	0.196285
0.306797	0.237599
0.357502	0.275158
0.409145	0.316473
0.479567	0.369055
0.54999	0.414125
0.62229	0.45544
0.691774	0.50051
0.763135	0.538069
0.833558	0.583139
0.881445	0.605674
0.935905	0.635721
