Adsorption isotherm of N-propane on Mg2(dhtp)
DOI: 10.1021/La401471g
Adsorbate N-propane: InChIKey ATUOYWHBWRKTHZ-UHFFFAOYSA-N
Temperature: 295 K
Tabular data in the source: 0
pressure (bar)	uptake (mmol/g)
0.0140693	1.7128
0.0520974	4.85646
0.105619	5.52125
0.157731	5.79167
0.212661	5.97195
0.319703	6.14097
0.405619	6.24238
0.47745	6.27618
0.547872	6.33252
0.6859	6.37759
0.756323	6.35505
0.87745	6.34378
0.999985	6.28745
