Adsorption isotherm of Ethene on ZIF-8
DOI: 10.1021/La401471g
Adsorbate Ethene: InChIKey VGGSQFUCUMXWEO-UHFFFAOYSA-N
Temperature: 293 K
Tabular data in the source: 0
pressure (bar)	uptake (mmol/g)
0.0126608	0.0507957
0.0549143	0.109951
0.0971678	0.160655
0.201393	0.321218
0.305619	0.490232
0.405619	0.633894
0.546464	0.853613
0.687309	1.03953
0.757731	1.14094
0.823928	1.23389
0.878858	1.3015
0.929562	1.3522
0.998576	1.45361
