Adsorption isotherm of Propene on ZIF-8
DOI: 10.1021/La401471g
Adsorbate Propene: InChIKey QQONPFPTGQHPMA-UHFFFAOYSA-N
Temperature: 293 K
Tabular data in the source: 0
pressure (bar)	uptake (mmol/g)
0.00843546	0.186007
0.050689	0.718401
0.0999848	1.52122
0.157731	2.38319
0.216886	3.05925
0.271816	3.44798
0.346464	3.80291
0.405619	3.98882
0.474633	4.18319
0.543647	4.2846
0.616886	4.40291
0.756323	4.52122
0.880266	4.60573
0.929562	4.61418
1.00139	4.64798
