Adsorption isotherm of Ethane on ZIF-8
DOI: 10.1021/La401471g
Adsorbate Ethane: InChIKey OTMSDBZUPAUEDD-UHFFFAOYSA-N
Temperature: 283 K
Tabular data in the source: 0
pressure (bar)	uptake (mmol/g)
0.0520974	0.152174
0.101393	0.349357
0.168999	0.580343
0.20421	0.704286
0.254914	0.901469
0.305619	1.09302
0.35914	1.30147
0.409844	1.48738
0.47745	1.75217
0.552097	1.99443
0.618295	2.21415
0.692943	2.42823
0.766182	2.60288
0.833788	2.76062
0.884492	2.8733
0.932379	2.95781
