Adsorption isotherm of Ethane on Co2(dhtp)
DOI: 10.1021/La401471g
Adsorbate Ethane: InChIKey OTMSDBZUPAUEDD-UHFFFAOYSA-N
Temperature: 295 K
Tabular data in the source: 0
pressure (bar)	uptake (mmol/g)
0.00843546	0.288809
0.0520974	1.2536
0.0943509	1.95078
0.157731	2.50712
0.208435	2.80289
0.263365	3.04937
0.318295	3.23247
0.40421	3.4367
0.47745	3.55641
0.549281	3.63388
0.687309	3.78177
0.760548	3.81698
0.881675	3.87332
0.999985	3.90148
