Adsorption isotherm of Ethene on ZIF-8
DOI: 10.1021/La401471g
Adsorbate Ethene: InChIKey VGGSQFUCUMXWEO-UHFFFAOYSA-N
Temperature: 303 K
Tabular data in the source: 0
pressure (bar)	uptake (mmol/g)
0.102103	0.106144
0.165952	0.177505
0.203511	0.230088
0.255154	0.297693
0.307736	0.369055
0.357502	0.429149
0.409145	0.485487
0.480506	0.568116
0.550929	0.643233
0.620412	0.714595
0.692713	0.793468
0.763135	0.864829
0.833558	0.932435
0.883323	0.97375
0.934027	1.02258
