Adsorption isotherm of Nitrogen on Co2(dhtp)
DOI: 10.1021/La401471g
Adsorbate Nitrogen: InChIKey IJGRMHOSHXDMSA-UHFFFAOYSA-N
Temperature: 77 K
Tabular data in the source: 0
pressure (bar)	uptake (cm3(STP)/g)
0.000865	22.9278
0.000865	122.68
0.000865	145.849
0.00229475	49.9575
0.00229475	74.4129
0.00372489	170.304
0.0423388	183.175
0.0766622	192.185
0.100975	193.472
0.198224	195.403
0.346959	196.69
0.461371	197.977
0.518576	196.69
0.618686	196.047
0.718796	196.69
0.820337	196.69
0.921877	196.047
0.966211	197.334
0.983373	199.264
