Adsorption isotherm of Nitrogen on Mg2(dhtp)
DOI: 10.1021/La401471g
Adsorbate Nitrogen: InChIKey IJGRMHOSHXDMSA-UHFFFAOYSA-N
Temperature: 77 K
Tabular data in the source: 0
pressure (bar)	uptake (cm3(STP)/g)
0.00229475	20.3535
0.00229475	130.403
0.00229475	257.829
0.00515504	300.948
0.0180263	325.403
0.0580703	338.918
0.0923938	340.849
0.202515	345.997
0.302625	348.571
0.399875	349.215
0.600095	351.789
0.798884	351.146
0.894704	355.651
0.971932	369.165
0.984803	382.68
