Adsorption isotherm of Ethene on Co2(dhtp)
DOI: 10.1021/La401471g
Adsorbate Ethene: InChIKey VGGSQFUCUMXWEO-UHFFFAOYSA-N
Temperature: 295 K
Tabular data in the source: 0
pressure (bar)	uptake (mmol/g)
0.00843546	0.408527
0.050689	2.34515
0.108435	3.15501
0.156323	3.45782
0.209844	3.66909
0.260548	3.83106
0.316886	3.96486
0.405619	4.14092
0.474633	4.24656
0.616886	4.40148
0.691534	4.46486
0.75914	4.50712
0.830971	4.54937
0.929562	4.58458
1.00139	4.60571
