Adsorption isotherm of Ethane on ZIF-8
DOI: 10.1021/La401471g
Adsorbate Ethane: InChIKey OTMSDBZUPAUEDD-UHFFFAOYSA-N
Temperature: 313 K
Tabular data in the source: 0
pressure (bar)	uptake (mmol/g)
0.0542152	0.0911205
0.0992856	0.166238
0.153746	0.241355
0.205389	0.323984
0.257032	0.406613
0.305858	0.492998
0.406328	0.658257
0.479567	0.767177
0.54999	0.883609
0.619473	0.992529
0.690835	1.09018
0.761257	1.19159
0.832619	1.293
0.882384	1.3606
0.934966	1.42445
