Adsorption isotherm of Ethene on Mg2(dhtp)
DOI: 10.1021/La401471g
Adsorbate Ethene: InChIKey VGGSQFUCUMXWEO-UHFFFAOYSA-N
Temperature: 295 K
Tabular data in the source: 0
pressure (bar)	uptake (mmol/g)
0.0112524	0.518432
0.0535059	1.97195
0.105619	3.10998
0.157731	3.84238
0.205619	4.28181
0.256323	4.75505
0.311252	5.12688
0.405619	5.62266
0.480266	5.91562
0.619703	6.27618
0.756323	6.55787
0.828154	6.64801
0.929562	6.73815
0.998576	6.78322
