Adsorption isotherm of Ethane on ZIF-8
DOI: 10.1021/La401471g
Adsorbate Ethane: InChIKey OTMSDBZUPAUEDD-UHFFFAOYSA-N
Temperature: 303 K
Tabular data in the source: 0
pressure (bar)	uptake (mmol/g)
0.0532762	0.0836087
0.115248	0.226332
0.153746	0.305205
0.203511	0.417881
0.304919	0.631966
0.356563	0.744642
0.408206	0.849806
0.477689	0.988773
0.550929	1.13901
0.621351	1.28173
0.691774	1.4207
0.763135	1.55591
0.832619	1.67234
0.884262	1.76248
0.934966	1.84136
