Adsorption isotherm of Propene on Co2(dhtp)
DOI: 10.1021/La401471g
Adsorbate Propene: InChIKey QQONPFPTGQHPMA-UHFFFAOYSA-N
Temperature: 295 K
Tabular data in the source: 0
pressure (bar)	uptake (mmol/g)
1.52e-05	0.0564143
0.00843546	3.00712
0.0464636	3.80289
0.111252	4.21134
0.154914	4.35923
0.209844	4.48599
0.315478	4.63388
0.407027	4.72543
0.550689	4.81698
0.619703	4.82402
0.690126	4.83106
0.75914	4.84515
0.853506	4.8381
0.90421	4.84515
0.950689	4.8381
1.02111	4.84515
