Adsorption isotherm of Ethane on Mg2(dhtp)
DOI: 10.1021/La401471g
Adsorbate Ethane: InChIKey OTMSDBZUPAUEDD-UHFFFAOYSA-N
Temperature: 295 K
Tabular data in the source: 0
pressure (bar)	uptake (mmol/g)
0.0154777	0.180404
0.0520974	0.755052
0.102802	1.48745
0.207027	2.74942
0.311252	3.7297
0.407027	4.32688
0.476041	4.67618
0.615478	5.12688
0.756323	5.43111
0.829562	5.49871
0.926745	5.62266
0.998576	5.65646
