Adsorption isotherm of Ethane on ZIF-8
DOI: 10.1021/La401471g
Adsorbate Ethane: InChIKey OTMSDBZUPAUEDD-UHFFFAOYSA-N
Temperature: 293 K
Tabular data in the source: 0
pressure (bar)	uptake (mmol/g)
0.0126608	0.0225962
0.0520974	0.135272
0.112661	0.298653
0.150689	0.405695
0.205619	0.552174
0.254914	0.698653
0.30421	0.856399
0.357731	1.00288
0.478858	1.34091
0.549281	1.53809
0.619703	1.724
0.690126	1.89865
0.760548	2.0564
0.832379	2.21415
0.884492	2.31555
0.932379	2.40569
