Adsorption isotherm of Ethene on ZIF-8
DOI: 10.1021/La401471g
Adsorbate Ethene: InChIKey VGGSQFUCUMXWEO-UHFFFAOYSA-N
Temperature: 283 K
Tabular data in the source: 0
pressure (bar)	uptake (mmol/g)
0.103041	0.207552
0.165952	0.293937
0.205389	0.387834
0.255154	0.492998
0.305858	0.590651
0.357502	0.688304
0.408206	0.785956
0.477689	0.924923
0.54999	1.0714
0.62229	1.1991
0.691774	1.33431
0.762196	1.45074
0.832619	1.57844
0.883323	1.65732
0.933088	1.73619
