Adsorption isotherm of Propene on Mg2(dhtp)
DOI: 10.1021/La401471g
Adsorbate Propene: InChIKey QQONPFPTGQHPMA-UHFFFAOYSA-N
Temperature: 295 K
Tabular data in the source: 0
pressure (bar)	uptake (mmol/g)
0.00561856	0.0677276
0.0112524	2.78322
0.0535059	5.7466
0.108435	6.42266
0.163365	6.73815
0.216886	6.94097
0.268999	7.06491
0.354914	7.22266
0.405619	7.279
0.474633	7.35787
0.547872	7.39167
0.687309	7.43674
0.756323	7.47054
0.847872	7.47054
0.949281	7.48181
1.01829	7.48181
