Adsorption isotherm of N-propane on Co2(dhtp)
DOI: 10.1021/La401471g
Adsorbate N-propane: InChIKey ATUOYWHBWRKTHZ-UHFFFAOYSA-N
Temperature: 295 K
Tabular data in the source: 0
pressure (bar)	uptake (mmol/g)
0.00843546	1.95782
0.0535059	2.97191
0.112661	3.28177
0.154914	3.36627
0.212661	3.46486
0.308435	3.59867
0.407027	3.63388
0.478858	3.65501
0.614069	3.67613
0.709844	3.69022
0.847872	3.66909
0.898576	3.66205
0.950689	3.64092
1.02252	3.61275
