Adsorption isotherm of N-propane on ZIF-8
DOI: 10.1021/La401471g
Adsorbate N-propane: InChIKey ATUOYWHBWRKTHZ-UHFFFAOYSA-N
Temperature: 293 K
Tabular data in the source: 0
pressure (bar)	uptake (mmol/g)
0.0492805	1.03108
0.102802	2.21418
0.15914	3.05925
0.225337	3.52404
0.276041	3.7522
0.328154	3.92967
0.350689	3.98037
0.405619	4.09023
0.615478	4.3353
0.75914	4.41136
0.87745	4.44516
0.930971	4.43671
0.998576	4.44516
