Adsorption isotherm of Ethene on ZIF-8
DOI: 10.1021/La401471g
Adsorbate Ethene: InChIKey VGGSQFUCUMXWEO-UHFFFAOYSA-N
Temperature: 293 K
Tabular data in the source: 0
pressure (bar)	uptake (mmol/g)
0.0523373	0.0948763
0.103041	0.15497
0.166891	0.21882
0.206328	0.312717
0.254215	0.380322
0.304919	0.45544
0.407267	0.620698
0.479567	0.725862
0.550929	0.831027
0.621351	0.932435
0.691774	1.02633
0.763135	1.12774
0.883323	1.27422
0.934966	1.33807
