Adsorption isotherm of Ethene on ZIF-8
DOI: 10.1021/La401471g
Adsorbate Ethene: InChIKey VGGSQFUCUMXWEO-UHFFFAOYSA-N
Temperature: 313 K
Tabular data in the source: 0
pressure (bar)	uptake (mmol/g)
0.0513983	0.0385383
0.103041	0.0836087
0.168769	0.147458
0.203511	0.203797
0.254215	0.252623
0.305858	0.301449
0.358441	0.350275
0.407267	0.39159
0.480506	0.45544
0.54999	0.508022
0.62229	0.56436
0.692713	0.620698
0.763135	0.677036
0.832619	0.729618
0.884262	0.763421
0.934966	0.804735
