Adsorption isotherm of Nitrogen on ZIF-8
DOI: 10.1021/La401471g
Adsorbate Nitrogen: InChIKey IJGRMHOSHXDMSA-UHFFFAOYSA-N
Temperature: 77 K
Tabular data in the source: 0
pressure (bar)	uptake (cm3(STP)/g)
0.00280166	21.1344
0.00280166	82.402
0.00280166	143.67
0.00280166	204.233
0.00421011	265.501
0.00702701	325.36
0.00984391	356.346
0.0168862	409.867
0.0211115	426.064
0.0337876	432.402
0.0605481	432.402
0.12252	433.81
0.201393	433.81
0.30421	433.106
0.42252	431.698
0.52252	430.994
0.62252	430.289
0.718295	429.585
0.82252	430.994
0.919703	430.289
0.946464	430.289
0.976041	430.994
0.987309	437.332
