Adsorption isotherm of Ethane on ZIF-8
DOI: 10.1021/La401471g
Adsorbate Ethane: InChIKey OTMSDBZUPAUEDD-UHFFFAOYSA-N
Temperature: 293 K
Tabular data in the source: 0
pressure (bar)	uptake (mmol/g)
0.050689	0.160655
0.111252	0.321218
0.202802	0.58319
0.302802	0.853613
0.40421	1.15784
0.474633	1.3522
0.546464	1.53812
0.616886	1.72404
0.687309	1.9015
0.760548	2.07051
0.828154	2.21418
0.928154	2.40854
0.998576	2.5353
