Adsorption isotherm of Ethane on ZIF-8
DOI: 10.1021/La401471g
Adsorbate Ethane: InChIKey OTMSDBZUPAUEDD-UHFFFAOYSA-N
Temperature: 323 K
Tabular data in the source: 0
pressure (bar)	uptake (mmol/g)
0.0119617	0.0122472
0.0551542	0.0723411
0.151868	0.200041
0.256093	0.335252
0.306797	0.399102
0.357502	0.474219
0.405389	0.526801
0.477689	0.613186
0.549051	0.699571
0.62229	0.789712
0.688957	0.872341
0.761257	0.939947
0.832619	1.01506
0.884262	1.0714
0.934966	1.11272
