Adsorption isotherm of Ethanol on C36H20Co3N8O12
DOI: 10.1021/Ic101618n
Adsorbate Ethanol: InChIKey LFQSCWFLJHTTHZ-UHFFFAOYSA-N
Temperature: 298 K
Tabular data in the source: 0
pressure (bar)	uptake (mol/mol)
0.109514	0.0297619
0.225996	0.014881
0.351811	0.0297619
0.498588	0.0297619
0.650031	0.0446429
0.789811	0.0297619
0.896981	0.0297619
0.938924	0.0446429
0.964551	0.0446429
