Adsorption isotherm of Water on C36H20Co3N8O12
DOI: 10.1021/Ic101618n
Adsorbate Water: InChIKey XLYOFNOQVPJJNP-UHFFFAOYSA-N
Temperature: 298 K
Tabular data in the source: 0
pressure (bar)	uptake (mol/mol)
0.00464842	0.744048
0.00697263	0.952381
0.00929684	1.42857
0.0139453	1.8006
0.0162695	2.03869
0.0185937	2.2619
0.0232421	2.52976
0.0278905	2.82738
0.0302147	2.7381
0.0418358	3.08036
0.0557811	3.28869
0.0790232	3.48214
0.0976168	3.57143
0.139453	3.72024
0.206855	3.83929
0.306796	3.94345
0.432303	4.04762
0.548514	4.16667
0.650779	4.24107
0.729802	4.31548
0.848337	4.46429
0.8832	4.49405
0.938981	4.59821
