Adsorption isotherm of Nitrogen on C36H20Co3N8O12
DOI: 10.1021/Ic101618n
Adsorbate Nitrogen: InChIKey IJGRMHOSHXDMSA-UHFFFAOYSA-N
Temperature: 77 K
Tabular data in the source: 0
pressure (bar)	uptake (cm3(STP)/g)
0.00383085	0.26422
0.0355939	0.440367
0.0508357	0.469725
0.100362	0.440367
0.151167	0.52844
0.255304	0.52844
0.302295	0.557798
0.346748	0.616514
0.397551	0.675229
0.444552	0.822018
0.496625	0.880734
0.538533	0.880734
0.593146	0.93945
0.641414	1.05688
0.687142	1.17431
0.734142	1.3211
0.786239	1.67339
0.835786	1.90826
0.880253	2.14312
0.928626	3.58165
0.946552	5.43119
0.959629	10.1872
0.965191	16.2642
