Adsorption isotherm of Methanol on C36H20Co3N8O12
DOI: 10.1021/Ic101618n
Adsorbate Methanol: InChIKey OKKJLVBELUTLKV-UHFFFAOYSA-N
Temperature: 298 K
Tabular data in the source: 0
pressure (bar)	uptake (mol/mol)
0.0116211	0.0297619
0.0418358	0.0446429
0.0952926	0.104167
0.139453	0.119048
0.202206	0.14881
0.295175	0.16369
0.395116	0.193452
0.488084	0.208333
0.585701	0.238095
0.678669	0.267857
0.739099	0.252976
0.822771	0.267857
0.873903	0.297619
0.897145	0.267857
0.976168	0.3125
