Adsorption isotherm of Hydrogen on JUC-100
DOI: 10.1039/C1cc12891d
Adsorbate Hydrogen: InChIKey UFHFLCQGNIYNRP-UHFFFAOYSA-N
Temperature: 87 K
Tabular data in the source: 0
pressure (bar)	uptake (cm3(STP)/g)
0.00400996	0.000625
0.0498923	0.126098
0.100144	0.235341
0.198464	0.410131
0.303338	0.571812
0.401657	0.702904
0.499976	0.807778
0.607035	0.921392
0.70317	1.01316
0.801489	1.09618
0.897623	1.18358
0.993758	1.24912
