Adsorption isotherm of Nitrogen on JUC-100
DOI: 10.1039/C1cc12891d
Adsorbate Nitrogen: InChIKey IJGRMHOSHXDMSA-UHFFFAOYSA-N
Temperature: 77 K
Tabular data in the source: 0
pressure (bar)	uptake (cm3(STP)/g)
0.00400996	105.311
0.00400996	168.017
0.00400996	246.017
0.00619484	38.0166
0.00619484	334.722
0.00837971	398.958
0.0127495	452.487
0.0193041	473.899
0.104514	515.193
0.248716	535.075
0.458464	554.958
0.650733	574.84
0.805859	596.252
0.853926	606.958
0.904178	622.252
0.993758	649.781
