Adsorption isotherm of Hydrogen on JUC-100
DOI: 10.1039/C1cc12891d
Adsorbate Hydrogen: InChIKey UFHFLCQGNIYNRP-UHFFFAOYSA-N
Temperature: 77 K
Tabular data in the source: 0
pressure (bar)	uptake (cm3(STP)/g)
0.00837971	0.0474423
0.0302285	0.178535
0.0498923	0.287778
0.0957747	0.510636
0.198464	0.820888
0.303338	1.05685
0.399472	1.23601
0.504346	1.38895
0.602665	1.51568
0.70317	1.63803
0.797119	1.75601
0.901993	1.84341
0.991573	1.93517
