Adsorption isotherm of Nitrogen on JUC-519 2-fold
DOI: 10.1021/jacs.9b06908
Article source: Figure 3b
Adsorbate Nitrogen: InChIKey IJGRMHOSHXDMSA-UHFFFAOYSA-N
Kind: experiment
Temperature: 77 K
Tabular data in the source: 0
pressure (bar)	uptake (cm3(STP)/g)
0	30.2808
0	61.5385
0.000995	92.7961
0.000995	125.031
0	156.288
0	186.569
0	216.85
0	247.131
-0.000995	276.435
-0.000995	303.785
0	327.228
0.000995	352.625
0.002986	378.022
0.008958	400.488
0.019907	419.048
0.036827	435.653
0.057729	448.352
0.086594	459.096
0.122426	470.818
0.156267	478.632
0.193095	482.54
0.227931	489.377
0.264759	494.261
0.299596	499.145
0.333437	503.052
0.369269	505.006
0.405101	507.936
0.440933	510.867
0.476765	512.82
0.511602	515.751
0.547434	516.728
0.58227	518.681
0.618102	520.635
0.653934	522.589
0.689766	524.542
0.743514	526.496
0.75944	528.449
0.795272	533.333
0.831104	538.217
0.865941	544.078
0.899782	551.893
0.935614	570.452
0.971446	600.733
0.99832	668.132
1.0023	704.273
1.0033	727.717
1.00728	766.789
1.00628	749.206
0.051757	469.841
0.082613	485.47
0.116454	497.192
0.153281	503.052
0.187123	509.89
0.222955	514.774
0.257792	518.681
0.293624	522.589
0.329456	524.542
0.364292	528.449
0.380218	529.426
0.435956	532.357
0.472784	534.31
0.504634	541.148
0.52056	543.101
0.576298	544.078
0.591228	546.032
0.645972	547.985
0.662892	548.962
0.698724	550.916
0.734556	552.869
0.770389	554.823
0.805225	558.73
0.842053	564.591
0.877885	572.405
0.914712	586.081
0.956516	612.454
0.994339	696.459
