Adsorption isotherm of Nitrogen on JUC-518
DOI: 10.1021/jacs.9b06908
Article source: Figure 3a
Adsorbate Nitrogen: InChIKey IJGRMHOSHXDMSA-UHFFFAOYSA-N
Kind: experiment
Temperature: 77 K
Tabular data in the source: 0
pressure (bar)	uptake (cm3(STP)/g)
-0.001908	273.563
-0.001908	326.667
-0.001908	376.552
-0.000954	519.77
-0.000954	571.264
-0.000954	621.149
0.001908	827.126
0.000954	780.46
0	737.011
0	696.782
-0.000954	658.161
-0.000954	476.322
-0.000954	436.092
-0.000954	230.115
-0.000954	180.23
-0.000954	131.954
-0.000954	85.2874
-0.000954	-1.60919
0	43.4483
0.009541	881.839
0.019082	909.195
0.038164	931.724
0.084915	967.126
0.057246	949.425
0.120216	980
0.156472	986.437
0.191773	989.655
0.225167	992.874
0.262376	996.092
0.297678	1002.53
0.33298	1000.92
0.388317	1004.14
0.424573	1004.14
0.460828	1005.75
0.495176	1004.14
0.529523	1005.75
0.567687	1005.75
0.601081	1005.75
0.637336	1007.36
0.673592	1002.53
0.708893	1005.75
0.745149	1004.14
0.780451	1005.75
0.815752	1005.75
0.847237	1007.36
0.866319	1012.18
0.900667	1018.62
0.936922	1029.89
0.973178	1057.24
0.999893	1155.4
1.00562	1211.72
1.00752	1287.36
1.00657	1251.95
0.050567	957.471
0.080144	971.954
0.1164	984.828
0.151701	992.874
0.187003	996.092
0.223258	1002.53
0.257606	1008.97
0.27478	1008.97
0.308173	1012.18
0.345383	1012.18
0.37973	1012.18
0.41694	1013.79
0.470369	1012.18
0.485635	1012.18
0.522845	1018.62
0.557192	1018.62
0.593448	1018.62
0.627795	1018.62
0.665005	1017.01
0.699352	1017.01
0.734654	1018.62
0.77091	1018.62
0.806211	1020.23
0.841513	1021.84
0.877768	1028.28
0.912116	1034.71
0.953142	1055.63
0.994168	1169.89
