Adsorption isotherm of Ethanol on Cr-MIL(101)
DOI: 10.1016/j.energy.2014.11.022
Article source: Figure 6
Adsorbate Ethanol: InChIKey LFQSCWFLJHTTHZ-UHFFFAOYSA-N
Kind: experiment
Temperature: 343 K
Tabular data in the source: 0
pressure (bar)	uptake (g/g)
0	0.003727
0.088349	0.413665
0.129126	0.495652
0.183495	0.652174
0.229709	0.760248
0.285437	0.924224
0.33165	0.946584
0.38466	0.968944
0.464854	0.987578
0.555922	1.02112
0.657864	1.05093
