Adsorption isotherm of Ethanol on Cr-MIL(101)
DOI: 10.1016/j.energy.2014.11.022
Article source: Figure 6
Adsorbate Ethanol: InChIKey LFQSCWFLJHTTHZ-UHFFFAOYSA-N
Kind: experiment
Temperature: 333 K
Tabular data in the source: 0
pressure (bar)	uptake (g/g)
0	0.003727
0.024466	0.301863
0.051651	0.402484
0.082913	0.503106
0.112816	0.64472
0.144078	0.763975
0.169903	0.920497
0.213398	0.961491
0.236505	0.972671
0.294951	1.00248
0.361553	1.0323
0.42	1.06211
