Adsorption isotherm of Ethanol on Cr-MIL(101)
DOI: 10.1016/j.energy.2014.11.022
Article source: Figure 7
Adsorbate Ethanol: InChIKey LFQSCWFLJHTTHZ-UHFFFAOYSA-N
Kind: experiment
Temperature: 293 K
Tabular data in the source: 0
pressure (bar)	uptake (g/g)
0.000245	0.004228
0.000613	0.153993
0.001471	0.213772
0.002207	0.251548
0.003066	0.330175
0.003556	0.305097
0.003924	0.367964
0.004782	0.364916
0.005763	0.409001
0.006622	0.443649
0.007357	0.472001
0.008338	0.490956
0.009319	0.522475
0.010055	0.538262
0.010913	0.598041
0.012753	0.717612
0.013121	0.730217
0.013734	0.727142
0.014101	0.74603
0.014715	0.739814
0.015573	0.755614
0.016186	0.774528
0.016309	0.834227
0.016799	0.871977
0.018148	0.919243
0.018638	0.925579
0.019865	0.935136
0.020233	0.941459
0.020355	0.935189
0.020846	0.938384
0.021827	0.941631
0.022562	0.944852
0.02293	0.948034
0.023543	0.9481
0.024524	0.948206
0.025137	0.954555
0.025751	0.954622
0.025996	0.95779
0.026118	0.960944
0.027222	0.957923
0.027958	0.958002
0.028693	0.964365
0.029184	0.964418
0.029307	0.964431
0.031636	0.970966
0.033476	0.974307
0.034579	0.980709
0.035315	0.977647
0.037522	0.984169
0.038626	0.984289
0.039484	0.987523
0.041937	0.99093
0.043408	0.994231
0.044879	1.00067
0.045738	1.00391
0.046596	1.004
0.0477	1.00726
0.049662	1.0169
0.052114	1.0203
0.052605	1.02036
0.054076	1.02994
