Adsorption isotherm of Ethanol on Cr-MIL(101)
DOI: 10.1016/j.energy.2014.11.022
Article source: Figure 6
Adsorbate Ethanol: InChIKey LFQSCWFLJHTTHZ-UHFFFAOYSA-N
Kind: experiment
Temperature: 303 K
Tabular data in the source: 0
pressure (bar)	uptake (g/g)
0	0.003727
0.012233	0.458385
0.01767	0.55528
0.023107	0.749068
0.03534	0.980124
0.048932	1.00994
0.059806	1.03602
0.095146	1.10311
