Adsorption isotherm of Ethanol on Cr-MIL(101)
DOI: 10.1016/j.energy.2014.11.022
Article source: Figure 6
Adsorbate Ethanol: InChIKey LFQSCWFLJHTTHZ-UHFFFAOYSA-N
Kind: experiment
Temperature: 313 K
Tabular data in the source: 0
pressure (bar)	uptake (g/g)
0	0.003727
0.01767	0.413665
0.028544	0.510559
0.039418	0.678261
0.059806	0.950311
0.081553	0.998758
0.10466	1.02112
0.150874	1.07329
