Adsorption isotherm of Ethanol on Cr-MIL(101)
DOI: 10.1016/j.energy.2014.11.022
Article source: Figure 6
Adsorbate Ethanol: InChIKey LFQSCWFLJHTTHZ-UHFFFAOYSA-N
Kind: experiment
Temperature: 323 K
Tabular data in the source: 0
pressure (bar)	uptake (g/g)
0	0.003727
0.016311	0.324224
0.032621	0.428571
0.050291	0.518012
0.067961	0.693168
0.089709	0.786335
0.108738	0.946584
0.130485	0.972671
0.146796	0.983851
0.186214	1.01366
0.231068	1.04348
0.271845	1.08075
