Adsorption isotherm of Nitrogen on Cr-MIL(101)
DOI: 10.1016/j.energy.2014.11.022
Article source: Figure 3
Adsorbate Nitrogen: InChIKey IJGRMHOSHXDMSA-UHFFFAOYSA-N
Kind: experiment
Temperature: 77 K
Tabular data in the source: 0
pressure (bar)	uptake (cm3(STP)/g)
0.006303	359.281
0.016807	428.144
0.052521	556.886
0.054622	556.886
0.098739	688.623
0.102941	691.617
0.121849	718.563
0.151261	748.503
0.170168	763.473
0.197479	817.365
0.201681	829.341
0.247899	841.317
0.260504	847.305
0.296218	850.299
0.30042	850.299
0.352941	859.281
0.359244	862.275
0.392857	862.275
0.394958	865.269
0.445378	871.257
0.453782	871.257
0.495798	877.246
0.504202	877.246
0.546218	883.234
0.596639	886.228
0.602941	889.222
0.644958	889.222
0.64916	892.216
0.701681	898.204
0.741597	901.198
0.747899	904.192
0.796218	910.18
0.802521	907.186
0.846639	919.162
0.852941	919.162
0.894958	934.132
0.897059	934.132
0.947479	982.036
