Adsorption isotherm of Water on [Zn2(bdc-NO2)2(dabco)]n
DOI: 10.1016/j.jssc.2009.07.048
Adsorbate Water: InChIKey XLYOFNOQVPJJNP-UHFFFAOYSA-N
Temperature: 298 K
Tabular data in the source: 0
pressure (bar)	uptake (molecules/pore)
0.0012222	0.0426398
0.00296821	0.0849203
0.00427771	0.105761
0.00549992	0.126662
0.00637292	0.147802
0.00785702	0.233741
0.00881733	0.27656
0.00995223	0.362738
0.0106506	0.536172
0.0107379	0.60133
0.0112617	0.666188
0.0116982	0.86154
0.0119601	1.05701
0.0123093	1.25243
0.0126585	1.44784
0.0129204	1.64331
0.0130077	1.75195
0.013095	1.96928
0.0132696	2.18655
0.0134442	2.38208
0.0136188	2.75153
0.0138807	3.20787
0.0141426	3.40334
0.0144045	3.62055
0.0150156	3.75057
0.0158013	3.81525
0.0165871	3.85819
0.0173728	3.87939
0.0181585	3.92233
0.0189442	3.987
0.0197299	4.0082
0.0206029	4.07282
0.0215632	4.15912
0.0221743	4.22392
0.0223489	4.50641
0.0224362	4.26722
0.0226108	4.6584
0.0227854	4.87567
0.0232219	5.02755
0.0233965	5.24482
0.0237457	5.44023
0.0240949	5.65738
0.0245314	5.80926
0.0250552	5.96107
0.0258409	6.04749
0.0271504	6.15529
0.0278488	6.24177
0.0285472	6.32824
