Adsorption isotherm of Water on [Zn2(bdc)2(dabco)]n
DOI: 10.1016/j.jssc.2009.07.048
Adsorbate Water: InChIKey XLYOFNOQVPJJNP-UHFFFAOYSA-N
Temperature: 298 K
Tabular data in the source: 0
pressure (bar)	uptake (molecules/pore)
0.0012222	0.0426398
0.00174601	0.0640196
0.00270631	0.0633609
0.00366661	0.10618
0.00445231	0.127381
0.00532532	0.126782
0.00611102	0.169721
0.00680942	0.190981
0.00768242	0.190382
0.00846813	0.233321
0.00925383	0.298
0.0100395	0.384417
0.010476	0.971074
0.0105633	0.688406
0.0107379	1.2535
0.0109125	0.579471
0.0109998	1.44898
0.0112617	1.66619
0.0116982	1.86154
0.0120474	2.05695
0.0125712	2.23051
0.0141426	2.83812
0.0144045	3.0336
0.0150156	3.18535
0.0162379	3.18451
0.0171109	3.20565
0.0179839	3.20505
0.0188569	3.20446
0.0197299	3.20386
