Adsorption isotherm of Water on [Zn2(bdc-(NO2)2)2(dabco)]
DOI: 10.1016/j.jssc.2009.07.048
Adsorbate Water: InChIKey XLYOFNOQVPJJNP-UHFFFAOYSA-N
Temperature: 298 K
Tabular data in the source: 0
pressure (bar)	uptake (molecules/pore)
0.000436501	0.151874
0.0010476	0.303629
0.00165871	0.455384
0.00226981	0.585399
0.00296821	0.715355
0.00366661	0.86705
0.00436501	0.975266
0.00506342	1.10522
0.00576182	1.23518
0.00646022	1.36513
0.00707132	1.49515
0.00776972	1.6251
0.00846813	1.7768
0.00907923	1.90682
0.00969033	2.08031
0.0103014	2.23206
0.0108252	2.38388
0.0114363	2.55737
0.0120474	2.70913
0.0127458	2.81734
0.0144045	3.05534
0.0153648	3.25033
0.0162379	3.33669
0.0169363	3.4449
0.017722	3.55306
0.0185077	3.66122
0.0192061	3.76943
0.0226108	4.28884
0.0232219	4.44059
0.023833	4.57061
0.0244441	4.7441
0.0249679	4.87418
0.0254917	5.04773
0.0261028	5.19948
0.0265393	5.3731
0.0269758	5.56845
0.0274123	5.74206
0.0278488	5.93742
0.0281107	6.08941
0.0284599	6.28482
