Adsorption isotherm of Nitrogen on [Zn2(bdc-(NO2)2)2(dabco)]
DOI: 10.1016/j.jssc.2009.07.048
Adsorbate Nitrogen: InChIKey IJGRMHOSHXDMSA-UHFFFAOYSA-N
Temperature: 77 K
Tabular data in the source: 0
pressure (bar)	uptake (cm3(STP)/g)
0.00287432	40.4412
0.00574864	42.2794
0.0114973	45.9559
0.0287432	51.4706
0.0316175	49.6324
0.0603607	53.3088
0.0862296	58.8235
0.112098	62.5
0.137967	64.3382
0.160962	68.0147
0.186831	69.8529
0.209825	71.6912
0.235694	75.3676
0.261563	79.0441
0.284558	82.7206
0.310427	86.3971
0.336295	90.0735
0.35929	93.75
0.385159	97.4265
0.408153	99.2647
0.434022	102.941
0.459891	106.618
0.48576	110.294
0.508755	113.971
0.531749	119.485
0.554744	123.162
0.577738	125
0.600733	128.676
0.623727	134.191
0.649596	139.706
0.672591	141.544
0.684088	145.221
0.701334	154.412
0.724329	161.765
0.747323	169.118
0.767443	172.794
0.784689	181.985
0.799061	193.015
0.801935	191.176
0.822055	204.044
0.842176	211.397
0.86517	220.588
0.876667	229.779
