Adsorption isotherm of Nitrogen on [Zn2(bdc-NO2)2(dabco)]n
DOI: 10.1016/j.jssc.2009.07.048
Adsorbate Nitrogen: InChIKey IJGRMHOSHXDMSA-UHFFFAOYSA-N
Temperature: 77 K
Tabular data in the source: 0
pressure (bar)	uptake (cm3(STP)/g)
1.11e-16	376.838
0.00287432	387.868
0.00574864	398.897
0.0143716	409.926
0.0229946	415.441
0.0402405	420.956
0.0574864	422.794
0.071858	428.309
0.100601	431.985
0.12647	431.985
0.149465	433.824
0.175333	435.662
0.198328	437.5
0.224197	439.338
0.27306	441.176
0.319049	441.176
0.370787	444.853
0.413902	446.691
0.462765	448.529
0.514503	450.368
0.537498	450.368
0.589236	452.206
0.638099	452.206
0.684088	455.882
0.707083	455.882
0.732951	457.721
0.781815	459.559
0.847924	466.912
0.876667	468.75
