Adsorption isotherm of Carbon Dioxide on [CoII2Cl2(bbta)]]
DOI: 10.1039/c4ee02717e
Article source: Figure 2a
Adsorbate Carbon Dioxide: InChIKey CURLTUGMZLYLDI-UHFFFAOYSA-N
Kind: experiment
Temperature: 298 K
Tabular data in the source: 0
pressure (bar)	uptake (mmol/g)
0.032178	0.193772
0.049505	0.276817
0.074257	0.415225
0.094059	0.49827
0.113861	0.608997
0.133663	0.719723
0.155941	0.802768
0.217822	1.10727
0.242574	1.24567
0.274752	1.41176
0.304455	1.57785
0.329208	1.6609
0.361386	1.82699
0.386139	1.93772
0.398515	1.91003
0.418317	2.04844
0.425743	2.07612
0.445545	2.18685
0.460396	2.24221
0.472772	2.32526
0.490099	2.32526
0.5	2.46367
0.522277	2.49135
0.537129	2.60208
0.55198	2.60208
0.559406	2.68512
0.581683	2.74048
0.589109	2.85121
0.621287	2.96194
0.653465	3.07266
0.680693	3.18339
0.705446	3.29412
0.737624	3.34948
0.742574	3.43253
0.764851	3.48789
0.794554	3.57093
0.826733	3.73702
0.856436	3.76471
0.883663	3.90311
0.915842	3.98616
0.943069	4.0692
0.977723	4.12457
1.00495	4.23529
