Adsorption isotherm of Carbon Dioxide on [MnII2Cl2(bbta)]
DOI: 10.1039/c4ee02717e
Article source: Figure 2a
Adsorbate Carbon Dioxide: InChIKey CURLTUGMZLYLDI-UHFFFAOYSA-N
Kind: experiment
Temperature: 298 K
Tabular data in the source: 0
pressure (bar)	uptake (mmol/g)
0	0
0.019676	0.249135
0.039404	0.33218
0.059114	0.470588
0.086223	0.636678
0.098543	0.719723
0.120731	0.83045
0.140442	0.968858
0.187261	1.27336
0.219309	1.43945
0.251356	1.60554
0.280926	1.79931
0.310505	1.9654
0.337605	2.15917
0.369653	2.32526
0.404161	2.51903
0.433748	2.65744
0.45591	2.85121
0.492887	3.04498
0.520014	3.15571
0.552061	3.3218
0.584109	3.48789
0.613678	3.68166
0.640796	3.82007
0.677782	3.98616
0.707369	4.12457
0.734495	4.23529
0.766543	4.40138
0.788731	4.51211
0.828194	4.65052
0.855304	4.81661
0.887368	4.92734
0.912025	5.03806
0.94409	5.14879
0.973685	5.25952
1.00328	5.37024
