Adsorption isotherm of Carbon Dioxide on [CoIICoIII(OH)Cl2(bbta)]
DOI: 10.1039/c4ee02717e
Article source: Figure 2a
Adsorbate Carbon Dioxide: InChIKey CURLTUGMZLYLDI-UHFFFAOYSA-N
Kind: experiment
Temperature: 298 K
Tabular data in the source: 0
pressure (bar)	uptake (mmol/g)
0.001649	2.65744
0.001965	1.63322
0.002042	1.38408
0.00229	0.581315
0.002375	0.304498
0.004614	1.0519
0.011363	3.18339
0.01144	2.93426
0.016669	1.99308
0.024008	2.21453
0.03379	2.51903
0.038361	3.70934
0.046093	2.65744
0.048187	3.87543
0.050972	2.85121
0.05556	3.98616
0.06078	3.07266
0.080174	4.23529
0.082934	3.29412
0.097416	4.3737
0.105054	3.6263
0.117109	4.56747
0.1198	3.84775
0.134341	4.73356
0.141962	4.04152
0.15406	4.84429
0.164125	4.23529
0.18363	5.03806
0.196138	4.51211
0.210748	5.17647
0.225708	4.70588
0.242796	5.34256
0.25034	4.89965
0.26993	5.42561
0.289803	5.03806
0.301995	5.53633
0.319381	5.20415
0.329121	5.64706
0.351318	5.7301
0.351446	5.31488
0.376095	5.45329
0.388329	5.81315
0.413098	5.56401
0.415473	5.86851
0.43778	5.5917
0.442599	5.97924
0.464898	5.7301
0.496886	6.08997
0.49944	5.81315
0.531445	6.11765
0.531514	5.89619
0.556179	5.97924
0.583271	6.20069
0.593191	6.06228
0.620326	6.14533
0.640027	6.31142
0.657345	6.20069
0.70173	6.39446
0.71411	6.28374
0.746175	6.39446
0.758486	6.50519
0.807877	6.47751
0.810321	6.56055
0.872049	6.56055
0.926345	6.6436
0.988064	6.67128
