Adsorption isotherm of Carbon Dioxide on [MnIIMnIII(OH)Cl2(bbta)]
DOI: 10.1039/c4ee02717e
Article source: Figure 2a
Adsorbate Carbon Dioxide: InChIKey CURLTUGMZLYLDI-UHFFFAOYSA-N
Kind: experiment
Temperature: 298 K
Tabular data in the source: 0
pressure (bar)	uptake (mmol/g)
0	0
0.004145	2.60208
0.004497	1.46713
0.009344	1.79931
0.013961	2.87889
0.016676	2.10381
0.024033	2.32526
0.048631	2.82353
0.058207	3.87543
0.075739	3.21107
0.102873	3.51557
0.105022	4.56747
0.132499	3.76471
0.152206	4.0692
0.154373	5.06574
0.184325	4.26298
0.206525	4.51211
0.208709	5.45329
0.260586	5.78547
0.260886	4.81661
0.317431	6.06228
0.317714	5.14879
0.366876	6.25606
0.369626	5.37024
0.421272	6.44983
0.423995	5.64706
0.468259	6.58824
0.470957	5.86851
0.525146	6.72664
0.525361	6.0346
0.577092	6.83737
0.577289	6.20069
0.631522	6.92042
0.634177	6.3391
0.683468	7.03114
0.686106	6.50519
0.737906	7.08651
0.74051	6.67128
0.789869	7.14187
0.792465	6.75433
0.826998	7.14187
0.839469	6.83737
0.876503	7.14187
0.896348	7.00346
0.926017	7.11419
0.948302	7.08651
0.997782	7.16955
