Adsorption isotherm of Hydrogen on SNU-25
DOI: 10.1039/B910228k
Adsorbate Hydrogen: InChIKey UFHFLCQGNIYNRP-UHFFFAOYSA-N
Temperature: 77 K
Tabular data in the source: 0
pressure (bar)	uptake (cm3(STP)/g)
0.0477074	23.9555
0.0717411	37.0647
0.121993	53.4513
0.224682	71.4765
0.316447	81.8547
0.460649	95.5101
0.563338	101.519
0.729388	109.166
0.86922	117.359
0.956615	121.182
