Adsorption isotherm of Nitrogen on SNU-25
DOI: 10.1039/B910228k
Adsorbate Nitrogen: InChIKey IJGRMHOSHXDMSA-UHFFFAOYSA-N
Temperature: 77 K
Tabular data in the source: 0
pressure (bar)	uptake (cm3(STP)/g)
0.0804806	3.19919
0.130733	4.29163
0.185355	4.29163
0.285859	6.4765
0.379808	7.56894
0.475943	8.11516
0.620144	10.8462
0.718464	11.3925
0.875775	13.0311
