Adsorption isotherm of Oxygen on SNU-25
DOI: 10.1039/B910228k
Adsorbate Oxygen: InChIKey MYMOFIZGZYHOMD-UHFFFAOYSA-N
Temperature: 87 K
Tabular data in the source: 0
pressure (bar)	uptake (cm3(STP)/g)
0.0324133	2.10675
0.0345982	172.527
0.0345982	185.636
0.0477074	197.653
0.0848503	209.124
0.130733	215.132
0.233422	223.871
0.329556	228.241
0.572077	231.519
0.768716	235.888
