Adsorption isotherm of Methane on SNU-25
DOI: 10.1039/B910228k
Adsorbate Methane: InChIKey VNWKTOKETHGBQD-UHFFFAOYSA-N
Temperature: 195 K
Tabular data in the source: 0
pressure (bar)	uptake (cm3(STP)/g)
0.00837971	5.76802
0.0324133	13.1092
0.106699	26.8739
0.148212	30.8504
0.250901	40.0268
0.355775	46.7563
0.460649	52.2621
0.600481	58.3798
0.764346	63.5798
0.96317	67.5563
