Adsorption isotherm of Carbon Dioxide on SNU-25
DOI: 10.1039/B910228k
Adsorbate Carbon Dioxide: InChIKey CURLTUGMZLYLDI-UHFFFAOYSA-N
Temperature: 195 K
Tabular data in the source: 0
pressure (bar)	uptake (cm3(STP)/g)
0.00619484	21.368
0.00837971	1.48566
0.00837971	35.7445
0.0127495	49.2033
0.0302285	75.2033
0.0564469	96.0033
0.108884	106.403
0.261825	118.027
0.561153	127.509
0.965355	133.321
