Adsorption isotherm of Oxygen on SNU-25
DOI: 10.1039/B910228k
Adsorbate Oxygen: InChIKey MYMOFIZGZYHOMD-UHFFFAOYSA-N
Temperature: 77 K
Tabular data in the source: 0
pressure (bar)	uptake (cm3(STP)/g)
0.0258587	26.1404
0.0258587	154.502
0.0258587	165.426
0.0280436	66.0143
0.0280436	74.7538
0.0280436	199.838
0.0345982	206.392
0.0586318	217.863
0.0979595	223.871
0.172245	230.426
