Adsorption isotherm of Hydrogen on SNU-25
DOI: 10.1039/B910228k
Adsorbate Hydrogen: InChIKey UFHFLCQGNIYNRP-UHFFFAOYSA-N
Temperature: 87 K
Tabular data in the source: 0
pressure (bar)	uptake (cm3(STP)/g)
0.0411528	8.66137
0.108884	27.779
0.172245	39.7958
0.26838	52.3589
0.375439	61.0984
0.475943	68.1992
0.620144	78.5773
0.714094	83.4933
0.821153	87.8631
0.967539	93.3252
