Adsorption isotherm of Hydrogen on NU-111
DOI: 10.1021/Ja302623w
Adsorbate Hydrogen: InChIKey UFHFLCQGNIYNRP-UHFFFAOYSA-N
Temperature: 77 K
Tabular data in the source: 0
pressure (bar)	uptake (mmol/g)
0.618557	4.09592
0.927835	6.00735
1.85567	9.8302
2.47423	13.38
3.09278	15.8376
3.71134	17.4759
6.49485	21.8449
8.35052	24.5755
10.2062	27.3061
13.299	30.8559
16.0825	32.4943
19.1753	33.8596
22.5773	34.9518
25.3608	35.4979
30.9278	36.0441
35.567	36.0441
40.2062	36.0441
46.3918	35.4979
53.5052	34.9518
58.1443	34.4057
63.0928	33.0404
67.1134	32.2212
73.299	31.4021
81.3402	29.4906
87.8351	28.3984
95.2577	26.76
99.8969	25.9408
