Adsorption isotherm of Nitrogen on NU-111
DOI: 10.1021/Ja302623w
Adsorbate Nitrogen: InChIKey IJGRMHOSHXDMSA-UHFFFAOYSA-N
Temperature: 77 K
Tabular data in the source: 0
pressure (bar)	uptake (cm3(STP)/g)
0.00420117	0.00420117
0.00630175	398.222
0.00840234	448
0.0147041	540.444
0.0210058	846.222
0.025207	995.556
0.0420117	1066.67
0.050414	1116.44
0.0714198	1152
0.0840234	1180.44
0.100828	1244.44
0.149141	1372.44
0.203757	1400.89
0.256271	1415.11
0.304585	1429.33
0.354999	1436.44
0.405413	1443.56
0.449525	1450.67
0.499939	1457.78
0.546152	1472
0.598666	1479.11
0.64698	1486.22
0.695293	1493.33
0.739405	1500.44
0.78982	1521.78
0.842334	1521.78
