Adsorption isotherm of Hydrogen on NU-111
DOI: 10.1021/Ja302623w
Adsorbate Hydrogen: InChIKey UFHFLCQGNIYNRP-UHFFFAOYSA-N
Temperature: 77 K
Tabular data in the source: 0
pressure (bar)	uptake (mmol/g)
3.12941	17.2806
5.58506	20.2151
8.03928	22.8235
9.88281	25.4319
11.421	28.0403
14.1734	29.0184
16.9272	30.3226
19.681	31.6268
22.4334	32.605
25.4883	32.931
28.2393	33.5831
31.2941	33.9092
34.0422	33.9092
37.0971	34.2352
40.1505	34.2352
42.8986	34.2352
45.952	34.2352
49.004	33.9092
52.0575	33.9092
54.8041	33.5831
57.8561	33.2571
60.9081	32.931
63.6534	32.2789
66.7068	32.2789
69.4535	31.9528
72.5055	31.6268
75.5575	31.3008
78.6109	31.3008
81.3561	30.6486
84.4081	30.3226
87.4601	29.9966
90.5121	29.6705
93.5656	29.6705
96.3122	29.3445
99.0574	28.6924
102.109	28.3663
105.161	28.0403
107.908	27.7142
110.653	27.0621
