Adsorption isotherm of Hydrogen on NU-111
DOI: 10.1021/Ja302623w
Adsorbate Hydrogen: InChIKey UFHFLCQGNIYNRP-UHFFFAOYSA-N
Temperature: 298 K
Tabular data in the source: 0
pressure (bar)	uptake (mmol/g)
11.8554	0.302361
21.9759	0.69921
37.012	1.07716
51.759	1.51181
66.7952	1.96535
78.0723	2.3433
82.1205	2.38109
95.4217	2.74015
97.7349	2.77794
112.771	3.137
113.349	3.23148
