Adsorption isotherm of Hydrogen on NU-111
DOI: 10.1021/Ja302623w
Adsorbate Hydrogen: InChIKey UFHFLCQGNIYNRP-UHFFFAOYSA-N
Temperature: 77 K
Tabular data in the source: 0
pressure (bar)	uptake (mmol/g)
3.13371	18.2588
5.90474	23.4756
8.36469	27.3882
12.0518	32.605
14.1978	34.5613
16.6491	36.5176
19.1005	38.4739
20.9426	40.7562
23.9974	41.0823
25.8381	43.0386
28.5933	44.6688
31.0433	46.299
33.7928	46.6251
36.2427	48.2554
38.9951	49.2335
41.7489	50.5377
44.4984	50.8636
47.2523	52.1678
50.0047	53.146
53.0624	54.1243
55.8134	54.7766
58.5643	55.4284
61.622	56.4066
64.373	57.0585
67.124	57.7108
70.1803	58.3631
72.9327	59.3408
75.9875	59.6672
78.4346	60.6455
81.4909	61.2973
84.2418	61.9496
87.2967	62.2755
90.0477	62.9274
93.104	63.5797
95.8549	64.232
98.9098	64.5579
101.661	65.2097
104.412	65.8621
107.468	66.5144
110.218	66.8403
