Adsorption isotherm of Hydrogen on NU-111
DOI: 10.1021/Ja302623w
Adsorbate Hydrogen: InChIKey UFHFLCQGNIYNRP-UHFFFAOYSA-N
Temperature: 298 K
Tabular data in the source: 0
pressure (bar)	uptake (mmol/g)
11.8554	0.226771
17.9277	0.396849
27.4699	0.718108
42.7952	1.26614
59.8554	1.77637
77.7831	2.24881
95.1325	2.66456
97.4458	2.64566
112.193	3.00471
