Adsorption isotherm of Hydrogen on NU-111
DOI: 10.1021/Ja302623w
Adsorbate Hydrogen: InChIKey UFHFLCQGNIYNRP-UHFFFAOYSA-N
Temperature: 87 K
Tabular data in the source: 0
pressure (bar)	uptake (mmol/g)
0.0169558	0.244125
0.0290711	0.439424
0.0484518	0.732374
0.0702385	0.976499
0.0920252	1.22062
0.10899	1.51357
0.154979	2.00182
0.203384	2.49007
0.254203	2.97832
0.307419	3.36892
0.360645	3.80834
0.40903	4.19894
0.457406	4.54072
0.508197	4.88249
0.558998	5.27309
0.609799	5.66369
0.663005	6.00547
0.708956	6.29842
0.764559	6.54254
0.812935	6.88431
0.858886	7.17726
0.912073	7.42139
0.96044	7.71434
1.00396	7.90964
