Adsorption isotherm of Hydrogen on NU-111
DOI: 10.1021/Ja302623w
Adsorbate Hydrogen: InChIKey UFHFLCQGNIYNRP-UHFFFAOYSA-N
Temperature: 298 K
Tabular data in the source: 0
pressure (bar)	uptake (mmol/g)
7.80723	0.151181
11.8554	0.264566
17.6386	0.415747
22.5542	0.529132
27.759	0.7748
36.7229	0.982674
61.012	1.81417
66.506	1.87086
78.0723	2.24881
95.7108	2.68346
97.7349	2.72125
112.482	3.06141
