Adsorption isotherm of Hydrogen on NU-111
DOI: 10.1021/Ja302623w
Adsorbate Hydrogen: InChIKey UFHFLCQGNIYNRP-UHFFFAOYSA-N
Temperature: 77 K
Tabular data in the source: 0
pressure (bar)	uptake (mmol/g)
3.40206	16.3837
5.25773	19.6604
8.65979	24.3024
11.7526	27.3061
12.3711	28.6714
14.8454	30.0368
18.866	31.6751
22.5773	32.4943
27.5258	33.5865
33.0928	34.1326
38.3505	34.4057
42.9897	34.1326
47.3196	34.4057
53.8144	33.8596
59.0722	33.0404
64.0206	32.2212
69.2784	31.9482
75.1546	31.6751
80.1031	30.8559
83.8144	30.3098
86.5979	30.0368
88.1443	29.7637
91.2371	29.4906
94.3299	29.2176
97.1134	28.9445
98.3505	29.2176
