Adsorption isotherm of Hydrogen on NU-111
DOI: 10.1021/Ja302623w
Adsorbate Hydrogen: InChIKey UFHFLCQGNIYNRP-UHFFFAOYSA-N
Temperature: 77 K
Tabular data in the source: 0
pressure (bar)	uptake (mmol/g)
0.618557	0.306842
0.927835	6.28043
1.23711	8.19186
1.54639	13.9261
2.78351	17.749
3.09278	20.4796
3.71134	22.391
4.63918	25.6677
5.87629	27.8523
7.1134	31.4021
8.96907	34.4057
10.2062	37.4094
13.299	40.14
14.5361	41.7784
16.701	43.6898
19.1753	45.3281
21.6495	46.4204
24.1237	47.7857
26.9072	48.878
29.6907	49.4241
32.4742	49.9702
35.567	49.9702
38.6598	49.9702
41.7526	49.6969
44.5361	49.4241
47.6289	49.4241
50.4124	48.878
53.5052	48.6049
56.5979	48.3318
59.3814	48.0588
62.4742	47.5126
65.567	47.2396
68.3505	46.9665
71.4433	46.4204
74.5361	45.8743
77.3196	45.6012
80.4124	45.0551
83.1959	44.509
86.2887	43.9629
89.3814	43.6898
92.1649	43.1437
95.2577	42.8706
98.0412	42.3245
99.5876	41.7784
