Adsorption isotherm of Nitrogen on NU-111
DOI: 10.1021/Ja302623w
Adsorbate Nitrogen: InChIKey IJGRMHOSHXDMSA-UHFFFAOYSA-N
Temperature: 77 K
Tabular data in the source: 0
pressure (bar)	uptake (cm3(STP)/g)
0.00174145	144.7
0.0018217	225.101
0.00345882	265.279
0.00677319	385.836
0.00681332	426.037
0.00845847	474.255
0.0101518	570.714
0.0116926	514.412
0.0184096	843.967
0.0313381	996.553
0.0409521	1028.58
0.0521712	1068.63
0.0649874	1108.65
0.0761904	1132.62
0.0842075	1164.67
0.0922166	1188.68
0.103428	1220.68
0.159451	1348.55
0.200989	1364.06
0.252109	1379.44
0.301624	1386.79
0.351147	1402.19
0.399065	1409.57
0.448572	1408.89
0.498095	1424.29
