Adsorption isotherm of Argon on NU-111
DOI: 10.1021/Ja302623w
Adsorbate Argon: InChIKey XKRFYHLGVUSROY-UHFFFAOYSA-N
Temperature: 87 K
Tabular data in the source: 0
pressure (bar)	uptake (cm3(STP)/g)
0.00620553	83.2599
0.00898058	342.291
0.0090782	277.533
0.00930132	129.515
0.0308185	555.066
0.0490725	1045.37
0.0678006	1221.15
0.0772274	1267.4
0.0929435	1341.41
0.108659	1415.42
0.121182	1507.93
0.124208	1600.44
0.139952	1655.95
0.187379	1692.95
0.225337	1711.45
0.279095	1748.46
0.31075	1748.46
0.345529	1776.21
0.402495	1785.46
0.440453	1803.96
0.497418	1813.22
0.548053	1822.47
0.601852	1831.72
0.646156	1840.97
0.693625	1850.22
0.741093	1859.47
0.791742	1859.47
0.842362	1877.97
0.896162	1887.22
0.943645	1887.22
0.978312	1988.99
