Adsorption isotherm of Nitrogen on NU-111
DOI: 10.1021/Ja302623w
Adsorbate Nitrogen: InChIKey IJGRMHOSHXDMSA-UHFFFAOYSA-N
Temperature: 77 K
Tabular data in the source: 0
pressure (bar)	uptake (cm3(STP)/g)
0.0019429	120.225
0.00199029	45.1089
0.00292856	157.803
0.00485724	300.563
0.00581922	375.699
0.00770525	586.064
0.0115674	864.073
0.0175619	961.842
0.024599	1007.05
0.0366781	1059.86
0.0568463	1090.3
0.0840374	1188.48
0.125383	1249.37
0.18694	1273.1
0.279796	1282.4
