Adsorption isotherm of Hydrogen on NU-111
DOI: 10.1021/Ja302623w
Adsorbate Hydrogen: InChIKey UFHFLCQGNIYNRP-UHFFFAOYSA-N
Temperature: 298 K
Tabular data in the source: 0
pressure (bar)	uptake (mmol/g)
8.09639	0.132283
11.8554	0.226771
22.2651	0.529132
36.7229	0.982674
42.7952	1.30393
51.4699	1.45511
60.4337	1.81417
66.506	1.90865
81.8313	2.28661
94.8434	2.70235
97.7349	2.72125
112.771	3.137
