Adsorption isotherm of Nitrogen on Zn2(bdc)(L-lac)(dmf).DMF
DOI: 10.1039/c5ra01204j
Article source: Figure 1c
Adsorbate Nitrogen: InChIKey IJGRMHOSHXDMSA-UHFFFAOYSA-N
Kind: experiment
Temperature: 77 K
Tabular data in the source: 0
pressure (bar)	uptake (cm3(STP)/g)
0.104638	136.894
0.118591	136.158
0.155214	137.273
0.204045	138.182
0.209277	139.162
0.252877	138.833
0.261597	139.717
0.30694	139.321
0.31566	140.164
0.354028	139.686
0.369723	140.448
0.404603	140.038
0.411578	140.664
0.446458	140.798
0.456922	140.213
0.507497	140.388
0.52668	141.258
0.56156	140.63
0.582488	141.473
0.608647	140.819
0.63132	141.621
0.657479	140.953
0.685383	141.687
0.709798	141.073
0.741189	141.875
0.760373	141.153
0.791765	142.063
0.809205	141.518
0.85106	142.279
0.85978	141.666
0.865013	142.373
0.875476	142.332
0.884195	142.359
0.891172	142.481
0.901635	142.549
0.906868	142.004
0.908612	142.63
0.917332	142.711
0.926051	142.765
0.938259	142.697
0.943491	142.778
0.950467	142.914
0.957443	142.397
0.966162	143.077
0.983602	143.049
0.98709	143.266
1.00627	143.524
