Adsorption isotherm of Methanol on Activated Charcoal
DOI: 10.1016/j.ijrefrig.2009.06.011
Adsorbate Methanol: InChIKey OKKJLVBELUTLKV-UHFFFAOYSA-N
Temperature: 353 K
Tabular data in the source: 0
pressure (bar)	uptake (mmol/g)
0.111952	0.842123
0.122798	1.00746
0.133644	1.17279
0.143406	1.4996
0.154252	1.82676
0.164013	1.99175
0.174859	2.31891
0.18462	2.80754
0.195466	3.1347
0.205228	3.46151
0.216074	3.78867
0.225835	4.27731
0.236681	4.60447
0.247527	5.09346
0.257289	5.58209
0.268134	5.90925
0.277896	6.39789
0.288742	6.88687
0.298503	7.37551
0.309349	7.86449
0.319111	8.35313
0.329957	8.68029
0.339718	9.16892
0.350564	9.65791
0.360325	10.1465
0.370087	10.6352
0.380933	11.1242
0.390694	11.6128
0.40154	12.1018
0.411302	12.5904
0.422148	12.9176
0.431909	13.4062
0.442755	13.8952
0.452516	14.3838
0.463362	14.8728
0.473124	15.3615
0.48397	15.6886
0.493731	16.1772
0.504577	16.6662
