Adsorption isotherm of Methanol on Activated Charcoal
DOI: 10.1016/j.ijrefrig.2009.06.011
Adsorbate Methanol: InChIKey OKKJLVBELUTLKV-UHFFFAOYSA-N
Temperature: 363 K
Tabular data in the source: 0
pressure (bar)	uptake (mmol/g)
0.0649451	0
0.0847294	0.0931616
0.0990192	0.186323
0.111115	0.372646
0.12101	0.465808
0.132003	0.55897
0.141901	0.745293
0.152894	0.838454
0.163891	1.02478
0.173785	1.11794
0.184783	1.30426
0.194681	1.49059
0.205674	1.58375
0.216671	1.77007
0.22657	1.95639
0.237567	2.14272
0.247465	2.32904
0.258462	2.51536
0.268361	2.70169
0.279358	2.88801
0.28926	3.16749
0.300253	3.26066
0.310156	3.54014
0.321153	3.72646
0.331051	3.91279
0.342049	4.09911
0.351951	4.3786
0.362948	4.56492
0.372846	4.75124
0.383844	4.93756
0.393742	5.12389
0.404743	5.40337
0.414642	5.5897
0.425639	5.77602
0.435537	5.96234
0.446534	6.14867
0.456437	6.42815
0.467434	6.61447
0.477332	6.8008
0.48833	6.98712
0.498232	7.2666
0.509229	7.45293
