Adsorption isotherm of Methanol on Activated Charcoal
DOI: 10.1016/j.ijrefrig.2009.06.011
Adsorbate Methanol: InChIKey OKKJLVBELUTLKV-UHFFFAOYSA-N
Temperature: 323 K
Tabular data in the source: 0
pressure (bar)	uptake (mmol/g)
0.0230152	0.489688
0.0327766	1.14015
0.0414534	2.11391
0.0501302	3.24949
0.0577223	4.2229
0.0653145	5.35813
0.0718221	6.49301
0.0794143	7.62825
0.0870065	8.92531
0.0945987	10.0605
0.102191	11.3576
0.109783	12.4928
0.116291	13.6277
0.123883	14.7629
0.131475	15.8982
0.139067	17.0334
0.146659	18.1686
0.155336	19.3042
0.162928	20.2776
0.171605	21.4132
0.180282	22.387
0.187874	23.3604
0.196551	24.3341
0.205228	25.3079
0.213905	26.1198
0.223666	27.094
0.232343	27.9059
0.242104	28.7182
0.251866	29.5305
0.261627	30.1809
0.271388	30.9932
0.28115	31.6437
0.290911	32.2941
0.300672	32.9446
0.310434	33.4332
0.32128	33.9222
0.331041	34.4108
0.341887	34.8998
0.351649	35.3885
0.362495	35.7156
0.373341	36.0428
0.383102	36.3696
0.393948	36.6967
0.403709	37.0236
0.414555	37.3507
0.424317	37.5157
0.435163	37.681
0.446009	37.8464
0.456855	38.1735
0.466616	38.1767
0.477462	38.342
0.487223	38.507
0.498069	38.5105
