Adsorption isotherm of Methanol on Activated Charcoal
DOI: 10.1016/j.ijrefrig.2009.06.011
Adsorbate Methanol: InChIKey OKKJLVBELUTLKV-UHFFFAOYSA-N
Temperature: 333 K
Tabular data in the source: 0
pressure (bar)	uptake (mmol/g)
0.037115	0.494251
0.0468764	0.821061
0.0577223	1.31005
0.0674837	2.12233
0.0772451	2.77279
0.0870065	3.58508
0.0956833	4.55884
0.10436	5.37077
0.114121	6.18305
0.122798	7.15681
0.131475	7.96875
0.140152	8.94251
0.149913	9.91662
0.15859	10.7286
0.167267	11.7023
0.175944	12.6761
0.185705	13.4884
0.194382	14.4621
0.203059	15.274
0.211735	16.2478
0.221497	17.0601
0.230174	17.872
0.239935	18.6843
0.249696	19.4966
0.258373	20.3085
0.268134	21.1208
0.277896	21.9331
0.287657	22.7454
0.296334	23.3955
0.306095	24.2078
0.315857	24.8582
0.326703	25.509
0.336464	26.1595
0.346226	26.81
0.355987	27.4604
0.365748	28.1109
0.376594	28.5999
0.386356	29.2503
0.397202	29.7393
0.406963	30.228
0.416725	30.7166
0.42757	31.2056
0.437332	31.6942
0.448178	32.0214
0.457939	32.51
0.468785	32.8372
0.478547	33.3258
0.489393	33.653
0.499154	33.9798
