Adsorption isotherm of Methanol on Activated Charcoal
DOI: 10.1016/j.ijrefrig.2009.06.011
Adsorbate Methanol: InChIKey OKKJLVBELUTLKV-UHFFFAOYSA-N
Temperature: 353 K
Tabular data in the source: 0
pressure (bar)	uptake (mmol/g)
0.0605618	0.279485
0.0715549	0.372646
0.0814532	0.55897
0.0924463	0.652131
0.102349	0.931616
0.113346	1.11794
0.123244	1.30426
0.134246	1.58375
0.144148	1.86323
0.155149	2.14272
0.165052	2.4222
0.176049	2.60852
0.185955	2.98117
0.196957	3.26066
0.206859	3.54014
0.21786	3.81963
0.227763	4.09911
0.237669	4.47176
0.248671	4.75124
0.258573	5.03073
0.269574	5.31021
0.279481	5.68286
0.290482	5.96234
0.300385	6.24183
0.310287	6.52131
0.321288	6.8008
0.331191	7.08028
0.342192	7.35977
0.352094	7.63925
0.363096	7.91874
0.373002	8.29138
0.384	8.47771
0.393906	8.85035
0.404903	9.03668
0.414806	9.31616
0.424708	9.59564
0.435709	9.87513
0.446711	10.1546
0.456609	10.3409
0.46761	10.6204
0.477513	10.8999
0.48851	11.0862
0.498412	11.3657
0.50941	11.552
