Adsorption isotherm of Methanol on Activated Charcoal
DOI: 10.1016/j.ijrefrig.2009.06.011
Adsorbate Methanol: InChIKey OKKJLVBELUTLKV-UHFFFAOYSA-N
Temperature: 293 K
Tabular data in the source: 0
pressure (bar)	uptake (mmol/g)
0.015423	6.96024
0.0175922	8.57919
0.0197614	10.1981
0.0219306	11.6553
0.0240998	13.2742
0.026269	14.8932
0.0284382	16.5121
0.0306074	17.9693
0.0338612	19.5886
0.037115	21.2079
0.0403688	22.6653
0.042538	24.2843
0.0457918	25.9036
0.0501302	27.3614
0.0533839	28.8189
0.0588069	30.2771
0.0631453	31.7349
0.0685683	33.1931
0.0750759	34.4898
0.0826681	35.6251
0.0913449	36.7606
0.100022	37.5726
0.109783	38.223
0.120629	38.5502
0.13039	38.7152
