Adsorption isotherm of Methanol on Activated Charcoal
DOI: 10.1016/j.ijrefrig.2009.06.011
Adsorbate Methanol: InChIKey OKKJLVBELUTLKV-UHFFFAOYSA-N
Temperature: 303 K
Tabular data in the source: 0
pressure (bar)	uptake (mmol/g)
0.0156298	3.07433
0.0189675	4.00595
0.0212063	4.93756
0.024544	5.86918
0.0278735	6.61447
0.0312113	7.54609
0.0345449	8.38454
0.0389815	9.31616
0.0423151	10.1546
0.0467476	10.9931
0.0511842	11.9247
0.0556167	12.7631
0.0600492	13.6016
0.0655806	14.44
0.0711079	15.1853
0.0766393	16.0238
0.0832655	16.7691
0.0909866	17.4212
0.0987117	18.1665
0.106429	18.7255
0.115248	19.3776
0.12406	19.8434
0.133971	20.3092
0.143877	20.6819
0.153784	21.0545
0.164781	21.2408
0.174683	21.5203
0.185677	21.6135
0.19667	21.7067
0.206564	21.7998
0.217557	21.893
