Adsorption isotherm of Methanol on Activated Charcoal
DOI: 10.1016/j.ijrefrig.2009.06.011
Adsorbate Methanol: InChIKey OKKJLVBELUTLKV-UHFFFAOYSA-N
Temperature: 363 K
Tabular data in the source: 0
pressure (bar)	uptake (mmol/g)
0.161844	0.696445
0.17269	0.86178
0.183536	1.02712
0.193297	1.1921
0.203059	1.19526
0.213905	1.52242
0.224751	1.68776
0.235597	1.85309
0.245358	2.01808
0.256204	2.18341
0.26705	2.51057
0.276811	2.67556
0.287657	3.00272
0.298503	3.16805
0.308265	3.49486
0.319111	3.6602
0.328872	3.98701
0.339718	4.31417
0.350564	4.64133
0.360325	4.96814
0.371171	5.13347
0.380933	5.46028
0.391779	5.78744
0.40154	6.11425
0.412386	6.44141
0.422148	6.76822
0.432993	7.09538
0.443839	7.42254
0.453601	7.74935
0.464447	7.91469
0.474208	8.40332
0.485054	8.56866
0.494816	9.05729
0.505662	9.22263
