Adsorption isotherm of Methanol on Activated Charcoal
DOI: 10.1016/j.ijrefrig.2009.06.011
Adsorbate Methanol: InChIKey OKKJLVBELUTLKV-UHFFFAOYSA-N
Temperature: 343 K
Tabular data in the source: 0
pressure (bar)	uptake (mmol/g)
0.0385837	0.279485
0.0495809	0.465808
0.0594834	0.745293
0.0693858	1.02478
0.0803912	1.39742
0.0902977	1.77007
0.100204	2.14272
0.110115	2.60852
0.120021	2.98117
0.129928	3.35382
0.139838	3.81963
0.149745	4.19227
0.159656	4.65808
0.169562	5.03073
0.179473	5.49653
0.189379	5.86918
0.19929	6.33499
0.208097	6.70764
0.218008	7.17344
0.227915	7.54609
0.237821	7.91874
0.247732	8.38454
0.257638	8.75719
0.268644	9.12984
0.27855	9.50248
0.288457	9.87513
0.298363	10.2478
0.30827	10.6204
0.319271	10.8999
0.329177	11.2726
0.339084	11.6452
0.348986	11.9247
0.359992	12.2973
0.369894	12.5768
0.380896	12.8563
0.390802	13.2289
0.400704	13.5084
0.411706	13.7879
0.421608	14.0674
0.432609	14.3469
0.442512	14.6264
0.453509	14.8127
0.463412	15.0922
0.474413	15.3717
0.484311	15.558
0.495312	15.8375
0.50631	16.0238
