Adsorption isotherm of Methanol on Activated Charcoal
DOI: 10.1016/j.ijrefrig.2009.06.011
Adsorbate Methanol: InChIKey OKKJLVBELUTLKV-UHFFFAOYSA-N
Temperature: 313 K
Tabular data in the source: 0
pressure (bar)	uptake (mmol/g)
0.0111276	0.652131
0.016659	1.49059
0.0221863	2.23588
0.0277177	3.07433
0.0321502	3.91279
0.0376816	4.75124
0.0421142	5.5897
0.0465467	6.42815
0.0520781	7.2666
0.0576095	8.10506
0.0631368	8.85035
0.0686682	9.68881
0.0741955	10.4341
0.0808258	11.2726
0.0863531	12.0178
0.0929793	12.7631
0.100704	13.5084
0.107327	14.1606
0.115052	14.9059
0.122769	15.4648
0.13049	16.117
0.139309	16.7691
0.147022	17.2349
0.156937	17.7939
0.165749	18.2597
0.175659	18.7255
0.185566	19.0981
0.195476	19.5639
0.205383	19.9366
0.215285	20.2161
0.226287	20.4956
0.237284	20.6819
0.247186	20.9614
0.258184	21.1477
0.268082	21.334
0.279075	21.4272
0.290068	21.5203
0.299962	21.6135
0.310955	21.7067
0.321948	21.7998
0.332938	21.7998
0.343927	21.7998
0.35492	21.893
