Adsorption isotherm of Methanol on Activated Charcoal
DOI: 10.1016/j.ijrefrig.2009.06.011
Adsorbate Methanol: InChIKey OKKJLVBELUTLKV-UHFFFAOYSA-N
Temperature: 303 K
Tabular data in the source: 0
pressure (bar)	uptake (mmol/g)
0.0121692	1.45713
0.0165076	2.91496
0.020846	4.37279
0.0240998	5.99209
0.0273536	7.44957
0.031692	9.06923
0.0349458	10.5267
0.0392842	11.9845
0.042538	13.6038
0.0457918	15.0613
0.0501302	16.681
0.0544685	18.1388
0.0588069	19.5966
0.0631453	21.0545
0.0674837	22.5123
0.0718221	23.9701
0.0772451	25.4283
0.0826681	26.8865
0.0880911	28.1828
0.0945987	29.4796
0.102191	30.7766
0.108698	31.9115
0.116291	33.0467
0.124967	34.1823
0.133644	35.1561
0.143406	35.9684
0.152082	36.6185
0.162928	37.2693
0.17269	37.7579
0.183536	38.0851
0.193297	38.4119
0.204143	38.5772
0.214989	38.7426
