Adsorption isotherm of Methanol on Activated Charcoal
DOI: 10.1016/j.ijrefrig.2009.06.011
Adsorbate Methanol: InChIKey OKKJLVBELUTLKV-UHFFFAOYSA-N
Temperature: 313 K
Tabular data in the source: 0
pressure (bar)	uptake (mmol/g)
0.0132538	0.486529
0.020846	1.45994
0.0284382	2.757
0.0338612	4.21518
0.0392842	5.51153
0.0447072	6.96971
0.0501302	8.4279
0.0555531	9.72425
0.0609761	11.1824
0.0674837	12.4791
0.0729067	13.9373
0.0783297	15.3955
0.0837527	16.6919
0.0902603	17.9886
0.0956833	19.4467
0.102191	20.7435
0.108698	22.0402
0.115206	23.3369
0.122798	24.4721
0.13039	25.7692
0.137983	26.9044
0.145575	28.0396
0.153167	29.013
0.161844	30.1486
0.170521	31.1224
0.179197	31.9343
0.187874	32.7462
0.197636	33.5585
0.207397	34.3708
0.217158	35.0213
0.22692	35.6717
0.237766	36.1607
0.247527	36.6494
0.258373	37.1383
0.268134	37.4652
0.27898	37.7923
0.289826	38.1195
0.299588	38.2845
0.310434	38.4498
0.32128	38.6151
0.332126	38.6186
0.342972	38.784
0.353818	38.7875
