Adsorption isotherm of Methanol on Activated Charcoal
DOI: 10.1016/j.ijrefrig.2009.06.011
Adsorbate Methanol: InChIKey OKKJLVBELUTLKV-UHFFFAOYSA-N
Temperature: 343 K
Tabular data in the source: 0
pressure (bar)	uptake (mmol/g)
0.0620607	0.502325
0.0729067	0.829486
0.0826681	1.1563
0.0935141	1.48346
0.103275	1.97209
0.114121	2.46108
0.123883	2.94971
0.133644	3.43835
0.14449	4.08916
0.154252	4.73962
0.164013	5.22825
0.174859	5.87906
0.18462	6.52952
0.194382	7.17998
0.204143	7.83044
0.213905	8.4809
0.223666	9.29319
0.233427	9.94365
0.243189	10.5941
0.254035	11.2449
0.263796	11.8954
0.273557	12.5458
0.283319	13.1963
0.29308	13.8468
0.302842	14.4972
0.312603	15.1477
0.323449	15.7985
0.33321	16.4489
0.342972	17.0994
0.352733	17.7499
0.362495	18.4003
0.373341	18.8893
0.383102	19.5398
0.392863	20.0284
0.403709	20.6792
0.413471	21.3297
0.423232	21.8183
0.434078	22.3073
0.443839	22.7959
0.453601	23.4464
0.464447	23.9354
0.474208	24.424
0.485054	24.913
0.494816	25.4016
0.505662	25.8906
