Adsorption isotherm of Methanol on Activated Charcoal
DOI: 10.1016/j.ijrefrig.2009.06.011
Adsorbate Methanol: InChIKey OKKJLVBELUTLKV-UHFFFAOYSA-N
Temperature: 293 K
Tabular data in the source: 0
pressure (bar)	uptake (mmol/g)
0.0113285	5.21705
0.0146703	6.24183
0.0169091	7.17344
0.0191479	8.10506
0.0213826	8.94351
0.0236215	9.87513
0.0258603	10.8067
0.0280991	11.7384
0.0314327	12.5768
0.0347704	13.5084
0.0381081	14.44
0.0414417	15.2785
0.0458742	16.117
0.0503067	16.9554
0.0558381	17.7939
0.0613695	18.6323
0.0679957	19.3776
0.0746178	20.0297
0.0834337	20.5887
0.0933443	21.0545
0.103251	21.4272
0.113153	21.7067
0.124146	21.7998
