Adsorption isotherm of Methanol on Activated Charcoal
DOI: 10.1016/j.ijrefrig.2009.06.011
Adsorbate Methanol: InChIKey OKKJLVBELUTLKV-UHFFFAOYSA-N
Temperature: 323 K
Tabular data in the source: 0
pressure (bar)	uptake (mmol/g)
0.0144079	0.279485
0.0232237	0.838454
0.0309447	1.49059
0.0386698	2.23588
0.0452919	2.88801
0.0519182	3.6333
0.0585444	4.3786
0.0662695	5.12389
0.0728957	5.86918
0.0795178	6.52131
0.0872429	7.2666
0.093865	7.91874
0.10159	8.66403
0.109311	9.31616
0.117036	10.0615
0.124753	10.6204
0.132474	11.2726
0.141294	11.9247
0.149011	12.4837
0.157827	13.0426
0.165544	13.6016
0.175458	14.1606
0.184274	14.7195
0.193086	15.1853
0.202997	15.6511
0.211808	16.117
0.221719	16.5828
0.231629	17.0486
0.241536	17.4212
0.251443	17.7939
0.262448	18.1665
0.27235	18.446
0.282253	18.7255
0.293254	19.005
0.303161	19.3776
0.314158	19.5639
0.32406	19.8434
0.335057	20.0297
0.344956	20.2161
0.355953	20.4024
0.365851	20.5887
0.376844	20.6819
0.386743	20.8682
0.39774	21.0545
0.408733	21.1477
0.418627	21.2408
0.428521	21.334
0.439515	21.4272
0.449409	21.5203
0.460398	21.5203
0.471391	21.6135
0.48238	21.6135
0.493373	21.7067
0.503267	21.7998
