Adsorption isotherm of Methanol on Activated Charcoal
DOI: 10.1016/j.ijrefrig.2009.06.011
Adsorbate Methanol: InChIKey OKKJLVBELUTLKV-UHFFFAOYSA-N
Temperature: 333 K
Tabular data in the source: 0
pressure (bar)	uptake (mmol/g)
0.0221002	0.279485
0.0320026	0.55897
0.0419132	1.02478
0.0518238	1.49059
0.0606397	2.04956
0.0694555	2.60852
0.0782713	3.16749
0.0859882	3.72646
0.094804	4.28543
0.10362	4.8444
0.112436	5.40337
0.120153	5.96234
0.128968	6.52131
0.137784	7.08028
0.1466	7.63925
0.155416	8.19822
0.164232	8.75719
0.174142	9.223
0.182958	9.78197
0.19177	10.2478
0.20168	10.7136
0.210496	11.2726
0.220407	11.7384
0.230313	12.111
0.239125	12.5768
0.249036	13.0426
0.258942	13.4153
0.268853	13.8811
0.278759	14.2537
0.288666	14.6264
0.299671	14.999
0.309578	15.3717
0.31948	15.6511
0.329387	16.0238
0.340388	16.3033
0.350294	16.6759
0.361296	16.9554
0.371198	17.2349
0.381096	17.4212
0.392098	17.7007
0.402	17.9802
0.412997	18.1665
0.423999	18.446
0.433897	18.6323
0.444894	18.8186
0.454793	19.005
0.46579	19.1913
0.475688	19.3776
0.486685	19.5639
0.497682	19.7503
0.507577	19.8434
