Adsorption isotherm of Nitrogen on Modulated Zr-MOF-Oven
DOI: 10.3139/146.111047
Adsorbate Nitrogen: InChIKey IJGRMHOSHXDMSA-UHFFFAOYSA-N
Temperature: 77 K
Tabular data in the source: 0
pressure (bar)	uptake (cm3(STP)/g)
0.00203499	5.52486
0.00209045	16.5746
0.00214036	26.5193
0.00220135	38.674
0.00225679	49.7238
0.00232333	62.9834
0.00238433	75.1381
0.00244533	87.2928
0.00251186	100.552
0.00256731	111.602
0.00269485	137.017
0.00276139	150.276
0.00282238	162.431
0.00287229	172.376
0.00294437	186.74
0.00308854	215.47
0.00464113	124.862
0.00502927	202.21
0.00717517	229.834
0.00733598	261.878
0.0092767	248.619
0.00939315	271.823
0.0134465	279.558
0.0154982	288.398
0.0195348	292.818
0.0236048	303.867
0.0316672	310.497
0.039724	316.022
0.0658795	328.177
0.0879817	332.597
0.152254	340.331
0.176357	343.646
0.208484	345.856
0.252655	348.066
0.306869	351.381
0.359063	352.486
0.411258	353.591
0.467473	355.801
0.51766	356.906
0.571862	358.011
0.624051	358.011
0.678259	360.221
0.730448	360.221
0.778622	360.221
0.80673	361.326
0.832824	361.326
0.850889	361.326
0.878991	361.326
0.89907	362.431
0.907099	362.431
0.929179	362.431
0.947255	364.641
0.959299	364.641
0.971348	365.746
