Adsorption isotherm of Nitrogen on Modulated Zr-MOF-MW
DOI: 10.3139/146.111047
Adsorbate Nitrogen: InChIKey IJGRMHOSHXDMSA-UHFFFAOYSA-N
Temperature: 77 K
Tabular data in the source: 0
pressure (bar)	uptake (cm3(STP)/g)
0.00203499	5.52486
0.00209045	16.5746
0.00214036	26.5193
0.00220135	38.674
0.00225679	49.7238
0.00232333	62.9834
0.00238433	75.1381
0.00244533	87.2928
0.00251186	100.552
0.00256731	111.602
0.00269485	137.017
0.00276139	150.276
0.00282238	162.431
0.00287229	172.376
0.00294437	186.74
0.00308854	215.47
0.00464113	124.862
0.00502927	202.21
0.00519007	234.254
0.0132968	249.724
0.0253626	254.144
0.0374284	258.564
0.0635452	262.983
0.0896563	266.298
0.149885	268.508
0.202086	270.718
0.256288	271.823
0.30647	271.823
0.366688	271.823
0.420884	271.823
0.473079	272.928
0.525268	272.928
0.579464	272.928
0.63366	272.928
0.685849	272.928
0.742053	272.928
0.78822	272.928
0.812313	274.033
0.828371	274.033
0.852464	275.138
0.874544	275.138
0.886594	276.243
0.902658	277.348
0.914706	278.453
0.922747	280.663
0.944832	281.768
0.968942	286.188
