Adsorption isotherm of Hydrogen on Modulated Zr-MOF-MW
DOI: 10.3139/146.111047
Adsorbate Hydrogen: InChIKey UFHFLCQGNIYNRP-UHFFFAOYSA-N
Temperature: 77 K
Tabular data in the source: 0
pressure (bar)	uptake (wt%)
0.004158	0.0899408
0.010395	0.16568
0.027027	0.288757
0.045738	0.411834
0.0602911	0.473373
0.10395	0.591716
0.122661	0.629586
0.201663	0.752663
0.243243	0.8
0.359667	0.913609
0.484407	1.01302
0.602911	1.08402
0.719335	1.1503
0.841996	1.21657
0.918919	1.25917
