Adsorption isotherm of Hydrogen on Modulated Zr-MOF-Oven
DOI: 10.3139/146.111047
Adsorbate Hydrogen: InChIKey UFHFLCQGNIYNRP-UHFFFAOYSA-N
Temperature: 77 K
Tabular data in the source: 0
pressure (bar)	uptake (wt%)
0.002079	0.0568047
0.010395	0.113609
0.024948	0.213018
0.0561331	0.359763
0.0665281	0.388166
0.0769231	0.426036
0.0893971	0.473373
0.10395	0.52071
0.118503	0.55858
0.216216	0.776331
0.239085	0.809467
0.318087	0.942012
0.359667	0.994083
0.484407	1.13609
0.60499	1.25917
0.721414	1.35858
0.844075	1.45325
0.925156	1.51006
