Adsorption isotherm of Arsenate, Water on Fe3O4/Bone Char Nanocomposite
DOI: 10.1007/s11356-017-9128-9
Article source: Figure 6
Adsorbate Arsenate: InChIKey HAYXDMNJJFVXCI-UHFFFAOYSA-N
Adsorbate Water: InChIKey XLYOFNOQVPJJNP-UHFFFAOYSA-N
Kind: experiment
Temperature: 298 K
Tabular data in the source: 0
pressure (bar)	Arsenate fraction	Arsenate uptake (mg/kg)	Water fraction	Water uptake (mg/kg)	total uptake (mg/kg)
1.01325	24.24	23.83			
1.01325	49.59	40.567			
1.01325	99.17	68.245			
1.01325	199.45	80.391			
1.01325	399.72	92.804			
1.01325	799.94	113.854			
