Adsorption isotherm of Nitrogen on Mn/CeO2-MRs
DOI: 10.1016/j.apsusc.2017.03.164
Article source: Figure 4
Adsorbate Nitrogen: InChIKey IJGRMHOSHXDMSA-UHFFFAOYSA-N
Kind: experiment
Temperature: 77 K
Tabular data in the source: 0
pressure (bar)	uptake (cm3(STP)/g)
0.021075	5.28
0.0383	5.29
0.067684	6.46
0.088962	6.7
0.114698	7.64
0.137394	5.53
0.165764	6.01
0.189677	6.83
0.205078	5.19
0.228787	5.54
0.2527	6.6
0.279854	6.72
0.304374	6.14
0.330516	6.61
0.356252	6.5
0.379353	7.09
0.409142	6.39
0.434068	6.04
0.457372	6.86
0.482905	7.1
0.507426	9.21
0.530933	8.51
0.557884	7.93
0.581594	9.1
0.61037	8.29
0.638335	8.06
0.65941	9
0.683322	9.59
0.709656	10.88
0.736405	10.88
0.760318	10.18
0.785648	11.95
0.806521	12.65
0.833473	15.24
0.860627	14.54
0.886971	14.77
0.911492	16.3
0.934391	19.47
0.962153	24.29
0.987068	30.63
1.00733	36.97
