Adsorption isotherm of Nitrogen on CeO2-MRs
DOI: 10.1016/j.apsusc.2017.03.164
Article source: Figure 4
Adsorbate Nitrogen: InChIKey IJGRMHOSHXDMSA-UHFFFAOYSA-N
Kind: experiment
Temperature: 77 K
Tabular data in the source: 0
pressure (bar)	uptake (cm3(STP)/g)
0.025736	2.23
0.050864	1.65
0.075384	2.36
0.100512	1.77
0.129693	3.3
0.151377	2.83
0.177315	1.78
0.202443	3.54
0.230003	4.13
0.254523	3.32
0.279246	3.79
0.304374	4.03
0.328894	3.44
0.355735	2.83
0.378968	3.72
0.406538	2.83
0.429518	4.02
0.455568	2.25
0.482115	3.73
0.508155	3.58
0.533435	3.59
0.558452	3.89
0.581949	3.15
0.605182	2.26
0.633522	3.89
0.659815	4.34
0.686625	4.94
0.708835	4.94
0.734622	4.2
0.758879	4.8
0.785659	5.02
0.807747	5.02
0.812398	10.42
0.836928	6.08
0.837323	11.48
0.859827	4.91
0.863059	13.83
0.884955	5.74
0.887579	14.19
0.911502	8.67
0.912302	17.12
0.935201	10.2
0.937025	16.42
0.963166	13.96
0.986673	17.37
1.00532	23.47
