Adsorption isotherm of Nitrogen on Mn/CeO2-MSs
DOI: 10.1016/j.apsusc.2017.03.164
Article source: Figure 4
Adsorbate Nitrogen: InChIKey IJGRMHOSHXDMSA-UHFFFAOYSA-N
Kind: experiment
Temperature: 77 K
Tabular data in the source: 0
pressure (bar)	uptake (cm3(STP)/g)
0.025118	10.8
0.052678	12.1
0.075982	12.57
0.101718	13.51
0.127252	12.93
0.151569	14.92
0.177913	15.63
0.202433	15.75
0.228777	17.4
0.254108	17.64
0.280452	18.58
0.304162	19.05
0.330303	19.99
0.355228	20.7
0.380741	21.32
0.404998	21.76
0.432578	22.36
0.456065	23.69
0.481335	24.88
0.508145	25.03
0.532402	26.95
0.558188	27.84
0.582952	29.18
0.610015	30.07
0.634272	31.25
0.658782	32.59
0.683292	34.07
0.707295	35.4
0.733335	37.03
0.761412	43.69
0.761929	37.03
0.783885	43.99
0.787462	38.37
0.812479	48.43
0.812985	41.48
0.837242	44.14
0.839025	52.42
0.861245	48.58
0.862512	55.38
0.886515	53.46
0.888045	63.08
0.912302	60.27
0.913315	71.21
0.937572	70.92
0.937815	83.64
0.961809	107
0.962579	86.3
0.988335	148.26
0.988862	117.8
1.00568	191.15
