Adsorption isotherm of Nitrogen on CeO2-MSs
DOI: 10.1016/j.apsusc.2017.03.164
Article source: Figure 4
Adsorbate Nitrogen: InChIKey IJGRMHOSHXDMSA-UHFFFAOYSA-N
Kind: experiment
Temperature: 77 K
Tabular data in the source: 0
pressure (bar)	uptake (cm3(STP)/g)
0.026131	20.31
0.05288	22.42
0.075374	23.37
0.101921	25.83
0.127859	26.54
0.152988	27.95
0.178926	28.89
0.202636	29.84
0.228767	31.48
0.254706	32.07
0.278618	33.37
0.30557	34.43
0.328469	35.25
0.354002	36.19
0.38217	37.02
0.407501	38.19
0.43344	39.6
0.457149	42.19
0.482683	43.13
0.507203	45.01
0.533141	45.72
0.557459	47.37
0.582587	47.25
0.582779	50.65
0.604463	52.53
0.605891	47.14
0.630604	55.24
0.631222	49.37
0.658974	50.08
0.66019	57
0.684508	52.78
0.685926	58.41
0.708217	64.05
0.710041	53.84
0.733345	64.17
0.735372	56.31
0.759082	66.87
0.761716	59.36
0.786844	69.93
0.787249	61.01
0.809125	76.15
0.809946	66.17
0.835469	81.9
0.8371	69.46
0.859786	87.78
0.859989	74.16
0.886526	94.47
0.88836	81.56
0.913082	89.31
0.913478	101.98
0.936174	98.82
0.937988	117.36
0.96189	147.29
0.964129	119.95
0.9864	165.84
0.987778	245.3
1.00614	391.78
