Adsorption isotherm of Carbon Dioxide on Fe4(mu3-O)2(BTB)8/3(DMF)2(H2O)2*(DMF)10(H2O)2
DOI: 10.1021/Cg070640e
Adsorbate Carbon Dioxide: InChIKey CURLTUGMZLYLDI-UHFFFAOYSA-N
Temperature: 308 K
Tabular data in the source: 0
pressure (bar)	uptake (cm3(STP)/g)
0.000615385	4.68103
0.0937436	13.0762
0.186872	21.4715
0.270564	28.0909
0.403487	35.8591
0.508513	41.4209
0.653949	51.0366
0.758974	56.5983
0.864	62.16
0.990359	66.6639
