Adsorption isotherm of Carbon Dioxide on IRMOF-1
DOI: 10.1021/Cg070640e
Adsorbate Carbon Dioxide: InChIKey CURLTUGMZLYLDI-UHFFFAOYSA-N
Temperature: 273 K
Tabular data in the source: 0
pressure (bar)	uptake (cm3(STP)/g)
0.028601	2.02458
0.230562	13.5202
0.399959	21.1656
0.553515	27.7862
0.672531	32.7828
0.766469	36.68
0.910344	42.3256
1.00406	45.7727
