Adsorption isotherm of Carbon Dioxide on MIL-101
DOI: 10.1021/Cg070640e
Adsorbate Carbon Dioxide: InChIKey CURLTUGMZLYLDI-UHFFFAOYSA-N
Temperature: 273 K
Tabular data in the source: 0
pressure (bar)	uptake (cm3(STP)/g)
0.0167242	2.82558
0.155117	16.0503
0.340146	30.5483
0.464452	40.0718
0.591617	49.17
0.7751	60.5165
0.917442	69.2888
1.02128	74.6112
