Adsorption isotherm of Carbon Dioxide on Fe4(mu3-O)2(BTB)8/3(DMF)2(H2O)2*(DMF)10(H2O)2
DOI: 10.1021/Cg070640e
Adsorbate Carbon Dioxide: InChIKey CURLTUGMZLYLDI-UHFFFAOYSA-N
Temperature: 298 K
Tabular data in the source: 0
pressure (bar)	uptake (cm3(STP)/g)
0.000615385	4.68103
0.0941538	16.1969
0.190154	23.1036
0.274256	32.8438
0.422359	39.4106
0.518154	44.7569
0.62359	53.4393
0.772308	64.6872
0.886154	67.3436
0.994667	76.0978
