Adsorption isotherm of Carbon Dioxide on MIL-100
DOI: 10.1021/Cg070640e
Adsorbate Carbon Dioxide: InChIKey CURLTUGMZLYLDI-UHFFFAOYSA-N
Temperature: 273 K
Tabular data in the source: 0
pressure (bar)	uptake (cm3(STP)/g)
0.0167242	2.82558
0.220453	17.9229
0.403494	28.369
0.526695	35.6415
0.649013	41.1131
0.771551	47.0349
0.90377	53.9318
1.01025	58.3787
