Adsorption isotherm of Carbon Dioxide on MOF-14
DOI: 10.1021/Cg070640e
Adsorbate Carbon Dioxide: InChIKey CURLTUGMZLYLDI-UHFFFAOYSA-N
Temperature: 273 K
Tabular data in the source: 0
pressure (bar)	uptake (cm3(STP)/g)
0.0143074	4.15136
0.155793	23.679
0.28561	38.1798
0.400898	48.079
0.535327	59.478
0.72827	71.3493
0.924292	83.2454
1.02549	89.4434
