Adsorption isotherm of Carbon Dioxide on Fe4(mu3-O)2(BTB)8/3(DMF)2(H2O)2*(DMF)10(H2O)2
DOI: 10.1021/Cg070640e
Adsorbate Carbon Dioxide: InChIKey CURLTUGMZLYLDI-UHFFFAOYSA-N
Temperature: 323 K
Tabular data in the source: 0
pressure (bar)	uptake (cm3(STP)/g)
0.000410256	3.12068
0.105846	11.8031
0.177026	16.575
0.278769	20.5046
0.405538	28.1292
0.507487	33.6191
0.65559	40.186
0.757128	42.5552
0.862359	49.6773
1.01046	56.2441
