Adsorption isotherm of Carbon Dioxide on Fe4(mu3-O)2(BTB)8/3(DMF)2(H2O)2*(DMF)10(H2O)2
DOI: 10.1021/Cg070640e
Adsorbate Carbon Dioxide: InChIKey CURLTUGMZLYLDI-UHFFFAOYSA-N
Temperature: 273 K
Tabular data in the source: 0
pressure (bar)	uptake (cm3(STP)/g)
0.000577852	4.72394
0.0972304	19.8588
0.176052	39.2265
0.259662	47.7354
0.356122	61.2956
0.455072	70.2138
0.61328	88.5606
0.709162	97.3969
0.860463	109.281
1.01828	124.479
