Adsorption isotherm of Carbon Dioxide on MOF-177
DOI: 10.1021/Cg070640e
Adsorbate Carbon Dioxide: InChIKey CURLTUGMZLYLDI-UHFFFAOYSA-N
Temperature: 273 K
Tabular data in the source: 0
pressure (bar)	uptake (cm3(STP)/g)
0.0257423	2.44994
0.212305	13.8213
0.395125	23.8172
0.57684	31.5619
0.667919	35.8845
0.768236	40.2817
0.909474	46.8029
1.02189	50.8493
