Adsorption isotherm of Carbon Dioxide on Fe4(mu3-O)2(BTB)8/3(DMF)2(H2O)2*(DMF)10(H2O)2
DOI: 10.1021/Cg070640e
Adsorbate Carbon Dioxide: InChIKey CURLTUGMZLYLDI-UHFFFAOYSA-N
Temperature: 273 K
Tabular data in the source: 0
pressure (bar)	uptake (cm3(STP)/g)
0.0110068	3.67629
0.134015	23.0548
0.264936	39.8067
0.378028	51.4818
0.535119	65.3059
0.682309	77.7047
0.895056	92.4265
1.05038	102.649
