Adsorption isotherm of Carbon Dioxide on Fe4(mu3-O)2(BTB)8/3(DMF)2(H2O)2*(DMF)10(H2O)2
DOI: 10.1021/Cg070640e
Adsorbate Carbon Dioxide: InChIKey CURLTUGMZLYLDI-UHFFFAOYSA-N
Temperature: 195 K
Tabular data in the source: 0
pressure (bar)	uptake (cm3(STP)/g)
0.000770469	6.29858
0.0293879	90.246
0.0810093	162.251
0.157176	234.911
0.224124	282.213
0.33708	305.631
0.492027	322.321
0.646203	332.713
0.80038	343.104
1.02474	352.23
