Adsorption isotherm of Nitrogen on MGr
DOI: 10.1021/La2017424
Adsorbate Nitrogen: InChIKey IJGRMHOSHXDMSA-UHFFFAOYSA-N
Temperature: 77 K
Tabular data in the source: 0
pressure (bar)	uptake (cm3(STP)/g)
0.0154701	270.442
0.0912734	284.602
0.191829	290.265
0.298572	295.929
0.409957	298.053
0.434709	298.053
0.443991	297.345
0.465649	298.053
0.623444	297.345
0.68223	297.345
0.77505	295.929
0.861683	298.761
0.889529	303.009
0.932845	302.301
0.963785	304.425
