Adsorption isotherm of Nitrogen on MGr
DOI: 10.1021/La2017424
Adsorbate Nitrogen: InChIKey IJGRMHOSHXDMSA-UHFFFAOYSA-N
Temperature: 77 K
Tabular data in the source: 0
pressure (bar)	uptake (cm3(STP)/g)
0	260.531
0.0154701	270.442
0.0340341	276.814
0.0587862	281.77
0.129949	285.31
0.156248	288.142
0.247521	293.097
0.27382	293.805
0.363546	295.221
0.391393	295.221
0.422333	297.345
0.584768	298.761
0.663666	301.593
0.785879	303.009
0.841571	304.425
0.904999	305.841
0.931298	309.381
0.959144	317.168
