Adsorption isotherm of Nitrogen on CuBTC
DOI: 10.1021/La2017424
Adsorbate Nitrogen: InChIKey IJGRMHOSHXDMSA-UHFFFAOYSA-N
Temperature: 77 K
Tabular data in the source: 0
pressure (bar)	uptake (cm3(STP)/g)
0	159.292
0.00464102	293.097
0.0232051	300.177
0.0448632	305.841
0.0603332	308.673
0.0943674	312.212
0.128402	313.628
0.156248	315.044
0.182547	316.46
0.215034	317.168
0.247521	317.876
0.276914	320
0.301666	319.292
0.315589	320
0.363546	320
0.394487	320.708
0.422333	320.708
0.484213	321.416
0.546093	322.124
0.604879	322.832
0.663666	322.832
0.753392	322.832
0.841571	325.664
0.891076	330.619
0.931298	330.619
0.965332	331.327
