Adsorption isotherm of Nitrogen on MGr
DOI: 10.1021/La2017424
Adsorbate Nitrogen: InChIKey IJGRMHOSHXDMSA-UHFFFAOYSA-N
Temperature: 77 K
Tabular data in the source: 0
pressure (bar)	uptake (cm3(STP)/g)
0	159.292
0.00773503	301.593
0.0247521	308.673
0.0649743	314.336
0.0974614	317.168
0.125308	319.292
0.156248	320.708
0.187188	322.832
0.215034	322.832
0.245974	324.248
0.27382	324.956
0.312495	325.664
0.363546	326.372
0.39294	327.08
0.417692	327.08
0.479572	328.496
0.583221	330.619
0.66676	332.035
0.745657	332.743
0.833836	333.451
0.934392	335.575
0.962238	336.991
