Adsorption isotherm of Nitrogen on MGr
DOI: 10.1021/La2017424
Adsorbate Nitrogen: InChIKey IJGRMHOSHXDMSA-UHFFFAOYSA-N
Temperature: 77 K
Tabular data in the source: 0
pressure (bar)	uptake (cm3(STP)/g)
0.00309401	254.867
0.00928204	264.779
0.0309401	271.858
0.0433162	275.398
0.0634273	277.522
0.0959144	281.062
0.125308	283.186
0.159342	284.602
0.245974	288.85
0.27382	288.85
0.315589	291.681
0.397581	293.097
0.425427	293.097
0.48576	294.513
0.546093	295.221
0.89417	307.965
0.903452	312.92
0.931298	312.92
0.960691	321.416
