Adsorption isotherm of Nitrogen on MGr
DOI: 10.1021/La2017424
Adsorbate Nitrogen: InChIKey IJGRMHOSHXDMSA-UHFFFAOYSA-N
Temperature: 77 K
Tabular data in the source: 0
pressure (bar)	uptake (cm3(STP)/g)
0.0232051	283.894
0.0634273	289.558
0.100555	293.097
0.125308	293.097
0.156248	294.513
0.184094	295.929
0.204205	295.929
0.245974	295.929
0.27382	297.345
0.314042	298.053
0.366641	298.761
0.396034	300.177
0.426974	300.177
0.478025	303.009
0.544546	300.177
0.584768	303.009
0.66676	304.425
0.963785	308.673
