Adsorption isotherm of Nitrogen on C32H18F2N2O8Zn2
DOI: 10.1021/Ja201484s
Adsorbate Nitrogen: InChIKey IJGRMHOSHXDMSA-UHFFFAOYSA-N
Temperature: 77 K
Tabular data in the source: 0
pressure (bar)	uptake (ml/g)
0.0583493	1.43739
0.0888973	0.760403
0.119453	0.781741
0.144446	0.10087
0.194454	0.834116
0.219462	1.5499
0.275018	1.5887
0.327796	1.62556
0.375026	2.35686
0.43336	2.3976
0.486138	2.43445
0.538924	3.16964
0.569472	2.49265
0.59448	3.20844
0.622258	3.22783
0.650044	3.94556
0.688941	4.67105
0.713941	4.68851
0.741719	4.7079
0.769497	4.7273
0.794505	5.44309
0.822283	5.46249
0.850061	5.48189
0.875069	6.19767
0.902847	6.21707
0.930633	6.9348
0.955641	7.65059
0.983426	8.36831
1.00565	8.38383
1.02789	10.4943
1.05017	15.3982
