Adsorption isotherm of Carbon Dioxide on C32H22N2O9Zn2
DOI: 10.1021/Ja201484s
Adsorbate Carbon Dioxide: InChIKey CURLTUGMZLYLDI-UHFFFAOYSA-N
Temperature: 195 K
Tabular data in the source: 0
pressure (bar)	uptake (ml/g)
0.00767974	25.5556
0.00783571	13.8889
0.00796197	4.44444
0.0289587	33.8889
0.0502525	41.1111
0.0689394	43.3333
0.0876114	46.6667
0.111646	48.8889
0.132999	51.6667
0.154367	53.3333
0.175735	55
0.199785	56.1111
0.223834	57.2222
0.245202	58.8889
0.269251	60
0.293293	61.6667
0.320016	62.7778
0.341377	65
0.362745	66.6667
0.397363	77.2222
0.402659	81.1111
0.41331	84.4444
0.421264	89.4444
0.431855	97.2222
0.445098	106.667
0.461089	110.556
0.487686	121.111
0.519667	128.889
0.535651	133.333
0.551649	136.667
0.56761	142.778
0.578238	147.778
0.588859	153.333
0.59945	161.111
0.610086	165.556
0.618041	170.556
0.628669	175.556
0.652592	186.111
0.673953	188.333
0.692617	192.222
0.711304	194.444
0.732665	196.667
0.756699	198.889
0.783415	200.556
0.807457	202.222
0.83418	203.333
0.860903	204.444
0.887634	205
0.954449	207.222
0.978498	208.333
1.00255	208.889
