Adsorption isotherm of Argon on C32H18F2N2O8Zn2
DOI: 10.1021/Ja201484s
Adsorbate Argon: InChIKey XKRFYHLGVUSROY-UHFFFAOYSA-N
Temperature: 77 K
Tabular data in the source: 0
pressure (bar)	uptake (ml/g)
0.027778	0.019398
0.0583338	0.0407359
0.0972307	0.766223
0.113898	0.777861
0.138898	0.79532
0.16112	0.810838
0.183343	0.826357
0.205565	0.841875
0.212952	165.652
0.216684	1.54796
0.227803	2.25405
0.237991	169.161
