Adsorption isotherm of Oxygen on C32H18F2N2O8Zn2
DOI: 10.1021/Ja201484s
Adsorbate Oxygen: InChIKey MYMOFIZGZYHOMD-UHFFFAOYSA-N
Temperature: 77 K
Tabular data in the source: 0
pressure (bar)	uptake (ml/g)
0.0111267	1.40442
0.0305713	1.418
0.0397194	74.7484
0.0420705	36.3422
0.0429007	111.063
0.0444603	1.4277
0.0488287	144.587
0.0574725	172.526
0.066062	195.577
0.0772896	206.06
0.0856928	212.35
0.105262	223.537
0.12199	229.135
0.147053	234.74
0.160973	237.543
0.180441	239.651
0.188813	243.149
0.199994	249.441
