Adsorption isotherm of Carbon Dioxide on C32H18F2N2O8Zn2
DOI: 10.1021/Ja201484s
Adsorbate Carbon Dioxide: InChIKey CURLTUGMZLYLDI-UHFFFAOYSA-N
Temperature: 195 K
Tabular data in the source: 0
pressure (bar)	uptake (ml/g)
0.0195067	5.60021
0.0417756	9.80571
0.0447241	25.1709
0.0560759	46.8269
0.0645489	59.4026
0.070283	75.4681
0.0926218	85.9585
0.112097	88.7654
0.126017	91.5684
0.14547	92.2804
0.164938	94.3889
0.181635	97.1939
0.203873	98.6061
0.215008	100.709
0.234468	102.119
0.251166	104.924
0.265078	107.029
0.284546	109.137
0.301275	114.736
0.315218	119.634
0.331908	121.74
0.354146	123.152
0.368058	125.257
0.384756	128.062
0.393152	133.654
0.396077	146.925
0.410121	160.901
0.415824	174.173
0.427091	188.147
0.435548	199.327
0.449561	210.509
0.469091	218.205
0.488567	221.012
0.50805	224.517
0.541415	227.333
0.558097	228.742
0.577557	230.152
0.613692	232.272
0.647049	234.39
0.683183	236.511
0.705414	237.224
0.744318	238.648
0.772104	239.366
0.819334	240.097
0.844342	240.813
0.869358	242.227
0.89158	242.243
0.919382	244.357
0.941612	245.071
0.969405	246.487
0.991636	247.201
