Adsorption isotherm of Carbon Dioxide on CTV-COF-1
DOI: 10.1039/c3cc47652a
Article source: Figure 4
Adsorbate Carbon Dioxide: InChIKey CURLTUGMZLYLDI-UHFFFAOYSA-N
Kind: experiment
Isotherm type: absolute
Temperature: 298 K
Tabular data in the source: 0
pressure (bar)	uptake (cm3(STP)/g)
15.3176	137.225
16.3435	143.355
17.3507	148.819
18.4139	154.396
19.3507	159.014
21.2678	166.46
22.3869	170.396
24.7279	180.6
26.5745	188.227
27.619	192.537
28.6356	196.325
29.6802	198.5
30.7154	200.861
31.7133	203.459
32.7858	204.566
33.5786	204.345
35.2573	205.624
36.0501	206.411
38.5682	210.544
40.0604	212.094
41.6459	213.053
43.1018	213.824
46.0991	208.605
45.2365	213.523
46.2438	212.906
46.9619	210.692
48.4075	207.508
48.8309	207.291
14.213	123.681
12.6389	116.061
24.0278	178.781
25.5093	184.642
11.9907	109.027
11.0648	100.234
9.9537	96.1313
9.76852	89.6835
8.56481	80.891
7.36111	73.857
7.36111	69.7538
6.43518	62.1336
5.23148	54.5135
4.9537	48.6518
3.47222	38.687
3.19444	35.7562
2.17593	25.2052
0.138889	4.10317
1.43518	17.585
0.740741	10.8441
36.8981	208.675
39.7685	210.434
41.0648	211.606
42.4537	211.606
43.4722	210.434
44.9537	209.848
47.3611	208.089
50.1389	207.503
20.3241	162.368
