Adsorption isotherm of Nitrogen on CTV-COF-2
DOI: 10.1039/c3cc47652a
Article source: Figure S15
Adsorbate Nitrogen: InChIKey IJGRMHOSHXDMSA-UHFFFAOYSA-N
Kind: experiment
Temperature: 77 K
Tabular data in the source: 0
pressure (bar)	uptake (cm3(STP)/g)
0.029074	149.207
0.066493	185.27
0.094931	208.288
0.119628	248.216
0.153305	274.45
0.186234	280.371
0.211679	286.577
0.250594	292.684
0.305974	300.445
0.373542	309.035
0.403264	313.3
0.45565	319.235
0.505044	324.156
0.554437	329.256
0.605327	333.55
0.656216	341.424
0.707106	349.834
0.757996	359.855
0.814873	371.129
0.848924	380.524
0.880065	390.057
0.916054	412.591
0.939104	426.244
0.957065	456.933
0.985504	547.328
0.995085	621.008
0.983035	568.908
0.966969	552.941
1.00211	691.597
0.997093	668.067
0.9258	459.664
0.909734	449.58
0.885635	429.412
0.85752	410.924
0.827396	399.16
0.803297	395.798
0.759116	382.353
0.702885	378.992
0.658704	372.269
0.596448	363.866
0.552267	355.462
0.500053	352.101
0.457879	347.059
0.405665	335.294
0.349434	336.975
0.305253	328.571
0.247014	321.849
0.196808	316.807
0.142585	296.639
0.078321	197.479
0.002008	98.3193
0.002008	31.0924
0.002008	66.3866
