Adsorption isotherm of Hydrogen on CTV-COF-2
DOI: 10.1039/c3cc47652a
Article source: Figure 3
Adsorbate Hydrogen: InChIKey UFHFLCQGNIYNRP-UHFFFAOYSA-N
Kind: experiment
Isotherm type: absolute
Temperature: 77 K
Tabular data in the source: 0
pressure (bar)	uptake (wt%)
1.09855	0.742754
1.01059	0.715928
0.955141	0.699162
0.886302	0.675689
0.742887	0.622036
0.672136	0.591856
0.813638	0.653892
0.603297	0.56503
0.530634	0.541557
0.45797	0.494611
0.347063	0.434251
0.283961	0.390659
0.245717	0.367186
0.211297	0.343713
0.173053	0.31018
0.138634	0.266587
0.104215	0.226347
0.098478	0.219641
0.075532	0.189461
0.060234	0.162635
0.033463	0.129102
0.029639	0.108982
0.02199	0.095569
0.016254	0.072096
0.010517	0.048623
0.00478	0.018443
0.002868	0.00503
