Adsorption isotherm of Nitrogen on CTV-COF-1
DOI: 10.1039/c3cc47652a
Article source: Figure S15
Adsorbate Nitrogen: InChIKey IJGRMHOSHXDMSA-UHFFFAOYSA-N
Kind: experiment
Isotherm type: absolute
Temperature: 77 K
Tabular data in the source: 0
pressure (bar)	uptake (cm3(STP)/g)
0.000211	46.4
0.003572	125.779
0.027577	241.572
0.066493	310.662
0.099422	327.401
0.132018	341.344
0.165279	352.681
0.196711	356.223
0.244607	366.954
0.305974	377.929
0.378567	389.448
0.404761	393.175
0.454154	403.488
0.503547	412.107
0.554437	420.16
0.605327	430.181
0.656216	439.665
0.707106	448.97
0.757996	461.139
0.814873	477.032
0.848924	488.562
0.881479	501.714
0.915655	523.67
0.942996	543.239
0.95994	557.143
0.986047	602.521
0.99408	621.008
0.998097	656.303
1.00011	684.874
0.963957	622.689
0.931825	580.672
0.915759	560.504
0.89166	543.697
0.859528	530.252
0.835429	516.807
0.813339	510.084
0.759116	493.277
0.694852	481.513
0.654687	464.706
0.606489	459.664
0.552267	444.538
0.510094	441.176
0.455871	419.328
0.389599	405.882
0.345418	400.84
0.29722	389.076
0.247014	380.672
0.198816	372.269
0.980023	651.26
0.006025	175.63
0.001004	88.2353
