Adsorption isotherm of Hydrogen on CTV-COF-1
DOI: 10.1039/c3cc47652a
Article source: Figure 3
Adsorbate Hydrogen: InChIKey UFHFLCQGNIYNRP-UHFFFAOYSA-N
Kind: experiment
Isotherm type: absolute
Temperature: 77 K
Tabular data in the source: 0
pressure (bar)	uptake (wt%)
1.09473	1.2994
1.01251	1.23904
0.955141	1.1988
0.104215	0.266587
0.090829	0.246467
0.069795	0.199521
0.052585	0.160958
0.033463	0.122395
0.000956	0.01509
0.016254	0.065389
0.140546	0.337006
0.21321	0.451018
0.245717	0.504671
0.282049	0.558323
0.456058	0.759521
0.528721	0.836647
0.348975	0.638802
0.59756	0.897006
0.672136	0.967425
0.742887	1.03114
0.817463	1.0915
0.884389	1.1418
0.17879	0.399042
