Adsorption isotherm of Carbon Dioxide on CTV-COF-2
DOI: 10.1039/c3cc47652a
Article source: Figure 4
Adsorbate Carbon Dioxide: InChIKey CURLTUGMZLYLDI-UHFFFAOYSA-N
Kind: experiment
Isotherm type: absolute
Temperature: 298 K
Tabular data in the source: 0
pressure (bar)	uptake (cm3(STP)/g)
0.563272	12.0667
2.90652	31.6856
3.6876	39.3077
7.6513	64.202
9.7031	76.5694
12.6875	93.8569
14.702	104.919
17.817	122.358
23.9731	155.631
24.3971	152.811
26.1175	163.828
26.9572	170.303
29.5061	182.401
30.4232	185.55
32.6476	192.551
33.1029	195.031
34.0888	197.872
35.2107	202.823
35.9588	207.264
36.7529	208.585
37.7971	211.295
39.2397	216.478
40.3838	220.113
41.0863	224.062
41.6833	224.763
43.6137	228.198
45.05	233.795
46.6122	238.7
47.5474	242.361
48.8738	245.421
51.0128	250.916
44.1204	230.95
42.7315	229.777
42.5463	228.019
45.787	235.053
48.1944	243.845
49.6759	248.535
46.9907	238.57
27.9167	171.747
22.2685	141.266
20.5093	130.422
18.3796	117.233
16.0648	104.338
2.17593	19.9297
3.37963	28.7222
4.76852	36.9285
5.97222	43.9625
5.32407	48.6518
7.4537	50.9965
8.56481	58.0305
9.49074	65.6506
10.6019	70.9261
11.8056	78.5463
12.9167	83.8218
14.0278	91.442
0.231481	1.7585
0.601852	4.68933
1.15741	8.20633
0.87963	6.44783
0.416667	2.93083
0.138889	11.1372
0.972222	19.3435
20.787	140.68
30.9722	186.987
