Adsorption isotherm of Toluene on [Ag4(L(S))3(NO3)4]*x(Guest)
DOI: 10.1039/B816359f
Adsorbate Toluene: InChIKey YXFVVABEGXRONW-UHFFFAOYSA-N
Temperature: 303 K
Tabular data in the source: 0
pressure (bar)	uptake (wt%)
0.00948003	4.22196
0.0211327	12.5857
0.0415248	13.2936
0.0823092	14.0277
0.121637	14.421
0.163878	14.7356
0.255643	15.1551
0.411497	15.627
0.612505	16.1252
0.717379	16.2563
