Adsorption isotherm of Cyclohexane on [Ag4(L(S))3(NO3)4]*x(Guest)
DOI: 10.1039/B816359f
Adsorbate Cyclohexane: InChIKey XDTMQSROBMDMFD-UHFFFAOYSA-N
Temperature: 303 K
Tabular data in the source: 0
pressure (bar)	uptake (wt%)
0.00656687	8.3907
0.0255024	9.88516
0.0575473	10.4882
0.152225	11.1436
0.242533	11.4845
0.305166	11.6942
0.427519	12.0089
0.562981	12.2973
0.798948	12.6905
0.890712	12.9003
