Adsorption isotherm of Ethanol on [Ag4(L(S))3(NO3)4]*x(Guest)
DOI: 10.1039/B816359f
Adsorbate Ethanol: InChIKey LFQSCWFLJHTTHZ-UHFFFAOYSA-N
Temperature: 303 K
Tabular data in the source: 0
pressure (bar)	uptake (wt%)
0.00511028	0.472721
0.0167629	3.59272
0.0196761	4.90365
0.0356985	8.67911
0.0560907	9.99003
0.0750263	10.6979
0.114354	11.432
0.191553	12.2973
0.287687	12.9265
0.380909	13.2936
0.481413	14.3685
0.670769	15.5484
