Adsorption isotherm of Methanol on [Ag4(L(S))3(NO3)4]*x(Guest)
DOI: 10.1039/B816359f
Adsorbate Methanol: InChIKey OKKJLVBELUTLKV-UHFFFAOYSA-N
Temperature: 303 K
Tabular data in the source: 0
pressure (bar)	uptake (wt%)
0.00219712	0.761124
0.0138498	2.30801
0.0284156	3.48785
0.0560907	5.92617
0.0677433	7.26331
0.0910487	8.73154
0.142029	9.78028
0.185727	10.3047
0.506175	11.9564
0.551329	12.6381
0.643093	14.9978
0.736315	15.1026
0.784382	15.5484
0.861581	15.7057
