Adsorption isotherm of Ethanol on [Cu2(bza)4(pyz)]n
DOI: 10.1002/asia.200600404
Adsorbate Ethanol: InChIKey LFQSCWFLJHTTHZ-UHFFFAOYSA-N
Temperature: 293 K
Tabular data in the source: 0
pressure (bar)	uptake (cm3(STP)/g)
0.00426903	3.68273
0.00580588	4.90983
0.00665968	5.39966
0.00819654	6.38005
0.00973339	7.36044
0.0112702	8.34082
0.0131486	9.56649
0.0146855	10.3002
0.0163931	11.0331
0.0179299	12.0135
0.0194668	12.7472
0.0211744	13.4801
0.0227112	14.2138
0.0242481	14.9475
0.0256142	15.6819
0.027151	16.1689
0.0288586	16.9018
0.0303955	17.6355
0.0312493	17.8786
0.0327861	18.6123
0.0344938	19.3453
0.0360306	20.0789
0.0380797	21.3039
0.0397873	21.7901
0.042178	23.2604
0.0437149	24.4875
0.0452517	25.9613
0.0469593	27.1876
0.0483254	28.9089
0.0495207	30.8775
0.0507161	34.5732
0.0510576	38.7658
0.0512283	42.9592
0.0515699	48.1387
0.0517406	50.6051
0.0519114	54.305
0.0525944	56.2758
0.0531067	58.7408
0.0532775	58.7401
0.0537898	60.9583
0.0544728	63.6692
0.0558389	66.1306
