Adsorption isotherm of 1-Propanol on [Rh2(bza)4(pyz)]n
DOI: 10.1002/asia.200600404
Adsorbate 1-Propanol: InChIKey BDERNNFJNOPAEC-UHFFFAOYSA-N
Temperature: 293 K
Tabular data in the source: 0
pressure (bar)	uptake (cm3(STP)/g)
0.00028133	-1.42e-14
0.00264352	1.30814
0.00427441	2.39826
0.00534264	3.48837
0.00736674	5.45058
0.00837855	6.75872
0.0103469	8.06686
0.0132712	10.0291
0.0155773	11.1192
0.0176582	12.4273
