Adsorption isotherm of 1-Propanol on [Cu2(bza)4(pyz)]n
DOI: 10.1002/asia.200600404
Adsorbate 1-Propanol: InChIKey BDERNNFJNOPAEC-UHFFFAOYSA-N
Temperature: 293 K
Tabular data in the source: 0
pressure (bar)	uptake (cm3(STP)/g)
0.00141288	0.968913
0.00243015	2.18956
0.00395605	3.40374
0.00474726	4.38055
0.00593408	5.10562
0.00661226	6.08385
0.00717741	6.5701
0.00774256	7.30306
0.00830771	7.78931
0.00960756	8.75966
0.0101727	8.9992
0.0107944	9.48473
0.0113595	9.72427
0.0119247	9.96381
0.0124333	10.2041
0.0129985	10.4436
0.0135636	10.9299
0.0139592	11.1715
0.0145244	11.4111
0.015033	11.898
0.0155982	12.1376
0.0161068	12.6246
0.0166719	12.8641
0.0180283	14.3271
0.0185935	14.5667
0.0191586	14.8062
