Adsorption isotherm of Methanol on [Rh2(bza)4(pyz)]n
DOI: 10.1002/asia.200600404
Adsorbate Methanol: InChIKey OKKJLVBELUTLKV-UHFFFAOYSA-N
Temperature: 293 K
Tabular data in the source: 0
pressure (bar)	uptake (cm3(STP)/g)
0.00412625	1.96221
0.00637683	3.05233
0.00900123	4.57849
0.0112485	6.32267
0.0134926	8.72093
0.0153628	10.6831
0.016857	12.6453
0.0183511	14.6076
0.0198453	16.5698
0.0217144	18.75
0.0232086	20.7122
0.0261959	24.8547
0.0280672	26.5988
0.0295614	28.561
0.0310523	31.1773
0.0332964	33.5756
0.0351666	35.5378
0.0366651	36.6279
0.0389124	38.3721
0.0415368	39.8983
0.0437852	41.4244
0.0464118	42.5145
0.0486613	43.8227
0.0520355	45.7849
0.0542861	46.875
0.0572887	47.9651
0.0602913	49.0552
0.0651729	50.3634
0.0678005	51.2355
0.0708031	52.3256
0.0745577	53.4157
0.0771854	54.2878
0.0809411	55.1599
0.0839448	56.032
0.0884504	57.3401
0.092581	58.4302
0.0978385	59.7384
0.103848	61.0465
0.115492	63.4448
