Adsorption isotherm of Ethanol on [Rh2(bza)4(pyz)]n
DOI: 10.1002/asia.200600404
Adsorbate Ethanol: InChIKey LFQSCWFLJHTTHZ-UHFFFAOYSA-N
Temperature: 293 K
Tabular data in the source: 0
pressure (bar)	uptake (cm3(STP)/g)
0.00663242	2.18023
0.00969186	3.92442
0.0125826	5.01453
0.0185313	8.50291
0.0241401	11.7733
0.0265188	13.5174
0.0268567	14.6076
0.0282157	15.6977
0.0295713	18.314
0.0307567	20.9302
0.0312603	23.9826
0.0321034	27.4709
0.0329464	30.9593
0.0343005	34.2297
0.0358262	36.8459
0.0376924	39.4622
0.0392196	41.4244
0.0398984	42.2965
0.0407484	42.7326
0.0422766	44.2587
0.042616	44.6948
0.0441462	45.3488
0.048394	48.4012
0.0499242	49.0552
0.0516246	49.7093
