Adsorption isotherm of Methanol on [Cu2(bza)4(pyz)]n
DOI: 10.1002/asia.200600404
Adsorbate Methanol: InChIKey OKKJLVBELUTLKV-UHFFFAOYSA-N
Temperature: 293 K
Tabular data in the source: 0
pressure (bar)	uptake (cm3(STP)/g)
0.00490231	3.19791
0.00641071	4.4286
0.0109359	7.62723
0.0128214	9.84404
0.0154611	13.293
0.0169695	15.5105
0.018855	17.7273
0.0203634	19.9448
0.0218718	22.1624
0.0230031	24.6273
0.0245115	26.8448
0.0252658	28.0769
0.0267742	30.2945
0.0282826	32.512
0.0301681	34.7288
0.0316765	36.9463
0.033562	39.1631
0.0354475	41.1332
0.0377101	43.3493
0.0399727	45.3187
0.0422353	47.0414
0.0444979	49.0108
0.0471376	50.7327
0.0497773	52.4547
0.052417	54.1766
0.0550567	55.8986
0.0576964	57.6205
0.0603361	59.3425
0.0629758	60.8177
0.0659926	62.539
0.0693865	63.5194
0.0727804	64.4997
0.0761744	65.4801
0.0795683	66.4605
0.0829622	67.4409
0.0863561	68.4213
0.08975	69.4017
0.0920126	70.3842
0.0954065	71.6113
0.0984233	72.8391
0.101817	73.8195
0.104834	75.294
0.108228	76.5211
0.111245	77.749
0.114639	79.2228
