Adsorption isotherm of 1-Butanol on [Cu2(bza)4(pyz)]n
DOI: 10.1002/asia.200600404
Adsorbate 1-Butanol: InChIKey LRHPLDYGYMQRHN-UHFFFAOYSA-N
Temperature: 293 K
Tabular data in the source: 0
pressure (bar)	uptake (cm3(STP)/g)
0.000736606	2.68298
0.00111347	4.64088
0.00137043	5.86368
0.00154173	7.33677
0.00169591	8.31716
0.00186721	9.05012
0.00202138	9.53708
0.00219269	10.0233
0.00234686	10.5103
0.00251816	10.9965
0.00267234	11.4835
0.00282651	11.7238
0.00299782	12.4567
0.00313486	13.9313
0.0032719	15.1591
0.00340894	16.6336
0.00356312	18.1074
0.00371729	19.0878
0.00388859	19.574
0.00404277	20.061
0.00421407	20.5473
0.00436825	21.2809
0.00453955	21.7672
0.00469372	22.2542
0.00489929	22.9857
0.00505346	23.2259
0.00522476	23.4655
0.00539607	23.705
0.00555024	24.192
