Adsorption isotherm of 1-Butanol on [Rh2(bza)4(pyz)]n
DOI: 10.1002/asia.200600404
Adsorbate 1-Butanol: InChIKey LRHPLDYGYMQRHN-UHFFFAOYSA-N
Temperature: 293 K
Tabular data in the source: 0
pressure (bar)	uptake (cm3(STP)/g)
0.00150146	7.19477
0.00184248	9.81105
0.00216672	11.1192
0.00240575	11.5552
0.00305437	13.5174
0.00372017	15.0436
0.00414699	15.9157
0.00481284	17.2238
0.00547884	17.8779
