Adsorption isotherm of Isobutane on CuBTC
DOI: 10.1016/j.cej.2010.07.041
Adsorbate Isobutane: InChIKey NNPPMTNAJDCUHE-UHFFFAOYSA-N
Temperature: 348 K
Tabular data in the source: 0
pressure (bar)	uptake (mmol/g)
0.0105253	0.00498294
0.0281309	0.571884
0.0527788	1.11907
0.0668633	1.58738
0.158413	1.88315
0.313342	1.98667
0.538694	2.04583
0.704187	2.07048
1.08447	2.10005
1.52109	2.13456
