Adsorption isotherm of N-propane on CuBTC
DOI: 10.1016/j.cej.2010.07.041
Adsorbate N-propane: InChIKey ATUOYWHBWRKTHZ-UHFFFAOYSA-N
Temperature: 348 K
Tabular data in the source: 0
pressure (bar)	uptake (mmol/g)
0.0320613	0.00313449
0.135032	0.55374
0.192237	0.989218
0.249443	1.28955
0.403898	1.74505
0.775736	2.08542
0.953073	2.17552
1.2391	2.26562
1.65098	2.3407
2.06858	2.40077
2.53767	2.46084
3.30995	2.54092
3.77332	2.57596
