Adsorption isotherm of Isobutane on CuBTC
DOI: 10.1016/j.cej.2010.07.041
Adsorbate Isobutane: InChIKey NNPPMTNAJDCUHE-UHFFFAOYSA-N
Temperature: 323 K
Tabular data in the source: 0
pressure (bar)	uptake (mmol/g)
0.0140464	0.00498294
0.0351732	1.00569
0.0457365	1.58245
0.0809478	1.94231
0.214751	2.05569
0.345032	2.11484
0.545737	2.16907
0.795737	2.19372
1.07391	2.21343
1.3556	2.24794
1.73588	2.26766
