Adsorption isotherm of Isobutane on CuBTC
DOI: 10.1016/j.cej.2010.07.041
Adsorbate Isobutane: InChIKey NNPPMTNAJDCUHE-UHFFFAOYSA-N
Temperature: 373 K
Tabular data in the source: 0
pressure (bar)	uptake (mmol/g)
0.0175675	5.34e-05
0.0668633	0.379631
0.102075	0.931744
0.154891	1.4247
0.299258	1.78949
0.499962	1.89301
0.661934	1.94724
0.904891	1.97188
1.22531	2.02611
1.73236	2.07048
