Adsorption isotherm of Propene on CuBTC
DOI: 10.1016/j.cej.2010.07.041
Adsorbate Propene: InChIKey QQONPFPTGQHPMA-UHFFFAOYSA-N
Temperature: 348 K
Tabular data in the source: 0
pressure (bar)	uptake (mmol/g)
0.0224742	0.0148421
0.0619108	0.778927
0.101347	1.35569
0.191488	1.87329
0.298531	2.20357
0.512615	2.47963
0.794305	2.64231
0.980221	2.6916
1.22247	2.75076
1.84783	2.84442
2.24783	2.86907
2.69853	2.93315
3.27318	2.97752
