Adsorption isotherm of N-propane on CuBTC
DOI: 10.1016/j.cej.2010.07.041
Adsorbate N-propane: InChIKey ATUOYWHBWRKTHZ-UHFFFAOYSA-N
Temperature: 373 K
Tabular data in the source: 0
pressure (bar)	uptake (mmol/g)
0.0320613	0.00313449
0.152193	0.393564
0.232281	0.628822
0.340972	0.959185
0.506869	1.35462
1.15901	1.91524
1.68531	2.10544
2.27453	2.22057
2.92667	2.30566
3.68751	2.40077
