Adsorption isotherm of Propene on CuBTC
DOI: 10.1016/j.cej.2010.07.041
Adsorbate Propene: InChIKey QQONPFPTGQHPMA-UHFFFAOYSA-N
Temperature: 373 K
Tabular data in the source: 0
pressure (bar)	uptake (mmol/g)
0.0337418	0.00991251
0.118249	0.576814
0.163319	0.912025
0.242193	1.37541
0.343601	1.67118
0.478812	1.93245
0.687263	2.18386
0.856277	2.30217
1.1098	2.42541
1.45346	2.53386
