Adsorption isotherm of Propene on CuBTC
DOI: 10.1016/j.cej.2010.07.041
Adsorbate Propene: InChIKey QQONPFPTGQHPMA-UHFFFAOYSA-N
Temperature: 323 K
Tabular data in the source: 0
pressure (bar)	uptake (mmol/g)
0.0337418	0.00498294
0.0337418	0.847941
0.0788123	1.89794
0.140784	2.37118
0.49008	2.77541
0.901347	2.88879
1.29008	2.94301
1.80839	3.0071
2.31543	3.07611
