Adsorption isotherm of N-propane on CuBTC
DOI: 10.1016/j.cej.2010.07.041
Adsorbate N-propane: InChIKey ATUOYWHBWRKTHZ-UHFFFAOYSA-N
Temperature: 323 K
Tabular data in the source: 0
pressure (bar)	uptake (mmol/g)
0.0320613	0.00313449
0.0721053	0.6088
0.0835464	1.04928
0.129311	1.61491
0.255164	2.05038
0.466825	2.26562
0.787177	2.42079
1.0446	2.47585
1.57662	2.56595
2.03426	2.63102
2.58916	2.66106
