Adsorption isotherm of Nitrogen on 35 wt% HPWs@UiO-66
DOI: 10.1016/j.micromeso.2015.02.035
Article source: Figure 2
Adsorbate Nitrogen: InChIKey IJGRMHOSHXDMSA-UHFFFAOYSA-N
Kind: experiment
Temperature: 77 K
Tabular data in the source: 0
pressure (bar)	uptake (cm3(STP)/g)
0.002229	16.327
0.002553	31.095
0.002867	35.584
0.00303	44.416
0.003425	75.362
0.004783	88.683
0.004935	113.506
0.006617	154.441
0.00685	158.442
0.013385	166.976
0.027398	180.445
0.032505	187.199
0.047795	200.965
0.079895	213.766
0.101801	219.963
0.113271	218.85
0.126261	222.56
0.141237	221.336
0.151906	221.867
0.153264	221.818
0.175809	225.714
0.181858	223.154
0.202407	227.05
0.20647	224.341
0.252036	228.711
0.254843	226.186
0.300915	229.693
0.30433	226.794
0.351496	230.955
0.354303	227.636
0.401318	231.612
0.406374	228.431
0.454554	232.613
0.457594	228.667
0.502349	233.614
0.507162	228.961
0.55521	230.16
0.55673	230.139
0.607727	230.417
0.608528	230.394
0.654691	234.508
0.659109	230.861
0.70733	235.676
0.709478	231.789
0.750575	235.853
0.758418	232.672
0.809242	237.149
0.810255	237.108
0.85953	239.744
0.859732	239.752
0.899482	242.269
0.910517	239.183
0.926779	244.513
0.941026	243.391
0.95207	250.497
0.963104	248.253
0.974554	260.782
0.98418	258.023
0.993522	278.407
0.99793	275.789
1.00295	286.728
