Adsorption isotherm of Nitrogen on UiO-66
DOI: 10.1016/j.micromeso.2015.02.035
Article source: Figure 2
Adsorbate Nitrogen: InChIKey IJGRMHOSHXDMSA-UHFFFAOYSA-N
Kind: experiment
Temperature: 77 K
Tabular data in the source: 0
pressure (bar)	uptake (cm3(STP)/g)
0.002229	56.159
0.003212	27.815
0.004083	139.114
0.004448	80.942
0.004752	93.407
0.005016	173.691
0.005036	111.205
0.005066	108.989
0.00534	164.194
0.005684	128.133
0.00692	185.711
0.011369	197.583
0.015503	209.901
0.021552	217.914
0.025686	226.967
0.031735	235.871
0.046376	251.898
0.077585	268.519
0.100839	276.236
0.111984	274.604
0.124093	279.501
0.138744	278.017
0.150204	278.956
0.151481	278.908
0.174421	283.212
0.179518	280.986
0.200684	282.286
0.204099	282.273
0.250496	286.867
0.252269	283.746
0.299689	288.592
0.302323	285.105
0.349946	289.706
0.352652	286.181
0.399565	290.597
0.404581	286.701
0.452365	291.859
0.455233	287.332
0.500809	292.941
0.505632	288.126
0.553893	293.315
0.555707	288.08
0.60567	293.596
0.605772	289.389
0.65386	294.458
0.657366	289.82
0.703955	295.163
0.706428	290.637
0.750139	296.277
0.757789	291.541
0.807256	297.571
0.808462	293.318
0.857128	300.189
0.858334	295.983
0.896361	303.327
0.90847	300.062
0.923679	307.111
0.939688	305.108
0.94979	314.049
0.960946	311.452
0.972477	326.812
0.980289	323.918
0.990381	348.07
0.99564	346.067
1.00097	359.126
