Adsorption isotherm of Nitrogen on 40 wt% HPWs@UiO-66
DOI: 10.1016/j.micromeso.2015.02.035
Article source: Figure 2
Adsorbate Nitrogen: InChIKey IJGRMHOSHXDMSA-UHFFFAOYSA-N
Kind: experiment
Temperature: 77 K
Tabular data in the source: 0
pressure (bar)	uptake (cm3(STP)/g)
0.002158	28.603
0.00233	40.734
0.00233	41.711
0.002341	79.911
0.002989	93.044
0.00538	107.216
0.0061	120.571
0.007863	133.296
0.010892	136.598
0.014723	149.582
0.018228	156.186
0.023163	162.529
0.02827	169.652
0.032333	176.107
0.047714	188.275
0.079419	200.835
0.101001	206.35
0.112744	205.461
0.125896	208.826
0.140051	207.704
0.152089	208.813
0.153295	208.825
0.175748	212.236
0.181797	210.27
0.202832	213.088
0.205619	211.604
0.252299	214.422
0.253414	214.409
0.301138	215.979
0.303924	213.641
0.350372	216.682
0.355144	213.936
0.402118	217.436
0.407549	214.962
0.454473	218.376
0.456874	214.901
0.502927	218.976
0.508581	215.155
0.556386	215.562
0.557014	215.561
0.607879	215.781
0.608578	215.773
0.654752	220.072
0.659666	216.659
0.706742	220.631
0.70965	216.891
0.751112	221.704
0.760444	218.291
0.809698	222.25
0.811593	218.598
0.859651	224.25
0.860158	224.273
0.897962	226.428
0.911114	224.248
0.927185	230.019
0.940691	228.346
0.951847	234.69
0.962121	232.612
0.97503	244.26
0.982994	242.22
0.992245	260.695
0.998852	258.617
1.00324	269.004
