Adsorption isotherm of Nitrogen on 30 wt% HPWs@UiO-66
DOI: 10.1016/j.micromeso.2015.02.035
Article source: Figure 2
Adsorbate Nitrogen: InChIKey IJGRMHOSHXDMSA-UHFFFAOYSA-N
Kind: experiment
Temperature: 77 K
Tabular data in the source: 0
pressure (bar)	uptake (cm3(STP)/g)
0.000912	18.157
0.00379	50.203
0.003962	87.961
0.0046	69.119
0.004924	100.942
0.005563	116.149
0.006687	128.166
0.007488	138.18
0.007974	157.245
0.010842	166.888
0.014824	177.569
0.020245	187.286
0.023599	194.259
0.028543	203.605
0.031249	210.504
0.04814	226.896
0.080016	240.394
0.101214	247.513
0.112846	246.325
0.126069	250.033
0.140568	248.696
0.151876	250.362
0.153477	250.327
0.175465	254.405
0.182152	251.66
0.202711	253.223
0.206855	253.067
0.252259	257.143
0.254974	254.323
0.301178	258.547
0.304846	255.431
0.351375	259.804
0.355671	256.465
0.401328	260.517
0.408411	256.807
0.454058	261.277
0.457857	257.156
0.501863	262.745
0.507811	257.975
0.556122	262.975
0.557885	258.088
0.60797	263.441
0.608598	263.442
0.655269	264.438
0.659565	259.433
0.706489	264.727
0.70965	264.03
0.751507	265.606
0.759856	261.838
0.809212	266.756
0.811218	266.528
0.859398	268.948
0.861404	268.949
0.899097	271.951
0.910354	268.889
0.926536	275.481
0.942221	273.831
0.952344	281.897
0.963347	279.187
0.974605	292.846
0.98345	289.901
0.993208	312.301
0.999034	310.618
1.00306	322.581
