Adsorption isotherm of Nitrogen on 25 wt% HPWs@UiO-66
DOI: 10.1016/j.micromeso.2015.02.035
Article source: Figure 2
Adsorbate Nitrogen: InChIKey IJGRMHOSHXDMSA-UHFFFAOYSA-N
Kind: experiment
Temperature: 77 K
Tabular data in the source: 0
pressure (bar)	uptake (cm3(STP)/g)
0.001307	16.276
0.003506	35.989
0.004144	61.738
0.004458	111.007
0.00462	114.423
0.007012	138.54
0.00765	162.953
0.011156	176.68
0.013385	187.737
0.017205	197.902
0.021197	206.213
0.025493	212.372
0.032029	222.537
0.047957	238.342
0.079672	253.922
0.101497	261.415
0.112339	260.376
0.126839	263.714
0.140224	262.748
0.151369	263.847
0.153761	263.564
0.176235	268.385
0.181645	266.307
0.203319	269.459
0.207544	267.604
0.252553	271.162
0.253596	271.188
0.301715	272.717
0.304664	270.231
0.351233	273.961
0.354648	271.436
0.402118	274.705
0.406536	272.04
0.454818	276.057
0.457432	272.784
0.503008	277.175
0.507314	272.968
0.556203	273.808
0.557713	273.759
0.607646	274.742
0.60868	274.735
0.65537	278.516
0.659433	274.769
0.706762	279.127
0.708657	275.711
0.752166	280.125
0.758489	277.297
0.809708	281.652
0.810337	281.68
0.859915	280.706
0.86029	280.752
0.899503	286.916
0.91004	284.111
0.926597	290.373
0.941259	289.344
0.952901	297.29
0.961635	295.279
0.97501	309.028
0.98266	307.098
0.993735	329.359
0.998193	327.874
1.00242	340.786
1.00265	341.637
