Adsorption isotherm of 2-Propenoic acid, methyl ester on Activated carbon: Granular (Shanghai Active Carbon Factory)
DOI: 10.1007/s10450-006-0146-z
Article source: Figure 2
Adsorbate 2-Propenoic acid, methyl ester: InChIKey BAPJBEWLBFYGME-UHFFFAOYSA-N
Kind: experiment
Temperature: 313 K
Tabular data in the source: 0
pressure (bar)	uptake (g/g)
0.0149	0.178
0.0238	0.231
0.0471	0.263
0.0755	0.283
0.108	0.294
0.156	0.305
