Adsorption isotherm of 2-Propenoic acid, methyl ester, 2-Propenenitrile on Activated carbon: Granular (Shanghai Active Carbon Factory)
DOI: 10.1007/s10450-006-0146-z
Article source: Figure 3
Adsorbate 2-Propenoic acid, methyl ester: InChIKey BAPJBEWLBFYGME-UHFFFAOYSA-N
Adsorbate 2-Propenenitrile: InChIKey NLHHRLWOUZZQLW-UHFFFAOYSA-N
Kind: experiment
Temperature: 313 K
Tabular data in the source: 0
pressure (bar)	2-Propenoic acid, methyl ester fraction	2-Propenoic acid, methyl ester uptake (g/g)	2-Propenenitrile fraction	2-Propenenitrile uptake (g/g)	total uptake (g/g)
1.01325	1	0.293	0	0	
1.01325	0.88	0.29	0.12	0.00866	
1.01325	0.72	0.268	0.28	0.0241	
1.01325	0.591	0.242	0.409	0.0322	
1.01325	0.441	0.219	0.559	0.0526	
1.01325	0.279	0.161	0.721	0.0965	
1.01325	0	0	1	0.17	
