Adsorption isotherm of 2-Propenenitrile on Activated carbon: Granular (Shanghai Active Carbon Factory)
DOI: 10.1007/s10450-006-0146-z
Article source: Figure 2
Adsorbate 2-Propenenitrile: InChIKey NLHHRLWOUZZQLW-UHFFFAOYSA-N
Kind: experiment
Temperature: 313 K
Tabular data in the source: 0
pressure (bar)	uptake (g/g)
0.0148	0.0668
0.033	0.117
0.0531	0.148
0.0731	0.163
0.125	0.179
0.18	0.185
