Adsorption isotherm of Cyclohexane on Ni(bodc)(ted)0.5
DOI: 10.1039/B814498b
Adsorbate Cyclohexane: InChIKey XDTMQSROBMDMFD-UHFFFAOYSA-N
Temperature: 343 K
Tabular data in the source: 0
pressure (bar)	uptake (mmol/g)
0.00824077	1.32352
0.0104443	1.40607
0.0124053	1.45186
0.0146118	1.49763
0.0168199	1.525
0.0192743	1.54315
0.0214824	1.57053
0.0239369	1.58868
0.0261457	1.60685
0.0286009	1.61581
0.0310561	1.62476
0.0332649	1.64294
0.0371929	1.66095
0.0396481	1.6699
0.041857	1.68808
0.0443122	1.69703
0.0465218	1.70601
0.048977	1.71497
0.0514322	1.72392
0.0538874	1.73288
0.0560962	1.75105
0.0585507	1.7692
0.0607595	1.78738
0.0632139	1.80553
0.0654213	1.8421
0.0676286	1.87867
0.0698351	1.92444
0.0720425	1.961
0.0742498	1.99757
0.0764563	2.04334
0.0786644	2.07071
0.0811181	2.09806
0.0833262	2.12543
0.0857799	2.15278
0.0879887	2.17096
0.0904431	2.18911
0.0926512	2.21648
