Adsorption isotherm of 1-Propanol on Ni(bodc)(ted)0.5
DOI: 10.1039/B814498b
Adsorbate 1-Propanol: InChIKey BDERNNFJNOPAEC-UHFFFAOYSA-N
Temperature: 308 K
Tabular data in the source: 0
pressure (bar)	uptake (mmol/g)
0.000216189	0.155285
0.000432624	0.282366
0.000649181	0.395346
0.000865616	0.522427
0.00108205	0.649508
0.00121172	0.74832
0.00147178	0.861333
0.00168834	0.974312
0.00190477	1.10139
0.00212121	1.22847
0.00233777	1.34145
0.0025542	1.46854
0.00277064	1.59562
0.00320375	1.82158
0.00346382	1.93459
0.00368037	2.04757
0.00394032	2.17468
0.00420038	2.28769
0.00446045	2.40071
0.00467701	2.51369
0.00493707	2.6267
0.00511012	2.73964
0.00541406	2.81038
0.00571764	2.92343
0.00602134	3.02237
0.00628152	3.12128
0.00658522	3.22023
0.00688879	3.33327
0.00706234	3.38981
0.00740966	3.47468
0.00775699	3.55956
0.00810432	3.64443
0.00845165	3.72931
0.00879861	3.85649
0.00914655	3.87085
0.00953763	3.92756
0.00992859	3.99836
0.0103197	4.05506
0.0106235	4.13991
0.0109716	4.14017
0.0114063	4.1828
0.0117975	4.2254
0.0121887	4.26801
0.0125361	4.33878
0.0129277	4.33907
0.0133625	4.36761
0.0137537	4.41021
0.0141886	4.43874
0.0145364	4.46721
0.0149712	4.49574
0.0153626	4.52424
0.0157974	4.55277
