Adsorption isotherm of Methanol on Ni(bodc)(ted)0.5
DOI: 10.1039/B814498b
Adsorbate Methanol: InChIKey OKKJLVBELUTLKV-UHFFFAOYSA-N
Temperature: 308 K
Tabular data in the source: 0
pressure (bar)	uptake (mmol/g)
0.00555679	0.338898
0.010812	0.442478
0.0173046	0.545816
0.0200877	0.571423
0.0231794	0.623123
0.0268905	0.648548
0.029983	0.674094
0.0327653	0.725854
0.0358578	0.7514
0.0389502	0.776947
0.0420419	0.828646
0.044825	0.854253
0.0479158	0.932105
0.0510057	1.03611
0.0537871	1.11402
0.0568778	1.19188
0.0596584	1.29594
0.0627474	1.4261
0.0655271	1.55632
0.0679975	1.6866
0.0707771	1.81682
0.0744814	2.05147
0.0766407	2.23412
0.0791093	2.4167
0.0812686	2.59935
0.0834279	2.782
0.0862033	3.04298
0.0883626	3.22563
0.0902117	3.43449
0.092371	3.61713
0.0945294	3.82593
0.0963785	4.03479
0.0976124	4.13916
0.0997717	4.32181
0.101621	4.53067
0.103779	4.73947
0.105938	4.92212
0.107788	5.13098
0.109331	5.23529
0.11149	5.41793
0.113649	5.60058
0.116118	5.78317
0.118278	5.93966
0.12106	6.01757
