Adsorption isotherm of Cyclohexane on Ni(bodc)(ted)0.5
DOI: 10.1039/B814498b
Adsorbate Cyclohexane: InChIKey XDTMQSROBMDMFD-UHFFFAOYSA-N
Temperature: 338 K
Tabular data in the source: 0
pressure (bar)	uptake (mmol/g)
0.00676415	1.36045
0.00921174	1.46138
0.0128881	1.55298
0.0173027	1.62612
0.0217212	1.65327
0.0231932	1.67152
0.0254028	1.6805
0.0271197	1.70792
0.0293293	1.7169
0.0317845	1.72586
0.0342389	1.74401
0.0364478	1.76218
0.0386559	1.78956
0.0411103	1.80771
0.0433176	1.84428
0.0467514	1.89912
0.048958	1.94489
0.0509189	1.99068
0.0528791	2.04566
0.0550857	2.09143
0.0568026	2.11885
0.0590099	2.15542
0.0614644	2.17357
0.0636717	2.21014
0.0663709	2.23747
0.0688254	2.25562
0.0710335	2.28299
0.0734879	2.30114
0.0754504	2.32854
0.0776592	2.34671
0.0801137	2.36487
0.0823233	2.37385
0.0847777	2.392
0.0869865	2.41017
0.089441	2.42832
0.0916506	2.4373
