Adsorption isotherm of N-Hexane on Ni(bodc)(ted)0.5
DOI: 10.1039/B814498b
Adsorbate N-Hexane: InChIKey VLKZOEOYAKHREP-UHFFFAOYSA-N
Temperature: 313 K
Tabular data in the source: 0
pressure (bar)	uptake (mmol/g)
0.00259238	1.43346
0.00296272	1.61874
0.0037034	1.72601
0.00444408	1.82352
0.00481442	1.92104
0.0055551	2.01855
0.00666612	2.10632
0.00777714	2.20383
0.0092585	2.29159
0.0107399	2.37936
0.0133322	2.44762
0.0159246	2.51588
0.0188873	2.56463
0.0222204	2.61339
0.0255535	2.64265
0.0292569	2.6719
0.0322196	2.6914
0.035923	2.72066
0.039256	2.74016
0.0429594	2.74991
0.0466628	2.75966
0.0499959	2.76942
0.0536993	2.77917
0.0574027	2.79867
0.0611061	2.79867
0.0644391	2.80842
0.0681425	2.81817
0.0718459	2.82792
0.0755493	2.83768
0.0792527	2.83768
0.0825858	2.84743
0.0862892	2.84743
0.0899926	2.85718
0.093696	2.86693
0.0970291	2.86693
0.100732	2.87668
0.104436	2.88643
0.107769	2.88643
0.111472	2.88643
0.115176	2.89618
0.118879	2.89618
0.122583	2.90594
0.126286	2.90594
0.129989	2.91569
0.133693	2.91569
0.137026	2.91569
0.140729	2.92544
0.144433	2.92544
0.148136	2.93519
