Adsorption isotherm of Ethanol on Ni(bodc)(ted)0.5
DOI: 10.1039/B814498b
Adsorbate Ethanol: InChIKey LFQSCWFLJHTTHZ-UHFFFAOYSA-N
Temperature: 303 K
Tabular data in the source: 0
pressure (bar)	uptake (mmol/g)
0.00097156	0.145928
0.00319355	0.419544
0.00374739	0.565473
0.00457971	0.711401
0.0052724	0.875571
0.00610472	1.0215
0.00651971	1.14919
0.00707316	1.31336
0.00776585	1.47753
0.00818006	1.64169
0.00873312	1.82411
0.00914733	1.98827
0.00970078	2.15244
0.0101146	2.33485
0.0106681	2.49902
0.0110819	2.68143
0.0116353	2.8456
0.0127414	3.21043
0.0132949	3.37459
0.0138483	3.53876
0.014541	3.70293
0.0150945	3.8671
0.0157872	4.03127
0.0163406	4.19544
0.0170333	4.35961
0.0177264	4.50554
0.0184195	4.65147
0.0193914	4.77916
0.0203634	4.90684
0.0213353	5.03453
0.0224469	5.14398
0.0235585	5.25342
0.0245316	5.32639
0.0257832	5.39935
0.0270348	5.47232
0.0282864	5.54528
0.029678	5.58176
0.0307908	5.63649
0.0321824	5.67297
0.0334348	5.70945
0.0348264	5.74593
0.0360792	5.76417
