Adsorption isotherm of Hydrogen on Ni(bodc)(ted)0.5
DOI: 10.1039/B814498b
Adsorbate Hydrogen: InChIKey UFHFLCQGNIYNRP-UHFFFAOYSA-N
Temperature: 77 K
Tabular data in the source: 0
pressure (bar)	uptake (wt%)
0.0980641	0.745752
0.350229	0.949115
0.355759	0.821996
0.604237	1.11011
0.72737	1.27958
0.731057	1.19484
0.849397	1.47449
0.85419	1.36432
1.49456	1.64391
1.88239	1.72861
2.14008	1.80486
2.65842	1.88955
3.17713	1.96577
3.69584	2.04198
4.34542	2.10971
4.73509	2.15204
5.64606	2.21127
6.6879	2.262
7.86098	2.29578
9.03406	2.32955
10.2068	2.3718
11.3802	2.3971
12.6842	2.42239
13.597	2.43924
14.7704	2.46454
16.0748	2.48135
17.1181	2.49819
20.7704	2.54017
22.0747	2.55698
23.2489	2.56533
25.3359	2.59054
26.5101	2.59889
30.5543	2.63236
31.859	2.64069
33.1637	2.64903
34.3379	2.65738
41.7757	2.68202
43.0804	2.69035
45.0376	2.69862
46.3426	2.69848
47.5168	2.70683
49.4748	2.69815
50.7795	2.70649
51.9537	2.71484
53.2587	2.7147
55.0855	2.72298
56.3909	2.71437
57.5654	2.71424
58.8709	2.70563
60.0451	2.71398
61.8729	2.69684
63.178	2.6967
64.4834	2.68808
65.7888	2.67947
66.9637	2.67087
68.3997	2.66225
69.7051	2.65363
71.0105	2.64502
72.055	2.63643
