Adsorption isotherm of Ethanol on Ni(bodc)(ted)0.5
DOI: 10.1039/B814498b
Adsorbate Ethanol: InChIKey LFQSCWFLJHTTHZ-UHFFFAOYSA-N
Temperature: 308 K
Tabular data in the source: 0
pressure (bar)	uptake (mmol/g)
0.0022255	0.109446
0.00403367	0.200652
0.00653609	0.383062
0.00862118	0.547232
0.00973276	0.656678
0.0108443	0.766124
0.0116771	0.893812
0.0125094	1.03974
0.0132021	1.20391
0.0138948	1.36808
0.0144482	1.53225
0.0151409	1.69642
0.0156943	1.86059
0.0162478	2.02476
0.0168012	2.18893
0.0173547	2.3531
0.0180474	2.51727
0.0187385	2.7544
0.019292	2.91857
0.0198454	3.08274
0.0205381	3.24691
0.0210916	3.41108
0.021645	3.57525
0.0221985	3.73942
0.0227515	3.92183
0.0234446	4.06775
0.0241373	4.23192
0.0246915	4.35961
0.0255238	4.50554
0.0263562	4.65147
0.0273281	4.77916
0.0282997	4.92508
0.029272	5.03453
0.0303844	5.10749
0.0314959	5.21694
0.0327475	5.28991
0.0339988	5.38111
0.0352504	5.45407
0.0363631	5.5088
0.0376151	5.56352
0.0390063	5.61824
0.0402587	5.65473
0.0416499	5.70945
0.0422065	5.72769
0.0435981	5.76417
0.0448505	5.80065
0.0462421	5.83714
0.0473557	5.85538
0.0487473	5.89186
0.0500001	5.9101
0.0513921	5.92834
0.0527841	5.94658
