Adsorption isotherm of Cyclohexane on Ni(bodc)(ted)0.5
DOI: 10.1039/B814498b
Adsorbate Cyclohexane: InChIKey XDTMQSROBMDMFD-UHFFFAOYSA-N
Temperature: 328 K
Tabular data in the source: 0
pressure (bar)	uptake (mmol/g)
0.00407096	1.25955
0.00553845	1.33298
0.00749486	1.43395
0.00945278	1.51653
0.0106777	1.5532
0.0126379	1.60819
0.0145981	1.66317
0.0168039	1.71814
0.0187641	1.77312
0.0207236	1.83731
0.0224374	1.90152
0.0241513	1.96572
0.0261092	2.0483
0.0278253	2.08492
0.0300311	2.13988
0.0319921	2.18567
0.0341987	2.23144
0.0361589	2.28643
0.0383677	2.3046
0.040575	2.34117
0.0430287	2.36852
0.0452368	2.39589
0.0474456	2.41407
0.0496537	2.44144
0.0521081	2.45959
0.0543162	2.48697
0.0565251	2.50514
0.0589795	2.52329
0.0611891	2.53227
0.0636443	2.54123
0.0660987	2.55938
0.0685539	2.56833
0.0707635	2.57731
0.073218	2.59546
0.0754268	2.61364
0.077882	2.6226
0.0803372	2.63155
0.0827924	2.64051
0.085002	2.64948
0.0874572	2.65844
0.0899124	2.66739
0.0923676	2.67635
0.0945772	2.68533
