Adsorption isotherm of Argon on Ni(bodc)(ted)0.5
DOI: 10.1039/B814498b
Adsorbate Argon: InChIKey XKRFYHLGVUSROY-UHFFFAOYSA-N
Temperature: 87 K
Tabular data in the source: 0
pressure (bar)	uptake (cm3(STP)/g)
1.53e-07	0.253751
5.55e-07	2.82053
9.86e-07	7.31239
2.84e-06	13.0876
5.28e-06	20.1463
7.26e-06	24.8296
1.12e-05	32.5916
1.65e-05	40.7011
1.87e-05	47.1887
4.58e-05	119.016
0.00011	159.447
0.00019	175.782
0.000356	189.337
0.000579	200.111
0.000986	208.799
0.00169083	217.836
0.00303622	226.872
0.00483366	236.603
0.00958919	247.609
0.0148287	252.938
0.0275271	257.92
0.0552937	269.505
0.10393	279.931
0.304604	291.864
0.491008	299.278
0.651174	305.766
0.8817	316.192
0.950115	328.241
0.97408	363.112
