Adsorption isotherm of N-Hexane on Ni(bodc)(ted)0.5
DOI: 10.1039/B814498b
Adsorbate N-Hexane: InChIKey VLKZOEOYAKHREP-UHFFFAOYSA-N
Temperature: 363 K
Tabular data in the source: 0
pressure (bar)	uptake (mmol/g)
0.00296272	0.750863
0.00518476	0.965395
0.00666612	1.05316
0.00814748	1.14092
0.00999918	1.22868
0.0125916	1.29694
0.0148136	1.37496
0.0177763	1.42371
0.0211094	1.46272
0.0244424	1.51148
0.0277755	1.54073
0.0311086	1.57974
0.0344416	1.59924
0.038145	1.61874
0.0414781	1.648
0.0451815	1.6675
0.0485145	1.67725
0.0522179	1.69675
0.055551	1.72601
0.0592544	1.73576
0.0625874	1.74551
0.0662908	1.76501
0.0699942	1.77477
0.0733273	1.79427
0.0770307	1.81377
0.0807341	1.82352
0.0840672	1.83327
0.0877706	1.84303
0.0911036	1.86253
0.094807	1.87228
0.0985104	1.88203
0.101843	1.90154
0.105547	1.91129
0.10925	1.92104
0.112583	1.93079
0.116287	1.94054
0.11999	1.96004
0.123694	1.9698
0.127027	1.97955
0.13073	1.9893
0.134433	1.99905
0.138137	2.0088
0.14147	2.01855
0.145173	2.0283
0.148877	2.04781
