Adsorption isotherm of P-Xylene on Ni(bodc)(ted)0.5
DOI: 10.1039/B814498b
Adsorbate P-Xylene: InChIKey URLKBWYHVLBVBO-UHFFFAOYSA-N
Temperature: 393 K
Tabular data in the source: 0
pressure (bar)	uptake (mmol/g)
0.000361382	0.152883
0.00050192	0.206855
0.000662534	0.269819
0.000823148	0.323813
0.000983762	0.377806
0.00114438	0.422829
0.00124476	0.449847
0.00140537	0.494869
0.00158607	0.539913
0.00176676	0.584957
0.00194745	0.62103
0.00210806	0.657082
0.00228875	0.693155
0.00246944	0.729228
0.00265013	0.765301
0.0028509	0.792424
0.00295129	0.810471
0.00313198	0.837574
0.00333275	0.864697
0.00351344	0.90077
0.00369413	0.927872
0.00381459	0.93697
0.00399528	0.964072
0.00419605	0.982225
0.00437674	1.00036
0.00463774	1.03651
0.0048385	1.05467
0.0050192	1.0728
0.00521996	1.09095
0.00540065	1.10908
0.00558134	1.12721
0.00578211	1.1364
0.00598288	1.15455
0.00616357	1.17268
0.00634426	1.19081
0.00654503	1.19999
0.00672572	1.21812
0.00692649	1.22731
0.00712726	1.24546
0.00730795	1.25462
0.00750872	1.2638
0.00768941	1.28193
0.00789017	1.29111
