Adsorption isotherm of Ethanol on Ni(bodc)(ted)0.5
DOI: 10.1039/B814498b
Adsorbate Ethanol: InChIKey LFQSCWFLJHTTHZ-UHFFFAOYSA-N
Temperature: 303 K
Tabular data in the source: 0
pressure (bar)	uptake (mmol/g)
0.00615764	0.0772944
0.0123153	0.135265
0.020936	0.27053
0.0320197	0.48309
0.0406404	0.618354
0.0480296	0.792268
0.0541872	0.946857
0.0615764	1.10144
0.067734	1.27536
0.0726601	1.44927
0.0775862	1.62318
0.0825123	1.7971
0.0874384	1.97101
0.0923645	2.14492
0.0972906	2.33815
0.102217	2.51207
0.107143	2.68598
0.1133	2.8599
0.116995	3.03381
0.123153	3.18839
0.128079	3.3623
0.134236	3.53622
0.140394	3.71014
0.146552	3.88405
0.152709	4.03863
0.157635	4.21254
0.165025	4.36714
0.172414	4.54105
0.179803	4.67631
0.188424	4.81158
0.198276	4.94684
0.206897	5.06278
0.21798	5.15939
0.227833	5.25601
0.238916	5.33331
0.251232	5.41061
0.262315	5.46859
0.273399	5.54588
0.285714	5.58452
0.296798	5.6425
0.309113	5.66182
0.320197	5.71978
0.332512	5.73912
0.344828	5.75844
0.355911	5.79708
0.366995	5.81642
0.376847	5.83574
0.389163	5.83574
0.399015	5.83574
