Adsorption isotherm of Methanol on Ni(bodc)(ted)0.5
DOI: 10.1039/B814498b
Adsorbate Methanol: InChIKey OKKJLVBELUTLKV-UHFFFAOYSA-N
Temperature: 318 K
Tabular data in the source: 0
pressure (bar)	uptake (mmol/g)
0.00710778	0.207829
0.0101994	0.259528
0.0139088	0.337259
0.0170022	0.336653
0.0197853	0.36226
0.0228778	0.387806
0.0259703	0.413352
0.0290636	0.412745
0.0321561	0.438292
0.0349393	0.463899
0.0380317	0.489445
0.0411251	0.488838
0.0442176	0.514384
0.0473109	0.513777
0.0504034	0.539324
0.0531865	0.564931
0.0562799	0.564324
0.0593724	0.58987
0.0624649	0.615416
0.0655573	0.640963
0.0683405	0.66657
0.0714338	0.665963
0.0745263	0.691509
0.0776188	0.717055
0.0807104	0.768755
0.0834936	0.794362
0.0865861	0.819908
0.0896777	0.871607
0.0924608	0.897214
0.0955524	0.948914
0.0986441	1.00061
0.101427	1.02622
0.104519	1.07792
0.107301	1.12968
0.109775	1.15535
0.112866	1.2332
0.115648	1.28496
0.11874	1.33666
