Adsorption isotherm of Ethanol on Ni(bodc)(ted)0.5
DOI: 10.1039/B814498b
Adsorbate Ethanol: InChIKey LFQSCWFLJHTTHZ-UHFFFAOYSA-N
Temperature: 298 K
Tabular data in the source: 0
pressure (bar)	uptake (mmol/g)
0.00152657	0.237134
0.00249657	0.456026
0.00360542	0.69316
0.00415887	0.85733
0.00471232	1.0215
0.00512614	1.20391
0.00567959	1.36808
0.00637033	1.62345
0.00678415	1.80586
0.00705912	1.97003
0.00747294	2.15244
0.00788715	2.31661
0.00830097	2.49902
0.00857555	2.68143
0.00885013	2.86385
0.00926434	3.02801
0.00953892	3.21043
0.00995274	3.39284
0.0102277	3.55701
0.0106415	3.73942
0.0109161	3.92183
0.0113303	4.086
0.0117441	4.26841
0.0121583	4.43258
0.0125714	4.65147
0.0125722	4.61499
0.013126	4.76091
0.0138187	4.92508
0.0142329	5.08925
0.0145114	5.08925
0.0153437	5.23518
0.0160372	5.36287
0.0161764	5.36287
0.0171484	5.49056
0.017843	5.56352
0.01826	5.6
0.0185377	5.63649
0.0189546	5.67297
0.0196496	5.72769
0.0209008	5.8189
0.0220136	5.87362
0.0222917	5.89186
0.0235437	5.94658
0.0249349	6.00131
0.0259092	6.01955
0.0261873	6.03779
0.0275789	6.07427
0.0289705	6.11075
0.0298052	6.14723
0.0302229	6.14723
0.0316145	6.18372
0.0328669	6.2202
0.0337023	6.2202
0.0342589	6.23844
0.0356509	6.25668
0.0369037	6.27492
0.0382953	6.3114
0.0391304	6.32965
0.0396873	6.32965
0.0410793	6.34789
0.0423321	6.36613
0.0428887	6.38437
0.0437241	6.38437
0.0451157	6.42085
0.0453942	6.42085
0.0467862	6.43909
0.0477609	6.43909
0.0527724	6.49381
