Adsorption isotherm of 1-Propanol on Ni(bodc)(ted)0.5
DOI: 10.1039/B814498b
Adsorbate 1-Propanol: InChIKey BDERNNFJNOPAEC-UHFFFAOYSA-N
Temperature: 303 K
Tabular data in the source: 0
pressure (bar)	uptake (mmol/g)
0.00369458	0.17776
0.00738916	0.592533
0.00862069	0.740667
0.0110837	0.888801
0.0135468	1.09619
0.0160099	1.24432
0.0184729	1.39245
0.0197044	1.52577
0.0221675	1.6739
0.0246305	1.82205
0.0270936	1.97018
0.0307882	2.10349
0.0344828	2.25163
0.0381773	2.39977
0.0431034	2.53309
0.046798	2.66639
0.0517241	2.79972
0.0578818	2.93304
0.0628079	3.06636
0.0689655	3.19968
0.0763547	3.3182
0.0837438	3.43669
0.0923645	3.5552
0.100985	3.65889
0.109606	3.74778
0.118227	3.85147
0.12931	3.92553
0.139163	3.9996
0.150246	4.07367
0.16133	4.13292
0.171182	4.20699
0.182266	4.26624
0.194581	4.31067
0.205665	4.36993
0.216749	4.41438
0.229064	4.444
0.241379	4.48844
0.253695	4.50325
0.264778	4.5477
0.277094	4.57732
0.288177	4.60696
0.300493	4.63658
0.312808	4.6662
0.323892	4.68102
0.334975	4.71064
0.347291	4.72545
0.358374	4.75509
0.37069	4.7699
0.383005	4.78471
0.39532	4.79952
0.406404	4.82915
0.418719	4.84396
0.431034	4.85877
0.442118	4.87358
0.454433	4.88841
0.466749	4.90322
0.477833	4.91803
