Adsorption isotherm of P-Xylene on Ni(bodc)(ted)0.5
DOI: 10.1039/B814498b
Adsorbate P-Xylene: InChIKey URLKBWYHVLBVBO-UHFFFAOYSA-N
Temperature: 363 K
Tabular data in the source: 0
pressure (bar)	uptake (mmol/g)
0.000200768	0.385954
0.000260998	0.475725
0.000321228	0.556525
0.000381459	0.646296
0.000441689	0.727096
0.000521996	0.807917
0.000602303	0.888739
0.000702687	0.969581
0.000782994	1.0504
0.000903455	1.1223
0.00102392	1.19419
0.00116445	1.2661
0.00120461	1.30203
0.00136522	1.35602
0.00150576	1.40999
0.00166637	1.47296
0.00182699	1.51798
0.0019876	1.563
0.00216829	1.60805
0.00234898	1.64412
0.00252967	1.68916
0.00271037	1.72524
0.00289106	1.75234
0.00307175	1.78841
0.00327252	1.80656
0.00345321	1.84264
0.00365397	1.86079
0.00383467	1.88789
0.00401536	1.91499
0.00421612	1.93315
0.00441689	1.9513
0.00459758	1.9784
0.00479835	1.98758
0.00497904	2.00571
0.00517981	2.02387
0.00538058	2.04202
0.00556127	2.06015
0.00576204	2.0783
0.00594273	2.08746
0.00614349	2.10562
0.00634426	2.12377
0.00652495	2.13293
0.00672572	2.15108
0.00692649	2.16027
0.00710718	2.16943
