Adsorption isotherm of P-Xylene on Ni(bodc)(ted)0.5
DOI: 10.1039/B814498b
Adsorbate P-Xylene: InChIKey URLKBWYHVLBVBO-UHFFFAOYSA-N
Temperature: 353 K
Tabular data in the source: 0
pressure (bar)	uptake (mmol/g)
0.000220845	0.753776
0.000260998	0.843526
0.000301152	0.933276
0.000341305	1.01405
0.000401536	1.10383
0.000461766	1.18463
0.000521996	1.2744
0.000602303	1.35522
0.000682611	1.43604
0.000782994	1.51688
0.000903455	1.58877
0.00102392	1.66067
0.00116445	1.72361
0.00122468	1.75956
0.0013853	1.81355
0.00154591	1.86754
0.00170653	1.91257
0.00188722	1.95761
0.00210806	1.99373
0.00228875	2.0298
0.00246944	2.0569
0.00265013	2.09297
0.0028509	2.1201
0.00299144	2.13819
0.00319221	2.16531
0.0033729	2.18344
0.00357367	2.20159
0.00387482	2.23779
0.00407559	2.25595
0.00425628	2.27408
0.00445705	2.28326
0.00463774	2.30139
0.0048385	2.31954
0.0050192	2.33768
0.00521996	2.34686
0.00546088	2.36505
0.00566165	2.37423
0.00584234	2.39237
0.00604311	2.41052
0.00624388	2.4197
0.00628403	2.42871
0.00646472	2.43787
0.00666549	2.44705
0.00686626	2.45624
