Adsorption isotherm of Ethanol on Ni(bodc)(ted)0.5
DOI: 10.1039/B814498b
Adsorbate Ethanol: InChIKey LFQSCWFLJHTTHZ-UHFFFAOYSA-N
Temperature: 313 K
Tabular data in the source: 0
pressure (bar)	uptake (mmol/g)
0.00194663	0.127687
0.00417135	0.273616
0.00778808	0.437785
0.00862274	0.474267
0.00987473	0.528991
0.011266	0.583714
0.0129345	0.69316
0.0141857	0.784365
0.0152973	0.893812
0.0162696	1.00326
0.0172416	1.13095
0.0186293	1.34984
0.0194616	1.49577
0.0201543	1.65994
0.0208474	1.80586
0.0215401	1.97003
0.0222332	2.11596
0.0229259	2.28013
0.0236185	2.4443
0.0247274	2.68143
0.0254201	2.8456
0.0261132	2.99153
0.0268059	3.1557
0.0274985	3.31987
0.0283309	3.4658
0.0290239	3.61173
0.0298559	3.7759
0.0306878	3.94007
0.0315201	4.086
0.0324921	4.21368
0.033464	4.34137
0.0344356	4.4873
0.0354079	4.59675
0.0365195	4.70619
0.0376311	4.81564
0.0387431	4.90684
0.0399943	4.99805
0.0422194	5.12574
0.043471	5.1987
0.0447226	5.27166
0.0461138	5.32639
0.0482009	5.39935
0.0494528	5.45407
0.0508441	5.5088
0.0520965	5.54528
