Adsorption isotherm of Cyclohexane on Ni(bodc)(ted)0.5
DOI: 10.1039/B814498b
Adsorbate Cyclohexane: InChIKey XDTMQSROBMDMFD-UHFFFAOYSA-N
Temperature: 363 K
Tabular data in the source: 0
pressure (bar)	uptake (mmol/g)
0.00336991	0.827375
0.00409909	0.919271
0.00482904	1.00197
0.00605093	1.07542
0.00751767	1.15805
0.00923227	1.21306
0.0111925	1.26805
0.013399	1.31381
0.0156064	1.35038
0.01806	1.37773
0.0202681	1.40511
0.022477	1.42328
0.0249314	1.44143
0.0273866	1.45039
0.0298418	1.45934
0.0320506	1.47752
0.0345058	1.48647
0.0369618	1.48623
0.0391714	1.49521
0.0413802	1.51339
0.0438354	1.52234
0.0462906	1.5313
0.048501	1.53108
0.0509562	1.54003
0.0534122	1.53979
0.0558674	1.54875
0.058077	1.55772
0.0605329	1.55748
0.0629881	1.56644
0.0654441	1.56619
0.0676537	1.57517
0.0701089	1.58413
0.0725648	1.58389
0.0747744	1.59287
0.07944	1.6016
0.0818959	1.60136
0.0843511	1.61032
0.0865615	1.6101
0.0890167	1.61905
0.0914727	1.61881
0.0936823	1.62779
