Adsorption isotherm of Methanol on Ni(bodc)(ted)0.5
DOI: 10.1039/B814498b
Adsorbate Methanol: InChIKey OKKJLVBELUTLKV-UHFFFAOYSA-N
Temperature: 333 K
Tabular data in the source: 0
pressure (bar)	uptake (mmol/g)
0.0194846	0.100789
0.0272163	0.151579
0.0374234	0.175729
0.0467026	0.200062
0.0541267	0.198606
0.0637134	0.275184
0.0745401	0.27306
0.0776318	0.324759
0.0807242	0.350306
0.0887678	0.322575
0.0918612	0.321968
0.0983563	0.346847
0.10145	0.34624
0.104542	0.371786
0.107635	0.371179
0.109801	0.370755
0.112893	0.396301
0.115987	0.395694
0.11908	0.395087
