Adsorption isotherm of Hydrogen on Ni(bodc)(ted)0.5
DOI: 10.1039/B814498b
Adsorbate Hydrogen: InChIKey UFHFLCQGNIYNRP-UHFFFAOYSA-N
Temperature: 77 K
Tabular data in the source: 0
pressure (bar)	uptake (wt%)
0.23152	0.677942
0.474837	1.0847
0.729213	1.23721
0.854927	1.34737
1.2376	1.55072
1.75041	1.76253
2.91722	1.94037
4.21491	2.10972
6.42725	2.25356
8.51203	2.32961
10.7284	2.38022
13.2055	2.43928
16.4659	2.48978
20.1179	2.54024
22.7273	2.55691
24.8143	2.58212
27.6843	2.60724
30.554	2.64083
32.5108	2.65757
34.3375	2.66585
37.3388	2.67401
39.2953	2.69923
40.6004	2.69909
41.9051	2.70743
43.2098	2.71576
44.3839	2.72411
45.5581	2.73246
46.8632	2.73232
48.1679	2.74066
49.473	2.74052
50.6471	2.74887
51.9522	2.74873
53.2573	2.7486
54.562	2.75693
54.823	2.7569
56.128	2.75677
57.4331	2.75663
58.7382	2.75649
60.0432	2.75635
66.1781	2.73028
67.4832	2.73014
68.3967	2.73004
69.7018	2.7299
71.0072	2.72129
72.3123	2.72115
