Adsorption isotherm of Hydrogen on Ni(bodc)(ted)0.5
DOI: 10.1039/B814498b
Adsorbate Hydrogen: InChIKey UFHFLCQGNIYNRP-UHFFFAOYSA-N
Temperature: 87 K
Tabular data in the source: 0
pressure (bar)	uptake (wt%)
0.0211571	0.041134
0.0455458	0.0684868
0.0553084	0.0856196
0.102466	0.143776
0.154495	0.201899
0.2049	0.260034
0.256921	0.311278
0.305695	0.362544
0.356084	0.406919
0.406465	0.444415
0.458458	0.47158
0.508839	0.509076
0.560844	0.546561
0.61121	0.570297
0.661583	0.600913
0.707085	0.631563
0.763945	0.655255
0.812699	0.689322
0.864684	0.709608
0.91017	0.726498
0.965402	0.746762
0.989779	0.763796
1.00765	0.770554
