Adsorption isotherm of Hydrogen on Ni(bodc)(ted)0.5
DOI: 10.1039/B814498b
Adsorbate Hydrogen: InChIKey UFHFLCQGNIYNRP-UHFFFAOYSA-N
Temperature: 278 K
Tabular data in the source: 0
pressure (bar)	uptake (wt%)
1.31319	0.0118644
2.36359	0.0220339
6.69677	0.0627119
7.74718	0.0728814
8.79795	0.0813559
9.71714	0.0898305
11.03	0.10339
12.0804	0.113559
13.1308	0.123729
14.1815	0.132203
15.3635	0.142373
16.4143	0.150847
17.4647	0.161017
18.5151	0.171186
19.3034	0.176271
20.2226	0.184746
21.2734	0.19322
22.4554	0.20339
23.5062	0.211864
24.5566	0.222034
25.6077	0.228814
26.6585	0.237288
27.7089	0.247458
28.8912	0.255932
30.336	0.267797
31.5184	0.276271
32.5691	0.284746
33.7515	0.29322
34.8023	0.301695
35.9846	0.310169
37.035	0.320339
38.2174	0.328814
39.3997	0.337288
40.4505	0.345763
41.6328	0.354237
42.6836	0.362712
43.866	0.371186
44.9167	0.379661
46.0991	0.388136
47.2811	0.398305
48.3318	0.40678
49.5146	0.413559
49.9082	0.418644
51.0909	0.425424
52.2733	0.433898
53.4556	0.442373
54.5064	0.450847
55.6891	0.457627
56.8715	0.466102
58.0538	0.474576
59.2362	0.483051
60.2873	0.489831
61.3385	0.49661
62.5208	0.505085
63.7032	0.513559
64.7543	0.520339
65.9367	0.528814
67.119	0.537288
68.3017	0.544068
69.4841	0.552542
70.6668	0.559322
