Adsorption isotherm of Cyclohexane on Ni(bodc)(ted)0.5
DOI: 10.1039/B814498b
Adsorbate Cyclohexane: InChIKey XDTMQSROBMDMFD-UHFFFAOYSA-N
Temperature: 373 K
Tabular data in the source: 0
pressure (bar)	uptake (mmol/g)
0.00265441	0.569937
0.0033836	0.661833
0.00411354	0.744531
0.00484272	0.836427
0.00630641	0.95584
0.00777391	1.02927
0.00948775	1.09348
0.011448	1.14847
0.0134082	1.20345
0.0156147	1.24922
0.0175772	1.27662
0.0200309	1.30396
0.022239	1.33134
0.0246934	1.34949
0.0269015	1.37686
0.0293567	1.38582
0.0318119	1.39477
0.0340207	1.41295
0.0362296	1.43112
0.0384392	1.4401
0.0408951	1.43986
0.0423679	1.44891
0.0448239	1.44867
0.0470335	1.45765
0.0494887	1.4666
0.0519439	1.47556
0.0543999	1.47532
0.0566095	1.48429
0.0590647	1.49325
0.0615206	1.49301
0.0639758	1.50196
0.0661854	1.51094
0.0686414	1.5107
0.0710966	1.51965
0.0735525	1.51941
0.0760077	1.52837
0.0782181	1.52815
0.0791997	1.53725
0.0814101	1.53703
0.083866	1.53679
0.0860764	1.53657
0.0885316	1.54553
0.0909868	1.55448
0.0934428	1.55424
