Adsorption isotherm of P-Xylene on Ni(bodc)(ted)0.5
DOI: 10.1039/B814498b
Adsorbate P-Xylene: InChIKey URLKBWYHVLBVBO-UHFFFAOYSA-N
Temperature: 423 K
Tabular data in the source: 0
pressure (bar)	uptake (mmol/g)
0.000702687	0.0725049
0.000903455	0.0906575
0.00108415	0.108789
0.00128491	0.126942
0.00148568	0.145094
0.00166637	0.163226
0.00186714	0.172407
0.00214822	0.199615
0.00234898	0.217768
0.00252967	0.226929
0.00273044	0.245081
0.00301152	0.263318
0.00321228	0.281471
0.00339298	0.290632
0.00359374	0.308784
0.00383467	0.326979
0.00403543	0.336161
0.00421612	0.354292
0.00441689	0.363474
0.00467789	0.38169
0.00487866	0.390872
0.00505935	0.409003
0.00526012	0.418185
0.00552111	0.436401
0.00572188	0.445583
0.00590257	0.454744
0.00610334	0.472896
0.00634426	0.48212
0.00654503	0.500273
0.00672572	0.509434
0.00692649	0.518616
0.00718749	0.527861
0.00738826	0.546013
0.00756895	0.555174
0.00776971	0.564356
