Adsorption isotherm of Methanol on Ni(bodc)(ted)0.5
DOI: 10.1039/B814498b
Adsorbate Methanol: InChIKey OKKJLVBELUTLKV-UHFFFAOYSA-N
Temperature: 303 K
Tabular data in the source: 0
pressure (bar)	uptake (mmol/g)
0.00985222	0.11113
0.0197044	0.361174
0.0258621	0.500086
0.0332512	0.583436
0.044335	0.694566
0.0566502	0.777913
0.0652709	0.833477
0.0763547	0.916828
0.08867	0.972392
0.0997537	1.02796
0.112069	1.08352
0.119458	1.1113
0.131773	1.19465
0.142857	1.25022
0.155172	1.33357
0.166256	1.4447
0.174877	1.52804
0.185961	1.66696
0.197044	1.77809
0.206897	1.94478
0.216749	2.11148
0.226601	2.27817
0.230296	2.36152
0.238916	2.52822
0.248768	2.7227
0.257389	2.91717
0.26601	3.11165
0.273399	3.33392
0.28202	3.52838
0.285714	3.63952
0.294335	3.86179
0.301724	4.05625
0.310345	4.27852
0.317734	4.50079
0.325123	4.69526
0.332512	4.91753
0.342365	5.11199
0.350985	5.27868
0.359606	5.4454
0.368227	5.66764
0.378079	5.83436
0.387931	6.00105
0.397783	6.13996
0.408867	6.2511
0.418719	6.41778
0.428571	6.52892
0.439655	6.66783
0.449507	6.75116
0.460591	6.8623
0.472906	6.97343
0.48399	7.05679
0.495074	7.16793
