Adsorption isotherm of N-Hexane on Ni(bodc)(ted)0.5
DOI: 10.1039/B814498b
Adsorbate N-Hexane: InChIKey VLKZOEOYAKHREP-UHFFFAOYSA-N
Temperature: 373 K
Tabular data in the source: 0
pressure (bar)	uptake (mmol/g)
0.00333306	0.633845
0.00518476	0.809371
0.00666612	0.897134
0.00777714	0.994649
0.00999918	1.07266
0.0118509	1.15067
0.0144433	1.21893
0.0166653	1.26769
0.019628	1.3262
0.0229611	1.3652
0.0262941	1.40421
0.0296272	1.44322
0.0333306	1.47247
0.0366637	1.49197
0.0403671	1.51148
0.0437001	1.53098
0.0474035	1.55048
0.0511069	1.56999
0.05444	1.58949
0.0581434	1.59924
0.0618468	1.61874
0.0655502	1.62849
0.0688832	1.63825
0.0722163	1.648
0.0759197	1.6675
0.0796231	1.67725
0.0829561	1.687
0.0866595	1.687
0.0911036	1.71626
0.094807	1.71626
0.0981401	1.72601
0.101843	1.73576
0.105547	1.75526
0.10925	1.75526
0.112583	1.76501
0.116287	1.77477
0.11999	1.78452
0.123694	1.79427
0.127027	1.80402
0.13073	1.81377
0.134433	1.82352
0.138137	1.82352
0.14147	1.84303
0.145173	1.84303
0.148877	1.85278
