Adsorption isotherm of N-Hexane on Ni(bodc)(ted)0.5
DOI: 10.1039/B814498b
Adsorbate N-Hexane: InChIKey VLKZOEOYAKHREP-UHFFFAOYSA-N
Temperature: 353 K
Tabular data in the source: 0
pressure (bar)	uptake (mmol/g)
0.00333306	0.926389
0.00629578	1.16042
0.00814748	1.26769
0.00999918	1.35545
0.0118509	1.43346
0.0144433	1.51148
0.0170356	1.56999
0.0199984	1.62849
0.0233314	1.67725
0.0266645	1.71626
0.0299975	1.75526
0.0325899	1.77477
0.0362933	1.80402
0.0396264	1.82352
0.0433298	1.85278
0.0477738	1.87228
0.0511069	1.90154
0.0548103	1.91129
0.0585137	1.93079
0.0622171	1.95029
0.0659205	1.96004
0.0692536	1.97955
0.072957	1.99905
0.0770307	2.0088
0.0807341	2.0283
0.0840672	2.03806
0.0877706	2.05756
0.091474	2.06731
0.0951774	2.07706
0.0985104	2.08681
0.102214	2.10632
0.105917	2.11607
0.109621	2.13557
0.112954	2.14532
0.116657	2.15507
0.120731	2.17458
0.124434	2.18433
0.128138	2.19408
0.131471	2.20383
0.135174	2.21358
0.138877	2.23308
0.142211	2.24284
0.145914	2.25259
