Adsorption isotherm of P-Xylene on Ni(bodc)(ted)0.5
DOI: 10.1039/B814498b
Adsorbate P-Xylene: InChIKey URLKBWYHVLBVBO-UHFFFAOYSA-N
Temperature: 343 K
Tabular data in the source: 0
pressure (bar)	uptake (mmol/g)
0.000180691	0.870354
0.000220845	0.960104
0.000240921	1.04983
0.000281075	1.13958
0.000301152	1.22931
0.000341305	1.31009
0.000401536	1.39986
0.000441689	1.48961
0.00050192	1.57041
0.000582227	1.6602
0.000642457	1.741
0.000742841	1.82185
0.000843225	1.89372
0.000963685	1.97458
0.00110422	2.03752
0.00122468	2.09148
0.00126484	2.10049
0.00142545	2.15448
0.00158607	2.20847
0.00176676	2.25352
0.00194745	2.28959
0.00212814	2.32566
0.00230883	2.35277
0.0025096	2.37989
0.00269029	2.40699
0.00289106	2.42515
0.00297136	2.4342
0.00315205	2.45233
0.00335282	2.47048
0.00355359	2.48864
0.00373428	2.51574
0.00393505	2.51595
0.00413582	2.5341
0.00431651	2.54326
0.00451728	2.56142
0.00469797	2.57058
0.00489873	2.57976
0.00507943	2.58892
0.00528019	2.5981
0.00542073	2.61619
0.00560142	2.61638
0.00580219	2.62556
0.00600296	2.63474
0.00620373	2.64393
0.00638442	2.65309
0.00658518	2.66227
0.00676587	2.67143
0.00696664	2.68061
0.00716741	2.68082
