Adsorption isotherm of Cyclohexane on Ni(bodc)(ted)0.5
DOI: 10.1039/B814498b
Adsorbate Cyclohexane: InChIKey XDTMQSROBMDMFD-UHFFFAOYSA-N
Temperature: 393 K
Tabular data in the source: 0
pressure (bar)	uptake (mmol/g)
0.00146065	0.156201
0.00218983	0.248096
0.00291978	0.330795
0.00389532	0.41347
0.0046245	0.505365
0.00608971	0.606385
0.00731161	0.679839
0.0090247	0.753244
0.0104922	0.826673
0.012206	0.890882
0.0139206	0.945893
0.0158801	1.01008
0.016861	1.02837
0.0190683	1.06494
0.0212764	1.09232
0.0234837	1.12889
0.0259366	1.16543
0.0278998	1.18363
0.0303535	1.21098
0.0325624	1.22916
0.0350168	1.24731
0.0372264	1.25629
0.0394345	1.28366
0.0418897	1.29261
0.0440985	1.31079
0.0463081	1.31977
0.0487633	1.32872
0.0509729	1.3377
0.0534281	1.34666
0.0558841	1.34642
0.0566193	1.36474
0.0590753	1.36449
0.0615305	1.37345
0.0639857	1.3824
0.0661953	1.39138
0.0686513	1.39114
0.0711065	1.4001
0.0735624	1.39985
0.0757728	1.39964
0.078228	1.40859
0.0804376	1.41757
0.0828935	1.41733
0.0853495	1.41709
0.0878047	1.42604
0.0895231	1.43507
0.0919791	1.43483
0.0944358	1.42539
