Adsorption isotherm of 1-Propanol on Ni(bodc)(ted)0.5
DOI: 10.1039/B814498b
Adsorbate 1-Propanol: InChIKey BDERNNFJNOPAEC-UHFFFAOYSA-N
Temperature: 303 K
Tabular data in the source: 0
pressure (bar)	uptake (mmol/g)
0.000341551	0.747663
0.000427339	0.888747
0.000469618	1.0298
0.000555405	1.17088
0.000641315	1.29787
0.000683595	1.43892
0.000769382	1.58
0.000898677	1.72112
0.000984465	1.8622
0.00107037	1.98919
0.00119967	2.1303
0.00132909	2.25732
0.00145838	2.39844
0.0015878	2.52545
0.00176061	2.6666
0.00193353	2.79365
0.00210646	2.9207
0.00232289	3.04778
0.00253945	3.16076
0.00275589	3.28784
0.00301595	3.40086
0.00318949	3.45739
0.00349319	3.55634
0.00379676	3.66938
0.00410058	3.75422
0.00444779	3.8532
0.00479524	3.92397
0.00514269	3.99475
0.00549014	4.06552
0.0058811	4.13632
0.00627218	4.19303
0.00666327	4.24973
0.00705447	4.29233
0.00744568	4.33493
0.00788027	4.39167
0.00827159	4.42017
0.0086628	4.46277
0.00905413	4.49127
0.00948884	4.5339
0.00988017	4.5624
0.010315	4.59094
0.0107065	4.60533
0.0111412	4.64797
0.0115761	4.6624
0.0119675	4.6909
0.0124023	4.71943
0.0127502	4.7338
0.0131417	4.74819
0.0135766	4.76262
0.0140115	4.79116
0.0144899	4.80562
0.0149248	4.83415
0.0153599	4.83448
0.0157513	4.84888
0.0161428	4.86328
0.0162732	4.87748
0.0167081	4.89191
0.0171431	4.90634
0.0175345	4.92074
0.0179695	4.93517
