Adsorption isotherm of Methanol on Ni(bodc)(ted)0.5
DOI: 10.1039/B814498b
Adsorbate Methanol: InChIKey OKKJLVBELUTLKV-UHFFFAOYSA-N
Temperature: 303 K
Tabular data in the source: 0
pressure (bar)	uptake (mmol/g)
0.00370165	0.313109
0.00555247	0.469663
0.0111101	0.782408
0.012039	0.756073
0.017601	0.938052
0.0250207	1.06736
0.0290377	1.19734
0.0318191	1.27525
0.034909	1.37926
0.0376904	1.45717
0.038615	1.5616
0.0410853	1.69188
0.0438642	1.84825
0.0460243	2.00475
0.048493	2.18733
0.0506523	2.36998
0.0528115	2.55263
0.0546606	2.76149
0.0565097	2.97035
0.0586682	3.17915
0.0602079	3.38807
0.062674	3.64911
0.0645231	3.85797
0.066062	4.09305
0.0679111	4.30191
0.0694508	4.51083
0.0712999	4.71969
0.0731481	4.9547
0.0749981	5.13741
0.0771574	5.32006
0.0790074	5.50276
0.0811658	5.71156
0.0833259	5.86806
0.086103	6.07674
0.0885725	6.23317
0.091042	6.3896
0.0935124	6.51988
0.0959819	6.67632
0.0987624	6.78038
0.101543	6.88445
0.104324	6.98851
0.107104	7.09258
0.109575	7.19671
0.112666	7.27456
0.115447	7.37863
0.118227	7.48269
0.120702	7.48221
