Adsorption isotherm of P-Xylene on Ni(bodc)(ted)0.5
DOI: 10.1039/B814498b
Adsorbate P-Xylene: InChIKey URLKBWYHVLBVBO-UHFFFAOYSA-N
Temperature: 313 K
Tabular data in the source: 0
pressure (bar)	uptake (mmol/g)
6.02e-05	1.88392
0.000140537	2.26975
0.000180691	2.4223
0.000220845	2.51205
0.000281075	2.59285
0.000361382	2.68264
0.000461766	2.74554
0.00062238	2.8085
0.000803071	2.84458
0.00100384	2.8717
0.00128491	2.88994
0.00148568	2.89912
0.00166637	2.91725
0.00186714	2.92643
0.00212814	2.92671
0.00232891	2.93589
0.00252967	2.9361
0.00273044	2.93631
0.00299144	2.93658
0.00319221	2.94577
0.00339298	2.94598
0.00359374	2.94619
0.00383467	2.95541
0.00403543	2.95562
0.0042362	2.95583
0.00443697	2.95605
0.00467789	2.9563
0.00487866	2.95651
0.00507943	2.95672
0.00528019	2.9659
0.00552111	2.96616
0.00572188	2.96637
0.00592265	2.96658
0.00612342	2.96679
0.00634426	2.96702
0.00654503	2.96723
0.0067458	2.96744
0.00694657	2.96765
