Adsorption isotherm of Methanol on Ni(bodc)(ted)0.5
DOI: 10.1039/B814498b
Adsorbate Methanol: InChIKey OKKJLVBELUTLKV-UHFFFAOYSA-N
Temperature: 298 K
Tabular data in the source: 0
pressure (bar)	uptake (mmol/g)
0.00771695	0.495391
0.0104975	0.599458
0.0145137	0.755587
0.0172951	0.8335
0.0197663	0.937627
0.0225477	1.01554
0.0253292	1.09345
0.0287249	1.30201
0.0311944	1.45844
0.0333528	1.66724
0.0352028	1.84995
0.0382841	2.21549
0.0398229	2.45056
0.0413618	2.68564
0.0425923	2.89462
0.0441312	3.12969
0.0453607	3.36483
0.0468996	3.5999
0.0481292	3.83504
0.0508976	4.30525
0.0524365	4.54032
0.0536661	4.77545
0.055205	5.01053
0.0564354	5.21951
0.0582837	5.45452
0.0598226	5.6896
0.0613623	5.89852
0.0622869	6.00295
0.0644453	6.21175
0.0662953	6.39446
0.0684545	6.5771
0.0706138	6.75975
0.0730833	6.91618
0.0736994	6.99452
0.0761698	7.1248
0.0789495	7.25502
0.0817292	7.38524
0.0845097	7.48931
0.087292	7.54107
0.0900734	7.61898
0.0931642	7.69683
0.0959464	7.74859
0.0990381	7.80029
0.10182	7.85205
0.104912	7.90375
0.107694	7.95551
0.110786	8.00721
0.113569	8.03282
0.116661	8.08452
0.119753	8.11006
