Adsorption isotherm of N-Hexane on Ni(bodc)(ted)0.5
DOI: 10.1039/B814498b
Adsorbate N-Hexane: InChIKey VLKZOEOYAKHREP-UHFFFAOYSA-N
Temperature: 333 K
Tabular data in the source: 0
pressure (bar)	uptake (mmol/g)
0.00518476	1.29694
0.00629578	1.39446
0.00703646	1.48222
0.00814748	1.57974
0.00962884	1.6675
0.0111102	1.75526
0.0129619	1.84303
0.0151839	1.92104
0.0170356	1.9698
0.019628	2.0283
0.0225907	2.09656
0.0255535	2.14532
0.0292569	2.18433
0.0322196	2.21358
0.0355526	2.25259
0.039256	2.28184
0.0425891	2.30135
0.0459221	2.32085
0.0474035	2.34035
0.0511069	2.3501
0.05444	2.36961
0.0581434	2.38911
0.0614764	2.40861
0.0648095	2.41836
0.0681425	2.42811
0.0718459	2.44762
0.0755493	2.45737
0.0788824	2.46712
0.0825858	2.47687
0.0859189	2.49637
0.0896223	2.49637
0.0933257	2.50613
0.0966587	2.52563
0.100362	2.53538
0.104066	2.54513
0.107399	2.54513
0.111102	2.55488
0.114805	2.56463
0.118138	2.57439
0.121842	2.58414
0.125175	2.59389
0.128878	2.60364
0.132582	2.60364
0.135915	2.61339
0.139618	2.62314
0.142951	2.63289
