Adsorption isotherm of Ethanol on Ni(bodc)(ted)0.5
DOI: 10.1039/B814498b
Adsorbate Ethanol: InChIKey LFQSCWFLJHTTHZ-UHFFFAOYSA-N
Temperature: 333 K
Tabular data in the source: 0
pressure (bar)	uptake (mmol/g)
0.00347866	0.109446
0.00695927	0.127687
0.00835128	0.145928
0.00974329	0.164169
0.0109961	0.182411
0.0128054	0.218893
0.0141974	0.237134
0.0154502	0.255375
0.0168418	0.291857
0.0186515	0.310098
0.0200435	0.328339
0.0212959	0.364821
0.0226879	0.383062
0.02408	0.401303
0.024915	0.419544
0.026307	0.437785
0.0275598	0.456026
0.0289514	0.492508
0.0304827	0.510749
0.0318747	0.528991
0.033127	0.565473
0.0345191	0.583714
0.0364676	0.620196
0.0378596	0.638437
0.0392517	0.656678
0.0405044	0.674919
0.0423142	0.69316
0.0437058	0.729642
0.0449586	0.747883
0.0463502	0.784365
0.0481595	0.820847
0.0494127	0.820847
0.0508043	0.85733
0.0521963	0.875571
0.0534491	0.893812
