Adsorption isotherm of P-Xylene on Ni(bodc)(ted)0.5
DOI: 10.1039/B814498b
Adsorbate P-Xylene: InChIKey URLKBWYHVLBVBO-UHFFFAOYSA-N
Temperature: 333 K
Tabular data in the source: 0
pressure (bar)	uptake (mmol/g)
0.000100384	0.897182
0.000160614	1.20225
0.000180691	1.29198
0.000200768	1.38171
0.000240921	1.47146
0.000260998	1.56119
0.000281075	1.65092
0.000321228	1.73169
0.000381459	1.82147
0.000421612	1.91122
0.000481843	1.99202
0.000542073	2.08179
0.000642457	2.16263
0.000742841	2.2345
0.000863302	2.30639
0.00100384	2.36934
0.00116445	2.42333
0.00130499	2.46833
0.00148568	2.5044
0.00166637	2.54048
0.00186714	2.5676
0.00204783	2.5947
0.00222852	2.62181
0.00242929	2.63996
0.00260998	2.64912
0.00281075	2.66727
0.00301152	2.67645
0.00319221	2.69458
0.00339298	2.70377
0.00359374	2.71295
0.00381459	2.73112
0.00401536	2.73133
0.00421612	2.74051
0.00441689	2.7497
0.00465781	2.76789
0.00485858	2.7681
0.00505935	2.77728
0.00526012	2.78647
0.00548096	2.79567
0.00568173	2.79588
0.0058825	2.80506
0.00608326	2.80527
0.00628403	2.81446
0.00646472	2.82362
0.00666549	2.82383
0.00686626	2.83301
0.00706703	2.83322
