Adsorption isotherm of P-Xylene on Ni(bodc)(ted)0.5
DOI: 10.1039/B814498b
Adsorbate P-Xylene: InChIKey URLKBWYHVLBVBO-UHFFFAOYSA-N
Temperature: 383 K
Tabular data in the source: 0
pressure (bar)	uptake (mmol/g)
0.000321228	0.233578
0.000441689	0.30547
0.00056215	0.377363
0.000702687	0.440306
0.000843225	0.51222
0.000983762	0.575163
0.0011243	0.629135
0.00128491	0.683129
0.00142545	0.737101
0.00158607	0.782124
0.00176676	0.836138
0.00192737	0.881161
0.00210806	0.908263
0.0022486	0.953265
0.00242929	0.998309
0.00260998	1.03438
0.00281075	1.07048
0.00297136	1.08859
0.00315205	1.12466
0.00335282	1.15178
0.00353351	1.17888
0.0037142	1.20599
0.0038949	1.23309
0.00409566	1.26021
0.00427635	1.28731
0.00447712	1.30547
0.00465781	1.31463
0.0048385	1.34173
0.0050192	1.36883
0.00521996	1.37801
0.00540065	1.40512
0.00560142	1.4143
0.00578211	1.4414
0.00598288	1.45058
0.00616357	1.46871
0.00634426	1.48685
0.00654503	1.505
0.0067458	1.51418
0.00692649	1.53231
0.00712726	1.54149
