Adsorption isotherm of N-Hexane on Ni(bodc)(ted)0.5
DOI: 10.1039/B814498b
Adsorbate N-Hexane: InChIKey VLKZOEOYAKHREP-UHFFFAOYSA-N
Temperature: 323 K
Tabular data in the source: 0
pressure (bar)	uptake (mmol/g)
0.00259238	1.03365
0.0037034	1.27744
0.00481442	1.43346
0.0055551	1.53098
0.00629578	1.62849
0.00703646	1.71626
0.00851782	1.81377
0.00962884	1.90154
0.0111102	1.9893
0.0129619	2.07706
0.0159246	2.16482
0.018517	2.23308
0.0214797	2.29159
0.0244424	2.34035
0.0277755	2.38911
0.0311086	2.42811
0.0329603	2.44762
0.0366637	2.46712
0.0399967	2.49637
0.0437001	2.51588
0.0470332	2.53538
0.0507366	2.55488
0.0540696	2.57439
0.057773	2.58414
0.0614764	2.60364
0.0648095	2.61339
0.0685129	2.62314
0.0722163	2.64265
0.0755493	2.6524
0.0792527	2.66215
0.0829561	2.6719
0.0866595	2.68165
0.0899926	2.6914
0.093696	2.70115
0.0973994	2.71091
0.101103	2.71091
0.104806	2.72066
0.108139	2.73041
0.111843	2.74016
0.115546	2.74991
0.118879	2.75966
0.122583	2.75966
0.126286	2.76942
0.129619	2.77917
0.133322	2.77917
0.137026	2.78892
0.140729	2.79867
0.144433	2.80842
0.148136	2.80842
