Adsorption isotherm of P-Xylene on Ni(bodc)(ted)0.5
DOI: 10.1039/B814498b
Adsorbate P-Xylene: InChIKey URLKBWYHVLBVBO-UHFFFAOYSA-N
Temperature: 303 K
Tabular data in the source: 0
pressure (bar)	uptake (mmol/g)
6.02e-05	6.02e-05
0.000120461	2.50297
0.000180691	2.64656
0.000240921	2.73634
0.000301152	2.81714
0.000441689	2.87111
0.00062238	2.91615
0.000823148	2.9343
0.00100384	2.95244
0.00124476	2.97063
0.00144553	2.97981
0.0016463	2.98002
0.00184706	2.98921
0.00210806	2.98948
0.00230883	2.98969
0.0025096	2.99887
0.00271037	2.99908
0.00297136	2.99936
0.00317213	2.99957
0.0033729	3.00875
0.00357367	3.00896
0.00383467	3.00924
0.00403543	3.00945
0.0042362	3.00966
0.00443697	3.00987
0.00467789	3.01012
0.00487866	3.01033
0.00507943	3.01055
0.00528019	3.01076
0.00552111	3.01998
0.00572188	3.02019
0.00592265	3.0204
0.00612342	3.02061
0.00634426	3.02085
0.00654503	3.02106
0.0067458	3.02127
0.00694657	3.02148
