Adsorption isotherm of N-Hexane on Ni(bodc)(ted)0.5
DOI: 10.1039/B814498b
Adsorbate N-Hexane: InChIKey VLKZOEOYAKHREP-UHFFFAOYSA-N
Temperature: 298 K
Tabular data in the source: 0
pressure (bar)	uptake (mmol/g)
0.00148136	1.65775
0.00222204	1.91129
0.00296272	2.21358
0.0037034	2.34035
0.00444408	2.43787
0.0055551	2.52563
0.00703646	2.61339
0.00888816	2.70115
0.0118509	2.76942
0.0148136	2.81817
0.0177763	2.84743
0.0214797	2.87668
0.0251831	2.89618
0.0285162	2.91569
0.0322196	2.91569
0.0355526	2.93519
0.039256	2.94494
0.0429594	2.95469
0.0459221	2.96444
0.0474035	2.96444
0.0511069	2.9742
0.0548103	2.9742
0.0585137	2.98395
0.0614764	2.98395
0.0625874	2.9937
0.0662908	3.00345
0.0699942	3.00345
0.0736976	3.0132
0.0770307	3.0132
0.0807341	3.02295
0.0844375	3.02295
0.0881409	3.0327
0.091474	3.04246
0.0951774	3.04246
0.0988808	3.04246
0.102584	3.05221
0.106288	3.05221
0.109991	3.06196
0.113694	3.06196
0.117398	3.07171
0.12036	3.07171
0.124064	3.08146
0.127767	3.08146
0.131471	3.08146
0.134804	3.08146
0.138507	3.09121
0.14184	3.10096
0.145544	3.10096
0.149247	3.10096
