Adsorption isotherm of P-Xylene on Ni(bodc)(ted)0.5
DOI: 10.1039/B814498b
Adsorbate P-Xylene: InChIKey URLKBWYHVLBVBO-UHFFFAOYSA-N
Temperature: 403 K
Tabular data in the source: 0
pressure (bar)	uptake (mmol/g)
0.000361382	0.108029
0.000542073	0.153073
0.000722764	0.189146
0.000903455	0.23419
0.00108415	0.270263
0.00124476	0.297344
0.00142545	0.333417
0.00160614	0.36949
0.00180691	0.396613
0.0019876	0.423715
0.00214822	0.450797
0.00234898	0.47792
0.00252967	0.505022
0.00273044	0.532146
0.00291113	0.559248
0.0031119	0.5774
0.00329259	0.604503
0.00349336	0.622655
0.00369413	0.649779
0.00375436	0.667784
0.00393505	0.676944
0.00413582	0.704068
0.00433658	0.713249
0.00451728	0.740352
0.00465781	0.758441
0.00485858	0.767623
0.00503927	0.794725
0.00524004	0.812878
0.00550104	0.840064
0.00570181	0.858217
0.0058825	0.876348
0.00608326	0.894501
0.00626396	0.921603
0.00642457	0.921772
0.00662534	0.939925
0.00680603	0.958056
0.0070068	0.976209
0.00716741	0.994319
0.00736818	1.0035
0.00756895	1.02165
0.00774964	1.03979
0.00793033	1.04895
