Adsorption isotherm of Cyclohexane on Ni(bodc)(ted)0.5
DOI: 10.1039/B814498b
Adsorbate Cyclohexane: InChIKey XDTMQSROBMDMFD-UHFFFAOYSA-N
Temperature: 423 K
Tabular data in the source: 0
pressure (bar)	uptake (mmol/g)
0.00146749	0.0734294
0.00293498	0.146859
0.00538106	0.266175
0.00709491	0.330384
0.00880952	0.385395
0.0105241	0.440407
0.0127299	0.49537
0.0146901	0.550357
0.0171415	0.605296
0.0193488	0.641866
0.0215554	0.687632
0.0237627	0.724201
0.0262164	0.75155
0.0274429	0.769823
0.0296502	0.806392
0.0321039	0.833741
0.0343119	0.861113
0.0365208	0.879289
0.0382384	0.897513
0.0406921	0.924862
0.042901	0.943038
0.0453554	0.961189
0.0473179	0.988586
0.0497731	0.997541
0.0519819	1.01572
0.0541908	1.03389
0.0568908	1.05202
0.059346	1.06097
0.0615548	1.07915
0.06401	1.08811
0.0667101	1.10623
0.0691653	1.11519
0.0716205	1.12414
0.0738293	1.14232
0.0765301	1.15125
0.0789853	1.1602
0.0811941	1.17838
0.0836493	1.18733
0.0858589	1.19631
0.0883141	1.20527
0.0907693	1.21422
0.0929789	1.2232
