Adsorption isotherm of Hydrogen on Ni(bodc)(ted)0.5
DOI: 10.1039/B814498b
Adsorbate Hydrogen: InChIKey UFHFLCQGNIYNRP-UHFFFAOYSA-N
Temperature: 298 K
Tabular data in the source: 0
pressure (bar)	uptake (wt%)
1.31319	0.0118644
2.36359	0.0220339
5.12229	0.0423729
6.96142	0.0559322
8.14377	0.0644068
9.19454	0.0728814
10.9021	0.0864407
11.9529	0.0949153
13.6604	0.108475
14.58	0.115254
15.7623	0.123729
16.9447	0.132203
18.1274	0.138983
19.3098	0.147458
19.5726	0.149153
20.7549	0.157627
21.9376	0.164407
23.12	0.172881
24.3027	0.179661
25.7478	0.189831
26.9302	0.198305
28.1129	0.205085
29.2953	0.213559
30.478	0.220339
31.5288	0.228814
32.7111	0.237288
33.8938	0.244068
35.0766	0.250847
36.2589	0.259322
37.4416	0.266102
38.8872	0.274576
39.9379	0.283051
41.1203	0.291525
42.303	0.298305
43.4854	0.30678
44.6681	0.313559
45.8504	0.322034
47.0332	0.328814
48.2155	0.337288
49.9238	0.347458
51.1065	0.354237
52.2889	0.362712
53.4716	0.369492
54.6543	0.376271
55.8371	0.383051
57.0194	0.391525
58.2021	0.398305
59.3848	0.405085
61.3563	0.415254
62.539	0.422034
63.7214	0.430508
64.9041	0.437288
66.0868	0.444068
67.2692	0.452542
68.4519	0.459322
69.6346	0.466102
70.8174	0.472881
