Adsorption isotherm of Cyclohexane on Ni(bodc)(ted)0.5
DOI: 10.1039/B814498b
Adsorbate Cyclohexane: InChIKey XDTMQSROBMDMFD-UHFFFAOYSA-N
Temperature: 333 K
Tabular data in the source: 0
pressure (bar)	uptake (mmol/g)
0.00456519	1.22272
0.00774273	1.40634
0.013377	1.58052
0.0187755	1.63517
0.0236814	1.70826
0.0271144	1.7723
0.0293209	1.81807
0.0310356	1.87308
0.0327502	1.92809
0.0347096	1.99227
0.0361779	2.05651
0.0383852	2.09308
0.0405925	2.12965
0.0427998	2.16622
0.0450071	2.20278
0.0472145	2.23935
0.0494226	2.26673
0.0518762	2.29408
0.0540835	2.33064
0.0570284	2.35794
0.0594829	2.3761
0.0616909	2.40347
0.0641454	2.42162
0.0656174	2.43987
0.067827	2.44885
0.0702815	2.467
0.0724911	2.47598
0.0746992	2.50335
0.0771551	2.50311
0.0796103	2.51206
0.0820655	2.52102
0.0842743	2.53919
0.0864847	2.53898
0.0889391	2.55713
0.0911488	2.56611
0.0936039	2.57506
