Adsorption isotherm of Cyclohexane on Ni(bodc)(ted)0.5
DOI: 10.1039/B814498b
Adsorbate Cyclohexane: InChIKey XDTMQSROBMDMFD-UHFFFAOYSA-N
Temperature: 323 K
Tabular data in the source: 0
pressure (bar)	uptake (mmol/g)
0.000942084	0.487335
0.0033509	1.0573
0.0043158	1.26873
0.00577873	1.39734
0.00601976	1.45249
0.00748725	1.52592
0.00846279	1.6086
0.00968469	1.68205
0.0111514	1.76468
0.0126197	1.82891
0.0143328	1.90231
0.015801	1.96655
0.0175149	2.03076
0.0192287	2.09496
0.0211882	2.15915
0.0229028	2.21416
0.0246174	2.26917
0.027068	2.33331
0.0292746	2.37907
0.0314819	2.41564
0.0336892	2.45221
0.0358965	2.48878
0.0381054	2.50696
0.0403135	2.53433
0.0425223	2.55251
0.0449767	2.57066
0.04694	2.58886
0.0493944	2.60701
0.0516033	2.62519
0.0540585	2.63414
0.0565129	2.65229
0.0589681	2.66125
0.0611777	2.67023
0.0636321	2.68838
0.0663329	2.69731
0.0687881	2.70626
0.0712433	2.71522
0.0734529	2.7242
0.0759081	2.73315
0.0781177	2.74213
0.0805729	2.75108
0.0830289	2.75084
0.0852385	2.75982
0.0876937	2.76878
0.0901496	2.76853
0.0923585	2.78671
