Adsorption isotherm of Ethanol on Ni(bodc)(ted)0.5
DOI: 10.1039/B814498b
Adsorbate Ethanol: InChIKey LFQSCWFLJHTTHZ-UHFFFAOYSA-N
Temperature: 318 K
Tabular data in the source: 0
pressure (bar)	uptake (mmol/g)
0.00347866	0.109446
0.00584379	0.200652
0.00806968	0.291857
0.0101575	0.328339
0.0115491	0.364821
0.0129404	0.419544
0.0141927	0.456026
0.015584	0.510749
0.016836	0.565473
0.0182272	0.620196
0.0193395	0.69316
0.0205911	0.766124
0.0218424	0.85733
0.0230936	0.948535
0.0242055	1.03974
0.0247613	1.09446
0.0258729	1.20391
0.0268453	1.31336
0.0279561	1.45928
0.028928	1.58697
0.0300384	1.75114
0.0307319	1.87883
0.0317034	2.02476
0.0323965	2.17069
0.0332288	2.31661
0.0340612	2.46254
0.0348935	2.60847
0.0355862	2.77264
0.0364193	2.88209
0.0372516	3.02801
0.0380839	3.17394
0.0390555	3.31987
0.0398882	3.44756
0.0407205	3.59349
0.0423863	3.83062
0.0433583	3.95831
0.0443306	4.06775
0.0453026	4.19544
0.0464137	4.32313
0.0482204	4.4873
0.0493319	4.59675
0.0504439	4.68795
0.0516951	4.77916
0.0529463	4.87036
0.0540599	4.8886
