Adsorption isotherm of P-Xylene on Ni(bodc)(ted)0.5
DOI: 10.1039/B814498b
Adsorbate P-Xylene: InChIKey URLKBWYHVLBVBO-UHFFFAOYSA-N
Temperature: 413 K
Tabular data in the source: 0
pressure (bar)	uptake (mmol/g)
0.000682611	0.099396
0.000863302	0.126498
0.00106407	0.153622
0.00124476	0.180724
0.00144553	0.207847
0.00162622	0.225979
0.00182699	0.253102
0.00200768	0.280204
0.00220845	0.298357
0.00238914	0.316488
0.0025899	0.343612
0.0027706	0.361743
0.00297136	0.379896
0.00315205	0.406998
0.00335282	0.425151
0.00353351	0.443282
0.00373428	0.461435
0.00391497	0.479566
0.00411574	0.497719
0.00429643	0.51585
0.0044972	0.534003
0.00469797	0.552156
0.00487866	0.561316
0.00507943	0.579469
0.00526012	0.5976
0.00546088	0.615753
0.00566165	0.624935
0.00584234	0.643066
0.00604311	0.652248
0.0062238	0.679351
0.00642457	0.688532
0.00662534	0.697714
0.00680603	0.706875
0.0070068	0.725028
0.00718749	0.743159
0.00738826	0.74337
0.00756895	0.761502
0.00776971	0.770683
0.0079504	0.779844
