Adsorption isotherm of N-Hexane on Ni(bodc)(ted)0.5
DOI: 10.1039/B814498b
Adsorbate N-Hexane: InChIKey VLKZOEOYAKHREP-UHFFFAOYSA-N
Temperature: 303 K
Tabular data in the source: 0
pressure (bar)	uptake (mmol/g)
0.00111102	1.54073
0.00222204	1.93079
0.00407374	2.19408
0.00481442	2.29159
0.00592544	2.37936
0.0074068	2.47687
0.00888816	2.56463
0.0111102	2.63289
0.0140729	2.70115
0.0155543	2.74016
0.0188873	2.76942
0.0222204	2.79867
0.0259238	2.81817
0.0296272	2.83768
0.0325899	2.85718
0.0362933	2.86693
0.0399967	2.87668
0.0433298	2.89618
0.0477738	2.90594
0.0514772	2.90594
0.0551806	2.91569
0.058884	2.92544
0.0625874	2.93519
0.0662908	2.93519
0.0699942	2.94494
0.0736976	2.95469
0.077401	2.95469
0.0811044	2.96444
0.0848078	2.96444
0.0885112	2.9742
0.091474	2.98395
0.0951774	2.98395
0.0988808	2.98395
0.102584	2.98395
0.106288	3.00345
0.109991	2.9937
0.113694	3.00345
0.117398	3.00345
0.12036	3.0132
0.124064	3.0132
0.127767	3.0132
0.131471	3.0132
0.134804	3.0132
