Adsorption isotherm of Cyclohexane on Ni(bodc)(ted)0.5
DOI: 10.1039/B814498b
Adsorbate Cyclohexane: InChIKey XDTMQSROBMDMFD-UHFFFAOYSA-N
Temperature: 353 K
Tabular data in the source: 0
pressure (bar)	uptake (mmol/g)
0.00310911	1.01134
0.0055491	1.20423
0.00873196	1.32347
0.0106922	1.37846
0.0128995	1.41503
0.0153532	1.44238
0.017562	1.46055
0.0200172	1.46951
0.0222253	1.49688
0.0246797	1.51503
0.0268893	1.52401
0.0293438	1.54216
0.031799	1.55112
0.0342549	1.55087
0.0364638	1.56905
0.0389197	1.56881
0.0411293	1.57779
0.0435845	1.58674
0.046039	1.60489
0.0482493	1.60468
0.0507045	1.61363
0.0531597	1.62259
0.0553701	1.62237
0.0578253	1.63132
0.0600349	1.6403
0.0624901	1.64926
0.064946	1.64901
0.0674012	1.65797
0.0698564	1.66692
0.0723124	1.66668
0.074522	1.67566
0.0769772	1.68462
0.0794324	1.69357
0.0818883	1.69333
0.0843435	1.70228
0.0867987	1.71124
0.0892547	1.711
0.0914643	1.71998
0.0939203	1.71973
