Adsorption isotherm of Ethanol on Ni(bodc)(ted)0.5
DOI: 10.1039/B814498b
Adsorbate Ethanol: InChIKey LFQSCWFLJHTTHZ-UHFFFAOYSA-N
Temperature: 353 K
Tabular data in the source: 0
pressure (bar)	uptake (mmol/g)
0.00555389	0.0566229
0.0077763	0.039142
0.0104142	0.0765264
0.0148574	0.114528
0.0161073	0.114956
0.0174961	0.115431
0.0187456	0.134099
0.0201344	0.134574
0.0215227	0.15329
0.0229115	0.153765
0.0267993	0.191577
0.028188	0.192052
0.0295768	0.192527
0.0305489	0.19286
0.0319373	0.211576
0.0333257	0.230292
0.0347144	0.230767
0.0363806	0.249578
0.0377693	0.250053
0.0391577	0.268769
0.0405465	0.269244
0.0422126	0.288055
0.0436014	0.28853
0.0449901	0.289005
0.0463785	0.307721
0.048045	0.308291
0.0494334	0.327006
0.0508222	0.327482
0.0522105	0.346197
