Adsorption isotherm of Hydrogen on Ni(bodc)(ted)0.5
DOI: 10.1039/B814498b
Adsorbate Hydrogen: InChIKey UFHFLCQGNIYNRP-UHFFFAOYSA-N
Temperature: 77 K
Tabular data in the source: 0
pressure (bar)	uptake (wt%)
0.0130461	0.0480687
0.0195852	0.0858621
0.042394	0.151064
0.048945	0.199176
0.101058	0.329535
0.158026	0.446102
0.208483	0.548953
0.252421	0.63121
0.307717	0.70651
0.354883	0.771546
0.405296	0.83656
0.457325	0.894684
0.507718	0.942499
0.558111	0.990314
0.606873	1.03126
0.660498	1.06529
0.707623	1.09593
0.762876	1.1334
0.816505	1.17087
0.862003	1.19808
0.990349	1.25568
1.00985	1.26587
