Adsorption isotherm of P-Xylene on Ni(bodc)(ted)0.5
DOI: 10.1039/B814498b
Adsorbate P-Xylene: InChIKey URLKBWYHVLBVBO-UHFFFAOYSA-N
Temperature: 373 K
Tabular data in the source: 0
pressure (bar)	uptake (mmol/g)
0.000180691	0.224459
0.000260998	0.30528
0.000361382	0.386123
0.000441689	0.466944
0.000521996	0.547765
0.00062238	0.628608
0.000742841	0.7005
0.000863302	0.772393
0.000983762	0.844286
0.00110422	0.916179
0.00128491	0.997105
0.00142545	1.05108
0.00158607	1.11404
0.00174668	1.16804
0.00190729	1.22203
0.00206791	1.26705
0.0022486	1.3121
0.00242929	1.34817
0.00260998	1.39321
0.00279067	1.42929
0.00293121	1.45635
0.0031119	1.48345
0.00331267	1.51954
0.00349336	1.54664
0.00369413	1.5648
0.00377443	1.58282
0.0039752	1.60097
0.00415589	1.61911
0.00433658	1.64621
0.00453735	1.66436
0.00465781	1.67346
0.00485858	1.69161
0.00503927	1.70974
0.00524004	1.71892
0.00544081	1.73708
0.0056215	1.75521
0.00582227	1.76439
0.00602303	1.78254
0.00620373	1.7917
0.00640449	1.80089
0.00658518	1.81005
0.00678595	1.81923
0.00698672	1.82841
0.00714733	1.84652
0.0073481	1.8557
0.00754887	1.85591
0.00774964	1.8651
0.00793033	1.88323
