Adsorption isotherm of Methanol on Ni(bodc)(ted)0.5
DOI: 10.1039/B814498b
Adsorbate Methanol: InChIKey OKKJLVBELUTLKV-UHFFFAOYSA-N
Temperature: 323 K
Tabular data in the source: 0
pressure (bar)	uptake (mmol/g)
0.0142259	0.101821
0.0173184	0.127367
0.0204118	0.12676
0.0235042	0.152307
0.0272163	0.151579
0.0299994	0.177186
0.0405159	0.201276
0.0436084	0.226822
0.0467018	0.226215
0.0630948	0.275305
0.0661881	0.274698
0.0692806	0.300245
0.0723739	0.299638
0.0776318	0.324759
0.0807242	0.350306
0.0887652	0.401034
0.0918577	0.42658
0.0983529	0.451459
0.101446	0.450852
0.104539	0.476399
0.107632	0.475792
0.109797	0.50152
0.11289	0.500913
0.115983	0.500306
0.118766	0.525913
