Adsorption isotherm of Cyclohexane on Ni(bodc)(ted)0.5
DOI: 10.1039/B814498b
Adsorbate Cyclohexane: InChIKey XDTMQSROBMDMFD-UHFFFAOYSA-N
Temperature: 313 K
Tabular data in the source: 0
pressure (bar)	uptake (mmol/g)
0.00213129	0.956252
0.0030939	1.19527
0.00357673	1.29639
0.00406032	1.38831
0.00429527	1.51704
0.00429831	1.48025
0.00477885	1.60896
0.0047819	1.57217
0.00526624	1.6549
0.0055088	1.69166
0.00599543	1.74679
0.00623798	1.78355
0.00672537	1.82949
0.00696793	1.86625
0.00745456	1.92139
0.00769711	1.95815
0.0084301	2.00406
0.00867265	2.04082
0.00940564	2.08674
0.00964819	2.1235
0.0103812	2.16941
0.0108693	2.20615
0.0118479	2.25204
0.0123368	2.27958
0.0133154	2.32547
0.0138043	2.35301
0.0147837	2.3897
0.0155182	2.41722
0.0164967	2.4631
0.017232	2.48142
0.0184577	2.50889
0.019193	2.52721
0.0204187	2.55468
0.0213995	2.57298
0.0226252	2.60045
0.0233605	2.61877
0.0248326	2.63702
0.0258142	2.64612
0.0270406	2.66439
0.0280215	2.68269
0.0292487	2.69177
0.0302296	2.71006
0.0314568	2.71914
0.0339105	2.74649
0.0356281	2.76471
0.0361201	2.75547
0.0380833	2.77367
0.0385745	2.77362
0.0407834	2.79179
0.0432378	2.80994
0.045693	2.8189
0.0479026	2.82788
0.0503578	2.83683
0.052813	2.84579
0.0552682	2.85474
0.0569866	2.86377
0.0574778	2.86372
0.0594426	2.86353
0.0594433	2.85433
0.061161	2.87256
0.0618978	2.87248
0.0636169	2.87231
0.0643537	2.87224
0.0668097	2.872
0.0673001	2.88115
0.0692649	2.88095
0.0697561	2.88091
0.0717208	2.88071
0.0736848	2.88971
0.0761416	2.88028
0.0785968	2.88923
0.0810527	2.88899
0.0835087	2.88875
0.085719	2.88853
0.088175	2.88829
0.0906309	2.88804
0.0930869	2.8878
