Adsorption isotherm of N-Hexane on Ni(bodc)(ted)0.5
DOI: 10.1039/B814498b
Adsorbate N-Hexane: InChIKey VLKZOEOYAKHREP-UHFFFAOYSA-N
Temperature: 343 K
Tabular data in the source: 0
pressure (bar)	uptake (mmol/g)
0.00777714	1.3457
0.0092585	1.43346
0.0111102	1.52123
0.0129619	1.59924
0.0151839	1.67725
0.0177763	1.73576
0.020739	1.79427
0.0240721	1.84303
0.0274052	1.88203
0.0307382	1.93079
0.0329603	1.95029
0.0362933	1.97955
0.0399967	2.0088
0.0433298	2.0283
0.0481442	2.06731
0.0518476	2.08681
0.0551806	2.10632
0.058884	2.12582
0.0622171	2.14532
0.0655502	2.15507
0.0688832	2.17458
0.0725866	2.19408
0.0759197	2.20383
0.0777714	2.21358
0.0814748	2.23308
0.0848078	2.24284
0.0885112	2.26234
0.092585	2.27209
0.0962884	2.29159
0.0996214	2.30135
0.103325	2.3111
0.107028	2.34035
0.110361	2.34035
0.114065	2.3501
0.117398	2.36961
0.120731	2.37936
0.124064	2.38911
0.127767	2.40861
0.131471	2.41836
0.137026	2.43787
0.140729	2.44762
0.144433	2.45737
0.147766	2.46712
