Adsorption isotherm of Cyclohexane on Ni(bodc)(ted)0.5
DOI: 10.1039/B814498b
Adsorbate Cyclohexane: InChIKey XDTMQSROBMDMFD-UHFFFAOYSA-N
Temperature: 413 K
Tabular data in the source: 0
pressure (bar)	uptake (mmol/g)
0.00562133	0.330529
0.00708958	0.394762
0.00880267	0.468167
0.0105165	0.532375
0.0122311	0.587387
0.0141906	0.651571
0.0163949	0.724928
0.0186029	0.7523
0.0208095	0.798067
0.0227705	0.843857
0.024977	0.889623
0.0271851	0.916996
0.0293924	0.953565
0.0318461	0.980914
0.0340542	1.00829
0.0365071	1.04483
0.0387159	1.06301
0.0411704	1.08116
0.04338	1.09014
0.0460793	1.11746
0.0482889	1.12644
0.0507433	1.14459
0.0529529	1.15357
0.0554073	1.17172
0.0576169	1.1807
0.0600714	1.19885
0.062281	1.20783
0.0647362	1.21679
0.0669458	1.22577
0.0691554	1.23475
0.0716106	1.2437
0.0740658	1.25266
0.0762754	1.26163
0.0787313	1.26139
0.0811865	1.27035
0.0836425	1.27011
0.0851153	1.27916
0.0875713	1.27892
0.0897809	1.28789
0.0922368	1.28765
