Adsorption isotherm of N-Hexane on Ni(bodc)(ted)0.5
DOI: 10.1039/B814498b
Adsorbate N-Hexane: InChIKey VLKZOEOYAKHREP-UHFFFAOYSA-N
Temperature: 393 K
Tabular data in the source: 0
pressure (bar)	uptake (mmol/g)
0.0018517	0.185278
0.00296272	0.282792
0.0037034	0.370556
0.00518476	0.46807
0.00629578	0.555833
0.00814748	0.643596
0.00962884	0.73136
0.0118509	0.809371
0.0144433	0.887383
0.0170356	0.945892
0.019628	1.01415
0.0229611	1.06291
0.0259238	1.11167
0.0292569	1.16042
0.0333306	1.19943
0.0366637	1.22868
0.0403671	1.25794
0.0437001	1.27744
0.0477738	1.3067
0.0514772	1.3262
0.0548103	1.3457
0.0585137	1.35545
0.0622171	1.37496
0.0659205	1.39446
0.0692536	1.40421
0.072957	1.41396
0.0770307	1.43346
0.0807341	1.44322
0.0844375	1.45297
0.0877706	1.46272
0.0918443	1.47247
0.0955477	1.48222
0.0992511	1.48222
0.102954	1.49197
0.106288	1.50173
0.109991	1.51148
0.113694	1.52123
0.117027	1.53098
0.120731	1.53098
0.124434	1.54073
0.128138	1.55048
0.131841	1.55048
0.135174	1.56023
0.138877	1.56023
0.142581	1.56999
0.146284	1.57974
