Adsorption isotherm of Methanol on Ni(bodc)(ted)0.5
DOI: 10.1039/B814498b
Adsorbate Methanol: InChIKey OKKJLVBELUTLKV-UHFFFAOYSA-N
Temperature: 313 K
Tabular data in the source: 0
pressure (bar)	uptake (mmol/g)
0.00432291	0.234528
0.00864841	0.390597
0.014213	0.494117
0.0225598	0.649397
0.0268905	0.648548
0.029983	0.674094
0.0327653	0.725854
0.0358578	0.7514
0.0389502	0.776947
0.0420419	0.828646
0.044825	0.854253
0.0479158	0.932105
0.0510091	0.931498
0.0537923	0.957105
0.0568847	0.982652
0.059667	1.03441
0.0630671	1.1122
0.0661587	1.1639
0.0689402	1.24182
0.0720309	1.31967
0.074503	1.39764
0.0772835	1.50171
0.0800641	1.60577
0.083154	1.70978
0.086243	1.83994
0.0890236	1.944
0.0918041	2.04807
0.0945838	2.17829
0.0979813	2.33454
0.100761	2.46476
0.103231	2.62119
0.1057	2.77763
0.109714	3.01222
0.112183	3.16865
0.114653	3.32508
0.117122	3.48151
