Adsorption isotherm of Methanol on Ni(bodc)(ted)0.5
DOI: 10.1039/B814498b
Adsorbate Methanol: InChIKey OKKJLVBELUTLKV-UHFFFAOYSA-N
Temperature: 353 K
Tabular data in the source: 0
pressure (bar)	uptake (mmol/g)
0.0423754	0.0962991
0.0488714	0.0950249
0.0513461	0.0945394
0.0618635	0.0924763
0.0674315	0.0913841
0.0736173	0.116324
0.0767107	0.115717
0.085372	0.114018
0.0924876	0.086469
0.0965064	0.164139
0.10424	0.162622
0.109498	0.161591
0.112592	0.160984
0.11352	0.160802
0.116613	0.160195
