Adsorption isotherm of Ethanol on Ni(bodc)(ted)0.5
DOI: 10.1039/B814498b
Adsorbate Ethanol: InChIKey LFQSCWFLJHTTHZ-UHFFFAOYSA-N
Temperature: 323 K
Tabular data in the source: 0
pressure (bar)	uptake (mmol/g)
0.00347866	0.109446
0.0101587	0.273616
0.0115507	0.291857
0.0129427	0.310098
0.0143343	0.34658
0.0155867	0.383062
0.0169783	0.419544
0.0182307	0.456026
0.0196223	0.492508
0.0210139	0.528991
0.0222663	0.565473
0.0235183	0.620196
0.0249099	0.656678
0.0261619	0.711401
0.0274139	0.766124
0.0288051	0.820847
0.0300567	0.893812
0.0313083	0.966776
0.0325599	1.03974
0.0338112	1.13095
0.0349231	1.22215
0.0360351	1.31336
0.0371471	1.40456
0.0382586	1.51401
0.039231	1.62345
0.0403426	1.7329
0.0414538	1.86059
0.0424261	1.97003
0.043398	2.09772
0.04437	2.22541
0.0453419	2.3531
0.0463135	2.49902
0.0472855	2.62671
0.048119	2.71792
0.0490905	2.86385
0.0502017	2.99153
0.0511737	3.11922
0.052146	3.22867
0.0531179	3.35635
