Adsorption isotherm of N-Butane on MIL-53(Cr)
DOI: 10.1039/C001173h
Adsorbate N-Butane: InChIKey IJDNQMDRQITEOD-UHFFFAOYSA-N
Temperature: 303 K
Tabular data in the source: 0
pressure (bar)	uptake (molecules/unitcell)
0.0227273	0.628763
0.0681818	2.38127
0.0984848	2.43478
0.136364	2.43478
0.174242	2.48829
0.19697	2.55518
0.212121	2.71572
0.227273	2.94314
0.25	3.10368
0.272727	3.22408
0.310606	3.25084
0.348485	3.31773
0.363636	3.37124
0.401515	3.37124
0.462121	3.35786
0.484848	3.41137
0.5	3.41137
0.522727	3.41137
0.583333	3.46488
0.606061	3.47826
0.628788	3.47826
0.810606	3.42475
0.931818	3.41137
1.09848	3.43813
1.20455	3.43813
1.40152	3.43813
1.69697	3.47826
1.88636	3.46488
2.10606	3.46488
2.5303	3.47826
2.98485	3.47826
