Adsorption isotherm of Methane on MIL-53(Cr)
DOI: 10.1039/C001173h
Adsorbate Methane: InChIKey VNWKTOKETHGBQD-UHFFFAOYSA-N
Temperature: 303 K
Tabular data in the source: 0
pressure (bar)	uptake (molecules/unitcell)
1.49667	1.2339
1.86956	1.61356
2.49689	1.92203
2.87234	2.15932
3.37438	2.39661
4.37975	2.8
5.38597	3.15593
6.26861	3.34576
7.27526	3.67797
8.91354	4.08136
11.0594	4.41356
12.3218	4.60339
14.4686	4.88814
15.9858	4.98305
18.1326	5.2678
19.3967	5.36271
21.4186	5.55254
22.9363	5.62373
24.4527	5.7661
26.3497	5.86102
29.8893	6.12203
32.6724	6.21695
34.8226	6.31186
36.8457	6.43051
38.8698	6.50169
41.147	6.57288
42.9178	6.64407
44.9423	6.69153
