Adsorption isotherm of Ethane on MIL-47(V)
DOI: 10.1039/C001173h
Adsorbate Ethane: InChIKey OTMSDBZUPAUEDD-UHFFFAOYSA-N
Temperature: 303 K
Tabular data in the source: 0
pressure (bar)	uptake (molecules/unitcell)
0.181159	1.5102
0.362319	1.14286
0.543478	1.91837
0.724638	2.4898
0.905797	2.73469
1.08696	3.02041
1.63043	3.46939
1.99275	3.7551
2.35507	4
3.26087	4.20408
5.25362	4.73469
7.42754	4.93878
9.42029	5.14286
11.5942	5.34694
13.4058	5.46939
15.2174	5.55102
17.3913	5.67347
19.3841	5.71429
21.3768	5.79592
24.6377	5.95918
25.5435	5.95918
