Adsorption isotherm of N-Butane on MIL-47(V)
DOI: 10.1039/C001173h
Adsorbate N-Butane: InChIKey IJDNQMDRQITEOD-UHFFFAOYSA-N
Temperature: 303 K
Tabular data in the source: 0
pressure (bar)	uptake (molecules/unitcell)
0.0369004	0.0369004
0.147601	3.71429
0.258303	3.84127
0.332103	3.90476
0.516605	4.03175
