Adsorption isotherm of Methane on MIL-47(V)
DOI: 10.1039/C001173h
Adsorbate Methane: InChIKey VNWKTOKETHGBQD-UHFFFAOYSA-N
Temperature: 303 K
Tabular data in the source: 0
pressure (bar)	uptake (molecules/unitcell)
1.63043	1.34694
2.53623	2.08163
3.44203	2.69388
4.52899	3.18367
5.43478	3.59184
7.06522	4.12245
9.05797	4.73469
12.5	5.42857
16.1232	6
19.5652	6.44898
23.0072	6.77551
26.6304	7.10204
30.0725	7.26531
35.1449	7.59184
37.1377	7.71429
39.1304	7.7551
41.1232	7.83673
43.1159	7.95918
45.1087	8
50.1812	8.20408
