Adsorption isotherm of N-propane on MIL-53(Cr)
DOI: 10.1039/C001173h
Adsorbate N-propane: InChIKey ATUOYWHBWRKTHZ-UHFFFAOYSA-N
Temperature: 303 K
Tabular data in the source: 0
pressure (bar)	uptake (molecules/unitcell)
0.261905	2.65149
0.571429	3.15543
0.690476	3.34021
0.880952	3.54191
1.19048	3.69349
1.52381	3.79479
1.80952	3.86243
2.14286	3.91339
2.45238	3.98108
2.7381	4.01517
3.07143	4.04935
3.33333	4.0834
3.5	4.11726
3.61905	4.11749
4.04762	4.13506
4.57143	4.18637
5.42857	4.23831
5.83333	4.27262
6.16667	4.29002
6.61905	4.30764
6.97619	4.32509
7.57143	4.34297
8.11905	4.37755
8.61905	4.39526
9.02381	4.4128
