Adsorption isotherm of N-propane on MIL-47(V)
DOI: 10.1039/C001173h
Adsorbate N-propane: InChIKey ATUOYWHBWRKTHZ-UHFFFAOYSA-N
Temperature: 303 K
Tabular data in the source: 0
pressure (bar)	uptake (molecules/unitcell)
0	0.888889
0.0369004	1.96825
0.147601	2.92063
0.258303	3.14286
0.369004	3.33333
0.553506	3.55556
0.774908	3.71429
0.99631	3.80952
1.14391	3.84127
1.43911	3.90476
1.73432	4.03175
2.10332	4.09524
2.36162	4.12698
2.61993	4.19048
2.80443	4.22222
3.06273	4.22222
5.01845	4.4127
8.56089	4.66667
