Adsorption isotherm of N-Butane on MIL-53(Cr)
DOI: 10.1039/C001173h
Adsorbate N-Butane: InChIKey IJDNQMDRQITEOD-UHFFFAOYSA-N
Temperature: 303 K
Tabular data in the source: 0
pressure (bar)	uptake (molecules/unitcell)
0	0
0.0542005	2.35533
0.0813008	2.41104
0.162602	2.45274
0.352304	2.50822
0.460705	2.53594
0.650407	2.53568
1.43631	2.53458
2.08672	2.53368
2.60163	2.53296
3.22493	2.54603
3.71274	2.53141
4.30894	2.53058
4.85095	2.52982
5.44715	2.54293
6.01626	2.54214
6.50407	2.54146
7.10027	2.54063
7.61518	2.53991
8.15718	2.53915
8.69919	2.55234
