Adsorption isotherm of N-Butane on MIL-53(Cr)
DOI: 10.1039/C001173h
Adsorbate N-Butane: InChIKey IJDNQMDRQITEOD-UHFFFAOYSA-N
Temperature: 303 K
Tabular data in the source: 0
pressure (bar)	uptake (molecules/unitcell)
0.0813008	0.0813008
0.108401	2.92668
0.135501	2.96845
0.189702	3.12169
0.271003	3.2052
0.325203	3.31662
0.352304	3.35839
0.406504	3.34438
0.487805	3.40002
0.569106	3.45565
0.623306	3.48345
2.08672	3.46747
3.19783	3.46593
4.28184	3.46442
5.39295	3.44893
6.50407	3.46132
7.61518	3.47371
8.69919	3.4722
