Adsorption isotherm of Ethane on MIL-47(V)
DOI: 10.1039/C001173h
Adsorbate Ethane: InChIKey OTMSDBZUPAUEDD-UHFFFAOYSA-N
Temperature: 303 K
Tabular data in the source: 0
pressure (bar)	uptake (molecules/unitcell)
0.181159	0.181159
0.362319	2.4898
1.63043	4.73469
3.26087	5.55102
4.52899	5.7551
5.25362	5.95918
9.23913	6.32653
12.5	6.57143
15.7609	6.77551
19.3841	6.93878
23.1884	7.06122
26.4493	7.14286
30.0725	7.18367
35.1449	7.30612
37.1377	7.38776
39.1304	7.34694
40.942	7.38776
43.2971	7.46939
45.2899	7.46939
47.1014	7.46939
50	7.46939
