Adsorption isotherm of N-propane on MIL-53(Cr)
DOI: 10.1039/C001173h
Adsorbate N-propane: InChIKey ATUOYWHBWRKTHZ-UHFFFAOYSA-N
Temperature: 303 K
Tabular data in the source: 0
pressure (bar)	uptake (molecules/unitcell)
0.0808625	0.0808625
0.134771	2.77875
0.188679	3.02787
0.296496	3.18118
0.431267	3.4878
0.512129	3.5453
0.619946	3.62195
0.808625	3.7561
1.02426	3.83275
1.2938	3.89024
1.72507	3.98606
2.10243	4.06272
2.34501	4.08188
2.83019	4.15854
3.20755	4.19686
3.50404	4.21603
3.74663	4.25436
4.31267	4.29268
4.66307	4.31185
5.06739	4.33101
5.41779	4.33101
5.57951	4.35017
5.95687	4.3885
6.49596	4.40767
6.95418	4.42683
7.57412	4.46516
8.14016	4.44599
8.67925	4.42683
