Adsorption isotherm of N-Butane on MIL-47(V)
DOI: 10.1039/C001173h
Adsorbate N-Butane: InChIKey IJDNQMDRQITEOD-UHFFFAOYSA-N
Temperature: 303 K
Tabular data in the source: 0
pressure (bar)	uptake (molecules/unitcell)
0.0738007	3.65079
0.627306	4
0.95941	4.15873
1.47601	4.19048
1.99262	4.28571
2.50923	4.28571
2.98893	4.28571
3.46863	4.31746
3.98524	4.38095
4.50185	4.44444
5.01845	4.53968
5.97786	4.50794
6.97417	4.53968
7.97048	4.57143
8.96679	4.63492
