Adsorption isotherm of N-propane on MIL-53(Cr)
DOI: 10.1039/C001173h
Adsorbate N-propane: InChIKey ATUOYWHBWRKTHZ-UHFFFAOYSA-N
Temperature: 303 K
Tabular data in the source: 0
pressure (bar)	uptake (molecules/unitcell)
0.0808625	2.14634
0.107817	2.24216
0.242588	2.47213
0.404313	2.51045
0.539084	2.54878
0.673854	2.56794
0.808625	2.58711
1.02426	2.60627
1.21294	2.60627
1.75202	2.6446
2.10243	2.68293
2.39892	2.70209
2.74933	2.72125
3.18059	2.75958
3.61186	2.77875
3.96226	2.75958
4.28571	2.77875
4.58221	2.77875
5.06739	2.77875
5.41779	2.79791
5.71429	2.79791
5.98383	2.81707
6.49596	2.83624
6.92722	2.83624
7.57412	2.81707
8.11321	2.83624
8.67925	2.8554
