Adsorption isotherm of Ethane on MIL-53(Cr)
DOI: 10.1039/C001173h
Adsorbate Ethane: InChIKey OTMSDBZUPAUEDD-UHFFFAOYSA-N
Temperature: 303 K
Tabular data in the source: 0
pressure (bar)	uptake (molecules/unitcell)
0.116284	0.569492
0.218837	1.89831
0.221841	1.7322
0.234284	1.04407
0.239005	0.783051
0.247586	0.308475
0.351427	1.5661
0.456554	2.75254
1.57305	4.01017
2.32482	4.43729
3.45977	4.67458
4.34284	4.84068
5.47951	4.98305
8.7655	5.2678
12.3064	5.45763
15.8485	5.57627
19.3915	5.64746
22.8076	5.74237
26.3506	5.81356
30.021	5.83729
