Adsorption isotherm of Methane on MIL-53(Cr)
DOI: 10.1039/C001173h
Adsorbate Methane: InChIKey VNWKTOKETHGBQD-UHFFFAOYSA-N
Temperature: 303 K
Tabular data in the source: 0
pressure (bar)	uptake (molecules/unitcell)
0.752628	0.379661
1.75756	0.80678
2.51105	1.13898
2.88693	1.35254
3.39026	1.51864
4.89981	2.04068
6.41064	2.49153
8.17636	2.84746
9.56361	3.1322
11.5834	3.44068
12.7196	3.60678
14.1081	3.82034
15.7507	3.98644
17.3924	4.2
18.6561	4.31864
20.2991	4.46102
21.5623	4.60339
22.9526	4.72203
24.3433	4.81695
25.8601	4.93559
27.2508	5.03051
28.8942	5.14915
30.2858	5.19661
31.6765	5.29153
32.941	5.36271
34.3325	5.41017
35.7241	5.45763
36.8612	5.57627
38.5063	5.6
39.7704	5.69492
41.162	5.74237
42.2995	5.83729
43.5658	5.81356
44.3244	5.86102
