Adsorption isotherm of N-propane on MIL-47(V)
DOI: 10.1039/C001173h
Adsorbate N-propane: InChIKey ATUOYWHBWRKTHZ-UHFFFAOYSA-N
Temperature: 303 K
Tabular data in the source: 0
pressure (bar)	uptake (molecules/unitcell)
0	3.65079
0.0369004	2.09524
0.0738007	2.98413
0.295203	3.87302
0.553506	4.06349
0.774908	4.19048
0.99631	4.25397
1.51292	4.57143
2.02952	4.63492
2.50923	4.73016
2.98893	4.79365
3.46863	4.8254
3.94834	4.88889
4.46494	4.88889
4.98155	4.95238
5.97786	5.01587
6.93727	5.04762
7.97048	5.14286
8.96679	5.11111
9.9262	5.1746
