Adsorption isotherm of N-propane on MIL-53(Cr)
DOI: 10.1039/C001173h
Adsorbate N-propane: InChIKey ATUOYWHBWRKTHZ-UHFFFAOYSA-N
Temperature: 303 K
Tabular data in the source: 0
pressure (bar)	uptake (molecules/unitcell)
0.047619	2.04707
0.0714286	2.3659
0.166667	2.4332
0.309524	2.53413
0.333333	2.60129
0.357143	2.83624
0.404762	2.92022
0.52381	3.49091
0.595238	3.65883
0.714286	3.70939
0.809524	3.77668
1.02381	3.84419
1.30952	3.89506
1.61905	3.97953
2.11905	4.08113
2.64286	4.14922
3.21429	4.23418
3.7619	4.28554
4.30952	4.32011
4.95238	4.33809
5.42857	4.37254
6	4.40716
6.5	4.44165
7.02381	4.4594
7.61905	4.49407
8.16667	4.47831
8.71429	4.49611
