Adsorption isotherm of N-Butane on MIL-53(Cr)
DOI: 10.1039/C001173h
Adsorbate N-Butane: InChIKey IJDNQMDRQITEOD-UHFFFAOYSA-N
Temperature: 303 K
Tabular data in the source: 0
pressure (bar)	uptake (molecules/unitcell)
0.00757576	0.227425
0.0984848	2.19398
0.189394	2.46154
0.265152	3.27759
0.363636	3.38462
0.469697	3.45151
0.568182	3.49164
0.674242	3.53177
0.787879	3.57191
0.886364	3.59866
0.992424	3.6388
1.09848	3.6388
1.19697	3.66555
1.31061	3.67893
1.40909	3.70569
1.50758	3.71906
1.61364	3.73244
1.70455	3.74582
1.78788	3.77258
1.88636	3.77258
