Adsorption isotherm of Ethane on MIL-53(Cr)
DOI: 10.1039/C001173h
Adsorbate Ethane: InChIKey OTMSDBZUPAUEDD-UHFFFAOYSA-N
Temperature: 303 K
Tabular data in the source: 0
pressure (bar)	uptake (molecules/unitcell)
0.229564	1.30508
0.344561	1.94576
0.717443	2.32542
0.965458	2.61017
1.08775	2.84746
1.21004	3.08475
1.58507	3.34576
2.2124	3.65424
2.71573	3.82034
3.21948	3.96271
4.35529	4.15254
5.23793	4.34237
6.12229	4.43729
7.25896	4.57966
8.39648	4.67458
9.53358	4.79322
10.5449	4.86441
11.6833	4.91186
12.5681	4.98305
13.5795	5.05424
14.5917	5.07797
15.8563	5.14915
17.6275	5.19661
18.5132	5.22034
19.6516	5.2678
21.9288	5.33898
23.7001	5.38644
25.4718	5.41017
27.3692	5.48136
29.3941	5.50508
31.2924	5.52881
