Adsorption isotherm of Methane on MIL-47(V)
DOI: 10.1039/C001173h
Adsorbate Methane: InChIKey VNWKTOKETHGBQD-UHFFFAOYSA-N
Temperature: 303 K
Tabular data in the source: 0
pressure (bar)	uptake (molecules/unitcell)
0.362319	0.204082
1.44928	0.693878
2.17391	1.06122
3.26087	1.34694
6.34058	2.36735
9.42029	3.14286
12.3188	3.71429
15.3986	4.16327
18.2971	4.57143
21.3768	4.85714
24.2754	5.14286
27.5362	5.38776
30.4348	5.59184
33.3333	5.79592
36.413	5.95918
39.4928	6.12245
42.3913	6.2449
46.0145	6.40816
49.0942	6.57143
