Adsorption isotherm of Methanol on HCN-900-10H5R
DOI: 10.1038/ncomms8221
Article source: Figure 4
Adsorbate Methanol: InChIKey OKKJLVBELUTLKV-UHFFFAOYSA-N
Kind: experiment
Temperature: 298 K
Tabular data in the source: 0
pressure (bar)	uptake (mg/g)
0.000199	3.24
0.001761	15.53
0.004885	67.62
0.007442	104.83
0.010035	148.18
0.014905	225.07
0.019889	293.38
0.029988	419.47
0.040195	505.1
0.049809	568.89
0.049817	568.92
0.070104	638.92
0.085263	666.32
0.099188	684.92
0.118804	711.24
0.129193	728.12
0.13965	750.17
0.149729	777.33
