Adsorption isotherm of Nitrogen on HCN-900-20H2R
DOI: 10.1038/ncomms8221
Article source: Figure 3
Adsorbate Nitrogen: InChIKey IJGRMHOSHXDMSA-UHFFFAOYSA-N
Kind: experiment
Temperature: 77 K
Tabular data in the source: 0
pressure (bar)	uptake (cm3(STP)/g)
0.000882	37.38
0.001155	4.18
0.001439	113.35
0.001712	227.08
0.001996	310.32
0.00227	270.75
0.002543	148.83
0.003101	349.9
0.004762	390.38
0.00615	430.41
0.010315	467.72
0.030853	544.59
0.058059	608.28
0.078314	646.49
0.101082	685.16
0.130821	730.79
0.145513	748.56
0.161421	772.92
0.203207	820.2
0.2095	827.65
0.253779	870.5
0.255987	873.56
0.304117	905.88
0.332539	923.74
0.338263	925.92
0.405128	955.88
0.405786	956.15
0.45348	969.78
0.478832	977.43
0.505338	1081.14
0.554744	995.62
0.556963	1095.25
0.607464	1106.8
0.631042	1014.74
0.65769	1120.88
0.705718	1039.65
0.709457	1134.97
0.76013	1150.49
0.767841	1063.12
0.810235	1170.99
0.828271	1090.01
0.835911	1185.51
0.861029	1201.4
0.869632	1117.76
0.886584	1223.78
0.910425	1160.07
0.914337	1254.47
0.93218	1288.05
0.946284	1233.17
0.957075	1365.68
0.974473	1325.24
0.976682	1477.24
0.98726	1542.23
0.991222	1418.03
1.004	1572.2
