Adsorption isotherm of Toluene on HCN-900-10H5R
DOI: 10.1038/ncomms8221
Article source: Figure 4
Adsorbate Toluene: InChIKey YXFVVABEGXRONW-UHFFFAOYSA-N
Kind: experiment
Temperature: 298 K
Tabular data in the source: 0
pressure (bar)	uptake (mg/g)
0.000104	4.04
0.000794	76.47
0.001382	138.29
0.001858	222.71
0.002399	314.98
0.003314	499.03
0.004657	640.67
0.006903	724.21
0.00913	749.63
0.011338	763.98
0.015857	789.92
0.019155	807.07
0.022537	823.3
0.026946	850.53
0.029091	867.79
0.03131	890.18
0.033522	925.5
