Adsorption isotherm of Methanol on HCN-900-20H2R
DOI: 10.1038/ncomms8221
Article source: Figure 4
Adsorbate Methanol: InChIKey OKKJLVBELUTLKV-UHFFFAOYSA-N
Kind: experiment
Temperature: 298 K
Tabular data in the source: 0
pressure (bar)	uptake (mg/g)
0.000209	3.67
0.002194	9.16
0.005141	35.64
0.007939	65.17
0.010593	100.6
0.014711	182.06
0.019683	249.88
0.029958	401.67
0.039942	541
0.049887	665.48
0.069999	871.78
0.085057	968.76
0.098956	1020.08
0.118809	1081.38
0.12934	1118.45
0.13941	1159.99
0.150025	1228.01
