Adsorption isotherm of Methanol on HCN-900-3H2R
DOI: 10.1038/ncomms8221
Article source: Figure 4
Adsorbate Methanol: InChIKey OKKJLVBELUTLKV-UHFFFAOYSA-N
Kind: experiment
Temperature: 298 K
Tabular data in the source: 0
pressure (bar)	uptake (mg/g)
0.000366	2.59
0.001858	9.06
0.005014	67.93
0.007371	94.45
0.009895	120.65
0.015141	157.21
0.019887	175.66
0.029777	196.7
0.039998	208.05
0.049954	215.19
0.069923	227.53
0.084884	234.49
0.099291	241.71
0.118944	250.93
0.129496	256.77
0.140116	262.94
0.150069	270.23
