Adsorption isotherm of Toluene on HCN-900-20H2R
DOI: 10.1038/ncomms8221
Article source: Figure 4
Adsorbate Toluene: InChIKey YXFVVABEGXRONW-UHFFFAOYSA-N
Kind: experiment
Temperature: 298 K
Tabular data in the source: 0
pressure (bar)	uptake (mg/g)
4.9e-05	3.08
0.000266	38.5
0.00087	170.62
0.001274	291.71
0.001796	444.74
0.002417	587.9
0.003526	799
0.004675	926.46
0.006868	1051.59
0.009109	1099.46
0.011303	1129.91
0.015801	1182.1
0.019074	1211.38
0.022511	1249.44
0.026923	1311.2
0.029192	1352.5
0.031368	1409.5
0.033679	1499.19
