Adsorption isotherm of Toluene on HCN-900-3H2R
DOI: 10.1038/ncomms8221
Article source: Figure 4
Adsorbate Toluene: InChIKey YXFVVABEGXRONW-UHFFFAOYSA-N
Kind: experiment
Temperature: 298 K
Tabular data in the source: 0
pressure (bar)	uptake (mg/g)
0.000126	3.58
0.00042	6.19
0.000842	28.26
0.0013	56.72
0.001905	103.77
0.002427	155.46
0.003462	256.13
0.004645	283.01
0.006962	296.54
0.009121	304.76
0.011302	308.01
0.015838	318.44
0.019161	325.56
0.022517	331.46
0.026975	340.69
0.029108	346.72
0.031344	355.12
0.033662	365.72
