Adsorption isotherm of Nitrogen on CuBTC
DOI: 10.1002/hlca.201200466
Article source: Figure 4a
Adsorbate Nitrogen: InChIKey IJGRMHOSHXDMSA-UHFFFAOYSA-N
Kind: experiment
Isotherm type: excess
Temperature: 77 K
Tabular data in the source: 0
pressure (bar)	uptake (cm3(STP)/g)
0.014488	405.862
0.032598	411.379
0.045275	418.966
0.079684	425.862
0.103227	433.448
0.12858	436.207
0.155745	439.655
0.170233	444.483
0.199209	446.552
0.239051	447.931
0.275271	449.31
0.313302	452.759
0.34771	454.138
0.385741	454.828
0.409284	456.207
0.43826	456.897
0.461803	458.966
0.49259	459.655
0.530621	460.345
0.552353	461.724
0.581328	463.103
0.624792	463.103
0.668256	465.172
0.697232	465.172
0.733452	466.552
0.776916	466.552
0.811324	467.241
0.836678	467.241
0.854788	467.241
0.87652	466.552
0.89463	467.931
0.921795	469.31
0.947149	468.621
0.963448	469.31
1.00148	470
