Adsorption isotherm of Nitrogen on CuBTC
DOI: 10.1002/hlca.201200466
Article source: Figure 4b
Adsorbate Nitrogen: InChIKey IJGRMHOSHXDMSA-UHFFFAOYSA-N
Kind: experiment
Isotherm type: excess
Temperature: 77 K
Tabular data in the source: 0
pressure (bar)	uptake (cm3(STP)/g)
0.013498	271.286
0.026096	274.714
0.044093	278.714
0.054892	282.714
0.071089	284.143
0.089087	285.857
0.099885	289
0.128681	290.143
0.162876	291.571
0.180873	294.714
0.227666	294.429
0.236665	297
0.254662	295.857
0.274459	298.143
0.290657	297
0.319453	300.143
0.350048	300.714
0.33925	298.714
0.373445	299.571
0.411239	302.143
0.434636	300.714
0.447234	303
0.47243	303.857
0.495827	304.143
0.515624	305.286
0.515624	302.429
0.54262	303
0.551618	305.571
0.576815	306.143
0.575015	303.286
0.60561	303.857
0.632606	307
0.6722	308.143
0.6722	306.143
0.700996	305.857
0.708195	308.429
0.726192	306.143
0.736991	308.429
0.758588	307
0.783784	306.429
0.798182	309
0.821578	309.286
0.839576	309.286
0.857573	307.286
0.864772	309.857
0.886369	309.571
0.915165	310.143
0.907966	308.714
0.933162	310.143
0.952959	311
0.974556	310.429
1.00155	312.143
