Adsorption isotherm of Nitrogen on IRMOF-1
DOI: 10.1002/hlca.201200466
Adsorbate Nitrogen: InChIKey IJGRMHOSHXDMSA-UHFFFAOYSA-N
Temperature: 393 K
Tabular data in the source: 0
pressure (bar)	uptake (cm3(STP)/g)
0.0126608	270.426
0.0408298	277.469
0.0859002	285.215
0.153506	290.497
0.22252	293.666
0.287309	296.483
0.368999	298.947
0.466182	301.412
0.539421	302.821
0.626745	303.877
0.702802	305.285
0.778858	307.046
0.868999	308.807
0.926745	309.159
0.990126	311.624
