Adsorption isotherm of Nitrogen on CuBTC
DOI: 10.1002/hlca.201200466
Article source: Figure 4b
Adsorbate Nitrogen: InChIKey IJGRMHOSHXDMSA-UHFFFAOYSA-N
Kind: experiment
Isotherm type: excess
Temperature: 77 K
Tabular data in the source: 0
pressure (bar)	uptake (cm3(STP)/g)
0.011698	295.571
0.026096	299.571
0.040494	303.857
0.053092	307.286
0.06749	310.429
0.087287	312.143
0.096286	315
0.13228	317.286
0.164676	321.571
0.193471	322.429
0.224067	322.429
0.236665	324.714
0.247463	324.429
0.26726	326.714
0.283458	324.714
0.312254	328.143
0.323052	327.286
0.344649	329
0.371645	328.143
0.387843	329.857
0.40584	331
0.432836	329.857
0.441835	331.286
0.465231	332.429
0.494027	332.143
0.519223	333.857
0.519223	330.714
0.53722	331.286
0.557018	333.286
0.573215	331.571
0.584014	333.286
0.603811	333
0.630807	335.571
0.657803	333.857
0.6722	334.714
0.699196	336.429
0.713594	333.857
0.735191	335.571
0.756788	334.143
0.785584	334.714
0.795482	337.429
0.81258	337.571
0.825178	336.429
0.839576	338.143
0.853974	334.429
0.861173	337.286
0.882769	338.714
0.87917	335.857
0.915165	337
0.94396	339.286
0.94576	336.143
0.969157	339.286
0.996153	338.429
1.01235	341.571
