Adsorption isotherm of Nitrogen on CuBTC
DOI: 10.1002/hlca.201200466
Article source: Figure 4a
Adsorbate Nitrogen: InChIKey IJGRMHOSHXDMSA-UHFFFAOYSA-N
Kind: experiment
Isotherm type: excess
Temperature: 77 K
Tabular data in the source: 0
pressure (bar)	uptake (cm3(STP)/g)
0.010866	79.6552
0.028976	81.0345
0.048897	83.1034
0.074251	83.7931
0.094172	85.1724
0.130391	85.8621
0.1648	88.6207
0.191965	89.3103
0.244484	90.6897
0.224563	87.2414
0.27346	91.3793
0.286137	90
0.318735	92.069
0.342277	93.4483
0.378497	91.3793
0.389363	94.1379
0.411095	94.1379
0.43826	92.069
0.45637	96.2069
0.472669	96.8966
0.517944	92.7586
0.505267	103.793
0.541487	93.4483
0.548731	105.172
0.575895	107.241
0.575895	94.1379
0.60306	93.4483
0.628414	108.621
0.63928	94.8276
0.668256	96.2069
0.662823	107.931
0.691799	108.621
0.709909	98.2759
0.728019	97.5862
0.738885	110
0.756995	98.9655
0.791403	99.6552
0.796836	110
0.824001	101.724
0.82219	112.759
0.842111	112.759
0.849355	101.724
0.87652	103.793
0.89463	115.517
0.909118	106.552
0.914551	119.655
0.93085	125.862
0.932661	109.31
0.945338	134.828
0.986991	124.483
0.996046	139.655
0.983369	156.897
1.00329	168.621
