Adsorption isotherm of Nitrogen on CuBTC
DOI: 10.1002/hlca.201200466
Article source: Figure 4a
Adsorbate Nitrogen: InChIKey IJGRMHOSHXDMSA-UHFFFAOYSA-N
Kind: experiment
Isotherm type: excess
Temperature: 77 K
Tabular data in the source: 0
pressure (bar)	uptake (cm3(STP)/g)
0.014488	156.897
0.032598	159.655
0.067007	164.483
0.099605	166.552
0.137635	168.621
0.170233	170.69
0.191965	172.759
0.233618	174.828
0.271649	176.207
0.315113	178.276
0.349521	177.586
0.373064	176.897
0.398418	180.345
0.43826	177.586
0.45637	183.103
0.49259	185.862
0.5107	195.517
0.517944	178.966
0.541487	179.655
0.550542	193.448
0.577706	194.138
0.577706	181.724
0.63928	181.034
0.632036	194.138
0.668256	196.897
0.670067	185.172
0.700854	196.897
0.724397	185.862
0.737074	198.276
0.76605	186.552
0.791403	187.931
0.793214	200.345
0.82219	188.621
0.82219	203.103
0.8403	205.862
0.854788	188.621
0.862032	206.552
0.87652	191.379
0.909118	194.828
0.896441	214.138
0.936283	198.966
0.981558	227.241
0.925417	229.31
0.936283	244.483
0.958015	285.862
0.977936	309.31
0.999668	278.966
1.0051	319.655
