Adsorption isotherm of Nitrogen on CuBTC
DOI: 10.1002/hlca.201200466
Article source: Figure 4a
Adsorbate Nitrogen: InChIKey IJGRMHOSHXDMSA-UHFFFAOYSA-N
Kind: experiment
Isotherm type: excess
Temperature: 77 K
Tabular data in the source: 0
pressure (bar)	uptake (cm3(STP)/g)
0.012677	219.655
0.032598	227.931
0.057952	234.138
0.097794	240.345
0.130391	244.483
0.162989	250
0.195587	252.759
0.244484	256.207
0.266216	258.966
0.302436	263.103
0.342277	266.552
0.38393	263.793
0.40204	268.621
0.436449	267.241
0.449126	272.759
0.472669	274.828
0.496212	276.897
0.512511	271.379
0.545109	278.966
0.545109	272.069
0.575895	281.724
0.581328	274.828
0.610304	276.897
0.62117	285.172
0.637469	280.345
0.664634	290
0.673689	284.483
0.702665	294.138
0.72983	296.207
0.762428	292.069
0.775105	303.793
0.795025	297.586
0.805891	308.621
0.818568	300.345
0.818568	312.069
0.845733	307.931
0.836678	315.517
0.872898	315.517
0.860221	323.793
0.89463	338.276
0.934472	346.552
0.943527	358.276
0.918173	359.655
0.932661	376.897
0.96707	394.138
0.956204	439.655
0.981558	527.241
1.00329	607.931
