Adsorption isotherm of Hydrogen on COF-1
DOI: 10.1002/Aic.11362
Adsorbate Hydrogen: InChIKey UFHFLCQGNIYNRP-UHFFFAOYSA-N
Temperature: 298 K
Tabular data in the source: 0
pressure (bar)	uptake (wt%)
5.94781	0.0181183
21.0285	0.0664483
39.9368	0.118758
57.3633	0.156919
69.2622	0.187079
83.0727	0.223281
90.7033	0.277824
97.9266	0.297944
