Adsorption isotherm of Hydrogen on Pt/AC-MIL-101
DOI: 10.1002/Aic.11362
Adsorbate Hydrogen: InChIKey UFHFLCQGNIYNRP-UHFFFAOYSA-N
Temperature: 298 K
Tabular data in the source: 0
pressure (bar)	uptake (wt%)
4.91262	0.0528789
14.7379	0.158637
23.4951	0.239945
33.7476	0.362013
55.9612	0.557107
76.2524	0.727783
92.0583	0.8374
97.3981	0.902508
