Adsorption isotherm of Water on MIL-101
DOI: 10.1002/Aic.11362
Adsorbate Water: InChIKey XLYOFNOQVPJJNP-UHFFFAOYSA-N
Temperature: 298 K
Tabular data in the source: 0
pressure (bar)	uptake (wt%)
0.000214998	22.907
0.000395853	32.907
0.000632128	35.814
0.00096514	37.7907
0.00177738	39.3023
0.00325961	41.0465
0.00617927	41.6279
0.0120191	42.3256
0.0210192	42.4419
