Adsorption isotherm of Hydrogen on Bridged-COF-1
DOI: 10.1002/Aic.11362
Adsorbate Hydrogen: InChIKey UFHFLCQGNIYNRP-UHFFFAOYSA-N
Temperature: 298 K
Tabular data in the source: 0
pressure (bar)	uptake (wt%)
0.00618665	0.000292343
0.0536261	0.00248486
0.103408	0.0031553
0.203059	0.00399861
0.3027	0.00490046
0.408598	0.00568489
0.50617	0.00652832
0.603741	0.00737174
0.705471	0.00821494
0.807221	0.00894106
0.908956	0.00975499
1.00656	0.0104228
