Adsorption isotherm of Hydrogen on Bridged-COF-1
DOI: 10.1002/Aic.11362
Adsorbate Hydrogen: InChIKey UFHFLCQGNIYNRP-UHFFFAOYSA-N
Temperature: 323 K
Tabular data in the source: 0
pressure (bar)	uptake (wt%)
0.00828099	0.000204424
0.045477	0.00151946
0.0599649	0.00189915
0.101476	0.00230663
0.20529	0.00312044
0.302872	0.00390533
0.404607	0.00471926
0.504273	0.00547476
0.608092	0.00625931
0.707768	0.00695628
0.807449	0.00762398
0.90711	0.00840875
1.00472	0.0090473
