Adsorption isotherm of Water on CuBTC
DOI: 10.1002/Aic.11362
Adsorbate Water: InChIKey XLYOFNOQVPJJNP-UHFFFAOYSA-N
Temperature: 298 K
Tabular data in the source: 0
pressure (bar)	uptake (wt%)
0.000221431	16.8605
0.000260645	25
0.00112027	26.9767
0.0035132	27.6744
0.00614612	27.7907
0.0119867	27.7907
0.0209868	27.907
