Adsorption isotherm of Hydrogen on CuBTC
DOI: 10.1002/Aic.11362
Adsorbate Hydrogen: InChIKey UFHFLCQGNIYNRP-UHFFFAOYSA-N
Temperature: 298 K
Tabular data in the source: 0
pressure (bar)	uptake (wt%)
5.35019	0.0183673
22.0428	0.0979592
40.4475	0.177551
60.3502	0.241837
80.2529	0.287755
99.9416	0.330612
