Adsorption isotherm of Hydrogen on Pt/AC-CuBTC
DOI: 10.1002/Aic.11362
Adsorbate Hydrogen: InChIKey UFHFLCQGNIYNRP-UHFFFAOYSA-N
Temperature: 298 K
Tabular data in the source: 0
pressure (bar)	uptake (wt%)
5.35019	0.0459184
22.2568	0.17449
41.0895	0.306122
60.5642	0.465306
81.323	0.606122
102.082	0.70102
