Adsorption isotherm of Hydrogen on Bridged-MIL-101
DOI: 10.1002/Aic.11362
Adsorbate Hydrogen: InChIKey UFHFLCQGNIYNRP-UHFFFAOYSA-N
Temperature: 323 K
Tabular data in the source: 0
pressure (bar)	uptake (wt%)
0.00208316	0.000183824
0.0479128	0.00275735
0.102075	0.00435049
0.206233	0.00582108
0.306225	0.00735294
0.406217	0.00876225
0.508292	0.0101103
0.608284	0.0114583
0.708276	0.0128676
0.814517	0.014277
0.914509	0.0155025
1.01033	0.0167279
