Adsorption isotherm of Hydrogen on MIL-101
DOI: 10.1002/Aic.11362
Adsorbate Hydrogen: InChIKey UFHFLCQGNIYNRP-UHFFFAOYSA-N
Temperature: 77 K
Tabular data in the source: 0
pressure (bar)	uptake (wt%)
0.0144359	0.103471
0.0557425	0.328616
0.173653	0.754338
0.204716	0.827257
0.308279	1.04596
0.405665	1.20987
0.503067	1.3555
0.606705	1.48892
0.708283	1.60408
0.809867	1.71314
0.90938	1.81613
1.00683	1.90085
