Adsorption isotherm of Hydrogen on MIL-101-bridges-Pt/AC
DOI: 10.1002/Aic.11362
Adsorbate Hydrogen: InChIKey UFHFLCQGNIYNRP-UHFFFAOYSA-N
Temperature: 298 K
Tabular data in the source: 0
pressure (bar)	uptake (wt%)
5.33981	0.0895978
14.7379	0.240269
23.7087	0.358304
34.3883	0.508928
44.8544	0.724866
55.9612	0.924454
68.1359	1.0138
76.466	1.15226
84.1553	1.24994
92.699	1.37207
101.243	1.46971
