Adsorption isotherm of Hydrogen on MIL-101
DOI: 10.1002/Aic.11362
Adsorbate Hydrogen: InChIKey UFHFLCQGNIYNRP-UHFFFAOYSA-N
Temperature: 298 K
Tabular data in the source: 0
pressure (bar)	uptake (wt%)
5.12621	0.0242996
20.2913	0.125778
39.7282	0.206689
55.1068	0.291833
66.2136	0.3404
74.3301	0.384997
82.6602	0.425504
96.1165	0.482148
