Adsorption isotherm of Hydrogen on Bridged-CuBTC
DOI: 10.1002/Aic.11362
Adsorbate Hydrogen: InChIKey UFHFLCQGNIYNRP-UHFFFAOYSA-N
Temperature: 323 K
Tabular data in the source: 0
pressure (bar)	uptake (wt%)
0.00830634	7.74409e-05
0.0517803	0.00151816
0.0766587	0.00206268
0.105731	0.00233372
0.205387	0.00341912
0.309196	0.00454323
0.410931	0.00562847
0.504339	0.00679236
0.608158	0.00783843
0.711987	0.00880644
0.811648	0.0098528
0.913388	0.010899
1.00681	0.0119458
