Adsorption isotherm of Hydrogen on CuBTC-bridges-Pt/AC
DOI: 10.1002/Aic.11362
Adsorbate Hydrogen: InChIKey UFHFLCQGNIYNRP-UHFFFAOYSA-N
Temperature: 298 K
Tabular data in the source: 0
pressure (bar)	uptake (wt%)
5.5642	0.0581633
10.9144	0.140816
16.0506	0.205102
21.1868	0.269388
31.2451	0.404082
42.1595	0.535714
62.2763	0.667347
83.035	0.896939
102.296	1.05306
