Adsorption isotherm of Hydrogen on COF-1
DOI: 10.1002/Aic.11362
Adsorbate Hydrogen: InChIKey UFHFLCQGNIYNRP-UHFFFAOYSA-N
Temperature: 77 K
Tabular data in the source: 0
pressure (bar)	uptake (wt%)
0.0537464	0.237256
0.0992978	0.352732
0.204953	0.553144
0.308585	0.692654
0.406029	0.789559
0.505558	0.87427
0.607152	0.971152
0.706698	1.03759
0.810377	1.12228
0.911993	1.19479
1.00739	1.26125
