Adsorption isotherm of Hydrogen on Bridged-CuBTC
DOI: 10.1002/Aic.11362
Adsorbate Hydrogen: InChIKey UFHFLCQGNIYNRP-UHFFFAOYSA-N
Temperature: 298 K
Tabular data in the source: 0
pressure (bar)	uptake (wt%)
0.00621708	0.000155643
0.0558269	0.0023764
0.101486	0.00299745
0.209423	0.00435541
0.309049	0.00567495
0.40659	0.00703367
0.510368	0.00839192
0.609994	0.00971147
0.713772	0.0110697
0.813383	0.0125063
0.915072	0.0139428
1.00639	0.0152239
