Adsorption isotherm of Hydrogen on Pt/AC-COF-1
DOI: 10.1002/Aic.11362
Adsorbate Hydrogen: InChIKey UFHFLCQGNIYNRP-UHFFFAOYSA-N
Temperature: 298 K
Tabular data in the source: 0
pressure (bar)	uptake (wt%)
20.7996	0.0968322
39.911	0.167366
57.101	0.250088
69.1986	0.306574
77.2677	0.336805
86.8056	0.40549
98.8967	0.474128
