Adsorption isotherm of Hydrogen on Bridged-MIL-101
DOI: 10.1002/Aic.11362
Adsorbate Hydrogen: InChIKey UFHFLCQGNIYNRP-UHFFFAOYSA-N
Temperature: 298 K
Tabular data in the source: 0
pressure (bar)	uptake (wt%)
0.00208316	0.000184395
0.0520791	0.00387278
0.102075	0.00559556
0.20415	0.00781274
0.304142	0.00947698
0.404134	0.0112641
0.506209	0.012867
0.606201	0.0144698
0.708276	0.0160113
0.810351	0.0174914
0.90826	0.0192169
1.00617	0.0207582
