Adsorption isotherm of Hydrogen on COF-1-bridges-Pt/AC
DOI: 10.1002/Aic.11362
Adsorbate Hydrogen: InChIKey UFHFLCQGNIYNRP-UHFFFAOYSA-N
Temperature: 298 K
Tabular data in the source: 0
pressure (bar)	uptake (wt%)
6.14873	0.0403931
14.8356	0.109094
23.7374	0.17374
34.3402	0.24038
44.5218	0.298927
56.4013	0.365544
67.8509	0.44027
81.8473	0.527101
87.9788	0.599899
98.7858	0.682738
