Adsorption isotherm of Water on COF-1
DOI: 10.1002/Aic.11362
Adsorbate Water: InChIKey XLYOFNOQVPJJNP-UHFFFAOYSA-N
Temperature: 298 K
Tabular data in the source: 0
pressure (bar)	uptake (wt%)
0.000142755	0.813953
0.000523764	2.67442
0.00114525	3.48837
0.00349031	4.18605
0.00617061	4.76744
0.0120109	5
0.0210588	5.23256
