Adsorption isotherm of Hydrogen on CuBTC
DOI: 10.1002/Aic.11362
Adsorbate Hydrogen: InChIKey UFHFLCQGNIYNRP-UHFFFAOYSA-N
Temperature: 77 K
Tabular data in the source: 0
pressure (bar)	uptake (wt%)
0.0246164	0.328793
0.0513974	0.554021
0.105096	0.8461
0.200265	1.17449
0.316237	1.44185
0.403248	1.60582
0.500634	1.76973
0.604287	1.88487
0.70586	2.00612
0.80746	2.09691
0.909064	2.18161
1.00651	2.27242
