Adsorption isotherm of Carbon Dioxide, Methane on M41C14
DOI: 10.1021/la052237k
Article source: Table 3
Adsorbate Carbon Dioxide: InChIKey CURLTUGMZLYLDI-UHFFFAOYSA-N
Adsorbate Methane: InChIKey VNWKTOKETHGBQD-UHFFFAOYSA-N
Kind: experiment
Temperature: 298 K
Tabular data in the source: 0
pressure (bar)	Carbon Dioxide fraction	Carbon Dioxide uptake (mmol/g)	Methane fraction	Methane uptake (mmol/g)	total uptake (mmol/g)
0.1146	0	0	1	0.017	0.017
0.1815	0.333	0.062852	0.667	0.013148	0.076
0.3335	0.19	0.060819	0.81	0.036181	0.097
0.4092	0.337	0.118734	0.663	0.035266	0.154
0.5482	0.254	0.118332	0.746	0.054668	0.173
0.625	0.348	0.17063	0.652	0.05537	0.226
0.7645	0.277	0.173972	0.723	0.070028	0.244
0.825	0.342	0.207156	0.658	0.075844	0.283
0.9795	0.279	0.212403	0.721	0.090597	0.303
