Adsorption isotherm of Carbon Dioxide on M41C14
DOI: 10.1021/la052237k
Article source: Figure 4
Adsorbate Carbon Dioxide: InChIKey CURLTUGMZLYLDI-UHFFFAOYSA-N
Kind: experiment
Temperature: 298 K
Tabular data in the source: 0
pressure (bar)	uptake (mmol/g)
0.0519	0.0498
0.118	0.107
0.197	0.165
0.275	0.226
0.367	0.29
0.458	0.352
0.554	0.415
0.644	0.47
0.669	0.488
0.735	0.524
0.767	0.545
0.787	0.56
0.862	0.601
0.876	0.611
0.976	0.67
