Adsorption isotherm of Methane on M41C14
DOI: 10.1021/la052237k
Article source: Figure 4
Adsorbate Methane: InChIKey VNWKTOKETHGBQD-UHFFFAOYSA-N
Kind: experiment
Temperature: 298 K
Tabular data in the source: 0
pressure (bar)	uptake (mmol/g)
0.0805	0.012
0.227	0.0345
0.363	0.0525
0.501	0.075
0.637	0.0914
0.685	0.1
0.783	0.112
0.81	0.12
0.83	0.117
0.932	0.132
0.968	0.135
1.08	0.151
