Adsorption isotherm of Carbon Dioxide, Methane on M41C14
DOI: 10.1021/la052237k
Article source: Table 3
Adsorbate Carbon Dioxide: InChIKey CURLTUGMZLYLDI-UHFFFAOYSA-N
Adsorbate Methane: InChIKey VNWKTOKETHGBQD-UHFFFAOYSA-N
Kind: experiment
Temperature: 298 K
Tabular data in the source: 0
pressure (bar)	Carbon Dioxide fraction	Carbon Dioxide uptake (mmol/g)	Methane fraction	Methane uptake (mmol/g)	total uptake (mmol/g)
0.1401	0	0	1	0.02	0.02
0.2102	0.305	0.064233	0.695	0.016767	0.081
0.3542	0.186	0.062923	0.814	0.038077	0.101
0.4315	0.332	0.12084	0.668	0.03816	0.159
0.5948	0.241	0.121089	0.759	0.059911	0.181
0.6814	0.345	0.17493	0.655	0.06307	0.238
0.8287	0.272	0.180342	0.728	0.077658	0.258
0.909	0.349	0.2233	0.651	0.0847	0.308
1.057	0.292	0.228246	0.708	0.098754	0.327
