Adsorption isotherm of Cadmium(II) Ion, Water on Purolite C150 Macroporous Resin
DOI: 10.1016/j.seppur.2016.11.034
Article source: Figure 3
Adsorbate Cadmium(II) Ion: InChIKey WLZRMCYVCSSEQC-UHFFFAOYSA-N
Adsorbate Water: InChIKey XLYOFNOQVPJJNP-UHFFFAOYSA-N
Kind: experiment
Temperature: 296 K
Tabular data in the source: 0
pressure (bar)	Cadmium(II) Ion fraction	Cadmium(II) Ion uptake (mmol/g)	Water fraction	Water uptake (mmol/g)	total uptake (mmol/g)
1.01325	0.0034	0.6641			
1.01325	0.0396	1.3245			
1.01325	0.3806	1.7369			
1.01325	1.467	1.9453			
1.01325	2.1359	1.9589			
1.01325	2.6974	1.7473			
