Adsorption isotherm of Co(II), Water on Purolite C100 Gel Resin
DOI: 10.1016/j.seppur.2016.11.034
Article source: Figure 3
Adsorbate Co(II): InChIKey XLJKHNWPARRRJB-UHFFFAOYSA-N
Adsorbate Water: InChIKey XLYOFNOQVPJJNP-UHFFFAOYSA-N
Kind: experiment
Temperature: 296 K
Tabular data in the source: 0
pressure (bar)	Co(II) fraction	Co(II) uptake (mmol/g)	Water fraction	Water uptake (mmol/g)	total uptake (mmol/g)
1.01325	0.0061	0.6248			
1.01325	0.0512	1.2348			
1.01325	0.4062	1.5713			
1.01325	1.3002	1.7721			
1.01325	1.8116	1.9309			
1.01325	2.2926	2.1941			
