Adsorption isotherm of Cadmium(II) Ion, Water on Purolite C100 Gel Resin
DOI: 10.1016/j.seppur.2016.11.034
Article source: Figure 3
Adsorbate Cadmium(II) Ion: InChIKey WLZRMCYVCSSEQC-UHFFFAOYSA-N
Adsorbate Water: InChIKey XLYOFNOQVPJJNP-UHFFFAOYSA-N
Kind: experiment
Temperature: 296 K
Tabular data in the source: 0
pressure (bar)	Cadmium(II) Ion fraction	Cadmium(II) Ion uptake (mmol/g)	Water fraction	Water uptake (mmol/g)	total uptake (mmol/g)
1.01325	-0.0021	0.6295			
1.01325	0.0372	1.2452			
1.01325	0.3724	1.6023			
1.01325	1.4103	1.668			
1.01325	1.9726	1.5879			
1.01325	2.3982	1.3104			
