Adsorption isotherm of Ca(II), Water on Purolite C100 Gel Resin
DOI: 10.1016/j.seppur.2016.11.034
Article source: Figure 3
Adsorbate Ca(II): InChIKey BHPQYMZQTOCNFJ-UHFFFAOYSA-N
Adsorbate Water: InChIKey XLYOFNOQVPJJNP-UHFFFAOYSA-N
Kind: experiment
Temperature: 296 K
Tabular data in the source: 0
pressure (bar)	Ca(II) fraction	Ca(II) uptake (mmol/g)	Water fraction	Water uptake (mmol/g)	total uptake (mmol/g)
1.01325	0.002	0.6552			
1.01325	0.0031	1.3065			
1.01325	0.2449	1.6924			
1.01325	1.3243	1.7942			
1.01325	1.9185	1.7628			
1.01325	2.3828	1.4337			
