Adsorption isotherm of Sr2+, Water on Purolite C150 Macroporous Resin
DOI: 10.1016/j.seppur.2016.11.034
Article source: Figure 3
Adsorbate Sr2+: InChIKey PWYYWQHXAPXYMF-UHFFFAOYSA-N
Adsorbate Water: InChIKey XLYOFNOQVPJJNP-UHFFFAOYSA-N
Kind: experiment
Temperature: 296 K
Tabular data in the source: 0
pressure (bar)	Sr2+ fraction	Sr2+ uptake (mmol/g)	Water fraction	Water uptake (mmol/g)	total uptake (mmol/g)
1.01325	0.0025	0.6			
1.01325	0.0147	1.1909			
1.01325	0.199	1.6409			
1.01325	1.1927	1.8409			
1.01325	1.8044	1.9298			
1.01325	2.3434	1.9516			
