Adsorption isotherm of Ca(II), Water on Purolite C150 Macroporous Resin
DOI: 10.1016/j.seppur.2016.11.034
Article source: Figure 3
Adsorbate Ca(II): InChIKey BHPQYMZQTOCNFJ-UHFFFAOYSA-N
Adsorbate Water: InChIKey XLYOFNOQVPJJNP-UHFFFAOYSA-N
Kind: experiment
Temperature: 296 K
Tabular data in the source: 0
pressure (bar)	Ca(II) fraction	Ca(II) uptake (mmol/g)	Water fraction	Water uptake (mmol/g)	total uptake (mmol/g)
1.01325	0.0018	0.6068			
1.01325	0.021	1.207			
1.01325	0.2918	1.6165			
1.01325	1.2573	1.7837			
1.01325	1.8715	1.8024			
1.01325	2.3911	1.5079			
