Adsorption isotherm of Ba(II), Water on Purolite C150 Macroporous Resin
DOI: 10.1016/j.seppur.2016.11.034
Article source: Figure 3
Adsorbate Ba(II): InChIKey XDFCIPNJCBUZJN-UHFFFAOYSA-N
Adsorbate Water: InChIKey XLYOFNOQVPJJNP-UHFFFAOYSA-N
Kind: experiment
Temperature: 296 K
Tabular data in the source: 0
pressure (bar)	Ba(II) fraction	Ba(II) uptake (mmol/g)	Water fraction	Water uptake (mmol/g)	total uptake (mmol/g)
1.01325	0.0007	0.6046			
1.01325	0.0059	1.2117			
1.01325	0.0932	1.7567			
1.01325	1.1964	1.9807			
1.01325	1.8399	2.0966			
1.01325	2.4237	2.0781			
