Adsorption isotherm of Co(II), Water on Purolite C150 Macroporous Resin
DOI: 10.1016/j.seppur.2016.11.034
Article source: Figure 3
Adsorbate Co(II): InChIKey XLJKHNWPARRRJB-UHFFFAOYSA-N
Adsorbate Water: InChIKey XLYOFNOQVPJJNP-UHFFFAOYSA-N
Kind: experiment
Temperature: 296 K
Tabular data in the source: 0
pressure (bar)	Co(II) fraction	Co(II) uptake (mmol/g)	Water fraction	Water uptake (mmol/g)	total uptake (mmol/g)
1.01325	0.0048	0.5998			
1.01325	0.059	1.1864			
1.01325	0.4116	1.527			
1.01325	1.3195	1.7496			
1.01325	1.9192	1.7893			
1.01325	2.4068	1.9735			
