Adsorption isotherm of Ba(II), Water on Purolite C100 Gel Resin
DOI: 10.1016/j.seppur.2016.11.034
Article source: Figure 3
Adsorbate Ba(II): InChIKey XDFCIPNJCBUZJN-UHFFFAOYSA-N
Adsorbate Water: InChIKey XLYOFNOQVPJJNP-UHFFFAOYSA-N
Kind: experiment
Temperature: 296 K
Tabular data in the source: 0
pressure (bar)	Ba(II) fraction	Ba(II) uptake (mmol/g)	Water fraction	Water uptake (mmol/g)	total uptake (mmol/g)
1.01325	0.0011	0.6443			
1.01325	0.005	1.2874			
1.01325	0.2499	1.7433			
1.01325	1.326	1.7915			
1.01325	1.9189	1.7374			
1.01325	2.3871	1.3427			
