Adsorption isotherm of Sr2+, Water on Purolite C100 Gel Resin
DOI: 10.1016/j.seppur.2016.11.034
Article source: Figure 3
Adsorbate Sr2+: InChIKey PWYYWQHXAPXYMF-UHFFFAOYSA-N
Adsorbate Water: InChIKey XLYOFNOQVPJJNP-UHFFFAOYSA-N
Kind: experiment
Temperature: 296 K
Tabular data in the source: 0
pressure (bar)	Sr2+ fraction	Sr2+ uptake (mmol/g)	Water fraction	Water uptake (mmol/g)	total uptake (mmol/g)
1.01325	-0.0009	0.6454			
1.01325	0.0192	1.275			
1.01325	0.3359	1.6589			
1.01325	1.3014	1.7984			
1.01325	1.8652	1.8181			
1.01325	2.331	1.8511			
