Adsorption isotherm of Hydrogen on CuBTC
DOI: 10.1016/j.micromeso.2010.09.013
Adsorbate Hydrogen: InChIKey UFHFLCQGNIYNRP-UHFFFAOYSA-N
Temperature: 333 K
Tabular data in the source: 0
pressure (bar)	uptake (mmol/g)
28.0083	1.3079
35.2697	1.79837
48.7552	2.28883
57.0539	2.77929
82.9876	3.9782
92.3237	4.19619
102.697	4.74114
112.033	4.90463
119.295	5.17711
128.631	5.44959
136.929	5.72207
145.228	5.99455
153.527	6.32153
154.564	6.53951
163.9	6.6485
173.237	6.92098
182.573	7.13896
190.871	7.41144
199.17	7.57493
203.32	7.79292
212.656	7.9564
221.992	8.17439
231.328	8.44687
239.627	8.66485
247.925	8.82834
263.485	9.26431
272.822	9.42779
283.195	9.59128
291.494	9.75477
300.83	9.91826
311.203	10.1362
319.502	10.2997
329.876	10.4632
338.174	10.6267
340.249	10.8447
350.622	10.8447
359.959	11.0082
369.295	11.1717
378.631	11.2262
379.668	11.4441
389.004	11.5531
399.378	11.7166
408.714	11.8801
426.349	12.2616
435.685	12.4251
445.021	12.5341
454.357	12.6975
463.693	12.861
471.992	12.9155
480.29	13.079
490.664	13.2425
