Adsorption isotherm of Methane on CuBTC
DOI: 10.1016/j.micromeso.2010.09.013
Adsorbate Methane: InChIKey VNWKTOKETHGBQD-UHFFFAOYSA-N
Temperature: 318 K
Tabular data in the source: 0
pressure (bar)	uptake (mmol/g)
21.3875	6.34146
29.5761	7.56098
40.8706	8.21138
50.1188	8.53659
60.4013	8.69919
69.6549	8.86179
80.969	8.94309
93.3145	8.94309
103.605	8.86179
123.158	8.69919
149.915	8.45528
197.266	7.72358
218.879	7.47967
233.288	7.31707
287.837	6.66667
292.998	6.17886
336.222	5.77236
371.215	5.36585
407.235	5.04065
439.13	4.95935
490.579	4.71545
