Adsorption isotherm of Methane on CuBTC
DOI: 10.1016/j.micromeso.2010.09.013
Adsorbate Methane: InChIKey VNWKTOKETHGBQD-UHFFFAOYSA-N
Temperature: 303 K
Tabular data in the source: 0
pressure (bar)	uptake (mmol/g)
31.5779	9.18699
31.5835	9.02439
51.089	10.2439
59.3027	10.7317
80.8854	11.3821
90.1391	11.5447
101.453	11.626
116.877	11.8699
139.502	12.1138
148.759	12.1951
182.704	12.3577
198.133	12.439
248.539	12.6016
347.324	12.0325
401.845	12.1951
436.825	12.1951
462.539	12.3577
