Adsorption isotherm of Methanol on CuBTC
DOI: 10.1016/j.micromeso.2010.09.013
Adsorbate Methanol: InChIKey OKKJLVBELUTLKV-UHFFFAOYSA-N
Temperature: 298 K
Tabular data in the source: 0
pressure (bar)	uptake (cm3(STP)/g)
8.51e-05	3.7869
0.00019159	7.04136
0.000445916	16.6484
0.000691868	29.39
0.00131478	62.7866
0.00249846	118.405
0.00474792	172.437
0.00761997	207.404
0.0118232	247.13
0.0165761	280.496
0.0232397	310.688
0.0314998	331.353
0.0522918	347.276
0.0868077	361.612
0.130214	366.414
0.176496	375.968
