Adsorption isotherm of Methane on CuBTC
DOI: 10.1016/j.micromeso.2010.09.013
Adsorbate Methane: InChIKey VNWKTOKETHGBQD-UHFFFAOYSA-N
Temperature: 303 K
Tabular data in the source: 0
pressure (bar)	uptake (mmol/g)
22.3773	7.47967
31.6086	8.29268
39.814	9.02439
50.0936	9.26829
59.3445	9.5122
69.6271	9.6748
81.9755	9.5935
90.2032	9.6748
100.497	9.5122
117.989	9.43089
140.637	9.02439
150.931	8.86179
182.837	8.45528
199.307	8.21138
248.715	7.47967
287.835	6.74797
347.535	5.85366
403.105	5.44715
437.067	5.12195
463.819	5.04065
