Adsorption isotherm of Hydrogen on CuBTC
DOI: 10.1016/j.micromeso.2010.09.013
Adsorbate Hydrogen: InChIKey UFHFLCQGNIYNRP-UHFFFAOYSA-N
Temperature: 333 K
Tabular data in the source: 0
pressure (bar)	uptake (mmol/g)
25.9336	0.708447
43.5685	0.980926
47.7178	1.14441
62.2407	1.41689
71.5768	1.58038
81.9502	1.74387
103.734	2.01635
154.564	2.7248
200.207	3.05177
254.149	3.37875
260.373	3.37875
341.286	3.37875
378.631	3.43324
410.788	3.54223
423.237	3.48774
450.207	3.48774
474.066	3.54223
493.776	3.43324
