Adsorption isotherm of Nitrogen on CuBTC
DOI: 10.1016/j.micromeso.2010.09.013
Adsorbate Nitrogen: InChIKey IJGRMHOSHXDMSA-UHFFFAOYSA-N
Temperature: 333 K
Tabular data in the source: 0
pressure (bar)	uptake (mmol/g)
32.7869	3.75335
42.0082	4.35657
52.2541	4.89276
65.5738	5.49598
85.041	6.03217
104.508	6.50134
119.877	6.76944
141.393	7.10456
155.738	7.17158
176.23	7.37265
206.967	7.57373
217.213	7.57373
228.484	7.64075
238.73	7.64075
243.852	7.70777
254.098	7.70777
265.369	7.70777
274.59	7.7748
284.836	7.7748
312.5	7.7748
322.746	7.7748
332.992	7.7748
350.41	7.7748
360.656	7.7748
370.902	7.7748
381.148	7.7748
393.443	7.7748
403.689	7.7748
413.934	7.7748
424.18	7.7748
437.5	7.7748
447.746	7.7748
465.164	7.7748
475.41	7.7748
498.975	7.7748
