Adsorption isotherm of Methane on CuBTC
DOI: 10.1016/j.micromeso.2010.09.013
Adsorbate Methane: InChIKey VNWKTOKETHGBQD-UHFFFAOYSA-N
Temperature: 318 K
Tabular data in the source: 0
pressure (bar)	uptake (mmol/g)
20.3392	6.91057
31.6086	8.29268
59.3335	9.8374
70.6392	10.1626
94.2845	10.6504
101.484	10.7317
124.106	11.0569
139.535	11.1382
150.85	11.2195
196.115	11.3008
218.745	11.3821
233.149	11.3821
286.641	11.5447
293.859	11.0569
336.038	11.1382
369.991	11.0569
407.025	11.1382
438.915	11.2195
490.356	11.2195
