Adsorption isotherm of Nitrogen on CuBTC
DOI: 10.1016/j.micromeso.2010.09.013
Adsorbate Nitrogen: InChIKey IJGRMHOSHXDMSA-UHFFFAOYSA-N
Temperature: 303 K
Tabular data in the source: 0
pressure (bar)	uptake (mmol/g)
9.22131	2.68097
17.418	3.68633
25.6148	4.89276
34.8361	5.76408
43.0328	6.43432
54.3033	7.37265
59.4262	7.84182
68.6475	8.37802
75.8197	8.64611
108.607	9.9866
117.828	10.3217
127.049	10.5898
144.467	11.126
153.689	11.3941
195.697	12.3324
216.189	12.7346
225.41	12.8686
240.779	13.1367
257.172	13.4048
264.344	13.4718
273.566	13.6729
283.811	13.807
297.131	13.941
307.377	14.0751
316.598	14.2091
326.844	14.3432
348.361	14.5442
367.828	14.8123
378.074	14.9464
414.959	15.2815
425.205	15.4155
437.5	15.4826
451.844	15.6166
484.631	15.8177
498.975	16.0188
