Adsorption isotherm of Hydrogen on CuBTC
DOI: 10.1016/j.micromeso.2010.09.013
Adsorbate Hydrogen: InChIKey UFHFLCQGNIYNRP-UHFFFAOYSA-N
Temperature: 333 K
Tabular data in the source: 0
pressure (bar)	uptake (mmol/g)
42.5311	1.3079
45.6432	1.3624
61.2033	1.85286
70.5394	2.01635
80.9129	2.28883
102.697	2.6703
155.602	3.65123
201.245	4.25068
252.075	4.79564
259.336	4.79564
342.324	5.23161
376.556	5.3951
409.751	5.55858
421.162	5.61308
449.17	5.77657
473.029	5.83106
494.813	5.83106
