Adsorption isotherm of Nitrogen on CuBTC
DOI: 10.1016/j.micromeso.2010.09.013
Adsorbate Nitrogen: InChIKey IJGRMHOSHXDMSA-UHFFFAOYSA-N
Temperature: 333 K
Tabular data in the source: 0
pressure (bar)	uptake (mmol/g)
10.2459	1.40751
18.4426	2.41287
28.6885	3.28418
38.9344	3.82038
40.9836	3.95442
49.1803	4.35657
58.4016	4.69169
68.6475	5.09383
72.7459	5.16086
78.8934	5.36193
96.3115	5.69705
100.41	5.69705
110.656	5.8311
114.754	5.8311
152.664	6.0992
185.451	6.16622
224.385	6.16622
258.197	6.03217
261.27	5.96515
310.451	5.8311
344.262	5.8311
387.295	5.563
433.402	5.563
460.041	5.29491
487.705	5.22788
