Adsorption isotherm of Methane on CuBTC
DOI: 10.1016/j.micromeso.2010.09.013
Adsorbate Methane: InChIKey VNWKTOKETHGBQD-UHFFFAOYSA-N
Temperature: 318 K
Tabular data in the source: 0
pressure (bar)	uptake (mmol/g)
37.7536	9.10569
55.2015	10.3252
76.7729	11.3008
116.857	12.439
127.143	12.5203
130.221	12.7642
140.503	12.9268
148.725	13.1707
160.039	13.252
170.322	13.4146
179.576	13.5772
189.858	13.7398
198.083	13.9024
208.371	13.9024
216.59	14.2276
226.878	14.2276
229.965	14.2276
238.19	14.3902
248.475	14.4715
258.763	14.4715
268.017	14.6341
283.443	14.7967
290.648	14.7154
297.844	14.878
308.132	14.878
318.414	15.0407
328.702	15.0407
336.936	14.9593
362.645	15.2846
372.933	15.2846
391.448	15.3659
401.734	15.4472
409.967	15.3659
419.218	15.6098
429.506	15.6098
442.88	15.6098
453.163	15.7724
458.307	15.7724
468.595	15.7724
478.883	15.7724
489.168	15.8537
496.37	15.8537
