Adsorption isotherm of Nitrogen on CuBTC
DOI: 10.1016/j.micromeso.2010.09.013
Adsorbate Nitrogen: InChIKey IJGRMHOSHXDMSA-UHFFFAOYSA-N
Temperature: 333 K
Tabular data in the source: 0
pressure (bar)	uptake (mmol/g)
35.8607	4.69169
57.377	6.23324
72.7459	6.97051
78.8934	7.37265
96.3115	8.0429
100.41	8.31099
110.656	8.64611
114.754	8.78016
152.664	9.85255
184.426	10.6568
224.385	11.4611
261.27	11.9303
308.402	12.6676
345.287	13.1367
385.246	13.4718
433.402	14.0751
460.041	14.2091
487.705	14.4772
