Adsorption isotherm of Nitrogen on CuBTC
DOI: 10.1016/j.micromeso.2010.09.013
Adsorbate Nitrogen: InChIKey IJGRMHOSHXDMSA-UHFFFAOYSA-N
Temperature: 318 K
Tabular data in the source: 0
pressure (bar)	uptake (mmol/g)
36.8852	4.69169
59.4262	5.76408
73.7705	6.30027
81.9672	6.56836
91.1885	6.83646
106.557	7.17158
115.779	7.37265
131.148	7.57373
141.393	7.70777
150.615	7.84182
167.008	7.97587
177.254	7.97587
187.5	8.0429
197.746	8.10992
206.967	8.17694
217.213	8.17694
227.459	8.24397
237.705	8.31099
247.951	8.24397
257.172	8.31099
267.418	8.37802
277.664	8.37802
287.91	8.37802
298.156	8.37802
308.402	8.37802
318.648	8.37802
328.893	8.37802
339.139	8.37802
349.385	8.37802
358.607	8.44504
368.852	8.44504
379.098	8.44504
389.344	8.44504
399.59	8.44504
409.836	8.44504
420.082	8.44504
429.303	8.44504
439.549	8.44504
449.795	8.44504
460.041	8.44504
470.287	8.44504
480.533	8.51206
490.779	8.51206
