Adsorption isotherm of Nitrogen on CuBTC
DOI: 10.1016/j.micromeso.2010.09.013
Adsorbate Nitrogen: InChIKey IJGRMHOSHXDMSA-UHFFFAOYSA-N
Temperature: 318 K
Tabular data in the source: 0
pressure (bar)	uptake (mmol/g)
11.2705	1.9437
19.4672	3.01609
29.7131	3.75335
38.9344	4.49062
51.2295	5.02681
59.4262	5.29491
68.6475	5.69705
80.9426	5.89812
101.434	6.30027
150.615	6.63539
194.672	6.63539
247.951	6.50134
279.713	6.50134
297.131	6.36729
345.287	6.16622
383.197	5.96515
431.352	5.8311
494.877	5.63003
