Adsorption isotherm of Nitrogen on CuBTC
DOI: 10.1016/j.micromeso.2010.09.013
Adsorbate Nitrogen: InChIKey IJGRMHOSHXDMSA-UHFFFAOYSA-N
Temperature: 303 K
Tabular data in the source: 0
pressure (bar)	uptake (mmol/g)
19.4672	3.82038
29.7131	4.75871
38.9344	5.49598
51.2295	6.16622
68.6475	6.90349
78.8934	7.30563
85.041	7.37265
98.3607	7.7748
132.172	8.37802
179.303	8.78016
184.426	8.71314
207.992	8.91421
250	8.98123
294.057	9.04826
341.189	9.04826
389.344	9.04826
410.861	9.11528
459.016	8.98123
490.779	9.04826
