Adsorption isotherm of Methane on CuBTC
DOI: 10.1016/j.micromeso.2010.09.013
Adsorbate Methane: InChIKey VNWKTOKETHGBQD-UHFFFAOYSA-N
Temperature: 303 K
Tabular data in the source: 0
pressure (bar)	uptake (mmol/g)
20.3419	6.82927
32.6263	8.61789
57.2925	9.34959
81.9727	9.6748
107.698	9.5122
136.513	9.26829
160.19	8.86179
189.016	8.29268
199.307	8.21138
217.837	7.88618
242.542	7.47967
271.365	6.99187
307.39	6.50407
337.239	6.09756
384.584	5.52846
411.341	5.28455
441.18	5.20325
469.986	5.20325
494.675	5.28455
