Adsorption isotherm of Nitrogen on CuBTC
DOI: 10.1016/j.micromeso.2010.09.013
Adsorbate Nitrogen: InChIKey IJGRMHOSHXDMSA-UHFFFAOYSA-N
Temperature: 303 K
Tabular data in the source: 0
pressure (bar)	uptake (mmol/g)
35.8607	4.82574
42.0082	5.42895
55.3279	5.76408
64.5492	6.23324
73.7705	6.50134
88.1148	6.70241
106.557	7.17158
115.779	7.37265
135.246	7.23861
145.492	7.23861
155.738	7.23861
164.959	7.23861
175.205	7.30563
187.5	7.37265
196.721	7.23861
206.967	7.23861
212.09	7.17158
222.336	7.17158
232.582	7.17158
254.098	7.03753
264.344	7.03753
274.59	6.97051
284.836	6.90349
298.156	6.83646
307.377	6.76944
316.598	6.76944
329.918	6.70241
343.238	6.63539
353.484	6.56836
363.73	6.56836
372.951	6.43432
414.959	6.30027
425.205	6.23324
435.451	6.23324
445.697	6.16622
454.918	6.0992
460.041	6.16622
470.287	6.03217
480.533	6.03217
498.975	5.96515
