Adsorption isotherm of Hydrogen on CuBTC
DOI: 10.1016/j.micromeso.2010.09.013
Adsorbate Hydrogen: InChIKey UFHFLCQGNIYNRP-UHFFFAOYSA-N
Temperature: 318 K
Tabular data in the source: 0
pressure (bar)	uptake (mmol/g)
21.7842	1.41689
53.9419	2.88828
102.697	4.90463
150.415	6.703
189.834	7.90191
217.842	8.71935
242.739	9.3733
279.046	10.2997
310.166	11.0082
346.473	11.8256
381.743	12.4251
413.9	13.188
415.975	13.188
437.759	13.6785
448.133	13.7875
471.992	14.3324
