Adsorption isotherm of Methane on CuBTC
DOI: 10.1016/j.micromeso.2010.09.013
Adsorbate Methane: InChIKey VNWKTOKETHGBQD-UHFFFAOYSA-N
Temperature: 303 K
Tabular data in the source: 0
pressure (bar)	uptake (mmol/g)
13.1793	5.69106
18.2676	7.31707
35.6792	9.5935
56.2024	11.1382
76.7451	12.1138
99.3481	13.0081
109.633	13.0894
126.078	13.5772
136.36	13.7398
152.81	14.065
165.144	14.3902
175.43	14.4715
204.222	14.878
214.505	15.0407
223.761	15.122
234.047	15.2033
255.643	15.4472
265.928	15.5285
267.983	15.6098
278.271	15.6098
293.698	15.7724
303.986	15.7724
314.271	15.8537
323.528	15.935
333.813	16.0163
343.069	16.0976
357.47	16.1789
367.758	16.1789
378.046	16.1789
388.331	16.2602
398.619	16.2602
405.818	16.3415
416.106	16.3415
426.392	16.4228
434.619	16.5041
443.881	16.4228
453.138	16.5041
462.4	16.4228
472.682	16.5854
482.97	16.5854
493.258	16.5854
