Adsorption isotherm of Hydrogen on CuBTC
DOI: 10.1016/j.micromeso.2010.09.013
Adsorbate Hydrogen: InChIKey UFHFLCQGNIYNRP-UHFFFAOYSA-N
Temperature: 303 K
Tabular data in the source: 0
pressure (bar)	uptake (mmol/g)
48.7552	2.17984
63.278	2.7248
82.9876	3.32425
97.5104	3.76022
120.332	4.35967
157.676	5.2861
185.685	5.77657
211.618	6.26703
237.552	6.81199
248.963	6.92098
270.747	7.13896
314.315	7.68392
321.577	7.84741
359.959	8.33787
389.004	8.71935
420.124	8.93733
457.469	9.26431
474.066	9.3733
490.664	9.42779
