Adsorption isotherm of Hydrogen on CuBTC
DOI: 10.1016/j.micromeso.2010.09.013
Adsorbate Hydrogen: InChIKey UFHFLCQGNIYNRP-UHFFFAOYSA-N
Temperature: 333 K
Tabular data in the source: 0
pressure (bar)	uptake (mmol/g)
22.8216	0.599455
35.2697	0.817439
53.9419	1.25341
85.0622	1.85286
95.4357	1.96185
106.846	2.12534
117.22	2.23433
126.556	2.39782
129.668	2.45232
140.041	2.56131
149.378	2.6703
155.602	2.83379
165.975	2.83379
175.311	2.94278
185.685	2.99728
196.058	3.05177
203.32	3.10627
213.693	3.10627
223.029	3.21526
232.365	3.32425
242.739	3.32425
253.112	3.32425
255.187	3.43324
265.56	3.43324
275.934	3.43324
286.307	3.43324
296.68	3.43324
307.054	3.43324
317.427	3.43324
327.801	3.43324
338.174	3.43324
340.249	3.48774
347.51	3.43324
357.884	3.43324
368.257	3.48774
379.668	3.54223
390.041	3.48774
399.378	3.54223
425.311	3.59673
435.685	3.54223
446.058	3.54223
453.32	3.59673
463.693	3.59673
478.216	3.59673
492.739	3.43324
