Adsorption isotherm of Hydrogen on CuBTC
DOI: 10.1016/j.micromeso.2010.09.013
Adsorbate Hydrogen: InChIKey UFHFLCQGNIYNRP-UHFFFAOYSA-N
Temperature: 303 K
Tabular data in the source: 0
pressure (bar)	uptake (mmol/g)
13.4855	0.926431
39.4191	2.45232
57.0539	3.43324
66.39	3.92371
73.6515	4.30518
87.1369	4.85014
94.3983	5.17711
101.66	5.50409
109.959	5.88556
118.257	6.37602
126.556	6.59401
134.855	6.92098
143.154	7.19346
150.415	7.52044
160.788	7.90191
168.05	8.17439
177.386	8.44687
184.647	8.88283
193.983	8.99183
203.32	9.20981
215.768	9.64578
224.066	9.91826
232.365	10.2452
251.037	10.7357
260.373	10.9537
272.822	11.2262
281.12	11.4986
290.456	11.7166
299.793	11.8801
309.129	12.0981
319.502	12.5886
328.838	12.6431
338.174	12.861
347.51	13.079
364.108	13.4605
373.444	13.733
381.743	13.951
392.116	14.2779
401.452	14.4414
410.788	14.5504
420.124	14.6594
425.311	14.8774
434.647	15.0409
443.983	15.2044
453.32	15.4223
465.768	15.7493
488.589	16.0218
