Adsorption isotherm of Methane on CuBTC
DOI: 10.1016/j.micromeso.2010.09.013
Adsorbate Methane: InChIKey VNWKTOKETHGBQD-UHFFFAOYSA-N
Temperature: 318 K
Tabular data in the source: 0
pressure (bar)	uptake (mmol/g)
5.05203	2.68293
12.1895	4.55285
24.4293	7.64228
40.8345	9.26829
65.4728	10.813
94.2491	11.7073
102.468	12.0325
124.059	12.439
140.504	12.9268
149.757	13.0894
196.028	13.8211
219.676	14.2276
232.016	14.3902
287.553	14.9593
293.737	14.6341
335.906	14.9593
370.878	15.2033
406.881	15.3659
439.794	15.6098
490.197	15.8537
