Adsorption isotherm of Carbon Dioxide on CuBTC
DOI: 10.1016/j.micromeso.2010.09.013
Adsorbate Carbon Dioxide: InChIKey CURLTUGMZLYLDI-UHFFFAOYSA-N
Temperature: 273 K
Tabular data in the source: 0
pressure (bar)	uptake (cm3(STP)/g)
0.0221389	29.207
0.0420703	37.2067
0.0772903	48.3778
0.157147	69.0826
0.27911	100.885
0.479264	139.034
0.851246	188.297
1.2769	224.844
1.79022	258.211
2.42653	283.638
4.16661	309.088
9.37528	345.676
12.7075	355.229
16.6518	363.193
25.8367	372.76
29.5758	375.948
