Adsorption isotherm of Hydrogen on CuBTC
DOI: 10.1016/j.micromeso.2010.09.013
Adsorbate Hydrogen: InChIKey UFHFLCQGNIYNRP-UHFFFAOYSA-N
Temperature: 318 K
Tabular data in the source: 0
pressure (bar)	uptake (mmol/g)
26.971	1.03542
49.7925	1.74387
64.3154	2.28883
72.6141	2.45232
84.0249	2.7248
93.361	2.94278
103.734	3.21526
113.071	3.37875
122.407	3.59673
131.743	3.70572
141.079	3.92371
150.415	4.19619
159.751	4.35967
170.124	4.41417
179.461	4.63215
187.759	4.79564
198.133	4.85014
208.506	5.01362
216.805	5.12262
226.141	5.2861
236.515	5.3406
245.851	5.50409
256.224	5.61308
265.56	5.72207
275.934	5.77657
285.27	5.94005
295.643	5.99455
304.979	6.15804
315.353	6.21253
324.689	6.32153
335.062	6.37602
344.398	6.53951
354.772	6.59401
365.145	6.59401
375.519	6.6485
384.855	6.75749
395.228	6.81199
404.564	6.92098
413.9	7.08447
424.274	7.08447
434.647	7.19346
443.983	7.24796
454.357	7.24796
464.73	7.30245
474.066	7.41144
