Adsorption isotherm of Hydrogen on CuBTC
DOI: 10.1016/j.micromeso.2010.09.013
Adsorbate Hydrogen: InChIKey UFHFLCQGNIYNRP-UHFFFAOYSA-N
Temperature: 318 K
Tabular data in the source: 0
pressure (bar)	uptake (mmol/g)
26.971	1.03542
54.9793	1.96185
103.734	3.16076
148.34	4.14169
186.722	4.74114
216.805	5.17711
242.739	5.44959
278.008	5.83106
310.166	6.21253
346.473	6.53951
381.743	6.703
412.863	7.02997
417.012	7.02997
435.685	7.19346
447.095	7.24796
471.992	7.35695
