Adsorption isotherm of Nitrogen on CuBTC
DOI: 10.1016/j.micromeso.2010.09.013
Adsorbate Nitrogen: InChIKey IJGRMHOSHXDMSA-UHFFFAOYSA-N
Temperature: 318 K
Tabular data in the source: 0
pressure (bar)	uptake (mmol/g)
23.5656	3.68633
46.1066	4.75871
53.2787	5.16086
71.7213	5.76408
84.0164	6.03217
118.852	6.56836
129.098	6.63539
149.59	6.70241
159.836	6.70241
201.844	6.70241
212.09	6.70241
222.336	6.70241
252.049	6.56836
262.295	6.56836
272.541	6.56836
281.762	6.50134
292.008	6.43432
298.156	6.36729
306.352	6.36729
347.336	6.23324
357.582	6.16622
367.828	6.0992
378.074	6.0992
402.664	5.96515
423.156	5.89812
434.426	5.89812
445.697	5.8311
455.943	5.76408
465.164	5.76408
475.41	5.69705
485.656	5.69705
