Adsorption isotherm of Nitrogen on CuBTC
DOI: 10.1016/j.micromeso.2010.09.013
Adsorbate Nitrogen: InChIKey IJGRMHOSHXDMSA-UHFFFAOYSA-N
Temperature: 318 K
Tabular data in the source: 0
pressure (bar)	uptake (mmol/g)
38.9344	5.49598
50.2049	6.43432
58.4016	6.90349
69.6721	7.5067
79.918	8.0429
99.3852	8.91421
149.59	10.5228
194.672	11.5952
247.951	12.5335
281.762	13.0027
297.131	13.2708
345.287	13.807
382.172	14.2761
428.279	14.8123
493.852	15.3485
