Adsorption isotherm of Nitrogen on CuBTC
DOI: 10.1016/j.micromeso.2010.09.013
Adsorbate Nitrogen: InChIKey IJGRMHOSHXDMSA-UHFFFAOYSA-N
Temperature: 333 K
Tabular data in the source: 0
pressure (bar)	uptake (mmol/g)
33.8115	4.42359
58.4016	6.30027
65.5738	6.63539
67.623	6.63539
90.1639	7.84182
105.533	8.37802
120.902	8.91421
137.295	9.4504
172.131	10.3887
192.623	10.7909
213.115	11.193
228.484	11.5282
238.73	11.5952
251.025	11.7962
268.443	12.0643
288.934	12.4665
324.795	12.8686
335.041	13.0027
347.336	13.1367
357.582	13.2038
371.926	13.4048
390.369	13.5389
400.615	13.6729
422.131	13.874
432.377	14.008
442.623	14.0751
452.869	14.1421
468.238	14.3432
478.484	14.4102
487.705	14.4102
497.951	14.6113
