Adsorption isotherm of Hydrogen on CuBTC
DOI: 10.1016/j.micromeso.2010.09.013
Adsorbate Hydrogen: InChIKey UFHFLCQGNIYNRP-UHFFFAOYSA-N
Temperature: 303 K
Tabular data in the source: 0
pressure (bar)	uptake (mmol/g)
49.7925	1.63488
63.278	1.96185
82.9876	2.45232
98.5477	2.83379
120.332	3.21526
157.676	3.70572
187.759	4.0327
212.656	4.25068
237.552	4.63215
247.925	4.63215
271.784	4.79564
315.353	4.95913
321.577	5.06812
360.996	5.17711
390.041	5.3406
421.162	5.44959
458.506	5.55858
473.029	5.55858
490.664	5.50409
