Adsorption isotherm of Hydrogen on CuBTC
DOI: 10.1016/j.micromeso.2010.09.013
Adsorbate Hydrogen: InChIKey UFHFLCQGNIYNRP-UHFFFAOYSA-N
Temperature: 303 K
Tabular data in the source: 0
pressure (bar)	uptake (mmol/g)
30.083	1.3079
46.6805	2.07084
66.39	2.77929
74.6888	3.05177
81.9502	3.32425
90.249	3.54223
101.66	3.86921
110.996	4.08719
122.407	4.35967
131.743	4.57766
141.079	4.85014
150.415	5.06812
159.751	5.2861
169.087	5.50409
178.423	5.66757
188.797	5.83106
198.133	6.04905
208.506	6.21253
214.73	6.32153
223.029	6.48501
233.402	6.703
253.112	6.97548
263.485	7.08447
272.822	7.19346
282.158	7.30245
291.494	7.41144
300.83	7.52044
311.203	7.68392
324.689	7.90191
335.062	7.9564
344.398	8.0654
354.772	8.17439
363.071	8.33787
373.444	8.44687
382.78	8.55586
392.116	8.71935
401.452	8.82834
410.788	8.82834
424.274	8.93733
434.647	9.04632
443.983	9.15531
454.357	9.26431
475.104	9.3733
485.477	9.48229
