Adsorption isotherm of Hydrogen on CuBTC
DOI: 10.1016/j.micromeso.2010.09.013
Adsorbate Hydrogen: InChIKey UFHFLCQGNIYNRP-UHFFFAOYSA-N
Temperature: 318 K
Tabular data in the source: 0
pressure (bar)	uptake (mmol/g)
26.971	0.817439
38.3817	1.08992
63.278	1.68937
82.9876	2.07084
93.361	2.17984
102.697	2.34332
105.809	2.39782
115.145	2.56131
125.519	2.6703
135.892	2.83379
145.228	2.94278
153.527	3.05177
163.9	3.10627
173.237	3.26975
183.61	3.32425
192.946	3.37875
202.282	3.48774
211.618	3.54223
219.917	3.59673
229.253	3.70572
238.589	3.76022
248.963	3.81471
258.299	3.86921
268.672	3.92371
276.971	3.86921
282.158	3.9782
292.531	3.9782
302.905	4.08719
312.241	4.0327
321.577	4.08719
331.95	4.14169
341.286	4.19619
348.548	4.25068
358.921	4.25068
369.295	4.25068
379.668	4.25068
390.041	4.25068
399.378	4.35967
409.751	4.35967
418.05	4.35967
427.386	4.41417
437.759	4.46866
447.095	4.35967
451.245	4.41417
461.618	4.41417
471.992	4.46866
