Adsorption isotherm of Methane on CuBTC
DOI: 10.1016/j.micromeso.2010.09.013
Adsorbate Methane: InChIKey VNWKTOKETHGBQD-UHFFFAOYSA-N
Temperature: 318 K
Tabular data in the source: 0
pressure (bar)	uptake (mmol/g)
55.2266	9.5935
81.9477	10.4065
107.654	10.813
121.023	10.9756
131.311	10.9756
140.565	11.1382
148.795	11.1382
157.023	11.2195
167.311	11.2195
177.596	11.3008
213.601	11.3821
223.89	11.3821
234.178	11.3821
244.466	11.3821
254.754	11.3821
265.042	11.3821
275.33	11.3821
285.615	11.4634
307.226	11.3008
329.859	11.3008
345.291	11.3008
355.58	11.3008
365.868	11.3008
374.098	11.3008
383.36	11.2195
393.648	11.2195
403.936	11.2195
432.746	11.1382
442.005	11.1382
452.296	11.0569
462.584	11.0569
472.872	11.0569
483.163	10.9756
496.537	10.9756
