Adsorption isotherm of Hydrogen on CuBTC
DOI: 10.1016/j.micromeso.2010.09.013
Adsorbate Hydrogen: InChIKey UFHFLCQGNIYNRP-UHFFFAOYSA-N
Temperature: 318 K
Tabular data in the source: 0
pressure (bar)	uptake (mmol/g)
26.971	0.817439
54.9793	1.52589
103.734	2.34332
151.452	2.94278
188.797	3.32425
215.768	3.54223
242.739	3.76022
279.046	3.92371
310.166	4.0327
345.436	4.19619
381.743	4.19619
411.826	4.35967
415.975	4.30518
437.759	4.46866
447.095	4.35967
471.992	4.41417
