Adsorption isotherm of Hydrogen on CuBTC
DOI: 10.1016/j.micromeso.2010.09.013
Adsorbate Hydrogen: InChIKey UFHFLCQGNIYNRP-UHFFFAOYSA-N
Temperature: 303 K
Tabular data in the source: 0
pressure (bar)	uptake (mmol/g)
63.278	1.96185
81.9502	2.50681
109.959	2.99728
125.519	3.32425
158.714	3.81471
178.423	3.9782
204.357	4.25068
223.029	4.41417
239.627	4.63215
272.822	4.85014
283.195	4.85014
293.568	4.95913
303.942	4.95913
324.689	5.12262
335.062	5.17711
344.398	5.17711
354.772	5.23161
363.071	5.2861
373.444	5.3406
392.116	5.44959
402.49	5.50409
409.751	5.55858
414.938	5.3951
443.983	5.55858
469.917	5.55858
487.552	5.61308
