Adsorption isotherm of Hydrogen on CuBTC
DOI: 10.1016/j.micromeso.2010.09.013
Adsorbate Hydrogen: InChIKey UFHFLCQGNIYNRP-UHFFFAOYSA-N
Temperature: 333 K
Tabular data in the source: 0
pressure (bar)	uptake (mmol/g)
42.5311	1.3079
76.7635	2.28883
101.66	2.6158
131.743	3.16076
149.378	3.59673
175.311	3.92371
209.544	4.25068
232.365	4.57766
240.664	4.63215
272.822	4.85014
283.195	4.85014
293.568	4.95913
303.942	4.95913
324.689	5.12262
335.062	5.17711
344.398	5.17711
354.772	5.23161
363.071	5.2861
373.444	5.3406
392.116	5.44959
402.49	5.50409
425.311	5.66757
435.685	5.66757
446.058	5.72207
458.506	5.77657
468.88	5.83106
476.141	5.88556
486.515	5.88556
