Adsorption isotherm of Hydrogen on CuBTC
DOI: 10.1016/j.micromeso.2010.09.013
Adsorbate Hydrogen: InChIKey UFHFLCQGNIYNRP-UHFFFAOYSA-N
Temperature: 318 K
Tabular data in the source: 0
pressure (bar)	uptake (mmol/g)
31.1203	1.85286
42.5311	2.39782
59.1286	3.16076
78.8382	4.0327
97.5104	4.68665
101.66	4.95913
109.959	5.17711
117.22	5.50409
125.519	5.83106
133.817	6.10354
142.116	6.43052
150.415	6.703
154.564	6.81199
162.863	7.13896
171.162	7.41144
179.461	7.62943
186.722	7.9564
196.058	8.11989
205.394	8.39237
213.693	8.66485
221.992	8.88283
231.328	9.10082
239.627	9.3733
248.963	9.53678
258.299	9.80926
267.635	10.0272
275.934	10.2452
285.27	10.4087
294.606	10.6812
303.942	10.8992
313.278	11.0627
322.614	11.3351
331.95	11.5531
341.286	11.7166
348.548	11.9346
357.884	12.0436
368.257	12.2071
377.593	12.4251
385.892	12.5886
396.266	12.752
405.602	12.97
413.9	13.1335
422.199	13.297
431.535	13.515
439.834	13.6785
450.207	13.7875
458.506	13.951
466.805	14.1689
