Adsorption isotherm of Nitrogen on CuBTC
DOI: 10.1016/j.micromeso.2010.09.013
Adsorbate Nitrogen: InChIKey IJGRMHOSHXDMSA-UHFFFAOYSA-N
Temperature: 303 K
Tabular data in the source: 0
pressure (bar)	uptake (mmol/g)
19.4672	3.82038
22.541	4.1555
34.8361	5.16086
52.2541	6.30027
70.6967	7.10456
92.2131	7.57373
107.582	7.97587
117.828	8.0429
137.295	8.37802
147.541	8.51206
156.762	8.57909
167.008	8.64611
211.066	8.91421
221.311	8.98123
231.557	8.98123
241.803	8.98123
252.049	8.98123
262.295	9.04826
275.615	9.04826
287.91	9.11528
304.303	9.11528
314.549	9.11528
324.795	9.11528
335.041	9.11528
343.238	9.04826
353.484	9.11528
363.73	9.11528
373.975	9.11528
427.254	9.04826
437.5	9.04826
447.746	9.04826
462.09	8.98123
472.336	8.98123
482.582	8.98123
