Adsorption isotherm of Methane on CuBTC
DOI: 10.1016/j.micromeso.2010.09.013
Adsorbate Methane: InChIKey VNWKTOKETHGBQD-UHFFFAOYSA-N
Temperature: 303 K
Tabular data in the source: 0
pressure (bar)	uptake (mmol/g)
45.9534	10
75.7497	11.1382
93.2199	11.7073
127.165	11.8699
137.447	12.0325
152.874	12.1951
163.162	12.1951
177.563	12.2764
202.251	12.3577
212.539	12.3577
222.827	12.3577
233.115	12.3577
243.403	12.3577
251.634	12.3577
261.922	12.3577
272.21	12.3577
282.498	12.3577
292.786	12.3577
303.074	12.3577
313.362	12.3577
323.65	12.3577
333.938	12.3577
344.226	12.3577
350.399	12.3577
360.687	12.3577
370.975	12.3577
386.41	12.2764
410.073	12.2764
442.997	12.1951
453.285	12.1951
466.657	12.2764
476.948	12.1951
487.236	12.1951
497.524	12.1951
