Adsorption isotherm of Methane on CuBTC
DOI: 10.1016/j.micromeso.2010.09.013
Adsorbate Methane: InChIKey VNWKTOKETHGBQD-UHFFFAOYSA-N
Temperature: 333 K
Tabular data in the source: 0
pressure (bar)	uptake (mmol/g)
4.04553	2.03252
10.1682	3.49593
20.3894	5.44715
31.6505	7.07317
39.8585	7.72358
51.1336	8.94309
70.6475	9.9187
79.8845	10.5691
92.2218	10.813
101.47	11.1382
103.527	11.1382
119.969	11.7073
142.585	12.1951
149.782	12.3577
201.192	13.252
248.497	13.8211
291.702	13.9837
322.555	14.3089
344.154	14.4715
349.295	14.5528
392.496	14.7967
473.753	15.3659
