Adsorption isotherm of Nitrogen on CuBTC
DOI: 10.1016/j.micromeso.2010.09.013
Adsorbate Nitrogen: InChIKey IJGRMHOSHXDMSA-UHFFFAOYSA-N
Temperature: 77 K
Tabular data in the source: 0
pressure (bar)	uptake (cm3(STP)/g)
2.59e-06	136.604
3.28e-06	141.39
4.44e-06	149.356
6.23e-06	158.913
8.45e-06	165.292
1.22e-05	174.853
1.97e-05	184.423
2.66e-05	193.977
3.26e-05	203.521
4.28e-05	214.658
4.9e-05	228.957
6e-05	251.2
6.86e-05	267.086
8.13e-05	282.976
0.000110144	306.815
0.000154423	317.959
0.000209306	329.101
0.000303537	337.074
0.000425561	343.456
0.000617151	346.667
0.0012979	356.264
0.00181967	361.06
0.00453118	364.324
0.0101956	372.34
0.0344129	378.809
0.0552296	388.38
0.0886384	394.776
0.120142	401.155
0.174229	407.541
0.392032	420.319
0.608272	436.235
0.824466	447.376
0.943785	461.675
1.00977	504.539
