Adsorption isotherm of Nitrogen on CuBTC
DOI: 10.1016/j.micromeso.2010.09.013
Adsorbate Nitrogen: InChIKey IJGRMHOSHXDMSA-UHFFFAOYSA-N
Temperature: 318 K
Tabular data in the source: 0
pressure (bar)	uptake (mmol/g)
38.9344	4.82574
49.1803	5.36193
59.4262	5.8311
98.3607	6.97051
119.877	7.5067
149.59	7.70777
195.697	8.10992
247.951	8.31099
280.738	8.37802
297.131	8.37802
344.262	8.31099
383.197	8.37802
429.303	8.44504
494.877	8.44504
