Adsorption isotherm of Hydrogen on CuBTC
DOI: 10.1016/j.micromeso.2010.09.013
Adsorbate Hydrogen: InChIKey UFHFLCQGNIYNRP-UHFFFAOYSA-N
Temperature: 303 K
Tabular data in the source: 0
pressure (bar)	uptake (mmol/g)
9.3361	0.708447
19.7095	1.19891
49.7925	3.05177
62.2407	3.76022
81.9502	4.68665
97.5104	5.3951
118.257	6.26703
156.639	7.73842
185.685	8.77384
212.656	9.59128
236.515	10.4632
250	10.7357
269.71	11.2262
315.353	12.2616
320.539	12.4796
358.921	13.3515
389.004	14.1689
419.087	14.7139
457.469	15.4768
473.029	15.7493
489.627	16.0218
