Adsorption isotherm of Methane on CuBTC
DOI: 10.1016/j.micromeso.2010.09.013
Adsorbate Methane: InChIKey VNWKTOKETHGBQD-UHFFFAOYSA-N
Temperature: 333 K
Tabular data in the source: 0
pressure (bar)	uptake (mmol/g)
42.945	7.72358
75.8166	9.18699
105.63	9.8374
123.111	10.0813
157.053	10.3252
179.681	10.4878
205.402	10.4878
215.69	10.4878
225.978	10.4878
236.266	10.4878
247.583	10.4878
257.871	10.4878
268.159	10.4878
278.447	10.4878
288.735	10.4878
294.911	10.4065
305.196	10.4878
315.484	10.4878
336.066	10.3252
362.812	10.4065
384.417	10.4065
412.195	10.4065
444.088	10.4065
469.805	10.4878
494.499	10.4065
