Adsorption isotherm of Nitrogen on CuBTC
DOI: 10.1016/j.micromeso.2010.09.013
Adsorbate Nitrogen: InChIKey IJGRMHOSHXDMSA-UHFFFAOYSA-N
Temperature: 333 K
Tabular data in the source: 0
pressure (bar)	uptake (mmol/g)
8.19672	1.07239
21.5164	2.54692
56.3525	4.69169
88.1148	5.563
103.484	5.8311
121.926	6.03217
132.172	6.0992
142.418	6.16622
151.639	6.23324
161.885	6.23324
172.131	6.23324
182.377	6.23324
204.918	6.23324
215.164	6.23324
228.484	6.23324
238.73	6.23324
248.975	6.16622
264.344	6.0992
274.59	6.0992
284.836	6.03217
295.082	6.03217
323.77	5.8311
336.066	5.8311
348.361	5.8311
358.607	5.76408
368.852	5.69705
378.074	5.63003
397.541	5.563
407.787	5.563
418.033	5.49598
428.279	5.42895
443.648	5.42895
455.943	5.29491
463.115	5.29491
473.361	5.29491
486.68	5.29491
492.828	5.22788
