Adsorption isotherm of Methane on CuBTC
DOI: 10.1016/j.micromeso.2010.09.013
Adsorbate Methane: InChIKey VNWKTOKETHGBQD-UHFFFAOYSA-N
Temperature: 333 K
Tabular data in the source: 0
pressure (bar)	uptake (mmol/g)
20.4033	5.04065
30.6495	6.26016
39.8836	6.99187
50.1606	7.31707
60.4347	7.72358
70.7172	7.88618
80.9941	8.21138
92.3136	8.13008
100.542	8.21138
103.625	8.29268
120.089	8.21138
140.665	8.21138
149.93	8.04878
201.39	7.47967
247.705	6.91057
291.972	6.09756
324.902	5.85366
343.426	5.69106
349.602	5.60976
391.794	5.28455
477.199	4.87805
