Adsorption isotherm of Hydrogen on CuBTC
DOI: 10.1016/j.micromeso.2010.09.013
Adsorbate Hydrogen: InChIKey UFHFLCQGNIYNRP-UHFFFAOYSA-N
Temperature: 333 K
Tabular data in the source: 0
pressure (bar)	uptake (mmol/g)
43.5685	2.12534
44.6058	2.34332
62.2407	3.05177
70.5394	3.32425
80.9129	3.86921
103.734	4.57766
155.602	6.43052
200.207	7.68392
252.075	8.99183
257.261	9.10082
341.286	10.7357
376.556	11.3896
409.751	11.9346
422.199	12.2071
450.207	12.6431
474.066	13.0245
494.813	13.2425
