Adsorption isotherm of Nitrogen on CuBTC
DOI: 10.1016/j.micromeso.2010.09.013
Adsorbate Nitrogen: InChIKey IJGRMHOSHXDMSA-UHFFFAOYSA-N
Temperature: 333 K
Tabular data in the source: 0
pressure (bar)	uptake (mmol/g)
36.8852	4.02145
49.1803	4.69169
57.377	5.16086
71.7213	5.69705
97.3361	6.30027
100.41	6.50134
110.656	6.70241
115.779	6.63539
152.664	7.23861
183.402	7.43968
225.41	7.64075
259.221	7.64075
261.27	7.64075
309.426	7.70777
343.238	7.7748
385.246	7.70777
432.377	7.90885
459.016	7.70777
486.68	7.70777
