Adsorption isotherm of Nitrogen on CuBTC
DOI: 10.1016/j.micromeso.2010.09.013
Adsorbate Nitrogen: InChIKey IJGRMHOSHXDMSA-UHFFFAOYSA-N
Temperature: 303 K
Tabular data in the source: 0
pressure (bar)	uptake (mmol/g)
10.2459	2.47989
19.4672	4.08847
29.7131	5.29491
37.9098	6.23324
50.2049	7.03753
60.4508	7.70777
68.6475	8.24397
80.9426	8.84718
85.041	9.04826
98.3607	9.7185
132.172	10.8579
180.328	11.9973
184.426	12.0643
207.992	12.5335
247.951	13.2708
292.008	13.941
340.164	14.4772
389.344	14.9464
410.861	15.3485
459.016	15.6836
491.803	15.9517
