Adsorption isotherm of Nitrogen on CuBTC
DOI: 10.1016/j.micromeso.2010.09.013
Adsorbate Nitrogen: InChIKey IJGRMHOSHXDMSA-UHFFFAOYSA-N
Temperature: 318 K
Tabular data in the source: 0
pressure (bar)	uptake (mmol/g)
42.0082	5.8311
53.2787	6.56836
63.5246	7.17158
72.7459	7.70777
79.918	8.0429
88.1148	8.37802
95.2869	8.78016
103.484	9.04826
112.705	9.38338
131.148	9.9866
140.369	10.2547
148.566	10.5898
156.762	10.7239
165.984	10.992
174.18	11.126
183.402	11.3271
206.967	11.8633
217.213	11.9973
226.434	12.1984
231.557	12.2654
241.803	12.3995
251.025	12.6005
259.221	12.7346
269.467	12.8686
278.689	13.0697
288.934	13.1367
298.156	13.2708
314.549	13.4718
324.795	13.6059
334.016	13.7399
341.189	13.874
350.41	13.941
359.631	14.0751
369.877	14.1421
379.098	14.2761
389.344	14.3432
399.59	14.4772
408.811	14.6113
422.131	14.7453
432.377	14.8123
441.598	14.9464
451.844	15.0134
465.164	15.1475
475.41	15.2145
484.631	15.2815
494.877	15.4155
