Adsorption isotherm of Methane on CuBTC
DOI: 10.1016/j.micromeso.2010.09.013
Adsorbate Methane: InChIKey VNWKTOKETHGBQD-UHFFFAOYSA-N
Temperature: 333 K
Tabular data in the source: 0
pressure (bar)	uptake (mmol/g)
54.2173	9.02439
62.431	9.5122
112.778	11.3821
154.923	12.439
171.373	12.7642
187.826	13.0081
198.108	13.1707
218.676	13.4146
228.961	13.4959
238.218	13.5772
259.814	13.8211
269.073	13.8211
276.269	13.9837
285.523	14.1463
305.068	14.2276
328.725	14.3902
339.01	14.4715
351.356	14.4715
361.638	14.6341
385.298	14.7154
396.612	14.7967
406.9	14.7967
417.185	14.878
427.473	14.878
437.759	14.9593
448.047	14.9593
457.303	15.0407
467.591	15.0407
477.879	15.0407
488.165	15.122
498.453	15.122
