Adsorption isotherm of Methane on CuBTC
DOI: 10.1016/j.micromeso.2010.09.013
Adsorbate Methane: InChIKey VNWKTOKETHGBQD-UHFFFAOYSA-N
Temperature: 318 K
Tabular data in the source: 0
pressure (bar)	uptake (mmol/g)
11.1607	4.55285
21.3819	6.50407
30.6077	7.47967
53.2024	8.61789
74.799	8.86179
100.516	8.94309
125.213	8.78049
168.44	8.29268
249.757	7.07317
287.848	6.34146
345.484	5.69106
409.289	5.12195
457.654	4.79675
494.691	4.79675
