Adsorption isotherm of Nitrogen on CuBTC
DOI: 10.1016/j.micromeso.2010.09.013
Adsorbate Nitrogen: InChIKey IJGRMHOSHXDMSA-UHFFFAOYSA-N
Temperature: 303 K
Tabular data in the source: 0
pressure (bar)	uptake (mmol/g)
28.6885	4.49062
38.9344	5.02681
49.1803	5.69705
60.4508	6.0992
68.6475	6.23324
79.918	6.50134
85.041	6.70241
97.3361	7.03753
132.172	7.17158
180.328	7.23861
183.402	7.23861
209.016	7.17158
248.975	6.90349
294.057	6.70241
340.164	6.50134
388.32	6.23324
411.885	6.23324
459.016	5.89812
490.779	5.76408
