Adsorption isotherm of Methane on CuBTC
DOI: 10.1016/j.micromeso.2010.09.013
Adsorbate Methane: InChIKey VNWKTOKETHGBQD-UHFFFAOYSA-N
Temperature: 333 K
Tabular data in the source: 0
pressure (bar)	uptake (mmol/g)
11.197	3.49593
24.499	5.60976
43.9933	7.15447
62.4868	7.88618
92.3082	8.29268
121.118	8.21138
148.901	8.04878
171.54	7.88618
193.156	7.56098
215.796	7.39837
243.587	6.99187
263.146	6.66667
301.228	6.17886
333.133	5.85366
362.979	5.52846
388.708	5.28455
422.661	5.20325
472.047	5.12195
495.709	5.12195
