Adsorption isotherm of Methane on CuBTC
DOI: 10.1016/j.micromeso.2010.09.013
Adsorbate Methane: InChIKey VNWKTOKETHGBQD-UHFFFAOYSA-N
Temperature: 333 K
Tabular data in the source: 0
pressure (bar)	uptake (mmol/g)
20.3921	5.36585
29.5984	6.91057
39.8558	7.80488
51.1336	8.94309
90.2032	9.6748
102.544	9.8374
120.022	10.1626
141.618	10.4065
149.852	10.3252
201.281	10.6504
247.577	10.6504
291.827	10.3252
324.749	10.3252
343.265	10.4065
348.405	10.4878
392.65	10.3252
474.946	10.5691
