Adsorption isotherm of Methane on CuBTC
DOI: 10.1016/j.micromeso.2010.09.013
Adsorbate Methane: InChIKey VNWKTOKETHGBQD-UHFFFAOYSA-N
Temperature: 303 K
Tabular data in the source: 0
pressure (bar)	uptake (mmol/g)
5.02972	3.33333
11.1301	5.44715
16.2184	7.07317
21.3401	7.72358
24.4042	8.37398
31.5695	9.43089
40.801	10.2439
51.0667	10.8943
59.2776	11.4634
70.5806	11.8699
81.8835	12.2764
89.0768	12.5203
101.411	12.8455
117.855	13.3333
141.498	13.9024
149.726	13.9837
183.655	14.6341
199.075	14.9593
247.41	15.5285
346.165	15.8537
403.761	16.3415
436.68	16.4228
463.423	16.5854
494.29	16.5041
