Adsorption isotherm of Nitrogen on CMK-5
DOI: 10.1016/j.micromeso.2009.08.004
Adsorbate Nitrogen: InChIKey IJGRMHOSHXDMSA-UHFFFAOYSA-N
Temperature: 77 K
Tabular data in the source: 0
pressure (bar)	uptake (cm3(STP)/g)
0.000199003	164.688
0.00749756	204.748
0.0166033	240.356
0.0311251	258.16
0.0438344	275.964
0.0601633	289.318
0.0837478	307.122
0.100071	316.024
0.118213	329.377
0.134542	342.73
0.152678	351.632
0.169002	360.534
0.183518	373.887
0.199847	387.24
0.216171	396.142
0.234307	405.045
0.247016	422.849
0.265152	431.751
0.279663	440.653
0.294185	458.457
0.310514	471.81
0.32503	485.163
0.33775	511.869
0.352267	525.223
0.368596	538.576
0.381316	565.282
0.395838	583.086
0.404938	614.243
0.42309	636.499
0.435805	658.754
0.446707	681.009
0.459422	703.264
0.472131	721.068
0.475772	734.421
0.484851	747.774
0.499373	765.579
0.513895	783.383
0.537474	796.736
0.593689	818.991
0.611815	818.991
0.629945	823.442
0.637196	823.442
0.655326	827.893
0.664384	823.442
0.687957	832.344
0.736912	845.697
0.76047	841.246
0.791299	854.599
0.807612	854.599
0.825743	859.05
0.842055	859.05
0.860181	859.05
0.878311	863.501
0.896437	863.501
0.912755	867.953
0.93088	867.953
0.949011	872.404
0.967142	876.855
