Adsorption isotherm of Nitrogen on CMK-5
DOI: 10.1016/j.micromeso.2009.08.004
Adsorbate Nitrogen: InChIKey IJGRMHOSHXDMSA-UHFFFAOYSA-N
Temperature: 77 K
Tabular data in the source: 0
pressure (bar)	uptake (cm3(STP)/g)
0.00750831	213.65
0.0166624	289.318
0.0275646	311.573
0.036638	320.475
0.0638637	351.632
0.0983449	387.24
0.138253	413.947
0.158223	440.653
0.183626	462.908
0.216289	494.065
0.250765	525.223
0.276173	551.929
0.301586	583.086
0.321567	618.694
0.348825	676.558
0.376067	721.068
0.403319	774.481
0.425123	818.991
0.44511	859.05
0.468721	899.11
0.499588	943.62
0.515928	965.875
0.535893	988.131
0.56129	1005.93
0.584858	1010.39
0.606625	1023.74
0.628386	1032.64
0.650131	1028.19
0.666449	1032.64
0.680949	1032.64
0.709961	1041.54
0.742586	1041.54
0.784285	1050.45
0.824167	1054.9
0.873116	1063.8
0.905742	1063.8
0.945623	1068.25
0.969213	1090.5
