Adsorption isotherm of Nitrogen on CMK-5
DOI: 10.1016/j.micromeso.2009.08.004
Adsorbate Nitrogen: InChIKey IJGRMHOSHXDMSA-UHFFFAOYSA-N
Temperature: 77 K
Tabular data in the source: 0
pressure (bar)	uptake (cm3(STP)/g)
0.00391013	235.905
0.0130374	289.318
0.0348523	342.73
0.0657139	382.789
0.0892984	400.593
0.112894	427.3
0.136484	449.555
0.172777	485.163
0.201805	507.418
0.227213	534.125
0.248995	560.831
0.272591	587.537
0.301623	614.243
0.334314	667.656
0.37064	729.97
0.397903	792.285
0.417905	845.697
0.437903	894.659
0.456076	934.718
0.479709	992.582
0.521505	1081.6
0.54694	1130.56
0.563285	1157.27
0.579619	1175.07
0.608647	1197.33
0.630413	1210.68
0.652164	1210.68
0.679368	1224.04
0.699306	1224.04
0.724692	1232.94
0.744641	1241.84
0.768215	1250.74
0.791783	1255.19
0.817164	1259.64
0.864301	1268.55
0.884255	1281.9
0.911448	1286.35
0.93322	1304.15
0.956788	1308.61
0.965862	1317.51
