Adsorption isotherm of Nitrogen on Al-SBA-15
DOI: 10.1016/j.micromeso.2009.08.004
Adsorbate Nitrogen: InChIKey IJGRMHOSHXDMSA-UHFFFAOYSA-N
Temperature: 77 K
Tabular data in the source: 0
pressure (bar)	uptake (cm3(STP)/g)
0.00735234	84.5697
0.0236813	97.9228
0.0599643	124.629
0.0780951	129.08
0.101669	137.982
0.12705	142.433
0.148806	146.884
0.174197	160.237
0.179629	155.786
0.197766	164.688
0.214084	169.139
0.228584	169.139
0.246715	173.591
0.264846	178.042
0.286601	182.493
0.30292	186.944
0.32105	191.395
0.337369	195.846
0.362749	200.297
0.380875	200.297
0.397193	204.748
0.413511	209.199
0.431642	213.65
0.446148	218.101
0.464278	222.552
0.475159	227.003
0.49329	231.454
0.509603	231.454
0.558557	244.807
0.574886	258.16
0.603898	267.062
0.625653	271.513
0.649227	280.415
0.672806	293.769
0.696391	311.573
0.7037	360.534
0.709197	409.496
0.711052	445.104
0.718356	489.614
0.727451	516.32
0.75465	525.223
0.758281	529.674
0.776406	529.674
0.81085	534.125
0.830788	534.125
0.847106	538.576
0.865231	538.576
0.890607	538.576
0.912362	543.027
0.923238	543.027
0.935931	547.478
0.959499	551.929
