Adsorption isotherm of Carbon Dioxide on Mg-MOF-74
DOI: 10.1021/Ct500094w
Adsorbate Carbon Dioxide: InChIKey CURLTUGMZLYLDI-UHFFFAOYSA-N
Temperature: 313 K
Tabular data in the source: 0
pressure (bar)	uptake (mmol/g)
0.00498753	1.26265
0.0399002	3.14058
0.0648379	3.86369
0.0798005	4.22543
0.0997506	4.58752
0.122195	4.9498
0.147132	5.16799
0.154613	5.24066
0.164589	5.34958
0.184539	5.53134
0.204489	5.67705
0.254364	5.96917
0.306733	6.2254
0.356608	6.40933
0.406484	6.52112
0.453865	6.70487
0.501247	6.78042
0.553616	6.96452
0.600998	7.07614
0.653367	7.15205
0.700748	7.26366
0.753117	7.33957
0.802993	7.48743
0.850374	7.52691
0.902743	7.60282
0.952618	7.71462
1	7.79016
