Adsorption isotherm of Carbon Dioxide on Zn-MOF-74
DOI: 10.1021/Ct500094w
Adsorbate Carbon Dioxide: InChIKey CURLTUGMZLYLDI-UHFFFAOYSA-N
Temperature: 298 K
Tabular data in the source: 0
pressure (bar)	uptake (mmol/g)
0.0272718	0.221538
0.0385982	0.443077
0.0454179	0.492308
0.0840021	0.984615
0.0975994	1.23077
0.106697	1.28
0.14758	1.69846
0.165747	1.89538
0.197547	2.21538
0.220263	2.43692
0.240715	2.60923
0.258903	2.73231
0.299814	3.05231
0.315739	3.12615
0.33392	3.27385
0.365761	3.44615
0.38395	3.56923
0.418069	3.74154
0.438535	3.86462
0.468113	3.98769
0.486301	4.11077
0.50451	4.16
0.529532	4.28308
0.563666	4.40615
0.581868	4.48
0.609168	4.60308
0.634204	4.67692
0.66151	4.77538
0.684268	4.84923
0.711575	4.94769
0.729777	5.02154
0.757098	5.07077
0.784412	5.14462
0.814004	5.21846
0.832206	5.29231
0.85952	5.36615
0.884556	5.44
0.91187	5.51385
0.934642	5.53846
0.959678	5.61231
0.987005	5.63692
