Adsorption isotherm of Water on Mg-MOF-74
DOI: 10.1021/Ct500094w
Adsorbate Water: InChIKey XLYOFNOQVPJJNP-UHFFFAOYSA-N
Temperature: 298 K
Tabular data in the source: 0
pressure (bar)	uptake (mmol/g)
0.000115313	1.69531
0.000192333	3.12954
0.000211914	4.17214
0.000269602	5.08495
0.000327289	5.99775
0.000385225	7.43173
0.000462121	8.60537
0.000481827	9.90856
0.000577807	11.0824
0.000654578	11.9955
0.000750496	13.0391
0.000827143	13.6916
0.000980313	14.7359
0.00111459	16.1709
0.00124867	17.215
0.00140197	18.5199
0.00170775	19.4359
0.00235716	20.617
0.00296804	21.0159
0.00388439	21.6793
0.00495328	22.0841
0.00670927	22.6281
0.00808357	23.1672
0.0100494	23.5837
