Adsorption isotherm of Water on Mg-MOF-74
DOI: 10.1021/Ct500094w
Adsorbate Water: InChIKey XLYOFNOQVPJJNP-UHFFFAOYSA-N
Temperature: 298 K
Tabular data in the source: 0
pressure (bar)	uptake (mmol/g)
0.00201775	29.212
0.00358296	29.8838
0.00512921	30.816
0.00665631	31.6177
0.0082406	32.2898
0.00971038	32.9604
