Adsorption isotherm of Carbon Dioxide on Mg-MOF-74
DOI: 10.1021/Ct500094w
Adsorbate Carbon Dioxide: InChIKey CURLTUGMZLYLDI-UHFFFAOYSA-N
Temperature: 313 K
Tabular data in the source: 0
pressure (bar)	uptake (mmol/g)
0.0074813	0.0726708
0.00997506	0.32531
0.0299252	2.85134
0.0548628	5.01707
0.0822943	6.06495
0.102244	6.71557
0.254364	8.20523
0.508728	9.41374
0.760599	10.2254
1.01496	10.7486
