Adsorption isotherm of Water on Mg-MOF-74
DOI: 10.1021/Ct500094w
Adsorbate Water: InChIKey XLYOFNOQVPJJNP-UHFFFAOYSA-N
Temperature: 298 K
Tabular data in the source: 0
pressure (bar)	uptake (mmol/g)
0.00208414	8.36592
0.00424307	13.4755
0.00834683	14.9622
