Adsorption isotherm of Water on Mg-MOF-74
DOI: 10.1021/Ct500094w
Adsorbate Water: InChIKey XLYOFNOQVPJJNP-UHFFFAOYSA-N
Temperature: 298 K
Tabular data in the source: 0
pressure (bar)	uptake (mmol/g)
0.00027128	8.60288
0.000329403	10.4277
0.000407231	13.5558
0.000407604	14.3376
0.000426004	12.9046
0.000427185	15.3802
0.000446642	16.1622
0.000849087	19.6853
0.000925734	20.3378
0.00102146	20.9905
0.00106019	22.1637
0.0010605	22.8151
0.00113727	23.7282
0.00113759	24.3796
0.0012529	26.075
0.00127155	25.1631
0.0013868	26.7282
0.00165429	27.3831
0.00190257	27.7772
0.00211261	28.0406
0.00239894	28.1746
0.00272349	28.4394
0.00291433	28.4419
0.00320078	28.8365
0.00365886	28.9728
0.00409804	29.4996
0.00461338	29.6367
0.0048233	29.6394
0.00539601	30.0377
0.00583494	30.0435
0.00646484	30.3122
0.00749557	30.7166
0.00810632	30.8548
0.00909895	31.3889
0.0099006	31.6599
