Adsorption isotherm of Methane on Carbon
DOI: 10.1016/s0301-0104(03)00316-1
Adsorbate Methane: InChIKey VNWKTOKETHGBQD-UHFFFAOYSA-N
Temperature: 79 K
Tabular data in the source: 0
pressure (bar)	uptake (mmol/g)
1.82e-05	0.1648
5.23e-05	0.549338
0.000275	0.925137
0.00033	1.05623
0.000792	1.06497
0.00327202	1.26598
0.0112796	1.42329
0.0324428	1.69421
0.0558579	1.96514
0.115267	2.2448
0.237864	2.43707
0.521398	2.5769
1.04395	2.70799
2.15429	2.85657
4.18511	3.06631
5.65978	3.22362
7.20565	3.47707
8.63632	3.77421
10.9952	4.23741
