Adsorption isotherm of Carbon Dioxide on UiO-66-NO2
DOI: 10.1039/C2dt30950e
Adsorbate Carbon Dioxide: InChIKey CURLTUGMZLYLDI-UHFFFAOYSA-N
Temperature: 273 K
Tabular data in the source: 0
pressure (bar)	uptake (cm3(STP)/g)
1.46029	14.9969
1.96096	18.6923
2.46163	21.5645
2.79541	25.057
3.46297	28.5436
4.29742	33.6736
5.17359	38.1854
6.17493	41.6661
6.92593	45.5628
8.26105	50.2723
9.42928	54.3674
10.5558	57.4342
13.7684	67.0493
17.5652	75.8309
20.9447	82.9735
24.2825	89.9111
28.0375	94.7834
31.3753	99.8688
34.3376	104.344
