Adsorption isotherm of Carbon Dioxide on UiO-66-Br
DOI: 10.1039/C2dt30950e
Adsorbate Carbon Dioxide: InChIKey CURLTUGMZLYLDI-UHFFFAOYSA-N
Temperature: 273 K
Tabular data in the source: 0
pressure (bar)	uptake (cm3(STP)/g)
1.96096	16.017
3.62986	21.3379
4.33914	25.0295
5.25703	29.1291
6.17493	32.4054
8.26105	39.7769
9.51272	44.0762
11.3902	48.9819
13.8936	54.6995
17.5652	63.0717
20.903	70.2151
24.4911	76.1193
28.0375	82.4358
31.3336	87.522
34.3793	92.8184
