Adsorption isotherm of Carbon Dioxide on UiO-66-NO2
DOI: 10.1039/C2dt30950e
Adsorbate Carbon Dioxide: InChIKey CURLTUGMZLYLDI-UHFFFAOYSA-N
Temperature: 293 K
Tabular data in the source: 0
pressure (bar)	uptake (cm3(STP)/g)
8.09543	18.6844
9.58033	21.5137
11.3615	24.057
12.9947	26.8853
14.999	30.2789
16.7064	33.2487
25.4617	43.1274
31.99	49.1882
38.4442	55.2494
44.9718	60.4584
50.9803	65.387
57.5065	68.8925
63.5888	73.3947
