Adsorption isotherm of Carbon Dioxide on UiO-66
DOI: 10.1039/C2dt30950e
Adsorbate Carbon Dioxide: InChIKey CURLTUGMZLYLDI-UHFFFAOYSA-N
Temperature: 293 K
Tabular data in the source: 0
pressure (bar)	uptake (cm3(STP)/g)
2.0791	4.24487
3.63755	6.36385
4.45402	7.63603
5.34496	9.33359
6.60655	11.0287
8.3136	13.5725
9.57566	15.8355
11.3568	18.3788
12.9892	20.2134
15.0671	23.0387
17.1451	25.864
19.4451	28.404
25.5299	35.8872
32.1325	42.2314
38.5871	48.7185
45.1155	54.9212
51.3463	59.7063
57.8739	64.9153
63.6593	68.9936
