Adsorption isotherm of Carbon Dioxide on UiO-66-NH2
DOI: 10.1039/C2dt30950e
Adsorbate Carbon Dioxide: InChIKey CURLTUGMZLYLDI-UHFFFAOYSA-N
Temperature: 273 K
Tabular data in the source: 0
pressure (bar)	uptake (cm3(STP)/g)
1.58545	17.4642
2.29474	21.979
3.08746	29.9908
4.4643	35.7285
5.25703	40.2419
6.04976	44.961
7.0511	49.059
8.3445	52.5345
9.34583	57.2499
10.4723	61.3458
13.9353	72.397
17.6903	82.8256
20.9864	90.7929
24.2825	98.966
27.9123	106.516
31.2919	113.247
34.3793	118.748
