Adsorption isotherm of Carbon Dioxide on UiO-66-NH2
DOI: 10.1039/C2dt30950e
Adsorbate Carbon Dioxide: InChIKey CURLTUGMZLYLDI-UHFFFAOYSA-N
Temperature: 293 K
Tabular data in the source: 0
pressure (bar)	uptake (cm3(STP)/g)
11.3622	24.9088
12.9949	27.1692
14.9241	29.4277
16.781	33.816
19.3774	36.212
25.5356	42.843
32.0646	49.7555
38.7415	56.2411
44.9732	62.1619
51.278	66.8045
58.0285	72.5799
63.7401	77.0846
