Adsorption isotherm of Carbon Dioxide on UiO-66-(CH3)2
DOI: 10.1039/C2dt30950e
Adsorbate Carbon Dioxide: InChIKey CURLTUGMZLYLDI-UHFFFAOYSA-N
Temperature: 273 K
Tabular data in the source: 0
pressure (bar)	uptake (cm3(STP)/g)
1.04306	16.2391
1.37684	21.378
2.25302	27.3304
2.9623	32.4626
3.54642	35.7449
4.2557	41.4944
5.29876	46.8265
6.17493	50.721
6.96766	54.6169
8.21934	59.9453
9.34585	64.8643
10.3889	69.1674
13.8519	79.1896
17.3983	90.2393
20.903	98.6145
24.366	106.579
27.8707	112.896
31.3753	121.683
34.2959	126.982
