Adsorption isotherm of Carbon Dioxide on UiO-66-(CH3)2
DOI: 10.1039/C2dt30950e
Adsorbate Carbon Dioxide: InChIKey CURLTUGMZLYLDI-UHFFFAOYSA-N
Temperature: 293 K
Tabular data in the source: 0
pressure (bar)	uptake (cm3(STP)/g)
1.11789	7.23232
2.15802	10.0645
2.75327	12.7577
3.71905	15.3065
4.31418	17.8578
5.13205	20.8334
6.54224	22.9534
8.1768	27.4851
9.66194	30.5983
11.7405	34.1334
13.1517	37.5309
15.0073	40.3577
17.0119	44.1772
19.2379	46.8596
25.3975	55.1941
31.9264	61.9646
38.6031	68.1663
44.9089	74.0866
51.4366	79.2956
57.8158	84.3636
63.3791	88.7273
