Adsorption isotherm of Carbon Dioxide on UiO-66-Br
DOI: 10.1039/C2dt30950e
Adsorbate Carbon Dioxide: InChIKey CURLTUGMZLYLDI-UHFFFAOYSA-N
Temperature: 293 K
Tabular data in the source: 0
pressure (bar)	uptake (cm3(STP)/g)
5.94009	11.8848
8.24193	16.5541
9.72648	18.9575
11.0629	21.5038
12.992	23.6203
15.0696	26.0198
16.851	28.8471
19.3732	31.1016
25.457	37.4492
31.8368	43.227
38.2912	49.4302
44.9668	54.3543
50.9745	58.2892
57.798	62.7865
63.4351	66.7238
