Adsorption isotherm of Carbon Dioxide on UiO-66
DOI: 10.1039/C2dt30950e
Adsorbate Carbon Dioxide: InChIKey CURLTUGMZLYLDI-UHFFFAOYSA-N
Temperature: 273 K
Tabular data in the source: 0
pressure (bar)	uptake (cm3(STP)/g)
1.25167	7.59207
1.75234	9.64109
2.0444	11.0764
2.37818	13.3342
2.9623	16.2049
3.54641	18.2525
4.42258	22.147
5.42392	25.6276
6.25837	29.317
7.0511	33.213
8.26105	37.9247
9.34583	41.4039
10.5141	46.3222
14.0605	57.1661
17.6486	67.3919
20.9864	77.0048
24.4494	82.7054
27.9958	88.6103
31.3753	93.4892
34.3793	97.3459
