Adsorption isotherm of P-Xylene on CuBTC
DOI: 10.1021/Jp306828x
Adsorbate P-Xylene: InChIKey URLKBWYHVLBVBO-UHFFFAOYSA-N
Temperature: 423 K
Tabular data in the source: 0
pressure (bar)	uptake (mmol/g)
5.54e-05	0.0590148
9.42e-05	0.127993
0.000121884	0.187145
0.000177285	0.24616
0.000204986	0.305311
0.000282548	0.472912
0.00034903	0.610924
0.000415512	0.748935
0.000498615	0.896746
0.000565097	0.975469
0.000637119	1.06405
0.000703601	1.13289
0.000759003	1.20178
0.000831025	1.29036
0.000908587	1.39867
0.000952909	1.43798
0.00099723	1.49705
