Adsorption isotherm of O-Xylene on MOF-74-Ni
DOI: 10.1021/Jp306828x
Adsorbate O-Xylene: InChIKey CTQNGGLPUBDAKN-UHFFFAOYSA-N
Temperature: 423 K
Tabular data in the source: 0
pressure (bar)	uptake (mmol/g)
0.000432064	1.32237
0.000869403	1.51316
0.00197752	1.82237
0.00323663	1.74342
