Adsorption isotherm of P-Xylene on MOF-74-Ni
DOI: 10.1021/Jp306828x
Adsorbate P-Xylene: InChIKey URLKBWYHVLBVBO-UHFFFAOYSA-N
Temperature: 423 K
Tabular data in the source: 0
pressure (bar)	uptake (mmol/g)
5.54e-05	0.0194891
0.000105263	0.118057
0.000149584	0.177127
0.000199446	0.226287
0.000254848	0.453286
0.000277008	0.54211
0.000299169	0.630933
0.00032133	0.729638
0.00034349	0.818461
0.000365651	0.907284
0.000382271	0.996135
0.000404432	1.08496
0.000426593	1.18366
0.000448753	1.27249
0.000470914	1.36131
0.000487535	1.46004
0.000520776	1.53893
0.000548476	1.62772
0.000576177	1.70664
0.000603878	1.79544
0.000631579	1.88423
0.00065928	1.96315
0.000686981	2.05194
0.000714681	2.14074
0.000736842	2.22956
