Adsorption isotherm of M-Xylene on CuBTC
DOI: 10.1021/Jp306828x
Adsorbate M-Xylene: InChIKey IVSZLXZYQVIEFR-UHFFFAOYSA-N
Temperature: 398 K
Tabular data in the source: 0
pressure (bar)	uptake (mmol/g)
5.71e-05	0.209865
9.52e-05	0.493132
0.000133333	0.692483
0.000190476	0.870879
0.000228571	0.986314
0.000285714	1.16471
0.0004	1.35367
0.000514286	1.52165
0.000647619	1.66868
0.000838095	1.82627
0.000971429	1.92085
0.00125714	2.03661
0.00152381	2.12088
0.00180952	2.18419
0.00211429	2.23704
0.00249524	2.2795
0.0028381	2.33239
0.00312381	2.34326
0.00337143	2.36456
0.00371429	2.38599
0.0040381	2.40739
0.0044	2.41836
0.0047619	2.41883
0.00512381	2.44028
0.00546667	2.45122
0.00582857	2.46219
0.00620952	2.47318
0.00657143	2.48414
0.00687619	2.48454
0.0072	2.49545
