Adsorption isotherm of O-Xylene on CuBTC
DOI: 10.1021/Jp306828x
Adsorbate O-Xylene: InChIKey CTQNGGLPUBDAKN-UHFFFAOYSA-N
Temperature: 398 K
Tabular data in the source: 0
pressure (bar)	uptake (mmol/g)
9.52e-05	0.503621
0.000114286	0.744905
0.000171429	1.04918
0.000228571	1.22757
0.000285714	1.41646
0.000361905	1.55292
0.000438095	1.74183
0.000609524	2.0043
0.00072381	2.14081
0.000933333	2.27745
0.00108571	2.39303
0.00137143	2.4983
0.00161905	2.58254
0.00192381	2.65637
0.00230476	2.70932
0.00268571	2.77275
0.00302857	2.80467
0.00337143	2.83659
0.00375238	2.84758
0.00415238	2.87957
0.00451429	2.89053
0.00491429	2.91204
0.00521905	2.92293
0.00575238	2.94461
0.00620952	2.9452
0.00653333	2.96661
0.00689524	2.96708
0.00721905	2.978
