Adsorption isotherm of O-Xylene on CuBTC
DOI: 10.1021/Jp306828x
Adsorbate O-Xylene: InChIKey CTQNGGLPUBDAKN-UHFFFAOYSA-N
Temperature: 398 K
Tabular data in the source: 0
pressure (bar)	uptake (mmol/g)
0.00087619	2.28786
0.00173333	2.62465
0.00260952	2.73069
0.00434286	2.94276
0.0056	2.75559
