Adsorption isotherm of M-Xylene on CuBTC
DOI: 10.1021/Jp306828x
Adsorbate M-Xylene: InChIKey IVSZLXZYQVIEFR-UHFFFAOYSA-N
Temperature: 398 K
Tabular data in the source: 0
pressure (bar)	uptake (mmol/g)
0.00112381	2.03644
0.00226667	2.26871
0.00337143	2.33309
0.00561905	2.36751
0.0072381	2.57942
