Adsorption isotherm of M-Xylene on MOF-74-Ni
DOI: 10.1021/Jp306828x
Adsorbate M-Xylene: InChIKey IVSZLXZYQVIEFR-UHFFFAOYSA-N
Temperature: 398 K
Tabular data in the source: 0
pressure (bar)	uptake (mmol/g)
0.000294845	1.67247
0.000315535	1.4216
0.000600334	1.67247
0.00109589	1.80836
0.00147602	2.08014
0.00223954	2.1115
0.00334761	2.00697
0.00563845	2.05923
