Adsorption isotherm of P-Xylene on MOF-74-Ni
DOI: 10.1021/Jp306828x
Adsorbate P-Xylene: InChIKey URLKBWYHVLBVBO-UHFFFAOYSA-N
Temperature: 398 K
Tabular data in the source: 0
pressure (bar)	uptake (mmol/g)
0.000580642	1.76655
0.000618363	1.83972
0.00115197	1.99652
0.00176468	1.72474
0.00352011	1.90244
0.00582951	2.03833
0.00737472	2.24739
