Adsorption isotherm of P-Xylene on CuBTC
DOI: 10.1021/Jp306828x
Adsorbate P-Xylene: InChIKey URLKBWYHVLBVBO-UHFFFAOYSA-N
Temperature: 398 K
Tabular data in the source: 0
pressure (bar)	uptake (mmol/g)
0.0012	2.31976
0.00238095	2.63599
0.0035619	2.65852
0.00590476	2.90285
0.0076	2.84213
