Adsorption isotherm of M-Xylene on Zeolite NaY
DOI: 10.1021/Jp306828x
Adsorbate M-Xylene: InChIKey IVSZLXZYQVIEFR-UHFFFAOYSA-N
Temperature: 398 K
Tabular data in the source: 0
pressure (bar)	uptake (mmol/g)
0.001155	1.91207
0.00565191	2.1759
