Adsorption isotherm of P-Xylene on CuBTC
DOI: 10.1021/Jp306828x
Adsorbate P-Xylene: InChIKey URLKBWYHVLBVBO-UHFFFAOYSA-N
Temperature: 448 K
Tabular data in the source: 0
pressure (bar)	uptake (mmol/g)
6.09e-05	0.0293432
0.000160665	0.0486133
0.000204986	0.0780386
0.000282548	0.146825
0.000376731	0.205649
0.000448753	0.244818
0.000504155	0.264308
0.000581717	0.313331
0.000648199	0.36241
0.000742382	0.421233
0.000836565	0.489938
0.000941828	0.568469
0.00100277	0.617575
0.00109141	0.656663
0.00119668	0.715431
0.0012964	0.764346
0.00140166	0.823114
0.00151247	0.881855
0.00162327	0.940596
0.00171191	0.999447
0.00180055	1.03853
0.00187812	1.07768
0.0019446	1.11687
0.00199446	1.15615
