Adsorption isotherm of P-Xylene on MOF-74-Ni
DOI: 10.1021/Jp306828x
Adsorbate P-Xylene: InChIKey URLKBWYHVLBVBO-UHFFFAOYSA-N
Temperature: 448 K
Tabular data in the source: 0
pressure (bar)	uptake (mmol/g)
7.76e-05	0.0391425
0.000132964	0.0586316
0.000182825	0.0781481
0.000227147	0.097692
0.000277008	0.117208
0.00032687	0.146606
0.000382271	0.166095
0.000432133	0.185612
0.000498615	0.244572
0.000554017	0.25418
0.000598338	0.293486
0.000648199	0.332766
0.000698061	0.372045
0.000753463	0.411297
0.000803324	0.450576
0.000853186	0.479974
0.000897507	0.519281
0.00099169	0.607749
0.00103601	0.637174
0.00107479	0.696271
0.00111911	0.75534
0.00116343	0.81441
0.00120776	0.873479
0.00125208	0.932549
0.0012964	0.991619
0.00134072	1.05069
0.00138504	1.10976
0.00142382	1.16885
0.00146814	1.22792
0.00151247	1.28699
0.00155679	1.34606
0.00160111	1.40513
0.00164543	1.4642
0.00168975	1.52327
0.00173407	1.58234
0.00177839	1.64141
0.00182271	1.70048
0.00186704	1.75955
0.00190582	1.81865
0.00195014	1.87772
0.00198892	1.93681
0.002	1.93676
