Adsorption isotherm of P-Xylene on Zeolite NaY
DOI: 10.1021/Jp306828x
Adsorbate P-Xylene: InChIKey URLKBWYHVLBVBO-UHFFFAOYSA-N
Temperature: 398 K
Tabular data in the source: 0
pressure (bar)	uptake (mmol/g)
0.00119236	1.79664
0.00237379	1.87215
0.00591705	1.9352
