Adsorption isotherm of O-Xylene on MOF-74-Ni
DOI: 10.1021/Jp306828x
Adsorbate O-Xylene: InChIKey CTQNGGLPUBDAKN-UHFFFAOYSA-N
Temperature: 398 K
Tabular data in the source: 0
pressure (bar)	uptake (mmol/g)
0.000410534	1.49477
0.000848877	1.62021
0.00197364	1.89199
0.00323392	1.87108
0.00432215	1.88153
0.00560119	1.91289
