Adsorption isotherm of P-Xylene on CuBTC
DOI: 10.1021/Jp306828x
Adsorbate P-Xylene: InChIKey URLKBWYHVLBVBO-UHFFFAOYSA-N
Temperature: 398 K
Tabular data in the source: 0
pressure (bar)	uptake (mmol/g)
1.9e-05	0.230794
9.52e-05	0.482642
0.000114286	0.839311
0.000209524	1.11216
0.000266667	1.33252
0.000304762	1.43746
0.000342857	1.52143
0.0004	1.6264
0.000457143	1.74186
0.000514286	1.83634
0.000647619	1.99386
0.000819048	2.15142
0.000952381	2.23551
0.00114286	2.33017
0.00127619	2.36181
0.00140952	2.42493
0.00158095	2.4776
0.00179048	2.53032
0.00198095	2.56204
0.00220952	2.59381
0.00253333	2.63619
0.00289524	2.67862
0.00331429	2.72113
0.00379048	2.74273
0.00420952	2.76426
0.00438095	2.77498
0.00457143	2.77522
0.00464762	2.78581
0.0048381	2.78606
0.00491429	2.79665
0.00510476	2.7969
0.00533333	2.80769
0.00552381	2.80794
0.00569524	2.81866
0.00588571	2.81891
0.00613333	2.82972
0.00632381	2.82997
0.00660952	2.84083
0.0068	2.84108
0.00699048	2.84133
0.00729524	2.85222
0.00748571	2.85247
0.00767619	2.84223
