Adsorption isotherm of P-Xylene on MOF-74-Ni
DOI: 10.1021/Jp306828x
Adsorbate P-Xylene: InChIKey URLKBWYHVLBVBO-UHFFFAOYSA-N
Temperature: 423 K
Tabular data in the source: 0
pressure (bar)	uptake (mmol/g)
0.000590336	1.37294
0.00115738	1.74257
0.00117652	1.63696
0.00177325	1.63696
0.00354439	1.72937
