Adsorption isotherm of O-Xylene on CPO-27-Ni
DOI: 10.1021/Jp306828x
Adsorbate O-Xylene: InChIKey CTQNGGLPUBDAKN-UHFFFAOYSA-N
Temperature: 448 K
Tabular data in the source: 0
pressure (bar)	uptake (mmol/g)
0.000239695	0.585526
0.000433106	1.09868
0.000860661	1.38816
0.00196868	1.71711
0.00323687	1.69079
