Adsorption isotherm of P-Xylene on CPO-27-Ni
DOI: 10.1021/Jp306828x
Adsorbate P-Xylene: InChIKey URLKBWYHVLBVBO-UHFFFAOYSA-N
Temperature: 448 K
Tabular data in the source: 0
pressure (bar)	uptake (mmol/g)
0.00059449	0.481848
0.00116015	1.14851
0.001188	1.17492
0.00176519	1.36634
0.00353558	1.61716
