Adsorption isotherm of O-Xylene on Zeolite NaY
DOI: 10.1021/Jp306828x
Adsorbate O-Xylene: InChIKey CTQNGGLPUBDAKN-UHFFFAOYSA-N
Temperature: 398 K
Tabular data in the source: 0
pressure (bar)	uptake (mmol/g)
0.000867393	1.61434
0.00437341	1.81205
