Adsorption isotherm of Hydrogen on Bio-MOF-11
DOI: 10.1021/Ja909169x
Adsorbate Hydrogen: InChIKey UFHFLCQGNIYNRP-UHFFFAOYSA-N
Temperature: 87 K
Tabular data in the source: 0
pressure (bar)	uptake (wt%)
0.00833119	0.051298
0.0520798	0.20693
0.0924921	0.387515
0.162221	0.528711
0.266263	0.70677
0.369336	0.825791
0.467968	0.902296
0.668845	1.04722
0.725386	1.0693
0.929323	1.1724
1.0274	1.21517
