Adsorption isotherm of Nitrogen on Bio-MOF-11
DOI: 10.1021/Ja909169x
Adsorbate Nitrogen: InChIKey IJGRMHOSHXDMSA-UHFFFAOYSA-N
Temperature: 273 K
Tabular data in the source: 0
pressure (bar)	uptake (mmol/g)
0.0402539	0.560837
0.100188	0.5627
0.201638	0.62803
0.254081	0.629661
0.351629	0.663781
0.449023	0.666809
0.550162	0.669953
0.655358	0.7354
0.809406	0.833453
0.918192	0.867923
1.01184	0.870834
