Adsorption isotherm of Nitrogen on Bio-MOF-11
DOI: 10.1021/Ja909169x
Adsorbate Nitrogen: InChIKey IJGRMHOSHXDMSA-UHFFFAOYSA-N
Temperature: 298 K
Tabular data in the source: 0
pressure (bar)	uptake (mmol/g)
0.0209033	0.435883
0.0958213	0.438212
0.200862	0.472566
0.302001	0.47571
0.395959	0.540807
0.508181	0.513208
0.602139	0.578305
0.71077	0.581682
0.811909	0.584826
0.913049	0.58797
1.0106	0.622091
