Adsorption isotherm of Carbon Dioxide on Bio-MOF-11
DOI: 10.1021/Ja909169x
Adsorbate Carbon Dioxide: InChIKey CURLTUGMZLYLDI-UHFFFAOYSA-N
Temperature: 273 K
Tabular data in the source: 0
pressure (bar)	uptake (mmol/g)
0.00762766	0.777439
0.0403897	1.33804
0.0736176	1.99193
0.113716	2.52167
0.165053	3.05176
0.270229	3.86332
0.423636	4.58312
0.530229	4.9284
0.682394	5.39945
0.894028	5.77909
1.03746	6.00116
