Adsorption isotherm of Carbon Dioxide on Bio-MOF-11
DOI: 10.1021/Ja909169x
Adsorbate Carbon Dioxide: InChIKey CURLTUGMZLYLDI-UHFFFAOYSA-N
Temperature: 298 K
Tabular data in the source: 0
pressure (bar)	uptake (mmol/g)
0.0146536	0.684393
0.0730159	1.12144
0.154475	1.68356
0.208315	1.96503
0.258564	2.27747
0.311628	2.40347
0.521534	3.1872
0.673389	3.59606
0.775615	3.81686
0.926693	4.07026
1.02486	4.22875
