Adsorption isotherm of Hydrogen on Bio-MOF-11
DOI: 10.1021/Ja909169x
Adsorbate Hydrogen: InChIKey UFHFLCQGNIYNRP-UHFFFAOYSA-N
Temperature: 77 K
Tabular data in the source: 0
pressure (bar)	uptake (wt%)
0.00471838	0.0593844
0.0316467	0.331353
0.0495528	0.509853
0.0980199	0.724869
0.172606	0.933883
0.276371	1.09507
0.386808	1.20636
0.531143	1.3292
0.738969	1.44108
0.935265	1.53506
1.0371	1.57817
