Adsorption isotherm of Nitrogen on Bio-MOF-11
DOI: 10.1021/Ja909169x
Adsorbate Nitrogen: InChIKey IJGRMHOSHXDMSA-UHFFFAOYSA-N
Temperature: 77 K
Tabular data in the source: 0
pressure (bar)	uptake (mg/g)
0.0186795	193.229
0.0227326	235.156
0.0297815	308.073
0.0465813	326.302
0.137159	329.948
0.178513	329.948
0.287888	333.594
0.438792	339.063
0.53636	337.24
0.687089	340.885
0.841929	348.177
0.936443	353.646
1.03148	364.583
