Adsorption isotherm of Nitrogen on GUJTIQ
DOI: 10.1007/s12039-015-0781-6
Article source: Figure 4
Adsorbate Nitrogen: InChIKey IJGRMHOSHXDMSA-UHFFFAOYSA-N
Kind: experiment
Temperature: 77 K
Tabular data in the source: 0
pressure (bar)	uptake (cm3(STP)/g)
0.056042	0.4002
0.096439	1.6666
0.106176	0.6393
0.160637	0.9062
0.197073	3.1334
0.210772	1.2675
0.259073	1.5288
0.300342	4.5557
0.3117	1.8123
0.36301	2.1236
0.402171	5.717
0.413276	2.5405
0.463147	2.8851
0.503737	6.8838
0.515248	3.2131
0.563275	3.6521
0.603733	7.9174
0.613531	4.2355
0.665115	4.6967
0.7061	8.8343
0.715371	5.1746
0.768251	5.9858
0.807007	9.7457
0.816927	6.6358
0.867973	7.4858
0.912373	11.3013
0.918483	8.4302
0.969884	10.4298
1.00474	18.638
1.00905	19.5932
