Adsorption isotherm of Nitrogen on [DyNaL(H2O)4]*6H2O
DOI: 10.1039/C3cc43549k
Adsorbate Nitrogen: InChIKey IJGRMHOSHXDMSA-UHFFFAOYSA-N
Temperature: 77 K
Tabular data in the source: 0
pressure (bar)	uptake (cm3(STP)/g)
0.00182509	30.5445
0.00400996	3.01508
0.0127495	69.3915
0.0280436	78.8739
0.0520772	96.3092
0.0870352	116.192
0.115439	119.25
0.17443	122.921
0.296783	125.674
0.709724	129.039
0.764346	129.039
0.845186	129.039
0.943506	129.039
0.985018	129.65
