Adsorption isotherm of Nitrogen on [DyNaL(H2O)4]*6H2O
DOI: 10.1039/C3cc43549k
Adsorbate Nitrogen: InChIKey IJGRMHOSHXDMSA-UHFFFAOYSA-N
Temperature: 77 K
Tabular data in the source: 0
pressure (bar)	uptake (cm3(STP)/g)
0.00229475	90.2995
0.00372489	29.6614
0.00372489	60.0949
0.00515504	1.74505
0.00801532	113.868
0.045199	124.623
0.112416	131.259
0.192504	134.005
0.268301	135.835
0.335518	136.979
0.398444	137.895
0.469952	138.81
0.542889	139.496
0.611536	139.954
0.681613	140.641
0.820337	140.183
0.893274	140.183
0.961921	140.641
