Adsorption isotherm of Nitrogen on [DyNaL(H2O)4]*6H2O
DOI: 10.1039/C3cc43549k
Adsorbate Nitrogen: InChIKey IJGRMHOSHXDMSA-UHFFFAOYSA-N
Temperature: 77 K
Tabular data in the source: 0
pressure (bar)	uptake (cm3(STP)/g)
0.00843546	2.79148
0.00843546	49.9464
0.00843546	90.0027
0.0112524	96.5943
0.0295622	103.946
0.0774495	114.341
0.12252	119.918
0.202802	126.763
0.252097	129.299
0.352097	133.608
0.450689	136.904
0.549281	140.453
0.650689	143.496
0.745055	146.284
0.816886	149.073
0.873224	151.355
0.92252	153.89
0.976041	156.932
