Adsorption isotherm of Acetone on Activated Carbon (KOH-4)
DOI: 10.1016/s0008-6223(98)00180-8
Article source: Figure 3
Adsorbate Acetone: InChIKey CSCPPACGZOOCGX-UHFFFAOYSA-N
Kind: experiment
Temperature: 298 K
Tabular data in the source: 0
pressure (bar)	uptake (g/g)
0.004615	0.34141
0.015692	0.451542
0.029538	0.480176
0.066462	0.504405
0.099692	0.513216
0.135692	0.517621
0.198462	0.522026
