Adsorption isotherm of Carbon Tetrachloride on Activated Carbon (KOH-2)
DOI: 10.1016/s0008-6223(98)00180-8
Article source: Figure 1
Adsorbate Carbon Tetrachloride: InChIKey VZGDMQKNWNREIO-UHFFFAOYSA-N
Kind: experiment
Temperature: 298 K
Tabular data in the source: 0
pressure (bar)	uptake (g/g)
0.000372	0.341722
0.006328	0.4
0.014516	0.418543
0.032754	0.439735
0.059181	0.458278
0.084864	0.476821
