Adsorption isotherm of Carbon Tetrachloride on Activated Carbon (H3PO4H-6)
DOI: 10.1016/s0008-6223(98)00180-8
Article source: Figure 2
Adsorbate Carbon Tetrachloride: InChIKey VZGDMQKNWNREIO-UHFFFAOYSA-N
Kind: experiment
Temperature: 298 K
Tabular data in the source: 0
pressure (bar)	uptake (g/g)
0.000383	0.055507
0.002244	0.079295
0.010419	0.111013
0.030845	0.134802
0.058323	0.150661
0.08543	0.16652
0.117363	0.174449
