Adsorption isotherm of Carbon Tetrachloride on Activated Carbon (KOH-1)
DOI: 10.1016/s0008-6223(98)00180-8
Article source: Figure 1
Adsorbate Carbon Tetrachloride: InChIKey VZGDMQKNWNREIO-UHFFFAOYSA-N
Kind: experiment
Temperature: 298 K
Tabular data in the source: 0
pressure (bar)	uptake (g/g)
0.000744	0.060927
0.004094	0.100662
0.012655	0.135099
0.024193	0.153642
0.045037	0.182781
0.065881	0.201325
0.096774	0.222517
