Adsorption isotherm of Carbon Tetrachloride on Activated Carbon (H3PO4H-7)
DOI: 10.1016/s0008-6223(98)00180-8
Article source: Figure 2
Adsorbate Carbon Tetrachloride: InChIKey VZGDMQKNWNREIO-UHFFFAOYSA-N
Kind: experiment
Temperature: 298 K
Tabular data in the source: 0
pressure (bar)	uptake (g/g)
0.001159	0.218062
0.006378	0.321145
0.013442	0.364758
0.021987	0.392511
0.037214	0.412335
0.052812	0.432159
0.079549	0.451982
0.112968	0.467841
