Adsorption isotherm of Carbon Tetrachloride on Activated Carbon (KOH-4)
DOI: 10.1016/s0008-6223(98)00180-8
Article source: Figure 1
Adsorbate Carbon Tetrachloride: InChIKey VZGDMQKNWNREIO-UHFFFAOYSA-N
Kind: experiment
Temperature: 298 K
Tabular data in the source: 0
pressure (bar)	uptake (g/g)
0.004094	0.858278
0.010422	0.903311
0.024193	0.93245
0.041687	0.948344
0.061787	0.95894
0.084864	0.969536
