Adsorption isotherm of Acetone on Activated Carbon (KOH-1)
DOI: 10.1016/s0008-6223(98)00180-8
Article source: Figure 3
Adsorbate Acetone: InChIKey CSCPPACGZOOCGX-UHFFFAOYSA-N
Kind: experiment
Temperature: 298 K
Tabular data in the source: 0
pressure (bar)	uptake (g/g)
0.005538	0.085903
0.012923	0.121145
0.022154	0.145374
0.049846	0.160793
0.088615	0.171806
0.139385	0.180617
0.200308	0.19163
