Adsorption isotherm of Acetone on Activated Carbon (KOH-3)
DOI: 10.1016/s0008-6223(98)00180-8
Article source: Figure 3
Adsorbate Acetone: InChIKey CSCPPACGZOOCGX-UHFFFAOYSA-N
Kind: experiment
Temperature: 298 K
Tabular data in the source: 0
pressure (bar)	uptake (g/g)
0.002769	0.297357
0.012	0.354626
0.038769	0.381057
0.072	0.389868
0.115384	0.398678
0.166154	0.403084
0.186462	0.405286
