Adsorption isotherm of Carbon Tetrachloride on Activated Carbon (KOH-5)
DOI: 10.1016/s0008-6223(98)00180-8
Article source: Figure 1
Adsorbate Carbon Tetrachloride: InChIKey VZGDMQKNWNREIO-UHFFFAOYSA-N
Kind: experiment
Temperature: 298 K
Tabular data in the source: 0
pressure (bar)	uptake (g/g)
0	0.556291
0.000744	0.765563
0.004839	0.890066
0.014516	0.935099
0.029777	0.961589
0.06067	0.988079
0.084491	1.00397
