Adsorption isotherm of Carbon Tetrachloride on Activated Carbon (H3PO4H-8)
DOI: 10.1016/s0008-6223(98)00180-8
Article source: Figure 2
Adsorbate Carbon Tetrachloride: InChIKey VZGDMQKNWNREIO-UHFFFAOYSA-N
Kind: experiment
Temperature: 298 K
Tabular data in the source: 0
pressure (bar)	uptake (g/g)
0.002341	0.551101
0.00572	0.729515
0.015788	0.939648
0.024345	1.02291
0.038843	1.11013
0.062249	1.1815
0.088622	1.237
0.113135	1.28062
