Adsorption isotherm of Carbon Tetrachloride on Activated Carbon (KOH-3)
DOI: 10.1016/s0008-6223(98)00180-8
Article source: Figure 1
Adsorbate Carbon Tetrachloride: InChIKey VZGDMQKNWNREIO-UHFFFAOYSA-N
Kind: experiment
Temperature: 298 K
Tabular data in the source: 0
pressure (bar)	uptake (g/g)
0.002233	0.529801
0.007072	0.622517
0.017122	0.643709
0.036104	0.662252
0.065136	0.675497
0.087097	0.683444
