Adsorption isotherm of Acetone on Activated Carbon (KOH-2)
DOI: 10.1016/s0008-6223(98)00180-8
Article source: Figure 3
Adsorbate Acetone: InChIKey CSCPPACGZOOCGX-UHFFFAOYSA-N
Kind: experiment
Temperature: 298 K
Tabular data in the source: 0
pressure (bar)	uptake (g/g)
0	0
0.010154	0.246696
0.015692	0.259912
0.031385	0.27533
0.048923	0.288546
0.067385	0.297357
0.082154	0.301762
0.105231	0.310573
