Adsorption isotherm of Acetone on Activated Carbon (KOH-5)
DOI: 10.1016/s0008-6223(98)00180-8
Article source: Figure 3
Adsorbate Acetone: InChIKey CSCPPACGZOOCGX-UHFFFAOYSA-N
Kind: experiment
Temperature: 298 K
Tabular data in the source: 0
pressure (bar)	uptake (g/g)
0	0
0.004615	0.405286
0.013846	0.431718
0.033231	0.469163
0.055385	0.482379
0.079384	0.488987
0.118154	0.497797
