Adsorption isotherm of Methane on Hydrophilic pore-blocked (CU)3(BTC)2
DOI: 10.1039/c4ra12967a
Article source: Figure 1
Adsorbate Methane: InChIKey VNWKTOKETHGBQD-UHFFFAOYSA-N
Kind: experiment
Temperature: 298 K
Tabular data in the source: 0
pressure (bar)	uptake (mmol/g)
20.288	0.58787
39.885	0.96201
59.842	1.25609
80.22	1.38855
100.119	1.51497
