Adsorption isotherm of Nitrogen on Hydrophilic pore-blocked (CU)3(BTC)2
DOI: 10.1039/c4ra12967a
Article source: Figure 1
Adsorbate Nitrogen: InChIKey IJGRMHOSHXDMSA-UHFFFAOYSA-N
Kind: experiment
Temperature: 298 K
Tabular data in the source: 0
pressure (bar)	uptake (mmol/g)
20.307	0.08481
59.965	0.0995
100.067	0.13259
