Adsorption isotherm of Nitrogen on T-COF 1
DOI: 10.1073/pnas.1221824110
Article source: Figure 6
Adsorbate Nitrogen: InChIKey IJGRMHOSHXDMSA-UHFFFAOYSA-N
Kind: experiment
Temperature: 77 K
Tabular data in the source: 0
pressure (bar)	uptake (cm3(STP)/g)
0.004583	133.492
0.007857	138.254
0.014405	145.397
0.016587	152.54
0.020953	158.095
0.024226	163.651
0.029683	169.206
0.032957	173.175
0.037322	177.937
0.042778	179.524
0.049326	183.492
0.0526	188.254
0.056965	190.635
0.106072	227.143
0.205378	268.413
0.307958	304.921
0.410538	328.73
0.504388	354.127
0.602603	396.19
0.732465	412.857
0.823041	426.349
0.910343	444.603
