Adsorption isotherm of Nitrogen on T-COF 3
DOI: 10.1073/pnas.1221824110
Article source: Figure 6
Adsorbate Nitrogen: InChIKey IJGRMHOSHXDMSA-UHFFFAOYSA-N
Kind: experiment
Temperature: 77 K
Tabular data in the source: 0
pressure (bar)	uptake (cm3(STP)/g)
0	7.30159
0.000218	18.4127
0.000218	28.7302
0.00131	39.0476
0.003492	46.1905
0.004583	52.5397
0.005675	62.0635
0.007857	71.5873
0.011131	80.3175
0.013314	86.6667
0.01877	90.6349
0.022044	96.9841
0.029683	101.746
0.035139	108.095
0.042778	112.063
0.048234	116.032
0.054782	119.206
0.109346	142.619
0.196648	177.937
0.298137	258.095
0.481471	272.381
0.525122	274.762
0.606968	277.936
0.709548	281.905
0.809945	286.667
0.910343	295.397
