Adsorption isotherm of Nitrogen on T-COF 2
DOI: 10.1073/pnas.1221824110
Article source: Figure 6
Adsorbate Nitrogen: InChIKey IJGRMHOSHXDMSA-UHFFFAOYSA-N
Kind: experiment
Temperature: 77 K
Tabular data in the source: 0
pressure (bar)	uptake (cm3(STP)/g)
0.008948	107.302
0.008948	112.857
0.012222	116.825
0.013314	120
0.016587	123.175
0.020953	126.349
0.026409	128.73
0.032957	130.317
0.039504	131.905
0.045506	133.889
0.0526	135.873
0.099524	142.222
0.203196	146.19
0.305776	149.365
0.405082	152.54
0.50657	153.333
0.606968	155.714
0.708457	157.302
0.811037	160.476
0.912525	163.651
