Adsorption isotherm of Nitrogen on T-COF 4
DOI: 10.1073/pnas.1221824110
Article source: Figure 6
Adsorbate Nitrogen: InChIKey IJGRMHOSHXDMSA-UHFFFAOYSA-N
Kind: experiment
Temperature: 77 K
Tabular data in the source: 0
pressure (bar)	uptake (cm3(STP)/g)
0	9.52381
0	18.0952
0	28.7302
0.000218	38.254
0.000218	48.5714
0.00131	58.8889
0.00131	67.619
0.00131	78.7302
0.00131	88.254
0.00131	98.5714
0.002401	108.095
0.002401	117.619
0.004583	127.143
0.004583	136.667
0.007857	145.397
0.01004	154.127
0.014405	162.857
0.019861	170
0.026409	178.73
0.034048	185.079
0.039504	191.429
0.049326	197.778
0.055873	204.921
0.106072	239.841
0.199922	329.524
0.362522	352.54
0.419268	357.302
0.501114	363.651
0.608059	370.794
0.708457	377.936
0.809945	385.873
0.907069	401.746
