Adsorption isotherm of Argon on PY-COF
DOI: 10.1038/s41467-019-10574-6
Article source: Figure 3
Adsorbate Argon: InChIKey XKRFYHLGVUSROY-UHFFFAOYSA-N
Kind: experiment
Temperature: 87 K
Tabular data in the source: 0
pressure (bar)	uptake (cm3(STP)/g)
0.001737	8.79839
0.001737	23.4939
0.001737	38.1894
0.003178	53.5833
0.003178	66.1794
0.003538	77.3756
0.003178	110.966
0.004619	129.859
0.008221	152.948
0.009662	183.037
0.011823	206.478
0.029114	257.544
0.052889	292.859
0.079546	324.672
0.103321	338.993
0.129978	347.363
0.155915	355.034
0.181851	362.705
0.208508	368.276
0.235165	372.447
0.260381	378.719
0.285597	383.591
0.311533	389.163
0.336749	394.035
0.360525	396.11
0.387181	400.981
0.412397	405.854
0.437613	410.027
0.46319	414.199
0.488766	418.371
0.513262	423.594
0.538117	428.467
0.563694	432.99
0.588189	437.863
0.612685	443.436
0.638981	448.307
0.664558	453.529
0.688693	459.453
0.712828	465.376
0.738404	470.948
0.76362	478.27
0.788476	485.942
0.814413	494.312
0.839082	505.224
0.864514	514.512
0.887863	528.865
0.912045	546.051
0.933725	569.112
0.963744	610.793
0.987718	684.067
0.996056	718.076
0.992095	716.055
0.987092	697.027
0.964995	645.011
0.937269	603.935
0.913712	581.281
0.889113	560.653
0.861596	542.053
0.834495	527.502
0.80948	516.189
0.783213	506.092
0.757363	497.412
0.73068	489.542
0.705247	483.494
0.679397	477.446
0.654381	472.41
0.629782	466.968
0.603724	461.933
0.578083	457.302
0.553067	452.468
0.527634	447.635
0.502618	443.408
0.124253	356.528
0.099029	346.834
0.077765	329.443
0.055668	304.357
0.026899	258.625
0.01189	205.792
0.007721	166.717
