Adsorption isotherm of Argon on PT-COF
DOI: 10.1038/s41467-019-10574-6
Article source: Figure 3
Adsorbate Argon: InChIKey XKRFYHLGVUSROY-UHFFFAOYSA-N
Kind: experiment
Temperature: 87 K
Tabular data in the source: 0
pressure (bar)	uptake (cm3(STP)/g)
0.001737	4.73963
0.001737	19.855
0.001737	35.8102
0.002169	50.0854
0.002601	65.2003
0.002601	78.6362
0.003466	88.7123
0.002601	113.066
0.003466	128.18
0.006924	152.529
0.008653	175.201
0.009518	237.761
0.010382	264.212
0.026809	356.567
0.049287	407.768
0.075223	451.408
0.102889	489.168
0.127096	507.617
0.153513	519.02
0.17993	528.906
0.208148	537.041
0.235165	544.011
0.25918	549.818
0.284997	558.539
0.310213	564.927
0.336029	570.149
0.360645	576.539
0.387662	581.468
0.411677	586.4
0.437193	591.622
0.46391	596.259
0.487925	602.358
0.513742	607.288
0.539258	613.093
0.564774	617.441
0.590591	622.954
0.615206	628.76
0.639822	632.234
0.665038	637.164
0.692355	642.093
0.71607	648.483
0.741586	652.539
0.767703	658.344
0.792919	663.566
0.817234	669.956
0.840649	675.18
0.866165	681.568
0.892582	687.956
0.919299	694.926
0.943314	700.15
0.968831	708.288
0.993746	715.26
0.994647	719.341
0.978437	718.775
0.955622	712.384
0.930406	708.036
0.90519	703.105
0.879974	697.883
0.855058	694.409
0.829542	689.479
0.804927	684.547
0.777909	680.493
0.752994	675.854
0.727778	671.506
0.703762	668.323
0.676445	663.103
0.65303	658.462
0.627214	654.407
0.601397	649.185
0.576782	645.128
0.550965	641.073
0.52635	635.85
0.501734	628.002
0.124995	517.591
0.102481	498.079
0.081467	468.359
0.051448	418.822
0.025632	355.285
0.010622	275.408
0.008221	196.684
