Adsorption isotherm of Argon on PT2B-COF
DOI: 10.1038/s41467-019-10574-6
Article source: Figure 5
Adsorbate Argon: InChIKey XKRFYHLGVUSROY-UHFFFAOYSA-N
Kind: experiment
Temperature: 87 K
Tabular data in the source: 0
pressure (bar)	uptake (cm3(STP)/g)
0.001125	1.62316
0.001459	21.8908
0.002988	45.0537
0.001245	69.1818
0.001886	94.7576
0.003144	132.88
0.003189	157.973
0.005017	181.619
0.006299	233.253
0.00936	280.544
0.009998	304.672
0.026273	417.592
0.053191	489.976
0.076494	538.232
0.100983	583.593
0.129032	622.198
0.151143	669.006
0.180378	705.198
0.205999	717.745
0.232216	730.292
0.259021	738.978
0.283448	749.594
0.309956	758.763
0.333784	766.966
0.360288	773.722
0.384712	782.408
0.410196	792.153
0.436875	799.861
0.461899	806.563
0.487133	815.276
0.511953	823.654
0.536772	831.362
0.560766	840.075
0.589098	847.447
0.614123	854.819
0.638529	862.862
0.664177	871.575
0.689411	880.288
0.713405	889.001
0.740711	900.395
0.764294	910.448
0.7885	922.512
0.815187	934.576
0.840219	945.97
0.864021	962.726
0.88927	980.151
0.912876	1002.94
0.934625	1028.07
0.965093	1073.98
0.988553	1131.29
0.989659	1171.84
0.984265	1161.11
0.963911	1106.82
0.941945	1075.99
0.91626	1045.83
0.889338	1018.35
0.862843	997.577
0.835529	982.162
0.80946	968.423
0.780703	955.018
0.760223	945.97
0.732508	937.257
0.706448	929.214
0.678734	920.837
0.657638	914.134
0.629717	905.757
0.605519	898.384
0.578632	890.341
0.555055	883.639
0.527344	876.937
0.504178	868.559
0.129212	639.677
0.100198	597.453
0.074892	548.527
0.051654	499.935
0.027547	427.216
0.011658	326.682
0.006951	236.872
