Adsorption isotherm of Carbon Dioxide on PY-COF
DOI: 10.1038/s41467-019-10574-6
Article source: Figure S24
Adsorbate Carbon Dioxide: InChIKey CURLTUGMZLYLDI-UHFFFAOYSA-N
Kind: experiment
Temperature: 273 K
Tabular data in the source: 0
pressure (bar)	uptake (micromoles/m2)
0.045956	0.00826
0.31674	0.026844
0.417622	0.060939
0.756216	0.079519
0.823874	0.085715
1.16224	0.113595
1.36491	0.144584
1.6693	0.175566
1.87235	0.191054
2.21049	0.228235
2.68402	0.274707
3.05618	0.307236
3.69908	0.359898
4.34187	0.41721
5.08611	0.485366
5.99965	0.562813
7.15029	0.649544
8.53774	0.757962
10.196	0.881863
12.0912	1.02435
14.3929	1.18231
17.1343	1.3821
20.4856	1.5958
24.4124	1.85131
29.118	2.14243
34.704	2.47999
34.7041	2.47689
34.3652	2.47071
32.6383	2.38092
30.8101	2.26943
29.0346	2.16457
27.2244	2.05273
25.4141	1.94305
23.6038	1.83336
21.8408	1.71614
20.0071	1.59893
18.2207	1.47525
16.4107	1.35588
14.6006	1.23759
12.7907	1.11283
10.981	0.979469
9.21839	0.846102
7.3853	0.70628
5.57591	0.559998
3.76673	0.405104
1.88713	0.241604
0.325904	0.056553
