Adsorption isotherm of Argon on PY2B-COF
DOI: 10.1038/s41467-019-10574-6
Article source: Figure 5
Adsorbate Argon: InChIKey XKRFYHLGVUSROY-UHFFFAOYSA-N
Kind: experiment
Temperature: 87 K
Tabular data in the source: 0
pressure (bar)	uptake (cm3(STP)/g)
0.000375	8.72647
0.001282	36.522
0.001329	62.9278
0.002231	87.9438
0.00401	124.078
0.004061	153.263
0.004966	179.669
0.007582	204.685
0.011118	265.141
0.029261	343.663
0.053363	399.254
0.079158	442.337
0.101496	470.133
0.123837	499.318
0.153085	556.299
0.177143	586.874
0.208881	597.298
0.235475	607.721
0.26035	616.06
0.286802	627.023
0.311221	632.814
0.335639	638.605
0.362448	649.221
0.385679	656.942
0.411292	664.663
0.438095	672.384
0.461924	681.07
0.489321	687.826
0.512552	695.547
0.538466	705.198
0.564073	710.024
0.588196	716.78
0.615598	726.431
0.638236	735.117
0.667126	744.769
0.688868	751.524
0.715676	762.141
0.741292	771.309
0.76572	782.408
0.791336	792.06
0.815175	806.536
0.840796	819.083
0.8405	820.048
0.865829	835.49
0.891758	853.828
0.912935	877.956
0.936799	906.909
0.961283	949.375
0.989088	1017.9
0.992413	1046.85
0.98465	1033.34
0.965545	1002.46
0.942258	963.369
0.916002	929.107
0.886782	901.119
0.86114	876.99
0.833724	859.618
0.80929	845.141
0.781882	832.112
0.75626	819.083
0.733025	809.432
0.706513	798.333
0.680899	789.647
0.65439	780.478
0.629371	771.792
0.603162	763.106
0.578741	756.35
0.552233	747.181
0.528106	738.013
0.502493	730.292
0.124071	510.243
0.102593	484.185
0.078121	448.475
0.055428	408.905
0.024953	345.207
0.01171	263.172
0.005954	206.229
