Adsorption isotherm of Carbon Dioxide on PT-COF
DOI: 10.1038/s41467-019-10574-6
Article source: Figure S24
Adsorbate Carbon Dioxide: InChIKey CURLTUGMZLYLDI-UHFFFAOYSA-N
Kind: experiment
Temperature: 273 K
Tabular data in the source: 0
pressure (bar)	uptake (micromoles/m2)
-0.018535	0.00222
0.347664	0.017745
0.657525	0.030883
1.02368	0.047603
1.36192	0.055963
1.55902	0.066711
1.95356	0.078654
2.26342	0.091791
2.57336	0.10254
2.99577	0.124037
3.5312	0.140757
4.29185	0.170614
5.05254	0.199277
6.03855	0.238688
7.19369	0.281683
8.51789	0.330649
10.124	0.384391
12.0402	0.447689
14.4069	0.533677
17.1967	0.622055
20.4513	0.728346
24.3822	0.857329
29.1166	1.00184
34.6117	1.17501
34.3862	1.17023
32.5684	1.11768
30.7506	1.06752
28.9752	1.01259
27.1716	0.957649
25.3398	0.903906
23.5645	0.847775
21.761	0.789852
19.9434	0.731929
18.1541	0.673409
16.3788	0.614889
14.5472	0.555175
12.7438	0.49546
10.9687	0.433357
9.13719	0.368866
7.36225	0.301986
5.50262	0.2363
3.6995	0.168226
1.98114	0.096568
