Adsorption isotherm of Argon on PY-NCS-COF
DOI: 10.1038/s41467-019-10574-6
Article source: Figure S33
Adsorbate Argon: InChIKey XKRFYHLGVUSROY-UHFFFAOYSA-N
Kind: experiment
Temperature: 87 K
Tabular data in the source: 0
pressure (bar)	uptake (cm3(STP)/g)
-0.001673	0.23794
-0.000677	13.8345
-0.000188	25.7315
-0.000212	39.3281
-0.001778	59.7229
-0.000283	79.6929
0.003243	104.762
0.002171	134.504
0.008262	151.5
0.010278	165.096
0.011282	174.444
0.015337	188.465
0.023474	202.487
0.032997	217.193
0.044315	227.225
0.054214	237.847
0.067656	247.88
0.077561	255.551
0.089594	260.862
0.101629	265.583
0.116498	270.304
0.134201	274.435
0.151198	277.386
0.170322	279.746
0.187315	284.467
0.205021	287.418
0.22202	289.189
0.240435	291.549
0.257432	294.5
0.273015	295.68
0.290724	296.86
0.308784	299.221
0.32649	302.171
0.343133	304.532
0.363675	306.302
0.381382	308.073
0.397672	310.138
0.415378	312.794
0.430253	313.974
0.448669	315.744
0.466376	317.515
0.484793	318.695
0.502499	321.646
0.518436	322.826
0.537205	325.186
0.556331	326.367
0.571202	329.317
0.589619	330.497
0.608033	333.448
0.628573	335.809
0.651946	338.759
0.673903	341.12
0.695855	346.431
0.721356	347.611
0.741891	352.922
0.765618	355.873
0.788634	360.594
0.809877	365.905
0.834659	372.987
0.856609	379.478
0.877135	389.805
0.901556	401.313
0.922424	418.427
0.948585	447.343
0.969049	492.783
0.990103	605.497
0.990104	605.202
0.968979	532.321
0.944993	475.669
0.922378	444.392
0.901873	421.967
0.877111	403.673
0.855168	393.051
0.834639	384.789
0.810567	376.528
0.789324	370.626
0.764144	366.34
0.741523	360.807
0.720868	356.709
0.696768	353.021
0.674634	350.562
0.650536	346.054
0.628404	342.775
0.606762	340.317
0.589053	339.087
0.570854	337.038
0.554623	334.989
0.536916	332.94
0.518225	331.301
0.501995	328.432
0.484287	326.793
0.466825	325.154
0.448874	322.285
0.432152	319.826
0.41445	314.908
0.395758	313.269
0.381005	309.991
0.361328	309.171
0.344114	306.302
0.3269	303.843
0.3087	302.614
0.290993	300.155
0.275745	298.926
0.256808	296.467
0.238364	294.213
0.221642	291.549
0.204921	288.066
0.186722	286.221
0.168033	282.943
0.15156	278.845
0.133361	276.386
0.116887	272.698
0.099678	267.37
0.087876	264.297
0.077556	257.944
0.06724	249.748
0.054953	242.781
0.045132	232.536
0.032362	220.652
0.020096	201.8
0.013728	186.227
0.009813	174.343
0.007371	164.507
0.005422	153.443
0.002013	133.772
0.001824	101.806
-0.000337	71.4802
0.000191	51.3995
