Adsorption isotherm of Carbon Dioxide on PY2B-COF
DOI: 10.1038/s41467-019-10574-6
Article source: Figure S24
Adsorbate Carbon Dioxide: InChIKey CURLTUGMZLYLDI-UHFFFAOYSA-N
Kind: experiment
Temperature: 273 K
Tabular data in the source: 0
pressure (bar)	uptake (micromoles/m2)
0.006187	-0.001196
0.1367	0.010756
0.398092	0.01971
0.610359	0.031657
0.887992	0.045095
1.15718	0.069746
1.36109	0.089169
1.65505	0.103354
1.86735	0.113806
2.194	0.128735
2.63489	0.152628
3.07581	0.175026
3.54936	0.200412
4.25974	0.236248
5.06804	0.279554
6.07233	0.331817
7.2401	0.384817
8.58755	0.445281
10.18	0.516943
12.1073	0.600543
14.4104	0.697575
17.1379	0.821492
20.4868	0.946863
24.4152	1.10509
29.1282	1.27822
30.9249	1.35285
32.7056	1.41404
34.6905	1.48717
34.715	1.48717
34.4208	1.4827
32.6564	1.42002
30.8431	1.35585
29.0461	1.29018
27.2165	1.22302
25.4522	1.15735
23.6226	1.09168
21.8584	1.02003
20.0616	0.949881
18.2321	0.876739
16.4026	0.805093
14.5894	0.733446
12.8254	0.655815
10.9797	0.575947
9.18308	0.497571
7.37023	0.412468
5.55742	0.32587
3.79376	0.235531
1.98115	0.14071
0.299586	0.036162
