Adsorption isotherm of Carbon Dioxide on PT2B-COF
DOI: 10.1038/s41467-019-10574-6
Article source: Figure S24
Adsorbate Carbon Dioxide: InChIKey CURLTUGMZLYLDI-UHFFFAOYSA-N
Kind: experiment
Temperature: 273 K
Tabular data in the source: 0
pressure (bar)	uptake (micromoles/m2)
0.030904	0.000229
0.395018	0.008191
0.653305	0.017148
0.81766	0.02312
1.14647	0.032077
1.47539	0.038048
1.92168	0.048996
2.20341	0.059944
2.55574	0.068901
3.02547	0.081839
3.61264	0.097763
4.34083	0.114682
5.09243	0.134586
6.03199	0.157477
7.15953	0.183353
8.4983	0.219182
10.1661	0.257001
12.0923	0.302782
14.4178	0.357022
17.1897	0.41823
20.4314	0.492873
24.3896	0.581449
29.0642	0.686944
34.714	0.805378
34.6905	0.804382
34.4085	0.803387
32.6112	0.769051
30.8024	0.730735
28.9817	0.692916
27.1963	0.656092
25.3875	0.616282
23.6258	0.574482
21.7465	0.533677
19.9611	0.495361
18.1875	0.458039
16.414	0.416239
14.5817	0.374439
12.726	0.332639
10.976	0.290839
9.13202	0.248541
7.39385	0.205248
5.51469	0.160463
3.70612	0.113686
1.94457	0.06691
0.324176	0.017148
