Adsorption isotherm of Hydrogen on Cu2V4O16-2D
DOI: 10.1021/Cg201030u
Adsorbate Hydrogen: InChIKey UFHFLCQGNIYNRP-UHFFFAOYSA-N
Temperature: 77 K
Tabular data in the source: 0
pressure (bar)	uptake (mmol/g)
0.0155925	0.00291162
0.0448036	0.00580995
0.0642776	0.00774217
0.109081	0.0135521
0.151939	0.019364
0.194778	0.0232246
0.218125	0.0232018
0.231819	0.0309933
0.245438	0.0309801
0.272751	0.0387583
0.288372	0.0445967
0.307827	0.0445777
0.323486	0.0543186
0.348796	0.0562451
0.364436	0.0640347
0.387887	0.0747435
0.417098	0.0776419
0.432757	0.0873827
0.454167	0.0883374
0.473736	0.100026
0.493219	0.102933
0.510852	0.115599
0.526445	0.118511
0.55576	0.132141
0.577218	0.137973
0.602604	0.147705
0.610434	0.152575
0.628086	0.167192
0.655351	0.170092
0.674958	0.185683
0.690674	0.201277
0.710176	0.206136
0.737584	0.223671
0.749257	0.223659
0.772803	0.244124
0.800068	0.247024
0.823604	0.266514
0.841133	0.268448
0.862704	0.285988
0.878316	0.29085
0.897942	0.308392
0.919352	0.309347
0.933217	0.334699
0.962846	0.380524
