Adsorption isotherm of Carbon Dioxide on Cu2V4O16-2D
DOI: 10.1021/Cg201030u
Adsorbate Carbon Dioxide: InChIKey CURLTUGMZLYLDI-UHFFFAOYSA-N
Temperature: 298 K
Tabular data in the source: 0
pressure (bar)	uptake (mmol/g)
0.0183486	0.0247934
0.0397554	0.0578512
0.0550459	0.0826446
0.0733945	0.107438
0.100917	0.152893
0.116208	0.169421
0.140673	0.202479
0.183486	0.256198
0.198777	0.280992
0.2263	0.309917
0.235474	0.326446
0.266055	0.363636
0.284404	0.392562
0.299694	0.409091
0.321101	0.433884
0.342508	0.458678
0.376147	0.491736
0.397554	0.528926
0.422018	0.549587
0.458716	0.586777
0.48318	0.615702
0.498471	0.628099
0.525994	0.644628
0.571865	0.68595
0.590214	0.702479
0.623853	0.735537
0.648318	0.760331
0.681957	0.780992
0.70948	0.805785
0.727829	0.822314
0.752294	0.838843
0.788991	0.863636
0.828746	0.88843
0.856269	0.909091
0.889908	0.933884
0.908257	0.954545
0.920489	0.96281
0.941896	0.975207
0.966361	0.987603
0.990826	1.00826
