Adsorption isotherm of Carbon Dioxide on [La(BTB)(H2O)3DMF]n Activated
DOI: 10.1039/C2jm15721g
Adsorbate Carbon Dioxide: InChIKey CURLTUGMZLYLDI-UHFFFAOYSA-N
Temperature: 278 K
Tabular data in the source: 0
pressure (bar)	uptake (mmol/g)
0.441767	0.2404
0.706827	0.30043
1.06024	0.390494
1.19277	0.410484
1.54618	0.470473
1.85542	0.530483
2.20884	0.570422
2.60643	0.620366
2.95984	0.67033
3.35743	0.690199
3.75502	0.740144
4.10843	0.760033
4.46185	0.789947
4.85944	0.829866
5.21285	0.869805
5.65462	0.899679
6.00803	0.939618
6.40562	0.969512
6.80321	1.00943
7.2008	1.03933
7.59839	1.07924
7.99598	1.11916
8.39357	1.14906
8.79116	1.18898
9.14458	1.20887
9.54217	1.24878
9.89558	1.29875
10.249	1.30861
10.6024	1.35858
11	1.40852
11.1767	1.49867
11.3092	1.59886
11.4418	1.68902
11.5743	1.78921
11.7068	1.87938
11.8394	1.97957
12.1928	2.25008
12.3253	2.35027
12.4137	2.44046
12.5462	2.54065
12.6787	2.63081
12.8112	2.731
12.8554	2.81118
13.0763	2.94141
13.3855	3.00142
13.739	3.06141
14.0482	3.12142
14.4016	3.17138
14.755	3.22135
15.1968	3.27127
15.5944	3.31119
15.9478	3.37118
16.3454	3.39105
16.743	3.42094
17.1847	3.44079
17.5823	3.47068
17.9799	3.50058
18.4217	3.52043
18.8193	3.55032
19.261	3.57017
19.6586	3.60006
20.1004	3.61991
