Adsorption isotherm of Carbon Dioxide on [La(BTB)(H2O)3DMF]n Activated
DOI: 10.1039/C2jm15721g
Adsorbate Carbon Dioxide: InChIKey CURLTUGMZLYLDI-UHFFFAOYSA-N
Temperature: 298 K
Tabular data in the source: 0
pressure (bar)	uptake (mmol/g)
0.220884	0.10015
0.26506	0.150255
0.706827	0.210204
1.01606	0.270214
1.19277	0.300208
1.59036	0.340127
2.20884	0.420046
2.60643	0.459965
3.13655	0.499824
3.53414	0.539743
4.19679	0.589566
4.59438	0.61946
5.08032	0.649314
5.43373	0.669203
5.8755	0.699077
6.09639	0.709001
6.49398	0.738895
6.89157	0.768789
7.06827	0.768709
7.46586	0.788578
7.90763	0.818452
8.26104	0.838341
8.65863	0.868235
9.05622	0.878079
9.49799	0.907953
9.85141	0.917817
10.2048	0.947731
10.6024	0.9676
11	0.997494
11.3976	1.00734
11.7952	1.02721
12.1928	1.03705
12.5904	1.06694
12.988	1.09684
13.3414	1.11673
13.739	1.1366
14.1365	1.14644
14.5341	1.17633
14.9317	1.1962
15.241	1.21611
15.6827	1.23596
16.0803	1.26586
16.4337	1.27572
16.8755	1.29557
17.2289	1.31546
17.6707	1.34533
18.0241	1.36522
18.4217	1.38509
18.8193	1.40496
19.2169	1.4148
19.6586	1.44468
20.0562	1.47457
