Adsorption isotherm of Carbon Dioxide on [La(BTB)(H2O)3DMF]n Activated
DOI: 10.1039/C2jm15721g
Adsorbate Carbon Dioxide: InChIKey CURLTUGMZLYLDI-UHFFFAOYSA-N
Temperature: 288 K
Tabular data in the source: 0
pressure (bar)	uptake (mmol/g)
0.353414	0.190315
0.706827	0.30043
1.06024	0.350394
2.03213	0.480277
3.00402	0.580085
3.48996	0.629989
4.02008	0.669847
5.03614	0.729535
5.91968	0.799308
6.97992	0.879025
7.46586	0.908879
7.90763	0.938753
8.30522	0.948596
8.70281	0.97849
11.3976	1.15771
11.8394	1.17756
12.3253	1.21744
12.7671	1.23729
13.0321	1.26724
13.9598	1.34702
14.3574	1.34684
14.755	1.37674
15.3735	1.41655
15.7711	1.44645
16.1687	1.47634
16.5221	1.53633
17.008	1.60628
17.1847	1.70645
17.3173	1.80665
17.494	1.89679
17.6265	2.00701
17.759	2.09717
17.9357	2.19734
18.2008	2.3877
18.3333	2.47786
18.51	2.57803
18.6426	2.6682
18.8193	2.76837
19.1285	2.93865
19.3936	3.01873
19.6586	3.09881
19.8795	3.17891
