Adsorption isotherm of Nitrogen on [La(BTB)(H2O)3DMF]n Activated
DOI: 10.1039/C2jm15721g
Adsorbate Nitrogen: InChIKey IJGRMHOSHXDMSA-UHFFFAOYSA-N
Temperature: 278 K
Tabular data in the source: 0
pressure (bar)	uptake (mmol/g)
0.39759	0.0399191
1.06024	0.0396171
2.03213	0.0792745
2.4739	0.0790732
2.91566	0.0888969
3.31325	0.0987408
3.71084	0.11861
4.15261	0.138459
4.5502	0.138277
4.99197	0.158126
5.43373	0.157925
5.83133	0.167769
6.27309	0.177593
6.71486	0.187416
7.11245	0.207285
7.55422	0.207084
7.99598	0.226933
8.43775	0.226731
8.83534	0.236575
9.23293	0.246419
9.6747	0.256243
10.0723	0.266087
10.5141	0.275911
10.9558	0.285734
11.3534	0.295578
11.751	0.305422
12.1928	0.315246
12.6345	0.32507
13.0321	0.334914
13.4739	0.344737
13.9157	0.354561
14.2691	0.364425
14.7108	0.374249
15.1526	0.374048
15.5502	0.383891
15.992	0.40374
16.3896	0.413584
16.8313	0.413383
17.2731	0.433232
17.6707	0.443076
18.0683	0.452919
18.51	0.462743
18.9518	0.472567
19.3936	0.482391
19.7912	0.492235
20.1004	0.492094
