Adsorption isotherm of Nitrogen on [La(BTB)(H2O)3DMF]n Activated
DOI: 10.1039/C2jm15721g
Adsorbate Nitrogen: InChIKey IJGRMHOSHXDMSA-UHFFFAOYSA-N
Temperature: 77 K
Tabular data in the source: 0
pressure (bar)	uptake (cm3(STP)/g)
0.00428927	0.00428927
0.0128678	91.76
0.0214464	93.349
0.0343142	94.1364
0.0450374	94.9256
0.0557605	95.7148
0.0793515	96.4934
0.102943	97.2721
0.126534	98.0507
0.150125	98.0313
0.171571	98.8117
0.197306	101.185
0.212319	101.172
0.242344	103.542
0.270224	105.115
0.289526	107.493
0.300249	126.636
0.302394	134.614
0.306683	142.591
0.308828	150.569
0.313117	158.546
0.315261	165.726
0.319551	173.703
0.32384	185.669
0.328129	193.646
0.330274	201.624
0.334563	209.601
0.336708	217.579
0.35172	232.729
0.366733	238.302
0.388179	249.457
0.405336	253.433
0.422493	258.207
0.437506	262.184
0.463241	263.759
0.486832	266.134
0.516857	267.705
0.536159	269.285
0.579052	272.442
0.596209	274.024
0.617655	274.804
0.641246	276.381
0.664837	277.16
0.686283	280.334
0.746333	282.679
0.76778	283.459
0.787081	284.241
0.808528	285.82
0.825685	288.2
0.857854	287.375
0.885735	290.544
0.926483	293.703
0.956508	303.254
