Adsorption isotherm of Methane on [La(BTB)(H2O)3DMF]n Activated
DOI: 10.1039/C2jm15721g
Adsorbate Methane: InChIKey VNWKTOKETHGBQD-UHFFFAOYSA-N
Temperature: 278 K
Tabular data in the source: 0
pressure (bar)	uptake (mmol/g)
0.971888	0.0998078
1.94378	0.139465
3.00402	0.189107
3.9759	0.23879
4.99197	0.278427
6.00803	0.298014
7.06827	0.337631
7.86345	0.367344
8.30522	0.367143
8.70281	0.376987
10.5141	0.446337
10.9116	0.466206
11.3092	0.466024
11.751	0.475848
12.1044	0.475687
12.502	0.495556
12.8996	0.52545
13.253	0.525289
13.6506	0.525108
14.0924	0.534932
14.49	0.554801
14.8876	0.57467
15.2851	0.574488
15.7269	0.584312
16.0803	0.584151
16.4779	0.60402
16.8755	0.633914
17.9357	0.653481
18.2892	0.65332
18.6867	0.663164
19.0843	0.683033
19.5261	0.692857
19.9237	0.712726
