Adsorption isotherm of Methane on [La(BTB)(H2O)3DMF]n Activated
DOI: 10.1039/C2jm15721g
Adsorbate Methane: InChIKey VNWKTOKETHGBQD-UHFFFAOYSA-N
Temperature: 298 K
Tabular data in the source: 0
pressure (bar)	uptake (mmol/g)
0.927711	0.0797778
1.8996	0.10941
2.91566	0.149047
3.9759	0.178639
4.90361	0.218317
5.96386	0.217834
6.97992	0.257471
7.90763	0.297148
8.92369	0.326761
10.9558	0.365935
12.0161	0.395527
12.988	0.425159
14.004	0.464797
15.0201	0.494409
16.0361	0.513996
17.0522	0.533583
18.0241	0.563215
19.0402	0.592827
20.012	0.60241
