Adsorption isotherm of Nitrogen on C6H6PdN4O
DOI: 10.1021/Ic3001416
Adsorbate Nitrogen: InChIKey IJGRMHOSHXDMSA-UHFFFAOYSA-N
Temperature: 77 K
Tabular data in the source: 0
pressure (bar)	uptake (cm3(STP)/g)
0.00516861	89.6368
0.0102415	151.688
0.0273147	172.317
0.0491856	175.687
0.0710684	182.506
0.0929513	189.325
0.117251	192.687
0.136681	192.618
0.160981	195.98
0.18284	195.903
0.207139	199.265
0.22901	202.635
0.250881	206.006
0.275169	205.92
0.299457	205.834
0.323756	209.196
0.345603	205.67
0.367486	212.489
0.389333	208.963
0.413645	215.773
0.433075	215.704
0.454934	215.627
0.479233	218.989
0.513248	222.316
0.547263	225.644
0.588576	232.394
0.627448	235.704
0.663904	242.471
0.69549	245.807
0.731933	249.126
0.773258	259.324
0.802427	266.117
0.831608	276.359
0.86323	290.04
0.885161	310.651
0.904663	331.272
0.92176	358.797
0.931583	389.797
0.943846	424.236
0.95124	455.244
0.956206	486.261
0.95879	531.08
0.963779	568.993
