Adsorption isotherm of Nitrogen on C8H7N5Ni
DOI: 10.1021/Ic3001416
Adsorbate Nitrogen: InChIKey IJGRMHOSHXDMSA-UHFFFAOYSA-N
Temperature: 77 K
Tabular data in the source: 0
pressure (bar)	uptake (cm3(STP)/g)
0.00283556	117.231
0.0102654	158.584
0.0297554	175.756
0.0662229	185.972
0.0978088	189.308
0.146396	192.584
0.207139	199.265
0.253298	202.549
0.328614	209.178
0.413633	212.325
0.467054	208.687
0.503497	212.006
0.566657	215.23
0.637103	218.428
0.675988	225.187
0.705145	228.532
0.748887	235.273
0.807225	248.859
0.843728	269.419
0.880315	314.117
0.899877	351.978
0.914581	389.857
0.929298	431.184
0.939192	482.873
0.949123	544.907
0.96147	603.484
