Adsorption isotherm of Nitrogen on C6H4N4Zn
DOI: 10.1021/Ic3001416
Adsorbate Nitrogen: InChIKey IJGRMHOSHXDMSA-UHFFFAOYSA-N
Temperature: 77 K
Tabular data in the source: 0
pressure (bar)	uptake (cm3(STP)/g)
0.00242274	156.65
0.00726823	183.251
0.0169592	189.163
0.0387639	192.118
0.0629913	192.118
0.0872188	195.074
0.111446	195.074
0.133251	195.074
0.157478	198.03
0.181706	198.03
0.205933	198.03
0.227738	198.03
0.251965	198.03
0.276193	198.03
0.30042	198.03
0.324648	198.03
0.346452	198.03
0.37068	198.03
0.392484	198.03
0.416712	198.03
0.440939	198.03
0.462744	195.074
0.484549	198.03
0.508776	198.03
0.533003	198.03
0.552385	195.074
0.576613	198.03
0.60084	198.03
0.625068	195.074
0.646872	198.03
0.668677	198.03
0.692905	195.074
0.714709	195.074
0.738937	198.03
0.760741	200.985
0.784969	200.985
0.806773	200.985
0.831001	198.03
0.852806	200.985
0.87461	206.897
0.923065	212.808
0.94487	224.631
0.954561	236.453
