Adsorption isotherm of Nitrogen on C6H4CoN4
DOI: 10.1021/Ic3001416
Adsorbate Nitrogen: InChIKey IJGRMHOSHXDMSA-UHFFFAOYSA-N
Temperature: 77 K
Tabular data in the source: 0
pressure (bar)	uptake (cm3(STP)/g)
0.0266502	212.808
0.0533003	215.764
0.084796	218.719
0.113869	224.631
0.142942	224.631
0.164747	224.631
0.186551	224.631
0.237429	227.586
0.271347	230.542
0.312534	230.542
0.351298	230.542
0.390062	233.498
0.428826	233.498
0.460321	236.453
0.511199	233.498
0.557231	239.409
0.612954	239.409
0.658986	242.365
0.695327	242.365
0.7244	248.276
0.763164	251.232
0.811619	266.01
0.833424	274.877
0.860074	292.611
0.877033	307.389
0.891569	325.123
0.903683	357.635
0.91822	384.236
0.927911	422.66
0.940024	464.039
0.942447	484.729
0.949715	514.286
0.959406	540.887
