Adsorption isotherm of Nitrogen on C9H11CdN5O
DOI: 10.1021/Ic3001416
Adsorbate Nitrogen: InChIKey IJGRMHOSHXDMSA-UHFFFAOYSA-N
Temperature: 77 K
Tabular data in the source: 0
pressure (bar)	uptake (cm3(STP)/g)
0.00242274	0.00242274
0.00484549	236.453
0.0290729	251.232
0.0557231	257.143
0.094487	251.232
0.125983	254.187
0.174438	254.187
0.227738	254.187
0.295575	254.187
0.346452	254.187
0.37068	251.232
0.385216	251.232
0.42398	254.187
0.472435	251.232
0.499085	251.232
0.554808	248.276
0.571767	251.232
0.603263	248.276
0.637181	248.276
0.685636	248.276
0.719555	251.232
0.763164	251.232
0.828578	254.187
0.867342	251.232
0.910951	251.232
0.942447	251.232
0.966675	257.143
