Adsorption isotherm of Nitrogen on C8H7CuN5
DOI: 10.1021/Ic3001416
Adsorbate Nitrogen: InChIKey IJGRMHOSHXDMSA-UHFFFAOYSA-N
Temperature: 77 K
Tabular data in the source: 0
pressure (bar)	uptake (cm3(STP)/g)
0.0122994	44.7839
0.0220504	55.0941
0.0439332	61.913
0.0633873	68.7405
0.0828294	72.1198
0.10226	72.0508
0.136274	75.3784
0.153288	78.7663
0.177587	82.1283
0.197018	82.0593
0.243176	85.3438
0.274762	88.6799
0.311194	88.5506
0.34522	95.3264
0.398653	95.1368
0.435109	101.904
0.459396	101.818
0.48853	98.266
0.507984	105.094
0.532272	105.007
0.55413	104.93
0.583276	104.826
0.605147	108.197
0.641578	108.068
0.670735	111.412
0.704738	111.292
0.733895	114.637
0.775196	117.938
0.811652	124.705
0.835952	128.067
0.870002	141.74
0.894314	148.55
0.908946	165.739
0.930889	189.799
0.938259	213.911
0.94807	241.463
0.955476	275.919
0.960501	324.177
