Adsorption isotherm of Nitrogen on MOF-74
DOI: 10.1002/App.41633
Article source: Figure 2c
Adsorbate Nitrogen: InChIKey IJGRMHOSHXDMSA-UHFFFAOYSA-N
Kind: experiment
Temperature: 77 K
Tabular data in the source: 0
pressure (bar)	uptake (cm3(STP)/g)
0	16.6374
0.000146	26.2339
0.000664	119.012
0.001967	2.55817
0.002124	30.7116
0.002809	153.563
0.026583	215.614
0.034392	215.609
0.050014	216.239
0.061731	216.871
0.069541	216.867
0.081258	217.499
0.091023	218.133
0.098836	218.768
0.112502	218.759
0.159361	219.369
0.21208	220.616
0.260895	221.864
0.313607	221.831
0.364364	221.159
0.415123	221.127
0.463932	221.096
0.495179	222.996
0.5186	221.702
0.567404	221.031
0.602577	226.768
0.618167	221.639
0.668927	221.607
0.700196	227.346
0.71969	222.215
0.77045	222.183
0.807572	227.278
0.819258	222.152
0.868077	224.04
0.907155	229.774
0.920796	225.287
0.967669	228.457
1.00872	237.389
