Adsorption isotherm of Nitrogen on Co50-MOF-74
DOI: 10.1002/App.41633
Article source: Figure 2c
Adsorbate Nitrogen: InChIKey IJGRMHOSHXDMSA-UHFFFAOYSA-N
Kind: experiment
Temperature: 77 K
Tabular data in the source: 0
pressure (bar)	uptake (cm3(STP)/g)
0	90.2203
0	96.6188
0	136.929
0.000378	67.8243
0.000675	120.932
0.000728	130.53
0.000789	141.407
0.000932	167.001
0.000957	171.48
0.000982	175.959
0.002363	73.5817
0.00691	188.752
0.006928	191.952
0.020644	200.901
0.036276	203.451
0.049953	205.362
0.05777	206.636
0.069491	207.909
0.081212	209.181
0.094892	211.732
0.112467	212.36
0.15934	215.53
0.210121	219.337
0.260892	221.225
0.311666	223.752
0.362444	226.919
0.41321	228.167
0.463988	231.334
0.497182	231.953
0.514762	233.861
0.567482	235.108
0.598729	237.008
0.616304	237.636
0.669031	240.163
0.698322	241.424
0.717845	241.411
0.768619	243.939
0.801812	244.558
0.81939	245.826
0.868212	248.355
0.905313	249.611
0.918986	250.882
0.967812	254.051
1.01084	268.74
