Adsorption isotherm of Nitrogen on Co100-MOF-74
DOI: 10.1002/App.41633
Article source: Figure 2c
Adsorbate Nitrogen: InChIKey IJGRMHOSHXDMSA-UHFFFAOYSA-N
Kind: experiment
Temperature: 77 K
Tabular data in the source: 0
pressure (bar)	uptake (cm3(STP)/g)
0	39.0322
0	106.856
0.00025	44.7896
0.000268	47.9889
0.00035	62.7054
0.001153	206.672
0.007049	213.707
0.018784	217.538
0.030519	221.37
0.036384	222.646
0.050057	223.917
0.061781	225.829
0.07155	227.103
0.079366	228.378
0.089131	229.011
0.100849	229.644
0.15163	233.451
0.20436	236.617
0.253186	239.785
0.302007	242.314
0.356683	244.199
0.403545	245.449
0.45432	247.976
0.50509	249.864
0.555861	251.751
0.604676	253
0.659354	255.525
0.70817	256.774
0.758936	258.022
0.807758	260.55
0.864382	261.794
0.9093	264.325
0.963975	266.21
1.00893	275.14
