Adsorption isotherm of Xenon on Purified HiPco SWCNT
DOI: 10.1021/la052127d
Article source: Figure 1
Adsorbate Xenon: InChIKey FHNFHKCVQCLJFQ-UHFFFAOYSA-N
Kind: experiment
Temperature: 155 K
Tabular data in the source: 0
pressure (bar)	uptake (mmol/kg)
0.000151	1481.67
0.000169	1517.81
0.000189	1572.02
0.000212	1662.36
0.000233	1698.5
0.000277	1752.71
0.00031	1843.06
0.000347	1897.26
0.000389	1951.47
0.000436	1987.61
0.000498	2059.89
0.000547	2096.02
0.000637	2168.3
0.000714	2204.44
0.0008	2276.72
0.00088	2294.79
0.001043	2367.06
0.001104	2439.34
0.001192	2475.48
0.001387	2511.62
0.001554	2511.62
0.001709	2583.89
0.001915	2638.1
0.002027	2674.24
0.002271	2728.45
0.002359	2800.72
0.002694	2873
0.002798	2891.07
0.003076	2999.48
0.003319	2999.48
0.003581	2999.48
0.003719	3053.69
0.003937	3107.9
0.004247	3180.18
0.00467	3216.31
0.004943	3288.59
0.005232	3306.66
0.005538	3360.87
0.005975	3397.01
0.006089	3433.14
0.006695	3487.35
0.006953	3541.56
0.007222	3577.7
0.00794	3686.11
0.008896	3776.46
0.010159	3884.87
0.01055	4011.36
0.012048	4101.7
0.013246	4155.91
0.01402	4264.33
0.014839	4354.67
0.016626	4481.16
0.0176	4517.29
0.018277	4625.71
0.020871	4752.19
0.022092	4806.4
0.022943	4896.75
0.024752	4950.96
0.025706	5023.23
0.02721	5077.44
0.028803	5131.65
0.030488	5185.85
0.033519	5276.2
0.034814	5312.34
0.036846	5438.82
0.041288	5511.1
0.042881	5565.31
0.045388	5655.65
0.04804	5746
0.049896	5782.14
0.053827	5854.41
0.056978	5890.55
0.059178	5944.76
0.067577	6053.18
0.068866	6107.38
0.072884	6251.94
0.074293	6161.59
0.078625	6324.21
0.083226	6378.42
0.088096	6432.63
0.093245	6522.97
0.096845	6577.18
0.102508	6649.46
0.110579	6739.8
0.114826	6902.43
0.123867	6992.77
0.128642	7083.12
0.133603	7155.39
