Adsorption isotherm of Xenon on Purified HiPco SWCNT
DOI: 10.1021/la052127d
Article source: Figure 4
Adsorbate Xenon: InChIKey FHNFHKCVQCLJFQ-UHFFFAOYSA-N
Kind: experiment
Temperature: 230 K
Tabular data in the source: 0
pressure (bar)	uptake (mmol/kg)
0.000376	227.946
0.001552	421.885
0.003588	588.443
0.006405	714.189
0.00962	836.469
0.012617	921.382
0.016547	1033.43
0.020914	1118.33
0.025474	1196.42
0.030648	1277.91
0.035974	1349.2
0.039703	1410.3
0.043281	1447.65
0.048359	1501.96
0.057468	1573.27
0.06421	1637.76
0.072634	1715.83
0.080161	1759.96
0.08847	1814.27
0.097638	1868.59
