Adsorption isotherm of Xenon on Purified HiPco SWCNT
DOI: 10.1021/la052127d
Article source: Figure 1
Adsorbate Xenon: InChIKey FHNFHKCVQCLJFQ-UHFFFAOYSA-N
Kind: experiment
Temperature: 160 K
Tabular data in the source: 0
pressure (bar)	uptake (mmol/kg)
1.1e-05	397.522
1.6e-05	560.145
2.4e-05	668.56
3.8e-05	831.182
6.5e-05	1048.01
0.00012	1246.77
0.000197	1391.33
0.000328	1626.23
0.000537	1788.85
0.000785	1987.61
0.001238	2150.23
0.00181	2294.79
0.002499	2493.55
0.003321	2674.24
0.005438	2945.28
0.006451	3035.62
0.008099	3198.24
0.009425	3360.87
0.011179	3451.21
0.012765	3613.84
0.014854	3776.46
0.016331	3866.8
0.018298	3975.22
0.020895	4083.63
0.022116	4192.05
0.02341	4246.26
0.026728	4445.02
0.028836	4481.16
0.032307	4625.71
0.03485	4734.12
0.036196	4770.26
0.038309	4896.75
0.042123	4914.82
0.043745	5023.23
0.048097	5077.44
0.049954	5131.65
0.053884	5258.13
0.054915	5276.2
0.058121	5402.68
0.063905	5438.82
0.070262	5493.03
0.074371	5565.31
0.077245	5601.45
0.083324	5709.86
0.084911	5782.14
0.091587	5926.69
0.100695	5998.97
0.106591	6035.11
0.112824	6107.38
0.117173	6197.73
0.126399	6288.07
0.136342	6414.56
0.144307	6522.97
0.152745	6595.25
0.161672	6685.6
0.167899	6794.01
0.181113	6902.43
0.188097	6974.7
0.199079	7101.19
0.206746	7209.6
0.210674	7299.95
