Adsorption isotherm of Xenon on Purified HiPco SWCNT
DOI: 10.1021/la052127d
Article source: Figure 2
Adsorbate Xenon: InChIKey FHNFHKCVQCLJFQ-UHFFFAOYSA-N
Kind: experiment
Temperature: 165 K
Tabular data in the source: 0
pressure (bar)	uptake (mmol/kg)
0	510.136
0	684.656
0.000849	2080.82
0.001273	1798.9
0.002122	2241.91
0.003819	2376.16
0.004668	2644.65
0.007638	2819.17
0.008487	2939.99
0.011033	3087.66
0.012306	3221.91
0.014852	3369.58
0.017822	3503.83
0.020368	3597.8
0.022489	3705.2
0.02546	3852.87
0.02843	4000.54
0.033098	4134.78
0.036068	4228.76
0.037765	4336.15
0.041584	4416.7
0.044554	4497.25
0.047949	4577.8
0.050495	4671.77
0.054314	4712.04
0.05686	4832.86
0.060679	4886.56
0.064922	4940.26
0.067044	5020.81
0.070863	5061.08
0.074257	5128.21
0.078501	5155.05
0.081471	5249.03
0.087836	5289.3
0.090806	5356.42
0.096323	5410.12
0.10099	5477.25
0.105233	5544.37
0.109901	5611.49
0.115417	5665.19
0.118812	5692.04
0.123904	5732.31
0.128996	5812.86
0.134088	5853.13
0.137482	5893.41
0.142999	5933.68
0.148091	6014.23
0.153182	6054.5
0.15785	6094.78
0.162942	6135.05
0.169307	6175.33
0.174823	6255.87
0.179491	6282.72
0.18628	6323
0.190523	6363.27
0.19604	6403.54
0.20198	6484.09
0.208769	6524.37
0.212588	6564.64
0.216832	6604.91
0.220226	6645.19
0.224045	6672.04
0.227864	6725.73
0.231683	6752.58
0.236775	6766.01
0.241867	6806.28
0.246959	6846.56
0.252051	6900.26
0.256719	6913.68
0.260962	6967.38
0.265629	6994.23
0.271146	7047.93
0.275813	7088.2
0.28133	7128.47
0.287694	7209.02
0.292786	7249.3
