Adsorption isotherm of Xenon on Purified HiPco SWCNT
DOI: 10.1021/la052127d
Article source: Figure 4
Adsorbate Xenon: InChIKey FHNFHKCVQCLJFQ-UHFFFAOYSA-N
Kind: experiment
Temperature: 250 K
Tabular data in the source: 0
pressure (bar)	uptake (mmol/kg)
0.00114	201.282
0.003724	364.594
0.007245	486.984
0.011292	578.754
0.015558	670.471
0.021174	755.398
0.026434	816.547
0.03341	901.443
0.039217	955.781
0.044911	1003.33
0.050803	1064.43
0.059632	1111.99
0.065007	1159.51
0.069997	1210.42
0.078209	1247.78
0.082163	1288.5
0.091803	1332.64
0.096442	1356.41
0.103845	1383.57
0.113204	1427.7
0.121894	1458.26
0.129642	1488.81
0.134526	1519.36
0.143079	1556.69
0.15031	1587.24
0.157908	1627.97
0.165889	1655.12
0.174272	1685.67
0.180838	1719.6
0.185353	1743.36
0.189978	1770.5
0.204562	1794.28
0.2071	1807.85
