Adsorption isotherm of Xenon on Purified HiPco SWCNT
DOI: 10.1021/la052127d
Article source: Figure 4
Adsorbate Xenon: InChIKey FHNFHKCVQCLJFQ-UHFFFAOYSA-N
Kind: experiment
Temperature: 260 K
Tabular data in the source: 0
pressure (bar)	uptake (mmol/kg)
0.001496	184.437
0.004765	320.604
0.008717	432.793
0.012932	517.757
0.018039	589.128
0.022244	646.879
0.028463	714.821
0.034244	779.345
0.04171	823.524
0.045469	864.263
0.052717	915.204
0.058902	962.737
0.065813	1006.88
0.070865	1044.22
0.078209	1074.79
0.084213	1101.96
0.090678	1129.12
0.092941	1163.05
0.100075	1186.83
0.109094	1230.96
0.110447	1258.1
0.117468	1285.26
0.129642	1309.04
0.134526	1339.59
0.14665	1366.76
0.161848	1421.07
0.165889	1451.61
0.170029	1485.54
0.185353	1509.32
0.194719	1546.65
0.204562	1597.55
0.209667	1614.52
0.220265	1638.28
0.231396	1648.48
0.252252	1672.26
0.255374	1706.18
0.26176	1750.29
0.281837	1787.63
0.285354	1801.2
0.29608	1828.35
