Adsorption isotherm of Xenon on Purified HiPco SWCNT
DOI: 10.1021/la052127d
Article source: Figure 4
Adsorbate Xenon: InChIKey FHNFHKCVQCLJFQ-UHFFFAOYSA-N
Kind: experiment
Temperature: 220 K
Tabular data in the source: 0
pressure (bar)	uptake (mmol/kg)
0.000216	210.752
0.000705	407.983
0.001844	588.161
0.003588	737.686
0.005593	866.766
0.008196	995.82
0.011718	1124.86
0.014272	1219.92
0.017818	1308.2
0.021702	1379.52
0.024854	1447.41
0.028114	1518.69
0.034668	1590.01
0.038736	1654.51
0.044361	1722.4
0.048959	1797.06
