Adsorption isotherm of Hydrogen on Purified HiPco SWCNT
DOI: 10.1021/la052127d
Article source: Figure 3
Adsorbate Hydrogen: InChIKey UFHFLCQGNIYNRP-UHFFFAOYSA-N
Kind: experiment
Temperature: 40 K
Tabular data in the source: 0
pressure (bar)	uptake (mmol/kg)
2e-06	830.756
3e-06	1109.95
6e-06	1598.15
1.4e-05	2017.36
3.7e-05	2413.56
0.000113	2879.74
0.000303	3368.77
0.000719	3764.8
0.001792	4462.27
0.003511	5020.11
0.005544	5600.62
0.009634	6135.01
0.015955	6599.74
0.024589	7041.13
0.036113	7366.52
0.053031	7645.55
0.06583	7831.48
0.08172	8040.59
0.103881	8110.68
0.120011	8342.8
0.145431	8482.31
0.176244	8645.01
0.203572	8784.41
0.235104	8854.28
0.278141	8970.56
0.299026	9179.33
0.380212	9388.49
0.418648	9597.32
0.495234	9690.43
0.62988	10015.5
0.71033	10154.8
0.74563	10433.1
0.861203	10572.5
0.948451	10850.8
