Adsorption isotherm of Xenon on Purified HiPco SWCNT
DOI: 10.1021/la052127d
Article source: Figure 1
Adsorbate Xenon: InChIKey FHNFHKCVQCLJFQ-UHFFFAOYSA-N
Kind: experiment
Temperature: 165 K
Tabular data in the source: 0
pressure (bar)	uptake (mmol/kg)
2.1e-05	524.006
3.6e-05	686.629
6.2e-05	831.182
0.000103	993.805
0.000169	1156.43
0.000266	1319.05
0.000412	1463.6
0.000602	1626.23
0.00088	1788.85
0.001239	1951.47
0.001743	2096.02
0.002407	2258.65
0.003139	2367.06
0.005546	2620.03
0.007232	2782.65
0.00908	2945.28
0.01077	3089.83
0.013522	3216.31
0.014586	3360.87
0.017301	3469.28
0.019383	3631.91
0.023431	3740.32
0.02576	3830.67
0.031138	3993.29
0.032337	4101.7
0.036233	4192.05
0.037627	4318.53
0.042967	4426.95
0.045477	4535.36
0.048138	4589.57
0.049992	4697.99
0.056019	4752.19
0.058183	4788.33
0.062765	4878.68
0.070316	5059.37
0.070325	4987.09
0.074433	5095.51
0.078778	5221.99
0.084986	5276.2
0.089956	5348.48
0.097045	5402.68
0.104686	5493.03
0.106676	5583.38
0.108731	5529.17
0.115083	5637.58
0.121817	5691.79
0.126524	5727.93
0.128929	5818.28
0.133914	5836.34
0.136464	5908.62
0.150031	5998.97
0.152881	6089.31
0.16807	6215.8
0.16809	6143.52
0.174551	6288.07
0.181298	6324.21
0.199314	6432.63
0.210943	6577.18
0.223258	6685.6
0.223281	6631.39
0.236307	6794.01
0.23633	6739.8
0.250117	6884.36
0.250142	6830.15
0.259753	6956.63
0.264709	7046.98
0.274906	7155.39
0.274934	7101.19
0.285497	7209.6
0.296524	7281.88
