Adsorption isotherm of Xenon on Purified HiPco SWCNT
DOI: 10.1021/la052127d
Article source: Figure 1
Adsorbate Xenon: InChIKey FHNFHKCVQCLJFQ-UHFFFAOYSA-N
Kind: experiment
Temperature: 150 K
Tabular data in the source: 0
pressure (bar)	uptake (mmol/kg)
0.000134	1698.5
0.000159	1734.64
0.000179	1788.85
0.000212	1897.26
0.000247	1951.47
0.000293	2059.89
0.000341	2114.09
0.000404	2150.23
0.000479	2258.65
0.000568	2294.79
0.000674	2421.27
0.000785	2475.48
0.000896	2511.62
0.001043	2620.03
0.001169	2674.24
0.001386	2728.45
0.001553	2836.86
0.001708	2909.14
0.001914	2927.21
0.002145	2981.41
0.002403	3107.9
0.002693	3162.11
0.00285	3198.24
0.003133	3324.73
0.003317	3360.87
0.003717	3415.07
0.00401	3487.35
0.004408	3577.7
0.004666	3613.84
0.005034	3704.18
0.005748	3830.67
0.006201	3884.87
0.006689	3975.22
0.007354	4047.5
0.007637	4173.98
0.008239	4228.19
0.008721	4300.46
0.009589	4354.67
0.009958	4445.02
0.01054	4535.36
0.01074	4625.71
0.011587	4679.92
0.012983	4770.26
0.013741	4878.68
0.014823	4969.02
0.015991	5041.3
0.016925	5131.65
0.018609	5203.92
0.019699	5221.99
0.021249	5330.41
0.024728	5493.03
0.027184	5619.51
0.029887	5709.86
0.032859	5782.14
0.036126	5872.48
0.038968	5998.97
0.044498	6107.38
0.048919	6233.87
0.050804	6324.21
0.055857	6396.49
0.060249	6541.04
0.067504	6667.53
0.071445	6794.01
0.078538	6956.63
0.084722	7046.98
0.089668	7173.46
0.094908	7263.81
0.096718	7318.02
