Adsorption isotherm of Xenon on Purified HiPco SWCNT
DOI: 10.1021/la052127d
Article source: Figure 4
Adsorbate Xenon: InChIKey FHNFHKCVQCLJFQ-UHFFFAOYSA-N
Kind: experiment
Temperature: 240 K
Tabular data in the source: 0
pressure (bar)	uptake (mmol/kg)
0.000778	218.079
0.003095	422.178
0.006405	578.513
0.010487	697.438
0.014994	806.13
0.019908	897.832
0.024854	986.115
0.031028	1050.65
0.035534	1118.55
0.042227	1193.24
0.048359	1250.96
0.054703	1312.07
0.061121	1369.78
0.067456	1427.48
0.07537	1471.63
0.081156	1515.75
0.086315	1556.48
0.094094	1600.61
0.100075	1627.77
0.103845	1654.92
0.110447	1675.3
0.116029	1712.63
0.124936	1749.97
0.128055	1794.08
