Adsorption isotherm of Xenon on Purified HiPco SWCNT
DOI: 10.1021/la052127d
Article source: Figure 1
Adsorbate Xenon: InChIKey FHNFHKCVQCLJFQ-UHFFFAOYSA-N
Kind: experiment
Temperature: 175 K
Tabular data in the source: 0
pressure (bar)	uptake (mmol/kg)
9e-06	144.553
1.6e-05	289.107
3.2e-05	469.799
6.9e-05	686.629
0.000135	849.251
0.000247	993.805
0.000412	1156.43
0.000603	1319.05
0.000933	1463.6
0.001312	1626.23
0.001812	1734.64
0.002501	1897.26
0.003325	2005.68
0.009087	2511.62
0.011194	2692.31
0.014057	2782.65
0.016359	2891.07
0.019402	3053.69
0.025788	3216.31
0.028894	3324.73
0.032375	3433.14
0.03427	3469.28
0.037676	3577.7
0.039876	3704.18
0.047299	3794.53
0.052991	3957.15
0.058258	4065.57
0.065275	4173.98
0.077405	4426.95
0.086728	4535.36
0.102845	4788.33
0.102855	4734.12
0.115233	4896.75
0.126685	5005.16
0.1291	5059.37
0.144624	5276.2
0.144637	5221.99
0.162049	5366.55
0.1683	5438.82
0.178136	5529.17
0.188547	5619.51
0.207272	5764.07
0.219388	5854.41
0.232207	5926.69
0.245778	6017.04
0.260117	6179.66
0.260143	6107.38
0.275346	6197.73
0.297029	6306.14
0.308441	6450.7
0.326435	6595.25
0.345478	6757.87
0.345513	6685.6
0.358787	6848.22
0.387041	6956.63
0.409579	7155.39
0.409661	7046.98
0.433516	7245.74
