Adsorption isotherm of Nitrogen on InOF-1
DOI: 10.1039/C2cc35068h
Adsorbate Nitrogen: InChIKey IJGRMHOSHXDMSA-UHFFFAOYSA-N
Temperature: 77 K
Tabular data in the source: 0
pressure (bar)	uptake (cm3(STP)/g)
0.00515504	4.5591
0.00658518	54.7571
0.00658518	105.384
0.00658518	133.701
0.00658518	165.021
0.00801532	195.054
0.00801532	223.8
0.0137359	240.533
0.0294675	250.83
0.0723718	258.982
0.128147	262.843
0.25257	267.562
0.501415	270.137
0.608675	270.995
0.690194	271.424
0.791734	269.708
0.868961	269.708
0.930458	269.279
0.967641	269.279
