Adsorption isotherm of Nitrogen on InOF-1
DOI: 10.1039/C2cc35068h
Adsorbate Nitrogen: InChIKey IJGRMHOSHXDMSA-UHFFFAOYSA-N
Temperature: 273 K
Tabular data in the source: 0
pressure (bar)	uptake (cm3(STP)/g)
0.0422383	1.35455
0.0929425	1.1292
0.221112	2.48131
0.302802	2.70666
0.390126	3.38272
0.499985	3.38272
0.60421	3.83343
0.705619	5.18554
0.815478	5.18554
0.919703	5.41089
1.01266	5.63624
1.03097	5.86159
1.05351	5.86159
