Adsorption isotherm of Carbon Dioxide on InOF-1
DOI: 10.1039/C2cc35068h
Adsorbate Carbon Dioxide: InChIKey CURLTUGMZLYLDI-UHFFFAOYSA-N
Temperature: 273 K
Tabular data in the source: 0
pressure (bar)	uptake (cm3(STP)/g)
0.0126608	10.3686
0.0704073	23.4391
0.118295	34.0306
0.173224	44.8475
0.223928	55.4391
0.276041	66.0306
0.335196	76.3968
0.412661	88.3405
0.494351	99.8334
0.576041	108.622
0.654914	116.735
0.730971	122.594
0.815478	127.777
0.895759	133.411
0.997168	138.369
1.05491	140.848
