Adsorption isotherm of Methane on InOF-1
DOI: 10.1039/C2cc35068h
Adsorbate Methane: InChIKey VNWKTOKETHGBQD-UHFFFAOYSA-N
Temperature: 273 K
Tabular data in the source: 0
pressure (bar)	uptake (cm3(STP)/g)
0.0422383	2.25596
0.143647	4.73483
0.225337	6.53765
0.333788	9.91793
0.416886	12.1715
0.490126	13.9743
0.599985	16.2278
0.735196	19.6081
0.836604	22.0869
0.894351	23.4391
0.945055	24.7912
0.998576	25.9179
1.05069	27.0447
