Adsorption isotherm of Nitrogen on [Cu3([11:31-terphenyl]-445-tricarboxylate)2(14-diazabicyclo[2.2.2]octane)](elongated)
DOI: 10.1039/c5dt02636a
Article source: Figure 7
Adsorbate Nitrogen: InChIKey IJGRMHOSHXDMSA-UHFFFAOYSA-N
Kind: experiment
Temperature: 77 K
Tabular data in the source: 0
pressure (bar)	uptake (cm3(STP)/g)
0.001825	40.2644
0.021898	751.629
0.025547	762.806
0.031022	760.557
0.043796	773.951
0.058394	780.63
0.063869	782.855
0.076642	787.301
0.085766	791.754
0.100365	796.196
0.118613	800.63
0.122263	800.621
0.140511	807.292
0.14781	807.276
0.169708	811.701
0.186131	813.901
0.213504	816.077
0.229927	820.515
0.260949	824.92
0.277372	827.12
0.315693	831.509
0.324818	831.488
0.370438	835.86
0.372263	835.856
0.419708	837.987
0.465328	840.122
0.470803	840.11
0.514599	842.249
0.521898	844.47
0.560219	846.621
0.572993	846.593
0.609489	848.748
0.625912	846.474
0.658759	848.638
0.675182	848.601
0.708029	850.765
0.726277	850.724
0.755474	852.896
0.777372	852.847
0.80292	852.79
0.826642	852.737
0.854015	854.913
0.877737	854.86
0.903285	857.04
0.928832	856.982
0.956204	856.921
0.976277	859.113
