Adsorption isotherm of Nitrogen on [Cu3([11:31-terphenyl]-445-tricarboxylate)2(14-diazabicyclo[2.2.2]octane)](truncated)
DOI: 10.1039/c5dt02636a
Article source: Figure 7
Adsorbate Nitrogen: InChIKey IJGRMHOSHXDMSA-UHFFFAOYSA-N
Kind: experiment
Temperature: 77 K
Tabular data in the source: 0
pressure (bar)	uptake (cm3(STP)/g)
0.001825	0.001825
0.00365	559.276
0.007299	583.876
0.010949	615.188
0.012774	657.69
0.016423	635.31
0.023723	680.036
0.036496	691.194
0.047445	702.355
0.051095	700.109
0.062044	706.796
0.071168	711.25
0.085766	713.455
0.096715	717.904
0.113139	724.579
0.120438	724.563
0.135036	729.004
0.156934	735.667
0.162409	733.417
0.206204	742.268
0.209854	740.023
0.260949	748.857
0.264599	748.849
0.310219	753.221
0.34854	757.61
0.364964	757.573
0.403285	761.961
0.416058	761.933
0.467153	766.293
0.49635	768.465
0.518248	770.653
0.558394	770.563
0.569343	770.538
0.605839	772.694
0.622263	774.894
0.667883	774.792
0.671533	774.784
0.708029	776.94
0.722628	776.907
0.755474	779.071
0.773723	779.03
0.806569	781.193
0.821168	781.161
0.855839	781.083
0.872263	783.284
0.912409	785.431
0.923358	785.406
0.968978	789.779
0.989051	794.208
0.998175	798.662
