Adsorption isotherm of Nitrogen on [Cu3([11:31-terphenyl]-445-tricarboxylate)2(14-diazabicyclo[2.2.2]octane)](spindle)
DOI: 10.1039/c5dt02636a
Article source: Figure 7
Adsorbate Nitrogen: InChIKey IJGRMHOSHXDMSA-UHFFFAOYSA-N
Kind: experiment
Temperature: 77 K
Tabular data in the source: 0
pressure (bar)	uptake (cm3(STP)/g)
0	53.8117
0.001825	112.108
0.00365	334.081
0.014599	659.193
0.027372	690.583
0.04562	706.278
0.063869	717.489
0.071168	721.973
0.080292	724.215
0.10219	730.942
0.116788	735.426
0.138686	742.152
0.166058	744.395
0.19708	751.121
0.237226	755.605
0.25365	757.848
0.304745	762.332
0.341241	766.816
0.39781	771.3
0.436131	773.543
0.50365	778.027
0.523723	780.269
0.611314	784.753
0.618613	784.753
0.715328	786.996
0.813869	789.238
0.919708	795.964
0.968978	795.964
