Adsorption isotherm of Nitrogen on [Cu3([11:31-terphenyl]-445-tricarboxylate)2(14-diazabicyclo[2.2.2]octane)](truncated)
DOI: 10.1039/c5dt02636a
Article source: Figure 7
Adsorbate Nitrogen: InChIKey IJGRMHOSHXDMSA-UHFFFAOYSA-N
Kind: experiment
Temperature: 77 K
Tabular data in the source: 0
pressure (bar)	uptake (cm3(STP)/g)
0	358.744
0.001825	506.726
0.00365	457.399
0.005474	533.632
0.012774	612.108
0.031022	645.74
0.034672	654.709
0.04562	665.919
0.054745	670.404
0.062044	672.646
0.087591	683.857
0.093066	686.099
0.116788	692.825
0.131387	695.067
0.160584	701.794
0.175182	704.036
0.206204	710.762
0.231752	713.004
0.251825	717.489
0.290146	719.731
0.301095	724.215
0.344891	726.457
0.354015	728.7
0.394161	730.942
0.417883	735.426
0.445255	737.668
0.467153	746.637
0.498175	739.91
0.54562	760.09
0.547445	742.152
0.594891	748.879
0.642336	766.816
0.645985	753.363
0.69708	757.848
0.739051	766.816
0.74635	762.332
0.841241	775.785
0.895985	773.543
0.943431	778.027
0.979927	791.48
1	816.143
