Adsorption isotherm of Nitrogen on PCN-333(Cr)
DOI: 10.1021/jacs.5b07373
Article source: Figure 3
Adsorbate Nitrogen: InChIKey IJGRMHOSHXDMSA-UHFFFAOYSA-N
Kind: experiment
Temperature: 77 K
Tabular data in the source: 0
pressure (bar)	uptake (cm3(STP)/g)
0	0
0.003753	80.3177
0.007506	286.782
0.011258	378.568
0.033775	459.098
0.045033	539.501
0.078808	620.158
0.116336	677.922
0.146358	770.005
0.183886	827.769
0.213908	885.449
0.232673	920.065
0.255189	977.659
0.277705	977.914
0.281459	1058.23
0.303975	1150.23
0.307728	1047.06
0.315233	1242.1
0.326491	1116.08
0.330245	1311.08
0.341503	1242.4
0.345256	1425.93
0.356514	1299.91
0.371525	1483.56
0.37903	1357.5
0.390289	1529.65
0.409053	1403.71
0.416558	1610.22
0.424064	1702.05
0.427816	1449.8
0.439075	1736.62
0.446581	1518.82
0.461592	1564.86
0.469097	1759.9
0.47285	1633.79
0.491614	1771.62
0.517883	1703.11
0.555411	1772.34
0.600445	1772.85
0.645478	1784.83
0.705522	1785.51
0.746803	1808.91
0.78433	1809.34
0.829364	1821.31
0.859386	1821.65
0.893161	1822.04
0.923183	1822.38
0.960711	1845.74
