Adsorption isotherm of Nitrogen on PCN-333(Fe)
DOI: 10.1021/jacs.5b07373
Article source: Figure 3
Adsorbate Nitrogen: InChIKey IJGRMHOSHXDMSA-UHFFFAOYSA-N
Kind: experiment
Temperature: 77 K
Tabular data in the source: 0
pressure (bar)	uptake (cm3(STP)/g)
0	0
0.007562	134.613
0.011342	291.605
0.022685	403.838
0.041589	493.734
0.064273	561.249
0.0983	595.258
0.151232	674.319
0.189039	742.002
0.226847	787.263
0.249532	854.779
0.268435	843.777
0.272217	1023.19
0.287339	1079.41
0.298682	945.009
0.302462	1146.84
0.317586	978.85
0.328928	1326.51
0.33649	1046.32
0.347833	1382.77
0.351613	1147.39
0.362955	1225.99
0.374298	1472.75
0.381859	1304.67
0.38942	1562.6
0.393202	1383.27
0.404544	1596.4
0.415886	1428.37
0.419667	1675.05
0.427229	1776.03
0.43479	1473.42
0.438571	1877.05
0.449913	1540.85
0.461256	1585.82
0.472598	1664.42
0.487721	1911.23
0.495283	1731.94
0.510405	1810.58
0.514187	1911.52
0.52931	1833.21
0.53309	1911.73
0.551994	1844.67
0.555775	1900.77
0.574679	1867.34
0.582241	1912.27
0.62761	1912.77
0.665417	1924.4
0.688102	1924.65
0.72213	1925.03
0.752376	1936.58
0.790184	1936.99
0.827991	1937.41
0.858238	1937.75
0.888484	1938.08
0.933854	1949.79
0.956538	1938.83
0.975443	1950.25
