Adsorption isotherm of Methane on UPC-12
DOI: 10.1021/acs.inorgchem.5b01232
Article source: Figure 3b
Adsorbate Methane: InChIKey VNWKTOKETHGBQD-UHFFFAOYSA-N
Kind: experiment
Temperature: 273 K
Tabular data in the source: 0
pressure (bar)	uptake (cm3(STP)/g)
0.028478	0.185
0.032091	0.268
0.038983	0.329
0.046903	0.727
0.056395	0.321
0.071527	0.843
0.074781	0.334
0.084646	0.393
0.100072	0.386
0.100445	0.978
0.11879	0.42
0.121137	1.054
0.128656	0.564
0.151028	1.167
0.174332	1.051
0.20093	0.997
0.218342	1.117
0.240674	1.17
0.267618	1.243
0.286016	1.362
0.306388	1.543
0.328386	1.618
0.346785	1.736
0.363543	1.835
0.373396	1.894
0.392768	1.885
0.419046	2.001
0.442697	2.117
0.471921	2.342
0.497986	2.331
0.515704	2.256
0.542302	2.311
0.552755	2.743
0.578806	2.698
0.606443	2.787
0.635121	2.942
0.651293	3.035
0.679464	3.426
0.708662	3.547
0.736286	3.401
0.762871	3.322
0.784255	3.447
0.815013	3.534
0.841597	3.522
0.867142	3.611
0.89218	3.768
0.921911	3.99
0.952655	3.909
0.9704	4.17
1.01997	4.33
1.04934	4.237
