Adsorption isotherm of Carbon Dioxide on UPC-12
DOI: 10.1021/acs.inorgchem.5b01232
Article source: Figure 3b
Adsorbate Carbon Dioxide: InChIKey CURLTUGMZLYLDI-UHFFFAOYSA-N
Kind: experiment
Temperature: 273 K
Tabular data in the source: 0
pressure (bar)	uptake (cm3(STP)/g)
0.015052	5.891
0.020078	6.794
0.042303	18.237
0.048049	17.542
0.073167	22.219
0.0781	21.578
0.101458	24.55
0.110578	24.866
0.126376	26.084
0.132269	27.733
0.154707	29.321
0.156427	30.332
0.181252	30.162
0.182185	32.026
0.20369	31.696
0.20373	32.495
0.226955	33.178
0.240927	31.84
0.259259	33.856
0.260045	33.163
0.27919	34.859
0.284923	33.951
0.308201	35.752
0.312241	34.099
0.342958	35.79
0.343718	34.618
0.358717	36.369
0.361944	34.983
0.386888	36.889
0.390141	35.876
0.420019	37.248
0.43991	37.931
0.44695	36.38
0.468908	38.291
0.479814	36.903
0.497092	39.078
0.499666	37.397
0.525237	39.385
0.525743	37.721
0.545062	38.149
0.548795	39.59
0.56542	38.543
0.579059	39.946
0.583685	38.971
0.600377	39.165
0.600977	40.373
0.623855	39.423
0.630188	40.729
0.637948	39.652
0.659932	41.186
0.668225	40.343
0.677158	41.547
0.697983	40.968
0.712101	41.834
0.737619	41.319
0.741312	42.157
0.756924	41.646
0.764284	42.583
0.781442	41.904
0.784096	42.708
0.818533	43.197
0.834625	41.981
0.843051	43.454
0.861836	43.714
0.864902	42.639
0.894166	43.935
0.905579	42.99
0.918151	43.992
0.930097	43.181
0.948935	44.381
0.952508	43.272
0.972867	43.598
0.981266	44.568
0.997905	43.956
1.00996	44.79
1.0261	44.682
1.03029	44.781
1.05011	45.141
