Adsorption isotherm of Nitrogen on UPC-12
DOI: 10.1021/acs.inorgchem.5b01232
Article source: Figure 3b
Adsorbate Nitrogen: InChIKey IJGRMHOSHXDMSA-UHFFFAOYSA-N
Kind: experiment
Temperature: 77 K
Tabular data in the source: 0
pressure (bar)	uptake (cm3(STP)/g)
0.001467	-1.113
0.002133	-0.818
0.002546	0.493
0.002813	-0.607
0.003146	-0.353
0.003173	-0.078
0.0032	0.471
0.00352	0.26
