Adsorption isotherm of Hydrogen on UPC-12
DOI: 10.1021/acs.inorgchem.5b01232
Article source: Figure 3b
Adsorbate Hydrogen: InChIKey UFHFLCQGNIYNRP-UHFFFAOYSA-N
Kind: experiment
Temperature: 77 K
Tabular data in the source: 0
pressure (bar)	uptake (cm3(STP)/g)
0.013132	1.651
0.019545	11.589
0.044476	13.229
0.045436	3.56
0.071021	14.176
0.074701	4.203
0.097939	14.591
0.111551	5.244
0.12731	14.551
0.127963	5.257
0.148348	5.671
0.173972	5.787
0.177799	14.635
0.20125	6.028
0.204676	14.544
0.227208	6.228
0.2411	14.687
0.253486	6.386
0.258899	14.733
0.268591	6.485
0.284963	14.775
0.288643	6.688
0.304415	6.786
0.315161	14.735
0.341519	6.749
0.347838	14.587
0.358597	6.784
0.368943	14.631
0.381915	6.816
0.394181	14.593
0.395381	6.894
0.422325	14.714
0.424285	7.008
0.449576	7.039
0.449603	14.303
0.473228	7.156
0.479401	14.343
0.494613	7.675
0.512904	14.195
0.522197	7.79
0.528637	14.241
0.544542	7.864
0.554274	14.15
0.566873	7.897
0.576073	7.914
0.579512	13.872
0.599737	8.39
0.615469	13.722
0.630281	8.334
0.639947	13.409
0.653933	8.429
0.667585	13.397
0.683824	8.67
0.687383	13.288
0.707182	13.078
0.708142	8.807
0.731473	9.072
0.738459	13.198
0.760377	9.186
0.767124	12.917
0.788628	9.237
0.796295	12.636
0.81556	9.352
0.824439	12.523
0.840851	9.383
0.85153	12.343
0.867115	9.371
0.880714	12.095
0.895033	9.295
0.903112	11.918
0.927244	9.852
0.929177	11.772
0.948975	11.595
0.957135	9.966
0.974507	11.517
0.988692	10.417
1.00906	10.577
1.01152	11.467
1.02681	10.696
1.03131	11.224
1.05175	10.6
