Adsorption isotherm of Hydrogen on Mo3(BTC)2
DOI: 10.1039/B601811d
Adsorbate Hydrogen: InChIKey UFHFLCQGNIYNRP-UHFFFAOYSA-N
Temperature: 77 K
Tabular data in the source: 0
pressure (bar)	uptake (cm3(STP)/g)
0.00837971	9.11397
0.0127495	18.2904
0.0520772	47.1308
0.0979595	71.6014
0.205018	100.879
0.298968	122.29
0.401657	138.459
0.504346	152.005
0.602665	163.803
0.714094	174.29
0.810228	182.593
0.910733	190.895
1.00468	194.828
