Adsorption isotherm of Nitrogen on Mo3(BTC)2
DOI: 10.1039/B601811d
Adsorbate Nitrogen: InChIKey IJGRMHOSHXDMSA-UHFFFAOYSA-N
Temperature: 77 K
Tabular data in the source: 0
pressure (bar)	uptake (cm3(STP)/g)
0.00619484	320.989
0.00837971	355.073
0.0193041	377.359
0.0477074	394.401
0.100144	408.821
0.152581	423.241
0.209388	433.728
0.270565	440.283
0.360144	452.081
0.436615	461.258
0.550228	474.367
0.657287	482.233
0.742497	492.72
0.786195	500.586
0.862665	507.14
0.901993	515.006
0.936951	537.292
0.952245	570.065
0.9588	594.972
