Adsorption isotherm of Carbon Dioxide on PEI-25-APTES-25-PQCS2129
DOI: 10.1021/Ef201578a
Adsorbate Carbon Dioxide: InChIKey CURLTUGMZLYLDI-UHFFFAOYSA-N
Temperature: 373 K
Tabular data in the source: 0
pressure (bar)	uptake (mmol/g)
0.0107991	0.331767
0.0215983	0.462529
0.0280778	0.563096
0.0367171	0.794339
0.0518359	0.925144
0.0604752	1.01568
0.0691145	1.10622
0.0971922	1.32761
0.110151	1.40814
0.12527	1.47865
0.140389	1.5592
0.155508	1.61965
0.172786	1.68013
0.192225	1.73058
0.209503	1.781
0.228942	1.83145
0.24838	1.87184
0.269978	1.90221
0.289417	1.94261
0.311015	1.96292
0.330454	1.99327
0.352052	2.01359
0.37149	2.03388
0.393089	2.0542
0.414687	2.07452
0.434125	2.09482
0.455724	2.10508
0.475162	2.12538
0.49676	2.13565
0.520518	2.15599
0.544276	2.16627
0.563715	2.17652
0.585313	2.18679
0.606911	2.19705
0.62851	2.20732
0.650108	2.20754
0.669546	2.21778
0.691145	2.22805
0.712743	2.23832
0.734341	2.24859
0.75594	2.2488
0.775378	2.25905
0.796976	2.25927
0.818575	2.26953
0.840173	2.2597
0.861771	2.28002
0.883369	2.28023
