Adsorption isotherm of Carbon Dioxide on PEI-25-APTES-25-PQCS2129
DOI: 10.1021/Ef201578a
Adsorbate Carbon Dioxide: InChIKey CURLTUGMZLYLDI-UHFFFAOYSA-N
Temperature: 333 K
Tabular data in the source: 0
pressure (bar)	uptake (mmol/g)
0.0172786	1.1861
0.0215983	1.4776
0.0345572	1.80939
0.0453564	2.05071
0.0561555	2.19152
0.0647948	2.28206
0.0734341	2.3726
0.0907127	2.49337
0.105832	2.56388
0.12311	2.6344
0.138229	2.69486
0.157667	2.73525
0.177106	2.77565
0.198704	2.81607
0.218143	2.83636
0.239741	2.86673
0.259179	2.88703
0.280778	2.90734
0.302376	2.91761
0.321814	2.93791
0.343413	2.94818
0.365011	2.95844
0.386609	2.96871
0.406048	2.97896
0.427646	2.98922
0.449244	2.99949
0.470842	2.99971
0.492441	3.00997
0.514039	3.01019
0.533477	3.02044
0.555076	3.0307
0.576674	3.03092
0.598272	3.03114
0.61987	3.04141
0.641469	3.04162
0.663067	3.04184
0.684665	3.04206
0.704104	3.0523
0.725702	3.05252
0.7473	3.05274
0.768898	3.063
0.790497	3.06322
0.812095	3.06344
0.838013	3.0637
0.857451	3.06389
0.87905	3.07416
