Adsorption isotherm of Carbon Dioxide on PEI-25-APTES-25-PQCS2129
DOI: 10.1021/Ef201578a
Adsorbate Carbon Dioxide: InChIKey CURLTUGMZLYLDI-UHFFFAOYSA-N
Temperature: 343 K
Tabular data in the source: 0
pressure (bar)	uptake (mmol/g)
0.0410367	1.92001
0.0820734	2.19178
0.50108	2.91961
0.831533	3.01338
