Adsorption isotherm of Carbon Dioxide on PEI-25-APTES-25-PQCS2129
DOI: 10.1021/Ef201578a
Adsorbate Carbon Dioxide: InChIKey CURLTUGMZLYLDI-UHFFFAOYSA-N
Temperature: 383 K
Tabular data in the source: 0
pressure (bar)	uptake (mmol/g)
0.0151188	0.130805
0.0237581	0.221344
0.0345572	0.311905
0.0453564	0.402466
0.0561555	0.482976
0.0669546	0.563487
0.0950324	0.724573
0.110151	0.795077
0.12527	0.875631
0.140389	0.936084
0.157667	1.00661
0.172786	1.06706
0.192225	1.11751
0.209503	1.16793
0.228942	1.21838
0.24838	1.26883
0.267819	1.30922
0.287257	1.34962
0.306695	1.37997
0.326134	1.42036
0.345572	1.45071
0.367171	1.48108
0.386609	1.51142
0.408207	1.53174
0.427646	1.56209
0.449244	1.5824
0.468683	1.6027
0.490281	1.62302
0.5054	1.64327
0.526998	1.65354
0.546436	1.67383
0.568035	1.6841
0.589633	1.70442
0.609071	1.72471
0.63067	1.73498
0.652268	1.74525
0.671706	1.75549
0.693305	1.77581
0.714903	1.78608
0.734341	1.79633
0.75594	1.80659
0.777538	1.81686
0.799136	1.82713
0.820734	1.83739
0.840173	1.84764
0.861771	1.85791
0.883369	1.85812
