Adsorption isotherm of Carbon Dioxide on PEI-25-APTES-25-PQCS2129
DOI: 10.1021/Ef201578a
Adsorbate Carbon Dioxide: InChIKey CURLTUGMZLYLDI-UHFFFAOYSA-N
Temperature: 363 K
Tabular data in the source: 0
pressure (bar)	uptake (mmol/g)
0.012959	0.572995
0.0215983	0.794187
0.0323974	0.96515
0.0367171	1.0657
0.0431965	1.15621
0.0518359	1.297
0.0604752	1.38754
0.0669546	1.48811
0.0971922	1.72962
0.112311	1.81017
0.12527	1.88066
0.140389	1.95116
0.155508	2.01161
0.174946	2.07211
0.194384	2.11251
0.213823	2.1529
0.233261	2.1933
0.2527	2.2337
0.274298	2.25401
0.293737	2.28436
0.315335	2.30468
0.334773	2.32497
0.356371	2.34529
0.37581	2.36559
0.397408	2.3859
0.419006	2.39617
0.438445	2.40642
0.460043	2.42673
0.481641	2.437
0.529158	2.45758
0.550756	2.46785
0.572354	2.47811
0.593952	2.47833
0.615551	2.4886
0.634989	2.49884
0.656587	2.49906
0.673866	2.49923
0.693305	2.50948
0.714903	2.51975
0.736501	2.51996
0.758099	2.53023
0.779698	2.53045
0.799136	2.54069
0.818575	2.53084
0.855292	2.54126
0.87689	2.55153
