Adsorption isotherm of Carbon Dioxide on PEI-25-APTES-25-PQCS2129
DOI: 10.1021/Ef201578a
Adsorbate Carbon Dioxide: InChIKey CURLTUGMZLYLDI-UHFFFAOYSA-N
Temperature: 343 K
Tabular data in the source: 0
pressure (bar)	uptake (mmol/g)
0.0194384	1.24643
0.0302376	1.48774
0.0388769	1.71898
0.0518359	1.85982
0.0583153	1.94028
0.0669546	2.05092
0.075594	2.14146
0.0907127	2.24212
0.103672	2.32265
0.11879	2.39315
0.136069	2.45363
0.153348	2.5141
0.172786	2.5545
0.192225	2.60495
0.211663	2.63529
0.231102	2.66564
0.2527	2.68596
0.272138	2.7163
0.293737	2.73662
0.315335	2.75694
0.334773	2.76718
0.356371	2.7875
0.37797	2.79777
0.397408	2.80801
0.419006	2.81828
0.440605	2.82855
0.462203	2.83882
0.483801	2.83903
0.5054	2.8493
0.524838	2.85955
0.546436	2.85976
0.568035	2.87003
0.589633	2.8803
0.611231	2.88051
0.632829	2.88073
0.654428	2.891
0.676026	2.89122
0.695464	2.90146
0.717063	2.90168
0.738661	2.91195
0.760259	2.91216
0.781857	2.91238
0.803456	2.9126
0.825054	2.91281
0.840173	2.91297
0.861771	2.92323
0.883369	2.92345
