Adsorption isotherm of Carbon Dioxide on PEI-25-APTES-25-PQCS2129
DOI: 10.1021/Ef201578a
Adsorbate Carbon Dioxide: InChIKey CURLTUGMZLYLDI-UHFFFAOYSA-N
Temperature: 393 K
Tabular data in the source: 0
pressure (bar)	uptake (mmol/g)
0.0215983	0.0303678
0.0475162	0.0909298
0.0712743	0.121319
0.0950324	0.171809
0.116631	0.202177
0.136069	0.232523
0.155508	0.27292
0.174946	0.303266
0.196544	0.333634
0.215983	0.36398
0.237581	0.394348
0.257019	0.424694
0.278618	0.445011
0.298056	0.465307
0.319654	0.495675
0.339093	0.515971
0.360691	0.536288
0.38013	0.566634
0.401728	0.586952
0.423326	0.60727
0.442765	0.627565
0.464363	0.647883
0.483801	0.668179
0.5054	0.688496
0.524838	0.708792
0.546436	0.71906
0.568035	0.739377
0.587473	0.759673
0.609071	0.779991
0.63067	0.790258
0.650108	0.800504
0.671706	0.820821
0.691145	0.841117
0.712743	0.851384
0.734341	0.871702
0.75378	0.881948
0.775378	0.892215
0.796976	0.912532
0.818575	0.9228
0.838013	0.933045
0.859611	0.943313
0.88121	0.96363
