Adsorption isotherm of Carbon Dioxide on PEI-25-APTES-25-PQCS2129
DOI: 10.1021/Ef201578a
Adsorbate Carbon Dioxide: InChIKey CURLTUGMZLYLDI-UHFFFAOYSA-N
Temperature: 323 K
Tabular data in the source: 0
pressure (bar)	uptake (mmol/g)
0.0172786	1.76902
0.0280778	1.95003
0.0388769	2.14109
0.0518359	2.35228
0.0691145	2.53336
0.107991	2.75485
0.12311	2.81531
0.140389	2.87578
0.159827	2.91618
0.179266	2.95658
0.200864	2.98694
0.220302	3.00724
0.241901	3.03761
0.261339	3.0579
0.282937	3.06817
0.304536	3.08849
0.323974	3.09873
0.345572	3.109
0.367171	3.11927
0.388769	3.12954
0.408207	3.13978
0.429806	3.15005
0.451404	3.16032
0.473002	3.16053
0.520518	3.17106
0.542117	3.18133
0.563715	3.18154
0.585313	3.18176
0.604752	3.19201
0.62635	3.19222
0.647948	3.20249
0.669546	3.20271
0.691145	3.21298
0.712743	3.21319
0.734341	3.21341
0.75594	3.21363
0.777538	3.21384
0.799136	3.22411
0.820734	3.22433
0.835853	3.22448
0.857451	3.2247
0.87905	3.22492
