Adsorption isotherm of Carbon Dioxide on PEI-25-APTES-25-PQCS2129
DOI: 10.1021/Ef201578a
Adsorbate Carbon Dioxide: InChIKey CURLTUGMZLYLDI-UHFFFAOYSA-N
Temperature: 363 K
Tabular data in the source: 0
pressure (bar)	uptake (mmol/g)
0.0410367	1.28684
0.0842333	1.64909
0.50108	2.48745
0.829374	2.7018
