Adsorption isotherm of Carbon Dioxide on PEI-25-APTES-25-PQCS2129
DOI: 10.1021/Ef201578a
Adsorbate Carbon Dioxide: InChIKey CURLTUGMZLYLDI-UHFFFAOYSA-N
Temperature: 353 K
Tabular data in the source: 0
pressure (bar)	uptake (mmol/g)
0.0215983	1.02534
0.0302376	1.23648
0.0388769	1.50793
0.0539957	1.65883
0.0583153	1.75938
0.0691145	1.84994
0.0777538	1.94048
0.0907127	2.01096
0.103672	2.09149
0.116631	2.16198
0.133909	2.24255
0.149028	2.30301
0.168467	2.3434
0.187905	2.39385
0.207343	2.43424
0.226782	2.46459
0.24838	2.49496
0.267819	2.51525
0.287257	2.5456
0.308855	2.56592
0.330454	2.57619
0.349892	2.59648
0.37149	2.6168
0.393089	2.61702
0.412527	2.63731
0.434125	2.64758
0.455724	2.65785
0.477322	2.66811
0.49676	2.68841
0.507559	2.68852
0.529158	2.68874
0.548596	2.69898
0.570194	2.6992
0.591793	2.69942
0.613391	2.70968
0.634989	2.71995
0.656587	2.72017
0.678186	2.73043
0.699784	2.73065
0.719222	2.7409
0.740821	2.74111
0.762419	2.74133
0.784017	2.74155
0.805616	2.75182
0.846652	2.75223
0.868251	2.76249
0.889849	2.76271
