Adsorption isotherm of Carbon Dioxide on PEI-25-APTES-25-PQCS2129
DOI: 10.1021/Ef201578a
Adsorbate Carbon Dioxide: InChIKey CURLTUGMZLYLDI-UHFFFAOYSA-N
Temperature: 373 K
Tabular data in the source: 0
pressure (bar)	uptake (mmol/g)
0.0431965	0.774303
0.0863931	1.2471
0.49676	2.21605
0.829374	2.49075
