Adsorption isotherm of Carbon Dioxide on PEI-25-APTES-25-PQCS2129
DOI: 10.1021/Ef201578a
Adsorbate Carbon Dioxide: InChIKey CURLTUGMZLYLDI-UHFFFAOYSA-N
Temperature: 313 K
Tabular data in the source: 0
pressure (bar)	uptake (mmol/g)
0.00647948	0.894537
0.0107991	1.31669
0.0151188	1.61824
0.0194384	1.89969
0.0302376	2.13096
0.0388769	2.3622
0.0518359	2.56334
0.0604752	2.65387
0.0691145	2.74441
0.0777538	2.845
0.0950324	2.88538
0.107991	2.96591
0.12527	3.02638
0.142549	3.07681
0.161987	3.11721
0.183585	3.14757
0.203024	3.17792
0.224622	3.20829
0.24622	3.21855
0.265659	3.23885
0.287257	3.24912
0.308855	3.26944
0.328294	3.27968
0.349892	3.28995
0.37149	3.30022
0.393089	3.30043
0.414687	3.3107
0.434125	3.32095
0.455724	3.33121
0.475162	3.33141
0.49676	3.35173
0.516199	3.34187
0.537797	3.34209
0.559395	3.34231
0.580994	3.35257
0.602592	3.35279
0.62419	3.36306
0.645788	3.36327
0.667387	3.36349
0.688985	3.36371
0.710583	3.37398
0.732181	3.37419
0.75378	3.37441
0.775378	3.37463
0.794816	3.38487
0.816415	3.38509
0.842333	3.38535
0.863931	3.38557
0.885529	3.38578
