Adsorption isotherm of Methane on Coal RU1
DOI: 10.1016/j.coal.2008.04.004
Adsorbate Methane: InChIKey VNWKTOKETHGBQD-UHFFFAOYSA-N
Temperature: 313 K
Tabular data in the source: 0
pressure (bar)	uptake (cm3(STP)/g)
2.46201	0.392982
5.19757	0.701754
10.1216	1.40351
15.0456	1.99298
19.696	2.49825
29.5441	3.42456
39.6657	4.15439
59.9088	5.30526
80.152	6.17544
