Adsorption isotherm of Methane on Coal J10
DOI: 10.1016/j.coal.2008.04.004
Adsorbate Methane: InChIKey VNWKTOKETHGBQD-UHFFFAOYSA-N
Temperature: 324 K
Tabular data in the source: 0
pressure (bar)	uptake (cm3(STP)/g)
2.46201	0.364912
4.10334	0.617544
7.11246	0.954386
9.84802	1.26316
12.5836	1.57193
15.3191	1.85263
17.7812	2.10526
19.696	2.32982
23.2523	2.58246
26.2614	2.86316
27.6292	2.94737
29.2705	3.11579
31.1854	3.25614
33.3739	3.42456
35.5623	3.59298
37.7508	3.7614
39.6657	3.87368
41.5805	4.04211
44.3161	4.21053
46.231	4.29474
48.4195	4.40702
50.6079	4.5193
53.0699	4.68772
54.7112	4.85614
56.6261	4.94035
59.6353	5.10877
61.8237	5.22105
63.7386	5.33333
66.7477	5.44561
70.8511	5.64211
75.228	5.8386
79.0578	6.06316
