Adsorption isotherm of Methane on Coal RU1
DOI: 10.1016/j.coal.2008.04.004
Adsorbate Methane: InChIKey VNWKTOKETHGBQD-UHFFFAOYSA-N
Temperature: 305 K
Tabular data in the source: 0
pressure (bar)	uptake (cm3(STP)/g)
2.46201	0.223214
4.92401	0.78125
10.3951	1.33929
15.0456	1.89732
20.2432	2.56696
29.8176	3.34821
36.383	3.90625
39.6657	4.24107
40.7599	4.35268
45.6839	4.57589
50.3343	4.79911
56.079	5.13393
59.6353	5.46875
65.3799	5.69196
70.304	5.91518
75.5015	6.25
79.6049	6.36161
