Adsorption isotherm of Methane on Coal J10
DOI: 10.1016/j.coal.2008.04.004
Adsorbate Methane: InChIKey VNWKTOKETHGBQD-UHFFFAOYSA-N
Temperature: 305 K
Tabular data in the source: 0
pressure (bar)	uptake (cm3(STP)/g)
2.79503	0.401129
5.03106	0.729305
10.0621	1.27679
15.0932	1.82428
20.1242	2.29904
30.1863	3.2122
39.9689	4.1616
60.0932	5.84246
79.9379	7.52321
