Adsorption isotherm of Methane on Coal J10
DOI: 10.1016/j.coal.2008.04.004
Adsorbate Methane: InChIKey VNWKTOKETHGBQD-UHFFFAOYSA-N
Temperature: 323 K
Tabular data in the source: 0
pressure (bar)	uptake (cm3(STP)/g)
2.51553	0.291925
5.31056	0.620327
10.0621	1.1677
15.0932	1.75155
19.8447	2.2262
30.1863	3.10311
40.2484	3.90717
60.0932	5.07883
80.4969	6.06889
