Adsorption isotherm of Methane on Coal RU1
DOI: 10.1016/j.coal.2008.04.004
Adsorbate Methane: InChIKey VNWKTOKETHGBQD-UHFFFAOYSA-N
Temperature: 323 K
Tabular data in the source: 0
pressure (bar)	uptake (cm3(STP)/g)
2.46201	0.364912
4.65046	0.701754
9.57447	1.29123
14.772	1.85263
19.696	2.41404
29.5441	3.28421
39.3921	4.09825
59.9088	5.33333
79.6049	6.17544
