Adsorption isotherm of Methane on Coal RU1
DOI: 10.1016/j.coal.2008.04.004
Adsorbate Methane: InChIKey VNWKTOKETHGBQD-UHFFFAOYSA-N
Temperature: 305 K
Tabular data in the source: 0
pressure (bar)	uptake (cm3(STP)/g)
2.46201	0.78125
4.92401	1.45089
7.38602	2.00893
9.57447	2.56696
11.7629	3.01339
14.2249	3.45982
15.3191	3.68304
17.7812	4.12946
20.7903	4.57589
23.5258	4.79911
25.9878	5.24554
28.4498	5.58036
30.6383	5.91518
33.3739	6.02679
35.8359	6.36161
38.5714	6.58482
41.0334	6.91964
43.769	7.03125
46.5046	7.25446
48.9666	7.36607
51.7021	7.58929
54.1641	7.8125
56.8997	7.92411
59.6353	8.14732
60.4559	8.14732
63.1915	8.25893
65.9271	8.37054
68.3891	8.48214
71.1246	8.59375
73.8602	8.70536
76.3222	8.92857
79.6049	9.04018
