Adsorption isotherm of Methane on Coal J10
DOI: 10.1016/j.coal.2008.04.004
Adsorbate Methane: InChIKey VNWKTOKETHGBQD-UHFFFAOYSA-N
Temperature: 305 K
Tabular data in the source: 0
pressure (bar)	uptake (cm3(STP)/g)
2.46201	0.392982
3.28267	0.645614
4.92401	0.926316
7.65957	1.20702
9.02736	1.43158
10.6687	1.62807
12.31	1.82456
14.772	2.13333
16.6869	2.35789
19.696	2.61053
22.4316	2.86316
25.1672	3.08772
27.9027	3.36842
31.1854	3.59298
33.3739	3.78947
37.2036	4.04211
41.307	4.29474
44.8632	4.46316
48.693	4.63158
52.7964	4.85614
56.079	5.02456
59.9088	5.19298
62.3708	5.27719
65.9271	5.41754
69.7568	5.55789
73.0395	5.67018
76.3222	5.78246
79.6049	5.89474
