Adsorption isotherm of Methane on Coal RU1
DOI: 10.1016/j.coal.2008.04.004
Adsorbate Methane: InChIKey VNWKTOKETHGBQD-UHFFFAOYSA-N
Temperature: 305 K
Tabular data in the source: 0
pressure (bar)	uptake (cm3(STP)/g)
2.18845	0.364912
4.92401	0.673684
9.84802	1.45965
14.772	2.02105
19.696	2.49825
29.8176	3.39649
39.6657	4.15439
60.1824	5.41754
79.8784	6.4
