Adsorption isotherm of Methane on Coal J10
DOI: 10.1016/j.coal.2008.04.004
Adsorbate Methane: InChIKey VNWKTOKETHGBQD-UHFFFAOYSA-N
Temperature: 323 K
Tabular data in the source: 0
pressure (bar)	uptake (cm3(STP)/g)
2.51553	0.364653
5.31056	0.693055
10.0621	1.24043
15.3727	1.78803
19.8447	2.2262
30.1863	3.13947
40.2484	3.90717
60.0932	5.55155
80.2174	7.08696
