Adsorption isotherm of Methane on Coal RU1
DOI: 10.1016/j.coal.2008.04.004
Adsorbate Methane: InChIKey VNWKTOKETHGBQD-UHFFFAOYSA-N
Temperature: 305 K
Tabular data in the source: 0
pressure (bar)	uptake (cm3(STP)/g)
2.46201	0.558036
5.47112	1.00446
8.7538	1.5625
12.31	2.00893
15.0456	2.45536
19.1489	2.90179
22.9787	3.34821
27.0821	3.79464
30.0912	4.12946
33.1003	4.24107
37.2036	4.57589
39.9392	4.79911
43.2219	5.02232
48.1459	5.24554
53.8906	5.58036
56.8997	5.69196
59.6353	5.91518
63.465	6.13839
67.8419	6.25
71.9453	6.36161
76.5957	6.58482
79.3313	6.69643
