Adsorption isotherm of Methane on Coal J10
DOI: 10.1016/j.coal.2008.04.004
Adsorbate Methane: InChIKey VNWKTOKETHGBQD-UHFFFAOYSA-N
Temperature: 305 K
Tabular data in the source: 0
pressure (bar)	uptake (cm3(STP)/g)
2.73556	0.334821
4.92401	0.669643
10.1216	1.33929
15.3191	1.89732
19.9696	2.23214
25.7143	2.79018
30.0912	3.125
36.1094	3.45982
39.9392	3.79464
42.4012	3.90625
47.5988	4.24107
51.155	4.46429
55.2584	4.46429
59.6353	4.91071
65.9271	5.13393
71.6717	5.35714
75.5015	5.46875
79.8784	5.69196
