Adsorption isotherm of Methane on Coal RU1
DOI: 10.1016/j.coal.2008.04.004
Adsorbate Methane: InChIKey VNWKTOKETHGBQD-UHFFFAOYSA-N
Temperature: 299 K
Tabular data in the source: 0
pressure (bar)	uptake (cm3(STP)/g)
2.46201	0.392982
4.65046	0.814035
9.84802	1.51579
14.772	2.13333
19.4225	2.75088
29.8176	3.7614
39.6657	4.54737
59.9088	5.81053
79.8784	6.84912
