Adsorption isotherm of Methane on Coal RU1
DOI: 10.1016/j.coal.2008.04.004
Adsorbate Methane: InChIKey VNWKTOKETHGBQD-UHFFFAOYSA-N
Temperature: 333 K
Tabular data in the source: 0
pressure (bar)	uptake (cm3(STP)/g)
2.46201	0.392982
4.92401	0.729825
9.57447	1.34737
14.772	1.96491
19.696	2.52632
29.8176	3.42456
38.5714	4.07018
60.1824	5.19298
79.8784	5.92281
