Adsorption isotherm of Methane on Coal RU1
DOI: 10.1016/j.coal.2008.04.004
Adsorbate Methane: InChIKey VNWKTOKETHGBQD-UHFFFAOYSA-N
Temperature: 305 K
Tabular data in the source: 0
pressure (bar)	uptake (cm3(STP)/g)
2.46201	2.23214
5.19757	4.24107
5.74468	4.46429
7.11246	5.35714
8.7538	6.36161
10.1216	7.25446
11.7629	8.03571
13.4043	8.92857
15.0456	9.82143
15.8663	10.2679
17.7812	11.0491
19.696	11.8304
20.7903	12.1652
22.7052	12.9464
24.8936	13.6161
27.0821	14.2857
28.997	14.9554
30.6383	15.4018
32.8267	15.9598
35.2888	16.6295
37.4772	17.1875
39.6657	17.7455
42.4012	18.192
44.8632	18.6384
47.3252	18.9732
49.7872	19.4196
52.5228	19.8661
54.9848	20.2009
57.4468	20.6473
59.9088	21.0938
60.4559	21.2054
63.1915	21.4286
65.6535	21.7634
68.3891	21.9866
70.8511	22.3214
73.5866	22.6563
76.0486	22.9911
78.7842	23.2143
79.6049	23.4375
