Adsorption isotherm of Methane on Coal J10
DOI: 10.1016/j.coal.2008.04.004
Adsorbate Methane: InChIKey VNWKTOKETHGBQD-UHFFFAOYSA-N
Temperature: 305 K
Tabular data in the source: 0
pressure (bar)	uptake (cm3(STP)/g)
3.28267	2.12054
4.65046	3.125
6.01824	4.01786
7.65957	4.91071
9.30091	5.80357
11.4894	7.03125
13.4043	7.8125
15.3191	8.81696
17.234	9.48661
19.4225	10.3795
20.7903	10.8259
22.9787	11.4955
25.1672	12.1652
27.3556	12.7232
29.5441	13.3929
32.0061	13.9509
34.4681	14.3973
36.9301	14.9554
39.3921	15.5134
40.2128	15.625
42.6748	16.0714
45.4103	16.4063
47.8723	16.7411
50.3343	17.1875
52.7964	17.6339
55.5319	17.9688
57.9939	18.3036
60.7295	18.6384
63.465	18.9732
65.9271	19.1964
68.6626	19.4196
71.1246	19.7545
73.8602	19.9777
76.3222	20.2009
79.0578	20.4241
