Adsorption isotherm of Methane on Coal J10
DOI: 10.1016/j.coal.2008.04.004
Adsorbate Methane: InChIKey VNWKTOKETHGBQD-UHFFFAOYSA-N
Temperature: 305 K
Tabular data in the source: 0
pressure (bar)	uptake (cm3(STP)/g)
2.79503	0.364766
5.03106	0.765669
10.3416	1.45872
15.0932	2.04246
20.1242	2.58995
30.1863	3.46674
40.2484	4.12535
60.0932	5.18792
79.9379	5.88684
