Adsorption isotherm of Carbon Dioxide on Ni(Bpene)[Ni(CN)4]
DOI: 10.1021/Ja802474b
Adsorbate Carbon Dioxide: InChIKey CURLTUGMZLYLDI-UHFFFAOYSA-N
Temperature: 303 K
Tabular data in the source: 0
pressure (bar)	uptake (mg/g)
0.0801993	0.00561717
1.8718	0.162928
4.49364	0.313684
6.89701	0.510323
7.37768	0.575869
8.90709	0.91671
10.9609	1.69671
11.8785	1.99167
12.6214	2.0441
14.1945	2.28007
14.6752	2.35217
16.9037	2.40461
17.6903	2.42427
19.5693	2.50948
