Adsorption isotherm of Carbon Dioxide on NiBpeneNiCN
DOI: 10.1021/Ja802474b
Adsorbate Carbon Dioxide: InChIKey CURLTUGMZLYLDI-UHFFFAOYSA-N
Temperature: 303 K
Tabular data in the source: 0
pressure (bar)	uptake (mg/g)
1.90277	0.169483
3.65067	0.274357
5.01622	0.39234
6.38176	0.484105
7.85655	0.687298
9.00361	0.942928
10.1507	1.50007
11.9532	2.00478
14.1381	2.27352
15.886	2.3915
18.3439	2.52259
