Adsorption isotherm of Carbon Dioxide on NiBpeneNiCN
DOI: 10.1021/Ja802474b
Adsorbate Carbon Dioxide: InChIKey CURLTUGMZLYLDI-UHFFFAOYSA-N
Temperature: 303 K
Tabular data in the source: 0
pressure (bar)	uptake (mg/g)
0.264115	1.87264
2.06664	17.6037
3.70529	28.7466
6.32714	49.7214
7.9658	73.318
9.76832	132.31
10.97	186.713
11.8439	215.553
12.554	222.763
14.0834	248.326
14.6297	256.192
16.7053	260.78
19.4364	273.889
