Adsorption isotherm of Carbon Dioxide on NiBpeneNiCN
DOI: 10.1021/Ja802474b
Adsorbate Carbon Dioxide: InChIKey CURLTUGMZLYLDI-UHFFFAOYSA-N
Temperature: 313 K
Tabular data in the source: 0
pressure (bar)	uptake (mg/g)
1.41117	9.08272
3.54143	17.6037
6.92798	31.3684
9.33134	45.1331
10.533	58.2424
12.2263	94.2928
14.1381	155.906
15.9952	208.999
17.8524	240.461
19.3818	252.915
20.6927	257.503
22.7137	268.646
23.6423	271.923
