Adsorption isotherm of Carbon Dioxide on NiBpeneNiCN
DOI: 10.1021/Ja802474b
Adsorbate Carbon Dioxide: InChIKey CURLTUGMZLYLDI-UHFFFAOYSA-N
Temperature: 273 K
Tabular data in the source: 0
pressure (bar)	uptake (mg/g)
0.974199	0.294021
2.06664	0.523432
2.99521	0.785617
3.59605	1.0478
4.08764	1.47385
4.63386	1.92612
5.07084	2.22763
5.83554	2.3915
7.14647	2.51604
9.11285	2.58158
