Adsorption isotherm of Carbon Dioxide on NiBpeneNiCN
DOI: 10.1021/Ja802474b
Adsorbate Carbon Dioxide: InChIKey CURLTUGMZLYLDI-UHFFFAOYSA-N
Temperature: 273 K
Tabular data in the source: 0
pressure (bar)	uptake (mg/g)
0.0619484	0.00561717
0.455226	0.182592
1.32918	0.385785
2.18128	0.575869
2.77119	0.720071
3.55775	1.23789
3.92918	1.48041
4.08212	1.74259
4.49724	2.00478
4.84682	2.13587
5.17455	2.28007
