Adsorption isotherm of Carbon Dioxide on NiBpeneNiCN
DOI: 10.1021/Ja802474b
Adsorbate Carbon Dioxide: InChIKey CURLTUGMZLYLDI-UHFFFAOYSA-N
Temperature: 313 K
Tabular data in the source: 0
pressure (bar)	uptake (mg/g)
1.30193	0.0908272
3.54143	0.176037
6.92798	0.313684
8.94899	0.418558
11.1885	0.661079
12.9364	1.14612
15.1213	1.72293
15.7767	1.91957
17.6339	2.19486
19.2725	2.35217
23.8061	2.50948
