Adsorption isotherm of Carbon Dioxide on NiBpeneNiCN
DOI: 10.1021/Ja802474b
Adsorbate Carbon Dioxide: InChIKey CURLTUGMZLYLDI-UHFFFAOYSA-N
Temperature: 273 K
Tabular data in the source: 0
pressure (bar)	uptake (mg/g)
1.91909	1.40831
2.57455	1.5394
3.16447	1.65738
3.5796	1.82125
4.36615	2.18175
5.26195	2.33906
6.20144	2.3915
6.83506	2.43083
7.38128	2.45705
8.12413	2.48326
