Adsorption isotherm of Carbon Dioxide on NiBpeneNiCN
DOI: 10.1021/Ja802474b
Adsorbate Carbon Dioxide: InChIKey CURLTUGMZLYLDI-UHFFFAOYSA-N
Temperature: 273 K
Tabular data in the source: 0
pressure (bar)	uptake (mg/g)
0.318736	11.0491
1.35655	43.1668
2.55823	67.4189
2.7221	78.5617
3.21369	92.3264
3.75991	131.654
4.47	189.335
5.01622	241.772
5.83554	260.78
9.11285	281.755
