Adsorption isotherm of Carbon Dioxide on Ni(Dpac)[Ni(CN)4]
DOI: 10.1021/Ja802474b
Adsorbate Carbon Dioxide: InChIKey CURLTUGMZLYLDI-UHFFFAOYSA-N
Temperature: 303 K
Tabular data in the source: 0
pressure (bar)	uptake (mg/g)
0.386082	0.313684
1.17264	0.811836
2.22138	1.28377
2.78944	1.42142
3.79449	1.59184
4.44995	1.6836
5.84827	1.85402
7.37768	2.07032
8.03314	2.08999
9.47516	2.22763
9.82474	2.26696
10.4802	2.29973
