Adsorption isotherm of Nitrogen on NiBpeneNiCN
DOI: 10.1021/Ja802474b
Adsorbate Nitrogen: InChIKey IJGRMHOSHXDMSA-UHFFFAOYSA-N
Temperature: 195 K
Tabular data in the source: 0
pressure (bar)	uptake (mg/g)
0.109505	0.0101432
2.20698	0.15216
6.79522	0.212244
11.2524	0.321488
13.2187	0.348799
17.6759	0.458042
19.7734	0.447118
23.7061	0.605521
25.5414	0.725689
29.3431	1.33199
31.1784	1.55594
37.0776	1.93829
42.4524	2.15678
50.7112	2.19502
54.5129	2.22233
56.6103	2.26056
58.5767	2.19502
