Adsorption isotherm of Carbon Dioxide on NiBpeneNiCN
DOI: 10.1021/Ja802474b
Adsorbate Carbon Dioxide: InChIKey CURLTUGMZLYLDI-UHFFFAOYSA-N
Temperature: 273 K
Tabular data in the source: 0
pressure (bar)	uptake (mg/g)
0.761108	0.726626
1.63506	0.91671
2.35607	1.13301
3.03338	1.29688
3.51405	1.51973
3.79808	1.78192
4.16951	1.98511
4.49724	2.12931
4.97791	2.21452
5.50228	2.31284
6.28884	2.36528
8.51741	2.52259
