Adsorption isotherm of Carbon Dioxide on NiBpeneNiCN
DOI: 10.1021/Ja802474b
Adsorbate Carbon Dioxide: InChIKey CURLTUGMZLYLDI-UHFFFAOYSA-N
Temperature: 288 K
Tabular data in the source: 0
pressure (bar)	uptake (mg/g)
1.13806	0.22192
2.2305	0.353012
3.15907	0.464441
4.41538	0.759399
5.45319	1.12646
6.32714	1.58528
7.31033	2.00478
8.07504	2.19486
9.38596	2.34562
10.6969	2.47016
13.3187	2.54881
