Adsorption isotherm of Carbon Dioxide on FIR-51
DOI: 10.1039/c4dt03594a
Article source: Figure 3a
Adsorbate Carbon Dioxide: InChIKey CURLTUGMZLYLDI-UHFFFAOYSA-N
Kind: experiment
Temperature: 273 K
Tabular data in the source: 0
pressure (bar)	uptake (cm3(STP)/g)
0	0
0.004174	1.31037
0.016727	3.93241
0.027924	4.59039
0.037704	5.90248
0.039044	8.52107
0.054438	9.50761
0.064211	11.147
0.066953	13.766
0.080953	14.4248
0.093513	16.7196
0.099043	19.994
0.104657	19.6685
0.131179	24.2584
0.132527	26.5498
0.160496	29.1765
0.166026	32.4509
0.185594	34.7479
0.199526	38.3521
0.213533	38.6837
0.241449	43.6014
0.263721	50.1536
0.265184	47.5359
0.294494	52.7813
0.319622	57.0435
0.332137	61.3019
0.346137	61.9608
0.372689	65.2416
0.397773	71.4675
0.397833	68.8493
0.425749	73.767
0.450894	77.3747
0.467612	81.6344
0.477415	81.9647
0.505369	85.246
0.530514	88.8537
0.531868	90.8177
0.566853	93.1194
0.59755	99.0197
0.597596	97.0561
0.629724	101.648
0.629755	100.339
0.666049	106.568
0.666088	104.932
0.69542	109.195
0.730383	112.479
0.731753	113.788
0.765337	116.089
0.797465	120.681
0.797489	119.699
0.833875	122.001
0.852018	125.28
0.864617	125.938
0.898193	128.567
0.916375	130.208
0.931761	131.522
0.954147	133.166
0.973739	134.481
1.01011	137.437
