Adsorption isotherm of Carbon Dioxide on FIR-51
DOI: 10.1039/c4dt03594a
Article source: Figure 3b
Adsorbate Carbon Dioxide: InChIKey CURLTUGMZLYLDI-UHFFFAOYSA-N
Kind: experiment
Temperature: 294 K
Tabular data in the source: 0
pressure (bar)	uptake (cm3(STP)/g)
0	0
0.012491	1.42777
0.024982	2.85555
0.033313	3.99822
0.043019	4.56806
0.055506	5.70961
0.066607	6.85154
0.069402	8.28191
0.081883	9.13724
0.091589	9.70708
0.10131	11.1356
0.108251	11.9924
0.136018	15.7059
0.163756	17.702
0.191519	21.1293
0.202635	23.1299
0.215106	23.4128
0.244249	26.5534
0.270622	29.6948
0.324728	34.5461
0.338624	37.1184
0.376082	40.5431
0.405225	43.6837
0.430187	45.3944
0.463517	50.2513
0.482908	50.2461
0.535629	55.0978
0.535648	56.2427
0.60361	61.3765
0.603625	62.2351
0.670193	66.7969
0.670213	67.9418
0.736785	72.7898
0.736805	73.9347
0.788125	77.928
0.803361	77.9239
0.856082	82.7756
0.871318	82.7715
0.925419	87.3366
0.942056	88.1908
1.01694	93.3228
