Adsorption isotherm of N-propane on FIR-51
DOI: 10.1039/c4dt03594a
Article source: Figure 3b
Adsorbate N-propane: InChIKey ATUOYWHBWRKTHZ-UHFFFAOYSA-N
Kind: experiment
Temperature: 294 K
Tabular data in the source: 0
pressure (bar)	uptake (cm3(STP)/g)
0	0
0.005754	12.3061
0.008732	24.3268
0.013101	36.6333
0.01599	43.502
0.01601	44.6469
0.023144	56.6664
0.027398	62.3898
0.032998	65.823
0.035809	68.112
0.042804	72.1173
0.042838	74.1209
0.056754	77.8381
0.058164	79.2688
0.066505	80.9839
0.07069	82.7002
0.081801	84.4145
0.102653	88.7023
0.112349	88.6997
0.135937	90.9832
0.138727	92.1274
0.163689	93.838
0.172021	94.9807
0.191412	94.9755
0.202533	97.2623
0.217765	96.972
0.244103	98.1098
0.27046	100.393
0.271826	99.2473
0.296778	100.385
0.325887	101.523
0.336994	102.951
0.35222	102.374
0.378544	102.653
0.403505	104.364
0.43814	104.641
0.470008	105.205
0.474178	106.062
0.504652	106.054
0.537921	107.476
0.56978	107.468
0.601653	108.318
0.637668	108.308
0.669541	109.158
0.70417	109.149
0.736043	109.999
0.770678	110.276
0.802546	110.84
0.837175	110.831
0.849651	111.4
0.873199	111.394
0.902287	111.386
0.916154	112.241
0.936931	112.235
0.956328	112.516
0.977106	112.511
1.0159	112.786
