Adsorption isotherm of Ethene on FIR-51
DOI: 10.1039/c4dt03594a
Article source: Figure 3a
Adsorbate Ethene: InChIKey VGGSQFUCUMXWEO-UHFFFAOYSA-N
Kind: experiment
Temperature: 273 K
Tabular data in the source: 0
pressure (bar)	uptake (cm3(STP)/g)
0	0
0.008318	3.92982
0.018029	8.18735
0.027763	11.4631
0.04305	17.0314
0.054132	22.5984
0.066639	27.1841
0.070806	28.8217
0.095827	37.6658
0.11528	44.8717
0.125038	47.1656
0.154294	54.7019
0.166809	58.9603
0.179392	60.2732
0.183566	61.5836
0.211444	68.1376
0.215618	69.448
0.221208	70.1042
0.239367	72.728
0.267283	77.6457
0.274245	79.6114
0.298018	81.9096
0.327344	86.5004
0.327366	85.5186
0.355297	89.7817
0.380465	92.4077
0.383275	92.0812
0.411229	95.3625
0.432191	97.9872
0.442002	97.9902
0.468577	100.289
0.485365	101.603
0.497964	102.262
0.527358	103.907
0.539912	106.529
0.553934	106.206
0.581927	107.851
0.591707	109.163
0.611314	109.824
0.637904	111.468
0.647707	111.799
0.667306	112.787
0.696685	115.087
0.723299	115.749
0.748504	116.739
0.755511	116.741
0.783504	118.386
0.812928	118.722
0.838126	120.039
0.870346	120.703
0.887134	122.018
0.899739	122.349
0.926361	122.684
0.941771	123.016
0.955763	124.002
0.985172	124.993
1.01179	125.656
