Adsorption isotherm of Ethane on FIR-51
DOI: 10.1039/c4dt03594a
Article source: Figure 3b
Adsorbate Ethane: InChIKey OTMSDBZUPAUEDD-UHFFFAOYSA-N
Kind: experiment
Temperature: 294 K
Tabular data in the source: 0
pressure (bar)	uptake (cm3(STP)/g)
0	0
0.005575	2.00208
0.015326	5.14794
0.026442	7.14854
0.026472	8.86588
0.044558	13.4406
0.052904	15.442
0.054314	16.8727
0.07239	20.875
0.086291	23.7336
0.097427	26.879
0.101637	30.0264
0.109948	30.0242
0.13361	36.601
0.135034	38.8904
0.165577	42.8894
0.190604	48.3209
0.205906	52.0378
0.215617	52.8938
0.241999	56.6077
0.267006	60.8944
0.267022	61.753
0.298925	64.3205
0.322527	67.4626
0.330858	68.6053
0.335048	70.6078
0.350285	70.6037
0.379413	72.8857
0.401615	75.1695
0.40302	76.314
0.436303	78.5949
0.468196	80.5899
0.470992	82.0203
0.505641	83.1559
0.537534	85.1509
0.537558	86.582
0.570817	87.4318
0.601311	88.5685
0.605497	90.2847
0.63875	90.8483
0.670638	92.5571
0.699752	93.9804
0.73302	95.4026
0.735805	96.2605
0.770439	96.5374
0.784311	97.6786
0.788456	97.105
0.803709	97.9596
0.836971	99.0956
0.852229	100.236
0.871626	100.517
0.902108	101.082
0.920126	101.649
0.939528	102.217
0.976948	103.351
1.01436	103.914
