Adsorption isotherm of Ethane on FIR-51
DOI: 10.1039/c4dt03594a
Article source: Figure 3a
Adsorbate Ethane: InChIKey OTMSDBZUPAUEDD-UHFFFAOYSA-N
Kind: experiment
Temperature: 273 K
Tabular data in the source: 0
pressure (bar)	uptake (cm3(STP)/g)
0	0
0.004174	1.31037
0.005522	3.60169
0.009688	5.23934
0.013832	7.85879
0.016643	7.53238
0.017983	10.151
0.023513	13.4254
0.024876	15.0622
0.031838	17.028
0.037375	19.9751
0.038731	21.9392
0.04979	28.488
0.051238	26.5248
0.065054	35.0381
0.065108	32.7473
0.077576	38.9693
0.095575	48.4657
0.102567	49.1224
0.131732	60.5859
0.131801	57.6404
0.15686	64.8481
0.183345	71.0744
0.198646	75.9882
0.209859	75.9917
0.239176	80.9098
0.264274	86.4811
0.264328	84.1902
0.292275	87.7988
0.316039	90.4242
0.331395	93.0471
0.346811	93.0519
0.373388	95.3509
0.397169	97.3219
0.398517	99.6132
0.461539	101.596
0.467092	103.889
0.528722	105.544
0.531487	107.181
0.598692	110.147
0.600147	107.857
0.664519	112.131
0.664533	111.477
0.733125	115.098
0.779353	116.094
0.797596	115.117
0.846581	118.078
0.866225	117.102
0.915226	119.408
0.934847	119.414
1.01329	121.402
