Adsorption isotherm of N-propane on FIR-51
DOI: 10.1039/c4dt03594a
Article source: Figure 3a
Adsorbate N-propane: InChIKey ATUOYWHBWRKTHZ-UHFFFAOYSA-N
Kind: experiment
Temperature: 273 K
Tabular data in the source: 0
pressure (bar)	uptake (cm3(STP)/g)
0	0
0.000882	22.2548
0.002184	26.5098
0.00583	50.4018
0.008419	59.5662
0.012326	72.3311
0.012395	69.3856
0.019173	79.2059
0.024626	85.753
0.026043	85.0989
0.032974	88.3738
0.035732	90.3382
0.03711	91.3205
0.049632	95.2516
0.051057	94.2702
0.062216	96.5645
0.064973	98.529
0.078973	99.1879
0.097109	102.793
0.101329	102.14
0.129298	104.767
0.130669	106.076
0.154481	106.738
0.164253	108.378
0.182473	108.383
0.197852	110.024
0.210473	109.701
0.238474	111.019
0.263678	112.008
0.265057	112.99
0.290292	112.671
0.316898	113.661
0.329481	114.974
0.344914	114.324
0.370126	114.986
0.396717	116.631
0.399543	115.65
0.43315	116.969
0.465362	117.961
0.49759	118.298
0.531204	119.29
0.531227	118.308
0.562046	118.972
0.597054	120.292
0.598469	119.638
0.629296	119.975
0.665705	121.295
0.665721	120.641
0.69654	121.305
0.730169	121.642
0.766593	122.308
0.796011	122.972
0.832444	123.31
0.845064	122.987
0.857701	122.009
0.867497	122.666
0.899709	123.658
0.912308	124.316
0.933323	124.65
0.951528	125.31
0.969763	124.661
1.0118	125.001
