Adsorption isotherm of Ethene on FIR-51
DOI: 10.1039/c4dt03594a
Article source: Figure 3b
Adsorbate Ethene: InChIKey VGGSQFUCUMXWEO-UHFFFAOYSA-N
Kind: experiment
Temperature: 294 K
Tabular data in the source: 0
pressure (bar)	uptake (cm3(STP)/g)
0	0
0.00696	2.00171
0.016686	3.71645
0.029197	6.28912
0.037543	8.29046
0.048664	10.5773
0.054249	13.1518
0.061205	14.8673
0.06816	16.5828
0.075101	17.4396
0.079286	19.1558
0.082066	19.7275
0.102918	24.0153
0.12099	27.7314
0.12934	30.019
0.161299	35.7349
0.17381	38.3076
0.18771	41.1661
0.215484	45.1658
0.225219	47.453
0.243271	50.0242
0.273819	54.3093
0.282154	55.7382
0.300206	58.3094
0.329354	61.7363
0.333525	62.5939
0.361282	65.7349
0.386259	68.3042
0.415397	71.1586
0.436219	73.7291
0.445915	73.7265
0.476443	76.8668
0.49171	78.58
0.500026	78.864
0.533309	81.1449
0.541639	82.2876
0.556897	83.4284
0.587405	85.4238
0.599891	86.5653
0.616533	87.7057
0.649807	89.4142
0.671994	90.8393
0.701108	92.2627
0.73022	93.686
0.753793	95.1108
0.762113	95.681
0.787066	96.8192
0.806479	97.9589
0.817565	98.2421
0.839747	99.3811
0.843903	99.38
0.875781	100.516
0.891032	101.371
0.903499	101.368
0.932622	103.363
0.947863	103.645
0.961725	104.214
0.990824	104.779
1.01578	105.917
