Adsorption isotherm of Methane on FIR-51
DOI: 10.1039/c4dt03594a
Article source: Figure 3b
Adsorbate Methane: InChIKey VNWKTOKETHGBQD-UHFFFAOYSA-N
Kind: experiment
Temperature: 294 K
Tabular data in the source: 0
pressure (bar)	uptake (cm3(STP)/g)
0	0
0.008316	0.283994
0.018012	0.281392
0.030479	0.278046
0.04434	0.846777
0.058192	0.84306
0.072058	1.69802
0.087295	1.69393
0.103927	2.26191
0.121939	2.54331
0.13164	2.82693
0.138566	2.82507
0.151037	3.10795
0.162123	3.3912
0.177365	3.67333
0.188446	3.67036
0.218935	4.52085
0.224475	4.51937
0.242483	4.51453
0.272966	5.0788
0.278512	5.36354
0.30485	6.50138
0.329788	6.78091
0.358885	7.34555
0.379673	7.91242
0.386599	7.91056
0.414311	8.47558
0.435094	8.75623
0.446175	8.75325
0.471119	9.31901
0.490516	9.60003
0.502992	10.1691
0.530704	10.7341
0.543166	10.4446
0.586126	11.5779
0.594442	11.8619
0.616615	12.4284
0.644318	12.421
0.649868	12.992
0.674806	13.2715
0.699744	13.551
0.731617	14.4012
0.75379	14.9677
0.760716	14.9658
0.785654	15.2453
0.806442	15.8122
0.814752	15.81
0.843856	16.6608
0.856322	16.6575
0.872948	16.9393
0.890965	17.5069
0.902052	17.7901
0.915903	17.7864
0.929765	18.3551
0.945002	18.3511
0.960249	18.9194
0.986567	18.9123
1.01566	19.477
