Adsorption isotherm of Methane on FIR-51
DOI: 10.1039/c4dt03594a
Article source: Figure 3a
Adsorbate Methane: InChIKey VNWKTOKETHGBQD-UHFFFAOYSA-N
Kind: experiment
Temperature: 273 K
Tabular data in the source: 0
pressure (bar)	uptake (cm3(STP)/g)
0	0
0.009811	0.00301
0.018212	0.332861
0.029402	1.31811
0.036425	0.665722
0.049039	0.669593
0.053228	1.32542
0.071433	1.98555
0.084039	2.3167
0.089645	2.31842
0.098039	2.97554
0.103645	2.97726
0.119054	3.30926
0.128865	3.31227
0.147069	3.9724
0.155479	3.97498
0.172275	4.96195
0.184881	5.29309
0.212904	5.62896
0.225503	6.28738
0.242305	6.94708
0.271731	7.28338
0.278722	7.94007
0.29973	8.60106
0.32914	9.5919
0.357163	9.92777
0.383776	10.5905
0.414589	11.5818
0.435596	12.2428
0.444005	12.2453
0.470619	12.908
0.488824	13.5682
0.500028	13.8989
0.528043	14.562
0.54065	14.8932
0.58687	16.2164
0.59387	16.5459
0.614885	16.8796
0.642902	17.5427
0.645696	17.8709
0.670917	18.2059
0.700334	18.8694
0.728341	19.8599
0.750752	20.5213
0.759152	20.8511
0.784373	21.1861
0.803971	22.174
0.813782	22.177
0.843199	22.8405
0.855806	23.1717
0.869812	23.5033
0.889419	24.1638
0.900625	24.4945
0.914631	24.8261
0.930033	25.4854
0.946845	25.8178
0.958049	26.1485
0.984671	26.484
1.01409	27.1475
