Adsorption isotherm of Acetylene on FIR-51
DOI: 10.1039/c4dt03594a
Article source: Figure 3b
Adsorbate Acetylene: InChIKey HSFWRNGVRCDJHI-UHFFFAOYSA-N
Kind: experiment
Temperature: 294 K
Tabular data in the source: 0
pressure (bar)	uptake (cm3(STP)/g)
0	0
0.015405	9.72753
0.016894	15.7379
0.03225	22.6032
0.033536	16.8783
0.047581	28.0373
0.048897	24.0298
0.054497	27.463
0.060157	34.3309
0.069813	32.0385
0.074088	38.9068
0.082369	37.1872
0.099055	40.9037
0.099154	46.6281
0.126897	48.9105
0.128376	54.3484
0.153325	55.2004
0.181146	62.0623
0.182626	67.5002
0.208953	68.0656
0.238142	73.7822
0.239591	77.5028
0.265929	78.6406
0.293701	82.6403
0.29517	87.5058
0.321479	86.9263
0.347861	90.6401
0.349331	95.5055
0.375634	94.6398
0.404792	98.6391
0.406232	101.787
0.431169	102.067
0.460302	104.635
0.461737	107.497
0.515808	110.345
0.517252	113.779
0.572684	115.195
0.572724	117.485
0.625389	119.188
0.628204	121.763
0.682255	123.466
0.685056	125.183
0.736346	127.459
0.740536	129.461
0.793177	129.733
0.794601	132.023
0.83065	134.017
0.850038	133.725
0.886102	136.578
0.904108	136.573
0.944318	138.852
0.958169	138.848
1.01778	141.695
