Adsorption isotherm of Acetylene on FIR-51
DOI: 10.1039/c4dt03594a
Article source: Figure 3a
Adsorbate Acetylene: InChIKey HSFWRNGVRCDJHI-UHFFFAOYSA-N
Kind: experiment
Temperature: 273 K
Tabular data in the source: 0
pressure (bar)	uptake (cm3(STP)/g)
0	0
0.010861	15.0579
0.012079	22.9128
0.025842	33.717
0.028828	25.8634
0.039651	42.5576
0.04263	35.0313
0.052089	50.0887
0.053704	40.9256
0.065944	56.9657
0.067536	48.7844
0.079997	55.3336
0.092275	69.7374
0.095238	62.8656
0.120244	72.3642
0.122864	80.2195
0.149454	81.864
0.174499	89.7263
0.177149	96.2725
0.203755	97.2625
0.23289	110.035
0.233036	103.817
0.262314	110.371
0.288715	120.198
0.28883	115.289
0.315351	119.879
0.343298	123.487
0.344585	128.397
0.369828	127.75
0.400471	135.941
0.400578	131.359
0.427138	134.313
0.455001	141.521
0.4551	137.267
0.509622	143.175
0.510955	146.12
0.565524	150.064
0.5656	146.792
0.617351	151.389
0.621509	153.354
0.674729	155.007
0.676084	156.971
0.730668	160.261
0.730721	157.97
0.786677	162.569
0.786722	160.605
0.82448	164.217
0.845518	163.569
0.879094	166.197
0.897314	166.203
0.939315	168.179
0.95333	168.183
1.01354	170.493
