Adsorption isotherm of Ni(II) on Diphonix Resin
DOI: 10.1007/s10450-019-00013-9
Article source: Figure 7
Adsorbate Ni(II): InChIKey VEQPNABPJHWNSG-UHFFFAOYSA-N
Kind: experiment
Temperature: 294 K
Tabular data in the source: 0
pressure (bar)	uptake (mg/g)
1.01325	1.54
1.01325	2.91
1.01325	5.03
1.01325	7.47
1.01325	9.91
1.01325	15.13
1.01325	19.01
1.01325	26.69
