Adsorption isotherm of La(III) on Diphonix Resin
DOI: 10.1007/s10450-019-00013-9
Article source: Figure 7
Adsorbate La(III): InChIKey CZMAIROVPAYCMU-UHFFFAOYSA-N
Kind: experiment
Temperature: 294 K
Tabular data in the source: 0
pressure (bar)	uptake (mg/g)
1.01325	2.67
1.01325	5.3
1.01325	11.25
1.01325	16.2
1.01325	20.5
1.01325	30.03
1.01325	39.51
1.01325	59.41
