Adsorption isotherm of Carbon Dioxide on {[CdNa(2-stp)(dabco)0.5(H2O)]*2H2O}
DOI: 10.1021/Ja0606879
Adsorbate Carbon Dioxide: InChIKey CURLTUGMZLYLDI-UHFFFAOYSA-N
Temperature: 195 K
Tabular data in the source: 0
pressure (bar)	uptake (ml/g)
0.0123058	1.80573
0.0208866	42.7078
0.0223168	22.3998
0.0266072	55.4361
0.035188	65.8761
0.0423388	74.886
0.05521	78.1754
0.0566402	81.4647
0.065221	86.7562
0.119566	89.6165
0.178202	90.0456
0.361261	91.3327
0.517146	92.0478
0.644429	91.7617
0.765991	92.1908
0.939038	92.4768
