Adsorption isotherm of Benzene on {[CdNa(2-stp)(dabco)0.5(H2O)]*2H2O}
DOI: 10.1021/Ja0606879
Adsorbate Benzene: InChIKey UHOVQNZJYSORNB-UHFFFAOYSA-N
Temperature: 298 K
Tabular data in the source: 0
pressure (bar)	uptake (ml/g)
0.00658518	-0.0534575
0.00944547	9.81453
0.025177	17.8233
0.0523498	19.9685
0.109555	21.3987
0.171052	21.8277
0.245419	22.2568
0.298334	22.6858
0.409885	22.8288
0.515716	22.9718
0.624407	23.1149
0.733098	23.6869
0.836068	24.402
0.887553	24.974
0.970502	26.2612
