Adsorption isotherm of Acetone on {[CdNa(2-stp)(dabco)0.5(H2O)]*2H2O}
DOI: 10.1021/Ja0606879
Adsorbate Acetone: InChIKey CSCPPACGZOOCGX-UHFFFAOYSA-N
Temperature: 298 K
Tabular data in the source: 0
pressure (bar)	uptake (ml/g)
0.00372489	16.6792
0.00658518	21.3987
0.0108756	25.9751
0.0180263	29.1215
0.0423388	31.8387
0.0981143	33.6979
0.173912	35.5571
0.259721	36.5582
0.35697	38.1314
0.479963	39.8475
0.567201	41.5637
0.690194	43.5659
0.806035	46.2832
0.893274	49.0004
0.947619	51.5747
