Adsorption isotherm of Nitrogen on [Ni2(NCS)4(azpy)4]n
DOI: 10.1021/Ic061052d
Adsorbate Nitrogen: InChIKey IJGRMHOSHXDMSA-UHFFFAOYSA-N
Temperature: 77 K
Tabular data in the source: 0
pressure (bar)	uptake (mol/mol)
0.00504108	0.004947
0.0124733	0.0840989
0.027543	0.128622
0.0451734	0.153357
0.0577806	0.163251
0.0779716	0.168198
0.0931038	0.178092
0.110752	0.192933
0.166266	0.212721
0.224288	0.242403
0.289893	0.267138
0.355499	0.291873
0.421077	0.331449
0.476574	0.361131
0.537093	0.405654
0.602672	0.44523
0.668242	0.489753
0.73126	0.549117
0.78672	0.598587
0.844644	0.682686
0.89501	0.75689
0.952799	0.915194
0.995091	1.26643
