Adsorption isotherm of Methane on [Ni2(NCS)4(azpy)4]n
DOI: 10.1021/Ic061052d
Adsorbate Methane: InChIKey VNWKTOKETHGBQD-UHFFFAOYSA-N
Temperature: 298 K
Tabular data in the source: 0
pressure (bar)	uptake (mol/mol)
1.95539	0.504594
4.08855	0.687633
5.15513	0.742049
7.99934	0.85583
9.95474	0.915194
14.9321	0.989399
19.9095	1.04876
24.8868	1.08339
29.8642	1.11307
35.0193	1.14276
39.8189	1.16254
49.7737	1.19223
59.5507	1.21696
69.6832	1.2417
