Adsorption isotherm of Nitrogen on [Ni2(NCS)4(azpy)4]n
DOI: 10.1021/Ic061052d
Adsorbate Nitrogen: InChIKey IJGRMHOSHXDMSA-UHFFFAOYSA-N
Temperature: 298 K
Tabular data in the source: 0
pressure (bar)	uptake (mol/mol)
1.95539	0.113781
3.91079	0.207774
4.79961	0.242403
8.17711	0.341343
9.95474	0.39576
14.9321	0.499647
20.0872	0.578799
24.8868	0.638163
29.8642	0.69258
35.0193	0.732155
39.8189	0.771731
49.5959	0.831095
59.7284	0.875618
69.6832	0.920141
