Adsorption isotherm of Methane on MOF-520
DOI: 10.1021/Ja501606h
Adsorbate Methane: InChIKey VNWKTOKETHGBQD-UHFFFAOYSA-N
Temperature: 298 K
Tabular data in the source: 0
pressure (bar)	uptake (cm3(STP)/cm3)
0.945978	8.01736
2.60496	19.4742
5.68681	40.0977
9.0079	60.7239
12.5682	81.3529
16.6117	98.556
24.2233	130.669
28.273	143.297
32.3227	155.925
36.3756	166.266
45.2037	183.524
49.9742	193.872
54.7494	200.79
60.0031	207.712
65.2553	215.779
69.7928	221.55
74.5727	225.036
79.1103	230.807
84.1279	235.439
89.3847	240.075
