Adsorption isotherm of Methane on MOF-519
DOI: 10.1021/Ja501606h
Adsorbate Methane: InChIKey VNWKTOKETHGBQD-UHFFFAOYSA-N
Temperature: 298 K
Tabular data in the source: 0
pressure (bar)	uptake (cm3(STP)/cm3)
0.00155853	-1.14007
0.706794	7.98046
1.88582	20.5212
4.01088	41.0423
7.0882	64.9837
10.4032	90.0651
13.4867	109.446
16.3342	126.547
19.1863	140.228
22.0384	153.909
25.1313	166.45
28.2258	177.85
31.5579	190.391
35.847	202.932
39.8999	213.192
44.9083	224.593
49.6789	234.853
54.4496	245.114
59.7034	251.954
64.7164	259.935
69.4902	267.915
74.5063	273.616
79.5225	279.316
