Adsorption isotherm of Acetylene on [Zn17thb14(mu4-O)4(H2O)(Me2NH2)]*Me2NH2 1a
DOI: 10.1021/Ic5020829
Adsorbate Acetylene: InChIKey HSFWRNGVRCDJHI-UHFFFAOYSA-N
Temperature: 273 K
Tabular data in the source: 0
pressure (bar)	uptake (mmol/g)
0.0166667	0.136519
0.0285714	0.204778
0.0380952	0.273038
0.052381	0.358362
0.0642857	0.426621
0.0785714	0.494881
0.104762	0.614334
0.130952	0.750853
0.154762	0.887372
0.195238	1.07509
0.233333	1.22867
0.27381	1.43345
0.316667	1.6041
0.357143	1.79181
0.392857	1.94539
0.459524	2.20137
0.52381	2.49147
0.592857	2.73038
0.659524	3.00341
0.72619	3.25939
0.792857	3.46416
0.854762	3.70307
0.919048	3.92491
1	4.19795
