Adsorption isotherm of Acetylene on [Zn17thb14(mu4-O)4(H2O)(Me2NH2)]*Me2NH2 2a
DOI: 10.1021/Ic5020829
Adsorbate Acetylene: InChIKey HSFWRNGVRCDJHI-UHFFFAOYSA-N
Temperature: 273 K
Tabular data in the source: 0
pressure (bar)	uptake (mmol/g)
0.00714286	0.392491
0.0238095	0.477816
0.0357143	0.580205
0.05	0.716724
0.0619048	0.802048
0.0785714	0.921502
0.102381	1.07509
0.133333	1.2628
0.157143	1.38225
0.195238	1.62116
0.238095	1.843
0.278571	2.04778
0.316667	2.26962
0.354762	2.45734
0.395238	2.64505
0.459524	2.96928
0.521429	3.27645
0.592857	3.58362
0.659524	3.89078
0.72381	4.18089
0.788095	4.43686
0.857143	4.69283
0.921429	4.98294
1	5.30717
