Adsorption isotherm of Ethane on [Zn17thb14(mu4-O)4(H2O)(Me2NH2)]*Me2NH2 1a
DOI: 10.1021/Ic5020829
Adsorbate Ethane: InChIKey OTMSDBZUPAUEDD-UHFFFAOYSA-N
Temperature: 293 K
Tabular data in the source: 0
pressure (bar)	uptake (mmol/g)
0.0670922	0.448276
0.0790617	0.551724
0.105421	0.724138
0.131781	0.896552
0.160552	1.05172
0.19651	1.25862
0.234872	1.46552
0.278042	1.67241
0.316396	1.89655
0.354783	2.05172
0.395574	2.2069
0.462749	2.48276
0.525141	2.7069
0.592349	2.91379
0.659566	3.10345
0.721983	3.27586
0.786812	3.43103
0.854053	3.56897
0.918899	3.68966
1.00057	3.81034
