Adsorption isotherm of Ethene on [Zn17thb14(mu4-O)4(H2O)(Me2NH2)]*Me2NH2 1a
DOI: 10.1021/Ic5020829
Adsorbate Ethene: InChIKey VGGSQFUCUMXWEO-UHFFFAOYSA-N
Temperature: 273 K
Tabular data in the source: 0
pressure (bar)	uptake (mmol/g)
0.0345089	0.229508
0.0391337	0.311475
0.0483381	0.377049
0.0621221	0.42623
0.0759212	0.508197
0.101233	0.688525
0.131117	0.836066
0.156414	0.983607
0.195496	1.18033
0.234584	1.39344
0.27365	1.55738
0.315025	1.7541
0.354091	1.91803
0.39545	2.08197
0.459783	2.32787
0.524094	2.52459
0.590698	2.72131
0.659588	2.90164
0.723898	3.09836
0.790472	3.22951
0.857054	3.37705
0.921342	3.52459
0.999391	3.67213
