Adsorption isotherm of Acetylene on [Zn17thb14(mu4-O)4(H2O)(Me2NH2)]*Me2NH2 1a
DOI: 10.1021/Ic5020829
Adsorbate Acetylene: InChIKey HSFWRNGVRCDJHI-UHFFFAOYSA-N
Temperature: 293 K
Tabular data in the source: 0
pressure (bar)	uptake (mmol/g)
0.0142857	0.0853242
0.0261905	0.119454
0.0380952	0.153584
0.05	0.204778
0.0619048	0.255973
0.0785714	0.324232
0.102381	0.426621
0.130952	0.52901
0.157143	0.631399
0.195238	0.750853
0.235714	0.904437
0.27619	1.02389
0.316667	1.16041
0.352381	1.29693
0.392857	1.43345
0.459524	1.62116
0.52619	1.843
0.590476	2.04778
0.659524	2.25256
0.721429	2.42321
0.790476	2.66212
0.857143	2.8157
0.92381	3.03754
1.00952	3.29352
