Adsorption isotherm of Ethane on [Zn17thb14(mu4-O)4(H2O)(Me2NH2)]*Me2NH2 2a
DOI: 10.1021/Ic5020829
Adsorbate Ethane: InChIKey OTMSDBZUPAUEDD-UHFFFAOYSA-N
Temperature: 273 K
Tabular data in the source: 0
pressure (bar)	uptake (mmol/g)
0.00955736	0.12069
0.0191396	0.189655
0.0287052	0.293103
0.0430703	0.413793
0.0502404	0.5
0.0670093	0.62069
0.0765501	0.775862
0.105288	1
0.134035	1.2069
0.157974	1.41379
0.19627	1.75862
0.234607	2.01724
0.277735	2.31034
0.316064	2.58621
0.356805	2.84483
0.395167	3.05172
0.459889	3.43103
0.527039	3.75862
0.59181	4.03448
0.656598	4.27586
0.72379	4.51724
0.786199	4.7069
0.853423	4.87931
0.918253	5.03448
0.999909	5.18966
