Adsorption isotherm of Acetylene on [Zn17thb14(mu4-O)4(H2O)(Me2NH2)]*Me2NH2 2a
DOI: 10.1021/Ic5020829
Adsorbate Acetylene: InChIKey HSFWRNGVRCDJHI-UHFFFAOYSA-N
Temperature: 293 K
Tabular data in the source: 0
pressure (bar)	uptake (mmol/g)
0.00952381	0.273038
0.0142857	0.358362
0.0285714	0.460751
0.0404762	0.511945
0.052381	0.56314
0.0642857	0.614334
0.0809524	0.682594
0.104762	0.784983
0.128571	0.904437
0.157143	1.00683
0.197619	1.17747
0.235714	1.31399
0.27619	1.46758
0.314286	1.58703
0.354762	1.72355
0.392857	1.86007
0.459524	2.08191
0.52619	2.30375
0.592857	2.50853
0.657143	2.73038
0.72381	2.90102
0.788095	3.12287
0.854762	3.29352
0.919048	3.49829
0.997619	3.70307
