Adsorption isotherm of Ethane on [Zn17thb14(mu4-O)4(H2O)(Me2NH2)]*Me2NH2 2a
DOI: 10.1021/Ic5020829
Adsorbate Ethane: InChIKey OTMSDBZUPAUEDD-UHFFFAOYSA-N
Temperature: 293 K
Tabular data in the source: 0
pressure (bar)	uptake (mmol/g)
0.0119778	0.0862069
0.0239639	0.155172
0.0287633	0.172414
0.0359582	0.206897
0.0431366	0.275862
0.0575182	0.362069
0.0671005	0.431034
0.0790782	0.517241
0.105454	0.655172
0.134218	0.827586
0.158181	0.982759
0.196527	1.22414
0.237293	1.43103
0.278059	1.63793
0.316421	1.84483
0.354783	2.05172
0.395557	2.24138
0.460312	2.55172
0.525066	2.86207
0.59225	3.12069
0.659433	3.37931
0.721817	3.62069
0.789017	3.84483
0.853821	4.05172
0.921046	4.22414
1.00026	4.46552
