Adsorption isotherm of Ethene on [Zn17thb14(mu4-O)4(H2O)(Me2NH2)]*Me2NH2 1a
DOI: 10.1021/Ic5020829
Adsorbate Ethene: InChIKey VGGSQFUCUMXWEO-UHFFFAOYSA-N
Temperature: 293 K
Tabular data in the source: 0
pressure (bar)	uptake (mmol/g)
0.0252745	0.0983607
0.0321853	0.163934
0.0413746	0.196721
0.0528576	0.229508
0.0666491	0.295082
0.0781471	0.360656
0.103429	0.47541
0.131005	0.590164
0.158573	0.688525
0.197639	0.852459
0.234404	1
0.275756	1.14754
0.314822	1.31148
0.356159	1.42623
0.39521	1.55738
0.459513	1.7377
0.526124	1.95082
0.590427	2.13115
0.659317	2.31148
0.723605	2.45902
0.790186	2.60656
0.859062	2.7541
0.921041	2.86885
1.00139	3.03279
