Adsorption isotherm of Ethane on [Zn17thb14(mu4-O)4(H2O)(Me2NH2)]*Me2NH2 1a
DOI: 10.1021/Ic5020829
Adsorbate Ethane: InChIKey OTMSDBZUPAUEDD-UHFFFAOYSA-N
Temperature: 273 K
Tabular data in the source: 0
pressure (bar)	uptake (mmol/g)
0.0119529	0.137931
0.0167192	0.224138
0.0286887	0.327586
0.0334715	0.37931
0.0382377	0.465517
0.0526111	0.568966
0.064564	0.706897
0.0813246	0.844828
0.105247	1.08621
0.131582	1.31034
0.157908	1.55172
0.198632	1.84483
0.236953	2.13793
0.275307	2.36207
0.31846	2.60345
0.35683	2.7931
0.395192	3
0.462367	3.27586
0.527163	3.5
0.594372	3.7069
0.656789	3.87931
0.721618	4.03448
0.788868	4.15517
0.85131	4.27586
0.918559	4.39655
0.997845	4.48276
