Adsorption isotherm of Ethene on [Zn17thb14(mu4-O)4(H2O)(Me2NH2)]*Me2NH2 2a
DOI: 10.1021/Ic5020829
Adsorbate Ethene: InChIKey VGGSQFUCUMXWEO-UHFFFAOYSA-N
Temperature: 293 K
Tabular data in the source: 0
pressure (bar)	uptake (mmol/g)
0.00693337	0.114754
0.00927207	0.213115
0.0184765	0.278689
0.029982	0.360656
0.0392014	0.459016
0.0530005	0.540984
0.0645059	0.622951
0.0782975	0.688525
0.105888	0.836066
0.128877	0.95082
0.158753	1.08197
0.200113	1.2459
0.234592	1.40984
0.273665	1.59016
0.319612	1.7541
0.354083	1.90164
0.393157	2.08197
0.457482	2.31148
0.524109	2.55738
0.593029	2.80328
0.661927	3
0.723951	3.21311
0.790547	3.39344
0.857151	3.59016
0.921447	3.7541
0.999511	3.93443
