Adsorption isotherm of Ethene on [Zn17thb14(mu4-O)4(H2O)(Me2NH2)]*Me2NH2 2a
DOI: 10.1021/Ic5020829
Adsorbate Ethene: InChIKey VGGSQFUCUMXWEO-UHFFFAOYSA-N
Temperature: 273 K
Tabular data in the source: 0
pressure (bar)	uptake (mmol/g)
0.00930215	0.278689
0.0139269	0.360656
0.0185742	0.491803
0.0300797	0.57377
0.0393142	0.704918
0.0508046	0.754098
0.0600241	0.852459
0.0761317	0.967213
0.103737	1.14754
0.129042	1.31148
0.156663	1.52459
0.19806	1.77049
0.234862	2
0.276245	2.21311
0.315341	2.44262
0.354422	2.63934
0.39351	2.85246
0.460167	3.16393
0.526809	3.44262
0.59345	3.72131
0.660077	3.96721
0.724417	4.22951
0.791021	4.42623
0.857625	4.62295
0.924229	4.81967
1	5
