Adsorption isotherm of Nitrogen on HCI (6M)  PXRD
DOI: 10.1021/jacs.6b12328
Article source: Figure 4B
Adsorbate Nitrogen: InChIKey IJGRMHOSHXDMSA-UHFFFAOYSA-N
Kind: experiment
Temperature: 77 K
Tabular data in the source: 0
pressure (bar)	uptake (cm3(STP)/g)
0.00636	22.5416
0.003881	49.831
0.010045	79.335
0.013209	99.7682
0.008023	138.439
0.014253	172.488
0.028962	197.39
0.046542	222.271
0.078504	249.329
0.119175	283.146
0.148137	301.133
0.168522	321.45
0.194777	350.819
0.217999	368.845
0.238383	389.162
0.253451	439.061
0.257202	500.399
0.283522	534.313
0.309386	536.412
0.398523	547.175
0.421549	551.566
0.461796	555.841
0.527874	559.941
0.565283	566.508
0.625556	566.102
0.674478	574.864
0.72053	583.645
0.763582	583.355
0.809569	587.591
0.864102	587.224
0.915992	602.784
0.947857	623.024
0.985625	654.588
0.991691	677.275
1.00947	715.792
1.01844	740.731
1.01609	777.111
0.058732	252.022
0.085164	283.41
0.132409	322.077
0.164854	351.07
0.200216	384.889
0.223298	440.365
0.222362	503.014
0.272308	560.964
0.328699	587.604
0.376521	587.718
0.427187	597.477
0.477961	600.007
0.525782	600.121
0.564601	602.623
0.618328	607.57
0.68113	605.31
0.728951	605.423
0.785595	615.197
0.827186	632.163
0.877708	651.56
0.946127	673.41
0.969642	699.972
0.983722	757.836
