Adsorption isotherm of Nitrogen on As-Synthesized  PXRD
DOI: 10.1021/jacs.6b12328
Article source: Figure 4B
Adsorbate Nitrogen: InChIKey IJGRMHOSHXDMSA-UHFFFAOYSA-N
Kind: experiment
Temperature: 77 K
Tabular data in the source: 0
pressure (bar)	uptake (cm3(STP)/g)
0.014872	15.6661
0.015264	42.9362
0.015525	61.1163
0.015786	79.2964
0.015981	92.9314
0.010567	115.695
0.010861	136.148
0.014057	158.853
0.017253	181.559
0.029125	208.752
0.040997	235.945
0.055739	263.118
0.079124	292.507
0.119795	326.324
0.134667	362.587
0.172403	391.879
0.192722	407.651
0.224652	432.436
0.242656	486.861
0.269661	568.497
0.281663	604.78
0.307625	613.696
0.385281	624.537
0.428431	631.065
0.47445	637.574
0.51473	644.121
0.580808	648.222
0.615314	652.535
0.669847	652.168
0.721541	654.093
0.758984	662.932
0.822126	662.507
0.876724	666.685
0.927212	684.527
0.957446	691.142
0.986473	713.674
1.00121	740.847
1.01599	770.293
0.25063	611.515
0.265142	640.465
0.330608	659.898
0.38736	662.442
0.43817	662.563
0.497731	677.163
0.536441	686.893
0.584227	689.416
0.638026	689.544
0.685739	696.887
0.736513	699.417
0.766329	704.307
0.82002	711.664
0.879617	723.854
0.915195	743.216
0.944831	760.154
0.98311	798.799
0.20162	490.916
0.175585	433.023
0.122614	377.475
0.078646	319.539
0.043284	285.72
0.017681	198.913
