Adsorption isotherm of Nitrogen on Na OH (6M)
DOI: 10.1021/jacs.6b12328
Article source: Figure 4B
Adsorbate Nitrogen: InChIKey IJGRMHOSHXDMSA-UHFFFAOYSA-N
Kind: experiment
Temperature: 77 K
Tabular data in the source: 0
pressure (bar)	uptake (cm3(STP)/g)
0.01197	13.4129
0.018003	33.8269
0.018362	58.8245
0.021526	79.2577
0.021787	97.4378
0.02208	117.89
0.033985	147.356
0.051662	179.055
0.060566	199.45
0.086854	231.091
0.107238	251.408
0.13046	269.434
0.156617	291.985
0.185677	316.79
0.211802	337.068
0.232186	357.386
0.24471	430.029
0.265225	459.436
0.288675	493.369
0.320247	493.157
0.380878	517.749
0.421157	524.296
0.481365	519.345
0.533059	521.27
0.573241	521
0.624903	520.652
0.670956	529.433
0.725488	529.066
0.77154	537.847
0.8233	544.317
0.869287	548.553
0.903761	550.594
0.964328	570.641
0.993387	595.445
1.00797	611.256
1.01119	636.235
1.01439	658.94
1.02052	686.172
1.03001	747.472
1.03628	783.793
0.050378	211.038
0.121138	276.267
0.18592	341.481
0.221318	372.891
0.25027	435.61
0.302952	510.434
0.332697	520.144
0.374396	529.881
0.430824	554.112
0.484731	547.011
0.526395	559.158
0.580265	554.467
0.631004	559.407
0.669786	564.319
0.741554	562.08
0.78311	581.456
0.83392	581.577
0.89042	600.988
0.93482	630.009
0.982029	671.085
0.99006	733.755
