Adsorption isotherm of Nitrogen on Water (100 C)  PXRD
DOI: 10.1021/jacs.6b12328
Article source: Figure 4B
Adsorbate Nitrogen: InChIKey IJGRMHOSHXDMSA-UHFFFAOYSA-N
Kind: experiment
Temperature: 77 K
Tabular data in the source: 0
pressure (bar)	uptake (cm3(STP)/g)
0.009197	20.2498
0.006719	47.5392
0.007143	77.0818
0.007632	111.169
0.010893	138.42
0.020123	181.54
0.023515	217.881
0.043998	245.016
0.052869	263.138
0.076417	303.888
0.096801	324.206
0.114316	344.542
0.131797	362.607
0.154986	378.36
0.178143	391.84
0.204235	409.846
0.219205	452.928
0.23186	534.661
0.252603	579.976
0.290208	600.177
0.327683	611.289
0.370669	606.454
0.422397	610.651
0.471156	608.05
0.505793	621.454
0.531657	623.552
0.586385	636.82
0.64382	638.707
0.689742	638.398
0.712703	638.243
0.75008	642.537
0.784521	642.305
0.81619	648.91
0.919678	659.578
0.960316	691.122
0.983473	704.603
1.00099	724.94
1.0156	743.023
1.02747	770.216
0.075477	331.58
0.107778	370.211
0.200972	534.288
0.221426	565.662
0.247929	592.231
0.295462	611.621
0.360892	633.464
0.414655	636.001
0.483327	640.984
0.533921	655.562
0.581742	655.676
0.623514	660.594
0.683182	667.965
0.72499	670.474
0.781598	682.657
0.835288	690.013
0.882966	699.765
0.921568	716.725
0.942238	733.641
0.983434	777.113
0.988871	813.27
