Adsorption isotherm of Nitrogen on TAPB-BMTTPA-COF
DOI: 10.1021/jacs.6b12328
Article source: Figure 3A
Adsorbate Nitrogen: InChIKey IJGRMHOSHXDMSA-UHFFFAOYSA-N
Kind: experiment
Temperature: 77 K
Tabular data in the source: 0
pressure (bar)	uptake (cm3(STP)/g)
0.008577	12
0.007955	30.6667
0.007333	49.3333
0.006888	62.6667
0.002844	84
0.002222	102.667
0.001333	129.333
0.013332	169.333
0.012355	198.667
0.02822	222.667
0.050307	260
0.079416	286.667
0.098792	305.333
0.121323	329.333
0.140522	353.333
0.163142	374.667
0.185762	396
0.195051	417.333
0.207227	452
0.212827	484
0.218515	513.333
0.247446	545.333
0.270333	558.667
0.299886	572
0.343038	577.333
0.37628	580
0.439431	585.333
0.49907	596
0.545555	601.333
0.582041	606.667
0.638614	609.333
0.688521	612
0.741583	620
0.791313	628
0.841131	633.333
0.890593	649.333
0.926813	662.667
0.952766	684
0.961965	708
0.974587	729.333
0.983875	750.667
0.985874	790.667
0.022886	170.731
0.034285	204.882
0.048438	249.546
0.069775	281.014
0.087972	309.867
0.113224	328.157
0.144498	356.941
0.1602	370.018
0.199862	427.707
0.209326	501.342
0.223867	538.108
0.267573	579.986
0.309817	585.03
0.36174	592.655
0.407382	595.05
0.446615	594.846
0.495397	599.856
0.557257	604.797
0.626043	601.809
0.694055	614.613
0.742709	622.255
0.788093	629.914
0.833348	640.206
0.862127	653.214
0.900069	679.333
0.93685	729.142
0.966446	792.146
