Adsorption isotherm of Nitrogen on Hexane  PXRD
DOI: 10.1021/jacs.6b12328
Article source: Figure 4B
Adsorbate Nitrogen: InChIKey IJGRMHOSHXDMSA-UHFFFAOYSA-N
Kind: experiment
Temperature: 77 K
Tabular data in the source: 0
pressure (bar)	uptake (cm3(STP)/g)
0.012589	56.5906
0.014448	86.1235
0.02208	117.89
0.028082	136.032
0.028799	186.027
0.055152	222.213
0.069894	249.387
0.090376	276.522
0.125176	301.288
0.157106	326.073
0.191972	355.384
0.200811	371.233
0.212552	389.336
0.227196	409.692
0.247809	445.917
0.250972	466.35
0.260105	502.652
0.266171	525.339
0.281337	582.055
0.313071	593.205
0.379182	599.578
0.422234	599.289
0.471124	605.778
0.522851	609.975
0.574578	614.173
0.626371	622.915
0.672391	629.424
0.718443	638.205
0.772975	637.838
0.827508	637.471
0.876365	641.687
0.916807	659.597
0.954347	675.253
0.983244	688.695
0.997823	704.506
1.01531	722.571
1.0188	765.729
0.031941	244.73
0.075873	305.075
0.105329	334.061
0.140655	370.289
0.184803	416.177
0.207922	469.244
0.259776	599.488
0.310298	618.885
0.414619	638.411
0.489304	640.998
0.554914	650.793
0.635613	650.984
0.728303	648.795
0.814871	656.23
0.856498	670.787
0.895029	692.565
0.948612	707.15
0.969138	733.705
1.00396	803.668
