Adsorption isotherm of Methane on UTSA-10a
DOI: 10.1063/1.4897351
Adsorbate Methane: InChIKey VNWKTOKETHGBQD-UHFFFAOYSA-N
Temperature: 273 K
Tabular data in the source: 0
pressure (bar)	uptake (cm3(STP)/g)
0.0101911	-0.35021
0.0407466	-0.713542
0.0687218	0.299359
0.101805	0.621683
0.132361	0.258351
0.162891	0.925964
0.193429	1.24993
0.226504	1.9159
0.259588	2.23822
0.318127	2.54415
0.351211	2.86647
0.381758	2.84679
0.40975	3.17239
0.447926	3.49143
0.475901	4.50433
0.508993	4.48301
0.536995	4.46497
0.570078	4.78729
0.600616	5.11126
0.633708	5.08993
0.666784	5.7559
0.725323	6.06182
0.755862	6.38579
0.819474	7.37572
0.847485	7.01403
0.883114	7.33472
0.911106	7.66032
0.941636	8.32793
0.956909	8.31809
0.977274	8.30497
1.00781	8.62893
1.04345	8.60597
