Adsorption isotherm of Acetylene on UTSA-10a
DOI: 10.1063/1.4897351
Adsorbate Acetylene: InChIKey HSFWRNGVRCDJHI-UHFFFAOYSA-N
Temperature: 296 K
Tabular data in the source: 0
pressure (bar)	uptake (cm3(STP)/g)
0.0126415	0.846309
0.0380457	1.34841
0.0684546	2.69926
0.101426	3.87922
0.12929	5.23088
0.159716	6.41165
0.190159	7.42235
0.220569	8.7732
0.25354	9.95316
0.286512	11.1331
0.319448	12.6532
0.347399	13.1545
0.377808	14.5054
0.413307	15.8546
0.443734	17.0354
0.471597	18.387
0.502057	19.2276
0.537558	20.5769
0.565439	21.7585
0.595847	23.1093
0.626274	24.2901
0.661774	25.6393
0.689637	26.991
0.720081	28.0017
0.753035	29.3517
0.783461	30.5325
0.813853	32.0534
0.844296	33.0641
0.879762	34.7535
0.905096	35.9359
0.938068	37.1158
0.968478	38.4667
1.00143	39.8167
1.03437	41.3368
