Adsorption isotherm of Nitrogen on UTSA-10a
DOI: 10.1063/1.4897351
Adsorbate Nitrogen: InChIKey IJGRMHOSHXDMSA-UHFFFAOYSA-N
Temperature: 77 K
Tabular data in the source: 0
pressure (bar)	uptake (cm3(STP)/g)
0.00187391	0.824852
0.00802884	167.762
0.0101617	212.387
0.0115177	225.611
0.0140619	231.393
0.0142752	237.178
0.0236752	242.129
0.0292969	244.603
0.0406927	253.684
0.077927	263.57
0.109417	267.676
0.122382	269.317
0.140847	270.128
0.166747	272.585
0.201802	273.382
0.235046	275.007
0.249823	275.821
0.264571	275.808
0.283097	278.272
0.299688	278.257
0.308904	278.25
0.325526	279.062
0.362364	278.204
0.393733	279.004
0.423228	278.979
0.454597	279.779
0.487779	279.75
0.517334	281.378
0.550517	281.35
0.581855	281.323
0.61138	282.125
0.644562	282.096
0.677744	282.068
0.709082	282.041
0.742264	282.013
0.773602	281.987
0.803097	281.961
0.869461	281.905
0.898956	281.88
