Adsorption isotherm of Ethane on UTSA-10a
DOI: 10.1063/1.4897351
Adsorbate Ethane: InChIKey OTMSDBZUPAUEDD-UHFFFAOYSA-N
Temperature: 296 K
Tabular data in the source: 0
pressure (bar)	uptake (cm3(STP)/g)
0.0101305	0.506973
0.0355175	1.17915
0.0659782	2.01978
0.0989673	3.02966
0.129376	4.38051
0.157239	5.73217
0.190211	6.91213
0.223166	8.26216
0.251046	9.44375
0.28653	10.963
0.316955	12.1438
0.347347	13.6647
0.380301	15.0148
0.408165	16.3664
0.443648	17.8857
0.471493	19.4075
0.504431	20.9276
0.532276	22.4493
0.560157	23.6309
0.595588	25.6604
0.625979	27.1813
0.656371	28.7022
0.689326	30.0523
0.722262	31.5724
0.752654	33.0933
0.785574	34.7835
0.813437	36.1351
0.843812	37.8261
0.879294	39.3454
0.907157	40.6971
0.935003	42.2188
0.96794	43.7389
0.998333	45.2599
1.03127	46.78
