Adsorption isotherm of Ethene on UTSA-10a
DOI: 10.1063/1.4897351
Adsorbate Ethene: InChIKey VGGSQFUCUMXWEO-UHFFFAOYSA-N
Temperature: 273 K
Tabular data in the source: 0
pressure (bar)	uptake (cm3(STP)/g)
0.0637906	3.70568
0.0969618	5.38605
0.130133	7.40889
0.160752	9.77666
0.18882	10.777
0.219439	12.8023
0.252611	14.8252
0.28323	16.1655
0.316402	18.5308
0.349573	20.5537
0.380191	22.2365
0.413363	24.6018
0.446534	26.6247
0.474602	27.9675
0.505221	30.3353
0.535841	32.0181
0.56646	34.3859
0.59708	36.4112
0.630251	38.434
0.660871	40.8018
0.69149	42.8271
0.724662	45.1924
0.755281	47.2177
0.785901	48.9005
0.819071	50.9233
0.849691	52.9486
0.88031	54.9739
0.91093	56.3143
0.972169	60.0224
1.00534	61.7028
1.03851	63.7257
