Adsorption isotherm of Ethane on UTSA-10a
DOI: 10.1063/1.4897351
Adsorbate Ethane: InChIKey OTMSDBZUPAUEDD-UHFFFAOYSA-N
Temperature: 273 K
Tabular data in the source: 0
pressure (bar)	uptake (cm3(STP)/g)
0.0102065	1.7025
0.0357228	2.70532
0.0637906	5.76047
0.0995133	8.80825
0.130133	11.8609
0.160752	14.9136
0.191372	17.9663
0.221991	21.3615
0.250059	24.7591
0.288334	29.1743
0.316402	32.9144
0.347021	36.9945
0.380191	40.7297
0.410812	45.1522
0.44143	49.2323
0.474602	52.9675
0.502669	57.3925
0.535841	60.7852
0.56646	64.1804
0.59708	67.2331
0.630251	70.2833
0.660871	72.6511
0.694042	75.3589
0.724662	78.0691
0.757832	80.0919
0.785901	82.1197
0.819071	83.4576
0.849691	85.4829
0.882862	86.8208
0.908379	88.5086
0.941549	89.504
0.972169	91.1868
1.00534	92.5247
1.03596	93.8651
