Adsorption isotherm of Ethene on UTSA-10a
DOI: 10.1063/1.4897351
Adsorbate Ethene: InChIKey VGGSQFUCUMXWEO-UHFFFAOYSA-N
Temperature: 296 K
Tabular data in the source: 0
pressure (bar)	uptake (cm3(STP)/g)
0.0660475	1.33948
0.0965083	2.18011
0.129515	3.01992
0.157412	4.03143
0.190436	4.70117
0.220898	5.5418
0.251341	6.5525
0.286892	7.3915
0.314807	8.23294
0.350343	9.24202
0.380821	9.91257
0.411265	10.9233
0.441725	11.7639
0.472169	12.7746
0.505158	13.7845
0.538164	14.6243
0.56608	15.4657
0.601615	16.4748
0.62953	17.3162
0.65999	18.1569
0.692979	19.1668
0.723423	20.1775
0.751321	21.189
0.78431	22.1989
0.81477	23.0395
0.845214	24.0502
0.875675	24.8908
0.939108	26.9114
0.967023	27.7528
1.00001	28.7627
1.03046	29.7734
