Adsorption isotherm of Methane on UTSA-10a
DOI: 10.1063/1.4897351
Adsorbate Methane: InChIKey VNWKTOKETHGBQD-UHFFFAOYSA-N
Temperature: 296 K
Tabular data in the source: 0
pressure (bar)	uptake (cm3(STP)/g)
0.0153083	-0.345018
0.0382015	-0.182251
0.068749	-0.191992
0.0992617	0.138413
0.129792	0.298745
0.160304	0.62915
0.193397	0.618597
0.223911	0.949002
0.251895	1.11015
0.287516	1.26885
0.348559	1.75959
0.414727	1.90856
0.445258	2.06889
0.478317	2.39848
0.508864	2.38874
0.539394	2.54907
0.567361	2.88029
0.602965	3.20907
0.628422	3.20095
0.661496	3.36047
0.69201	3.69088
0.786163	4.00099
0.971907	4.7921
1.00244	4.95243
1.03804	5.28121
