Adsorption isotherm of Acetylene on UTSA-10a
DOI: 10.1063/1.4897351
Adsorbate Acetylene: InChIKey HSFWRNGVRCDJHI-UHFFFAOYSA-N
Temperature: 273 K
Tabular data in the source: 0
pressure (bar)	uptake (cm3(STP)/g)
0.0127581	4.0973
0.0995133	7.78085
0.127581	9.46615
0.160752	11.1465
0.18882	12.4893
0.221991	14.8547
0.255163	16.535
0.285782	18.9028
0.318952	21.2681
0.347021	23.2959
0.380191	25.6612
0.410812	27.6865
0.443982	30.0518
0.474602	32.0771
0.500119	34.7922
0.538393	37.1526
0.56646	40.2078
0.602184	42.2282
0.627699	44.9433
0.660871	47.6511
0.694042	49.6739
0.724662	52.7266
0.750177	55.4418
0.785901	57.8046
0.819071	60.5124
0.84714	62.8826
0.882862	65.5879
0.91093	68.6431
0.944101	71.3509
0.972169	73.3786
1.00279	75.7464
1.03596	78.4542
