Adsorption isotherm of Chlorobenzene, Methanol on Highbank Soil 4471, Brazos County
DOI: 10.1089/ees.1998.15.203
Article source: Table 4
Adsorbate Chlorobenzene: InChIKey MVPPADPHJFYWMZ-UHFFFAOYSA-N
Adsorbate Methanol: InChIKey OKKJLVBELUTLKV-UHFFFAOYSA-N
Kind: experiment
Temperature: 297 K
Tabular data in the source: 0
pressure (bar)	Chlorobenzene fraction	Chlorobenzene uptake (mg/g)	Methanol fraction	Methanol uptake (mg/g)	total uptake (mg/g)
0.083593	0.010909	30.4	0.989091	2.66	
0.084049	0.016275	32.98	0.983725	3.63	
0.085417	0.032028	34.27	0.967972	7.75	
0.086481	0.043937	31.74	0.956063	9.18	
0.083694	0.050847	30.31	0.949153	11.82	
0.086177	0.097002	32.27	0.902998	20.42	
