Adsorption isotherm of Methanol, Toluene on Highbank Soil 4471, Brazos County
DOI: 10.1089/ees.1998.15.203
Article source: Table 5
Adsorbate Methanol: InChIKey OKKJLVBELUTLKV-UHFFFAOYSA-N
Adsorbate Toluene: InChIKey YXFVVABEGXRONW-UHFFFAOYSA-N
Kind: experiment
Temperature: 297 K
Tabular data in the source: 0
pressure (bar)	Methanol fraction	Methanol uptake (mg/g)	Toluene fraction	Toluene uptake (mg/g)	total uptake (mg/g)
0.106594	0.011407	38.7	0.988593	0.36	
0.112673	0.035971	39.06	0.964029	1.39	
0.113484	0.042857	42.3	0.957143	1.84	
0.113889	0.074733	39.37	0.925267	4.56	
