Adsorption isotherm of Methanol, Toluene on Highbank Soil 4471, Brazos County
DOI: 10.1089/ees.1998.15.203
Article source: Table 5
Adsorbate Methanol: InChIKey OKKJLVBELUTLKV-UHFFFAOYSA-N
Adsorbate Toluene: InChIKey YXFVVABEGXRONW-UHFFFAOYSA-N
Kind: experiment
Temperature: 297 K
Tabular data in the source: 0
pressure (bar)	Methanol fraction	Methanol uptake (mg/g)	Toluene fraction	Toluene uptake (mg/g)	total uptake (mg/g)
0.046609	0.06087	30.32	0.93913	3.64	
0.048636	0.133333	29.97	0.866667	8.47	
0.054716	0.2	31.47	0.8	14.87	
0.058769	0.282759	31.73	0.717241	21.63	
0.06728	0.373494	31.55	0.626506	27.88	
