Adsorption isotherm of Methanol, Toluene on Highbank Soil 4471, Brazos County
DOI: 10.1089/ees.1998.15.203
Article source: Table 5
Adsorbate Methanol: InChIKey OKKJLVBELUTLKV-UHFFFAOYSA-N
Adsorbate Toluene: InChIKey YXFVVABEGXRONW-UHFFFAOYSA-N
Kind: experiment
Temperature: 297 K
Tabular data in the source: 0
pressure (bar)	Methanol fraction	Methanol uptake (mg/g)	Toluene fraction	Toluene uptake (mg/g)	total uptake (mg/g)
0.032019	0.341772	27.9	0.658228	17.88	
0.054716	0.2	31.47	0.8	14.87	
0.083492	0.126214	34.04	0.873786	5.22	
0.104973	0.104247	35.96	0.895753	5.56	
0.111863	0.101449	35.7	0.898551	5.11	
