Adsorption isotherm of N-Hexane, Toluene on Highbank Soil 4471, Brazos County
DOI: 10.1089/ees.1998.15.203
Article source: Table 3
Adsorbate N-Hexane: InChIKey VLKZOEOYAKHREP-UHFFFAOYSA-N
Adsorbate Toluene: InChIKey YXFVVABEGXRONW-UHFFFAOYSA-N
Kind: experiment
Temperature: 297 K
Tabular data in the source: 0
pressure (bar)	N-Hexane fraction	N-Hexane uptake (mg/g)	Toluene fraction	Toluene uptake (mg/g)	total uptake (mg/g)
0.032829	0.802469	17.14	0.197531	18.15	
0.035261	0.804598	16.8	0.195402	17.9	
0.030398	0.666667	11.26	0.333333	25.14	
0.042962	0.660377	7.47	0.339623	30.76	
0.048636	0.5	8.1	0.5	42	
0.125238	0.954693	23.26	0.045307	13.37	
0.126048	0.932476	22.4	0.067524	17.3	
0.126454	0.929487	21.1	0.070513	16.24	
0.138207	0.909091	20.1	0.090909	23	
0.134965	0.900901	18.5	0.099099	23.76	
