Adsorption isotherm of Chlorobenzene, Methanol on Highbank Soil 4471, Brazos County
DOI: 10.1089/ees.1998.15.203
Article source: Table 4
Adsorbate Chlorobenzene: InChIKey MVPPADPHJFYWMZ-UHFFFAOYSA-N
Adsorbate Methanol: InChIKey OKKJLVBELUTLKV-UHFFFAOYSA-N
Kind: experiment
Temperature: 297 K
Tabular data in the source: 0
pressure (bar)	Chlorobenzene fraction	Chlorobenzene uptake (mg/g)	Methanol fraction	Methanol uptake (mg/g)	total uptake (mg/g)
0.029536	0.066895	22.47	0.933105	15.44	
0.03212	0.141956	25.43	0.858044	23.24	
0.033792	0.184408	25.28	0.815592	26.9	
0.037085	0.213115	30.74	0.786885	32.46	
0.037592	0.266846	23.64	0.733154	39.93	
