Adsorption isotherm of Hydrogen on RH-SNP
DOI: 10.1016/j.micromeso.2013.02.016
Adsorbate Hydrogen: InChIKey UFHFLCQGNIYNRP-UHFFFAOYSA-N
Temperature: 77 K
Tabular data in the source: 0
pressure (bar)	uptake (wt%)
1.01942	0.0886586
1.86893	0.121008
11.5534	0.275965
19.199	0.358107
26.8447	0.440249
34.3204	0.538429
41.966	0.74115
49.2718	0.823214
56.5777	0.824892
64.2233	0.874879
71.8689	0.892712
