Adsorption isotherm of Hydrogen on RH-SNP
DOI: 10.1016/j.micromeso.2013.02.016
Adsorbate Hydrogen: InChIKey UFHFLCQGNIYNRP-UHFFFAOYSA-N
Temperature: 77 K
Tabular data in the source: 0
pressure (bar)	uptake (wt%)
0.950226	0.0957983
1.67421	0.131092
11.5837	0.277311
19.2308	0.347899
