Adsorption isotherm of Nitrogen on Mesoporous Carbon
DOI: 10.1016/j.micromeso.2013.02.016
Adsorbate Nitrogen: InChIKey IJGRMHOSHXDMSA-UHFFFAOYSA-N
Temperature: 77 K
Tabular data in the source: 0
pressure (bar)	uptake (cm3(STP)/g)
0	0
0.00689021	132.945
0.0229674	143.44
0.0344511	153.936
0.0482315	164.431
0.0711989	174.927
0.0849792	181.924
0.101057	185.423
0.137804	195.918
0.172255	202.915
0.206706	213.411
0.243454	227.405
0.277905	234.402
0.312356	244.898
0.346807	251.895
0.383555	265.889
0.413413	279.883
0.447864	293.878
0.480018	304.373
0.512173	325.364
0.544327	339.359
0.571887	360.35
0.599448	381.341
0.629306	405.831
0.656867	433.819
0.682131	454.81
0.707395	486.297
0.732659	514.286
0.755627	545.773
0.778594	577.259
0.803858	605.248
0.822232	636.735
0.845199	675.219
0.868167	706.706
0.888838	741.691
0.902618	794.169
0.923289	829.155
0.937069	857.143
0.950849	888.63
0.960037	934.111
0.96463	983.09
0.966927	1035.57
