Adsorption isotherm of Nitrogen on RH-SNP
DOI: 10.1016/j.micromeso.2013.02.016
Adsorbate Nitrogen: InChIKey IJGRMHOSHXDMSA-UHFFFAOYSA-N
Temperature: 77 K
Tabular data in the source: 0
pressure (bar)	uptake (cm3(STP)/g)
0.0779864	47.8201
0.100187	50.5434
0.129049	54.1737
0.160129	57.8061
0.184555	61.4324
0.211199	65.0607
0.237843	68.689
0.26448	71.4164
0.293342	75.0468
0.317768	78.673
0.344417	83.2023
0.373279	86.8326
0.399923	90.4609
0.42437	96.7899
0.451026	102.22
0.473254	108.547
0.499911	113.977
0.526569	119.407
0.557661	124.841
0.584319	130.272
0.610963	133.9
0.637613	138.429
0.666481	142.96
0.69535	147.492
0.722001	152.021
0.750869	156.552
0.779738	161.083
0.806388	165.613
0.833039	170.142
0.859703	176.473
0.888598	184.608
0.913057	192.739
0.939774	206.277
0.957639	222.51
0.966718	250.446
