Adsorption isotherm of Nitrogen on Mesoporous Carbon
DOI: 10.1016/j.micromeso.2013.02.016
Adsorbate Nitrogen: InChIKey IJGRMHOSHXDMSA-UHFFFAOYSA-N
Temperature: 77 K
Tabular data in the source: 0
pressure (bar)	uptake (cm3(STP)/g)
0.000141673	43.0769
0.000276261	84
0.00269886	120.615
0.0142665	137.846
0.0304171	148.615
0.0488487	152.923
0.0672874	159.385
0.0857191	163.692
0.104151	168
0.138712	176.615
0.17787	183.077
0.217028	189.538
0.253878	193.846
0.288438	202.462
0.329899	208.923
0.369057	215.385
0.403611	221.846
0.442776	230.462
0.479639	239.077
0.511906	249.846
0.551071	258.462
0.585639	269.231
0.622517	282.154
0.657091	295.077
0.68707	310.154
0.721652	325.231
0.753939	342.462
0.786227	359.692
0.818528	381.231
0.848527	402.769
0.876245	430.769
0.901669	460.923
0.931667	482.462
0.952451	501.846
0.959521	551.385
0.966576	596.615
0.966788	661.231
