Adsorption isotherm of Nitrogen on Mesoporous Carbon
DOI: 10.1016/j.micromeso.2013.02.016
Adsorbate Nitrogen: InChIKey IJGRMHOSHXDMSA-UHFFFAOYSA-N
Temperature: 77 K
Tabular data in the source: 0
pressure (bar)	uptake (cm3(STP)/g)
0.0666054	178.426
0.101057	188.921
0.135508	195.918
0.169959	209.913
0.20441	220.408
0.241158	230.904
0.273312	241.399
0.307763	251.895
0.339917	262.391
0.374368	272.886
0.406523	286.88
0.438677	304.373
0.468535	321.866
0.498392	339.359
0.528249	363.848
0.55581	391.837
0.581075	416.327
0.606338	447.813
0.629306	482.799
0.65457	514.286
0.679835	545.773
0.705098	577.259
0.728066	608.746
0.751034	643.732
0.776297	678.717
0.796968	713.703
0.819936	745.19
0.838309	776.676
0.86587	808.163
0.891135	839.65
0.920992	871.137
0.937069	899.125
0.950849	930.612
0.95774	983.09
0.960037	1035.57
