Adsorption isotherm of Nitrogen on RH-SNP
DOI: 10.1016/j.micromeso.2013.02.016
Adsorbate Nitrogen: InChIKey IJGRMHOSHXDMSA-UHFFFAOYSA-N
Temperature: 77 K
Tabular data in the source: 0
pressure (bar)	uptake (cm3(STP)/g)
-0.00213151	11.7097
-0.00205158	22.5206
0.00244457	30.6329
0.0157931	36.0507
0.0357893	40.5737
0.0646579	45.105
0.0890969	50.5331
0.184555	61.4324
0.215635	65.0648
0.242279	68.6931
0.268916	71.4205
0.295553	74.1479
0.324415	77.7783
0.351066	82.3075
0.375485	85.0329
0.404353	89.5642
0.433215	93.1945
0.459865	97.7237
0.486509	101.352
0.513167	106.782
0.539811	110.41
0.566467	115.841
0.595329	119.471
0.619769	124.899
0.64863	128.529
0.673056	132.156
0.699713	137.586
0.726371	143.016
0.753014	146.644
0.777453	152.072
0.804111	157.502
0.832985	162.935
0.855207	168.361
0.88187	174.692
0.904104	181.919
0.926359	191.85
0.944197	204.479
0.959857	222.512
0.969182	283.782
