Adsorption isotherm of Hydrogen on Mesoporous Carbon
DOI: 10.1016/j.micromeso.2013.02.016
Adsorbate Hydrogen: InChIKey UFHFLCQGNIYNRP-UHFFFAOYSA-N
Temperature: 77 K
Tabular data in the source: 0
pressure (bar)	uptake (wt%)
0.0452489	0.00504202
0.995475	0.751261
1.67421	1.02857
11.629	1.15966
19.1855	1.43193
