Adsorption isotherm of Hydrogen on Mesoporous Carbon
DOI: 10.1016/j.micromeso.2013.02.016
Adsorbate Hydrogen: InChIKey UFHFLCQGNIYNRP-UHFFFAOYSA-N
Temperature: 303 K
Tabular data in the source: 0
pressure (bar)	uptake (wt%)
1.03093	0.00176991
2.06337	0.000884956
12.0145	0.0433628
20.7723	0.0672566
29.3469	0.110619
38.1143	0.117699
47.068	0.1
55.842	0.0955752
64.5851	0.145133
73.3541	0.149558
