Adsorption isotherm of Hydrogen on Mesoporous Carbon
DOI: 10.1016/j.micromeso.2013.02.016
Adsorbate Hydrogen: InChIKey UFHFLCQGNIYNRP-UHFFFAOYSA-N
Temperature: 77 K
Tabular data in the source: 0
pressure (bar)	uptake (wt%)
0.0452489	0.010084
0.995475	0.776471
1.67421	0.978151
11.5837	1.41176
19.1855	1.62857
