Adsorption isotherm of Nitrogen on Mesoporous Carbon
DOI: 10.1016/j.micromeso.2013.02.016
Adsorbate Nitrogen: InChIKey IJGRMHOSHXDMSA-UHFFFAOYSA-N
Temperature: 77 K
Tabular data in the source: 0
pressure (bar)	uptake (cm3(STP)/g)
0.0718989	161.538
0.111057	168
0.145618	176.615
0.182475	183.077
0.221633	189.538
0.256187	196
0.293042	202.462
0.329899	208.923
0.369057	215.385
0.403611	221.846
0.440475	230.462
0.477338	239.077
0.511906	249.846
0.548776	260.615
0.581049	273.538
0.615645	292.923
0.650234	310.154
0.684817	325.231
0.719407	342.462
0.749413	366.154
0.781714	387.692
0.811734	415.692
0.84174	439.385
0.876337	458.769
0.908617	473.846
0.934013	495.385
0.950255	534.154
0.95277	598.769
