Adsorption isotherm of Hydrogen on Mesoporous Carbon
DOI: 10.1016/j.micromeso.2013.02.016
Adsorbate Hydrogen: InChIKey UFHFLCQGNIYNRP-UHFFFAOYSA-N
Temperature: 77 K
Tabular data in the source: 0
pressure (bar)	uptake (wt%)
1.01942	0.779977
1.52913	0.97302
11.3835	1.41741
18.6893	1.62809
26.165	1.7745
33.6408	1.94503
41.1165	2.13967
48.5922	2.27
55.8981	2.38422
63.5437	2.41813
71.0194	2.40377
