Adsorption isotherm of Hydrogen on Mesoporous Carbon
DOI: 10.1016/j.micromeso.2013.02.016
Adsorbate Hydrogen: InChIKey UFHFLCQGNIYNRP-UHFFFAOYSA-N
Temperature: 303 K
Tabular data in the source: 0
pressure (bar)	uptake (wt%)
1.88834	0.00619469
11.8435	0.0415929
20.7667	0.0769912
29.5209	0.10708
38.1062	0.131858
46.8701	0.145133
55.8055	0.159292
64.5694	0.172566
73.3388	0.176106
