Adsorption isotherm of Carbon Dioxide on Ca-5TIA-MOF
DOI: 10.1039/C2jm30866e
Adsorbate Carbon Dioxide: InChIKey CURLTUGMZLYLDI-UHFFFAOYSA-N
Temperature: 298 K
Tabular data in the source: 0
pressure (bar)	uptake (cm3(STP)/g)
0.0025126	0.307918
0.0446858	3.59238
0.106362	7.18475
0.182573	10.6745
0.253644	13.1378
0.371231	17.0381
0.478654	19.2962
0.595756	21.4516
0.698011	22.5806
0.785703	23.7097
0.90255	24.9413
1.00212	25.1466
