Adsorption isotherm of Carbon Dioxide on Ca-5TIA-Gel
DOI: 10.1039/C2jm30866e
Adsorbate Carbon Dioxide: InChIKey CURLTUGMZLYLDI-UHFFFAOYSA-N
Temperature: 298 K
Tabular data in the source: 0
pressure (bar)	uptake (cm3(STP)/g)
0.0223571	1.84751
0.0597899	5.54252
0.109273	8.92962
0.175917	12.9326
0.249473	15.6012
0.337848	19.1935
0.4674	22.478
0.579876	25.4545
0.689726	27.7126
0.777475	29.0469
0.904286	31.2023
1.00663	32.6393
