Adsorption isotherm of Propene on Zeolite 4A
DOI: 10.1021/Ie0605940
Adsorbate Propene: InChIKey QQONPFPTGQHPMA-UHFFFAOYSA-N
Temperature: 373 K
Tabular data in the source: 0
pressure (bar)	uptake (molecules/unitcell)
0.0126608	5.66955
0.0661819	14.3456
0.173224	19.6695
0.24083	21.6414
0.352097	23.1203
0.514069	24.6977
