Adsorption isotherm of N-propane on Zeolite 4A
DOI: 10.1021/Ie0605940
Adsorbate N-propane: InChIKey ATUOYWHBWRKTHZ-UHFFFAOYSA-N
Temperature: 303 K
Tabular data in the source: 0
pressure (bar)	uptake (molecules/unitcell)
0.0267453	0.937153
0.10421	2.07096
0.223928	2.7611
0.505619	3.50053
0.983083	3.9442
