Adsorption isotherm of N-propane on Zeolite 4A
DOI: 10.1021/Ie0605940
Adsorbate N-propane: InChIKey ATUOYWHBWRKTHZ-UHFFFAOYSA-N
Temperature: 298 K
Tabular data in the source: 0
pressure (bar)	uptake (molecules/unitcell)
0.00561856	1.03574
0.00843546	4.58504
0.00984391	9.12025
0.0535059	22.9724
0.10421	26.4231
0.147872	28.0498
0.205619	28.9372
0.250689	29.4794
0.501393	31.0569
0.745055	31.747
0.994351	32.1907
