Adsorption isotherm of Propene on Zeolite 4A
DOI: 10.1021/Ie0605940
Adsorbate Propene: InChIKey QQONPFPTGQHPMA-UHFFFAOYSA-N
Temperature: 473 K
Tabular data in the source: 0
pressure (bar)	uptake (molecules/unitcell)
0.0562618	4.60609
0.0985153	7.60609
0.309783	14.1976
0.640769	17.6624
0.985839	19.9864
1.14077	21.0005
1.94359	23.1976
3.35908	25.6061
4.71823	27.423
