Adsorption isotherm of N-propane on Zeolite 4A
DOI: 10.1021/Ie0605940
Adsorbate N-propane: InChIKey ATUOYWHBWRKTHZ-UHFFFAOYSA-N
Temperature: 298 K
Tabular data in the source: 0
pressure (bar)	uptake (molecules/unitcell)
0.0154777	0.296308
0.0478721	0.3949
0.0985763	0.296308
0.150689	0.345604
0.245055	0.641379
0.498576	1.18363
0.750689	1.72589
0.999985	3.00758
