Adsorption isotherm of Propene on Zeolite 4A
DOI: 10.1021/Ie0605940
Adsorbate Propene: InChIKey QQONPFPTGQHPMA-UHFFFAOYSA-N
Temperature: 423 K
Tabular data in the source: 0
pressure (bar)	uptake (molecules/unitcell)
0.0492195	3.20476
0.0773886	5.91603
0.119642	7.93715
0.154853	9.7611
0.218234	12.1766
0.309783	15.1343
0.344994	15.7752
0.535135	17.8949
0.690065	19.9653
1.02809	22.4301
1.4788	24.2541
2.30274	26.8174
2.59852	28.0498
3.64077	29.4794
4.62668	31.1555
