Adsorption isotherm of Propene on Zeolite 4A
DOI: 10.1021/Ie0605940
Adsorbate Propene: InChIKey QQONPFPTGQHPMA-UHFFFAOYSA-N
Temperature: 473 K
Tabular data in the source: 0
pressure (bar)	uptake (molecules/unitcell)
0.0563228	4.7327
0.108435	7.57777
0.302802	14.0848
0.656323	17.6623
0.990126	19.9158
