Adsorption isotherm of Propene on Zeolite 4A
DOI: 10.1021/Ie0605940
Adsorbate Propene: InChIKey QQONPFPTGQHPMA-UHFFFAOYSA-N
Temperature: 373 K
Tabular data in the source: 0
pressure (bar)	uptake (molecules/unitcell)
0.0140693	6.95124
0.0689988	16.3174
0.163365	20.8034
0.242238	21.247
0.346464	24.4512
0.515478	27.2611
