Adsorption isotherm of Propene on Zeolite 4A
DOI: 10.1021/Ie0605940
Adsorbate Propene: InChIKey QQONPFPTGQHPMA-UHFFFAOYSA-N
Temperature: 423 K
Tabular data in the source: 0
pressure (bar)	uptake (molecules/unitcell)
0.0492195	3.50053
0.1126	9.46532
0.161896	11.3879
0.211191	14.1484
0.309783	16.5146
0.337952	17.7963
0.528093	20.0146
0.67598	21.4935
1.02105	22.9724
1.48584	25.0921
2.58443	26.9653
3.64077	28.4442
4.62668	29.085
