Adsorption isotherm of N-propane on Zeolite 4A
DOI: 10.1021/Ie0605940
Adsorbate N-propane: InChIKey ATUOYWHBWRKTHZ-UHFFFAOYSA-N
Temperature: 303 K
Tabular data in the source: 0
pressure (bar)	uptake (molecules/unitcell)
0.00421011	0.789266
0.00702701	3.8456
0.0126608	7.29631
0.0535059	21.3456
0.0999848	25.0428
0.149281	27.3104
0.202802	28.2963
0.252097	28.8386
0.502802	30.5146
0.753506	31.5005
0.997168	31.9935
