Adsorption isotherm of Propene on Zeolite 4A
DOI: 10.1021/Ie0605940
Adsorbate Propene: InChIKey QQONPFPTGQHPMA-UHFFFAOYSA-N
Temperature: 473 K
Tabular data in the source: 0
pressure (bar)	uptake (molecules/unitcell)
0.140769	5.3244
0.274572	8.28215
0.288656	8.9582
0.436543	11.1976
0.647811	13.9864
0.971755	15.423
1.43654	18.3385
1.94359	19.8174
2.51401	21.2962
3.34499	23.7047
4.18302	25.8596
