Adsorption isotherm of Propene on Zeolite 4A
DOI: 10.1021/Ie0605940
Adsorbate Propene: InChIKey QQONPFPTGQHPMA-UHFFFAOYSA-N
Temperature: 423 K
Tabular data in the source: 0
pressure (bar)	uptake (molecules/unitcell)
0.0295622	2.95813
0.0450552	5.03559
0.0492805	6.09193
0.0774495	7.53559
0.0971678	7.92292
0.133788	9.89475
0.215478	12.3595
0.298576	15.1412
0.325337	16.0215
0.515478	17.8877
0.663365	20.0004
