Adsorption isotherm of N-propane on Zeolite 4A
DOI: 10.1021/Ie0605940
Adsorbate N-propane: InChIKey ATUOYWHBWRKTHZ-UHFFFAOYSA-N
Temperature: 303 K
Tabular data in the source: 0
pressure (bar)	uptake (molecules/unitcell)
0.0859002	0.3949
0.180266	0.542787
0.342238	0.690674
0.542238	1.18363
0.6859	1.38082
0.930971	1.77518
1.04365	2.12025
