Adsorption isotherm of Propene on Zeolite 4A
DOI: 10.1021/Ie0605940
Adsorbate Propene: InChIKey QQONPFPTGQHPMA-UHFFFAOYSA-N
Temperature: 473 K
Tabular data in the source: 0
pressure (bar)	uptake (molecules/unitcell)
0.0520974	2.05664
0.063365	2.59185
0.109844	3.83129
0.149281	4.76087
0.287309	7.5496
0.307027	8.42284
0.432379	10.4228
0.443647	10.8172
0.649281	13.6059
0.988717	16.4792
