Adsorption isotherm of Propene on Zeolite 4A
DOI: 10.1021/Ie0605940
Adsorbate Propene: InChIKey QQONPFPTGQHPMA-UHFFFAOYSA-N
Temperature: 373 K
Tabular data in the source: 0
pressure (bar)	uptake (molecules/unitcell)
0.0492195	5.91603
0.0773886	14.5428
0.168938	19.6203
0.232318	21.5921
0.352036	23.3174
0.514008	24.6977
1.12668	28.5428
2.31683	31.5005
4.45063	33.0287
