Adsorption isotherm of Propene on Zeolite 4A
DOI: 10.1021/Ie0605940
Adsorbate Propene: InChIKey QQONPFPTGQHPMA-UHFFFAOYSA-N
Temperature: 473 K
Tabular data in the source: 0
pressure (bar)	uptake (molecules/unitcell)
0.0520974	2.42284
0.063365	2.90171
0.108435	4.39467
0.143647	5.40876
0.284492	8.31016
0.30421	9.04256
0.439421	11.0989
0.654914	13.944
0.991534	15.4088
