Adsorption isotherm of N-propane on Zeolite 4A
DOI: 10.1021/Ie0605940
Adsorbate N-propane: InChIKey ATUOYWHBWRKTHZ-UHFFFAOYSA-N
Temperature: 473 K
Tabular data in the source: 0
pressure (bar)	uptake (molecules/unitcell)
0.289487	13.112
0.890147	19.9909
1.2677	21.8501
2.18872	24.6761
3.70467	26.4609
