Adsorption isotherm of N-propane on Zeolite 4A
DOI: 10.1021/Ie0605940
Adsorbate N-propane: InChIKey ATUOYWHBWRKTHZ-UHFFFAOYSA-N
Temperature: 423 K
Tabular data in the source: 0
pressure (bar)	uptake (molecules/unitcell)
0.13515	2.84538
0.495714	8.00031
0.737967	10.7045
1.14923	13.4088
1.50416	15.4088
2.19149	17.7468
2.98585	19.5496
3.66191	20.7045
