Adsorption isotherm of N-propane on Zeolite 4A
DOI: 10.1021/Ie0605940
Adsorbate N-propane: InChIKey ATUOYWHBWRKTHZ-UHFFFAOYSA-N
Temperature: 473 K
Tabular data in the source: 0
pressure (bar)	uptake (molecules/unitcell)
0.278046	0.729775
0.764295	1.91965
0.901588	2.17994
1.27915	3.10953
1.50797	3.44419
2.22304	5.04309
3.00676	6.27015
3.71039	7.49721
