Adsorption isotherm of Propene on Zeolite 4A
DOI: 10.1021/Ie0605940
Adsorbate Propene: InChIKey QQONPFPTGQHPMA-UHFFFAOYSA-N
Temperature: 373 K
Tabular data in the source: 0
pressure (bar)	uptake (molecules/unitcell)
0.0280928	24.4512
0.183022	27.7048
0.246403	28.8879
0.344994	29.7259
0.535135	31.3034
1.14077	33.0287
2.32387	33.916
4.43654	33.7188
