Adsorption isotherm of N-propane on Zeolite 4A
DOI: 10.1021/Ie0605940
Adsorbate N-propane: InChIKey ATUOYWHBWRKTHZ-UHFFFAOYSA-N
Temperature: 473 K
Tabular data in the source: 0
pressure (bar)	uptake (molecules/unitcell)
0.890147	6.00986
1.26198	7.57158
2.22304	10.9181
3.67607	14.0415
