Adsorption isotherm of Propene on Zeolite 4A
DOI: 10.1021/Ie0605940
Adsorbate Propene: InChIKey QQONPFPTGQHPMA-UHFFFAOYSA-N
Temperature: 373 K
Tabular data in the source: 0
pressure (bar)	uptake (molecules/unitcell)
0.00984391	14.3949
0.0704073	24.5005
0.166182	27.5569
0.242238	28.8879
0.347872	29.6766
0.514069	31.1062
