Adsorption isotherm of Propene on Zeolite 4A
DOI: 10.1021/Ie0605940
Adsorbate Propene: InChIKey QQONPFPTGQHPMA-UHFFFAOYSA-N
Temperature: 423 K
Tabular data in the source: 0
pressure (bar)	uptake (molecules/unitcell)
0.035135	7.4442
0.0633041	11.2893
0.105558	15.3808
0.197107	19.5217
0.542177	23.7118
1.49992	28.247
2.59852	29.6766
4.60556	31.7963
