Adsorption isotherm of N-propane on Zeolite 4A
DOI: 10.1021/Ie0605940
Adsorbate N-propane: InChIKey ATUOYWHBWRKTHZ-UHFFFAOYSA-N
Temperature: 423 K
Tabular data in the source: 0
pressure (bar)	uptake (molecules/unitcell)
0.140784	0.760868
0.49008	2.62002
0.732333	3.77495
1.13233	5.46509
1.48726	7.0989
2.18022	9.23974
3.00276	11.3524
3.65064	12.8172
