Adsorption isotherm of N-propane on Zeolite 4A
DOI: 10.1021/Ie0605940
Adsorbate N-propane: InChIKey ATUOYWHBWRKTHZ-UHFFFAOYSA-N
Temperature: 473 K
Tabular data in the source: 0
pressure (bar)	uptake (molecules/unitcell)
0.278046	1.99402
0.907309	5.74958
1.26198	8.05497
2.22304	10.7694
3.67607	14.3762
