Adsorption isotherm of Propene on Zeolite 4A
DOI: 10.1021/Ie0605940
Adsorbate Propene: InChIKey QQONPFPTGQHPMA-UHFFFAOYSA-N
Temperature: 423 K
Tabular data in the source: 0
pressure (bar)	uptake (molecules/unitcell)
0.0267453	3.4863
0.0774495	7.81728
0.0985763	9.437
0.133788	11.444
0.215478	14.2609
0.298576	16.6553
0.332379	17.7469
0.511252	20.2116
0.661957	21.4088
