Adsorption isotherm of Propene on Zeolite 4A
DOI: 10.1021/Ie0605940
Adsorbate Propene: InChIKey QQONPFPTGQHPMA-UHFFFAOYSA-N
Temperature: 423 K
Tabular data in the source: 0
pressure (bar)	uptake (molecules/unitcell)
0.0280928	7.4442
0.0562618	11.5357
0.0985153	15.3808
0.197107	19.7681
0.528093	23.4653
1.48584	28.1977
2.59147	29.8245
4.63373	31.8949
