Adsorption isotherm of Propene on Zeolite 4A
DOI: 10.1021/Ie0605940
Adsorbate Propene: InChIKey QQONPFPTGQHPMA-UHFFFAOYSA-N
Temperature: 473 K
Tabular data in the source: 0
pressure (bar)	uptake (molecules/unitcell)
0.0562618	2.11313
0.1126	4.01454
0.133727	4.85961
0.281614	7.56384
0.436543	10.9441
0.647811	13.6483
0.978797	16.5638
1.14781	16.6061
1.4295	18.1272
1.95767	20.3244
2.51401	22.1836
3.38021	24.3385
4.18302	26.0709
4.70415	26.9582
