Adsorption isotherm of Propene on Zeolite 4A
DOI: 10.1021/Ie0605940
Adsorbate Propene: InChIKey QQONPFPTGQHPMA-UHFFFAOYSA-N
Temperature: 373 K
Tabular data in the source: 0
pressure (bar)	uptake (molecules/unitcell)
0.0421773	7.04983
0.161896	20.7541
0.344994	24.2541
0.514008	27.409
1.10556	29.4794
2.30978	31.9442
4.45063	33.571
