Adsorption isotherm of Carbon Dioxide on Mg-MOF-1
DOI: 10.1039/C0jm01125h
Adsorbate Carbon Dioxide: InChIKey CURLTUGMZLYLDI-UHFFFAOYSA-N
Temperature: 298 K
Tabular data in the source: 0
pressure (bar)	uptake (mmol/g)
0.0258621	0.00665852
0.045977	0.0200463
0.0804598	0.0468348
0.109195	0.0624421
0.123563	0.0780816
0.140805	0.0914758
0.163793	0.111574
0.181034	0.127207
0.204023	0.142827
0.227011	0.160686
0.25	0.174067
0.267241	0.1897
0.284483	0.207572
0.488506	0.366071
0.528736	0.397324
0.548851	0.41295
0.574713	0.428564
0.614943	0.45534
0.652299	0.479883
0.692529	0.502181
0.732759	0.52224
0.767241	0.537835
0.810345	0.557887
0.856322	0.575695
0.890805	0.584573
0.933908	0.597909
0.971264	0.602303
0.994253	0.606729
