Adsorption isotherm of Hydrogen on Mg-MOF-1
DOI: 10.1039/C0jm01125h
Adsorbate Hydrogen: InChIKey UFHFLCQGNIYNRP-UHFFFAOYSA-N
Temperature: 77 K
Tabular data in the source: 0
pressure (bar)	uptake (cm3(STP)/g)
0.0200744	1.05849
0.0286442	2.386
0.0400367	5.04254
0.0542722	8.4962
0.0543231	7.1664
0.0828654	12.212
0.0856779	13.807
0.0999847	15.3989
0.14852	23.6307
0.194263	29.7356
0.271493	39.0235
0.305834	42.7378
0.348775	46.9817
0.39463	50.161
0.446212	53.8707
0.500708	56.5158
0.549457	59.1624
0.598237	61.0111
0.644133	63.1266
0.707281	64.9715
0.74747	66.0246
0.802007	67.6058
0.847954	68.3915
0.92548	69.9666
0.954196	70.4909
