Adsorption isotherm of Nitrogen on Mg-MOF-1
DOI: 10.1039/C0jm01125h
Adsorbate Nitrogen: InChIKey IJGRMHOSHXDMSA-UHFFFAOYSA-N
Temperature: 298 K
Tabular data in the source: 0
pressure (bar)	uptake (mmol/g)
0.0402299	0.00886516
0.0632184	0.0132913
0.0804598	0.0222079
0.100575	0.0244017
0.126437	0.0288214
0.140805	0.031028
0.166667	0.0421642
0.178161	0.0421384
0.204023	0.0465582
0.224138	0.0509907
0.247126	0.0487005
0.267241	0.0508942
0.287356	0.0508492
0.304598	0.0508106
0.344828	0.0529593
0.382184	0.0528757
0.408046	0.0550566
0.425287	0.055018
0.448276	0.0549665
0.462644	0.0571732
0.482759	0.059367
0.514368	0.0592962
0.525862	0.0615093
0.548851	0.0636966
0.571839	0.0636451
0.591954	0.0658389
0.614943	0.0680262
0.632184	0.0702265
0.652299	0.0701814
0.692529	0.0700914
0.715517	0.0722787
0.735632	0.0722337
0.755747	0.0744274
0.781609	0.0788471
0.795977	0.0810538
0.807471	0.081028
0.827586	0.0832218
0.847701	0.0854156
0.876437	0.0898289
0.899425	0.094255
0.91954	0.0986876
0.931034	0.103139
0.956897	0.10532
0.977011	0.111992
