Adsorption isotherm of Nitrogen on Mg-MOF-1
DOI: 10.1039/C0jm01125h
Adsorbate Nitrogen: InChIKey IJGRMHOSHXDMSA-UHFFFAOYSA-N
Temperature: 77 K
Tabular data in the source: 0
pressure (bar)	uptake (cm3(STP)/g)
0.0545473	1.31528
0.120609	2.09558
0.166577	2.34931
0.186682	2.60993
0.232649	2.86366
0.255638	2.85754
0.278616	3.11739
0.298731	3.11204
0.327467	3.1044
0.350446	3.36424
0.373424	3.62409
0.396413	3.61798
0.416528	3.61263
0.436633	3.87324
0.462496	3.86636
0.485474	4.1262
0.511336	4.11933
0.531462	3.84802
0.571672	4.36924
0.620513	4.6222
0.660743	4.6115
0.703826	5.13196
0.74691	5.65242
0.798635	5.63866
0.835981	5.89469
0.881948	6.14842
0.930728	7.99715
0.947949	8.52448
0.97375	10.1134
0.98233	11.1749
