Adsorption isotherm of Ethene on ZIF-8
DOI: 10.1021/acs.iecr.7b01536
Article source: Figure 6
Adsorbate Ethene: InChIKey VGGSQFUCUMXWEO-UHFFFAOYSA-N
Kind: experiment
Temperature: 323 K
Tabular data in the source: 0
pressure (bar)	uptake (mmol/g)
0.001449	0.05093
0.105489	0.14928
0.205355	0.24933
0.310217	0.34372
0.41291	0.44094
0.515238	0.53494
0.61786	0.63312
0.720775	0.72695
0.82591	0.81737
0.927154	0.91346
1.01394	0.9892
