Adsorption isotherm of Ethane on ZIF-8
DOI: 10.1021/acs.iecr.7b01536
Article source: Figure 6
Adsorbate Ethane: InChIKey OTMSDBZUPAUEDD-UHFFFAOYSA-N
Kind: experiment
Temperature: 348 K
Tabular data in the source: 0
pressure (bar)	uptake (mmol/g)
0.003871	0.0116
0.10173	0.0919
0.206308	0.1726
0.313631	0.2556
0.415453	0.3363
0.517598	0.4136
0.619096	0.5
0.723227	0.5746
0.826275	0.6537
0.927995	0.7243
1.0128	0.7949
