Adsorption isotherm of Ethene on ZIF-8
DOI: 10.1021/acs.iecr.7b01536
Article source: Figure 6
Adsorbate Ethene: InChIKey VGGSQFUCUMXWEO-UHFFFAOYSA-N
Kind: experiment
Temperature: 348 K
Tabular data in the source: 0
pressure (bar)	uptake (mmol/g)
-0.001327	0.05093
0.104902	0.12438
0.206926	0.17633
0.309517	0.22941
0.411005	0.29155
0.514143	0.34689
0.618123	0.4011
0.72266	0.45984
0.826082	0.51631
0.926729	0.57392
1.01681	0.62136
