Adsorption isotherm of Ethene on ZIF-8
DOI: 10.1021/acs.iecr.7b01536
Article source: Figure 6
Adsorbate Ethene: InChIKey VGGSQFUCUMXWEO-UHFFFAOYSA-N
Kind: experiment
Temperature: 373 K
Tabular data in the source: 0
pressure (bar)	uptake (mmol/g)
0.002006	0.05036
0.108468	0.09156
0.206044	0.13785
0.30973	0.18187
0.411248	0.23132
0.516302	0.26685
0.618923	0.31023
0.721535	0.34933
0.824846	0.38986
0.925705	0.42254
1.01537	0.46736
