Adsorption isotherm of Ethane on ZIF-8
DOI: 10.1021/acs.iecr.7b01536
Article source: Figure 6
Adsorbate Ethane: InChIKey OTMSDBZUPAUEDD-UHFFFAOYSA-N
Kind: experiment
Temperature: 373 K
Tabular data in the source: 0
pressure (bar)	uptake (mmol/g)
0.003871	0.0116
0.104334	0.0721
0.209733	0.137
0.313793	0.21
0.415625	0.2723
0.516595	0.3222
0.618468	0.3881
0.720573	0.4475
0.825272	0.504
0.926516	0.5647
1.01169	0.6156
