Adsorption isotherm of Ethene on ZIF-8
DOI: 10.1021/acs.iecr.7b01536
Article source: Figure 6
Adsorbate Ethene: InChIKey VGGSQFUCUMXWEO-UHFFFAOYSA-N
Kind: experiment
Temperature: 298 K
Tabular data in the source: 0
pressure (bar)	uptake (mmol/g)
-0.002037	0.04926
0.104567	0.19744
0.206966	0.3442
0.309365	0.49381
0.409687	0.66197
0.51769	0.80872
0.620109	0.97545
0.723916	1.13219
0.826346	1.30177
0.929454	1.45994
1.01645	1.60387
