Adsorption isotherm of Ethane on ZIF-8
DOI: 10.1021/acs.iecr.7b01536
Article source: Figure 6
Adsorbate Ethane: InChIKey OTMSDBZUPAUEDD-UHFFFAOYSA-N
Kind: experiment
Temperature: 298 K
Tabular data in the source: 0
pressure (bar)	uptake (mmol/g)
0.003871	0.0116
0.104932	0.1592
0.209945	0.411
0.314158	0.6672
0.41675	0.9288
0.520071	1.1915
0.620788	1.457
0.72497	1.7196
0.829153	1.9823
0.934156	2.2308
1.0199	2.4341
