Adsorption isotherm of Ethane on ZIF-8
DOI: 10.1021/acs.iecr.7b01536
Article source: Figure 6
Adsorbate Ethane: InChIKey OTMSDBZUPAUEDD-UHFFFAOYSA-N
Kind: experiment
Temperature: 323 K
Tabular data in the source: 0
pressure (bar)	uptake (mmol/g)
0.003871	0.0116
0.103787	0.1437
0.208811	0.2878
0.313834	0.4276
0.415372	0.5646
0.51694	0.71
0.619349	0.8498
0.724383	0.9925
0.827673	1.1351
0.92989	1.274
1.01664	1.3923
