Adsorption isotherm of Nitrogen on COK-15
DOI: 10.1021/Ja302089w
Adsorbate Nitrogen: InChIKey IJGRMHOSHXDMSA-UHFFFAOYSA-N
Temperature: 77 K
Tabular data in the source: 0
pressure (bar)	uptake (cm3(STP)/g)
0.00177934	12.8878
0.00533802	13.8425
0.00711736	14.7971
0.0088967	20.5251
0.010676	26.253
0.0142347	27.1122
0.0249108	27.9714
0.0373662	28.5442
0.0533802	29.0215
0.0693943	29.4988
0.0854084	29.8807
0.0978637	30.2625
0.113878	30.5489
0.131671	30.7399
0.147685	31.0263
0.165479	31.2172
0.181493	31.4081
0.199286	31.599
0.2153	31.79
0.233094	31.9809
0.250887	32.0764
0.266901	32.2673
0.284695	32.4582
0.302488	32.5537
0.318502	32.7446
0.336295	32.9356
0.352309	33.1265
0.370103	33.031
0.387896	33.1265
0.40391	33.3174
0.421704	33.5084
0.439497	33.6038
0.455511	33.7947
0.473305	33.9857
0.489319	34.1766
0.507112	34.3675
0.523126	34.5585
0.54092	34.7494
0.556934	35.0358
0.574727	35.3222
0.590741	35.6086
0.608535	35.895
0.624549	36.1814
0.642342	36.3723
0.658356	36.6587
0.676149	36.8496
0.692164	37.136
0.709957	37.327
0.725971	37.4224
0.743764	37.6134
0.763337	37.8043
0.784689	37.8998
0.807821	38.1862
0.825614	38.2816
0.855863	38.2816
0.880774	38.4726
0.898567	38.568
0.919919	38.8544
0.939492	39.2363
