Adsorption isotherm of Nitrogen on SBA-15
DOI: 10.3390/Ma6030981
Adsorbate Nitrogen: InChIKey IJGRMHOSHXDMSA-UHFFFAOYSA-N
Temperature: 77 K
Tabular data in the source: 0
pressure (bar)	uptake (cm3(STP)/g)
0.0137359	412.47
0.0323278	437.641
0.0580703	456.519
0.116706	480.116
0.205375	505.287
0.305485	530.457
0.399875	554.054
0.494264	579.225
0.55147	599.676
0.65301	634.285
0.697344	653.163
0.75741	717.663
0.830348	945.771
0.886123	983.526
0.927597	1007.12
0.973362	1046.45
0.991954	1068.48
0.991954	1099.94
