Adsorption isotherm of Nitrogen on SBA-15
DOI: 10.3390/Ma6030981
Adsorbate Nitrogen: InChIKey IJGRMHOSHXDMSA-UHFFFAOYSA-N
Temperature: 77 K
Tabular data in the source: 0
pressure (bar)	uptake (cm3(STP)/g)
0.00944547	126.156
0.0609306	170.204
0.0995445	190.655
0.145309	203.24
0.206805	220.545
0.302625	240.996
0.402735	267.74
0.507135	294.483
0.608675	330.666
0.647289	341.678
0.703065	368.422
0.75455	484.836
0.821767	637.432
0.85323	654.737
0.897564	676.761
0.95191	706.651
0.987663	736.541
0.993384	786.882
