Adsorption isotherm of Nitrogen on COF-HNU7
DOI: 10.1002/chem.202100671
Article source: Figure 2f
Adsorbate Nitrogen: InChIKey IJGRMHOSHXDMSA-UHFFFAOYSA-N
Kind: experiment
Temperature: 77 K
Tabular data in the source: 0
pressure (bar)	uptake (cm3(STP)/g)
0.449593	95.4216
0.507622	99.6042
0.554478	102.6
0.612147	106.316
0.659003	109.012
0.714869	112.282
0.759923	115.244
0.012686	36.7895
0.036966	44.863
0.064889	50.9988
0.098881	55.8428
0.120734	59.3951
0.164438	62.9475
0.191147	65.8539
0.248206	73.2815
0.302837	79.4173
0.357468	85.5531
0.404814	90.0742
0.812725	122.691
0.833363	124.306
0.857644	128.504
0.885566	130.441
0.913489	136.577
0.937769	143.036
0.964477	152.078
0.993614	167.256
0.999684	175.976
1.00697	187.924
1.00575	202.779
0.9924	194.706
0.983902	185.341
0.966906	165.642
0.938983	151.109
0.919559	144.974
0.885566	138.192
0.867356	133.994
0.832149	128.827
0.815153	126.243
0.760522	121.399
0.710747	117.847
0.65733	113.972
0.6027	111.065
0.557781	107.19
0.50922	104.929
0.444877	102.992
0.410884	93.6265
0.341685	84.2613
0.310121	80.3861
0.254276	74.5732
0.205715	68.1145
0.140158	60.041
0.083099	52.2905
