Adsorption isotherm of Nitrogen on COF-HNU6
DOI: 10.1002/chem.202100671
Article source: Figure 2f
Adsorbate Nitrogen: InChIKey IJGRMHOSHXDMSA-UHFFFAOYSA-N
Kind: experiment
Temperature: 77 K
Tabular data in the source: 0
pressure (bar)	uptake (cm3(STP)/g)
0.007828	65.3883
0.029454	75.6151
0.258927	100.263
0.302178	102.121
0.359847	103.439
0.403098	104.937
0.464011	107.023
0.503761	109.954
0.568895	112.248
0.621158	114.405
0.675222	114.405
0.810383	116.502
0.839217	119.019
0.868051	121.656
0.98814	149.051
1.00862	166.045
0.704677	115.586
0.755666	114.617
0.891636	123.66
0.911061	125.274
0.936555	130.764
0.959621	137.546
0.067317	85.2301
0.094025	89.1054
0.11345	91.043
0.142586	93.6265
0.16201	95.2412
0.181435	96.8559
0.203287	97.5018
1.0009	156.922
1.01061	176.621
0.975404	156.922
0.960835	145.942
0.943839	140.452
0.925629	134.317
0.890422	128.827
0.875854	126.243
0.851574	124.306
0.821223	122.691
0.754452	122.691
0.711961	121.722
0.654902	118.493
0.607556	118.17
0.558995	116.232
0.511648	115.263
0.452161	110.742
0.398744	110.419
0.353826	109.128
0.308907	108.482
0.25549	106.221
0.203287	103.638
0.1438	100.731
0.080671	92.0118
