Adsorption isotherm of Nitrogen on COF-HNU6 (after 6 cycles)
DOI: 10.1002/chem.202100671
Article source: Figure S28
Adsorbate Nitrogen: InChIKey IJGRMHOSHXDMSA-UHFFFAOYSA-N
Kind: experiment
Temperature: 77 K
Tabular data in the source: 0
pressure (bar)	uptake (cm3(STP)/g)
0.004454	5.37733
0.025029	7.4755
0.046344	8.76611
0.067659	9.54727
0.088973	10.3029
0.131603	11.5171
0.152918	11.7888
0.174233	12.7058
0.195548	13.2119
0.216863	13.7757
0.238178	14.2002
0.259493	14.7436
0.280808	15.3889
0.30227	15.5814
0.344752	17.0701
0.443334	20.0419
0.496621	21.6722
0.544579	23.7915
0.595202	25.2609
0.64849	27.805
0.696448	30.3498
0.747071	33.1314
0.800358	36.1745
0.848317	39.9784
0.946898	56.6543
0.981535	77.9833
0.991748	101.949
0.902058	45.5069
0.398378	17.8723
0.497133	23.9585
0.547749	26.3832
0.59823	28.7517
0.647868	30.4045
0.704334	34.6748
0.756818	38.1481
0.811297	42.9634
0.858974	49.4541
0.909878	61.542
0.933576	73.0246
0.957919	89.6666
0.974874	106.163
1.00374	135.487
0.45287	23.2791
0.401324	21.7772
0.342414	20.2753
0.298231	18.4731
0.242267	16.9712
0.202503	15.4693
0.148011	15.169
0.106774	13.6671
