Adsorption isotherm of Hydrogen on BR-Zeolite 4a
DOI: 10.1007/s10450-019-00086-6
Article source: Figure 2d
Adsorbate Hydrogen: InChIKey UFHFLCQGNIYNRP-UHFFFAOYSA-N
Kind: experiment
Temperature: 298 K
Tabular data in the source: 0
pressure (bar)	uptake (mmol/g)
0.024272	0.0006
0.072816	0.0009
0.101942	0.0017
0.150485	0.0025
0.179612	0.004
0.218447	0.0047
0.257282	0.0055
0.281553	0.0064
0.320388	0.0075
0.354369	0.0085
0.38835	0.0096
0.42233	0.0108
0.461165	0.0119
0.490291	0.0128
0.529126	0.0138
0.563107	0.0153
0.597087	0.0164
0.631068	0.0175
0.665049	0.0187
0.699029	0.0196
0.73301	0.0206
0.762136	0.0217
0.800971	0.0228
0.834951	0.0242
0.873786	0.0253
0.902913	0.0266
0.936893	0.0277
0.970874	0.0291
1.00485	0.0308
1.03884	0.0319
1.07282	0.0332
