Adsorption isotherm of Carbon Dioxide on BR-Zeolite 4a
DOI: 10.1007/s10450-019-00086-6
Article source: Figure 2a
Adsorbate Carbon Dioxide: InChIKey CURLTUGMZLYLDI-UHFFFAOYSA-N
Kind: experiment
Temperature: 308 K
Tabular data in the source: 0
pressure (bar)	uptake (mmol/g)
0	0.117
0.00422	0.291
0.00844	0.447
0.01266	0.621
0.0211	0.835
0.02954	1.068
0.03797	1.301
0.05063	1.515
0.06329	1.728
0.08861	1.981
0.10549	2.155
0.13502	2.33
0.16034	2.485
0.19831	2.602
0.24895	2.699
0.29114	2.777
0.34177	2.854
0.39241	2.932
0.44726	2.971
0.50211	3.01
0.55696	3.068
0.61181	3.107
0.67089	3.146
0.72574	3.184
0.78481	3.223
0.84388	3.262
0.90295	3.282
0.96203	3.32
1.02532	3.34
