Adsorption isotherm of Hydrogen on BR-Zeolite 4a
DOI: 10.1007/s10450-019-00086-6
Article source: Figure 2d
Adsorbate Hydrogen: InChIKey UFHFLCQGNIYNRP-UHFFFAOYSA-N
Kind: experiment
Temperature: 288 K
Tabular data in the source: 0
pressure (bar)	uptake (mmol/g)
0.024272	0.0006
0.063107	0.0013
0.11165	0.0025
0.150485	0.0036
0.179612	0.0043
0.208738	0.0055
0.237864	0.0066
0.276699	0.0079
0.315534	0.0089
0.334951	0.0104
0.373786	0.0115
0.412621	0.013
0.451456	0.0145
0.490291	0.0153
0.509709	0.0168
0.548544	0.0183
0.587379	0.0198
0.616505	0.0209
0.665049	0.0225
0.694175	0.024
0.728155	0.0253
0.762136	0.0274
0.800971	0.0285
0.830097	0.03
0.868932	0.0313
0.898058	0.0326
0.932039	0.034
0.966019	0.0353
1	0.0368
1.02913	0.0383
1.07282	0.0402
1.10194	0.0415
