Adsorption isotherm of Methane on BR-Zeolite 4a
DOI: 10.1007/s10450-019-00086-6
Article source: Figure 2b
Adsorbate Methane: InChIKey VNWKTOKETHGBQD-UHFFFAOYSA-N
Kind: experiment
Temperature: 298 K
Tabular data in the source: 0
pressure (bar)	uptake (mmol/g)
0.00455	0.013
0.06818	0.047
0.11364	0.081
0.16818	0.115
0.21364	0.15
0.25909	0.175
0.31364	0.218
0.36818	0.252
0.43182	0.286
0.47727	0.321
0.54091	0.359
0.6	0.393
0.65909	0.432
0.71818	0.466
0.78182	0.5
0.84091	0.526
0.9	0.568
0.95455	0.594
1.00455	0.628
1.04545	0.645
