Adsorption isotherm of Carbon Dioxide on BR-Zeolite 4a
DOI: 10.1007/s10450-019-00086-6
Article source: Figure 2a
Adsorbate Carbon Dioxide: InChIKey CURLTUGMZLYLDI-UHFFFAOYSA-N
Kind: experiment
Temperature: 288 K
Tabular data in the source: 0
pressure (bar)	uptake (mmol/g)
0.00422	0.136
0.00422	0.369
0.00422	0.68
0.00422	0.99
0.01266	1.262
0.01266	1.456
0.0211	1.689
0.03376	1.903
0.04219	2.136
0.05907	2.35
0.08017	2.563
0.10549	2.738
0.13924	2.893
0.18143	3.049
0.22363	3.165
0.26582	3.243
0.30802	3.32
0.36287	3.398
0.4135	3.476
0.46835	3.515
0.51899	3.592
0.56962	3.65
0.62869	3.689
0.68776	3.728
0.74262	3.767
0.79747	3.786
0.86076	3.825
0.91983	3.864
0.9789	3.883
1.04219	3.903
