Adsorption isotherm of Methane on BR-Zeolite 4a
DOI: 10.1007/s10450-019-00086-6
Article source: Figure 2b
Adsorbate Methane: InChIKey VNWKTOKETHGBQD-UHFFFAOYSA-N
Kind: experiment
Temperature: 288 K
Tabular data in the source: 0
pressure (bar)	uptake (mmol/g)
0.02273	0.013
0.05909	0.064
0.11818	0.115
0.16818	0.15
0.21364	0.201
0.25909	0.252
0.31364	0.303
0.38636	0.355
0.44091	0.397
0.49545	0.44
0.55	0.483
0.60455	0.526
0.64091	0.556
0.70455	0.594
0.75455	0.637
0.82273	0.688
0.87727	0.722
0.93182	0.756
0.96818	0.782
1.00455	0.808
1.04545	0.838
