Adsorption isotherm of Hydrogen on BR-Zeolite 4a
DOI: 10.1007/s10450-019-00086-6
Article source: Figure 2d
Adsorbate Hydrogen: InChIKey UFHFLCQGNIYNRP-UHFFFAOYSA-N
Kind: experiment
Temperature: 308 K
Tabular data in the source: 0
pressure (bar)	uptake (mmol/g)
0.004854	0.0002
0.063107	0.0009
0.11165	0.0017
0.150485	0.0025
0.18932	0.0032
0.218447	0.004
0.257282	0.0051
0.286408	0.006
0.315534	0.007
0.354369	0.0081
0.393204	0.0089
0.42233	0.0096
0.461165	0.0108
0.490291	0.0111
0.529126	0.0123
0.567961	0.0134
0.601942	0.0145
0.635922	0.0155
0.665049	0.0164
0.703883	0.0175
0.742718	0.0187
0.776699	0.0194
0.81068	0.0206
0.84466	0.0215
0.878641	0.0228
0.907767	0.0232
0.946602	0.0243
0.975728	0.0258
1.01456	0.027
1.04854	0.0281
1.08252	0.0291
