Adsorption isotherm of Nitrogen on BR-Zeolite 4a
DOI: 10.1007/s10450-019-00086-6
Article source: Figure 2c
Adsorbate Nitrogen: InChIKey IJGRMHOSHXDMSA-UHFFFAOYSA-N
Kind: experiment
Temperature: 308 K
Tabular data in the source: 0
pressure (bar)	uptake (mmol/g)
0.01778	0.006
0.07111	0.018
0.11556	0.037
0.16	0.045
0.22222	0.061
0.26667	0.076
0.32	0.084
0.37333	0.1
0.43111	0.12
0.49778	0.139
0.56	0.153
0.62222	0.169
0.68889	0.188
0.75111	0.202
0.81333	0.22
0.88	0.235
0.93778	0.251
0.99556	0.267
1.04889	0.276
