Adsorption isotherm of Methane on BR-Zeolite 4a
DOI: 10.1007/s10450-019-00086-6
Article source: Figure 2b
Adsorbate Methane: InChIKey VNWKTOKETHGBQD-UHFFFAOYSA-N
Kind: experiment
Temperature: 308 K
Tabular data in the source: 0
pressure (bar)	uptake (mmol/g)
0.02273	0.004
0.07727	0.03
0.13182	0.064
0.16818	0.098
0.23636	0.124
0.29545	0.158
0.35455	0.184
0.41364	0.218
0.47273	0.244
0.53636	0.274
0.59545	0.303
0.65	0.329
0.71364	0.363
0.77273	0.389
0.83636	0.415
0.89545	0.44
0.95455	0.47
1.01364	0.491
1.05	0.509
