Adsorption isotherm of Carbon Dioxide on BR-Zeolite 4a
DOI: 10.1007/s10450-019-00086-6
Article source: Figure 2a
Adsorbate Carbon Dioxide: InChIKey CURLTUGMZLYLDI-UHFFFAOYSA-N
Kind: experiment
Temperature: 298 K
Tabular data in the source: 0
pressure (bar)	uptake (mmol/g)
0.00422	0.097
0.00422	0.252
0.00422	0.447
0.01266	0.66
0.0211	0.835
0.02532	1.01
0.02954	1.184
0.03376	1.359
0.04641	1.553
0.05907	1.767
0.08017	2
0.10127	2.155
0.11814	2.35
0.13924	2.505
0.173	2.641
0.21097	2.796
0.24895	2.874
0.29536	2.971
0.34599	3.029
0.39662	3.107
0.44726	3.165
0.50211	3.223
0.55696	3.282
0.61181	3.32
0.66667	3.359
0.72574	3.398
0.78481	3.437
0.84388	3.456
0.90295	3.495
0.96203	3.534
1.02532	3.57282
