Adsorption isotherm of Nitrogen on BR-Zeolite 4a
DOI: 10.1007/s10450-019-00086-6
Article source: Figure 2c
Adsorbate Nitrogen: InChIKey IJGRMHOSHXDMSA-UHFFFAOYSA-N
Kind: experiment
Temperature: 298 K
Tabular data in the source: 0
pressure (bar)	uptake (mmol/g)
0.01778	0.006
0.07111	0.022
0.12444	0.045
0.16889	0.061
0.21333	0.076
0.26667	0.096
0.32	0.116
0.35556	0.127
0.40889	0.147
0.46222	0.163
0.49778	0.178
0.54667	0.192
0.60444	0.21
0.64889	0.225
0.70222	0.245
0.77333	0.267
0.83556	0.288
0.88889	0.304
0.96	0.325
1.00444	0.341
1.04889	0.355
