Adsorption isotherm of Nitrogen on BR-Zeolite 4a
DOI: 10.1007/s10450-019-00086-6
Article source: Figure 2c
Adsorbate Nitrogen: InChIKey IJGRMHOSHXDMSA-UHFFFAOYSA-N
Kind: experiment
Temperature: 288 K
Tabular data in the source: 0
pressure (bar)	uptake (mmol/g)
0.01778	0.006
0.07111	0.033
0.11556	0.053
0.14667	0.071
0.18667	0.088
0.21333	0.102
0.24889	0.116
0.28444	0.131
0.30222	0.147
0.33778	0.163
0.36444	0.171
0.39111	0.182
0.42667	0.194
0.45333	0.21
0.48	0.222
0.51556	0.233
0.54222	0.249
0.56889	0.265
0.60444	0.275
0.64	0.288
0.66667	0.3
0.69333	0.312
0.72	0.324
0.75556	0.337
0.79111	0.347
0.81778	0.363
0.84444	0.375
0.87556	0.384
0.90667	0.394
0.93778	0.408
0.96889	0.42
0.99556	0.433
1.02667	0.443
