Adsorption isotherm of Hydrogen on MOF-177
DOI: 10.1016/j.ijhydene.2010.09.057
Adsorbate Hydrogen: InChIKey UFHFLCQGNIYNRP-UHFFFAOYSA-N
Temperature: 298 K
Tabular data in the source: 0
pressure (bar)	uptake (wt%)
2.88759	0.019943
4.33133	0.019943
5.86011	0.039886
7.21929	0.0997151
7.43136	0.0598291
8.91756	0.0598291
10.4888	0.0797721
12.0601	0.0997151
12.697	0.0997151
13.5887	0.0997151
15.1598	0.0997151
16.7312	0.139601
17.7501	0.0997151
18.4297	0.139601
18.7272	0.179487
19.7889	0.19943
