Adsorption isotherm of Hydrogen on Carbon AX-21_33
DOI: 10.1016/j.ijhydene.2010.09.057
Adsorbate Hydrogen: InChIKey UFHFLCQGNIYNRP-UHFFFAOYSA-N
Temperature: 77 K
Tabular data in the source: 0
pressure (bar)	uptake (wt%)
0.0877082	0.458689
0.219936	1.25641
0.436726	1.9943
0.651097	2.33333
1.03544	2.69231
1.24921	2.93162
1.71787	3.19088
2.22888	3.4302
2.82493	3.68946
3.5053	3.849
4.1858	4.02849
5.20599	4.20798
5.71603	4.28775
6.05622	4.36752
6.48085	4.36752
8.47805	4.60684
9.92251	4.7265
11.5368	4.84615
11.9191	4.8661
12.8962	4.94587
13.321	4.96581
14.9775	5.04558
15.6147	5.08547
16.5067	5.12536
17.0162	5.12536
17.9508	5.18519
18.5877	5.18519
19.1824	5.22507
19.862	5.24501
