Adsorption isotherm of Hydrogen on MOF-177
DOI: 10.1016/j.ijhydene.2010.09.057
Adsorbate Hydrogen: InChIKey UFHFLCQGNIYNRP-UHFFFAOYSA-N
Temperature: 87 K
Tabular data in the source: 0
pressure (bar)	uptake (wt%)
0.17303	0.221264
0.776479	0.643678
1.2936	0.985632
1.93947	1.32759
2.45585	1.54885
3.10148	1.85057
3.66077	2.07184
4.22019	2.31322
4.82228	2.51437
5.42413	2.67529
6.15522	2.91667
6.80011	3.0977
7.48804	3.29885
8.51956	3.54023
9.20712	3.68103
9.98064	3.84195
10.7971	4.00287
11.6993	4.16379
12.4298	4.3046
13.0745	4.4454
13.9336	4.56609
14.7499	4.7069
15.5662	4.8477
16.7689	5.00862
17.585	5.1092
18.401	5.20977
19.0453	5.29023
19.9903	5.41092
