Adsorption isotherm of Hydrogen on MOF-177
DOI: 10.1016/j.ijhydene.2010.09.057
Adsorbate Hydrogen: InChIKey UFHFLCQGNIYNRP-UHFFFAOYSA-N
Temperature: 87 K
Tabular data in the source: 0
pressure (bar)	uptake (wt%)
0.127932	0.137931
0.639659	0.551724
1.15139	0.988506
1.7484	1.35632
2.51599	1.77011
3.19829	2.11494
3.71002	2.32184
4.30704	2.62069
4.81876	2.85057
5.50107	3.10345
6.05544	3.33333
6.60981	3.51724
7.29211	3.74713
8.0597	4
8.91258	4.22989
9.8081	4.48276
10.6183	4.71264
11.6418	4.89655
12.58	5.17241
13.6034	5.33333
15.2239	5.72414
17.4414	6.13793
18.209	6.27586
18.8486	6.41379
20	6.57471
