Adsorption isotherm of Hydrogen on MOF-177
DOI: 10.1016/j.ijhydene.2010.09.057
Adsorbate Hydrogen: InChIKey UFHFLCQGNIYNRP-UHFFFAOYSA-N
Temperature: 298 K
Tabular data in the source: 0
pressure (bar)	uptake (wt%)
2.85714	0.091954
4.39232	0.114943
6.01279	0.16092
7.46269	0.206897
10.533	0.321839
12.0682	0.344828
12.6652	0.390805
13.6034	0.45977
15.1812	0.482759
16.7591	0.528736
17.7825	0.574713
18.4648	0.62069
18.7207	0.62069
19.8294	0.666667
