Adsorption isotherm of Hydrogen on Carbon AX-21_33
DOI: 10.1016/j.ijhydene.2010.09.057
Adsorbate Hydrogen: InChIKey UFHFLCQGNIYNRP-UHFFFAOYSA-N
Temperature: 77 K
Tabular data in the source: 0
pressure (bar)	uptake (wt%)
0.21322	1.26437
0.469083	2.04598
0.639659	2.34483
1.15139	2.96552
1.57783	3.28736
2.00426	3.6092
2.30277	3.74713
2.60128	3.90805
3.02772	4.09195
3.32623	4.2069
3.71002	4.32184
4.05117	4.43678
4.60554	4.62069
5.07463	4.68966
5.58635	4.85057
6.01279	4.94253
6.3113	5.03448
9.08316	5.51724
9.63753	5.63218
10.0213	5.74713
11.5139	5.97701
12.1109	6.06897
13.0064	6.18391
13.3475	6.27586
15.1386	6.48276
15.6077	6.57471
16.3326	6.66667
16.887	6.73563
17.8678	6.87356
18.3369	6.91954
19.0618	7.01149
19.4456	7.05747
19.9147	7.10345
