Adsorption isotherm of Hydrogen on MOF-177
DOI: 10.1016/j.ijhydene.2010.09.057
Adsorbate Hydrogen: InChIKey UFHFLCQGNIYNRP-UHFFFAOYSA-N
Temperature: 87 K
Tabular data in the source: 0
pressure (bar)	uptake (wt%)
0.213403	0.179487
0.512216	0.438746
0.895954	0.698006
1.36498	1.01709
1.83364	1.27635
2.38711	1.51567
2.9407	1.77493
3.409	1.97436
3.7919	2.09402
4.17503	2.25356
4.68531	2.37322
5.02598	2.53276
5.57896	2.69231
6.04678	2.81197
6.55718	2.95157
7.15251	3.09117
7.66291	3.23077
8.25824	3.37037
8.85356	3.50997
9.53394	3.66952
10.4264	3.78917
11.1491	3.92877
11.9142	4.04843
12.8068	4.20798
13.6993	4.32764
14.4645	4.46724
15.1445	4.56695
15.9515	4.60684
16.844	4.7265
17.6512	4.80627
18.6286	4.92593
20.0307	5.06553
