Adsorption isotherm of Hydrogen on Carbon AX-21_33
DOI: 10.1016/j.ijhydene.2010.09.057
Adsorbate Hydrogen: InChIKey UFHFLCQGNIYNRP-UHFFFAOYSA-N
Temperature: 87 K
Tabular data in the source: 0
pressure (bar)	uptake (wt%)
0.383795	1.08046
0.767591	1.63218
0.938166	1.95402
1.44989	2.3908
1.96162	2.68966
2.47335	2.96552
3.62473	3.47126
4.43497	3.74713
5.07463	3.93103
5.97015	4.16092
6.90832	4.3908
7.97441	4.57471
8.99787	4.75862
9.85075	4.94253
10.2772	5.03448
11.1727	5.17241
11.7271	5.24138
12.58	5.33333
15.9488	5.83908
17.3134	6.04598
18.7633	6.18391
20.0426	6.29885
