Adsorption isotherm of Hydrogen on MOF-177
DOI: 10.1016/j.ijhydene.2010.09.057
Adsorbate Hydrogen: InChIKey UFHFLCQGNIYNRP-UHFFFAOYSA-N
Temperature: 77 K
Tabular data in the source: 0
pressure (bar)	uptake (wt%)
0.0874402	0.261494
0.347048	0.603448
0.64982	0.985632
0.952099	1.28736
1.2973	1.58908
1.64262	1.91092
2.07353	2.19253
2.59028	2.47414
3.06423	2.77586
3.62414	3.0977
4.31244	3.3592
4.69994	3.56034
5.2162	3.76149
5.86145	4.00287
6.29162	4.16379
6.9798	4.40517
7.62469	4.58621
8.31261	4.78736
9.17209	4.96839
9.81686	5.12931
10.5906	5.33046
11.493	5.51149
12.739	5.73276
13.5984	5.89368
14.6294	6.0546
15.7032	6.1954
16.6054	6.33621
17.4645	6.4569
18.1946	6.53736
18.9248	6.63793
19.8695	6.71839
