Adsorption isotherm of Hydrogen on Carbon AX-21_33
DOI: 10.1016/j.ijhydene.2010.09.057
Adsorbate Hydrogen: InChIKey UFHFLCQGNIYNRP-UHFFFAOYSA-N
Temperature: 77 K
Tabular data in the source: 0
pressure (bar)	uptake (wt%)
0.179197	1.22701
0.441394	1.99138
0.571999	2.2931
1.13352	2.87644
1.5643	3.13793
2.08105	3.41954
2.59743	3.6408
3.41436	3.88218
3.97341	4.06322
5.09077	4.3046
5.73504	4.38506
6.46552	4.52586
7.32438	4.60632
9.47203	4.88793
10.1161	4.92816
11.4474	5.06897
12.1346	5.14943
12.9933	5.20977
13.3369	5.25
15.6555	5.41092
16.3855	5.47126
16.8579	5.53161
17.9742	5.59195
18.5752	5.61207
19.1334	5.6523
19.563	5.73276
19.8206	5.73276
20.0779	5.71264
