Adsorption isotherm of Hydrogen on Carbon AX-21_33
DOI: 10.1016/j.ijhydene.2010.09.057
Adsorbate Hydrogen: InChIKey UFHFLCQGNIYNRP-UHFFFAOYSA-N
Temperature: 87 K
Tabular data in the source: 0
pressure (bar)	uptake (wt%)
0.393542	1.18678
0.523531	1.38793
0.696192	1.54885
0.91251	1.83046
1.12809	1.99138
1.30075	2.1523
1.559	2.27299
1.81774	2.47414
2.076	2.59483
2.29133	2.71552
2.59237	2.81609
2.8505	2.91667
3.58135	3.11782
4.39815	3.33908
5.0428	3.47989
5.55843	3.58046
6.03115	3.68103
6.54642	3.72126
7.01889	3.78161
7.49149	3.86207
8.04992	3.94253
8.65115	4.00287
9.12362	4.06322
9.72485	4.12356
10.1543	4.16379
10.5836	4.18391
11.1848	4.24425
11.6143	4.28448
13.1601	4.40517
13.8469	4.42529
15.2209	4.52586
15.6932	4.56609
16.2512	4.56609
17.5395	4.68678
17.8828	4.68678
18.7413	4.7069
19.1706	4.72701
20.0723	4.78736
