Adsorption isotherm of Hydrogen on MOF-177
DOI: 10.1016/j.ijhydene.2010.09.057
Adsorbate Hydrogen: InChIKey UFHFLCQGNIYNRP-UHFFFAOYSA-N
Temperature: 77 K
Tabular data in the source: 0
pressure (bar)	uptake (wt%)
0.129566	0.358974
0.385674	0.578348
0.59944	0.817664
0.728401	1.07692
1.11274	1.4359
1.58201	1.79487
2.00882	2.15385
2.60548	2.51282
3.20201	2.85185
3.45776	3.0114
4.18144	3.31054
4.86266	3.60969
5.3306	3.74929
6.18155	4.02849
6.77712	4.20798
7.28752	4.34758
7.96813	4.54701
8.60592	4.68661
9.45639	4.88604
10.0516	5.0057
10.6469	5.1453
11.4544	5.26496
12.7295	5.46439
13.707	5.60399
14.5994	5.7037
15.4492	5.80342
16.2142	5.90313
16.8939	5.96296
17.8286	6.04274
18.721	6.16239
19.4007	6.20228
19.9105	6.24217
