Adsorption isotherm of Hydrogen on Carbon AX-21_33
DOI: 10.1016/j.ijhydene.2010.09.057
Adsorbate Hydrogen: InChIKey UFHFLCQGNIYNRP-UHFFFAOYSA-N
Temperature: 298 K
Tabular data in the source: 0
pressure (bar)	uptake (wt%)
0.938166	0.0229885
1.57783	0.0689655
2.72921	0.114943
3.28358	0.114943
3.92324	0.137931
4.5629	0.183908
5.07463	0.206897
6.09808	0.252874
7.16418	0.298851
7.80384	0.321839
8.86994	0.367816
9.93603	0.367816
12.1109	0.436782
12.58	0.482759
13.4755	0.528736
14.0299	0.528736
14.6269	0.551724
15.1386	0.551724
15.565	0.574713
16.1194	0.597701
16.5032	0.597701
16.9296	0.62069
17.5693	0.666667
17.9104	0.666667
18.2516	0.666667
18.8913	0.689655
19.403	0.712644
19.7015	0.712644
