Adsorption isotherm of Hydrogen on Carbon AX-21_33
DOI: 10.1016/j.ijhydene.2010.09.057
Adsorbate Hydrogen: InChIKey UFHFLCQGNIYNRP-UHFFFAOYSA-N
Temperature: 87 K
Tabular data in the source: 0
pressure (bar)	uptake (wt%)
0.474713	1.25641
1.07331	1.93447
1.41446	2.17379
1.92583	2.47293
2.3092	2.67236
2.86243	2.87179
3.50083	3.11111
4.43634	3.33048
5.07413	3.47009
5.58429	3.5698
6.05174	3.62963
6.56178	3.7094
7.02911	3.74929
7.66642	3.80912
7.92144	3.849
8.68649	3.96866
9.11124	3.9886
9.79101	4.04843
10.131	4.08832
10.7681	4.12821
11.1505	4.16809
11.6603	4.20798
12.0851	4.22792
12.6372	4.24786
13.6142	4.30769
14.9311	4.38746
15.3132	4.38746
15.6958	4.44729
16.2478	4.44729
17.0124	4.48718
17.5646	4.52707
17.8619	4.52707
18.7538	4.56695
19.1784	4.56695
19.7307	4.60684
20.1129	4.60684
