Adsorption isotherm of Hydrogen on Carbon AX-21_33
DOI: 10.1016/j.ijhydene.2010.09.057
Adsorbate Hydrogen: InChIKey UFHFLCQGNIYNRP-UHFFFAOYSA-N
Temperature: 298 K
Tabular data in the source: 0
pressure (bar)	uptake (wt%)
2.08104	0.0598291
3.86448	0.0598291
5.0111	0.0797721
5.64792	0.0598291
6.70961	0.0797721
7.81389	0.119658
8.19605	0.119658
9.21504	0.0997151
9.38489	0.0997151
9.93703	0.119658
11.0411	0.119658
11.5506	0.119658
12.9096	0.139601
13.2493	0.139601
13.8436	0.119658
14.0985	0.139601
14.6931	0.159544
15.5	0.179487
16.052	0.179487
16.5616	0.179487
17.496	0.219373
18.2602	0.19943
19.3645	0.239316
20.0013	0.219373
