Adsorption isotherm of Hydrogen on MOF-177
DOI: 10.1016/j.ijhydene.2010.09.057
Adsorbate Hydrogen: InChIKey UFHFLCQGNIYNRP-UHFFFAOYSA-N
Temperature: 77 K
Tabular data in the source: 0
pressure (bar)	uptake (wt%)
0.383795	0.62069
0.767591	1.12644
1.10874	1.54023
1.57783	1.93103
2.00426	2.27586
2.60128	2.73563
3.15565	3.10345
3.75267	3.47126
4.34968	3.81609
4.90405	4.06897
5.37313	4.25287
5.92751	4.48276
6.39659	4.68966
7.03625	4.89655
7.59062	5.14943
7.97441	5.31034
10.0213	5.86207
10.7036	6.04598
11.0448	6.13793
11.258	6.18391
12.0682	6.3908
12.8785	6.5977
14.1578	6.85057
14.9254	7.01149
15.9915	7.24138
16.8017	7.37931
17.6546	7.51724
18.3369	7.63218
19.1045	7.74713
19.9574	7.88506
