Adsorption isotherm of Arsenate, Water on polymer amines grafted oil palm empty fruit bunch fibers
DOI: 10.17576/jsm-2017-4601-20
Article source: Figure 3
Adsorbate Arsenate: InChIKey HAYXDMNJJFVXCI-UHFFFAOYSA-N
Adsorbate Water: InChIKey XLYOFNOQVPJJNP-UHFFFAOYSA-N
Kind: experiment
Temperature: 293 K
Tabular data in the source: 0
pressure (bar)	Arsenate fraction	Arsenate uptake (mmol/g)	Water fraction	Water uptake (mmol/g)	total uptake (mmol/g)
1.01325	0.00435	0.00215			
1.01325	0.05306	0.05901			
1.01325	0.09423	0.11689			
1.01325	0.18643	0.2226			
1.01325	0.28499	0.31828			
1.01325	0.39279	0.33932			
1.01325	0.71067	0.42063			
