Adsorption isotherm of Copper(II) Ion, Water on carboxylic acid grafted oil palm empty fruit bunch fibers
DOI: 10.17576/jsm-2017-4601-20
Article source: Figure 3
Adsorbate Copper(II) Ion: InChIKey JPVYNHNXODAKFH-UHFFFAOYSA-N
Adsorbate Water: InChIKey XLYOFNOQVPJJNP-UHFFFAOYSA-N
Kind: experiment
Temperature: 293 K
Tabular data in the source: 0
pressure (bar)	Copper(II) Ion fraction	Copper(II) Ion uptake (mmol/g)	Water fraction	Water uptake (mmol/g)	total uptake (mmol/g)
1.01325	0.00087	0.0012			
1.01325	0.02658	0.04123			
1.01325	0.05953	0.10207			
1.01325	0.20716	0.25456			
1.01325	0.29729	0.32619			
1.01325	0.38828	0.39923			
1.01325	0.98183	0.64427			
