Adsorption isotherm of Copper(II) Ion, Water on carboxylic acid grafted oil palm empty fruit bunch fibers
DOI: 10.17576/jsm-2017-4601-20
Article source: Figure 3
Adsorbate Copper(II) Ion: InChIKey JPVYNHNXODAKFH-UHFFFAOYSA-N
Adsorbate Water: InChIKey XLYOFNOQVPJJNP-UHFFFAOYSA-N
Kind: experiment
Temperature: 333 K
Tabular data in the source: 0
pressure (bar)	Copper(II) Ion fraction	Copper(II) Ion uptake (mmol/g)	Water fraction	Water uptake (mmol/g)	total uptake (mmol/g)
1.01325	0.00087	0.0012			
1.01325	0.03929	0.03642			
1.01325	0.09071	0.09165			
1.01325	0.24614	0.24094			
1.01325	0.4379	0.26991			
1.01325	0.47201	0.34556			
1.01325	1.18278	0.56555			
