Adsorption isotherm of Ni(II), Water on carboxylic acid grafted oil palm empty fruit bunch fibers
DOI: 10.17576/jsm-2017-4601-20
Article source: Figure 3
Adsorbate Ni(II): InChIKey VEQPNABPJHWNSG-UHFFFAOYSA-N
Adsorbate Water: InChIKey XLYOFNOQVPJJNP-UHFFFAOYSA-N
Kind: experiment
Temperature: 333 K
Tabular data in the source: 0
pressure (bar)	Ni(II) fraction	Ni(II) uptake (mmol/g)	Water fraction	Water uptake (mmol/g)	total uptake (mmol/g)
1.01325	0.00084	0.000116			
1.01325	0.14144	0.019541			
1.01325	0.30341	0.032335			
1.01325	0.48758	0.03911			
1.01325	0.82277	0.048095			
1.01325	1.39788	0.055045			
1.01325	1.9461	0.051149			
