Adsorption isotherm of Copper(II) Ion, Water on carboxylic acid grafted oil palm empty fruit bunch fibers
DOI: 10.17576/jsm-2017-4601-20
Article source: Figure 3
Adsorbate Copper(II) Ion: InChIKey JPVYNHNXODAKFH-UHFFFAOYSA-N
Adsorbate Water: InChIKey XLYOFNOQVPJJNP-UHFFFAOYSA-N
Kind: experiment
Temperature: 313 K
Tabular data in the source: 0
pressure (bar)	Copper(II) Ion fraction	Copper(II) Ion uptake (mmol/g)	Water fraction	Water uptake (mmol/g)	total uptake (mmol/g)
1.01325	0.00087	0.0012			
1.01325	0.02543	0.04223			
1.01325	0.06155	0.10067			
1.01325	0.24239	0.24294			
1.01325	0.34724	0.30716			
1.01325	0.41571	0.38721			
1.01325	1.02225	0.62845			
