Adsorption isotherm of Mo(VI), Water on polymer amines grafted oil palm empty fruit bunch fibers
DOI: 10.17576/jsm-2017-4601-20
Article source: Figure 3
Adsorbate Mo(VI): InChIKey HCNGUXXTNNIKCQ-UHFFFAOYSA-N
Adsorbate Water: InChIKey XLYOFNOQVPJJNP-UHFFFAOYSA-N
Kind: experiment
Temperature: 313 K
Tabular data in the source: 0
pressure (bar)	Mo(VI) fraction	Mo(VI) uptake (mmol/g)	Water fraction	Water uptake (mmol/g)	total uptake (mmol/g)
1.01325	0.00019	0.00043			
1.01325	0.00265	0.0577			
1.01325	0.01434	0.1108			
1.01325	0.07659	0.20123			
1.01325	0.20901	0.26446			
1.01325	0.30655	0.34059			
1.01325	0.44891	0.40585			
