Adsorption isotherm of Mo(VI), Water on polymer amines grafted oil palm empty fruit bunch fibers
DOI: 10.17576/jsm-2017-4601-20
Article source: Figure 3
Adsorbate Mo(VI): InChIKey HCNGUXXTNNIKCQ-UHFFFAOYSA-N
Adsorbate Water: InChIKey XLYOFNOQVPJJNP-UHFFFAOYSA-N
Kind: experiment
Temperature: 333 K
Tabular data in the source: 0
pressure (bar)	Mo(VI) fraction	Mo(VI) uptake (mmol/g)	Water fraction	Water uptake (mmol/g)	total uptake (mmol/g)
1.01325	0.00019	0.00043			
1.01325	0.03977	0.04248			
1.01325	0.10842	0.0725			
1.01325	0.24928	0.13182			
1.01325	0.42876	0.1752			
1.01325	0.58218	0.22974			
1.01325	0.77985	0.27254			
