Adsorption isotherm of Ni(II), Water on carboxylic acid grafted oil palm empty fruit bunch fibers
DOI: 10.17576/jsm-2017-4601-20
Article source: Figure 3
Adsorbate Ni(II): InChIKey VEQPNABPJHWNSG-UHFFFAOYSA-N
Adsorbate Water: InChIKey XLYOFNOQVPJJNP-UHFFFAOYSA-N
Kind: experiment
Temperature: 313 K
Tabular data in the source: 0
pressure (bar)	Ni(II) fraction	Ni(II) uptake (mmol/g)	Water fraction	Water uptake (mmol/g)	total uptake (mmol/g)
1.01325	0.00084	0.000116			
1.01325	0.13557	0.020965			
1.01325	0.29922	0.035214			
1.01325	0.48005	0.042978			
1.01325	0.81817	0.050683			
1.01325	1.38197	0.061937			
1.01325	1.88957	0.073568			
