Adsorption isotherm of Arsenate, Water on polymer amines grafted oil palm empty fruit bunch fibers
DOI: 10.17576/jsm-2017-4601-20
Article source: Figure 3
Adsorbate Arsenate: InChIKey HAYXDMNJJFVXCI-UHFFFAOYSA-N
Adsorbate Water: InChIKey XLYOFNOQVPJJNP-UHFFFAOYSA-N
Kind: experiment
Temperature: 313 K
Tabular data in the source: 0
pressure (bar)	Arsenate fraction	Arsenate uptake (mmol/g)	Water fraction	Water uptake (mmol/g)	total uptake (mmol/g)
1.01325	0.00435	0.00215			
1.01325	0.08604	0.04478			
1.01325	0.19702	0.07292			
1.01325	0.31025	0.17199			
1.01325	0.45777	0.24922			
1.01325	0.6016	0.2546			
1.01325	0.93201	0.33143			
