Adsorption isotherm of Arsenate, Water on polymer amines grafted oil palm empty fruit bunch fibers
DOI: 10.17576/jsm-2017-4601-20
Article source: Figure 3
Adsorbate Arsenate: InChIKey HAYXDMNJJFVXCI-UHFFFAOYSA-N
Adsorbate Water: InChIKey XLYOFNOQVPJJNP-UHFFFAOYSA-N
Kind: experiment
Temperature: 333 K
Tabular data in the source: 0
pressure (bar)	Arsenate fraction	Arsenate uptake (mmol/g)	Water fraction	Water uptake (mmol/g)	total uptake (mmol/g)
1.01325	0.00435	0.00215			
1.01325	0.10027	0.03981			
1.01325	0.21068	0.0703			
1.01325	0.44076	0.11925			
1.01325	0.6494	0.17265			
1.01325	0.77486	0.18466			
1.01325	1.1388	0.24891			
