Adsorption isotherm of Mo(VI), Water on polymer amines grafted oil palm empty fruit bunch fibers
DOI: 10.17576/jsm-2017-4601-20
Article source: Figure 3
Adsorbate Mo(VI): InChIKey HCNGUXXTNNIKCQ-UHFFFAOYSA-N
Adsorbate Water: InChIKey XLYOFNOQVPJJNP-UHFFFAOYSA-N
Kind: experiment
Temperature: 293 K
Tabular data in the source: 0
pressure (bar)	Mo(VI) fraction	Mo(VI) uptake (mmol/g)	Water fraction	Water uptake (mmol/g)	total uptake (mmol/g)
1.01325	0.00019	0.00043			
1.01325	0.00265	0.0577			
1.01325	0.01429	0.11105			
1.01325	0.03946	0.2163			
1.01325	0.10982	0.30257			
1.01325	0.20399	0.38131			
1.01325	0.30603	0.46265			
