Adsorption isotherm of Ni(II), Water on carboxylic acid grafted oil palm empty fruit bunch fibers
DOI: 10.17576/jsm-2017-4601-20
Article source: Figure 3
Adsorbate Ni(II): InChIKey VEQPNABPJHWNSG-UHFFFAOYSA-N
Adsorbate Water: InChIKey XLYOFNOQVPJJNP-UHFFFAOYSA-N
Kind: experiment
Temperature: 293 K
Tabular data in the source: 0
pressure (bar)	Ni(II) fraction	Ni(II) uptake (mmol/g)	Water fraction	Water uptake (mmol/g)	total uptake (mmol/g)
1.01325	0.00084	0.000116			
1.01325	0.12804	0.025036			
1.01325	0.28373	0.040535			
1.01325	0.4612	0.050916			
1.01325	0.77629	0.067345			
1.01325	1.34595	0.075516			
1.01325	1.88204	0.077668			
