Adsorption isotherm of N-propane on Zr-BDC
DOI: 10.1021/acs.iecr.7b03341
Article source: Figure 4C
Adsorbate N-propane: InChIKey ATUOYWHBWRKTHZ-UHFFFAOYSA-N
Kind: experiment
Temperature: 298 K
Tabular data in the source: 0
pressure (bar)	uptake (cm3(STP)/g)
0.003067	11.1864
0.008764	15.3027
0.013146	18.5956
0.019281	20.6295
0.027169	22.6634
0.030675	24.1162
0.035933	26.3438
0.041192	27.1186
0.04908	29.1525
0.053462	30.4116
0.057844	30.799
0.062226	31.8644
0.067485	32.7845
0.074496	33.7046
0.078002	34.4794
0.084575	35.5448
0.090272	36.0291
0.094654	37.046
0.099474	37.4818
0.127958	41.0654
0.165644	44.8426
0.229185	49.7821
0.292287	53.4625
0.354075	56.3196
0.419369	58.8862
0.484224	60.8232
0.549518	62.5182
0.613935	63.9225
0.677914	65.1816
0.742331	66.1985
0.806748	67.1671
0.871604	68.0387
0.935583	68.862
0.957932	68.9104
1	69.4431
