Adsorption isotherm of Propene on Zr-BDC with defect
DOI: 10.1021/acs.iecr.7b03341
Article source: Figure S6A
Adsorbate Propene: InChIKey QQONPFPTGQHPMA-UHFFFAOYSA-N
Kind: experiment
Temperature: 298 K
Tabular data in the source: 0
pressure (bar)	uptake (cm3(STP)/g)
0.00388	4.85549
0.009699	7.86127
0.014549	10.1734
0.021339	12.4855
0.025218	14.104
0.029098	15.4913
0.034918	16.8786
0.040737	18.4971
0.041707	18.9595
0.048497	19.8844
0.050436	21.0405
0.055286	21.9653
0.057226	22.5434
0.062076	23.1214
0.064016	24.0462
0.067895	24.7399
0.072745	25.4335
0.075655	26.474
0.083414	27.5145
0.087294	28.4393
0.091174	29.5954
0.097963	30.289
0.100873	30.9827
0.112512	33.0636
0.134821	36.5318
0.162949	41.1561
0.223084	49.2486
0.29098	56.8786
0.354995	63.3526
0.419011	69.0173
0.483996	74.2197
0.549952	79.3064
0.612997	83.4682
0.677013	87.9769
0.742968	92.0231
0.805044	95.7225
0.870029	98.9595
0.935015	102.543
0.954413	103.815
0.99903	105.665
