Adsorption isotherm of Propene on Zr-BDC-NO2
DOI: 10.1021/acs.iecr.7b03341
Article source: Figure S5B
Adsorbate Propene: InChIKey QQONPFPTGQHPMA-UHFFFAOYSA-N
Kind: experiment
Temperature: 298 K
Tabular data in the source: 0
pressure (bar)	uptake (cm3(STP)/g)
0.005851	11.6782
0.006915	15.3563
0.01117	17.6552
0.021809	19.3103
0.022872	20.9655
0.027128	22.3448
0.032447	23.4483
0.035638	24.3678
0.044149	25.1034
0.046277	25.6552
0.05266	26.4828
0.054787	26.8506
0.06117	27.3563
0.066489	28
0.068617	28.5057
0.071809	29.0575
0.076064	29.2414
0.078191	29.4253
0.085638	29.8851
0.086702	30.2529
0.090957	30.8046
0.093085	31.0805
0.09734	31.2184
0.112234	32.4138
0.131383	33.3793
0.163298	35.6782
0.226064	38.8046
0.290957	41.5632
0.354787	43.5862
0.420745	45.2414
0.484574	46.7126
0.548404	48.092
0.613298	48.9195
0.678191	50.2069
0.743085	51.0345
0.806915	51.7701
0.870745	52.5977
0.934574	53.2414
0.956915	53.2414
0.999468	53.8851
