Adsorption isotherm of Methane on Zr-2,6-NDC
DOI: 10.1021/acs.iecr.7b03341
Article source: Figure S4D
Adsorbate Methane: InChIKey VNWKTOKETHGBQD-UHFFFAOYSA-N
Kind: experiment
Temperature: 273 K
Tabular data in the source: 0
pressure (bar)	uptake (cm3(STP)/g)
0.008664	0
0.025271	0.847458
0.050542	1.18644
0.101805	1.52542
0.150903	3.55932
0.2	4.57627
0.250542	5.42373
0.300361	6.44068
0.350181	7.9661
0.400722	8.30509
0.451264	9.66102
0.498917	10.5085
0.550903	11.6949
0.6	13.2203
0.650542	14.0678
0.700361	15.0847
0.749458	15.5932
0.799278	16.7797
0.849819	17.6271
0.900361	18.4746
0.950903	20
0.995668	20.678
