Adsorption isotherm of Methane on Zr-BDC-NH2
DOI: 10.1021/acs.iecr.7b03341
Article source: Figure S5C
Adsorbate Methane: InChIKey VNWKTOKETHGBQD-UHFFFAOYSA-N
Kind: experiment
Temperature: 298 K
Tabular data in the source: 0
pressure (bar)	uptake (cm3(STP)/g)
0.009912	0.892857
0.022026	1.02679
0.035242	1.02679
0.042952	1.02679
0.053965	1.20536
0.062775	1.47321
0.071586	1.65179
0.079295	1.65179
0.102423	1.5625
0.14978	2.09821
0.198238	2.90179
0.248899	3.25893
0.299009	4.15179
0.35022	4.41964
0.39978	4.77679
0.449339	5.75893
0.5	6.38393
0.549559	6.47321
0.603524	7.00893
0.650881	7.54464
0.698789	8.16964
0.75	8.61607
0.801762	8.88393
0.85022	9.50893
0.89978	9.77679
0.947137	10.4018
0.993392	10.6696
