Adsorption isotherm of Propene on Zr-2,6-NDC
DOI: 10.1021/acs.iecr.7b03341
Article source: Figure 4D
Adsorbate Propene: InChIKey QQONPFPTGQHPMA-UHFFFAOYSA-N
Kind: experiment
Temperature: 298 K
Tabular data in the source: 0
pressure (bar)	uptake (cm3(STP)/g)
0.003786	4.40783
0.009676	9.18641
0.017249	13.6354
0.020614	17.9197
0.026504	22.2039
0.031973	25.4995
0.036601	29.2894
0.041649	32.173
0.046698	35.2214
0.052587	37.5283
0.057636	40.8239
0.064788	43.6251
0.069415	45.6849
0.074464	48.0742
0.079512	49.8867
0.082878	52.1936
0.09045	54.6653
0.093816	56.9722
0.099706	58.8671
0.109802	62.7394
0.130416	69.0834
0.165334	78.2286
0.232646	92.07
0.287337	99.8146
0.368111	107.724
0.414809	111.349
0.484224	115.633
0.550694	119.258
0.613799	121.977
0.676904	124.367
0.742112	126.591
0.806899	128.651
0.871266	130.463
0.936054	131.864
0.957089	132.194
0.999159	133.265
