Adsorption isotherm of N-propane on Zr-BDC-NH2
DOI: 10.1021/acs.iecr.7b03341
Article source: Figure S5C
Adsorbate N-propane: InChIKey ATUOYWHBWRKTHZ-UHFFFAOYSA-N
Kind: experiment
Temperature: 298 K
Tabular data in the source: 0
pressure (bar)	uptake (cm3(STP)/g)
0.004956	10.8482
0.012115	13.9732
0.015419	15.9375
0.022026	17.8125
0.027533	19.1518
0.030837	20.6696
0.034692	21.6964
0.039648	22.7679
0.045154	23.7946
0.052863	24.8661
0.059471	25.6696
0.061674	26.3839
0.069383	27.1875
0.071035	27.6339
0.07489	28.3482
0.0837	29.0625
0.089207	29.8661
0.093612	30.2232
0.099119	30.8482
0.112885	32.0982
0.131057	33.6161
0.167401	36.1161
0.227974	39.6429
0.292952	42.9911
0.356278	45.2232
0.420705	47.6339
0.486784	49.4196
0.547357	50.7143
0.614537	52.0982
0.677863	53.2589
0.742291	54.3304
0.806167	55.4911
0.871145	56.1161
0.933921	56.8304
0.955947	57.3661
0.998899	57.7232
