Adsorption isotherm of Propene on Zr-FUM
DOI: 10.1021/acs.iecr.7b03341
Article source: Figure S4A
Adsorbate Propene: InChIKey QQONPFPTGQHPMA-UHFFFAOYSA-N
Kind: experiment
Temperature: 273 K
Tabular data in the source: 0
pressure (bar)	uptake (cm3(STP)/g)
0.003737	33.5361
0.007474	39.8669
0.012706	42.7757
0.01719	44.7433
0.024664	46.5399
0.026158	47.3954
0.032138	47.9943
0.035127	48.9354
0.038117	49.2776
0.041106	49.6198
0.04559	50.4753
0.050075	50.8175
0.054559	51.5019
0.060538	51.8441
0.068012	52.3574
0.072496	52.6996
0.076981	53.2129
0.084454	53.7262
0.097907	54.2395
0.124813	55.2662
0.162182	56.1217
0.226457	57.3194
0.290732	58.5171
0.356502	59.2015
0.419283	59.3726
0.483558	59.7148
0.547833	60.2281
0.610613	60.5703
0.677877	60.5703
0.742152	60.9125
0.806428	61.4259
0.870703	61.597
0.934978	61.6825
0.958894	61.8536
1.00075	62.0247
