Adsorption isotherm of Nitrogen on Zr-BDC with defect
DOI: 10.1021/acs.iecr.7b03341
Article source: Figure S3D
Adsorbate Nitrogen: InChIKey IJGRMHOSHXDMSA-UHFFFAOYSA-N
Kind: experiment
Temperature: 77 K
Tabular data in the source: 0
pressure (bar)	uptake (cm3(STP)/g)
0.093064	119.403
0.092566	149.254
0.094557	173.134
0.094557	198.507
0.095552	252.239
0.097543	274.627
0.102022	308.955
0.116454	365.672
0.137356	422.388
0.16423	450.746
0.184137	463.433
0.208025	471.642
0.232908	480.597
0.255801	480.597
0.277698	486.567
0.301586	489.552
0.320498	491.045
0.342395	494.03
0.369269	495.522
0.392162	497.015
0.414059	500
0.436952	500
0.46283	502.985
0.483732	502.985
0.509611	505.97
0.527527	505.97
0.554401	509.701
0.574308	508.955
0.603172	514.925
0.622581	510.448
0.644976	513.433
0.665878	511.94
0.689766	517.91
0.71465	517.91
0.739533	519.403
0.75944	519.403
0.781337	521.642
0.803235	522.388
0.827123	523.881
0.851011	531.343
0.872908	531.343
0.895801	537.313
0.921679	546.269
0.940591	549.254
0.970451	567.164
0.966469	600
0.989362	655.224
1.00877	1058.21
1.00728	1056.72
0.969455	600
0.920684	544.776
0.871913	537.313
0.831104	531.343
0.78283	528.358
0.738538	520.896
0.690762	522.388
0.645972	517.91
0.601182	516.418
0.556392	511.94
0.506625	504.478
0.463826	502.985
0.417045	502.985
0.369269	494.03
0.323484	491.045
0.280684	486.567
0.230917	479.851
0.186127	463.433
0.14084	429.851
