Adsorption isotherm of N-propane on Zr-BPDC
DOI: 10.1021/acs.iecr.7b03341
Article source: Figure S4E
Adsorbate N-propane: InChIKey ATUOYWHBWRKTHZ-UHFFFAOYSA-N
Kind: experiment
Temperature: 273 K
Tabular data in the source: 0
pressure (bar)	uptake (cm3(STP)/g)
0.005865	6.13636
0.008798	11.0455
0.014663	15.9545
0.021994	24.1364
0.029326	29.0455
0.032258	36.2045
0.038123	41.7273
0.041056	46.6364
0.047654	52.1591
0.05132	58.5
0.060117	63.4091
0.065249	68.9318
0.067449	71.3864
0.076979	80.5909
0.081378	84.0682
0.085777	88.3636
0.089443	90.8182
0.095308	95.3182
0.101173	99.4091
0.131965	116.591
0.16349	129.273
0.244135	146.455
0.289589	150.955
0.362903	155.864
0.417889	158.727
0.480938	160.977
0.549853	163.432
0.613636	164.045
0.677419	166.295
0.741935	166.5
0.806452	167.727
0.869501	169.364
0.932551	169.773
0.956012	169.773
0.999267	170.386
