Adsorption isotherm of N-propane on Zr-1,4-NDC
DOI: 10.1021/acs.iecr.7b03341
Article source: Figure 4B
Adsorbate N-propane: InChIKey ATUOYWHBWRKTHZ-UHFFFAOYSA-N
Kind: experiment
Temperature: 298 K
Tabular data in the source: 0
pressure (bar)	uptake (cm3(STP)/g)
0.008869	6.21888
0.01153	8.99826
0.017738	10.9438
0.023947	12.8894
0.028381	13.5148
0.032816	15.1824
0.039911	16.2247
0.043459	16.989
0.04878	18.0313
0.055876	18.9346
0.062084	19.5599
0.065632	20.359
0.07051	21.1581
0.074945	21.8529
0.082483	22.513
0.086918	23.0342
0.091796	23.6595
0.096674	24.2849
0.102439	24.8408
0.132594	27.6896
0.165854	30.3648
0.231042	34.4991
0.29357	37.4175
0.357428	39.8494
0.421286	42.0035
0.485144	43.8101
0.550333	45.4777
0.615965	46.8327
0.679379	47.9792
0.744568	49.1604
0.808426	50.2721
0.874058	50.967
0.936585	51.9398
0.959202	52.3567
1.00133	52.8083
