Adsorption isotherm of N-propane on Zr-2,6-NDC
DOI: 10.1021/acs.iecr.7b03341
Article source: Figure 4D
Adsorbate N-propane: InChIKey ATUOYWHBWRKTHZ-UHFFFAOYSA-N
Kind: experiment
Temperature: 298 K
Tabular data in the source: 0
pressure (bar)	uptake (cm3(STP)/g)
0.00631	6.22039
0.007152	13.1411
0.016407	18.7436
0.020614	22.6982
0.026504	26.8177
0.034918	30.4428
0.036601	33.2441
0.042911	36.1277
0.046698	38.1874
0.052587	41.1535
0.056794	42.8012
0.061001	44.7786
0.068574	46.5911
0.074464	48.8157
0.079512	50.7106
0.083719	52.688
0.088347	54.3357
0.093395	55.654
0.099285	57.5489
0.125789	64.7168
0.167017	73.9444
0.232646	85.8908
0.28902	93.3883
0.354228	100.227
0.420278	105.499
0.483382	109.701
0.548591	113.409
0.612958	116.622
0.678586	118.599
0.74085	121.236
0.805637	123.378
0.870425	124.696
0.936895	126.509
0.957509	127.003
1	127.827
