Adsorption isotherm of Propene on Zr-BDC-NH2
DOI: 10.1021/acs.iecr.7b03341
Article source: Figure S5C
Adsorbate Propene: InChIKey QQONPFPTGQHPMA-UHFFFAOYSA-N
Kind: experiment
Temperature: 298 K
Tabular data in the source: 0
pressure (bar)	uptake (cm3(STP)/g)
0.005507	10.2232
0.012115	14.0625
0.015419	16.3839
0.019273	18.8839
0.026432	20.4911
0.027533	22.0089
0.037445	23.3482
0.039648	24.1964
0.045154	25.4018
0.051762	26.2946
0.053965	27.1875
0.062775	28.1696
0.064978	28.7054
0.069934	29.5982
0.077093	30.0446
0.080396	30.4018
0.085352	31.1607
0.089207	31.6964
0.093612	32.2768
0.10022	32.9911
0.113436	34.2411
0.129956	35.5804
0.164097	38.3482
0.226872	42.3661
0.292952	46.2946
0.355727	49.5089
0.418502	52.1875
0.482379	54.2411
0.548458	56.3839
0.614537	57.9911
0.677313	59.5982
0.741189	60.9375
0.806167	62.1875
0.872247	63.0804
0.933921	63.8839
0.955947	64.2411
1	65.0893
