Adsorption isotherm of Nitrogen on Zr-BDC-Br
DOI: 10.1021/acs.iecr.7b03341
Article source: Figure S3A
Adsorbate Nitrogen: InChIKey IJGRMHOSHXDMSA-UHFFFAOYSA-N
Kind: experiment
Temperature: 77 K
Tabular data in the source: 0
pressure (bar)	uptake (cm3(STP)/g)
0	44.4169
0.000363	53.6302
0.001371	67.2309
0.000363	73.3731
0.002379	80.8315
0.002379	92.6773
0.000867	107.155
0.000363	115.93
0.001371	121.195
0.002379	128.653
0.002379	149.274
0.002379	155.855
0.001371	160.681
0.001371	166.823
0.002379	174.72
0.000363	180.423
0.001875	185.03
0.004396	190.953
0.002884	194.463
0.004396	204.992
0.006413	211.135
0.00843	216.619
0.024061	225.613
0.048263	230.439
0.073978	234.387
0.09818	237.02
0.124399	239.652
0.149105	241.846
0.176837	244.478
0.201039	247.111
0.227258	248.866
0.252469	251.059
0.278688	252.375
0.30289	254.569
0.328101	256.763
0.352807	258.956
0.379531	260.492
0.402725	262.466
0.428944	264.002
0.453146	266.415
0.479365	268.608
0.505584	270.802
0.531803	271.68
0.554997	273.434
0.584241	275.628
0.608444	277.383
0.632646	279.138
0.658865	280.893
0.683067	283.087
0.711303	283.964
0.734497	285.28
0.759707	287.474
0.784918	288.79
0.811137	290.545
0.83786	291.861
0.859542	293.177
0.886769	295.371
0.912988	296.687
0.93719	300.636
0.960384	301.952
0.985595	305.462
1.00879	318.624
1.00576	316.869
0.966435	302.829
0.910971	299.32
0.86055	293.616
0.80912	290.545
0.758699	285.719
0.707269	283.525
0.659873	280.454
0.605418	276.944
0.556005	271.68
0.507601	269.925
0.454154	266.415
0.404741	263.344
0.351295	258.956
0.300874	255.446
0.252469	251.937
0.201039	248.427
0.150618	242.723
0.101205	238.336
0.04675	231.316
