Adsorption isotherm of Nitrogen on Zr-BDC-NO2
DOI: 10.1021/acs.iecr.7b03341
Article source: Figure S3B
Adsorbate Nitrogen: InChIKey IJGRMHOSHXDMSA-UHFFFAOYSA-N
Kind: experiment
Temperature: 77 K
Tabular data in the source: 0
pressure (bar)	uptake (cm3(STP)/g)
0.005084	31.3498
0.002034	51.3788
0.002034	55.7329
0.00305	61.8287
0.001525	64.8766
0.00305	75.762
0.002542	81.8578
0.001525	87.7358
0.002034	96.2264
0.002034	102.758
0.001525	120.61
0.001017	126.705
0.002034	132.366
0.004067	137.808
0.005084	145.864
0.005084	150.435
0.005084	157.62
0.006101	163.716
0.006101	177.649
0.007118	183.745
0.011693	190.276
0.024403	203.774
0.052874	209.869
0.074735	214.441
0.09863	218.578
0.126593	221.626
0.152521	224.238
0.177942	225.98
0.203362	230.334
0.225732	232.946
0.255219	235.559
0.278606	238.389
0.304026	241.219
0.330463	242.525
0.355883	245.573
0.380287	248.186
0.402656	250.363
0.43011	252.975
0.457564	255.588
0.481967	256.894
0.506371	259.942
0.532808	262.119
0.558736	263.425
0.582631	266.038
0.607035	268.65
0.632455	272.134
0.658892	274.311
0.683296	277.358
0.708716	279.1
0.735153	282.148
0.759556	284.761
0.784976	286.067
0.810397	288.244
0.835817	290.856
0.863271	293.469
0.88564	296.081
0.911061	299.129
0.936481	301.742
0.961901	304.354
0.986305	310.45
1.00766	321.988
0.963935	304.354
0.914111	299.129
0.861237	292.598
0.81243	286.067
0.760573	285.631
0.708716	280.406
0.658892	276.488
0.609068	272.134
0.559753	267.344
0.506371	261.684
0.457564	257.765
0.405707	251.669
0.3569	247.75
0.306059	242.525
0.253185	237.3
0.202345	232.075
0.150488	224.673
0.100664	219.013
0.05084	210.74
