Adsorption isotherm of Methane on Zr-BDC-Br
DOI: 10.1021/acs.iecr.7b03341
Article source: Figure S5A
Adsorbate Methane: InChIKey VNWKTOKETHGBQD-UHFFFAOYSA-N
Kind: experiment
Temperature: 298 K
Tabular data in the source: 0
pressure (bar)	uptake (cm3(STP)/g)
0.007318	0.641624
0.019123	0.799429
0.029854	0.852031
0.037365	0.957235
0.049169	0.957235
0.058291	1.37805
0.068485	1.37805
0.080289	1.79886
0.099605	2.00927
0.150041	2.7457
0.199404	3.48212
0.247157	4.42895
0.297593	5.37578
0.351248	6.21741
0.400075	6.84863
0.449437	7.37465
0.4988	8.21628
0.549236	9.05791
0.600209	9.89954
0.650108	10.2151
0.70269	11.0568
0.749907	11.5828
0.799269	12.1088
0.850778	12.8452
0.897995	13.2661
0.950577	13.7921
0.993501	14.3181
