Adsorption isotherm of Nitrogen on Zr-BDC
DOI: 10.1021/acs.iecr.7b03341
Article source: Figure 3C
Adsorbate Nitrogen: InChIKey IJGRMHOSHXDMSA-UHFFFAOYSA-N
Kind: experiment
Temperature: 77 K
Tabular data in the source: 0
pressure (bar)	uptake (cm3(STP)/g)
0	4.60123
0	10.1227
0	16.2577
0	26.0736
0	48.1595
0	75.4601
0	81.5951
0	86.5031
0.000534	101.534
0	120.245
0.000534	149.387
0	171.472
0	200.307
0	216.258
0	221.166
0.000534	226.074
0	230.982
0.000534	244.479
0.001602	250.613
0.003739	256.135
0.006944	260.736
0.021365	277.607
0.047538	286.81
0.073176	292.025
0.09828	295.399
0.124987	298.466
0.147955	300.92
0.173593	303.374
0.200834	306.442
0.22487	308.589
0.24944	310.123
0.276147	312.577
0.300717	315.031
0.327423	317.485
0.351994	319.325
0.376564	321.779
0.402202	323.62
0.42784	325.46
0.452411	327.301
0.478049	329.755
0.504756	331.902
0.530394	334.356
0.554964	336.503
0.579534	337.117
0.607309	340.798
0.631345	342.025
0.657518	345.092
0.684224	346.319
0.706658	348.16
0.733364	350.307
0.760071	353.374
0.784641	354.908
0.811348	358.589
0.836452	360.736
0.861022	362.883
0.886126	366.564
0.911231	369.939
0.936335	376.38
0.961973	384.049
0.990816	401.534
1.00791	403.067
1.00684	400.307
0.960905	387.423
0.910696	373.313
0.85942	364.724
0.812416	359.816
0.761139	354.294
0.708794	349.387
0.657518	345.706
0.607309	340.798
0.554964	337.73
0.504756	334.049
0.454547	330.368
0.40327	325.46
0.351994	322.393
0.299649	316.871
0.24944	311.963
0.198163	308.282
0.147955	301.534
0.09828	295.399
0.047004	287.423
