Adsorption isotherm of Methane on Zr-1,4-NDC
DOI: 10.1021/acs.iecr.7b03341
Article source: Figure 4B
Adsorbate Methane: InChIKey VNWKTOKETHGBQD-UHFFFAOYSA-N
Kind: experiment
Temperature: 298 K
Tabular data in the source: 0
pressure (bar)	uptake (cm3(STP)/g)
0.005322	0.034742
0.010643	0.104227
0.022173	0.312681
0.027494	0.382166
0.032816	0.59062
0.040798	0.45165
0.053215	0.59062
0.063858	0.694847
0.07184	0.868558
0.082483	0.868558
0.102882	0.868558
0.151663	1.28547
0.203104	1.63289
0.250998	1.98031
0.304213	2.67516
0.35122	2.9531
0.402661	3.37001
0.451441	3.75217
0.501996	4.20382
0.551663	4.55125
0.601774	4.82918
0.650998	5.35032
0.701552	5.59351
0.75122	6.01042
0.8	6.28836
0.851441	6.63579
0.901109	7.12218
0.952106	7.40012
0.995565	7.67805
