Adsorption isotherm of N-propane on Zr-BDC with defect
DOI: 10.1021/acs.iecr.7b03341
Article source: Figure S6A
Adsorbate N-propane: InChIKey ATUOYWHBWRKTHZ-UHFFFAOYSA-N
Kind: experiment
Temperature: 298 K
Tabular data in the source: 0
pressure (bar)	uptake (cm3(STP)/g)
0.00485	5.78035
0.00582	8.09249
0.007759	9.9422
0.013579	12.4855
0.023278	13.8728
0.027158	15.7225
0.032978	17.8035
0.038797	18.9595
0.044617	20.3468
0.050436	21.7341
0.057226	23.3526
0.063046	24.2775
0.065955	24.9711
0.070805	26.1272
0.073715	27.052
0.083414	27.9769
0.086324	29.0173
0.092144	29.8266
0.095053	30.7514
0.100873	31.3295
0.129971	36.3006
0.162949	41.0405
0.228904	48.5549
0.29001	55.4913
0.354025	61.2717
0.42192	66.8208
0.484966	71.6763
0.548982	76.5318
0.612997	81.0405
0.676043	85.3179
0.741998	89.0173
0.806984	92.7168
0.870999	96.185
0.935015	99.422
0.957323	100.809
0.99903	102.543
