Adsorption isotherm of Methane on Zr-FUM
DOI: 10.1021/acs.iecr.7b03341
Article source: Figure 4A
Adsorbate Methane: InChIKey VNWKTOKETHGBQD-UHFFFAOYSA-N
Kind: experiment
Temperature: 298 K
Tabular data in the source: 0
pressure (bar)	uptake (cm3(STP)/g)
0.006611	0.408742
0.011248	0.48848
0.022209	0.568218
0.026847	0.727693
0.030219	0.80743
0.040337	1.04664
0.052141	1.04664
0.060151	1.28586
0.072377	1.4852
0.080386	1.64468
0.1002	2.1231
0.151632	2.84074
0.200535	3.75772
0.251545	4.47536
0.300026	5.35247
0.351458	5.91064
0.402047	6.78775
0.44842	7.42565
0.50196	8.30277
0.550441	8.86093
0.600187	9.65831
0.649089	10.2165
0.699256	10.6949
0.75111	11.4125
0.800012	12.0504
0.85018	12.5289
0.900347	13.087
0.949249	13.5654
0.994779	14.2432
