Adsorption isotherm of Methane on Zr-BPDC
DOI: 10.1021/acs.iecr.7b03341
Article source: Figure S4E
Adsorbate Methane: InChIKey VNWKTOKETHGBQD-UHFFFAOYSA-N
Kind: experiment
Temperature: 273 K
Tabular data in the source: 0
pressure (bar)	uptake (cm3(STP)/g)
0.010264	1.02273
0.020528	1.63636
0.032258	1.22727
0.039589	1.63636
0.049853	1.84091
0.061584	2.45455
0.070381	2.25
0.080645	2.04545
0.101173	2.04545
0.15176	2.25
0.199413	3.47727
0.251466	4.29545
0.302786	5.52273
0.348974	5.31818
0.400293	7.15909
0.44868	6.95455
0.501466	9
0.549853	8.38636
0.601173	10.2273
0.648094	10.2273
0.699413	11.8636
0.749267	12.6818
0.800587	12.6818
0.851906	13.9091
0.90176	15.1364
0.947214	15.1364
0.992669	15.5455
