Adsorption isotherm of Propene on Zr-BPDC
DOI: 10.1021/acs.iecr.7b03341
Article source: Figure 4E
Adsorbate Propene: InChIKey QQONPFPTGQHPMA-UHFFFAOYSA-N
Kind: experiment
Temperature: 298 K
Tabular data in the source: 0
pressure (bar)	uptake (cm3(STP)/g)
0.009434	42.0506
0.013722	43.2658
0.021012	44.7848
0.027444	46.3038
0.031732	47.0633
0.036021	48.4304
0.040309	49.2658
0.046312	50.557
0.054031	51.7722
0.058319	52.8354
0.063465	54.2025
0.067753	55.7215
0.074614	56.9367
0.076329	57.5443
0.084048	59.0633
0.090909	60.8861
0.095197	62.2532
0.100343	63.6203
0.129503	71.2152
0.164666	81.0886
0.229846	101.443
0.307033	121.038
0.357633	130
0.422813	138.051
0.491424	143.823
0.55789	147.62
0.608062	150.354
0.676672	152.937
0.740566	154.911
0.805317	157.19
0.86964	158.557
0.933962	159.62
0.956261	160.228
1.00086	160.987
