Adsorption isotherm of Methane on Zr-FUM
DOI: 10.1021/acs.iecr.7b03341
Article source: Figure S4A
Adsorbate Methane: InChIKey VNWKTOKETHGBQD-UHFFFAOYSA-N
Kind: experiment
Temperature: 273 K
Tabular data in the source: 0
pressure (bar)	uptake (cm3(STP)/g)
0.006726	0.256654
0.020927	0.769962
0.029148	1.02662
0.038117	1.36882
0.04858	1.71103
0.057549	2.22433
0.068012	2.73764
0.079223	2.90875
0.097907	3.42205
0.147982	5.21863
0.198057	6.84411
0.248879	8.38403
0.298206	9.8384
0.348281	11.1217
0.399103	12.3194
0.447683	13.6882
0.498505	14.8859
0.54858	15.7414
0.597907	16.8536
0.650224	17.9658
0.697309	18.9068
0.749626	19.8479
0.800448	20.8745
0.849028	21.73
0.899103	22.3289
0.950673	23.27
0.994768	24.0399
