Adsorption isotherm of N-propane on Zr-FUM
DOI: 10.1021/acs.iecr.7b03341
Article source: Figure S4A
Adsorbate N-propane: InChIKey ATUOYWHBWRKTHZ-UHFFFAOYSA-N
Kind: experiment
Temperature: 273 K
Tabular data in the source: 0
pressure (bar)	uptake (cm3(STP)/g)
0.005232	34.2205
0.006726	38.0703
0.0142	39.8669
0.018685	40.8935
0.024664	41.5779
0.029148	42.6046
0.033632	43.0323
0.038864	43.9734
0.046338	44.3156
0.050075	44.8289
0.054559	45.2567
0.062033	45.5989
0.065022	46.1122
0.074738	46.5399
0.07997	46.9677
0.090433	47.2243
0.097907	47.6521
0.125561	48.9354
0.162182	50.0475
0.227205	51.673
0.290732	52.6996
0.355007	53.2985
0.419283	53.8973
0.483558	54.4106
0.54858	54.6673
0.613602	55.1806
0.67713	55.4373
0.7429	55.6939
0.806428	55.9506
0.870703	56.0361
0.934978	56.3783
0.957399	56.3783
0.998505	56.4639
