Adsorption isotherm of N-propane on Zr-FUM
DOI: 10.1021/acs.iecr.7b03341
Article source: Figure 4A
Adsorbate N-propane: InChIKey ATUOYWHBWRKTHZ-UHFFFAOYSA-N
Kind: experiment
Temperature: 298 K
Tabular data in the source: 0
pressure (bar)	uptake (cm3(STP)/g)
0.004925	24.4895
0.010827	31.0679
0.01715	34.3371
0.021788	36.0515
0.029376	37.5665
0.039915	38.8821
0.042023	39.4802
0.048768	40.1181
0.05467	40.5965
0.058465	40.9952
0.064788	41.2344
0.068582	41.6331
0.074063	41.8723
0.078279	42.1913
0.084602	42.4703
0.089661	42.7494
0.095142	42.9089
0.100622	43.1082
0.128867	44.0651
0.165544	45.301
0.22878	46.5768
0.294124	47.7729
0.357782	48.5703
0.422283	49.2879
0.487205	49.9258
0.550441	50.5238
0.61452	51.0421
0.679021	51.6003
0.744365	51.999
0.808865	52.3578
0.872523	52.6767
0.936181	52.9558
0.959789	53.1153
1.00195	53.4343
