Adsorption isotherm of N-propane on Zr-2,6-NDC
DOI: 10.1021/acs.iecr.7b03341
Article source: Figure S4D
Adsorbate N-propane: InChIKey ATUOYWHBWRKTHZ-UHFFFAOYSA-N
Kind: experiment
Temperature: 273 K
Tabular data in the source: 0
pressure (bar)	uptake (cm3(STP)/g)
0.005054	14.4068
0.00361	18.1356
0.01083	24.4068
0.015162	30.678
0.020939	36.7797
0.025993	43.2203
0.031769	46.7797
0.036101	52.3729
0.040433	56.1017
0.047653	61.3559
0.049819	65.0847
0.05704	69.1525
0.062094	71.1864
0.068592	75.0847
0.072924	77.2881
0.076534	80
0.084477	83.3898
0.088809	84.4068
0.095307	87.7966
0.100361	89.4915
0.113357	93.5593
0.134296	98.3051
0.163899	104.915
0.228881	114.407
0.288087	119.831
0.368231	125.085
0.433935	128.136
0.485199	130.169
0.550181	132.542
0.615884	134.576
0.677978	136.102
0.743682	137.288
0.80722	138.136
0.870758	139.153
0.93574	139.661
0.958123	140.339
1.00072	140.508
