Adsorption isotherm of Methane on Zr-BDC
DOI: 10.1021/acs.iecr.7b03341
Article source: Figure 4C
Adsorbate Methane: InChIKey VNWKTOKETHGBQD-UHFFFAOYSA-N
Kind: experiment
Temperature: 298 K
Tabular data in the source: 0
pressure (bar)	uptake (cm3(STP)/g)
0.004382	0.484262
0.008764	0.677966
0.023663	0.677966
0.04908	0.677966
0.099036	1.35593
0.148992	1.93705
0.199825	2.61501
0.248028	3.1477
0.299299	3.92252
0.349255	4.55206
0.399211	5.03632
0.447853	5.56901
0.498685	6.34383
0.549518	6.77966
0.599036	7.4092
0.650307	7.79661
0.698948	8.523
0.749343	8.95884
0.798422	9.49152
0.848379	10.0726
0.900088	10.6538
0.949606	11.0896
0.993427	11.5254
