Adsorption isotherm of Propene on Zr-1,4-NDC
DOI: 10.1021/acs.iecr.7b03341
Article source: Figure S4B
Adsorbate Propene: InChIKey QQONPFPTGQHPMA-UHFFFAOYSA-N
Kind: experiment
Temperature: 273 K
Tabular data in the source: 0
pressure (bar)	uptake (cm3(STP)/g)
0.005895	13.4731
0.011791	17.8892
0.014738	20.6587
0.021371	23.1287
0.027266	25.2994
0.030951	26.7964
0.035372	28.5928
0.039794	29.8653
0.045689	31.2874
0.053058	32.485
0.058217	33.6826
0.061164	34.2066
0.064112	34.8802
0.067797	35.7036
0.070744	36.3772
0.073692	36.9012
0.07885	37.5
0.081061	37.8743
0.083272	38.2485
0.08843	38.9222
0.091378	39.521
0.094326	40.1198
0.100221	40.8683
0.112749	42.0659
0.131172	44.012
0.168018	47.006
0.229919	51.1976
0.29182	54.1916
0.355195	57.1108
0.420044	59.3563
0.486367	61.2275
0.549742	63.024
0.613117	64.3713
0.677966	65.5689
0.741341	66.6916
0.808401	67.8892
0.870302	68.6377
0.935151	69.3862
0.957996	69.6108
1	70.2096
