Adsorption isotherm of Nitrogen on Zr-FUM
DOI: 10.1021/acs.iecr.7b03341
Article source: Figure 3A
Adsorbate Nitrogen: InChIKey IJGRMHOSHXDMSA-UHFFFAOYSA-N
Kind: experiment
Temperature: 77 K
Tabular data in the source: 0
pressure (bar)	uptake (cm3(STP)/g)
0.001319	27.5682
0.001319	47.0745
0.002068	59.5304
0.000944	66.5809
0.001319	70.4586
0.002818	74.1014
0.002818	87.8498
0.002818	92.6677
0.005815	99.6006
0.007313	104.888
0.008812	109.001
0.010311	109.354
0.026045	122.632
0.049648	130.975
0.076997	135.911
0.100974	140.141
0.124951	143.431
0.150426	146.839
0.177401	149.189
0.201752	152.362
0.227228	154.947
0.25158	158.12
0.277805	160.705
0.301032	163.878
0.328007	167.403
0.353482	170.811
0.378958	172.808
0.403684	175.393
0.430284	177.038
0.456134	179.389
0.48086	180.799
0.506336	182.444
0.532561	183.384
0.556538	184.911
0.582763	187.144
0.607489	187.732
0.632965	188.789
0.657691	192.55
0.684291	192.785
0.709392	193.96
0.734867	194.9
0.758844	196.31
0.785069	197.015
0.810545	198.19
0.836021	199.247
0.86262	200.305
0.885473	201.245
0.911698	202.89
0.937548	204.77
0.962649	207.121
0.985877	211.351
1.0091	223.102
1.00761	222.867
0.964897	206.65
0.913197	202.89
0.862246	199.6
0.809046	197.955
0.758844	197.015
0.709392	196.31
0.65919	190.669
0.605991	189.494
0.556538	185.499
0.507085	180.799
0.455385	178.919
0.403684	176.098
0.354232	172.808
0.304779	166.698
0.253078	159.412
0.201752	153.067
0.153424	147.426
0.101723	141.081
0.052645	131.445
