Adsorption isotherm of Methane on Zr-BDC
DOI: 10.1021/acs.iecr.7b03341
Article source: Figure S4C
Adsorbate Methane: InChIKey VNWKTOKETHGBQD-UHFFFAOYSA-N
Kind: experiment
Temperature: 273 K
Tabular data in the source: 0
pressure (bar)	uptake (cm3(STP)/g)
0.010401	0.828402
0.029718	1.06509
0.05052	1.65681
0.100297	2.84024
0.15156	3.90532
0.201337	5.2071
0.251114	6.27219
0.300892	7.21894
0.350669	8.40237
0.401189	9.70414
0.450223	11.0059
0.501486	11.716
0.551263	13.0178
0.600297	13.7278
0.650817	14.9112
0.699851	15.858
0.750371	16.568
0.799406	17.5148
0.849926	18.5799
0.900446	19.4083
0.94948	20.1183
0.995542	20.9467
