Adsorption isotherm of Propene on Zr-BDC-Br
DOI: 10.1021/acs.iecr.7b03341
Article source: Figure S5A
Adsorbate Propene: InChIKey QQONPFPTGQHPMA-UHFFFAOYSA-N
Kind: experiment
Temperature: 298 K
Tabular data in the source: 0
pressure (bar)	uptake (cm3(STP)/g)
0.005172	14.6337
0.009465	19.0522
0.013757	21.4193
0.020196	23.6812
0.021269	24.7332
0.026634	26.5217
0.033073	27.5737
0.038438	28.5206
0.043804	29.6778
0.047023	30.6246
0.051316	31.1507
0.054535	31.6767
0.057754	32.5183
0.060974	33.0443
0.068485	33.6755
0.073851	34.3068
0.078143	35.0432
0.083509	35.5692
0.085655	35.99
0.092094	36.6212
0.096386	36.8316
0.101752	37.4629
0.113556	38.7253
0.131799	40.3034
0.163992	42.9335
0.226232	47.1416
0.291154	50.5081
0.355004	53.1382
0.418317	55.1371
0.483777	57.0307
0.549236	58.6088
0.614695	60.292
0.679082	61.6597
0.741322	62.6065
0.806781	63.4481
0.870094	64.395
0.934481	65.3418
0.958089	65.447
0.999403	65.9204
