Adsorption isotherm of Methane on Zr-1,4-NDC
DOI: 10.1021/acs.iecr.7b03341
Article source: Figure S4B
Adsorbate Methane: InChIKey VNWKTOKETHGBQD-UHFFFAOYSA-N
Kind: experiment
Temperature: 273 K
Tabular data in the source: 0
pressure (bar)	uptake (cm3(STP)/g)
0.007369	0.449102
0.013265	0.748503
0.023581	0.748503
0.029477	0.748503
0.039794	0.898204
0.053058	1.19761
0.061901	1.34731
0.073692	1.57186
0.082535	1.72156
0.101695	2.39521
0.152542	2.91916
0.200442	3.74252
0.25129	4.71557
0.299189	5.46407
0.352248	6.28743
0.401621	7.03593
0.451732	7.85928
0.499632	8.45808
0.550479	9.28144
0.599853	9.73054
0.651437	10.479
0.700074	11.0778
0.74871	11.6766
0.801032	12.4251
0.848931	13.024
0.899042	13.5479
0.950626	14.3713
0.994842	14.7455
