Adsorption isotherm of N-propane on Zr-1,4-NDC
DOI: 10.1021/acs.iecr.7b03341
Article source: Figure S4B
Adsorbate N-propane: InChIKey ATUOYWHBWRKTHZ-UHFFFAOYSA-N
Kind: experiment
Temperature: 273 K
Tabular data in the source: 0
pressure (bar)	uptake (cm3(STP)/g)
0.007369	13.3234
0.011791	17.0659
0.016212	19.8353
0.023581	22.4551
0.026529	24.1018
0.032424	25.7485
0.03832	27.6198
0.042004	28.7425
0.047163	30.2395
0.052321	31.512
0.056743	32.6347
0.064112	33.8323
0.068534	34.506
0.074429	35.479
0.078113	36.0778
0.084009	36.8263
0.089167	37.7246
0.095063	38.3234
0.100221	38.8473
0.114959	40.5689
0.134119	42.3653
0.165807	44.985
0.229919	48.8024
0.29182	51.7216
0.356669	53.9671
0.421518	55.9132
0.484893	57.3353
0.550479	58.8323
0.614591	60.0299
0.67944	61.0778
0.742815	62.0509
0.80619	62.7246
0.870302	63.4731
0.934414	64.1467
0.957259	64.521
0.999263	64.7455
