Adsorption isotherm of Propene on Zr-BDC
DOI: 10.1021/acs.iecr.7b03341
Article source: Figure 4C
Adsorbate Propene: InChIKey QQONPFPTGQHPMA-UHFFFAOYSA-N
Kind: experiment
Temperature: 298 K
Tabular data in the source: 0
pressure (bar)	uptake (cm3(STP)/g)
0.005259	7.94189
0.010955	12.3971
0.014899	15.6416
0.020158	18.1598
0.026293	20.4843
0.031989	22.7603
0.035933	24.7942
0.042945	26.247
0.046889	27.6029
0.052585	29.2494
0.057844	30.8959
0.06135	31.7676
0.067485	32.9298
0.07362	34.3826
0.079316	35.3027
0.083699	36.368
0.089833	37.3366
0.092901	38.2567
0.099912	39.322
0.110868	41.0654
0.130587	44.0678
0.165206	48.3293
0.228309	54.6731
0.292726	59.8063
0.353199	63.5351
0.419807	66.6828
0.484663	69.4431
0.548642	71.7676
0.613935	73.6562
0.677914	75.2058
0.741455	76.5133
0.807187	77.8208
0.870289	78.9346
0.936021	79.9031
0.957932	80.1937
1.00044	80.8232
