Adsorption isotherm of Propene on Zr-2,6-NDC
DOI: 10.1021/acs.iecr.7b03341
Article source: Figure S4D
Adsorbate Propene: InChIKey QQONPFPTGQHPMA-UHFFFAOYSA-N
Kind: experiment
Temperature: 273 K
Tabular data in the source: 0
pressure (bar)	uptake (cm3(STP)/g)
0.005054	12.8814
0.01083	21.1864
0.013718	31.0169
0.020939	40.1695
0.022383	45.5932
0.028159	53.0508
0.035379	58.8136
0.041155	64.2373
0.046931	69.661
0.049819	72.7119
0.058484	79.8305
0.074368	88.6441
0.077978	90.678
0.080144	92.0339
0.083032	93.3898
0.087365	94.4068
0.091697	95.7627
0.095307	97.4576
0.099639	98.983
0.111913	102.373
0.13213	106.949
0.164621	113.39
0.228159	121.695
0.288087	126.949
0.350903	131.017
0.419495	134.068
0.483032	136.61
0.548014	138.814
0.611552	141.186
0.676534	143.22
0.742238	144.576
0.807942	146.271
0.872924	147.627
0.936462	148.983
0.958845	149.322
1	149.322
