Adsorption isotherm of Nitrogen on Zr-1,4-NDC
DOI: 10.1021/acs.iecr.7b03341
Article source: Figure 3B
Adsorbate Nitrogen: InChIKey IJGRMHOSHXDMSA-UHFFFAOYSA-N
Kind: experiment
Temperature: 77 K
Tabular data in the source: 0
pressure (bar)	uptake (cm3(STP)/g)
0.00292	86.069
0.00365	97.3793
0	108.966
0.00073	113.931
0.00219	118.069
0.00292	123.586
0.00219	132.138
0.00146	137.379
0.00146	143.034
0.00438	151.724
0.00511	158.897
0.00584	162.483
0.01095	164.69
0.025185	186.759
0.05037	201.793
0.073731	211.724
0.099281	219.034
0.126291	223.448
0.150381	227.034
0.176662	229.793
0.202212	233.103
0.226667	235.31
0.251122	237.379
0.275213	238.897
0.301128	240.552
0.326678	242.207
0.352593	244.69
0.378144	245.241
0.403694	246.069
0.429974	246.897
0.453334	248.276
0.479615	249.103
0.506625	249.655
0.531445	251.034
0.556995	251.862
0.581086	253.241
0.607366	253.793
0.631456	254.483
0.657736	256
0.683287	256.69
0.707377	257.379
0.732927	258.759
0.757747	260.138
0.783298	261.517
0.808848	262.897
0.833668	263.724
0.861409	264.828
0.885864	267.034
0.911779	269.241
0.933679	272
0.962149	276.138
0.988065	289.655
1.00705	322.207
1.00668	322.207
0.962149	280.552
0.909589	271.172
0.859948	267.034
0.809578	265.379
0.759207	262.897
0.708107	260.966
0.659927	256.828
0.606636	254.345
0.557726	251.862
0.5048	249.379
0.456255	248.552
0.406614	245.793
0.353323	244.138
0.302223	242.759
0.251852	239.448
0.201482	235.172
0.151476	229.517
0.100376	221.517
0.051101	204.69
