Adsorption isotherm of Methane on Zr-BPDC
DOI: 10.1021/acs.iecr.7b03341
Article source: Figure 4E
Adsorbate Methane: InChIKey VNWKTOKETHGBQD-UHFFFAOYSA-N
Kind: experiment
Temperature: 298 K
Tabular data in the source: 0
pressure (bar)	uptake (cm3(STP)/g)
0.003431	40.6835
0.008576	40.6835
0.018868	40.8354
0.0253	40.8354
0.030875	40.9873
0.040309	40.8354
0.051458	41.0633
0.060034	41.1392
0.071184	41.1392
0.07976	41.0633
0.100343	41.1392
0.150086	41.5949
0.198971	41.8987
0.250429	42.0506
0.301029	42.2025
0.350772	42.8101
0.401372	42.8101
0.4494	43.2658
0.499142	43.8734
0.5506	44.1772
0.599485	44.7848
0.650086	45.0886
0.6994	44.9367
0.750429	45.3924
0.800172	45.7722
0.850772	46
0.900086	46.4557
0.950257	46.7595
0.995283	47.0633
