Adsorption isotherm of Methane on Zr-2,6-NDC
DOI: 10.1021/acs.iecr.7b03341
Article source: Figure 4D
Adsorbate Methane: InChIKey VNWKTOKETHGBQD-UHFFFAOYSA-N
Kind: experiment
Temperature: 298 K
Tabular data in the source: 0
pressure (bar)	uptake (cm3(STP)/g)
0.003786	0.123584
0.009676	-0.041195
0.023138	-0.370752
0.051746	-0.453141
0.099706	-0.370752
0.148507	-0.041195
0.200673	-0.041195
0.251157	-0.041195
0.298275	-0.041195
0.350442	0.123584
0.400084	-0.205973
0.451409	-0.041195
0.50021	-0.041195
0.548591	0.123584
0.600337	0.123584
0.648296	-0.041195
0.699201	0.123584
0.749264	0.123584
0.798065	0.453141
0.84939	0.205973
0.89735	0.370752
0.949516	0.370752
0.99411	0.288363
