Adsorption isotherm of N-propane on Zr-BDC
DOI: 10.1021/acs.iecr.7b03341
Article source: Figure S4C
Adsorbate N-propane: InChIKey ATUOYWHBWRKTHZ-UHFFFAOYSA-N
Kind: experiment
Temperature: 273 K
Tabular data in the source: 0
pressure (bar)	uptake (cm3(STP)/g)
0.006686	19.7633
0.011144	25.4438
0.017088	29.7041
0.023031	32.6627
0.026003	35.2663
0.031947	38.5799
0.035661	40.5917
0.041605	42.4852
0.047548	44.3787
0.053492	45.7988
0.057949	47.4556
0.063893	48.6391
0.066865	50.5325
0.073551	51.4793
0.077266	52.426
0.08321	53.6095
0.090639	54.6746
0.096582	55.7396
0.10104	57.1598
0.115156	59.4083
0.13373	62.2485
0.164933	65.4438
0.231055	70.6509
0.289747	73.0178
0.355126	75.858
0.419762	77.5148
0.48737	78.6982
0.548291	79.8817
0.614413	80.9467
0.677563	82.0118
0.741456	82.7219
0.806835	83.9053
0.869985	84.142
0.935364	84.9704
0.958395	85.0888
1	85.3254
