Adsorption isotherm of Nitrogen on Zr-BPDC
DOI: 10.1021/acs.iecr.7b03341
Article source: Figure 3E
Adsorbate Nitrogen: InChIKey IJGRMHOSHXDMSA-UHFFFAOYSA-N
Kind: experiment
Temperature: 77 K
Tabular data in the source: 0
pressure (bar)	uptake (cm3(STP)/g)
0.001048	28.3852
0.002097	51.5568
0.002097	68.9356
0.001573	86.3143
0.001048	114.12
0	160.463
0.000524	235.771
0	315.713
0.002097	359.16
0.004193	491.238
0.004718	520.782
0.00629	537.002
0.007863	547.429
0.008911	550.326
0.025685	579.29
0.050322	598.407
0.076531	611.151
0.098547	616.944
0.125804	625.054
0.152014	635.482
0.178223	640.116
0.203384	643.592
0.227496	647.067
0.252657	651.122
0.277818	652.281
0.303503	658.653
0.328664	661.55
0.353825	663.287
0.37951	665.605
0.404671	667.922
0.430356	669.08
0.455517	671.398
0.481202	672.556
0.506363	674.873
0.531524	677.77
0.556161	679.508
0.58237	680.666
0.605958	682.983
0.634264	683.563
0.658377	688.776
0.683013	691.093
0.708698	692.252
0.732287	693.411
0.760593	694.569
0.785229	696.307
0.809866	698.624
0.835027	700.362
0.860712	702.1
0.885873	702.679
0.91051	705.576
0.937243	707.314
0.962928	711.948
0.988089	718.32
1.00748	747.864
1.00748	750.181
0.961356	716.582
0.911558	709.631
0.86176	704.996
0.813535	699.203
0.760069	695.728
0.710795	691.093
0.660473	687.618
0.608055	684.142
0.558781	681.825
0.506363	674.873
0.456041	674.873
0.404671	671.398
0.354349	663.287
0.304027	659.812
0.252657	653.44
0.200239	645.909
0.15411	637.799
0.099595	619.261
0.05137	598.407
