Adsorption isotherm of N-propane on Zr-BPDC
DOI: 10.1021/acs.iecr.7b03341
Article source: Figure 4E
Adsorbate N-propane: InChIKey ATUOYWHBWRKTHZ-UHFFFAOYSA-N
Kind: experiment
Temperature: 298 K
Tabular data in the source: 0
pressure (bar)	uptake (cm3(STP)/g)
0.009434	43.1139
0.014151	44.2532
0.020154	46
0.027444	47.2152
0.034305	48.7342
0.039451	50.557
0.044597	52.076
0.049314	53.8228
0.055746	55.5696
0.060463	57.0127
0.064751	58.6076
0.070755	60.5063
0.072899	62.2532
0.078902	64.3038
0.08319	65.7468
0.090909	68.0253
0.096055	69.3924
0.100343	71.5949
0.13036	81.924
0.164666	94.8354
0.223842	115.19
0.321612	134.405
0.355918	138.203
0.424957	143.595
0.479417	146.557
0.545883	149.443
0.611492	151.494
0.677101	153.392
0.741424	155.063
0.806604	156.354
0.87307	157.797
0.936106	158.405
0.957547	158.785
1.00043	159.316
