Adsorption isotherm of N-propane on Zr-BDC-NO2
DOI: 10.1021/acs.iecr.7b03341
Article source: Figure S5B
Adsorbate N-propane: InChIKey ATUOYWHBWRKTHZ-UHFFFAOYSA-N
Kind: experiment
Temperature: 298 K
Tabular data in the source: 0
pressure (bar)	uptake (cm3(STP)/g)
0.01117	14.7126
0.012234	16.092
0.017553	17.5632
0.022872	18.8506
0.029255	19.8621
0.031383	20.9655
0.035638	21.3333
0.045213	22.2529
0.04734	23.1724
0.057979	23.7241
0.06117	24.092
0.066489	24.6437
0.071809	25.1034
0.078191	25.931
0.082447	26.3908
0.089894	26.7586
0.096277	27.4943
0.113298	28.5977
0.093085	27.1264
0.129255	29.5172
0.163298	31.2644
0.225	33.931
0.290957	35.954
0.353723	37.977
0.417553	39.0805
0.484574	40.4138
0.549468	41.8391
0.612234	42.5747
0.676064	43.4483
0.742021	44.046
0.804787	44.8736
0.871809	45.6092
0.932979	46.1609
0.956915	46.4368
0.99734	46.8966
