Adsorption isotherm of Propene on Zr-1,4-NDC
DOI: 10.1021/acs.iecr.7b03341
Article source: Figure 4B
Adsorbate Propene: InChIKey QQONPFPTGQHPMA-UHFFFAOYSA-N
Kind: experiment
Temperature: 298 K
Tabular data in the source: 0
pressure (bar)	uptake (cm3(STP)/g)
0.006208	5.87145
0.01286	9.033
0.015078	10.9438
0.021286	13.0284
0.027494	14.2791
0.031929	15.5993
0.036364	16.85
0.042572	17.8576
0.04878	18.9346
0.054102	19.7684
0.058537	20.5327
0.064302	21.297
0.06918	22.1656
0.075388	22.8952
0.08071	23.5553
0.085588	24.0764
0.089579	24.6323
0.095344	25.2577
0.101109	25.9178
0.113969	27.2727
0.132151	29.1488
0.16541	31.546
0.228825	35.6804
0.295344	39.0851
0.357428	41.6561
0.422173	44.0185
0.486918	46.1031
0.549889	47.9097
0.616408	49.4383
0.680266	50.8975
0.745011	52.1482
0.807982	53.26
0.873614	54.3717
0.937472	55.414
0.959645	55.692
1.00222	56.3868
