Adsorption isotherm of Propene on Zr-FUM
DOI: 10.1021/acs.iecr.7b03341
Article source: Figure 4A
Adsorbate Propene: InChIKey QQONPFPTGQHPMA-UHFFFAOYSA-N
Kind: experiment
Temperature: 298 K
Tabular data in the source: 0
pressure (bar)	uptake (cm3(STP)/g)
0.006611	18.3896
0.010827	26.6424
0.017572	30.8685
0.022631	34.2972
0.02769	36.2907
0.031062	37.6462
0.036121	39.3207
0.042023	40.1181
0.047082	41.3141
0.051719	42.1514
0.058043	42.9886
0.061416	43.3076
0.068582	43.8657
0.074063	44.3442
0.079965	44.9821
0.084181	45.3808
0.090083	45.7794
0.095142	46.0984
0.101887	46.7363
0.115799	47.5337
0.133083	48.4108
0.16428	49.6068
0.230467	51.5206
0.292859	52.8362
0.356939	53.7133
0.423547	54.7499
0.487626	55.1885
0.550019	55.6669
0.615785	55.9859
0.679021	56.3845
0.744365	56.8231
0.808022	57.0224
0.872101	57.3813
0.935759	57.7401
0.959367	57.6604
1.00153	57.8996
