Adsorption isotherm of Nitrogen on Zr-2,6-NDC
DOI: 10.1021/acs.iecr.7b03341
Article source: Figure 3D
Adsorbate Nitrogen: InChIKey IJGRMHOSHXDMSA-UHFFFAOYSA-N
Kind: experiment
Temperature: 77 K
Tabular data in the source: 0
pressure (bar)	uptake (cm3(STP)/g)
0.003203	169.759
0.004271	216.392
0.002135	256.479
0.002669	278.568
0.003203	291.658
0.003737	300.248
0.003203	331.746
0.004805	343.199
0.007474	352.199
0.011211	357.516
0.026693	383.287
0.05125	403.331
0.076875	421.738
0.101432	433.192
0.127057	435.646
0.153749	440.555
0.175103	440.555
0.201796	443.009
0.228488	444.646
0.251978	447.918
0.278137	449.554
0.304829	449.145
0.328852	451.191
0.355545	453.645
0.380102	452.827
0.405727	455.281
0.430284	456.099
0.454841	457.327
0.482068	458.145
0.507159	459.781
0.530648	459.781
0.557341	461.008
0.581898	461.008
0.607523	463.462
0.633148	462.644
0.658773	463.462
0.684398	463.462
0.709489	465.508
0.73458	466.735
0.760738	467.553
0.784762	468.371
0.811454	470.825
0.836011	471.644
0.862704	471.644
0.887261	473.28
0.912886	474.916
0.938511	474.098
0.963068	477.37
0.986557	480.643
1.00898	489.233
1.00578	490.46
0.959865	477.37
0.910751	475.734
0.861636	472.462
0.811454	470.007
0.761272	470.007
0.708955	466.735
0.658773	464.28
0.607523	462.644
0.558409	462.644
0.506091	461.008
0.456977	457.736
0.404659	455.281
0.354477	452.827
0.306431	450.373
0.254113	448.736
0.203931	444.646
0.153749	440.555
0.102499	432.374
0.05125	403.74
