Adsorption isotherm of Nitrogen on Zr-BDC-NH2
DOI: 10.1021/acs.iecr.7b03341
Article source: Figure S3C
Adsorbate Nitrogen: InChIKey IJGRMHOSHXDMSA-UHFFFAOYSA-N
Kind: experiment
Temperature: 77 K
Tabular data in the source: 0
pressure (bar)	uptake (cm3(STP)/g)
0.002022	42.9185
0.000506	53.4335
0.001517	62.8755
0.002528	73.8197
0	84.5494
0	94.8498
0	103.433
0	135.622
0.001517	146.781
0.000506	155.365
0.002528	170.815
0.001517	184.12
0.001517	190.558
0.002528	197.854
0.005562	220.601
0.006573	228.755
0.005562	237.339
0.023764	250.644
0.050056	255.794
0.072303	257.94
0.0991	260.944
0.123875	261.803
0.151179	260.944
0.175448	263.519
0.199717	264.807
0.222976	266.524
0.25129	266.524
0.27556	266.953
0.30084	266.524
0.32511	268.24
0.352413	267.382
0.377693	267.382
0.402974	267.811
0.430277	268.67
0.453536	268.24
0.479827	269.099
0.505108	269.528
0.530389	268.67
0.556681	268.67
0.58095	268.67
0.607242	266.953
0.632523	270.386
0.65477	270.386
0.681062	269.957
0.706342	268.67
0.732634	269.528
0.756904	269.528
0.783196	269.528
0.810499	269.528
0.832746	269.528
0.860049	269.957
0.88533	269.957
0.909599	269.099
0.935891	269.957
0.961172	270.815
0.987464	272.103
1.00769	280.687
0.963194	269.957
0.912633	268.24
0.862071	269.099
0.809488	267.811
0.76196	268.24
0.711399	267.382
0.657804	267.811
0.608253	268.24
0.557692	268.24
0.504097	270.386
0.455558	269.099
0.402974	269.099
0.352413	268.67
0.301851	267.382
0.253312	266.953
0.200729	266.524
0.151179	265.236
0.101628	261.373
0.048033	257.511
