Adsorption isotherm of Methane on Zr-BDC with defect
DOI: 10.1021/acs.iecr.7b03341
Article source: Figure S6A
Adsorbate Methane: InChIKey VNWKTOKETHGBQD-UHFFFAOYSA-N
Kind: experiment
Temperature: 298 K
Tabular data in the source: 0
pressure (bar)	uptake (cm3(STP)/g)
0.009699	0.693642
0.026188	0.924855
0.050436	0.924855
0.100873	1.15607
0.150339	1.38728
0.199806	2.31214
0.250242	2.77457
0.300679	3.23699
0.350145	3.69942
0.399612	4.16185
0.451018	4.62428
0.500485	5.08671
0.549952	5.54913
0.599418	6.12717
0.649855	6.7052
0.699321	7.05202
0.750727	7.39884
0.800194	7.86127
0.849661	8.3237
0.900097	8.55491
0.949564	9.24856
0.99418	9.71098
