Adsorption isotherm of N-propane on Zr-BDC-Br
DOI: 10.1021/acs.iecr.7b03341
Article source: Figure S5A
Adsorbate N-propane: InChIKey ATUOYWHBWRKTHZ-UHFFFAOYSA-N
Kind: experiment
Temperature: 298 K
Tabular data in the source: 0
pressure (bar)	uptake (cm3(STP)/g)
0.007318	15.0545
0.008392	18.421
0.013757	20.4199
0.019659	22.2084
0.023415	23.576
0.02878	24.3124
0.034146	25.2593
0.036292	26.6269
0.046487	27.6263
0.051316	27.9945
0.054535	28.731
0.058827	29.3622
0.064729	30.1512
0.070095	30.9402
0.077607	31.8871
0.082436	32.3079
0.086728	32.7287
0.091021	33.1495
0.096386	33.8859
0.115165	35.0958
0.131799	36.516
0.163455	38.5675
0.227305	42.197
0.290618	44.9323
0.35715	47.2468
0.41939	49.1405
0.484313	50.4029
0.550309	51.981
0.612549	52.8226
0.678009	53.822
0.741322	55.0319
0.807854	55.8735
0.870094	56.5047
0.933407	56.8203
0.955943	56.8203
0.99994	57.5567
