Adsorption isotherm of Propene on Zr-BDC
DOI: 10.1021/acs.iecr.7b03341
Article source: Figure S4C
Adsorbate Propene: InChIKey QQONPFPTGQHPMA-UHFFFAOYSA-N
Kind: experiment
Temperature: 273 K
Tabular data in the source: 0
pressure (bar)	uptake (cm3(STP)/g)
0.007429	17.6331
0.011144	24.2604
0.017831	29.9408
0.019316	33.7278
0.02526	38.3432
0.029718	40.8284
0.038633	44.6154
0.040862	46.3905
0.049034	49.4675
0.051263	51.0059
0.056464	53.1361
0.062407	54.5562
0.065379	55.7396
0.068351	56.4497
0.074294	57.8698
0.077266	59.5266
0.082467	60.5917
0.086181	61.1834
0.090639	62.8402
0.094354	63.787
0.10104	64.8521
0.112927	67.4556
0.134473	71.0059
0.164933	75.7396
0.231798	82.1302
0.291233	85.5621
0.352155	88.4024
0.420505	90.7692
0.483655	92.426
0.549034	94.0828
0.61367	95.2663
0.678306	96.213
0.742199	97.2781
0.807578	98.3432
0.871471	99.0533
0.936107	99.5266
0.957652	99.8817
1	100.118
