Adsorption isotherm of Methane on Zr-BDC-NO2
DOI: 10.1021/acs.iecr.7b03341
Article source: Figure S5B
Adsorbate Methane: InChIKey VNWKTOKETHGBQD-UHFFFAOYSA-N
Kind: experiment
Temperature: 298 K
Tabular data in the source: 0
pressure (bar)	uptake (cm3(STP)/g)
0.010638	0.229885
0.027128	0.827586
0.039894	0.827586
0.050532	0.91954
0.060106	1.01149
0.068617	1.10345
0.076064	1.28736
0.098404	1.65517
0.149468	2.39081
0.19734	3.03448
0.248404	3.77011
0.300532	4.41379
0.351596	4.96552
0.399468	5.51724
0.45266	6.25287
0.498404	6.8046
0.548404	7.35632
0.59734	7.63218
0.64734	8.18391
0.699468	8.82759
0.75266	9.28736
0.801596	9.56322
0.849468	10.023
0.898404	10.5747
0.94734	10.9425
0.996809	11.4483
