Adsorption isotherm of Propene on Zr-BPDC
DOI: 10.1021/acs.iecr.7b03341
Article source: Figure S4E
Adsorbate Propene: InChIKey QQONPFPTGQHPMA-UHFFFAOYSA-N
Kind: experiment
Temperature: 273 K
Tabular data in the source: 0
pressure (bar)	uptake (cm3(STP)/g)
0.005865	5.31818
0.01173	9.40909
0.016129	12.2727
0.02346	16.3636
0.029326	21.2727
0.033724	25.7727
0.035191	27.8182
0.041789	31.5
0.049853	37.2273
0.052786	39.2727
0.061584	44.1818
0.064516	47.0455
0.073314	53.1818
0.076979	56.4545
0.087977	61.3636
0.089443	63.4091
0.095308	66.6818
0.102639	70.7727
0.129032	83.0455
0.159091	97.1591
0.23607	129.273
0.306452	144
0.365836	152.182
0.429619	157.091
0.482405	159.955
0.546188	164.25
0.61437	166.5
0.675953	168.136
0.742669	170.182
0.806452	172.227
0.872434	172.636
0.935484	174.273
0.957478	174.886
1	175.5
