Adsorption isotherm of Nitrogen on TPB-DMTP-COF treated with 12M HCl
DOI: 10.1038/nchem.2352
Article source: Figure S3
Adsorbate Nitrogen: InChIKey IJGRMHOSHXDMSA-UHFFFAOYSA-N
Kind: experiment
Temperature: 77 K
Tabular data in the source: 0
pressure (bar)	uptake (cm3(STP)/g)
0.004945	172.414
0.009899	193.634
0.004945	221.22
0.009899	240.318
0.014844	263.66
0.027216	293.369
0.047015	323.077
0.066804	348.541
0.096502	399.47
0.121245	424.934
0.145989	453.581
0.16826	477.984
0.185577	499.204
0.206612	526.79
0.225164	562.865
0.240009	660.477
0.257335	707.162
0.299395	715.65
0.368681	732.626
0.405796	738.992
0.455284	743.236
0.509715	749.602
0.557966	755.968
0.611162	762.334
0.659413	767.639
0.712619	775.066
0.762106	780.371
0.812829	784.615
0.863552	792.042
0.914276	798.409
0.952627	811.141
0.994687	838.727
1.00211	855.703
1.00706	870.557
1.01696	893.899
0.024744	293.369
0.044542	323.077
0.061859	359.151
0.096502	403.714
0.111346	427.056
0.133617	452.52
0.155889	475.862
0.180632	507.692
0.212793	543.767
0.227637	641.379
0.242491	690.186
0.267235	726.26
0.287023	732.626
0.341465	743.236
0.38847	751.724
0.44044	760.212
0.492399	766.578
0.539414	772.944
0.591373	779.31
0.64086	781.432
0.695292	787.798
0.744779	792.042
0.796739	796.286
0.848708	804.775
0.900668	813.263
0.943964	828.117
