Adsorption isotherm of Nitrogen on [S-Py]0.17-TPB-DMTP-COFs (treated with 12M HCl)
DOI: 10.1038/nchem.2352
Article source: Figure S20
Adsorbate Nitrogen: InChIKey IJGRMHOSHXDMSA-UHFFFAOYSA-N
Kind: experiment
Temperature: 77 K
Tabular data in the source: 0
pressure (bar)	uptake (cm3(STP)/g)
0.002138	140.947
0.004276	158.774
0.006424	185.515
0.008562	205.571
0.019262	236.769
0.027824	261.281
0.0428	288.022
0.0642	328.134
0.081313	348.189
0.109137	379.387
0.130537	408.357
0.151937	435.098
0.173337	459.61
0.192588	490.808
0.207574	530.919
0.220412	593.315
0.245024	644.568
0.277124	667.967
0.322062	676.88
0.372349	686.908
0.406587	691.365
0.456874	698.05
0.507162	704.735
0.55745	709.192
0.607737	718.106
0.659099	723.677
0.708312	727.019
0.759674	733.705
0.811026	740.39
0.861313	751.532
0.911601	766.017
0.950125	789.415
0.972588	820.613
0.988638	858.496
0.9972	903.064
1.00362	947.632
1.01218	1012.26
0.012838	225.627
0.0214	247.911
0.0321	270.195
0.044938	301.393
0.077037	348.189
0.094161	370.474
0.115551	397.214
0.132675	417.27
0.158351	446.24
0.181889	481.894
0.220412	608.914
0.248226	664.624
0.28675	677.994
0.338111	684.68
0.387325	693.593
0.438687	702.507
0.490038	713.649
0.540326	720.334
0.590613	728.134
0.639837	733.705
0.693337	738.162
0.744688	744.847
0.79605	751.532
0.850613	762.674
0.910537	784.958
0.956538	831.755
0.977938	891.922
0.990776	947.632
1.00469	1000
