Adsorption isotherm of Nitrogen on TPB-DHTP-COF treated with 14M NaOH for a week
DOI: 10.1038/nchem.2352
Article source: Figure S7
Adsorbate Nitrogen: InChIKey IJGRMHOSHXDMSA-UHFFFAOYSA-N
Kind: experiment
Temperature: 77 K
Tabular data in the source: 0
pressure (bar)	uptake (cm3(STP)/g)
0.001084	0
0.013051	0
0.026091	0
0.034785	0
0.052182	0
0.078274	0
0.093493	0
0.117415	0
0.161988	0
0.20113	0
0.243525	0
0.284845	0
0.322892	0
0.373991	0
0.423994	0
0.476187	0
0.526191	0
0.574026	0
0.628387	0
0.677307	0
0.728405	0
0.757759	0
0.809952	0
0.86105	0
0.912138	0
0.952364	0
0.977371	0
0.991506	1.6269
1.0002	3.2538
1.01107	4.33839
