Adsorption isotherm of Nitrogen on [HCâ‰¡C].17-TPB-DMTP-COFs
DOI: 10.1038/nchem.2352
Article source: Figure S15
Adsorbate Nitrogen: InChIKey IJGRMHOSHXDMSA-UHFFFAOYSA-N
Kind: experiment
Temperature: 77 K
Tabular data in the source: 0
pressure (bar)	uptake (cm3(STP)/g)
0.00231	140.107
0.00231	155.08
0.004631	167.914
0.004631	182.888
0.006941	200
0.011571	221.39
0.018502	247.059
0.027763	270.588
0.043955	298.396
0.064777	334.759
0.083279	362.567
0.106412	394.652
0.129544	424.599
0.153842	449.198
0.173499	473.797
0.194321	497.326
0.210513	531.551
0.219764	589.305
0.240586	651.337
0.268349	691.979
0.303053	700.535
0.37014	713.369
0.405989	718.717
0.455729	724.064
0.506625	730.481
0.557521	736.898
0.608416	741.176
0.659302	745.455
0.710197	749.733
0.762248	756.15
0.811988	762.567
0.862884	768.984
0.911459	781.818
0.951948	798.93
0.973926	822.46
0.988962	851.337
0.999368	882.353
1.00631	918.717
1.01325	962.567
0.004631	193.583
0.006941	212.834
0.012726	234.225
0.020822	253.476
0.027763	279.144
0.041645	309.091
0.067087	349.733
0.080969	373.262
0.09485	392.513
0.113352	414.973
0.131864	439.572
0.152677	463.102
0.176974	487.701
0.201262	522.995
0.226705	637.433
0.251002	694.118
0.289171	709.091
0.338902	719.786
0.389797	728.342
0.439538	734.759
0.490433	742.246
0.541329	747.594
0.592214	752.941
0.641955	757.219
0.694005	762.567
0.744901	766.845
0.796952	772.193
0.849002	781.818
0.907994	798.93
0.950793	833.155
0.976236	875.936
0.987807	916.578
1.004	957.219
