Adsorption isotherm of Nitrogen on TPB-DHTP-COF treated with 12M HCl (for a week)
DOI: 10.1038/nchem.2352
Article source: Figure S7
Adsorbate Nitrogen: InChIKey IJGRMHOSHXDMSA-UHFFFAOYSA-N
Kind: experiment
Temperature: 77 K
Tabular data in the source: 0
pressure (bar)	uptake (cm3(STP)/g)
0	6.50759
0.004347	15.1844
0.015219	22.7766
0.029354	24.4035
0.045657	26.0304
0.078274	26.0304
0.093493	26.0304
0.117415	27.115
0.163072	27.115
0.202214	27.115
0.243525	27.115
0.283751	27.115
0.323977	27.115
0.375075	27.115
0.405513	27.115
0.455527	28.1996
0.505541	27.6573
0.576205	27.115
0.628387	28.1996
0.658825	28.7419
0.711018	29.2842
0.779503	29.2842
0.811036	31.4534
0.86105	31.4534
0.912138	34.1649
0.952364	35.7918
0.974108	39.0456
0.989327	41.2147
1.0002	45.5532
1.0089	54.2299
0.004347	31.4534
0.004347	44.4686
0.008694	54.2299
0.017398	58.026
0.02827	60.7375
0.04131	61.8221
0.06958	64.5336
0.093493	66.1605
0.122846	66.1605
0.163072	66.1605
0.202214	66.1605
0.243525	66.1605
0.284845	65.0759
0.334849	63.9913
0.387031	62.9067
0.437045	61.8221
0.487059	59.6529
0.537063	58.5683
0.588161	57.4837
0.639259	55.3145
0.689273	53.6876
0.740372	51.5184
0.790376	50.9761
0.841474	49.3492
0.892572	47.18
0.933882	47.18
0.97194	48.8069
1.0002	54.2299
