Adsorption isotherm of Nitrogen on TPB-DMTP-COF treated with boiling water
DOI: 10.1038/nchem.2352
Article source: Figure S3
Adsorbate Nitrogen: InChIKey IJGRMHOSHXDMSA-UHFFFAOYSA-N
Kind: experiment
Temperature: 77 K
Tabular data in the source: 0
pressure (bar)	uptake (cm3(STP)/g)
0.007427	210.61
0.009899	233.952
0.019799	255.172
0.032171	280.637
0.044542	310.345
0.061859	344.297
0.081658	374.005
0.103919	405.836
0.128662	437.666
0.150934	461.008
0.173205	486.472
0.195476	507.692
0.212793	533.156
0.227637	581.963
0.247436	688.064
0.264752	736.87
0.299395	747.48
0.371153	764.456
0.407033	769.761
0.457756	777.188
0.507243	785.676
0.55673	787.798
0.60869	794.164
0.660649	802.653
0.710136	806.897
0.762106	813.263
0.812829	819.629
0.863552	827.056
0.91304	838.727
0.952627	851.459
0.978607	869.496
0.989743	887.533
1.00459	902.387
1.01201	923.607
1.01201	955.438
0.024744	291.247
0.043306	317.772
0.064331	359.151
0.081658	386.737
0.108874	424.934
0.131145	448.276
0.150934	477.984
0.173205	501.326
0.200421	524.668
0.225164	632.891
0.241255	691.247
0.25238	732.626
0.289496	758.09
0.341465	770.822
0.389716	782.493
0.442912	789.92
0.492399	804.775
0.541886	815.385
0.593846	819.629
0.643333	824.934
0.695292	830.239
0.744779	834.483
0.796739	838.727
0.848708	845.093
0.900668	855.703
0.947683	870.557
0.969944	889.655
0.984798	910.875
1.00706	940.584
