Adsorption isotherm of Nitrogen on [HCâ‰¡C]1-TPB-DMTP-COFs
DOI: 10.1038/nchem.2352
Article source: Figure S15
Adsorbate Nitrogen: InChIKey IJGRMHOSHXDMSA-UHFFFAOYSA-N
Kind: experiment
Temperature: 77 K
Tabular data in the source: 0
pressure (bar)	uptake (cm3(STP)/g)
0.00231	93.0481
0.00231	103.743
0.00231	112.299
0.004631	129.412
0.006941	137.968
0.011571	148.663
0.018502	163.636
0.027763	180.749
0.043955	200
0.068242	222.46
0.08791	238.503
0.111042	254.545
0.134175	270.588
0.154997	287.701
0.173499	309.091
0.189691	343.316
0.215143	362.567
0.240586	366.845
0.281076	371.123
0.323865	373.262
0.373606	378.61
0.405989	381.818
0.456885	385.027
0.506625	388.235
0.557521	392.513
0.608416	394.652
0.659302	398.93
0.710197	403.209
0.762248	406.417
0.811988	411.765
0.861729	417.112
0.912614	426.738
0.951948	443.85
0.975081	468.449
0.990118	499.465
0.999368	540.107
0.006941	152.941
0.011571	165.775
0.018502	180.749
0.027763	196.791
0.040479	212.834
0.060147	234.225
0.074028	242.781
0.09253	255.615
0.108732	268.449
0.129544	284.492
0.154997	304.813
0.178129	334.759
0.205892	375.401
0.246372	380.749
0.286861	385.027
0.337747	388.235
0.388642	392.513
0.439538	396.791
0.490433	401.07
0.539008	407.487
0.592214	409.626
0.641955	411.765
0.694005	416.043
0.744901	419.251
0.796952	422.46
0.849002	428.877
0.909149	441.711
0.960044	480.214
0.982022	537.968
0.994748	590.374
1.00631	638.503
1.01325	651.337
