Adsorption isotherm of Nitrogen on [HCâ‰¡C].5-TPB-DMTP-COFs
DOI: 10.1038/nchem.2352
Article source: Figure S15
Adsorbate Nitrogen: InChIKey IJGRMHOSHXDMSA-UHFFFAOYSA-N
Kind: experiment
Temperature: 77 K
Tabular data in the source: 0
pressure (bar)	uptake (cm3(STP)/g)
0	9.62567
0	20.3209
0	33.1551
0	52.4064
0	67.3797
0	84.492
0	99.4652
0	112.299
0	127.273
0.00231	137.968
0.00231	157.219
0.006941	176.471
0.013882	195.722
0.018502	210.695
0.030073	229.947
0.043955	257.754
0.069397	298.396
0.085589	315.508
0.106412	336.898
0.127234	360.428
0.151521	379.679
0.173499	396.791
0.192011	418.182
0.205892	452.406
0.219764	542.246
0.240586	585.027
0.2776	593.583
0.321555	600
0.371295	607.487
0.404834	610.695
0.455729	617.112
0.506625	621.39
0.557521	625.668
0.610726	629.947
0.659302	636.364
0.710197	640.642
0.761093	644.92
0.811988	649.198
0.862884	655.615
0.911459	665.241
0.953103	679.144
0.975081	699.465
0.992428	720.856
0.999368	739.037
1.00631	762.567
1.01325	796.791
0.078659	319.786
0.09485	334.759
0.111042	354.011
0.134175	371.123
0.157307	392.513
0.18738	422.46
0.210513	512.299
0.222084	561.497
0.249847	593.583
0.289171	602.139
0.340067	610.695
0.388642	614.973
0.441848	621.39
0.492743	627.807
0.541329	636.364
0.592214	640.642
0.64311	644.92
0.694005	649.198
0.747211	653.476
0.798107	659.893
0.851312	668.449
0.906838	681.283
0.950793	704.813
0.976236	730.481
0.990118	758.289
1.00515	787.166
