Adsorption isotherm of Nitrogen on [S-Py]0.17-TPB-DMTP-COFs (treated with 14M NaOH)
DOI: 10.1038/nchem.2352
Article source: Figure S20
Adsorbate Nitrogen: InChIKey IJGRMHOSHXDMSA-UHFFFAOYSA-N
Kind: experiment
Temperature: 77 K
Tabular data in the source: 0
pressure (bar)	uptake (cm3(STP)/g)
0.24395	642.34
0.273912	673.538
0.303864	677.994
0.372349	691.365
0.406587	695.822
0.4558	700.279
0.507162	709.192
0.558514	713.649
0.607737	718.106
0.661237	724.791
0.71045	729.248
0.761812	733.705
0.811026	740.39
0.860249	749.304
0.911601	764.903
0.950125	784.958
0.973662	811.699
0.988638	849.582
0.9972	896.379
1.00148	943.175
1.01218	1010.03
0.044938	300.279
0.068475	341.504
0.077037	352.646
0.094161	377.159
0.113413	401.671
0.134813	421.727
0.160489	452.925
0.186175	494.15
0.209712	555.432
0.224688	617.827
0.250374	669.081
0.288888	680.223
0.338111	693.593
0.389463	700.279
0.438687	706.964
0.490038	715.877
0.539262	722.563
0.590613	729.248
0.639837	733.705
0.692263	739.276
0.743624	744.847
0.850613	762.674
0.911601	784.958
0.956538	831.755
0.977938	889.694
0.990776	943.175
1.00576	994.429
