Adsorption isotherm of Nitrogen on TPB-DMTP-COF treated with 14M NaOH
DOI: 10.1038/nchem.2352
Article source: Figure S3
Adsorbate Nitrogen: InChIKey IJGRMHOSHXDMSA-UHFFFAOYSA-N
Kind: experiment
Temperature: 77 K
Tabular data in the source: 0
pressure (bar)	uptake (cm3(STP)/g)
0	15.3846
0	32.3607
0	55.7029
0	76.9231
0.002472	106.631
0.002472	129.973
0.002472	155.438
0.004945	183.024
0.012372	208.488
0.012372	227.586
0.022271	250.928
0.029688	274.271
0.044542	300.796
0.066804	337.931
0.08413	365.517
0.108874	397.347
0.131145	427.056
0.154652	450.398
0.176913	471.618
0.195476	492.838
0.215265	522.546
0.227637	575.597
0.240009	647.745
0.267235	705.04
0.301867	715.65
0.371153	730.504
0.408269	734.748
0.457756	743.236
0.509715	747.48
0.559203	753.846
0.609926	758.09
0.660649	762.334
0.711383	766.578
0.764578	772.944
0.812829	777.188
0.864789	783.554
0.91304	789.92
0.952627	804.775
0.974898	825.995
0.992215	855.703
0.999642	887.533
1.00706	925.729
1.01449	978.78
0.069286	359.151
0.091547	390.981
0.108874	420.69
0.131145	441.91
0.158361	475.862
0.225164	598.939
0.235064	662.599
0.247436	702.918
0.287023	730.504
0.338983	740.053
0.390952	749.602
0.44044	758.09
0.492399	765.517
0.54065	772.944
0.591373	779.31
0.642097	783.554
0.69282	787.798
0.744779	789.92
0.796739	796.286
0.848708	802.653
0.900668	811.141
0.947683	828.117
0.972426	845.093
0.992215	915.119
1.00211	968.17
