Adsorption isotherm of Nitrogen on TPB-DHTP-COF treated with boiling water (for a week)
DOI: 10.1038/nchem.2352
Article source: Figure S7
Adsorbate Nitrogen: InChIKey IJGRMHOSHXDMSA-UHFFFAOYSA-N
Kind: experiment
Temperature: 77 K
Tabular data in the source: 0
pressure (bar)	uptake (cm3(STP)/g)
0.005431	33.6226
0.008694	41.2147
0.015219	48.8069
0.017398	55.3145
0.02827	61.8221
0.043489	66.1605
0.076105	71.5835
0.091324	74.8373
0.115237	75.9219
0.13916	78.0911
0.182648	80.2603
0.22178	81.3449
0.2631	82.4295
0.303327	82.9718
0.35333	83.5141
0.404429	84.5987
0.455527	84.0564
0.506625	84.5987
0.556639	85.6833
0.607737	86.2256
0.656657	86.7679
0.706661	87.8525
0.759937	88.3948
0.809952	89.4794
0.86105	90.564
0.911054	92.1909
0.952364	94.9024
0.976287	97.6139
0.991506	100.868
0.998031	104.121
1.00672	111.171
0.008694	72.6681
0.008694	80.2603
0.013051	86.7679
0.017398	91.1063
0.030438	95.4447
0.039142	98.6985
0.071758	106.291
0.089146	108.46
0.123941	111.714
0.163072	113.883
0.204393	114.967
0.244619	114.967
0.284845	114.967
0.334849	114.967
0.384863	114.425
0.435961	113.341
0.487059	112.798
0.535979	111.714
0.585993	110.629
0.637091	109.544
0.689273	108.46
0.739277	107.375
0.789291	106.291
0.839305	105.206
0.891488	104.121
0.930619	104.121
0.97194	106.291
1.0002	111.714
