Adsorption isotherm of Nitrogen on TPB-TP-COF
DOI: 10.1038/nchem.2352
Article source: Figure S10
Adsorbate Nitrogen: InChIKey IJGRMHOSHXDMSA-UHFFFAOYSA-N
Kind: experiment
Temperature: 77 K
Tabular data in the source: 0
pressure (bar)	uptake (cm3(STP)/g)
0.006201	4.0404
0.02068	4.0404
0.03515	4.0404
0.047562	4.0404
0.076511	3.0303
0.095124	4.0404
0.115804	4.0404
0.163356	4.0404
0.204717	4.0404
0.244011	4.0404
0.283295	4.0404
0.324655	2.0202
0.374284	2.0202
0.423913	2.0202
0.476643	2.0202
0.525238	2.0202
0.575901	3.0303
0.608984	2.0202
0.676192	0
0.709275	1.0101
0.760971	2.0202
0.8106	4.0404
0.862296	6.06061
0.911925	9.09091
0.953286	14.1414
0.976033	27.2727
0.99257	38.3838
1.00292	52.5252
1.00912	76.7677
0.068242	8.08081
0.086846	6.06061
0.124072	8.08081
0.339125	4.0404
0.38772	4.0404
0.438383	4.0404
0.489045	2.0202
0.541775	4.0404
0.591404	6.06061
0.641033	5.05051
0.692729	2.0202
0.741324	5.05051
0.790953	6.06061
0.844716	7.07071
0.896412	12.1212
0.937773	21.2121
0.973956	36.3636
0.999804	68.6869
