Adsorption isotherm of Nitrogen on TPB-DHTP-COF
DOI: 10.1038/nchem.2352
Article source: Figure S7
Adsorbate Nitrogen: InChIKey IJGRMHOSHXDMSA-UHFFFAOYSA-N
Kind: experiment
Temperature: 77 K
Tabular data in the source: 0
pressure (bar)	uptake (cm3(STP)/g)
0	8.68621
0	18.4582
0	26.0586
0	35.2877
0	44.5168
0	54.2888
0	65.1466
0	72.747
-0.002178	81.4332
0.002178	89.5766
0	98.8056
0.002178	106.406
0.002178	114.007
0.002178	123.779
0.002178	137.351
0.002178	145.494
0.008714	154.18
0.008714	161.781
0.013071	172.638
0.021795	182.41
0.030509	191.097
0.039223	201.954
0.07191	214.984
0.092611	220.413
0.11549	226.927
0.141632	232.356
0.180855	242.128
0.224445	249.729
0.261479	266.015
0.303975	273.073
0.372613	275.787
0.426001	279.045
0.455415	281.216
0.507719	283.931
0.557835	285.559
0.610128	287.731
0.660244	289.359
0.710369	292.074
0.758306	293.16
0.8106	296.96
0.862894	298.046
0.911925	305.103
0.952232	310.532
0.9773	318.675
0.992549	327.904
1.00126	339.848
1.00889	360.478
0.006535	154.18
0.002178	162.866
0.002178	172.638
0.004357	183.496
0.008714	192.182
0.013071	201.954
0.017428	211.726
0.02833	224.756
0.04358	239.957
0.058829	246.471
0.074089	254.615
0.09479	262.758
0.125298	271.987
0.163427	280.13
0.207007	288.816
0.247324	301.303
0.285453	312.704
0.337747	314.875
0.385694	315.961
0.437987	314.875
0.490281	318.132
0.538218	315.961
0.590522	317.047
0.641722	316.504
0.690753	315.961
0.741962	316.504
0.790994	315.961
0.843287	315.961
0.89776	317.047
0.939161	319.218
0.978384	330.619
1.00454	353.963
