Adsorption isotherm of Nitrogen on [(S)-Py]0.34-TPB-DMTP-COFs
DOI: 10.1038/nchem.2352
Article source: Figure 4 (b)
Adsorbate Nitrogen: InChIKey IJGRMHOSHXDMSA-UHFFFAOYSA-N
Kind: experiment
Temperature: 77 K
Tabular data in the source: 0
pressure (bar)	uptake (cm3(STP)/g)
0.004904	188.832
0.01144	207.107
0.016344	223.35
0.022879	243.655
0.026152	259.898
0.044127	280.203
0.067006	315.736
0.086613	341.117
0.10786	367.513
0.13156	394.924
0.152808	423.35
0.171594	448.731
0.189579	483.249
0.207554	528.934
0.230433	566.497
0.258217	580.711
0.300702	588.833
0.370981	602.03
0.403669	605.076
0.454331	609.137
0.504994	617.259
0.556467	621.32
0.609581	627.411
0.660244	631.472
0.709275	637.563
0.760758	644.67
0.812231	649.746
0.864535	661.929
0.913556	677.157
0.952779	702.538
0.9773	732.995
0.990371	771.574
1.00018	809.137
1.00835	844.67
1.01325	897.462
0.031056	272.081
0.062102	320.812
0.08335	345.178
0.091517	367.513
0.178139	477.157
0.196115	515.736
0.21409	560.406
0.246777	590.863
0.287631	600
0.338294	607.107
0.388956	615.228
0.439619	621.32
0.489461	628.426
0.540944	635.533
0.589975	641.624
0.642269	645.685
0.692111	650.761
0.742773	655.838
0.795888	663.959
0.849823	676.142
0.907842	702.538
0.951148	743.147
0.974027	781.726
0.992002	834.518
