Adsorption isotherm of Nitrogen on [(S)-Py]0.5-TPB-DMTP-COFs
DOI: 10.1038/nchem.2352
Article source: Figure 4 (b)
Adsorbate Nitrogen: InChIKey IJGRMHOSHXDMSA-UHFFFAOYSA-N
Kind: experiment
Temperature: 77 K
Tabular data in the source: 0
pressure (bar)	uptake (cm3(STP)/g)
0	14.2132
0	32.4873
0	56.8528
0	81.2183
0.001631	107.614
0.003273	134.01
0.004904	158.376
0.01144	172.589
0.019606	190.863
0.026152	213.198
0.040854	233.503
0.065375	268.02
0.086613	286.294
0.109492	310.66
0.132381	335.025
0.151987	359.391
0.171594	383.756
0.19121	414.213
0.21409	438.579
0.23779	456.853
0.261479	462.944
0.302344	469.036
0.372613	477.157
0.404479	482.233
0.455962	485.279
0.506625	491.371
0.557288	494.416
0.606319	497.462
0.658613	502.538
0.709275	505.584
0.759937	513.706
0.812231	517.766
0.862894	525.888
0.911925	538.071
0.951969	560.406
0.975658	588.833
0.990371	625.381
1.00018	665.99
1.00672	704.569
1.01325	757.36
0.042496	255.838
0.060471	278.173
0.075173	296.447
0.093158	312.69
0.111944	330.964
0.13074	353.299
0.151987	373.604
0.173235	402.03
0.194483	428.426
0.210817	452.792
0.246777	475.127
0.286811	480.203
0.337473	487.31
0.387325	491.371
0.439619	495.431
0.490281	503.553
0.539312	507.614
0.589975	511.675
0.642269	515.736
0.692111	520.812
0.743594	525.888
0.795888	531.98
0.849823	542.132
0.910294	562.437
0.952779	603.046
0.9773	651.777
0.992002	696.447
1.00672	741.117
