Adsorption isotherm of Nitrogen on [HCâ‰¡C].34-TPB-DMTP-COFs
DOI: 10.1038/nchem.2352
Article source: Figure S15
Adsorbate Nitrogen: InChIKey IJGRMHOSHXDMSA-UHFFFAOYSA-N
Kind: experiment
Temperature: 77 K
Tabular data in the source: 0
pressure (bar)	uptake (cm3(STP)/g)
0.011571	197.861
0.018502	217.112
0.028918	240.642
0.043955	268.449
0.069397	304.813
0.086754	332.62
0.108732	358.289
0.133019	383.957
0.154997	405.348
0.193166	443.85
0.211668	484.492
0.223239	552.941
0.246372	614.973
0.27529	645.989
0.303053	651.337
0.37245	664.171
0.407154	668.449
0.45804	674.866
0.506625	681.283
0.557521	685.562
0.608416	691.979
0.659302	696.257
0.710197	702.674
0.759937	709.091
0.811988	715.508
0.861729	725.134
0.911459	739.037
0.953103	758.289
0.976236	786.096
0.992428	818.182
1.00052	850.267
1.01094	891.979
0.018502	225.668
0.030073	251.337
0.043955	279.144
0.064777	309.091
0.075183	326.203
0.09253	349.733
0.111042	371.123
0.129544	390.374
0.152677	413.904
0.18044	439.572
0.209358	498.396
0.222084	582.888
0.247527	644.92
0.288016	659.893
0.337747	670.588
0.388642	677.005
0.441848	684.492
0.490433	694.118
0.541329	700.535
0.592214	706.952
0.641955	712.299
0.694005	717.647
0.744901	721.925
0.795796	730.481
0.849002	741.176
0.906838	764.706
0.950793	805.348
0.983177	854.545
1.00284	886.631
