Adsorption isotherm of Nitrogen on [S-Py]0.17-TPB-DMTP-COFs (treated with boiling water)
DOI: 10.1038/nchem.2352
Article source: Figure S20
Adsorbate Nitrogen: InChIKey IJGRMHOSHXDMSA-UHFFFAOYSA-N
Kind: experiment
Temperature: 77 K
Tabular data in the source: 0
pressure (bar)	uptake (cm3(STP)/g)
0.074899	332.591
0.104851	370.474
0.128399	399.443
0.149799	423.955
0.169051	448.468
0.188313	477.437
0.205436	514.206
0.218274	564.345
0.24395	604.457
0.267488	637.883
0.301726	644.568
0.370201	657.939
0.404449	662.396
0.4558	669.081
0.507162	673.538
0.55745	679.109
0.607737	684.68
0.656951	689.136
0.708312	695.822
0.759674	702.507
0.8121	705.85
0.860249	713.649
0.910537	725.905
0.947987	747.075
0.973662	773.816
0.9865	811.699
0.995062	865.181
1.00362	932.033
1.01004	987.744
0.018188	250.139
0.029962	267.967
0.044938	292.479
0.066337	339.276
0.115551	399.443
0.179751	481.894
0.220412	575.487
0.252512	635.655
0.288888	651.253
0.339175	660.167
0.389463	666.852
0.440825	673.538
0.492176	682.451
0.5414	691.365
0.591687	695.822
0.643049	701.393
0.693337	705.85
0.745762	711.421
0.797114	718.106
0.852761	728.134
0.918025	748.189
0.95975	796.1
0.977938	845.125
0.995062	936.49
1.00362	977.716
