Adsorption isotherm of Nitrogen on TPB-DMTP-COF
DOI: 10.1038/nchem.2352
Article source: Figure 2 (d)
Adsorbate Nitrogen: InChIKey IJGRMHOSHXDMSA-UHFFFAOYSA-N
Kind: experiment
Temperature: 77 K
Tabular data in the source: 0
pressure (bar)	uptake (cm3(STP)/g)
0	11.4548
0	25.2005
0	38.9462
0	50.4009
0	66.4376
0	80.1833
0	93.929
0	112.257
0	126.002
0	137.457
0	150.057
0.002999	164.948
0.002999	176.403
0.002999	194.731
0.002999	208.477
0.006009	229.095
0.015006	249.714
0.018016	270.332
0.025524	281.787
0.04203	311.569
0.066054	350.515
0.08106	373.425
0.099076	410.08
0.12309	432.99
0.141105	460.481
0.16212	483.391
0.189143	504.009
0.20115	536.082
0.222165	572.738
0.24318	701.031
0.255187	737.686
0.288209	753.723
0.315232	758.305
0.36627	769.759
0.411309	778.923
0.456337	785.796
0.507375	792.669
0.564421	799.542
0.610949	806.415
0.663486	813.288
0.708525	820.16
0.765571	822.451
0.816609	829.324
0.864637	833.906
0.918683	847.652
0.963712	863.688
0.978729	882.016
0.993735	904.926
1.00574	925.544
1.00574	950.745
1.01175	980.527
0.231173	666.667
0.246179	721.649
0.339246	776.632
0.393293	785.796
0.441331	794.96
0.492369	804.124
0.543406	813.288
0.591434	820.16
0.642471	822.451
0.696518	829.324
0.744546	838.488
0.795594	845.361
0.846631	849.943
0.906666	865.979
0.948706	884.307
0.969721	909.507
