Adsorption isotherm of Nitrogen on C6H10CuN3
DOI: 10.1021/Ja800550a
Adsorbate Nitrogen: InChIKey IJGRMHOSHXDMSA-UHFFFAOYSA-N
Temperature: 77 K
Tabular data in the source: 0
pressure (bar)	uptake (ml/g)
0.0463331	0.0157954
0.227848	0.759494
0.332097	0.795033
0.432508	1.17017
0.532918	1.54531
0.660356	1.92967
0.760854	3.66847
0.861286	4.38453
0.892219	5.07689
0.92699	5.42966
0.973367	6.12728
