Adsorption isotherm of Ethanol on C6H10CuN3
DOI: 10.1021/Ja800550a
Adsorbate Ethanol: InChIKey LFQSCWFLJHTTHZ-UHFFFAOYSA-N
Temperature: 298 K
Tabular data in the source: 0
pressure (bar)	uptake (mmol/g)
0.00116196	0.132359
0.00162048	0.330897
0.00184357	0.573555
0.00229639	0.904452
0.00251853	1.16917
0.002978	1.34565
0.00340044	2.38246
0.00340899	2.18392
0.00429659	3.26485
0.0049858	3.52957
0.00520699	3.81634
0.00589619	4.08106
0.0070496	4.41196
0.0100808	4.52226
0.0138144	4.58844
0.021052	4.63256
0.0278215	4.69874
0.034124	4.76492
0.0411271	4.8311
0.0476641	4.87522
0.0546681	4.91933
0.0614377	4.98551
0.0684408	5.05169
0.0749768	5.11787
0.0773074	5.22817
