Adsorption isotherm of Water on C6H10CuN3
DOI: 10.1021/Ja800550a
Adsorbate Water: InChIKey XLYOFNOQVPJJNP-UHFFFAOYSA-N
Temperature: 298 K
Tabular data in the source: 0
pressure (bar)	uptake (mmol/g)
0.00169821	0.109355
0.00358512	0.106011
0.0050003	0.103503
0.00660417	0.10066
0.0134914	0.144637
0.0151896	0.0854443
0.0168878	0.0824345
0.018586	0.0794248
0.0203786	0.13243
0.0218881	0.185938
0.023775	0.126411
0.0269827	0.176908
0.0297188	0.115877
0.0308509	0.170053
