Adsorption isotherm of Nitrogen on C6H10CuN3
DOI: 10.1021/Ja800550a
Adsorbate Nitrogen: InChIKey IJGRMHOSHXDMSA-UHFFFAOYSA-N
Temperature: 195 K
Tabular data in the source: 0
pressure (bar)	uptake (ml/g)
0.0116052	0.344865
0.0503477	2.40353
0.077485	4.11732
0.112345	5.83375
0.135599	7.20532
0.174341	9.26398
0.193713	10.2933
0.278964	15.0951
0.298335	16.1244
0.313845	17.1524
0.337099	18.524
0.356471	19.5533
0.414562	22.3004
0.461071	25.0435
0.511397	27.1062
0.561766	29.8506
0.608253	32.2528
0.658579	34.3154
0.71281	37.0612
0.759274	39.1225
0.813461	41.1864
0.859926	43.2477
0.914091	44.9707
0.964417	47.0333
1.00706	49.7751
