Adsorption isotherm of Methanol on C6H10CuN3
DOI: 10.1021/Ja800550a
Adsorbate Methanol: InChIKey OKKJLVBELUTLKV-UHFFFAOYSA-N
Temperature: 298 K
Tabular data in the source: 0
pressure (bar)	uptake (mmol/g)
0.00251131	0.0317166
0.00450973	0.222016
0.0055069	0.348882
0.00695157	1.3321
0.00697404	0.983214
0.00791195	2.02986
0.00888256	2.56904
0.00935458	3.04479
0.00981229	3.74256
0.0108033	3.96457
0.0112856	4.28174
0.013286	4.44032
0.0152824	4.66234
0.0182903	4.7892
0.0223035	4.91607
0.0298374	5.01122
0.0383787	5.07465
0.0479294	5.07465
0.0579788	5.13809
0.0670268	5.13809
0.0770782	5.1698
0.0861263	5.1698
0.0961776	5.20152
0.105226	5.20152
0.114776	5.20152
0.134381	5.20152
0.143429	5.20152
0.152477	5.20152
0.161521	5.26495
