Adsorption isotherm of Benzene on C6H10CuN3
DOI: 10.1021/Ja800550a
Adsorbate Benzene: InChIKey UHOVQNZJYSORNB-UHFFFAOYSA-N
Temperature: 298 K
Tabular data in the source: 0
pressure (bar)	uptake (mmol/g)
0.000433106	0.000433106
0.00129932	0.699364
0.00173242	0.831301
0.00259863	1.05558
0.00346485	1.20067
0.00433106	1.31936
0.00563038	1.39841
0.00692969	1.54346
0.0073628	2.04494
0.0077959	1.87332
0.00866212	2.18998
0.0103945	2.29539
0.0134263	2.33467
0.0177573	2.40021
0.0225215	2.41291
0.0294512	2.43859
0.0372471	2.46417
0.0441768	2.48985
0.0515396	2.48908
0.0584693	2.50156
0.0662652	2.51395
0.0731949	2.52642
0.0809908	2.53881
0.0887867	2.538
0.0957164	2.55048
0.103079	2.57611
0.110442	2.57534
0.117372	2.58782
0.120837	2.61386
