Adsorption isotherm of Cyclohexane on C6H10CuN3
DOI: 10.1021/Ja800550a
Adsorbate Cyclohexane: InChIKey XDTMQSROBMDMFD-UHFFFAOYSA-N
Temperature: 298 K
Tabular data in the source: 0
pressure (bar)	uptake (mmol/g)
0.00444027	0.0240813
0.0137648	0.0232033
0.0230894	0.0223254
0.032414	0.0336971
0.0417386	0.0328191
0.0506191	0.0442327
0.0599437	0.0433547
0.0697123	0.0546846
0.0790369	0.041557
0.0879174	0.0652202
0.097242	0.0643422
0.106123	0.0757558
0.115891	0.0870857
0.125216	0.0984574
