Adsorption isotherm of Acetonitrile on C6H10CuN3
DOI: 10.1021/Ja800550a
Adsorbate Acetonitrile: InChIKey WEVYAHXRMPXWCK-UHFFFAOYSA-N
Temperature: 298 K
Tabular data in the source: 0
pressure (bar)	uptake (mmol/g)
0.00139775	0.049511
0.00244108	0.173288
0.00482379	1.36155
0.00650764	2.52506
0.00784845	3.56479
0.00957357	4.01039
0.0116488	4.45599
0.0158364	4.70354
0.0207299	4.85208
0.0277272	4.9511
0.0343772	5.00061
0.0413773	5.05012
0.0483788	5.07488
0.0560821	5.07488
0.0634352	5.07488
0.0704368	5.09963
0.0777884	5.12439
0.085143	5.09963
0.0924933	5.14914
0.0998464	5.14914
0.107198	5.1739
0.114201	5.1739
