Adsorption isotherm of Nitrogen on ZIF-8(D413)
DOI: 10.1007/s10450-020-00219-2
Article source: Figure 5 (a)
Adsorbate Nitrogen: InChIKey IJGRMHOSHXDMSA-UHFFFAOYSA-N
Kind: experiment
Temperature: 77 K
Tabular data in the source: 0
pressure (bar)	uptake (cm3(STP)/g)
0	5.21173
0	12.1607
0	24.3214
0	39.9566
0	59.0662
0	74.7014
0	88.5993
0	102.497
0	118.132
0	138.979
0	158.089
0	181.542
0	206.732
0	233.659
0.003161	285.776
0.007893	337.894
0.020518	373.507
0.026831	397.828
0.042617	414.332
0.056813	416.938
0.083644	421.281
0.104162	423.887
0.130993	425.624
0.154673	427.362
0.178342	429.099
0.230423	432.573
0.280934	435.179
0.304603	436.916
0.329864	437.785
0.356684	439.522
0.380364	440.391
0.405614	442.128
0.429294	443.865
0.456125	445.603
0.479794	446.471
0.506625	447.34
0.531875	449.077
0.557125	450.814
0.582386	451.683
0.612368	453.42
0.624993	453.42
0.637618	453.42
0.650243	455.157
0.659717	455.157
0.673923	456.026
0.688128	456.895
0.700754	456.895
0.713379	456.895
0.738629	460.369
0.763879	462.106
0.785978	462.106
0.812809	464.712
0.83964	467.318
0.861739	469.055
0.893301	470.793
0.912239	474.267
0.934338	479.479
0.951695	488.165
0.96275	495.114
0.972213	507.275
0.981687	528.122
0.98958	573.29
0.999044	656.677
1.00063	677.524
1.00378	715.744
0.153092	429.099
0.203592	432.573
0.254103	435.179
0.299871	437.785
0.355114	442.128
0.405614	446.471
0.456125	449.077
0.506625	451.683
0.560287	453.42
0.607636	455.157
0.621842	455.157
0.634467	456.026
0.647092	456.895
0.659717	456.895
0.672342	457.763
0.684967	457.763
0.697592	458.632
0.710217	458.632
0.722853	459.501
0.735478	460.369
0.748103	460.369
0.762309	462.106
0.773353	462.106
0.785978	462.975
0.800184	463.844
0.811228	464.712
0.823853	465.581
0.836489	466.45
0.850684	468.187
0.863309	469.924
0.872783	470.793
0.88857	474.267
0.904346	478.61
0.918552	484.691
0.934338	500.326
0.950114	522.91
0.958008	548.1
0.967481	581.976
0.978526	647.123
0.984838	691.422
0.988	703.583
0.994312	712.269
1.00378	715.744
