Adsorption isotherm of Hydrogen on ZIF-8(D413)
DOI: 10.1007/s10450-020-00219-2
Article source: Figure 6 (a)
Adsorbate Hydrogen: InChIKey UFHFLCQGNIYNRP-UHFFFAOYSA-N
Kind: experiment
Temperature: 77 K
Tabular data in the source: 0
pressure (bar)	uptake (wt%)
0.3681	0.3821
0.8589	1.11572
2.33129	1.94869
5.15337	2.50655
8.58896	2.79312
12.0859	2.91539
14.6626	2.95742
16.1963	2.97271
17.4233	2.97271
18.8957	2.96124
20.6749	2.9536
23.9264	2.91921
28.8344	2.84279
34.1718	2.73963
43.0675	2.54858
51.6564	2.34607
52.2086	2.32697
