Adsorption isotherm of Hydrogen on ZIF-8(D4133)
DOI: 10.1007/s10450-020-00219-2
Article source: Figure 6 (b)
Adsorbate Hydrogen: InChIKey UFHFLCQGNIYNRP-UHFFFAOYSA-N
Kind: experiment
Temperature: 300 K
Tabular data in the source: 0
pressure (bar)	uptake (wt%)
2.41648	0.01028
3.89755	0.01677
4.83296	0.02002
6.00223	0.02489
7.01559	0.02922
8.1069	0.03355
9.19822	0.03788
9.97773	0.04058
11.6147	0.04789
13.7194	0.05628
16.0579	0.06439
18.2405	0.07305
20.1114	0.079
24.0089	0.0947
29.5434	0.11337
35.3898	0.13447
40.7684	0.15368
45.6793	0.17316
50.3563	0.18696
55.1893	0.20455
60.1002	0.22267
65.245	0.23404
