Adsorption isotherm of Nitrogen on ZIF-8(D303)
DOI: 10.1007/s10450-020-00219-2
Article source: Figure 5 (a)
Adsorbate Nitrogen: InChIKey IJGRMHOSHXDMSA-UHFFFAOYSA-N
Kind: experiment
Temperature: 77 K
Tabular data in the source: 0
pressure (bar)	uptake (cm3(STP)/g)
0	255.375
0.007893	300.543
0.017357	319.653
0.026831	350.054
0.053662	373.507
0.082073	377.85
0.105743	379.587
0.132574	381.325
0.179923	383.931
0.228853	385.668
0.277772	388.274
0.329864	389.142
0.378783	390.879
0.430864	392.617
0.454544	392.617
0.482955	392.617
0.503464	394.354
0.531875	394.354
0.555555	394.354
0.582386	394.354
0.609217	396.091
0.628154	396.091
0.653404	396.091
0.675503	396.091
0.707066	397.828
0.729165	399.566
0.754415	399.566
0.781246	399.566
0.808077	399.566
0.831747	402.172
0.899614	408.252
0.912239	410.858
0.921713	413.464
0.931177	416.069
0.942231	419.544
0.950114	423.887
0.961169	429.967
0.970633	439.522
0.978526	455.157
0.986419	479.479
0.997464	550.706
1.00063	574.159
0.149941	382.193
0.202022	384.799
0.249371	386.536
0.303033	389.142
0.355114	390.879
0.405614	391.748
0.438758	391.748
0.487687	392.617
0.539768	393.485
0.588698	392.617
0.613948	392.617
0.640779	394.354
0.666029	394.354
0.69128	394.354
0.718111	396.091
0.74179	396.091
0.768621	396.96
0.793871	398.697
0.820702	399.566
0.849114	403.04
0.863309	403.909
0.883828	408.252
0.898033	412.595
0.912239	417.807
0.926445	427.362
0.943802	446.471
0.950114	458.632
0.956437	476.004
0.976945	540.282
0.983258	577.633
0.991151	592.4
1.00063	595.874
