Adsorption isotherm of Carbon Dioxide on ZIF-8(D303)
DOI: 10.1007/s10450-020-00219-2
Article source: Figure 7
Adsorbate Carbon Dioxide: InChIKey CURLTUGMZLYLDI-UHFFFAOYSA-N
Kind: experiment
Temperature: 300 K
Tabular data in the source: 0
pressure (bar)	uptake (wt%)
1.08333	3.28228
2.58333	7.98687
4.75	14.6061
7.41667	21.5536
9.95833	26.7505
12.0417	29.814
13.5833	31.8381
15.1667	33.4792
16.9583	35.0657
19	36.7615
21.125	38.1838
23.1667	39.3873
25.0833	40.5361
27	41.5755
29	42.5602
31	43.4355
33	44.3107
33.25	44.5295
36.5417	45.8972
38.2917	46.6083
39.375	47.1554
40.6667	47.593
