Adsorption isotherm of Hydrogen on ZIF-8(D303)
DOI: 10.1007/s10450-020-00219-2
Article source: Figure 6 (b)
Adsorbate Hydrogen: InChIKey UFHFLCQGNIYNRP-UHFFFAOYSA-N
Kind: experiment
Temperature: 300 K
Tabular data in the source: 0
pressure (bar)	uptake (wt%)
1.48107	0.00703
3.27394	0.01299
5.30067	0.0211
7.32739	0.02922
9.35412	0.03653
11.2249	0.04383
13.1737	0.05141
15.1225	0.05844
17.0713	0.06575
19.1759	0.07197
21.1247	0.07982
24.3987	0.09091
29.3096	0.10877
35.0779	0.12879
40.6125	0.14692
45.6793	0.16315
50.5122	0.1783
55.2673	0.19291
60.2561	0.2086
65.167	0.22376
