Adsorption isotherm of Hydrogen on ZIF-8(D303)
DOI: 10.1007/s10450-020-00219-2
Article source: Figure 6 (a)
Adsorbate Hydrogen: InChIKey UFHFLCQGNIYNRP-UHFFFAOYSA-N
Kind: experiment
Isotherm type: excess
Temperature: 77 K
Tabular data in the source: 0
pressure (bar)	uptake (wt%)
0.1227	0.17576
0.67485	0.95524
2.08589	1.90284
4.66258	2.56386
8.15951	2.90393
11.7791	3.05677
14.6626	3.11408
16.3804	3.12555
17.6687	3.12555
18.9571	3.12555
20.6135	3.1179
23.8037	3.08734
28.7117	3.03766
34.8466	2.9345
41.0429	2.7893
46.3804	2.6441
51.1656	2.50655
