Adsorption isotherm of Carbon Dioxide on ZIF-8(D413)
DOI: 10.1007/s10450-020-00219-2
Article source: Figure 7
Adsorbate Carbon Dioxide: InChIKey CURLTUGMZLYLDI-UHFFFAOYSA-N
Kind: experiment
Temperature: 300 K
Tabular data in the source: 0
pressure (bar)	uptake (wt%)
1.04167	2.89934
2.54167	7.27571
4.75	13.7856
7.375	20.5142
9.91667	25.4923
11.9167	28.4464
13.5417	30.4705
15.1667	32.1663
17	33.8621
19	35.4486
21.0833	36.8709
23.125	38.0197
25.125	39.0591
27.0417	40.0438
29	41.0831
31	41.849
32.375	42.5055
33.25	42.9978
34	43.3807
34.3333	44.0919
34.9167	43.7637
35.5	44.4201
35.8333	44.0919
36.8333	44.8578
38.1667	45.186
39.0417	45.3501
39.875	45.8424
40.4167	45.9519
