Adsorption isotherm of Nitrogen on Ni2(dhtp)
DOI: 10.1039/C4ta03066d
Adsorbate Nitrogen: InChIKey IJGRMHOSHXDMSA-UHFFFAOYSA-N
Temperature: 77 K
Tabular data in the source: 0
pressure (bar)	uptake (cm3(STP)/g)
0.00417552	182.906
0.00493471	288.889
0.00536175	206.838
0.005599	264.957
0.00569389	194.872
0.00635818	170.94
0.00654798	164.103
0.00659543	229.06
0.00688012	218.803
0.00759186	59.8291
0.00778165	252.991
0.007924	47.8632
0.00811379	241.026
0.00825614	102.564
0.00854084	92.3077
0.00868318	153.846
0.00887298	80.3419
0.00906278	73.5043
0.00911022	138.462
0.00948982	124.786
0.00972705	116.239
0.00991689	109.402
0.0119572	35.8974
0.012147	29.0598
0.0125266	15.3846
0.0126689	10.2564
0.0130011	-1.7094
0.017746	294.017
0.0454563	295.726
0.0675201	300.855
0.108231	300.855
0.145241	300.855
0.198906	300.855
0.246925	304.274
0.295181	299.145
0.345002	304.274
0.389367	305.983
0.437338	311.111
0.485546	307.692
0.533612	309.402
0.576032	314.53
0.629839	309.402
0.677953	309.402
0.727822	312.821
0.770336	314.53
0.818354	317.949
0.870169	317.949
0.92521	335.043
0.939681	347.009
0.953347	388.034
0.956147	420.513
