Adsorption isotherm of P-Xylene on CD-MOF-2
DOI: 10.1021/ja511878b
Article source: Figure 5a
Adsorbate P-Xylene: InChIKey URLKBWYHVLBVBO-UHFFFAOYSA-N
Kind: experiment
Temperature: 333 K
Tabular data in the source: 0
pressure (bar)	uptake (mmol/g)
0	0
5.1e-05	0.693103
0.000102	1.1069
0.000153	1.21034
0.000204	1.27241
0.000305	1.41724
0.000407	1.56207
0.000499	1.87241
0.000611	2.1931
0.000702	2.45172
0.000804	2.53448
0.001008	2.61724
0.001506	2.7
0.001985	2.74138
0.002494	2.77241
