Adsorption isotherm of P-Xylene on CD-MOF-2
DOI: 10.1021/ja511878b
Article source: Figure 6c
Adsorbate P-Xylene: InChIKey URLKBWYHVLBVBO-UHFFFAOYSA-N
Kind: experiment
Temperature: 293 K
Tabular data in the source: 0
pressure (bar)	uptake (molecules/unitcell)
0	0.006902
0	0.407365
0	0.606936
0	2.38486
0	3.47009
0	5.05124
0	12.4333
0	13.8177
0	16.0837
5e-06	17.0775
4.9e-05	17.4809
0.000251	43.9547
0.0005	47.1062
0.002518	48.097
0.005007	48.0999
0.01031	48.7917
