Adsorption isotherm of M-Xylene on CD-MOF-2
DOI: 10.1021/ja511878b
Article source: Figure 5a
Adsorbate M-Xylene: InChIKey IVSZLXZYQVIEFR-UHFFFAOYSA-N
Kind: experiment
Temperature: 333 K
Tabular data in the source: 0
pressure (bar)	uptake (mmol/g)
0	0
5.1e-05	0.537931
0.000102	0.672414
0.000153	0.713793
0.000204	0.765517
0.000305	0.858621
0.000397	0.962069
0.000499	1.12759
0.000601	1.26207
0.000702	1.31379
0.000804	1.35517
0.000997	1.42759
0.001506	1.64483
0.001995	2.45172
0.002494	2.65862
0.003003	2.73103
