Adsorption isotherm of O-Xylene on CD-MOF-2
DOI: 10.1021/ja511878b
Article source: Figure 5a
Adsorbate O-Xylene: InChIKey CTQNGGLPUBDAKN-UHFFFAOYSA-N
Kind: experiment
Temperature: 333 K
Tabular data in the source: 0
pressure (bar)	uptake (mmol/g)
0	0
5.1e-05	0.393103
0.000102	0.475862
0.000153	0.548276
0.000204	0.6
0.000305	0.724138
0.000397	0.837931
0.000499	0.931034
0.000611	1.01379
0.000702	1.07586
0.000804	1.12759
0.000997	1.22069
0.001496	1.42759
0.001995	2.48276
0.002494	2.6069
0.002992	2.63793
0.003501	2.66897
0.004	2.71034
