Adsorption isotherm of O-Xylene on CD-MOF-2
DOI: 10.1021/ja511878b
Article source: Figure 6c
Adsorbate O-Xylene: InChIKey CTQNGGLPUBDAKN-UHFFFAOYSA-N
Kind: experiment
Temperature: 293 K
Tabular data in the source: 0
pressure (bar)	uptake (molecules/unitcell)
0	0.006902
0	0.407512
0	0.80401
0	6.61579
0	8.29136
0	10.2661
0	15.8772
0	17.2616
1e-06	19.3307
5e-06	20.6197
4.9e-05	21.6133
0.00026	46.6114
0.000519	49.5661
0.002522	50.5567
0.005193	51.2485
0.010327	51.5466
