Adsorption isotherm of M-Xylene on CD-MOF-2
DOI: 10.1021/ja511878b
Article source: Figure 6c
Adsorbate M-Xylene: InChIKey IVSZLXZYQVIEFR-UHFFFAOYSA-N
Kind: experiment
Temperature: 293 K
Tabular data in the source: 0
pressure (bar)	uptake (molecules/unitcell)
0	0.006902
0	0.407512
0	0.705473
0	3.66408
0	4.94609
0	6.82226
0	13.122
0	14.8019
1e-06	16.7726
5e-06	17.8647
5.1e-05	18.5633
0.000251	45.4306
0.000501	47.4997
0.002435	49.4743
0.004844	49.8708
0.009634	50.2673
