Adsorption isotherm of Nitrogen on CuO-Fe3O4 nanoparticles
DOI: 10.1016/j.jcis.2017.01.104
Article source: Figure 1
Adsorbate Nitrogen: InChIKey IJGRMHOSHXDMSA-UHFFFAOYSA-N
Kind: experiment
Temperature: 77 K
Tabular data in the source: 0
pressure (bar)	uptake (cm3(STP)/g)
0.001895	7.346
0.011936	14.336
0.028685	17.238
0.065303	20.316
0.077978	21.441
0.100239	22.861
0.121304	23.808
0.143554	24.755
0.163181	25.998
0.182088	27.181
0.205787	28.246
0.251504	30.258
0.30631	33.157
0.356566	35.88
0.405626	38.78
0.456126	41.561
0.509016	45.053
0.560235	49.197
0.565261	50.915
0.600197	54.29
0.60882	53.4
0.658346	59.085
0.660981	61.573
0.705472	71.049
0.709555	65.658
0.75669	75.43
0.758099	87.1
0.805487	87.394
0.805923	108.128
0.829653	95.271
0.840576	128.268
0.860891	142.841
0.86385	109.073
0.880821	117.78
0.88839	156.702
0.908239	164.283
0.91213	137.15
0.936984	154.981
0.942203	174.708
0.962062	178.735
0.967108	170.619
0.980006	181.459
0.985994	178.734
0.988852	183.651
0.995083	181.932
0.999146	185.25
1.00154	184.894
1.00584	187.382
