Adsorption isotherm of Arsenic, Water on CuO-Fe3O4 nanoparticles
DOI: 10.1016/j.jcis.2017.01.104
Article source: Figure 6
Adsorbate Arsenic: InChIKey RQNWIZPPADIBDY-UHFFFAOYSA-N
Adsorbate Water: InChIKey XLYOFNOQVPJJNP-UHFFFAOYSA-N
Kind: experiment
Temperature: 298 K
Tabular data in the source: 0
pressure (bar)	Arsenic fraction	Arsenic uptake (mg/g)	Water fraction	Water uptake (mg/g)	total uptake (mg/g)
1.01325	0.001192	0.9992			
1.01325	0.002302	1.972			
1.01325	0.00361	2.9688			
1.01325	0.005313	3.9667			
1.01325	0.045	1.991			
1.01325	0.077	4.836			
1.01325	0.083	9.672			
1.01325	0.312	23.043			
1.01325	1.086	44.201			
1.01325	5.672	71.405			
1.01325	11.531	91.852			
1.01325	26.015	120.015			
