Adsorption isotherm of Nitrogen on ZIF-69
DOI: 10.1007/s10450-010-9305-3
Adsorbate Nitrogen: InChIKey IJGRMHOSHXDMSA-UHFFFAOYSA-N
Temperature: 298 K
Tabular data in the source: 0
pressure (bar)	uptake (mmol/g)
2.0339	0.403226
3.05085	0.564516
4.0678	0.725806
5.0339	0.887097
6.05085	1.04839
7.0678	1.1828
8.0339	1.29032
9.05085	1.39785
10.0678	1.53226
10.9831	1.6129
12.0508	1.72043
13.0169	1.82796
14.0339	1.9086
15	1.98925
