Adsorption isotherm of Methane on MOF-74
DOI: 10.1007/s10450-010-9305-3
Adsorbate Methane: InChIKey VNWKTOKETHGBQD-UHFFFAOYSA-N
Temperature: 298 K
Tabular data in the source: 0
pressure (bar)	uptake (mmol/g)
0.505051	0.0537634
1.0101	0.268817
2.07071	0.591398
2.9798	0.860215
4.0404	1.1828
5.05051	1.39785
6.0101	1.72043
7.0202	1.88172
8.0303	2.15054
8.93939	2.41935
9.94949	2.58065
10.9596	2.7957
11.9697	2.95699
12.9798	3.11828
13.9394	3.33333
14.9495	3.49462
