Adsorption isotherm of Nitrogen on MOF-74
DOI: 10.1007/s10450-010-9305-3
Adsorbate Nitrogen: InChIKey IJGRMHOSHXDMSA-UHFFFAOYSA-N
Temperature: 298 K
Tabular data in the source: 0
pressure (bar)	uptake (mmol/g)
0.457627	0.0537634
1.01695	0.134409
1.98305	0.241935
3	0.403226
4.01695	0.510753
5.0339	0.672043
6.05085	0.806452
7.01695	0.94086
7.98305	1.02151
8.94915	1.15591
10.0678	1.23656
11.0847	1.37097
12.0508	1.47849
13.0169	1.58602
14.0339	1.69355
15	1.80108
