Adsorption isotherm of Nitrogen on Zn2(BDC)2(TED)
DOI: 10.1007/s10450-010-9305-3
Adsorbate Nitrogen: InChIKey IJGRMHOSHXDMSA-UHFFFAOYSA-N
Temperature: 298 K
Tabular data in the source: 0
pressure (bar)	uptake (mmol/g)
1.01695	0.215054
2.0339	0.403226
3	0.61828
3.9661	0.806452
4.98305	1.02151
6	1.20968
7.0678	1.39785
8.0339	1.55914
9.10169	1.74731
10.0169	1.93548
11.0339	2.06989
12.1017	2.23118
13.0169	2.39247
13.9831	2.5
15.0508	2.66129
