Adsorption isotherm of Carbon Dioxide on CuBTC
DOI: 10.1007/s10450-010-9305-3
Adsorbate Carbon Dioxide: InChIKey CURLTUGMZLYLDI-UHFFFAOYSA-N
Temperature: 298 K
Tabular data in the source: 0
pressure (bar)	uptake (mmol/g)
0.0523455	0.13587
0.517449	4.21196
1.04119	5.43478
1.9857	6.79348
3.03576	8.0163
3.98084	9.10326
5.03175	9.91848
5.97797	10.462
7.02975	10.8696
7.97597	11.413
9.02775	11.8207
9.97426	12.2283
11.0263	12.5
12.0257	12.7717
13.0255	12.9076
14.0778	13.0435
14.9717	13.4511
