Adsorption isotherm of Water on MOF-177
DOI: 10.1007/s10450-010-9305-3
Adsorbate Water: InChIKey XLYOFNOQVPJJNP-UHFFFAOYSA-N
Temperature: 298 K
Tabular data in the source: 0
pressure (bar)	uptake (mmol/g)
2.99176	2.62032
4.00582	3.36898
5.02096	5.61497
6.0361	7.86096
7.00192	11.9786
7.56395	18.3422
8.02491	25.0802
8.48967	37.0588
9.00347	46.7914
9.36064	50.1604
10.0213	52.7807
10.4286	55.4011
11.0885	56.8984
12.0023	59.1444
13.0158	59.1444
14.032	62.8877
14.4881	62.8877
14.9954	63.6364
