Adsorption isotherm of Carbon Dioxide on COF-102
DOI: 10.1007/s10450-010-9305-3
Adsorbate Carbon Dioxide: InChIKey CURLTUGMZLYLDI-UHFFFAOYSA-N
Temperature: 298 K
Tabular data in the source: 0
pressure (bar)	uptake (mmol/g)
1.99542	2.17391
3.04519	3.53261
3.98913	5.16304
4.98598	6.65761
6.03432	8.69565
7.03061	10.462
7.9734	12.6359
9.02174	14.6739
10.0186	16.1685
11.0152	17.7989
12.0123	19.1576
13.0092	20.6522
14.0072	21.6033
14.9528	22.4185
