Adsorption isotherm of Methane on IRMOF-1
DOI: 10.1007/s10450-010-9305-3
Adsorbate Methane: InChIKey VNWKTOKETHGBQD-UHFFFAOYSA-N
Temperature: 298 K
Tabular data in the source: 0
pressure (bar)	uptake (mmol/g)
3.0303	1.34409
3.9899	1.82796
5	2.25806
6.0101	2.68817
6.9697	3.06452
7.9798	3.49462
8.93939	3.92473
9.94949	4.35484
10.9596	4.73118
11.9697	5
12.9798	5.43011
13.9899	5.75269
14.9495	6.07527
