Adsorption isotherm of Water on MOF-74
DOI: 10.1007/s10450-010-9305-3
Adsorbate Water: InChIKey XLYOFNOQVPJJNP-UHFFFAOYSA-N
Temperature: 298 K
Tabular data in the source: 0
pressure (bar)	uptake (mmol/g)
0.102706	1.87166
0.46123	7.1123
1.07042	8.60963
1.98394	10.4813
3.05003	13.1016
4.01422	14.9733
5.02827	15.7219
5.99138	16.0963
7.05638	17.2193
8.01922	17.2193
8.9826	17.9679
9.94598	18.7166
11.0099	18.3422
11.973	18.7166
12.9356	18.3422
13.9496	19.0909
14.9631	19.0909
