Adsorption isotherm of Methane on CuBTC
DOI: 10.1007/s10450-010-9305-3
Adsorbate Methane: InChIKey VNWKTOKETHGBQD-UHFFFAOYSA-N
Temperature: 298 K
Tabular data in the source: 0
pressure (bar)	uptake (mmol/g)
1.0101	0.537634
2.07071	0.967742
3.0303	1.39785
3.9899	1.72043
5.05051	1.98925
6.0101	2.36559
6.9697	2.58065
7.9798	2.90323
8.9899	3.17204
10	3.54839
10.9596	3.8172
12.0202	4.08602
12.9798	4.30108
13.9899	4.46237
14.9495	4.67742
