Adsorption isotherm of Nitrogen on MIL-47
DOI: 10.1007/s10450-010-9305-3
Adsorbate Nitrogen: InChIKey IJGRMHOSHXDMSA-UHFFFAOYSA-N
Temperature: 298 K
Tabular data in the source: 0
pressure (bar)	uptake (mmol/g)
0.508475	0.215054
0.915254	0.430108
1.98305	0.913978
3	1.37097
3.9661	1.69355
4.98305	2.04301
6	2.39247
7.01695	2.66129
8.0339	2.93011
8.94915	3.14516
10.0678	3.41398
11.0339	3.62903
12.0508	3.84409
13.1186	4.00538
14.0339	4.16667
15.0508	4.32796
