Adsorption isotherm of Carbon Dioxide on ZIF-69
DOI: 10.1007/s10450-010-9305-3
Adsorbate Carbon Dioxide: InChIKey CURLTUGMZLYLDI-UHFFFAOYSA-N
Temperature: 298 K
Tabular data in the source: 0
pressure (bar)	uptake (mmol/g)
1.04924	1.61217
2.04698	2.68426
3.04558	3.35094
4.04474	3.74734
4.99128	4.14422
5.99101	4.27035
7.04281	4.66628
7.98991	4.79288
9.04228	4.91854
10.0417	5.1798
11.0415	5.30593
11.9888	5.2974
13.0415	5.28791
13.9883	5.54965
14.936	5.40598
