Adsorption isotherm of Water on Zn2(BDC)2(TED)
DOI: 10.1007/s10450-010-9305-3
Adsorbate Water: InChIKey XLYOFNOQVPJJNP-UHFFFAOYSA-N
Temperature: 298 K
Tabular data in the source: 0
pressure (bar)	uptake (mmol/g)
0.456894	1.12299
0.964464	2.24599
2.03028	4.49198
3.09664	7.48663
4.1134	11.9786
4.97651	14.2246
5.63665	16.0963
6.3976	17.2193
7.05747	18.7166
8.02112	19.8396
8.57855	19.8396
9.08585	20.5882
10.1002	21.7112
11.1137	21.7112
12.0771	22.4599
12.6345	22.4599
13.0906	22.4599
14.054	23.2086
14.9661	23.2086
