Adsorption isotherm of Methane on MIL-47
DOI: 10.1007/s10450-010-9305-3
Adsorbate Methane: InChIKey VNWKTOKETHGBQD-UHFFFAOYSA-N
Temperature: 298 K
Tabular data in the source: 0
pressure (bar)	uptake (mmol/g)
0.505051	0.483871
1.0101	1.02151
2.0202	1.98925
3.0303	2.74194
3.9899	3.3871
5	3.87097
6.06061	4.4086
7.0202	4.62366
7.9798	5.05376
8.9899	5.32258
10	5.53763
11.0101	5.75269
11.9697	6.07527
12.9798	6.1828
13.9899	6.45161
15	6.50538
