Adsorption isotherm of Carbon Dioxide on IRMOF-1
DOI: 10.1007/s10450-010-9305-3
Adsorbate Carbon Dioxide: InChIKey CURLTUGMZLYLDI-UHFFFAOYSA-N
Temperature: 298 K
Tabular data in the source: 0
pressure (bar)	uptake (mmol/g)
1.31264	1.49457
1.94251	2.30978
3.04519	3.53261
4.04262	4.75543
4.98713	6.11413
5.93135	7.6087
6.98141	8.83152
7.50572	9.78261
7.92563	10.3261
8.76516	11.5489
9.50029	12.3641
10.0255	12.9076
10.4451	13.587
10.9703	14.1304
12.0209	15.0815
13.0195	15.7609
14.0183	16.3043
14.9642	16.9837
