Adsorption isotherm of Carbon Dioxide on Zn2(BDC)2(TED)
DOI: 10.1007/s10450-010-9305-3
Adsorbate Carbon Dioxide: InChIKey CURLTUGMZLYLDI-UHFFFAOYSA-N
Temperature: 298 K
Tabular data in the source: 0
pressure (bar)	uptake (mmol/g)
1.30984	2.82604
2.09591	4.44058
2.72494	5.65113
3.24899	6.72749
3.82596	7.66823
4.45499	8.87878
5.29512	9.81716
6.08347	10.3506
6.92446	10.8836
8.08152	11.2785
9.02777	11.8106
10.0796	12.2065
11.079	12.4678
12.0785	12.729
13.0779	12.9903
14.0253	12.9818
15.0771	13.3777
