Adsorption isotherm of Water on CuBTC
DOI: 10.1007/s10450-010-9305-3
Adsorbate Water: InChIKey XLYOFNOQVPJJNP-UHFFFAOYSA-N
Temperature: 298 K
Tabular data in the source: 0
pressure (bar)	uptake (mmol/g)
0.154466	3.36898
0.512719	8.23529
1.07096	9.35829
2.0357	11.9786
2.99962	13.4759
3.96436	16.0963
4.98004	19.0909
6.04558	20.9626
7.00896	21.7112
8.02302	22.4599
9.03707	23.2086
10.0511	23.9572
10.9641	25.0802
11.9776	25.0802
13.0421	25.4545
14.0052	25.8289
14.968	25.8289
