Adsorption isotherm of Methane on ZIF-69
DOI: 10.1007/s10450-010-9305-3
Adsorbate Methane: InChIKey VNWKTOKETHGBQD-UHFFFAOYSA-N
Temperature: 298 K
Tabular data in the source: 0
pressure (bar)	uptake (mmol/g)
1.0101	0.483871
2.07071	0.967742
2.9798	1.29032
3.9899	1.6129
5	1.88172
6.0101	2.09677
7.0202	2.25806
8.0303	2.47312
9.0404	2.68817
9.94949	2.74194
11.0606	2.84946
11.9697	2.95699
12.9798	3.11828
13.9394	3.17204
15	3.17204
