Adsorption isotherm of Water on IRMOF-1
DOI: 10.1007/s10450-010-9305-3
Adsorbate Water: InChIKey XLYOFNOQVPJJNP-UHFFFAOYSA-N
Temperature: 298 K
Tabular data in the source: 0
pressure (bar)	uptake (mmol/g)
4.51122	1.49733
5.4746	2.24599
6.59028	3.36898
7.19866	3.74332
8.01109	5.9893
8.72245	8.60963
8.97745	10.8556
9.48882	17.2193
10.001	24.7059
10.5102	28.0749
11.0186	30.3209
11.4253	32.1925
12.0353	34.8128
12.9993	36.3102
14.0128	36.3102
14.5707	37.0588
15.0274	37.8075
