Adsorption isotherm of Carbon Dioxide on MOF-177
DOI: 10.1007/s10450-010-9305-3
Adsorbate Carbon Dioxide: InChIKey CURLTUGMZLYLDI-UHFFFAOYSA-N
Temperature: 298 K
Tabular data in the source: 0
pressure (bar)	uptake (mmol/g)
1.05092	0.815217
1.94394	1.63043
2.99457	2.58152
3.99228	3.66848
5.04262	4.75543
5.9877	5.84239
7.03776	7.06522
7.98284	8.15217
8.97998	9.51087
10.0292	11.1413
10.974	12.3641
11.9714	13.587
12.9682	15.0815
14.0177	16.5761
14.9102	17.663
