Adsorption isotherm of Methane on Sc-MOF
DOI: 10.1007/s10450-010-9305-3
Adsorbate Methane: InChIKey VNWKTOKETHGBQD-UHFFFAOYSA-N
Temperature: 298 K
Tabular data in the source: 0
pressure (bar)	uptake (mmol/g)
1.0101	0.0537634
2.0202	-3.55e-15
3.0303	0.0537634
4.0404	0.107527
5	0.107527
6.0101	0.16129
7.0202	0.16129
8.0303	0.268817
9.0404	0.215054
10	0.268817
11.0101	0.322581
11.9697	0.322581
13.0303	0.376344
13.9899	0.430108
14.9495	0.483871
