Adsorption isotherm of Water on COF-102
DOI: 10.1007/s10450-010-9305-3
Adsorbate Water: InChIKey XLYOFNOQVPJJNP-UHFFFAOYSA-N
Temperature: 298 K
Tabular data in the source: 0
pressure (bar)	uptake (mmol/g)
5.01852	2.24599
5.9819	2.99465
6.99731	5.61497
7.96177	7.86096
8.57124	9.73262
9.03003	13.4759
9.23598	17.9679
9.5964	25.8289
10.008	34.4385
10.4685	40.4278
11.0286	44.1711
12.0424	44.5455
13.0082	48.6631
14.0223	49.4118
15.0369	50.9091
