Adsorption isotherm of Nitrogen on CuBTC
DOI: 10.1007/s10450-010-9305-3
Adsorbate Nitrogen: InChIKey IJGRMHOSHXDMSA-UHFFFAOYSA-N
Temperature: 298 K
Tabular data in the source: 0
pressure (bar)	uptake (mmol/g)
2.0339	0.430108
3.05085	0.61828
4.01695	0.806452
4.98305	1.02151
6	1.20968
7.01695	1.37097
8.0339	1.50538
9.05085	1.69355
10.0678	1.82796
11.0339	1.98925
12.0508	2.15054
13.0678	2.28495
14.0339	2.39247
15.0508	2.52688
