Adsorption isotherm of Water on ZIF-69
DOI: 10.1007/s10450-010-9305-3
Adsorbate Water: InChIKey XLYOFNOQVPJJNP-UHFFFAOYSA-N
Temperature: 298 K
Tabular data in the source: 0
pressure (bar)	uptake (mmol/g)
0.50757	1.12299
0.964464	2.24599
2.03001	4.11765
3.04488	5.9893
3.95785	7.1123
5.02285	8.23529
5.98596	8.60963
7.00056	10.107
7.9634	10.107
8.97745	10.8556
9.99097	10.8556
11.0045	10.8556
11.9673	10.8556
13.0318	11.2299
13.9949	11.6043
14.9577	11.6043
