Adsorption isotherm of Methane on Zn2(BDC)2(TED)
DOI: 10.1007/s10450-010-9305-3
Adsorbate Methane: InChIKey VNWKTOKETHGBQD-UHFFFAOYSA-N
Temperature: 298 K
Tabular data in the source: 0
pressure (bar)	uptake (mmol/g)
0.555556	0.268817
1.16162	0.591398
2.12121	1.02151
3.28283	1.45161
4.0404	1.72043
5	1.98925
5.70707	2.36559
6.36364	2.58065
7.07071	2.7957
7.92929	3.06452
8.9899	3.33333
10	3.70968
10.9091	4.03226
11.9192	4.24731
12.8788	4.46237
13.9394	4.73118
14.9495	5
