Adsorption isotherm of Carbon Dioxide on MOF-74
DOI: 10.1007/s10450-010-9305-3
Adsorbate Carbon Dioxide: InChIKey CURLTUGMZLYLDI-UHFFFAOYSA-N
Temperature: 298 K
Tabular data in the source: 0
pressure (bar)	uptake (mmol/g)
0.20797	1.21434
0.519782	3.10343
0.938567	4.18073
2.04129	5.38702
2.98697	6.18931
3.98557	6.85599
4.98473	7.25239
5.98447	7.37852
7.08833	8.04425
8.08778	8.30552
9.03516	8.29698
10.0346	8.55825
10.9814	8.81999
12.0341	8.8105
13.0338	8.93663
14.0336	9.06276
14.9812	8.91909
