Adsorption isotherm of Water on Sc-MOF
DOI: 10.1007/s10450-010-9305-3
Adsorbate Water: InChIKey XLYOFNOQVPJJNP-UHFFFAOYSA-N
Temperature: 298 K
Tabular data in the source: 0
pressure (bar)	uptake (mmol/g)
0.506757	0
1.01351	0
2.0273	0.374332
2.99041	0.748663
4.05487	1.12299
4.96757	1.87166
6.03203	2.24599
6.94419	2.24599
8.05906	2.24599
8.97149	2.62032
10.036	2.99465
10.9991	3.36898
12.0126	3.36898
12.9754	3.36898
13.9892	3.74332
14.952	3.74332
