Adsorption isotherm of Water on MIL-47
DOI: 10.1007/s10450-010-9305-3
Adsorbate Water: InChIKey XLYOFNOQVPJJNP-UHFFFAOYSA-N
Temperature: 298 K
Tabular data in the source: 0
pressure (bar)	uptake (mmol/g)
3.0419	1.87166
3.90419	2.99465
4.91933	5.24064
6.03691	8.98396
7.0011	10.8556
8.01543	11.9786
8.97881	12.7273
9.99259	13.1016
10.9562	14.2246
11.9698	14.2246
12.9838	14.9733
13.9973	14.9733
15.0108	14.9733
