Adsorption isotherm of Nitrogen on Sc-MOF
DOI: 10.1007/s10450-010-9305-3
Adsorbate Nitrogen: InChIKey IJGRMHOSHXDMSA-UHFFFAOYSA-N
Temperature: 298 K
Tabular data in the source: 0
pressure (bar)	uptake (mmol/g)
0.508475	0
1.0678	0
1.98305	0.0268817
3	0.0537634
4.01695	0.0806452
5.0339	0.107527
6	0.0806452
7.01695	0.134409
7.98305	0.16129
9	0.16129
10.0169	0.188172
11.0847	0.215054
12.0508	0.241935
13.0678	0.241935
14.0847	0.295699
15.0508	0.322581
