Adsorption isotherm of Nitrogen on IRMOF-1
DOI: 10.1007/s10450-010-9305-3
Adsorbate Nitrogen: InChIKey IJGRMHOSHXDMSA-UHFFFAOYSA-N
Temperature: 298 K
Tabular data in the source: 0
pressure (bar)	uptake (mmol/g)
1.01695	0.295699
1.98305	0.483871
3.05085	0.698925
4.01695	0.967742
4.98305	1.20968
6	1.45161
6.9661	1.66667
8.0339	1.88172
9.05085	2.12366
10.0678	2.31183
11.0339	2.52688
12	2.71505
12.9661	2.93011
13.9831	3.14516
15	3.30645
