Adsorption isotherm of Methane on COF-102
DOI: 10.1007/s10450-010-9305-3
Adsorbate Methane: InChIKey VNWKTOKETHGBQD-UHFFFAOYSA-N
Temperature: 298 K
Tabular data in the source: 0
pressure (bar)	uptake (mmol/g)
2.0202	1.07527
3.0303	1.66667
4.09091	2.25806
5	2.90323
6.0101	3.44086
7.07071	4.08602
8.0303	4.62366
8.9899	5.21505
9.94949	5.75269
11.0101	6.34409
12.9293	7.47312
13.9394	8.01075
15	8.60215
