Adsorption isotherm of Nitrogen on MOF-177
DOI: 10.1007/s10450-010-9305-3
Adsorbate Nitrogen: InChIKey IJGRMHOSHXDMSA-UHFFFAOYSA-N
Temperature: 298 K
Tabular data in the source: 0
pressure (bar)	uptake (mmol/g)
1.98305	0.456989
3.05085	0.672043
3.91525	0.887097
5.0339	1.10215
6	1.29032
6.9661	1.53226
7.9322	1.72043
8.94915	1.93548
10.0169	2.15054
11.0847	2.39247
12.0508	2.52688
13.0169	2.74194
14.0339	2.95699
15.0508	3.11828
