Adsorption isotherm of Methane on MOF-177
DOI: 10.1007/s10450-010-9305-3
Adsorbate Methane: InChIKey VNWKTOKETHGBQD-UHFFFAOYSA-N
Temperature: 298 K
Tabular data in the source: 0
pressure (bar)	uptake (mmol/g)
1.9697	0.752688
2.9798	1.07527
3.9899	1.45161
4.94949	1.82796
6.06061	2.31183
6.9697	2.63441
7.9798	3.01075
8.93939	3.33333
10.0505	3.8172
10.9596	4.13978
11.9697	4.56989
12.9798	4.89247
13.9394	5.32258
14.9495	5.80645
