Adsorption isotherm of Carbon Dioxide on Sc-MOF
DOI: 10.1007/s10450-010-9305-3
Adsorbate Carbon Dioxide: InChIKey CURLTUGMZLYLDI-UHFFFAOYSA-N
Temperature: 298 K
Tabular data in the source: 0
pressure (bar)	uptake (mmol/g)
0.578105	0.400197
1.05151	0.531067
2.05096	0.792334
3.05041	1.0536
3.99666	1.58562
5.04874	1.84641
6.04819	2.10767
7.04793	2.2338
7.99503	2.36041
9.04711	2.6212
10.0471	2.61219
11.0463	3.00859
11.9934	3.13519
13.0458	3.26085
14.0458	3.25184
14.9929	3.37844
