Adsorption isotherm of Nitrogen on COF-102
DOI: 10.1007/s10450-010-9305-3
Adsorbate Nitrogen: InChIKey IJGRMHOSHXDMSA-UHFFFAOYSA-N
Temperature: 298 K
Tabular data in the source: 0
pressure (bar)	uptake (mmol/g)
1.0678	0.322581
1.98305	0.564516
3	0.94086
3.9661	1.26344
5.0339	1.53226
6.05085	1.82796
7.01695	2.15054
8.0339	2.44624
9.05085	2.74194
10.0169	3.01075
11.0339	3.30645
12	3.57527
13.0169	3.87097
14.0339	4.13978
15.0508	4.38172
