Adsorption isotherm of Carbon Dioxide on MIL-47
DOI: 10.1007/s10450-010-9305-3
Adsorbate Carbon Dioxide: InChIKey CURLTUGMZLYLDI-UHFFFAOYSA-N
Temperature: 298 K
Tabular data in the source: 0
pressure (bar)	uptake (mmol/g)
0.574975	1.88671
1.04497	3.63923
1.98724	6.06318
2.98412	7.54068
3.98272	8.20736
5.03395	8.87357
5.98048	9.27045
6.97965	9.66685
7.97938	9.79298
8.97912	9.91911
10.0312	10.1799
11.0315	10.0358
11.9786	10.1624
13.0315	10.0177
14.031	10.279
14.9784	10.2705
