Adsorption isotherm of Nitrogen on Cu3(TATAB)2(H2O)3*8DMF*9H2O-HF
DOI: 10.1021/Ja066616r
Adsorbate Nitrogen: InChIKey IJGRMHOSHXDMSA-UHFFFAOYSA-N
Temperature: 77 K
Tabular data in the source: 0
pressure (bar)	uptake (cm3(STP)/g)
0.00401689	27.0159
0.0106253	47.2677
0.0198206	59.4043
0.0420725	66.0992
0.0695547	72.7795
0.0970462	82.1625
0.112737	82.1188
0.149367	87.4223
0.174206	86.0019
0.19253	91.3563
0.230473	98.0075
0.269718	103.304
0.312877	105.886
0.349507	111.19
0.38745	117.841
0.424075	121.793
0.469868	129.774
0.50258	136.44
0.541845	147.141
0.579792	155.144
0.596804	159.151
0.620359	164.49
0.636078	172.555
0.657017	177.902
0.679269	184.597
0.697603	192.654
0.717254	203.41
0.735598	214.17
0.757883	230.324
0.77886	246.482
0.784123	255.927
0.794631	269.411
0.805148	285.598
0.81565	297.731
0.82748	315.266
0.835386	332.811
0.848565	362.504
0.856505	389.509
0.864435	413.811
0.871044	434.063
0.872422	454.33
0.877723	474.585
0.884345	498.891
0.888376	529.961
0.895027	562.375
0.904284	592.079
0.909646	629.902
0.918893	656.903
0.926823	681.205
0.943915	708.185
0.971445	728.379
