Adsorption isotherm of Nitrogen on Cu3(TATAB)2(H2O)3*8DMF*9H2O-HCl
DOI: 10.1021/Ja066616r
Adsorbate Nitrogen: InChIKey IJGRMHOSHXDMSA-UHFFFAOYSA-N
Temperature: 77 K
Tabular data in the source: 0
pressure (bar)	uptake (cm3(STP)/g)
0.0014442	39.1852
0.0093272	49.9741
0.0185178	60.7593
0.0368517	68.8164
0.0708858	79.5325
0.0944358	83.5211
0.114059	86.1692
0.133691	91.52
0.152001	92.8204
0.172931	95.4649
0.192563	100.816
0.206961	104.83
0.227891	107.474
0.246201	108.775
0.271054	111.408
0.281524	114.082
0.312924	119.4
0.328619	120.707
0.346939	124.711
0.369168	124.649
0.38618	128.655
0.400568	129.967
0.426742	136.651
0.468608	143.291
0.50394	151.301
0.543194	159.3
0.581151	170.005
0.62303	180.699
0.634822	187.423
0.661001	195.458
0.695059	212.931
0.717325	223.68
0.740908	237.128
0.755343	251.953
0.777651	274.864
0.785539	287.004
0.798662	300.481
0.807862	313.969
0.815778	334.217
0.823675	349.06
0.826328	359.863
0.835523	372
0.839479	381.448
0.844808	409.812
0.850123	434.122
0.856722	451.671
0.862041	477.332
0.866039	498.942
0.877944	538.098
0.880686	574.577
0.883415	607.002
0.900516	636.684
0.909773	666.388
0.93988	675.764
0.963439	682.455
