Adsorption isotherm of Nitrogen on Cu3(TATAB)2(H2O)3*8DMF*9H2O-HBr
DOI: 10.1021/Ja066616r
Adsorbate Nitrogen: InChIKey IJGRMHOSHXDMSA-UHFFFAOYSA-N
Temperature: 77 K
Tabular data in the source: 0
pressure (bar)	uptake (cm3(STP)/g)
9.89e-05	28.3781
0.00278944	49.9922
0.00936018	59.4334
0.0211753	72.9141
0.0355772	78.2794
0.0630593	84.9597
0.0905414	91.64
0.119331	98.3167
0.144203	106.356
0.157288	109.022
0.18738	114.344
0.205695	116.995
0.224015	120.998
0.244936	120.94
0.271101	124.921
0.295973	132.96
0.315596	135.609
0.340444	136.891
0.357452	139.546
0.375776	144.901
0.395403	148.9
0.413728	154.254
0.43859	159.591
0.458213	162.239
0.47523	167.597
0.498799	176.991
0.521032	178.28
0.538049	183.638
0.557691	191.692
0.581255	199.734
0.62186	219.892
0.637574	226.605
0.662455	237.346
0.680803	249.457
0.700463	262.916
0.718826	279.081
0.737193	296.598
0.759496	318.157
0.777906	347.836
0.785803	362.679
0.79894	380.21
0.808168	401.806
0.816065	416.649
0.827923	442.291
0.837141	461.185
0.850302	485.472
0.852955	496.276
0.86215	508.412
0.871331	516.495
0.879195	521.878
0.896217	528.588
0.909316	535.308
0.928929	535.254
0.951186	543.3
0.962958	544.618
