Adsorption isotherm of Methane on Cu-MOF
DOI: 10.1021/Ie8005269
Adsorbate Methane: InChIKey VNWKTOKETHGBQD-UHFFFAOYSA-N
Temperature: 303 K
Tabular data in the source: 0
pressure (bar)	uptake (mmol/g)
0.0912545	-0.0655513
1.07445	0.637978
3.25932	1.86151
9.92319	4.15563
19.0997	5.92974
22.8139	6.35798
31.2257	7.06151
37.9988	7.45915
42.5871	7.52033
48.1585	7.67327
