Adsorption isotherm of Methane on Cu-MOF
DOI: 10.1021/Ie8005269
Adsorbate Methane: InChIKey VNWKTOKETHGBQD-UHFFFAOYSA-N
Temperature: 323 K
Tabular data in the source: 0
pressure (bar)	uptake (mmol/g)
0.155872	0.0866137
0.313183	0.146698
0.610326	0.283252
1.0036	0.447118
1.3357	0.600059
1.91251	0.796698
2.51554	1.00972
2.92629	1.14082
3.24091	1.23367
