Adsorption isotherm of Carbon Dioxide on Cu-MOF
DOI: 10.1021/Ie8005269
Adsorbate Carbon Dioxide: InChIKey CURLTUGMZLYLDI-UHFFFAOYSA-N
Temperature: 323 K
Tabular data in the source: 0
pressure (bar)	uptake (mmol/g)
0.112174	0.127343
0.243267	0.441964
0.339401	0.599275
0.592847	1.14986
0.87251	1.64801
1.21335	2.1986
1.58915	2.85407
1.90377	3.35222
2.11352	3.58818
2.47184	4.08633
