Adsorption isotherm of Carbon Dioxide on Cu-MOF
DOI: 10.1021/Ie8005269
Adsorbate Carbon Dioxide: InChIKey CURLTUGMZLYLDI-UHFFFAOYSA-N
Temperature: 303 K
Tabular data in the source: 0
pressure (bar)	uptake (mmol/g)
0.00547527	0.0324581
0.0513576	0.312122
0.175895	0.819013
0.542954	2.30473
0.955895	3.52826
1.17875	4.10506
1.51304	4.97901
1.94564	5.80053
2.28648	6.34237
2.55522	6.62204
