Adsorption isotherm of Methane on Cu-MOF
DOI: 10.1021/Ie8005269
Adsorbate Methane: InChIKey VNWKTOKETHGBQD-UHFFFAOYSA-N
Temperature: 373 K
Tabular data in the source: 0
pressure (bar)	uptake (mmol/g)
0.138393	0.0156053
0.321922	0.0593028
0.575368	0.124849
0.7152	0.135773
1.03856	0.20132
1.30075	0.250479
2.01738	0.359723
2.60293	0.458042
3.23217	0.550899
3.69537	0.610983
