Adsorption isotherm of Carbon Dioxide on Cu-MOF
DOI: 10.1021/Ie8005269
Adsorbate Carbon Dioxide: InChIKey CURLTUGMZLYLDI-UHFFFAOYSA-N
Temperature: 303 K
Tabular data in the source: 0
pressure (bar)	uptake (mmol/g)
0.0912545	0.42386
0.637473	2.38151
0.85596	4.06386
2.05764	6.23563
6.09966	9.50857
9.26772	10.365
14.5114	11.2521
22.1585	11.8944
36.3602	12.3839
52.9652	12.4756
