Adsorption isotherm of Carbon Dioxide on CuBTC
DOI: 10.1021/Ie8005269
Adsorbate Carbon Dioxide: InChIKey CURLTUGMZLYLDI-UHFFFAOYSA-N
Temperature: 303 K
Tabular data in the source: 0
pressure (bar)	uptake (mmol/g)
1.29294	4.12504
3.04083	7.3368
4.35176	8.43798
6.31815	9.04974
8.28453	9.53916
13.7467	10.3039
19.8644	10.4262
24.1249	10.8239
28.2761	10.8544
36.5786	10.9156
42.5871	11.1297
