Adsorption isotherm of Carbon Dioxide on Cu-MOF
DOI: 10.1021/Ie8005269
Adsorbate Carbon Dioxide: InChIKey CURLTUGMZLYLDI-UHFFFAOYSA-N
Temperature: 373 K
Tabular data in the source: 0
pressure (bar)	uptake (mmol/g)
0.18209	-0.00374982
0.374359	0.127343
0.741418	0.389527
1.06478	0.52062
1.36192	0.704149
1.7115	0.966334
2.20091	1.22852
2.55049	1.51692
