Adsorption isotherm of Carbon Dioxide on IRMOF-1
DOI: 10.1021/Ie8005269
Adsorbate Carbon Dioxide: InChIKey CURLTUGMZLYLDI-UHFFFAOYSA-N
Temperature: 298 K
Tabular data in the source: 0
pressure (bar)	uptake (mmol/g)
0.0906854	0.0499371
0.385643	0.207248
0.785475	0.451954
1.19186	0.731618
1.48027	0.993803
1.88665	1.34338
2.29304	1.72792
2.58144	1.99011
2.90262	2.33968
3.39421	2.86405
