Adsorption isotherm of Carbon Dioxide on Zeolite 13X
DOI: 10.1021/Ie8005269
Adsorbate Carbon Dioxide: InChIKey CURLTUGMZLYLDI-UHFFFAOYSA-N
Temperature: 298 K
Tabular data in the source: 0
pressure (bar)	uptake (mmol/g)
0.0120299	1.13363
0.0513576	2.25229
0.261106	3.63313
0.857576	4.52456
1.59169	5.06641
3.09926	5.59078
