Adsorption isotherm of Methane on Cu-MOF
DOI: 10.1021/Ie8005269
Adsorbate Methane: InChIKey VNWKTOKETHGBQD-UHFFFAOYSA-N
Temperature: 303 K
Tabular data in the source: 0
pressure (bar)	uptake (mmol/g)
0.0597373	0.0429163
0.18209	0.163084
0.295704	0.239555
0.584107	0.436194
0.994863	0.698378
1.47554	0.966026
1.69402	1.08073
2.60293	1.53955
2.93503	1.6925
3.28461	1.83998
