Adsorption isotherm of Carbon Dioxide on Carbon
DOI: 10.1021/Ie8005269
Adsorbate Carbon Dioxide: InChIKey CURLTUGMZLYLDI-UHFFFAOYSA-N
Temperature: 298 K
Tabular data in the source: 0
pressure (bar)	uptake (mmol/g)
0.0841307	0.259685
0.287324	0.766576
0.687156	1.55313
1.10665	2.39212
1.48027	3.14372
1.89321	3.87784
2.27337	4.55952
2.71253	5.20624
3.08615	5.83548
3.40077	6.30742
