Adsorption isotherm of Carbon Dioxide on Cu-MOF
DOI: 10.1021/Ie8005269
Adsorbate Carbon Dioxide: InChIKey CURLTUGMZLYLDI-UHFFFAOYSA-N
Temperature: 303 K
Tabular data in the source: 0
pressure (bar)	uptake (mmol/g)
0.0247794	0.0224687
0.208309	0.756586
0.409317	1.59558
0.584107	2.27726
0.959905	3.48331
1.18713	4.11255
1.54545	4.92533
1.95621	5.68566
2.23587	6.18381
2.56797	6.62953
