Adsorption isotherm of Carbon Dioxide on Carbon
DOI: 10.1021/Ie8005269
Adsorbate Carbon Dioxide: InChIKey CURLTUGMZLYLDI-UHFFFAOYSA-N
Temperature: 298 K
Tabular data in the source: 0
pressure (bar)	uptake (mmol/g)
0.00547527	0.102374
0.287324	0.819013
0.680601	1.57061
1.18531	2.33968
1.57858	2.8291
1.97842	3.24859
2.39136	3.63313
2.79119	3.96523
3.17791	4.27985
3.38111	4.43716
