Adsorption isotherm of Ethane on template-synthesized carbon
DOI: 10.1016/j.apsusc.2016.06.112
Article source: Figure 3
Adsorbate Ethane: InChIKey OTMSDBZUPAUEDD-UHFFFAOYSA-N
Kind: experiment
Temperature: 303 K
Tabular data in the source: 0
pressure (bar)	uptake (mmol/g)
1.0681	2.9124
2.1875	4.0099
3.4036	4.8214
5.3326	5.6662
7.2882	6.3291
9.2338	6.8548
14.6515	7.7911
19.8394	8.45
