Adsorption isotherm of Ethane on template-synthesized carbon
DOI: 10.1016/j.apsusc.2016.06.112
Article source: Figure 3
Adsorbate Ethane: InChIKey OTMSDBZUPAUEDD-UHFFFAOYSA-N
Kind: experiment
Temperature: 273 K
Tabular data in the source: 0
pressure (bar)	uptake (mmol/g)
0.3323	2.4081
1.6232	4.8454
2.5728	5.8017
3.4304	6.4734
5.2072	7.508
7.1322	8.3896
9.1838	9.017
10.5965	9.4825
14.6509	10.3418
20.0208	10.9632
