Adsorption isotherm of Methane on template-synthesized carbon
DOI: 10.1016/j.apsusc.2016.06.112
Article source: Figure 2
Adsorbate Methane: InChIKey VNWKTOKETHGBQD-UHFFFAOYSA-N
Kind: experiment
Temperature: 263 K
Tabular data in the source: 0
pressure (bar)	uptake (mmol/g)
2.7554	2.578
4.3011	3.287
6.3291	3.9969
8.3318	4.5912
10.2132	5.0989
14.8899	6.2271
19.8291	6.9964
26.3168	8.2795
30.1107	9.027
34.6127	9.7735
40.4432	10.7625
