Adsorption isotherm of Ethane on template-synthesized carbon
DOI: 10.1016/j.apsusc.2016.06.112
Article source: Figure 3
Adsorbate Ethane: InChIKey OTMSDBZUPAUEDD-UHFFFAOYSA-N
Kind: experiment
Temperature: 263 K
Tabular data in the source: 0
pressure (bar)	uptake (mmol/g)
1.0947	5.1136
2.2211	6.5439
3.3105	7.4965
4.3548	8.2571
5.3023	8.9196
6.3583	9.5474
7.3641	10.1565
8.3234	10.7283
9.9997	11.5753
19.9033	14.1097
