Adsorption isotherm of Ethane, Methane on template-synthesized carbon
DOI: 10.1016/j.apsusc.2016.06.112
Article source: Figure 4
Adsorbate Ethane: InChIKey OTMSDBZUPAUEDD-UHFFFAOYSA-N
Adsorbate Methane: InChIKey VNWKTOKETHGBQD-UHFFFAOYSA-N
Kind: experiment
Temperature: 273 K
Tabular data in the source: 0
pressure (bar)	Ethane fraction	Ethane uptake (mmol/g)	Methane fraction	Methane uptake (mmol/g)	total uptake (mmol/g)
1.01325	0.99863	4.0388	0.00137	0.0157	
1.01325	0.779974	3.58275	0.220026	0.14832	
1.01325	0.587101	2.97732	0.412899	0.21903	
1.01325	0.39113	2.29653	0.60887	0.40758	
1.01325	0.188359	1.24697	0.811641	0.63765	
1.01325	0.001988	0.01341	0.998012	0.80661	
