Adsorption isotherm of Methane on template-synthesized carbon
DOI: 10.1016/j.apsusc.2016.06.112
Article source: Figure 2
Adsorbate Methane: InChIKey VNWKTOKETHGBQD-UHFFFAOYSA-N
Kind: experiment
Temperature: 303 K
Tabular data in the source: 0
pressure (bar)	uptake (mmol/g)
1.477	0.8188
2.7876	1.3683
4.3237	1.8994
6.2518	2.482
8.1855	3.0289
10.1307	3.4689
14.8419	4.2352
19.9872	5.1537
25.2455	5.8954
29.751	6.5453
34.6145	7.3124
39.3453	8.175
45.1929	8.984
