Adsorption isotherm of Methane on template-synthesized carbon
DOI: 10.1016/j.apsusc.2016.06.112
Article source: Figure 2
Adsorbate Methane: InChIKey VNWKTOKETHGBQD-UHFFFAOYSA-N
Kind: experiment
Temperature: 273 K
Tabular data in the source: 0
pressure (bar)	uptake (mmol/g)
1.3196	1.0707
2.7634	1.8963
4.3114	2.5215
6.2289	3.1521
7.8023	3.6915
9.8607	4.2092
14.6402	5.0429
19.3154	6.041
24.5404	6.7474
29.8989	7.486
34.0937	8.2729
39.0255	9.1771
46.1933	10.1595
