Adsorption isotherm of Nitrogen on GAC 1240
DOI: 10.1016/s0008-6223(99)00143-8
Article source: Figure 1
Adsorbate Nitrogen: InChIKey IJGRMHOSHXDMSA-UHFFFAOYSA-N
Kind: experiment
Temperature: 77 K
Tabular data in the source: 0
pressure (bar)	uptake (cm3(STP)/g)
0.020336	236.635
0.031582	245.12
0.042829	255.456
0.052951	261.088
0.067309	267.646
0.080268	271.351
0.092103	274.748
0.10872	278.377
0.121679	280.925
0.132389	283.319
0.142247	284.709
0.156058	286.95
0.166484	288.572
0.18226	290.89
0.194945	291.511
0.217774	293.908
0.238636	295.071
0.270765	298.782
0.295002	301.102
0.320657	302.575
0.344326	304.201
0.369981	306.754
0.386902	305.217
0.392809	308.919
0.412263	308.386
0.424371	311.242
0.439326	310.013
0.452275	314.026
0.465255	310.483
0.479329	318.661
0.484983	312.34
0.499897	321.52
0.511195	315.509
0.522725	325.151
0.541642	315.518
0.546962	326.238
0.56447	318.687
0.570925	327.556
0.592375	320.006
0.595171	328.489
0.615203	321.709
0.621667	328.497
0.640858	323.799
0.645904	330.663
0.663129	324.345
0.672967	333.061
0.689057	326.435
0.701996	334.612
0.715553	327.522
0.7268	338.783
0.738098	330.228
0.751604	337.866
0.766296	331.085
0.776691	340.726
0.791089	335.256
0.797544	343.123
0.812519	335.031
0.830241	344.675
0.840991	336.428
0.85702	347.844
0.867477	340.522
0.879565	351.167
0.89453	343.46
0.910286	353.104
0.911714	347.013
0.93508	358.509
0.942152	351.108
0.957614	362.833
0.970036	358.442
0.988031	373.406
0.989186	366.235
1.00938	398.009
