Adsorption isotherm of Water, Phenanthrene on Sorbonite 4
DOI: 10.1016/s0008-6223(99)00143-8
Article source: Figure 7
Adsorbate Water: InChIKey XLYOFNOQVPJJNP-UHFFFAOYSA-N
Adsorbate Phenanthrene: InChIKey YNPNZTXNASCQKK-UHFFFAOYSA-N
Kind: experiment
Temperature: 298 K
Tabular data in the source: 0
pressure (bar)	Water fraction	Water uptake (g/g)	Phenanthrene fraction	Phenanthrene uptake (g/g)	total uptake (g/g)
1.01325			0.000405	0.004268	
1.01325			0.00066	0.006873	
1.01325			0.000897	0.012937	
1.01325			0.001333	0.010062	
1.01325			0.001479	0.007402	
1.01325			0.002408	0.013356	
1.01325			0.004083	0.035586	
1.01325			0.007561	0.055361	
1.01325			0.009382	0.078814	
1.01325			0.044927	0.094224	
