Adsorption isotherm of Water, Phenanthrene on GAC 1240
DOI: 10.1016/s0008-6223(99)00143-8
Article source: Figure 7
Adsorbate Water: InChIKey XLYOFNOQVPJJNP-UHFFFAOYSA-N
Adsorbate Phenanthrene: InChIKey YNPNZTXNASCQKK-UHFFFAOYSA-N
Kind: experiment
Temperature: 298 K
Tabular data in the source: 0
pressure (bar)	Water fraction	Water uptake (g/g)	Phenanthrene fraction	Phenanthrene uptake (g/g)	total uptake (g/g)
1.01325			0.000536	0.003063	
1.01325			0.000947	0.004522	
1.01325			0.001483	0.005787	
1.01325			0.002057	0.021684	
1.01325			0.002677	0.008414	
1.01325			0.00311	0.012206	
1.01325			0.011275	0.053718	
1.01325			0.067198	0.120163	
