Adsorption isotherm of Nitrogen on amorphous carbon 2
DOI: 10.1016/s0008-6223(99)00143-8
Article source: Figure 1
Adsorbate Nitrogen: InChIKey IJGRMHOSHXDMSA-UHFFFAOYSA-N
Kind: experiment
Temperature: 77 K
Tabular data in the source: 0
pressure (bar)	uptake (cm3(STP)/g)
0.023487	115.35
0.030225	108.77
0.045798	121.42
0.047176	114.21
0.073034	126.35
0.07351	121.54
0.095841	123.18
0.09803	132.67
0.122591	135.44
0.126644	130
0.147658	129.74
0.149847	137.97
0.17307	140.87
0.177133	133.78
0.195452	135.04
0.197641	143.01
0.216406	145.03
0.227176	136.68
0.247238	146.04
0.249508	138.95
0.268678	148.81
0.277655	141.73
0.294586	151.09
0.303564	143.11
0.320495	152.72
0.330374	144.62
0.342837	154.24
0.353607	146.9
0.371886	155.49
0.380863	148.91
0.396457	157.76
0.407663	150.68
0.430856	160.29
0.433581	152.82
0.451404	162.3
0.455021	153.95
0.483534	170.77
0.483615	156.1
0.504467	184.05
0.509979	157.23
0.521884	186.57
0.534104	159.37
0.544226	188.21
0.556891	161.27
0.569699	188.84
0.581918	161.64
0.594715	190.73
0.605141	164.29
0.620634	191.1
0.632397	166.56
0.645671	191.22
0.656968	168.7
0.673372	192.1
0.683332	169.46
0.700182	193.11
0.707447	172.49
0.726101	194.49
0.73292	174.25
0.751563	196
0.758828	176.14
0.778384	195.74
0.784747	177.78
0.799834	197.76
0.810209	180.3
0.828873	199.02
0.838347	182.7
0.852542	201.92
0.85621	185.86
0.879798	203.69
0.88301	188.63
0.906162	205.45
0.90981	191.79
0.928483	210
0.937937	198.61
0.958019	204.3
0.961971	215.56
0.990463	237.06
0.99102	217.07
1.00638	267.54
