Adsorption isotherm of Water, Phenanthrene on amorphous carbon 2
DOI: 10.1016/s0008-6223(99)00143-8
Article source: Figure 7
Adsorbate Water: InChIKey XLYOFNOQVPJJNP-UHFFFAOYSA-N
Adsorbate Phenanthrene: InChIKey YNPNZTXNASCQKK-UHFFFAOYSA-N
Kind: experiment
Temperature: 298 K
Tabular data in the source: 0
pressure (bar)	Water fraction	Water uptake (g/g)	Phenanthrene fraction	Phenanthrene uptake (g/g)	total uptake (g/g)
1.01325			0.00021	0.000449	
1.01325			0.000301	0.000574	
1.01325			0.000422	0.000657	
1.01325			0.000664	0.000741	
1.01325			0.000875	0.001096	
1.01325			0.00154	0.001373	
1.01325			0.020208	0.004006	
1.01325			0.051968	0.002611	
