Adsorption isotherm of Nitrogen on Sorbonite 4
DOI: 10.1016/s0008-6223(99)00143-8
Article source: Figure 1
Adsorbate Nitrogen: InChIKey IJGRMHOSHXDMSA-UHFFFAOYSA-N
Kind: experiment
Temperature: 77 K
Tabular data in the source: 0
pressure (bar)	uptake (cm3(STP)/g)
0.019089	296.3
0.030285	306.96
0.048645	325.89
0.061645	336.15
0.076894	347.22
0.084068	352.66
0.096166	362.52
0.109196	368.16
0.120888	371.58
0.130312	377.02
0.151873	386.08
0.158631	386.88
0.171205	391.92
0.2045	398.56
0.223843	403.8
0.2504	406.82
0.26885	408.83
0.300808	412.26
0.326919	414.27
0.355725	419.11
0.377783	420.11
0.405707	420.92
0.416103	415.49
0.427755	424.15
0.447604	419.92
0.456116	426.76
0.468771	419.92
0.485368	431.8
0.490363	425.16
0.508307	437.44
0.517831	426.37
0.52765	441.87
0.546638	428.99
0.54836	442.47
0.56823	433.82
0.572232	442.48
0.593003	434.63
0.595658	442.68
0.617321	436.04
0.620421	443.49
0.64253	436.85
0.6479	444.29
0.667303	437.25
0.678043	449.73
0.695684	437.46
0.704154	450.94
0.723142	439.87
0.724875	452.15
0.748362	440.88
0.7582	451.95
0.774483	440.89
0.780278	450.95
0.793845	442.7
0.805498	452.56
0.82176	444.51
0.829795	456.39
0.841123	444.31
0.8532	458.61
0.869483	447.54
0.885604	463.44
0.889271	452.17
0.908573	463.04
0.914045	453.38
0.934684	465.86
0.942851	456.8
0.959873	472.5
0.972083	464.45
0.989531	484.38
0.994982	476.53
1.00919	510.15
