Adsorption isotherm of Nitrogen on amorphous carbon 3
DOI: 10.1016/s0008-6223(99)00143-8
Article source: Figure 1
Adsorbate Nitrogen: InChIKey IJGRMHOSHXDMSA-UHFFFAOYSA-N
Kind: experiment
Temperature: 77 K
Tabular data in the source: 0
pressure (bar)	uptake (cm3(STP)/g)
0.021197	5.997
0.045768	6.758
0.066741	7.217
0.091089	7.398
0.119044	7.833
0.147678	8.407
0.173384	8.611
0.194804	8.932
0.224785	8.857
0.246884	9.246
0.268303	9.567
0.298062	9.701
0.319927	9.743
0.347437	10.294
0.372463	10.66
0.397044	10.841
0.426803	11.229
0.446186	11.388
0.472348	11.754
0.481142	10.826
0.500981	12.467
0.502329	11.308
0.523303	12.672
0.531419	11.465
0.547874	13.084
0.55374	11.762
0.576285	13.334
0.583499	12.429
0.601757	13.816
0.60807	12.401
0.622498	14.299
0.635133	13.138
0.652713	15.498
0.659481	13.62
0.674355	16.514
0.683373	14.426
0.703891	14.469
0.707275	16.392
0.729374	17.732
0.730052	15.53
0.754177	18.932
0.754846	17.055
0.779873	17.352
0.787989	20.687
0.803998	18.39
0.807838	22.606
0.833534	20.423
0.83399	26.054
0.857882	22.875
0.862846	28.922
0.883141	24.933
0.88765	31.953
0.905463	28.103
0.916507	34.635
0.926649	32.108
0.938373	38.64
0.959792	36.945
0.966784	44.636
0.990686	44.562
0.992935	54.85
1.00556	61.892
