Adsorption isotherm of Water, Phenanthrene on amorphous carbon 3
DOI: 10.1016/s0008-6223(99)00143-8
Article source: Figure 7
Adsorbate Water: InChIKey XLYOFNOQVPJJNP-UHFFFAOYSA-N
Adsorbate Phenanthrene: InChIKey YNPNZTXNASCQKK-UHFFFAOYSA-N
Kind: experiment
Temperature: 298 K
Tabular data in the source: 0
pressure (bar)	Water fraction	Water uptake (g/g)	Phenanthrene fraction	Phenanthrene uptake (g/g)	total uptake (g/g)
1.01325			0.000207	0.000447	
1.01325			0.000268	0.000675	
1.01325			0.000569	0.001066	
1.01325			0.000697	0.000763	
1.01325			0.002356	0.001597	
1.01325			0.008017	0.004552	
1.01325			0.012197	0.006569	
