Adsorption isotherm of Water, Phenanthrene on amorphous carbon 1
DOI: 10.1016/s0008-6223(99)00143-8
Article source: Figure 7
Adsorbate Water: InChIKey XLYOFNOQVPJJNP-UHFFFAOYSA-N
Adsorbate Phenanthrene: InChIKey YNPNZTXNASCQKK-UHFFFAOYSA-N
Kind: experiment
Temperature: 298 K
Tabular data in the source: 0
pressure (bar)	Water fraction	Water uptake (g/g)	Phenanthrene fraction	Phenanthrene uptake (g/g)	total uptake (g/g)
1.01325			0.000396	0.000746	
1.01325			0.000402	0.000634	
1.01325			0.000404	0.000583	
1.01325			0.000406	0.000536	
1.01325			0.000692	0.001373	
1.01325			0.000768	0.000913	
1.01325			0.004468	0.001847	
1.01325			0.035078	0.00287	
