Adsorption isotherm of Nitrogen on amorphous carbon 1
DOI: 10.1016/s0008-6223(99)00143-8
Article source: Figure 1
Adsorbate Nitrogen: InChIKey IJGRMHOSHXDMSA-UHFFFAOYSA-N
Kind: experiment
Temperature: 77 K
Tabular data in the source: 0
pressure (bar)	uptake (cm3(STP)/g)
0.021025	55.52
0.029151	51.56
0.044623	59.85
0.05974	54.05
0.073642	61.79
0.085162	55.57
0.098141	66.83
0.103593	59.35
0.119966	67.5
0.131943	60.58
0.14628	71.27
0.159604	64.06
0.167852	76.18
0.187245	69.66
0.194864	75.57
0.210873	70.05
0.218939	76.39
0.238565	69.87
0.243905	79.59
0.261515	69.84
0.274514	78.42
0.287605	72.49
0.297464	80.37
0.312359	73.58
0.323565	81.46
0.335075	76.08
0.350101	83.82
0.362291	78.16
0.373933	87.59
0.386578	81.23
0.397328	90.1
0.414259	82.18
0.427472	91.89
0.436307	82.29
0.45265	95.38
0.461506	84.79
0.483979	88.57
0.485935	99.98
0.507263	107.28
0.511195	92.05
0.532098	96.11
0.532199	114.58
0.555817	116.38
0.561096	101.85
0.58204	98.86
0.584168	118.17
0.608698	118.56
0.609681	106.01
0.631526	104.29
0.633856	126.28
0.657272	125.26
0.658498	109.19
0.676594	129.6
0.685693	114.65
0.706627	113.77
0.70919	135.9
0.737054	141.5
0.738543	120.35
0.758149	151.62
0.762608	123.99
0.780582	128.33
0.783997	157.09
0.810483	133.51
0.811101	176.22
0.829805	137.99
0.843139	198.59
0.856027	154.73
0.868571	233.24
0.887002	168.08
0.890143	274.23
0.908229	192.3
0.91288	306.77
0.932526	227.65
0.941959	334.07
0.952933	274.29
0.964372	349.13
0.985245	323.44
0.989409	375.17
1.00636	398.98
