Adsorption isotherm of Nitrogen on Mg-MOF-74
DOI: 10.1002/ejic.200701284
Adsorbate Nitrogen: InChIKey IJGRMHOSHXDMSA-UHFFFAOYSA-N
Temperature: 77 K
Tabular data in the source: 0
pressure (bar)	uptake (mg/g)
0.000741	249.526
0.0036537	0.450108
0.00511028	49.8283
0.00511028	200.148
0.0109366	273.559
0.0823092	283.61
0.178444	286.669
0.401301	289.727
0.702813	293.223
0.905278	294.971
