Adsorption isotherm of Nitrogen on Glassy Carbon
DOI: 10.1016/j.carbon.2005.09.037
Article source: Figure 3
Adsorbate Nitrogen: InChIKey IJGRMHOSHXDMSA-UHFFFAOYSA-N
Kind: experiment
Temperature: 77 K
Tabular data in the source: 0
pressure (bar)	uptake (cm3(STP)/g)
0.001083	93.3824
0.002165	97.0588
0.003248	100
0.00433	103.676
0.005413	105.147
0.007578	107.353
0.010825	108.824
0.01299	111.029
0.015155	111.765
0.020568	113.971
0.023816	115.441
0.028146	116.176
0.034641	117.647
0.040054	118.382
0.050879	118.382
0.061704	120.588
0.074695	120.588
0.083355	122.059
0.093098	121.324
0.097428	124.265
0.106088	123.529
0.114749	123.529
0.126656	125
0.137482	124.265
0.148307	125
0.159132	125.735
0.167792	127.206
0.177536	127.206
0.18836	127.206
0.19702	127.206
0.204598	130.147
0.205681	128.676
0.225166	128.676
0.254395	130.147
0.286871	130.882
0.305274	133.088
0.3161	132.353
0.343162	133.088
0.35507	134.559
0.381051	135.294
0.404867	133.824
0.409197	136.029
0.422188	137.5
0.430848	136.029
0.442756	138.235
0.455746	136.765
0.480644	137.5
0.484974	140.441
0.506625	138.235
0.50879	145.588
0.533688	146.324
0.552092	139.706
0.561834	148.529
0.599722	149.265
0.607301	141.912
0.654932	151.471
0.65818	144.118
0.707976	147.059
0.711223	155.882
0.758855	159.559
0.805404	154.412
0.808652	166.176
0.84221	173.529
0.854118	161.765
0.867108	182.353
0.879016	166.176
0.881181	188.235
0.904996	174.265
0.915822	222.059
0.919069	180.882
0.930977	189.706
0.941803	316.176
0.94505	202.941
0.950463	338.971
0.955876	217.647
0.969949	247.794
0.976444	340.441
0.982939	294.118
0.992682	330.882
1.00892	340.441
