Adsorption isotherm of Nitrogen on Glassy Carbon - KOH activated
DOI: 10.1016/j.carbon.2005.09.037
Article source: Figure 3
Adsorbate Nitrogen: InChIKey IJGRMHOSHXDMSA-UHFFFAOYSA-N
Kind: experiment
Temperature: 77 K
Tabular data in the source: 0
pressure (bar)	uptake (cm3(STP)/g)
0	-0.001068
0	140.441
0.001083	143.382
0.002165	202.206
0.003248	213.235
0.007578	223.529
0.009743	226.471
0.011908	229.412
0.01299	231.618
0.015155	234.559
0.018403	236.029
0.022733	237.5
0.023816	237.5
0.029228	239.706
0.035724	242.647
0.040054	244.118
0.050879	247.059
0.060622	248.529
0.071447	250.735
0.082272	252.941
0.09851	255.882
0.10717	255.882
0.117996	257.353
0.130987	258.088
0.140729	258.824
0.150472	258.824
0.160215	260.294
0.168875	261.029
0.178618	261.765
0.187278	261.765
0.19702	262.5
0.206764	263.235
0.227332	264.706
0.255478	265.441
0.287953	266.912
0.307439	269.118
0.317182	269.118
0.344246	270.588
0.35507	271.324
0.407032	273.529
0.426517	275
0.43193	275
0.447085	275.735
0.455746	275.735
0.480644	277.206
0.506625	277.206
0.510956	286.765
0.533688	288.235
0.553174	279.412
0.559669	289.706
0.608383	282.353
0.609466	291.912
0.65818	284.559
0.659262	294.853
0.709058	287.5
0.710141	297.794
0.736122	300.735
0.759938	290.441
0.763185	302.941
0.783753	305.882
0.784836	293.382
0.809734	296.324
0.815146	311.765
0.834632	299.265
0.83788	317.647
0.858448	303.676
0.86386	327.206
0.885512	312.5
0.892007	344.853
0.904996	319.118
0.912574	362.5
0.919069	328.676
0.929895	337.5
0.938555	440.441
0.943968	347.794
0.951546	499.265
0.954794	363.971
0.968867	397.059
0.977527	500
0.984022	464.706
0.991599	490.441
1.01217	500.735
