Adsorption isotherm of Nitrogen on Glassy Carbon - CO2 activated
DOI: 10.1016/j.carbon.2005.09.037
Article source: Figure 3
Adsorbate Nitrogen: InChIKey IJGRMHOSHXDMSA-UHFFFAOYSA-N
Kind: experiment
Temperature: 77 K
Tabular data in the source: 0
pressure (bar)	uptake (cm3(STP)/g)
0	0
0.001083	134.559
0.006495	147.794
0.010825	150
0.01299	152.941
0.016238	153.676
0.018403	155.147
0.019486	155.882
0.027063	157.353
0.035724	158.088
0.049796	161.029
0.061704	161.765
0.07253	163.971
0.083355	164.706
0.097428	166.912
0.117996	167.647
0.128822	168.382
0.140729	169.118
0.150472	169.118
0.161297	170.588
0.169957	171.324
0.178618	171.324
0.18836	171.324
0.19702	171.324
0.205681	171.324
0.22625	172.794
0.253312	174.265
0.286871	175.735
0.306356	177.206
0.3161	176.471
0.344246	177.941
0.35507	178.676
0.369143	177.941
0.378887	178.676
0.408115	180.147
0.427601	180.882
0.450333	181.618
0.456829	180.882
0.480644	183.088
0.483892	184.559
0.506625	183.088
0.509872	190.441
0.534771	191.912
0.552092	184.559
0.560752	192.647
0.606218	186.765
0.610548	194.853
0.657097	189.706
0.65818	197.794
0.707976	192.647
0.711223	201.471
0.735039	194.118
0.740452	203.676
0.757772	205.882
0.76102	195.588
0.783753	198.529
0.791331	210.294
0.808652	202.206
0.812981	213.971
0.830302	205.147
0.838962	221.324
0.858448	210.294
0.867108	231.618
0.889841	244.118
0.892007	219.118
0.903914	222.794
0.911492	271.324
0.916905	228.676
0.930977	240.441
0.942886	255.147
0.943968	382.353
0.955876	392.647
0.958041	277.206
0.968867	307.353
0.977527	393.382
0.982939	355.882
0.992682	390.441
