Adsorption isotherm of Ethane on Glassy Carbon
DOI: 10.1016/j.carbon.2005.09.037
Article source: Figure 7a
Adsorbate Ethane: InChIKey OTMSDBZUPAUEDD-UHFFFAOYSA-N
Kind: experiment
Temperature: 298 K
Tabular data in the source: 0
pressure (bar)	uptake (mmol/g)
0.028645	0.413606
0.029448	0.313164
0.057291	0.827213
0.117979	1.22902
0.243084	1.56587
0.591925	1.89104
1.03789	2.05674
2.82447	2.37685
4.45286	2.50189
6.46502	2.57989
9.85059	2.70597
12.502	2.74889
16.3993	2.80437
18.2202	2.83499
21.7664	2.84299
23.5543	3.00358
26.2048	3.16467
