Adsorption isotherm of Methane on Glassy Carbon
DOI: 10.1016/j.carbon.2005.09.037
Article source: Figure 7b
Adsorbate Methane: InChIKey VNWKTOKETHGBQD-UHFFFAOYSA-N
Kind: experiment
Temperature: 263 K
Tabular data in the source: 0
pressure (bar)	uptake (mmol/g)
0	0.100295
0.032051	0.289086
0.160256	0.707965
0.384615	1.13864
1.1859	1.75221
2.91667	2.25959
5.28846	2.61357
8.20513	2.83776
11.25	3.00885
17.0833	3.20944
21.5385	3.32743
