Adsorption isotherm of Ethanol on Zeolite NaA-4
DOI: 10.1021/Jp902520p
Adsorbate Ethanol: InChIKey LFQSCWFLJHTTHZ-UHFFFAOYSA-N
Temperature: 378 K
Tabular data in the source: 0
pressure (bar)	uptake (Molecules Adsorbed)
0.0105743	9.55095
0.099202	35.7694
0.307693	68.5425
