Adsorption isotherm of Water on Zeolite NaA-4
DOI: 10.1021/Jp902520p
Adsorbate Water: InChIKey XLYOFNOQVPJJNP-UHFFFAOYSA-N
Temperature: 378 K
Tabular data in the source: 0
pressure (bar)	uptake (Molecules Adsorbed)
1.05e-05	31.8367
0.00864682	127.097
0.0919914	163.803
