Adsorption isotherm of Methanol on Zeolite NaA-4
DOI: 10.1021/Jp902520p
Adsorbate Methanol: InChIKey OKKJLVBELUTLKV-UHFFFAOYSA-N
Temperature: 378 K
Tabular data in the source: 0
pressure (bar)	uptake (Molecules Adsorbed)
1.13e-05	6.49213
0.000109	16.5425
0.000994	30.9627
0.0114031	30.9627
0.121315	16.9795
0.978674	8.677
