Adsorption isotherm of Ethanol on Zeolite NaA-4
DOI: 10.1021/Jp902520p
Adsorbate Ethanol: InChIKey LFQSCWFLJHTTHZ-UHFFFAOYSA-N
Temperature: 378 K
Tabular data in the source: 0
pressure (bar)	uptake (Molecules Adsorbed)
1.1e-05	10.8619
0.0105743	8.677
0.109703	2.99633
