Adsorption isotherm of Water on Zeolite NaA-4
DOI: 10.1021/Jp902520p
Adsorbate Water: InChIKey XLYOFNOQVPJJNP-UHFFFAOYSA-N
Temperature: 378 K
Tabular data in the source: 0
pressure (bar)	uptake (Molecules Adsorbed)
1.02e-05	1.24843
9.58e-05	6.05515
0.00107185	25.719
0.0105743	64.1728
0.106978	117.921
1.0036	161.618
