Adsorption isotherm of Ethanol on Zeolite NaA-4
DOI: 10.1021/Jp902520p
Adsorbate Ethanol: InChIKey LFQSCWFLJHTTHZ-UHFFFAOYSA-N
Temperature: 378 K
Tabular data in the source: 0
pressure (bar)	uptake (Molecules Adsorbed)
1.1e-05	19.6014
0.000106	29.2148
0.000994	34.4585
0.0105743	29.6518
0.10432	16.9795
1.25858	3.4333
