Adsorption isotherm of Methanol on Zeolite NaA-4
DOI: 10.1021/Jp902520p
Adsorbate Methanol: InChIKey OKKJLVBELUTLKV-UHFFFAOYSA-N
Temperature: 378 K
Tabular data in the source: 0
pressure (bar)	uptake (Molecules Adsorbed)
1.22e-05	2.99633
0.00932459	6.49213
0.109703	2.12238
