Adsorption isotherm of Water on Zeolite NaA-4
DOI: 10.1021/Jp902520p
Adsorbate Water: InChIKey XLYOFNOQVPJJNP-UHFFFAOYSA-N
Temperature: 378 K
Tabular data in the source: 0
pressure (bar)	uptake (Molecules Adsorbed)
0.0103116	51.9375
0.0967378	48.8787
0.323568	39.2652
