Adsorption isotherm of Methanol on Zeolite NaA-4
DOI: 10.1021/Jp902520p
Adsorbate Methanol: InChIKey OKKJLVBELUTLKV-UHFFFAOYSA-N
Temperature: 378 K
Tabular data in the source: 0
pressure (bar)	uptake (Molecules Adsorbed)
0.10432	64.6098
0.357819	46.6938
1.19683	27.4669
