Adsorption isotherm of Water on Zeolite NaA-4
DOI: 10.1021/Jp902520p
Adsorbate Water: InChIKey XLYOFNOQVPJJNP-UHFFFAOYSA-N
Temperature: 378 K
Tabular data in the source: 0
pressure (bar)	uptake (Molecules Adsorbed)
1.16e-05	27.9039
0.0100555	124.475
0.099202	158.996
