Adsorption isotherm of Water on Zeolite NaA-4
DOI: 10.1021/Jp902520p
Adsorbate Water: InChIKey XLYOFNOQVPJJNP-UHFFFAOYSA-N
Temperature: 378 K
Tabular data in the source: 0
pressure (bar)	uptake (Molecules Adsorbed)
1.13e-05	3.87028
0.000111	8.24002
0.00115587	21.3493
0.0105743	54.1224
0.0967378	112.24
1.0036	166.862
