Adsorption isotherm of Nitrogen on [Zn2(TDC)2(BiPy-ethylsulfide)]
DOI: 10.1002/chem.201300477
Adsorbate Nitrogen: InChIKey IJGRMHOSHXDMSA-UHFFFAOYSA-N
Temperature: 77 K
Tabular data in the source: 0
pressure (bar)	uptake (volume/volume)
0.0129311	161.115
0.0300928	167.908
0.0575516	172.556
0.0827221	176.131
0.114185	177.919
0.134207	179.707
0.158234	181.137
0.185692	182.21
0.209147	183.282
0.236605	183.64
0.262348	184.712
0.286374	185.07
0.313261	186.142
0.341864	186.858
