Adsorption isotherm of Nitrogen on [Zn2(TDC)2(BiPy-epoxide)]
DOI: 10.1002/chem.201300477
Adsorbate Nitrogen: InChIKey IJGRMHOSHXDMSA-UHFFFAOYSA-N
Temperature: 77 K
Tabular data in the source: 0
pressure (bar)	uptake (volume/volume)
0.00949876	169.696
0.0340972	177.919
0.061556	182.21
0.0832941	183.64
0.110753	186.142
0.133635	187.215
0.158234	188.645
0.181688	190.075
0.212579	190.79
0.236605	192.221
0.261204	192.221
0.286374	193.651
0.311545	194.008
0.337288	194.366
0.364746	194.366
