Adsorption isotherm of Nitrogen on [Zn2(TDC)2(BiPy-dihydroxide)]
DOI: 10.1002/chem.201300477
Adsorbate Nitrogen: InChIKey IJGRMHOSHXDMSA-UHFFFAOYSA-N
Temperature: 77 K
Tabular data in the source: 0
pressure (bar)	uptake (volume/volume)
0.00663847	162.545
0.0363854	175.774
0.0586957	180.064
0.08215	182.925
0.113041	185.07
0.137068	185.785
0.16281	187.215
0.188553	188.288
0.213151	189.36
0.238894	190.075
0.263492	191.148
0.289235	191.863
0.316693	191.863
0.336715	192.578
