Adsorption isotherm of Nitrogen on [Zn2(TDC)2(BiPy-borane)]
DOI: 10.1002/chem.201300477
Adsorbate Nitrogen: InChIKey IJGRMHOSHXDMSA-UHFFFAOYSA-N
Temperature: 77 K
Tabular data in the source: 0
pressure (bar)	uptake (volume/volume)
0.0249443	185.427
0.0381016	190.433
0.0592677	194.008
0.0867265	197.226
0.107893	199.014
0.135351	201.517
0.161094	202.947
0.186836	205.092
0.214295	205.807
0.23775	207.952
0.264064	209.382
0.289235	210.097
0.313833	211.17
0.342436	211.885
