Adsorption isotherm of Nitrogen on [Zn2(TDC)2(BiPy-dibromide)]
DOI: 10.1002/chem.201300477
Adsorbate Nitrogen: InChIKey IJGRMHOSHXDMSA-UHFFFAOYSA-N
Temperature: 77 K
Tabular data in the source: 0
pressure (bar)	uptake (volume/volume)
0.00263407	107.485
0.00606641	114.635
0.0135032	119.641
0.0203678	122.501
0.0283766	123.931
0.0392457	125.361
0.0495428	126.076
0.0598398	126.792
0.150797	130.724
0.253767	131.082
0.355593	130.367
