Adsorption isotherm of Nitrogen on [Zn2-(TDC)2(BiPy-olefin)]
DOI: 10.1002/chem.201300477
Adsorbate Nitrogen: InChIKey IJGRMHOSHXDMSA-UHFFFAOYSA-N
Temperature: 77 K
Tabular data in the source: 0
pressure (bar)	uptake (volume/volume)
0.00949876	200.444
0.0381016	218.678
0.0569795	224.399
0.0827221	227.974
0.113613	230.477
0.138212	232.622
0.16281	234.052
0.188553	234.767
0.214295	235.84
0.237178	236.913
0.265208	237.628
0.289807	238.7
0.316693	240.13
0.336715	240.845
