Adsorption isotherm of Hydrogen on MIL-101
DOI: 10.1007/s10450-012-9438-7
Adsorbate Hydrogen: InChIKey UFHFLCQGNIYNRP-UHFFFAOYSA-N
Temperature: 298 K
Tabular data in the source: 0
pressure (bar)	uptake (wt%)
0.269935	0.00986678
0.315005	0.0316978
2.11782	0.0584583
5.90374	0.104937
8.15726	0.128881
10.1854	0.148599
12.0333	0.165501
14.1516	0.18381
16.1347	0.197895
17.8925	0.210571
20.1911	0.223247
23.9319	0.240853
26.1404	0.247895
27.853	0.250712
30.1967	0.254937
31.9544	0.254937
