Adsorption isotherm of Nitrogen on MIL-101
DOI: 10.1007/s10450-012-9438-7
Adsorbate Nitrogen: InChIKey IJGRMHOSHXDMSA-UHFFFAOYSA-N
Temperature: 77 K
Tabular data in the source: 0
pressure (bar)	uptake (cm3(STP)/g)
0.000865	7.58114
0.002295	44.1928
0.002295	109.407
0.003725	206.657
0.016596	330.221
0.046629	409.165
0.096684	490.397
0.171052	575.062
0.25543	660.87
0.402735	676.888
0.55147	686.041
0.701635	690.617
0.818906	696.338
0.919016	700.914
