Adsorption isotherm of Nitrogen on MIL-101
DOI: 10.1007/s10450-012-9438-7
Adsorbate Nitrogen: InChIKey IJGRMHOSHXDMSA-UHFFFAOYSA-N
Temperature: 77 K
Tabular data in the source: 0
pressure (bar)	uptake (cm3(STP)/g)
0.002295	37.3281
0.002295	226.107
0.003725	132.29
0.012306	331.366
0.032328	410.309
0.075232	508.703
0.125287	561.333
0.191074	621.971
0.284033	639.132
0.548609	652.862
0.700205	660.87
0.818906	664.303
0.923307	671.167
0.976222	690.617
