Adsorption isotherm of Hydrogen on MIL-101
DOI: 10.1007/s10450-012-9438-7
Adsorbate Hydrogen: InChIKey UFHFLCQGNIYNRP-UHFFFAOYSA-N
Temperature: 298 K
Tabular data in the source: 0
pressure (bar)	uptake (wt%)
1.03613	0.0309935
2.25303	0.0443738
4.23613	0.0676133
5.94881	0.0880358
8.15726	0.109867
10.0953	0.127472
12.1235	0.145782
14.1516	0.162684
15.9995	0.176064
17.8925	0.189444
20.2361	0.204233
22.1291	0.214092
23.8418	0.223951
26.1854	0.232402
27.9882	0.239444
30.3319	0.245078
31.9094	0.246486
