Adsorption isotherm of Hydrogen on MIL-101
DOI: 10.1007/s10450-012-9438-7
Adsorbate Hydrogen: InChIKey UFHFLCQGNIYNRP-UHFFFAOYSA-N
Temperature: 298 K
Tabular data in the source: 0
pressure (bar)	uptake (wt%)
0.0445826	0.0077541
0.315005	0.0274724
1.03613	0.0373316
2.34317	0.0570499
4.23613	0.0852189
8.29247	0.145078
10.1854	0.171839
11.9432	0.196487
14.2418	0.22536
16.0446	0.247895
20.1009	0.295782
21.9939	0.314796
23.8418	0.335923
26.0953	0.358458
28.0333	0.376768
30.0615	0.395782
31.9995	0.404233
