Adsorption isotherm of Hydrogen on MIL-101
DOI: 10.1007/s10450-012-9438-7
Adsorbate Hydrogen: InChIKey UFHFLCQGNIYNRP-UHFFFAOYSA-N
Temperature: 298 K
Tabular data in the source: 0
pressure (bar)	uptake (wt%)
4.14599	0.0366273
6.08402	0.0464865
8.38261	0.0577541
10.3206	0.0690217
12.1235	0.0788809
14.2868	0.0894442
16.2249	0.100712
18.0277	0.107754
20.146	0.119022
22.1742	0.128177
23.977	0.135923
26.2305	0.147895
28.0333	0.15705
30.1066	0.164092
32.1347	0.17043
