Adsorption isotherm of Hydrogen on MIL-101
DOI: 10.1007/s10450-012-9438-7
Adsorbate Hydrogen: InChIKey UFHFLCQGNIYNRP-UHFFFAOYSA-N
Temperature: 298 K
Tabular data in the source: 0
pressure (bar)	uptake (wt%)
0.269935	0.0373316
1.12627	0.0507118
2.38824	0.0711344
4.19106	0.0978949
6.21923	0.12536
8.2474	0.15705
10.2756	0.184515
12.0333	0.208458
14.2868	0.239444
16.1347	0.264796
18.1178	0.290853
20.2361	0.319022
22.0389	0.340853
23.977	0.366909
26.1404	0.392965
27.9882	0.416909
30.422	0.444374
32.0446	0.454233
