Adsorption isotherm of Hydrogen on MIL-101
DOI: 10.1007/s10450-012-9438-7
Adsorbate Hydrogen: InChIKey UFHFLCQGNIYNRP-UHFFFAOYSA-N
Temperature: 298 K
Tabular data in the source: 0
pressure (bar)	uptake (wt%)
0.450216	0.00986678
2.16289	0.0211344
4.10092	0.0281766
6.17416	0.0380358
8.15726	0.0457823
11.9882	0.0598668
14.2418	0.0683175
16.1347	0.076064
18.0277	0.0816978
20.1911	0.08874
22.084	0.0929654
24.022	0.0993034
26.1854	0.104233
28.0784	0.108458
30.2418	0.112684
32.0446	0.114092
