Adsorption isotherm of Nitrogen on MIL-101
DOI: 10.1007/s10450-012-9438-7
Adsorbate Nitrogen: InChIKey IJGRMHOSHXDMSA-UHFFFAOYSA-N
Temperature: 77 K
Tabular data in the source: 0
pressure (bar)	uptake (cm3(STP)/g)
0.000865	41.9046
0.000865	142.587
0.003725	234.116
0.009445	332.51
0.022317	405.733
0.05807	493.83
0.099544	561.333
0.172482	618.538
0.285463	650.573
0.395584	663.159
0.817476	682.609
0.920447	686.041
0.977652	700.914
