Adsorption isotherm of Hydrogen on MIL-101
DOI: 10.1007/s10450-012-9438-7
Adsorbate Hydrogen: InChIKey UFHFLCQGNIYNRP-UHFFFAOYSA-N
Temperature: 298 K
Tabular data in the source: 0
pressure (bar)	uptake (wt%)
0.224864	0.010571
1.0812	0.016909
2.34317	0.0239513
4.2812	0.0331062
6.21923	0.0422611
8.38261	0.0500076
10.1404	0.0563457
11.9432	0.0619795
14.422	0.0711344
16.0897	0.0746555
18.0277	0.0809935
20.3713	0.0866273
22.1291	0.0894442
23.977	0.0922611
26.1404	0.0943738
28.0333	0.0964865
30.2418	0.0993034
32.0897	0.0993034
