Adsorption isotherm of Carbon Dioxide on C26H24N2O4Zn
DOI: 10.1039/C0dt00392a
Adsorbate Carbon Dioxide: InChIKey CURLTUGMZLYLDI-UHFFFAOYSA-N
Temperature: 196 K
Tabular data in the source: 0
pressure (bar)	uptake (cm3(STP)/g)
0.010723	29.3705
0.0241268	37.9382
0.042892	42.9885
0.0696995	46.8162
0.101869	49.4209
0.136718	52.026
0.14208	52.4856
0.160845	53.0999
0.193014	54.6339
0.225183	55.403
0.24931	56.7829
0.302925	58.3197
0.340455	59.2425
0.420878	60.783
0.479854	61.7086
0.538831	62.6343
0.592446	63.5593
0.651423	64.0261
0.707718	65.1044
0.764014	65.5708
0.82031	66.3431
0.881967	66.9633
0.940944	67.43
0.994559	68.202
1.05354	68.8218
1.10715	69.4408
