Adsorption isotherm of Hydrogen on C26H24N2O4Zn
DOI: 10.1039/C0dt00392a
Adsorbate Hydrogen: InChIKey UFHFLCQGNIYNRP-UHFFFAOYSA-N
Temperature: 77 K
Tabular data in the source: 0
pressure (bar)	uptake (cm3(STP)/g)
0.0118648	0.923077
0.0355943	3.69231
0.0616967	5.38462
0.097291	6.76923
0.12102	7.69231
0.154242	8.61538
0.177971	9.84615
0.22543	10.7692
0.270516	11.0769
0.294246	11.5385
0.327467	12.1538
0.377299	12.4615
0.422385	12.9231
0.479336	13.2308
0.526795	13.8462
0.581373	14.1538
0.626459	14.6154
0.678664	14.9231
0.728496	15.5385
0.780701	16.4615
0.825787	16.7692
0.885111	17.0769
0.93257	17.8462
1.01088	18.9231
