Adsorption isotherm of Carbon Dioxide on C26H24N2O4Zn
DOI: 10.1039/C0dt00392a
Adsorbate Carbon Dioxide: InChIKey CURLTUGMZLYLDI-UHFFFAOYSA-N
Temperature: 298 K
Tabular data in the source: 0
pressure (bar)	uptake (cm3(STP)/g)
1.05363	0.767332
3.01038	1.99571
4.8166	3.52965
8.12801	5.06719
10.9879	6.14476
14.2993	7.37637
17.6107	8.30205
20.7716	9.5333
23.9325	10.1527
27.0934	11.078
30.2543	11.8504
33.7162	12.6235
36.8771	13.2428
39.8875	14.4737
43.3494	15.0939
46.3598	15.7129
49.5207	16.7912
52.8321	17.5639
56.1435	18.1836
59.3044	18.6501
62.1643	19.2688
