Adsorption isotherm of Nitrogen on C26H24N2O4Zn
DOI: 10.1039/C0dt00392a
Adsorbate Nitrogen: InChIKey IJGRMHOSHXDMSA-UHFFFAOYSA-N
Temperature: 77 K
Tabular data in the source: 0
pressure (bar)	uptake (cm3(STP)/g)
0.0114028	0
0.0410589	0.153846
0.0752674	0.153846
0.123168	0.307692
0.161929	0.153846
0.205277	0.461538
0.237205	0.461538
0.269115	0.153846
0.307911	0.615385
0.358084	0.615385
0.405984	0.769231
0.458428	0.615385
0.501768	0.769231
0.549668	0.923077
0.59985	1.07692
0.647759	1.38462
0.693397	1.84615
0.743578	2
0.796031	2
0.837116	2.61538
0.891884	3.23077
0.937619	5.38462
0.960617	8.76923
0.970292	18.4615
