Adsorption isotherm of Carbon Dioxide on C26H24N2O4Zn
DOI: 10.1039/C0dt00392a
Adsorbate Carbon Dioxide: InChIKey CURLTUGMZLYLDI-UHFFFAOYSA-N
Temperature: 273 K
Tabular data in the source: 0
pressure (bar)	uptake (cm3(STP)/g)
0.244458	1.83664
1.30377	4.90058
2.52606	7.04746
4.15578	9.50206
5.05213	10.7297
6.84482	12.5732
8.55602	13.8044
10.4302	15.1894
12.9563	16.5772
14.6675	17.8084
16.4602	18.4282
18.1714	19.5065
20.0455	19.9736
21.7567	20.8989
23.4679	21.5183
25.1791	21.9848
27.0533	22.7578
28.6016	23.2235
30.3128	23.69
31.9425	24.309
33.8981	24.6236
