Adsorption isotherm of N-Pentane on monolithic CMK-3
DOI: 10.1007/s10450-020-00215-6
Article source: Figure 9 (b)
Adsorbate N-Pentane: InChIKey OFBQJSOFQDEBGM-UHFFFAOYSA-N
Kind: experiment
Temperature: 290 K
Tabular data in the source: 0
pressure (bar)	uptake (cm3(STP)/g)
0.02896	3.21101
0	23.3945
0.232694	40.5963
0.785974	54.1284
1.71709	64.6789
2.79401	72.7064
3.98746	80.7339
4.97717	86.0092
6.43226	96.3303
8.03317	108.486
9.80852	120.872
11.8459	129.817
13.1558	132.339
14.9312	135.55
16.6482	138.303
18.3657	140.826
19.9955	144.037
21.7419	146.789
23.4008	148.624
25.0017	149.541
26.6898	151.376
28.3779	152.294
30.066	154.128
31.6666	156.881
32.9766	159.404
1.71709	67.4312
3.40522	79.3578
4.97717	90.5963
6.54878	101.835
8.26587	115.596
11.4677	132.339
13.8249	139.45
15.0184	146.33
16.6775	147.706
18.3364	149.083
21.7126	150.459
22.6148	150.688
25.991	152.294
29.5421	155.046
