Adsorption isotherm of Nitrogen on monolithic CMK-3
DOI: 10.1007/s10450-020-00215-6
Article source: Figure 9 (a)
Adsorbate Nitrogen: InChIKey IJGRMHOSHXDMSA-UHFFFAOYSA-N
Kind: experiment
Temperature: 77 K
Tabular data in the source: 0
pressure (bar)	uptake (cm3(STP)/g)
0	25.9939
0	42.0489
0	58.104
0	71.8654
0	88.685
0	102.446
0	117.737
0	131.498
0	146.789
0.001652	162.08
0.003303	174.312
0.006596	185.015
0.011551	198.777
0.018157	209.48
0.028057	218.654
0.037956	224.771
0.048687	232.416
0.061058	238.532
0.079216	246.177
0.099836	257.645
0.151825	278.287
0.199681	301.223
0.25084	327.217
0.297044	351.682
0.301999	359.327
0.3449	385.321
0.353148	392.966
0.384508	415.902
0.402655	429.664
0.442263	451.07
0.452163	454.128
0.500849	472.477
0.552829	483.18
0.608943	493.119
0.651844	500
0.702182	509.939
0.728588	514.526
0.753341	520.642
0.778095	524.465
0.803669	525.994
0.853177	527.523
0.902684	532.11
0.948068	538.226
0.993451	565.749
0.264043	335.627
0.318495	371.56
0.369654	408.257
0.411734	440.367
0.443915	464.832
0.465365	480.122
0.50167	506.116
0.552829	510.703
0.602337	513.761
0.62709	515.291
0.652675	516.82
0.677429	518.349
0.702182	519.878
0.726936	522.936
0.75251	524.465
0.778916	525.994
0.894436	532.11
0.937337	538.226
0.957146	542.049
