Adsorption isotherm of Carbon Dioxide on Fe-MOF-74
DOI: 10.1016/j.micromeso.2011.12.035
Adsorbate Carbon Dioxide: InChIKey CURLTUGMZLYLDI-UHFFFAOYSA-N
Temperature: 288 K
Tabular data in the source: 0
pressure (bar)	uptake (mmol/g)
0.00702701	7.62e-05
0.0478721	0.00168605
0.0732242	0.00237056
0.0943509	0.00295366
0.128154	0.00360014
0.183083	0.00432267
0.230971	0.00482972
0.309844	0.00543816
0.381675	0.00578042
0.454914	0.0061607
0.539421	0.00649028
0.602802	0.00670577
0.683083	0.00699732
0.756323	0.00717478
0.829562	0.00731422
0.901393	0.00749169
0.974633	0.00766915
0.995759	0.00770718
