Adsorption isotherm of Nitrogen on Fe-MOF-74
DOI: 10.1016/j.micromeso.2011.12.035
Adsorbate Nitrogen: InChIKey IJGRMHOSHXDMSA-UHFFFAOYSA-N
Temperature: 77 K
Tabular data in the source: 0
pressure (bar)	uptake (cm3(STP)/g)
0.00372489	269.797
0.00515504	16.9479
0.00658518	83.3065
0.00658518	190.281
0.0466292	281.238
0.113846	285.815
0.188213	288.103
0.289753	292.679
0.35554	296.684
0.402735	311.557
0.45422	318.422
0.55719	323.571
0.65873	326.431
0.760271	328.719
0.860381	331.579
0.95906	336.156
0.979082	339.588
0.993384	349.313
