Adsorption isotherm of Carbon Dioxide on Fe-MOF-74
DOI: 10.1016/j.micromeso.2011.12.035
Adsorbate Carbon Dioxide: InChIKey CURLTUGMZLYLDI-UHFFFAOYSA-N
Temperature: 298 K
Tabular data in the source: 0
pressure (bar)	uptake (mmol/g)
0.0140693	0.000152
0.0408298	0.000925
0.0563228	0.00133112
0.0873087	0.00205366
0.129562	0.00272549
0.17745	0.00338464
0.252097	0.00417056
0.299985	0.00460155
0.37745	0.00507056
0.452097	0.00548887
0.529562	0.00578042
0.602802	0.00608464
0.676041	0.00628746
0.753506	0.00650295
0.829562	0.00666774
0.899985	0.00684521
0.976041	0.00702267
