Adsorption isotherm of Nitrogen on Fe-MOF-74
DOI: 10.1016/j.micromeso.2011.12.035
Adsorbate Nitrogen: InChIKey IJGRMHOSHXDMSA-UHFFFAOYSA-N
Temperature: 77 K
Tabular data in the source: 0
pressure (bar)	uptake (cm3(STP)/g)
0.00396841	20.0921
0.00396841	100.18
0.00492184	180.268
0.0068287	256.161
0.0201767	266.077
0.056407	274.467
0.111706	277.137
0.187027	280.95
0.261394	282.476
0.314786	284.001
0.405362	284.383
0.506425	285.145
0.609396	286.671
0.710459	287.052
0.807709	288.196
0.907819	290.866
0.954537	293.535
0.980279	296.205
0.993627	306.883
