Adsorption isotherm of Nitrogen on Fe-MOF-74
DOI: 10.1016/j.micromeso.2011.12.035
Adsorbate Nitrogen: InChIKey IJGRMHOSHXDMSA-UHFFFAOYSA-N
Temperature: 77 K
Tabular data in the source: 0
pressure (bar)	uptake (cm3(STP)/g)
0.00587527	23.9059
0.00778213	76.5351
0.00873556	139.843
0.00968898	169.208
0.0211301	177.599
0.0525933	184.082
0.110752	189.04
0.187027	192.853
0.262348	194.76
0.358644	198.574
0.508332	201.625
0.65802	207.346
0.757177	210.396
0.85824	214.592
0.904958	221.838
0.959304	233.66
0.978373	250.059
0.994581	321.757
