Adsorption isotherm of Hydrogen on Fe-MOF-74
DOI: 10.1016/j.micromeso.2011.12.035
Adsorbate Hydrogen: InChIKey UFHFLCQGNIYNRP-UHFFFAOYSA-N
Temperature: 87 K
Tabular data in the source: 0
pressure (bar)	uptake (mg/g)
3.47e-06	0.14115
0.000146	0.169319
0.000282	0.197488
0.00058	0.394671
0.00175784	1.07073
0.00430241	2.42284
0.00771316	3.60594
0.0140995	5.43692
0.0284073	7.43692
0.0655858	9.38059
0.110912	10.451
0.202745	11.6623
0.400613	13.2961
0.626746	14.62
0.88962	16.0003
