Adsorption isotherm of Hydrogen on Fe-MOF-74
DOI: 10.1016/j.micromeso.2011.12.035
Adsorbate Hydrogen: InChIKey UFHFLCQGNIYNRP-UHFFFAOYSA-N
Temperature: 77 K
Tabular data in the source: 0
pressure (bar)	uptake (mg/g)
0.0053889	0.136354
0.00632787	5.95795
0.00914477	7.911
0.0147786	9.43213
0.0344969	10.4838
0.0636049	11.3852
0.100225	12.1551
0.205389	13.7702
0.304919	14.9908
0.406328	15.911
0.508675	16.7185
0.650459	17.5824
0.747173	18.0518
0.85891	18.5401
0.944356	18.9533
