Adsorption isotherm of Hydrogen on Fe-MOF-74
DOI: 10.1016/j.micromeso.2011.12.035
Adsorbate Hydrogen: InChIKey UFHFLCQGNIYNRP-UHFFFAOYSA-N
Temperature: 87 K
Tabular data in the source: 0
pressure (bar)	uptake (mg/g)
0.0082058	0.324147
0.0082058	1.60114
0.0110227	2.95325
0.0110227	4.23025
0.0138396	5.35701
0.0185344	6.46499
0.0251072	7.4603
0.0391917	8.58706
0.059849	9.48847
0.101164	10.4274
0.207267	11.7608
0.310553	12.6434
0.418534	13.3946
0.505858	13.9392
0.652337	14.6716
0.753746	15.1223
0.853276	15.5354
0.94999	15.8922
