Adsorption isotherm of Hydrogen on Fe-MOF-74
DOI: 10.1016/j.micromeso.2011.12.035
Adsorbate Hydrogen: InChIKey UFHFLCQGNIYNRP-UHFFFAOYSA-N
Temperature: 77 K
Tabular data in the source: 0
pressure (bar)	uptake (mg/g)
1.42e-06	0.112981
3.13e-05	0.225657
8.61e-05	0.394671
0.000266	0.873544
0.000569	1.57777
0.001	2.50735
0.0022638	4.67636
0.00447314	6.64819
0.0109483	8.64819
0.0243122	10.0003
0.064322	11.2961
0.113091	12.2257
0.214933	13.8031
0.385322	15.6904
0.626746	17.5214
0.79159	18.5637
0.9071	19.2397
