Adsorption isotherm of Carbon Dioxide on Fe-MOF-74
DOI: 10.1016/j.micromeso.2011.12.035
Adsorbate Carbon Dioxide: InChIKey CURLTUGMZLYLDI-UHFFFAOYSA-N
Temperature: 278 K
Tabular data in the source: 0
pressure (bar)	uptake (mmol/g)
0.00843546	0.00014
0.0380129	0.00223112
0.0605481	0.0031945
0.078858	0.00376493
0.130971	0.00470295
0.190126	0.00541281
0.238013	0.00581845
0.321112	0.00635084
0.407027	0.00676915
0.481675	0.00708605
0.547872	0.00736493
0.626745	0.00763112
0.70421	0.00787197
0.776041	0.00808746
0.849281	0.00830295
0.926745	0.00853112
0.992943	0.00868324
