Adsorption isotherm of Argon on Im-COF-Br
DOI: 10.1039/c9qm00781d
Article source: Figure S5a
Adsorbate Argon: InChIKey XKRFYHLGVUSROY-UHFFFAOYSA-N
Kind: experiment
Temperature: 87 K
Tabular data in the source: 0
pressure (bar)	uptake (cm3(STP)/g)
0	2.82353
0.006839	3.29412
0.022795	4.70588
0.034193	6.11765
0.041031	6.58823
0.054709	8.47059
0.082063	9.88235
0.104858	11.2941
0.129933	14.1176
0.155008	15.0588
0.177803	16.9412
0.202878	18.8235
0.255307	21.1765
0.282661	23.5294
0.307736	24.9412
0.355606	27.2941
0.453626	33.8824
0.555065	41.1765
0.656504	48.4706
0.761362	56.9412
0.861661	66.3529
0.9631	87.7647
1.00755	118.118
0.05015	8.47059
0.100299	12.7059
0.150449	16.9412
0.202878	21.1765
0.250748	25.8824
0.303177	29.1765
0.353327	32.9412
0.403476	36.7059
0.455906	40.4706
0.506055	44.2353
0.558484	48
0.606354	52.2353
0.658783	55.5294
0.711213	59.2941
0.761362	63.5294
0.806953	68.7059
0.859382	75.2941
0.91637	85.6471
0.961961	100.706
1.00755	118.588
