Adsorption isotherm of Argon on Im-COF-TFSI
DOI: 10.1039/c9qm00781d
Article source: Figure S5a
Adsorbate Argon: InChIKey XKRFYHLGVUSROY-UHFFFAOYSA-N
Kind: experiment
Temperature: 87 K
Tabular data in the source: 0
pressure (bar)	uptake (cm3(STP)/g)
0	0
0.013677	0.470588
0.031913	0.470588
0.056988	0.941176
0.084343	1.41176
0.104858	1.88235
0.127654	1.88235
0.157287	2.82353
0.180083	2.35294
0.205157	3.76471
0.259866	3.76471
0.278102	4.70588
0.307736	5.17647
0.353327	5.64706
0.403476	6.58823
0.460465	7.05882
0.560764	8.94118
0.661063	10.3529
0.756803	12.2353
0.861661	14.1176
0.959681	17.8824
1.00755	23.0588
0.04787	0.470588
0.100299	1.41176
0.150449	2.82353
0.200598	2.82353
0.248469	3.76471
0.300898	4.70588
0.351047	5.64706
0.401197	6.11765
0.453626	7.52941
0.503776	8.47059
0.553925	8.94118
0.606354	9.88235
0.656504	10.3529
0.706654	11.7647
0.759083	12.7059
0.809232	13.6471
0.859382	15.7647
0.909531	16.9412
0.959681	18.8235
