Adsorption isotherm of Nitrogen on NOTT-210
DOI: 10.1039/C1fd00006c
Adsorbate Nitrogen: InChIKey IJGRMHOSHXDMSA-UHFFFAOYSA-N
Temperature: 77 K
Tabular data in the source: 0
pressure (bar)	uptake (cm3(STP)/g)
0.000535701	3.97701
0.000845355	6.27586
0.0021521	5.97701
0.00222641	6.52874
0.00360128	6.73563
0.00902951	7.03448
0.0279339	7.37931
0.0562765	7.7931
0.0900071	8.2069
0.125048	8.34483
0.160082	8.43678
0.200504	8.52874
0.238232	8.62069
0.278645	8.64368
0.315023	8.71264
0.352745	8.75862
0.390467	8.8046
0.426836	8.8046
0.465912	8.89655
0.510359	8.87356
0.552125	8.94253
0.5885	8.98851
0.622178	9.01149
0.681462	9.12644
0.73671	9.28736
