Adsorption isotherm of Nitrogen on NOTT-201
DOI: 10.1039/C1fd00006c
Adsorbate Nitrogen: InChIKey IJGRMHOSHXDMSA-UHFFFAOYSA-N
Temperature: 77 K
Tabular data in the source: 0
pressure (bar)	uptake (mmol/g)
0.00224226	3.20824
0.00483941	5.4998
0.0186317	5.87422
0.0533626	6.16444
0.10908	6.24545
0.161281	6.40995
0.203078	6.44987
0.307577	6.52885
0.422545	6.56573
0.502637	6.68739
0.617622	6.6826
0.715168	6.7202
0.80923	6.75795
0.892855	6.75446
0.979949	6.7925
