Adsorption isotherm of Hydrogen on NOTT-205
DOI: 10.1039/C1fd00006c
Adsorbate Hydrogen: InChIKey UFHFLCQGNIYNRP-UHFFFAOYSA-N
Temperature: 77 K
Tabular data in the source: 0
pressure (bar)	uptake (wt%)
0.0711744	0.0711744
0.284698	1.0514
0.355872	1.26168
0.711744	1.54206
0.925267	1.64019
1.28114	1.76636
1.70819	1.90654
2.27758	2.01869
2.70463	2.11682
3.13167	2.18692
3.70107	2.24299
4.27046	2.29907
4.69751	2.34112
5.33808	2.3972
6.26335	2.46729
7.40214	2.52336
8.54093	2.57944
9.46619	2.60748
10.5338	2.66355
12.0285	2.70561
13.3808	2.76168
14.8043	2.7757
16.5836	2.81776
18.5765	2.87383
19.8577	2.88785
