Adsorption isotherm of Hydrogen on NOTT-207
DOI: 10.1039/C1fd00006c
Adsorbate Hydrogen: InChIKey UFHFLCQGNIYNRP-UHFFFAOYSA-N
Temperature: 77 K
Tabular data in the source: 0
pressure (bar)	uptake (mmol/g)
0.0333596	1.346
0.050173	1.74389
0.0840079	2.11174
0.117843	2.47958
0.144979	2.63325
0.182304	2.8178
0.219615	3.03291
0.253568	3.15622
0.277333	3.24865
0.301098	3.34108
0.338467	3.43393
0.419995	3.65039
0.45738	3.71267
0.498151	3.80562
0.54571	3.92934
0.596715	3.96147
0.69868	4.11743
0.797258	4.24271
0.899238	4.3681
0.929835	4.3996
1.00805	4.43256
