Adsorption isotherm of Hydrogen on NOTT-208
DOI: 10.1039/C1fd00006c
Adsorbate Hydrogen: InChIKey UFHFLCQGNIYNRP-UHFFFAOYSA-N
Temperature: 77 K
Tabular data in the source: 0
pressure (bar)	uptake (mmol/g)
0.00376876	0.521238
0.00750518	0.995083
0.0145089	1.25558
0.0352129	1.58684
0.0559168	1.91811
0.0628558	2.08382
0.073224	2.27315
0.09726	2.48585
0.104183	2.62786
0.124757	2.76956
0.155619	2.98209
0.17621	3.14748
0.193323	3.21817
0.227565	3.38323
0.251553	3.52484
0.278905	3.59529
0.306289	3.71312
0.347308	3.80694
0.384931	3.92453
0.422571	4.06582
0.466971	4.11216
0.501181	4.22983
0.552439	4.3234
0.603698	4.41697
0.654924	4.46315
0.702769	4.55681
0.754011	4.62668
0.805254	4.69656
0.85648	4.74274
0.904309	4.81269
0.955551	4.88257
1.05459	4.97501
