Adsorption isotherm of Nitrogen on NOTT-207
DOI: 10.1039/C1fd00006c
Adsorbate Nitrogen: InChIKey IJGRMHOSHXDMSA-UHFFFAOYSA-N
Temperature: 77 K
Tabular data in the source: 0
pressure (bar)	uptake (mmol/g)
0.00587182	2.83309
0.00893678	3.91629
0.00906583	3.58296
0.0227775	4.16572
0.0470875	4.37304
0.102773	4.53738
0.155006	4.61854
0.207224	4.74137
0.252504	4.78115
0.30127	4.82078
0.405785	4.85809
0.510284	4.93707
0.593893	4.97525
0.705377	5.01228
0.802907	5.09155
0.837735	5.13176
0.924876	5.0448
0.994548	5.08356
