Adsorption isotherm of Nitrogen on NOTT-200
DOI: 10.1039/C1fd00006c
Adsorbate Nitrogen: InChIKey IJGRMHOSHXDMSA-UHFFFAOYSA-N
Temperature: 77 K
Tabular data in the source: 0
pressure (bar)	uptake (mmol/g)
0.000120667	0.311684
0.00374069	0.662192
0.00739087	1.09062
0.0213883	1.24592
0.03887	1.40108
0.06329	1.47805
0.0807415	1.5553
0.101677	1.6324
0.16097	1.78594
0.202842	1.94015
0.255136	2.01603
0.303976	2.16997
0.349332	2.32405
0.412109	2.47745
0.457465	2.63153
0.513304	2.86312
0.558614	2.90031
0.617877	2.97593
0.656249	3.09131
0.719011	3.20575
0.771305	3.28164
0.830583	3.39621
0.875894	3.43341
0.928188	3.50929
0.966545	3.58572
1.02231	3.62251
1.04677	3.81636
