Adsorption isotherm of Nitrogen on NOTT-209
DOI: 10.1039/C1fd00006c
Adsorbate Nitrogen: InChIKey IJGRMHOSHXDMSA-UHFFFAOYSA-N
Temperature: 77 K
Tabular data in the source: 0
pressure (bar)	uptake (mmol/g)
0.00454905	6.24981
0.00483941	5.4998
0.00500073	5.08312
0.00877547	4.33297
0.0113081	6.7912
0.0250682	7.24896
0.0527657	7.70613
0.104951	7.91229
0.157184	7.99345
0.205933	8.07475
0.258167	8.15591
0.303431	8.23736
0.355697	8.23518
0.404478	8.23315
0.453227	8.31445
0.505477	8.35394
0.557742	8.35176
0.606507	8.3914
0.655273	8.43103
0.700553	8.47081
0.752803	8.5103
0.805052	8.54979
0.853834	8.54776
0.902615	8.54572
0.95138	8.58536
