Adsorption isotherm of Hydrogen on NOTT-200
DOI: 10.1039/C1fd00006c
Adsorbate Hydrogen: InChIKey UFHFLCQGNIYNRP-UHFFFAOYSA-N
Temperature: 77 K
Tabular data in the source: 0
pressure (bar)	uptake (mmol/g)
0.00384964	0.639719
0.0142178	0.829047
0.0179542	1.30289
0.0421196	1.70516
0.0904503	2.5097
0.155554	2.88731
0.207007	3.26524
0.248091	3.45384
0.282285	3.54781
0.34726	3.73585
0.391676	3.80588
0.42587	3.89986
0.466874	3.96998
0.51129	4.04002
0.559119	4.10997
0.610362	4.17985
0.658175	4.22611
0.706004	4.29607
0.757246	4.36594
0.815331	4.45935
0.86316	4.52931
0.910973	4.57557
0.958786	4.62183
1.01	4.64431
