Adsorption isotherm of Nitrogen on NOTT-206
DOI: 10.1039/C1fd00006c
Adsorbate Nitrogen: InChIKey IJGRMHOSHXDMSA-UHFFFAOYSA-N
Temperature: 77 K
Tabular data in the source: 0
pressure (bar)	uptake (mmol/g)
0.0383571	0.0764276
0.111512	0.0346164
0.153353	0.110908
0.198618	0.0312227
0.254367	0.0290507
0.306646	0.0659748
0.404205	0.0621738
0.606293	0.0543003
0.707337	0.0503635
0.80838	0.0464267
0.912908	0.0423542
1.03834	0.0374672
