Adsorption isotherm of Hydrogen on NOTT-209
DOI: 10.1039/C1fd00006c
Adsorbate Hydrogen: InChIKey UFHFLCQGNIYNRP-UHFFFAOYSA-N
Temperature: 77 K
Tabular data in the source: 0
pressure (bar)	uptake (mmol/g)
0.00983261	0.764493
0.0130705	1.10084
0.0331665	1.74337
0.053307	2.29421
0.0802204	2.90638
0.107268	3.24345
0.120754	3.48841
0.141058	3.703
0.158005	3.82579
0.18171	4.04049
0.222377	4.34741
0.239324	4.4702
0.256272	4.59299
0.280021	4.71598
0.296998	4.77764
0.341111	4.99296
0.419193	5.30102
0.456548	5.42444
0.497304	5.54795
0.548264	5.67178
0.599225	5.79561
0.697744	6.04316
0.792906	6.19891
0.894871	6.35487
0.949248	6.44823
1.02403	6.54222
