Adsorption isotherm of Hydrogen on NOTT-201
DOI: 10.1039/C1fd00006c
Adsorbate Hydrogen: InChIKey UFHFLCQGNIYNRP-UHFFFAOYSA-N
Temperature: 77 K
Tabular data in the source: 0
pressure (bar)	uptake (mmol/g)
0.00659468	0.428149
0.0132488	0.734029
0.0299286	1.40703
0.0771459	2.2338
0.0906026	2.53989
0.110936	2.69335
0.13124	2.90794
0.151589	3.03083
0.178695	3.24564
0.229581	3.5223
0.27711	3.70716
0.300875	3.79959
0.385789	4.04673
0.426575	4.10911
0.470732	4.23273
0.508117	4.29501
0.559077	4.41884
0.610067	4.48153
0.661042	4.57479
0.705215	4.66784
0.75622	4.69997
0.810611	4.76277
0.858185	4.85593
0.905803	4.85738
0.956778	4.95064
