Adsorption isotherm of Hydrogen on NOTT-204
DOI: 10.1039/C1fd00006c
Adsorbate Hydrogen: InChIKey UFHFLCQGNIYNRP-UHFFFAOYSA-N
Temperature: 77 K
Tabular data in the source: 0
pressure (bar)	uptake (wt%)
0.142349	0.799065
0.427046	1.00935
0.569395	1.21963
0.996441	1.37383
1.20996	1.45794
1.49466	1.55607
1.92171	1.65421
2.4911	1.7243
2.91815	1.79439
3.48754	1.85047
3.91459	1.89252
4.41281	1.92056
4.91103	1.96262
5.8363	2.01869
6.97509	2.07477
7.97153	2.11682
8.96797	2.15888
9.89324	2.1729
10.8897	2.20093
12.0285	2.22897
12.9537	2.27103
14.0214	2.27103
15.0178	2.29907
16.0142	2.31308
16.8683	2.3271
17.9359	2.34112
18.8612	2.35514
19.8577	2.38318
