Adsorption isotherm of Nitrogen on NOTT-208
DOI: 10.1039/C1fd00006c
Adsorbate Nitrogen: InChIKey IJGRMHOSHXDMSA-UHFFFAOYSA-N
Temperature: 77 K
Tabular data in the source: 0
pressure (bar)	uptake (mmol/g)
0.00161393	4.16877
0.00181001	4.67525
0.0022776	5.88303
0.00597303	6.42834
0.0165314	6.70065
0.0235452	6.81726
0.0480859	7.20592
0.10397	7.55439
0.159763	7.6691
0.208573	7.74512
0.316646	7.89675
0.424689	7.97047
0.452578	8.00834
0.508341	8.04513
0.588494	8.08097
0.668648	8.11681
0.720912	8.11477
0.797581	8.15074
0.856813	8.14844
0.912577	8.18522
0.98923	8.18224
