Adsorption isotherm of Hydrogen on NOTT-206
DOI: 10.1039/C1fd00006c
Adsorbate Hydrogen: InChIKey UFHFLCQGNIYNRP-UHFFFAOYSA-N
Temperature: 77 K
Tabular data in the source: 0
pressure (bar)	uptake (mmol/g)
0.0245859	1.01837
0.0349055	1.13661
0.0522774	1.58644
0.0798072	1.91754
0.10373	1.96437
0.120972	2.22462
0.144879	2.24775
0.162057	2.41322
0.185963	2.43635
0.203125	2.57812
0.237335	2.6958
0.27148	2.71869
0.30569	2.83636
0.343281	2.90656
0.384317	3.02407
0.421891	3.07057
0.466308	3.14061
0.503882	3.18711
0.551695	3.23337
0.606366	3.32686
0.654163	3.34943
0.705389	3.39561
0.804413	3.46435
0.903436	3.53309
1.02637	3.62497
