Adsorption isotherm of Ethene on C-800-3  asphalt-derived AC
DOI: 10.1016/j.ces.2017.01.003
Article source: Figure 5c
Adsorbate Ethene: InChIKey VGGSQFUCUMXWEO-UHFFFAOYSA-N
Kind: experiment
Temperature: 298 K
Tabular data in the source: 0
pressure (bar)	uptake (mmol/g)
0.509772	0.15
1.02093	0.324
4.50738	0.985
8.33414	1.55
11.0427	1.86
14.4459	2.22
17.9184	2.56
21.3215	2.87
24.7246	3.14
28.1277	3.41
31.6003	3.67
35.0034	3.89
38.3371	4.1
41.8096	4.33
45.2822	4.52
48.8936	4.72
52.2273	4.89
55.561	5.07
58.9641	5.24
62.3672	5.4
65.1452	5.54
67.9233	5.67
