Adsorption isotherm of Ethane on C-700-3 asphalt-derived AC
DOI: 10.1016/j.ces.2017.01.003
Article source: Figure 5b
Adsorbate Ethane: InChIKey OTMSDBZUPAUEDD-UHFFFAOYSA-N
Kind: experiment
Temperature: 298 K
Tabular data in the source: 0
pressure (bar)	uptake (mmol/g)
0.331043	0.423
2.26868	1.49
4.47564	2.29
6.05754	2.75
7.94811	3.23
9.91585	3.67
11.8836	4.08
13.697	4.41
15.5876	4.71
17.5553	5.02
19.4459	5.28
21.2593	5.53
23.2656	5.78
25.1562	6.01
27.0081	6.22
28.9759	6.42
30.8664	6.61
32.7956	6.79
34.7633	6.96
36.6539	7.14
37.7728	7.24
