Adsorption isotherm of Ethene on C-700-3 asphalt-derived AC
DOI: 10.1016/j.ces.2017.01.003
Article source: Figure 5b
Adsorbate Ethene: InChIKey VGGSQFUCUMXWEO-UHFFFAOYSA-N
Kind: experiment
Temperature: 298 K
Tabular data in the source: 0
pressure (bar)	uptake (mmol/g)
0.509772	0.162
1.02093	0.336
4.33376	1.11
8.26469	1.69
10.9038	2.05
14.3069	2.45
17.849	2.8
21.3215	3.12
24.5857	3.38
28.0583	3.66
31.5308	3.91
35.0034	4.14
38.3371	4.35
41.8791	4.58
45.4211	4.78
48.6853	4.96
52.2273	5.15
55.7693	5.32
59.1724	5.49
62.3672	5.65
65.2147	5.77
67.8538	5.9
