Adsorption isotherm of Ethane on C-800-3  asphalt-derived AC
DOI: 10.1016/j.ces.2017.01.003
Article source: Figure 5c
Adsorbate Ethane: InChIKey OTMSDBZUPAUEDD-UHFFFAOYSA-N
Kind: experiment
Temperature: 298 K
Tabular data in the source: 0
pressure (bar)	uptake (mmol/g)
0.330657	0.361
2.31498	1.32
4.5528	2.06
6.13471	2.48
8.02528	2.97
9.91585	3.38
11.845	3.77
13.697	4.1
15.5876	4.43
17.5167	4.74
19.4073	5.01
21.3364	5.3
23.227	5.55
25.1176	5.79
27.0081	6.01
28.8987	6.22
30.9436	6.44
32.8342	6.64
34.7633	6.82
36.6153	7
37.7342	7.11
