Adsorption isotherm of Nitrogen on CuBTC
DOI: 10.1021/Ie400329c
Adsorbate Nitrogen: InChIKey IJGRMHOSHXDMSA-UHFFFAOYSA-N
Temperature: 77 K
Tabular data in the source: 0
pressure (bar)	uptake (cm3(STP)/g)
0.0105646	147.338
0.0630016	168.969
0.18317	189.616
0.336111	208.296
0.482497	225.011
0.572077	239.759
0.69006	261.389
0.827707	291.868
0.923842	317.431
0.974094	329.229
