Adsorption isotherm of Nitrogen on CuBTC
DOI: 10.1021/Ie400329c
Adsorbate Nitrogen: InChIKey IJGRMHOSHXDMSA-UHFFFAOYSA-N
Temperature: 77 K
Tabular data in the source: 0
pressure (bar)	uptake (cm3(STP)/g)
0.0105646	45.0863
0.0324133	53.935
0.0826654	62.7838
0.172245	75.5653
0.303338	89.33
0.458464	111.943
0.580817	131.607
0.70317	159.137
0.803674	182.733
0.871405	205.347
0.971909	229.927
