Adsorption isotherm of Nitrogen on Zr(OH)4
DOI: 10.1021/Ie400329c
Adsorbate Nitrogen: InChIKey IJGRMHOSHXDMSA-UHFFFAOYSA-N
Temperature: 77 K
Tabular data in the source: 0
pressure (bar)	uptake (cm3(STP)/g)
0.0127495	57.8678
0.0236738	71.6325
0.0804806	82.4476
0.165691	99.1619
0.395102	130.624
0.486867	147.338
0.600481	171.918
0.69006	197.481
0.768716	224.027
0.849556	248.607
0.917287	266.305
0.967539	278.103
