Adsorption isotherm of Nitrogen on CuBTC
DOI: 10.1021/Ie400329c
Adsorbate Nitrogen: InChIKey IJGRMHOSHXDMSA-UHFFFAOYSA-N
Temperature: 77 K
Tabular data in the source: 0
pressure (bar)	uptake (cm3(STP)/g)
0.00837971	177.817
0.0324133	188.632
0.0782957	201.414
0.139472	211.246
0.309892	225.994
0.510901	242.708
0.696615	261.389
0.851741	281.053
0.936951	297.767
0.974094	313.498
