Adsorption isotherm of Nitrogen on CuBTC
DOI: 10.1021/Ie400329c
Adsorbate Nitrogen: InChIKey IJGRMHOSHXDMSA-UHFFFAOYSA-N
Temperature: 77 K
Tabular data in the source: 0
pressure (bar)	uptake (cm3(STP)/g)
0.00837971	339.061
0.0433377	352.826
0.137287	367.574
0.331741	375.439
0.607035	380.355
0.888884	384.288
0.96317	387.238
