Adsorption isotherm of Carbon Dioxide on Norit R1 Extra
DOI: 10.1016/j.seppur.2014.08.021
Article source: Figure 1
Adsorbate Carbon Dioxide: InChIKey CURLTUGMZLYLDI-UHFFFAOYSA-N
Kind: experiment
Isotherm type: excess
Temperature: 298 K
Tabular data in the source: 0
pressure (bar)	uptake (mmol/g)
0.665	0
1.131	0
4.969	0
9.914	0
19.826	0
29.818	0
39.679	0
49.546	0
59.823	0
