Adsorption isotherm of Nitrogen on MOF-508b
DOI: 10.1016/j.seppur.2014.08.021
Adsorbate Nitrogen: InChIKey IJGRMHOSHXDMSA-UHFFFAOYSA-N
Temperature: 343 K
Tabular data in the source: 0
pressure (bar)	uptake (mmol/g)
1.01504	0.56381
2.04887	0.941896
3.02632	1.38158
4.49248	1.94818
