Adsorption isotherm of Carbon Dioxide, Methane on MOF-508b
DOI: 10.1016/j.seppur.2014.08.021
Article source: Figure 8c
Adsorbate Carbon Dioxide: InChIKey CURLTUGMZLYLDI-UHFFFAOYSA-N
Adsorbate Methane: InChIKey VNWKTOKETHGBQD-UHFFFAOYSA-N
Kind: experiment
Isotherm type: excess
Temperature: 343 K
Tabular data in the source: 0
pressure (bar)	Carbon Dioxide fraction	Carbon Dioxide uptake (mmol/g)	Methane fraction	Methane uptake (mmol/g)	total uptake (mmol/g)
0.03	0.5	0.0517	0.5	0.0517	0.0517
1.01	0.5	0.3808	0.5	0.2254	0.6295
2.01	0.5	0.6995	0.5	0.3989	1.1451
4	0.5	1.2953	0.5	0.7565	2.0622
