Adsorption isotherm of Nitrogen on MOF-508b
DOI: 10.1016/j.seppur.2014.08.021
Article source: Figure 7a
Adsorbate Nitrogen: InChIKey IJGRMHOSHXDMSA-UHFFFAOYSA-N
Kind: experiment
Isotherm type: excess
Temperature: 303 K
Tabular data in the source: 0
pressure (bar)	uptake (mmol/g)
0.5585	0.4537
1.0242	0.7243
1.9749	1.0196
2.9813	1.4064
4.4912	1.9098
