Adsorption isotherm of Nitrogen on Calgon F-400
DOI: 10.1016/j.seppur.2014.08.021
Adsorbate Nitrogen: InChIKey IJGRMHOSHXDMSA-UHFFFAOYSA-N
Temperature: 318 K
Tabular data in the source: 0
pressure (bar)	uptake (mmol/g)
9.17431	1.2
17.6147	1.82857
27.5229	2.22857
41.8349	2.62857
55.7798	2.85714
70.0917	3.02857
82.9358	3.14286
96.8807	3.17143
112.294	3.2
