Adsorption isotherm of Methane on Norit R1 Extra
DOI: 10.1016/j.seppur.2014.08.021
Article source: Figure 1
Adsorbate Methane: InChIKey VNWKTOKETHGBQD-UHFFFAOYSA-N
Kind: experiment
Isotherm type: excess
Temperature: 298 K
Tabular data in the source: 0
pressure (bar)	uptake (mmol/g)
1.348	1.0759
5.07	2.8634
9.886	4.0221
19.805	5.2303
26.738	5.6938
39.046	6.1241
48.772	6.3228
57.546	6.4221
