Adsorption isotherm of Methane on MOF-508b
DOI: 10.1016/j.seppur.2014.08.021
Adsorbate Methane: InChIKey VNWKTOKETHGBQD-UHFFFAOYSA-N
Temperature: 303 K
Tabular data in the source: 0
pressure (bar)	uptake (mmol/g)
0.130597	0.180246
0.559701	0.419036
1.04478	0.657488
2.03358	1.04376
3.04104	1.4601
4.51493	1.96413
