Adsorption isotherm of Methane on MOF-508b
DOI: 10.1016/j.seppur.2014.08.021
Article source: Figure 7a
Adsorbate Methane: InChIKey VNWKTOKETHGBQD-UHFFFAOYSA-N
Kind: experiment
Isotherm type: excess
Temperature: 303 K
Tabular data in the source: 0
pressure (bar)	uptake (mmol/g)
0.5956	0.5146
1.024	0.7857
2.0118	1.1727
2.9997	1.529
4.4722	2.0328
