Adsorption isotherm of Methane on IRMOF-1
DOI: 10.1016/j.seppur.2014.08.021
Adsorbate Methane: InChIKey VNWKTOKETHGBQD-UHFFFAOYSA-N
Temperature: 298 K
Tabular data in the source: 0
pressure (bar)	uptake (mmol/g)
2.23147	0.983112
3.7183	1.74721
5.95221	2.40424
7.44066	2.95096
9.30063	3.71587
10.6041	4.04479
13.9534	5.24772
16.1881	5.79606
18.7951	6.4539
21.2156	7.11134
24.9396	8.09769
27.3633	8.32035
30.1585	8.76121
40.5964	10.0883
