Adsorption isotherm of Methane on MOF-508b
DOI: 10.1016/j.seppur.2014.08.021
Article source: Figure 7b
Adsorbate Methane: InChIKey VNWKTOKETHGBQD-UHFFFAOYSA-N
Kind: experiment
Isotherm type: excess
Temperature: 343 K
Tabular data in the source: 0
pressure (bar)	uptake (mmol/g)
1.1433	0.635
2.0393	0.9859
2.9353	1.3368
4.5181	1.7548
