Adsorption isotherm of Methane on MOF-508b
DOI: 10.1016/j.seppur.2014.08.021
Article source: Figure 7b
Adsorbate Methane: InChIKey VNWKTOKETHGBQD-UHFFFAOYSA-N
Kind: experiment
Isotherm type: excess
Temperature: 323 K
Tabular data in the source: 0
pressure (bar)	uptake (mmol/g)
0.1682	0.1223
0.6166	0.5197
1.0655	0.7031
2.0945	1.0699
3.086	1.4367
4.508	1.9258
