Adsorption isotherm of Carbon Dioxide on MOF-508b
DOI: 10.1016/j.seppur.2014.08.021
Article source: Figure 7b
Adsorbate Carbon Dioxide: InChIKey CURLTUGMZLYLDI-UHFFFAOYSA-N
Kind: experiment
Isotherm type: excess
Temperature: 323 K
Tabular data in the source: 0
pressure (bar)	uptake (mmol/g)
0.1305	0.214
0.5037	0.7031
1.0639	1.3144
2.054	2.2009
3.0818	3.0262
4.5024	4.0044
