Adsorption isotherm of Carbon Dioxide, Nitrogen, Methane on MOF-508b
DOI: 10.1016/j.seppur.2014.08.021
Article source: Figure 10b
Adsorbate Carbon Dioxide: InChIKey CURLTUGMZLYLDI-UHFFFAOYSA-N
Adsorbate Nitrogen: InChIKey IJGRMHOSHXDMSA-UHFFFAOYSA-N
Adsorbate Methane: InChIKey VNWKTOKETHGBQD-UHFFFAOYSA-N
Kind: experiment
Isotherm type: excess
Temperature: 323 K
Tabular data in the source: 0
pressure (bar)	Carbon Dioxide fraction	Carbon Dioxide uptake (mmol/g)	Nitrogen fraction	Nitrogen uptake (mmol/g)	Methane fraction	Methane uptake (mmol/g)	total uptake (mmol/g)
0.0089	0.33	0.014	0.33	0.014	0.33	0.014	0.014
1.9946	0.33	0.6098	0.33	0.2523	0.33	0.3014	1.1636
3.001	0.33	0.8832	0.33	0.3505	0.33	0.4206	1.6612
4.0073	0.33	1.1986	0.33	0.4907	0.33	0.5678	2.25
