Adsorption isotherm of Carbon Dioxide on Calgon F-400
DOI: 10.1016/j.seppur.2014.08.021
Adsorbate Carbon Dioxide: InChIKey CURLTUGMZLYLDI-UHFFFAOYSA-N
Temperature: 318 K
Tabular data in the source: 0
pressure (bar)	uptake (mmol/g)
5.50459	3.85714
11.3761	5.05714
18.7156	5.91429
26.422	6.37143
34.1284	6.71429
59.4495	6.88571
68.2569	6.8
79.633	6.42857
86.6055	6.02857
91.3761	5.45714
100.183	4.2
111.193	3.37143
