Adsorption isotherm of Carbon Dioxide, Nitrogen, Methane on MOF-508b
DOI: 10.1016/j.seppur.2014.08.021
Article source: Figure 10a
Adsorbate Carbon Dioxide: InChIKey CURLTUGMZLYLDI-UHFFFAOYSA-N
Adsorbate Nitrogen: InChIKey IJGRMHOSHXDMSA-UHFFFAOYSA-N
Adsorbate Methane: InChIKey VNWKTOKETHGBQD-UHFFFAOYSA-N
Kind: experiment
Isotherm type: excess
Temperature: 303 K
Tabular data in the source: 0
pressure (bar)	Carbon Dioxide fraction	Carbon Dioxide uptake (mmol/g)	Nitrogen fraction	Nitrogen uptake (mmol/g)	Methane fraction	Methane uptake (mmol/g)	total uptake (mmol/g)
0.0174	0.33	0.0274	0.33	0.0274	0.33	0.0274	0.0274
2.0114	0.33	1.0435	0.33	0.2471	0.33	0.302	1.6133
3.0042	0.33	1.4862	0.33	0.3123	0.33	0.4153	2.2071
4.0059	0.33	1.984	0.33	0.3501	0.33	0.4874	2.8422
