Adsorption isotherm of Carbon Dioxide, Nitrogen on MOF-508b
DOI: 10.1016/j.seppur.2014.08.021
Article source: Figure 9b
Adsorbate Carbon Dioxide: InChIKey CURLTUGMZLYLDI-UHFFFAOYSA-N
Adsorbate Nitrogen: InChIKey IJGRMHOSHXDMSA-UHFFFAOYSA-N
Kind: experiment
Isotherm type: excess
Temperature: 323 K
Tabular data in the source: 0
pressure (bar)	Carbon Dioxide fraction	Carbon Dioxide uptake (mmol/g)	Nitrogen fraction	Nitrogen uptake (mmol/g)	total uptake (mmol/g)
0.0197	0.5	0.0307	0.5	0.0307	0.0307
0.9915	0.5	0.5255	0.5	0.2398	0.7806
1.9925	0.5	0.9591	0.5	0.4184	1.3674
4.0047	0.5	1.9082	0.5	0.8266	2.7144
