Adsorption isotherm of Methane on Calgon F-400
DOI: 10.1016/j.seppur.2014.08.021
Article source: Figure 5
Adsorbate Methane: InChIKey VNWKTOKETHGBQD-UHFFFAOYSA-N
Kind: experiment
Isotherm type: excess
Temperature: 318 K
Tabular data in the source: 0
pressure (bar)	uptake (mmol/g)
8.799	2.4
15.425	3.1059
28.696	3.7961
42.781	4.1569
53.046	4.3137
69.553	4.4235
83.446	4.4078
97.54	4.4235
111.031	4.3608
