Adsorption isotherm of Methane on MOF-508b
DOI: 10.1016/j.seppur.2014.08.021
Adsorbate Methane: InChIKey VNWKTOKETHGBQD-UHFFFAOYSA-N
Temperature: 323 K
Tabular data in the source: 0
pressure (bar)	uptake (mmol/g)
0.166052	0.14986
0.553506	0.358729
1.01476	0.597325
2.06642	0.98322
3.06273	1.36945
4.5203	1.84341
