Adsorption isotherm of Carbon Dioxide, Nitrogen on MOF-508b
DOI: 10.1016/j.seppur.2014.08.021
Article source: Figure 9a
Adsorbate Carbon Dioxide: InChIKey CURLTUGMZLYLDI-UHFFFAOYSA-N
Adsorbate Nitrogen: InChIKey IJGRMHOSHXDMSA-UHFFFAOYSA-N
Kind: experiment
Isotherm type: excess
Temperature: 303 K
Tabular data in the source: 0
pressure (bar)	Carbon Dioxide fraction	Carbon Dioxide uptake (mmol/g)	Nitrogen fraction	Nitrogen uptake (mmol/g)	total uptake (mmol/g)
0.0389	0.5	0.0403	0.5	0.0403	0.0403
1.0027	0.5	0.9066	0.5	0.2298	1.1389
1.9962	0.5	1.5707	0.5	0.3384	1.9242
3.993	0.5	2.8788	0.5	0.5959	3.4445
