Adsorption isotherm of Nitrogen on Calgon F-400
DOI: 10.1016/j.seppur.2014.08.021
Article source: Figure 5
Adsorbate Nitrogen: InChIKey IJGRMHOSHXDMSA-UHFFFAOYSA-N
Kind: experiment
Isotherm type: excess
Temperature: 318 K
Tabular data in the source: 0
pressure (bar)	uptake (mmol/g)
9.03	1.1922
18.075	1.8039
27.931	2.2118
42.216	2.6196
55.499	2.8549
69.589	3.0118
82.673	3.1216
97.168	3.1843
112.47	3.1843
