Adsorption isotherm of Carbon Dioxide on MOF-508b
DOI: 10.1016/j.seppur.2014.08.021
Adsorbate Carbon Dioxide: InChIKey CURLTUGMZLYLDI-UHFFFAOYSA-N
Temperature: 323 K
Tabular data in the source: 0
pressure (bar)	uptake (mmol/g)
0.110701	0.150194
0.479705	0.660898
1.03321	1.26101
2.02952	2.12999
3.06273	2.99876
4.5203	3.95548
