Adsorption isotherm of Methane on MOF-508b
DOI: 10.1016/j.seppur.2014.08.021
Adsorbate Methane: InChIKey VNWKTOKETHGBQD-UHFFFAOYSA-N
Temperature: 343 K
Tabular data in the source: 0
pressure (bar)	uptake (mmol/g)
0.507519	0.374825
1.05263	0.595016
2.03008	0.941779
2.95113	1.31917
4.49248	1.85526
