Adsorption isotherm of Carbon Dioxide on Calgon F-400
DOI: 10.1016/j.seppur.2014.08.021
Article source: Figure 5
Adsorbate Carbon Dioxide: InChIKey CURLTUGMZLYLDI-UHFFFAOYSA-N
Kind: experiment
Isotherm type: excess
Temperature: 318 K
Tabular data in the source: 0
pressure (bar)	uptake (mmol/g)
5.944	3.8275
11.551	5.051
18.979	5.9137
26.417	6.3529
34.463	6.6824
59.424	6.902
67.884	6.7451
79.37	6.3843
86.628	5.9765
91.675	5.4431
99.963	4.1412
111.259	3.3255
