Adsorption isotherm of Nitrogen on Norit R1 Extra
DOI: 10.1016/j.seppur.2014.08.021
Adsorbate Nitrogen: InChIKey IJGRMHOSHXDMSA-UHFFFAOYSA-N
Temperature: 298 K
Tabular data in the source: 0
pressure (bar)	uptake (mmol/g)
0.220126	0.176471
0.660377	0.397059
4.62264	1.27941
9.46541	1.98529
19.3711	2.82353
28.8365	3.35294
39.4025	3.70588
46.4465	3.88235
59.434	4.10294
