Adsorption isotherm of Carbon Dioxide on Norit R1 Extra
DOI: 10.1016/j.seppur.2014.08.021
Adsorbate Carbon Dioxide: InChIKey CURLTUGMZLYLDI-UHFFFAOYSA-N
Temperature: 298 K
Tabular data in the source: 0
pressure (bar)	uptake (mmol/g)
2.22045e-15	0.838235
0.220126	1.41176
0.440252	2.25
4.62264	5.69118
9.68553	7.54412
19.5912	9.30882
29.4969	10.0588
39.6226	10.2794
49.5283	10.0588
59.6541	9.61765
