Adsorption isotherm of Carbon Dioxide, Methane on MOF-508b
DOI: 10.1016/j.seppur.2014.08.021
Article source: Figure 8b
Adsorbate Carbon Dioxide: InChIKey CURLTUGMZLYLDI-UHFFFAOYSA-N
Adsorbate Methane: InChIKey VNWKTOKETHGBQD-UHFFFAOYSA-N
Kind: experiment
Isotherm type: excess
Temperature: 323 K
Tabular data in the source: 0
pressure (bar)	Carbon Dioxide fraction	Carbon Dioxide uptake (mmol/g)	Methane fraction	Methane uptake (mmol/g)	total uptake (mmol/g)
0.0494	0.5	0.0619	0.5	0.0619	0.0309
1.0093	0.5	0.5349	0.5	0.2558	0.7623
1.989	0.5	0.9768	0.5	0.4496	1.4109
3.9881	0.5	1.8708	0.5	0.8062	2.646
