Adsorption isotherm of Carbon Dioxide on IRMOF-1
DOI: 10.1016/j.seppur.2014.08.021
Adsorbate Carbon Dioxide: InChIKey CURLTUGMZLYLDI-UHFFFAOYSA-N
Temperature: 298 K
Tabular data in the source: 0
pressure (bar)	uptake (mmol/g)
1.11127	1.08937
2.96394	2.83253
4.99911	5.11956
6.84934	7.1888
9.25277	10.1288
11.4688	13.1771
13.5056	15.2468
15.3583	16.9899
19.6322	19.2818
23.7277	20.4864
27.6399	21.2557
33.7916	21.9213
42.1854	22.1569
