Adsorption isotherm of Carbon Dioxide on MOF-508b
DOI: 10.1016/j.seppur.2014.08.021
Article source: Figure 7a
Adsorbate Carbon Dioxide: InChIKey CURLTUGMZLYLDI-UHFFFAOYSA-N
Kind: experiment
Isotherm type: excess
Temperature: 303 K
Tabular data in the source: 0
pressure (bar)	uptake (mmol/g)
0.1298	0.3054
0.4638	0.9768
0.9654	1.7995
1.9695	3.046
2.9737	4.2617
4.5179	5.9007
