Adsorption isotherm of Carbon Dioxide, Nitrogen on MOF-508b
DOI: 10.1016/j.seppur.2014.08.021
Article source: Figure 9c
Adsorbate Carbon Dioxide: InChIKey CURLTUGMZLYLDI-UHFFFAOYSA-N
Adsorbate Nitrogen: InChIKey IJGRMHOSHXDMSA-UHFFFAOYSA-N
Kind: experiment
Isotherm type: excess
Temperature: 343 K
Tabular data in the source: 0
pressure (bar)	Carbon Dioxide fraction	Carbon Dioxide uptake (mmol/g)	Nitrogen fraction	Nitrogen uptake (mmol/g)	total uptake (mmol/g)
0.0196	0.5	0.0201	0.5	0.0201	0.0201
1.0073	0.5	0.4106	0.5	0.2493	0.6322
2.0049	0.5	0.7103	0.5	0.3778	1.063
4	0.5	1.3098	0.5	0.6952	1.9849
