Adsorption isotherm of Nitrogen on MOF-508b
DOI: 10.1016/j.seppur.2014.08.021
Adsorbate Nitrogen: InChIKey IJGRMHOSHXDMSA-UHFFFAOYSA-N
Temperature: 323 K
Tabular data in the source: 0
pressure (bar)	uptake (mmol/g)
0.516605	0.389124
0.95941	0.597659
2.01107	0.983554
3.02583	1.36967
4.61255	1.93337
