Adsorption isotherm of Carbon Dioxide, Nitrogen, Methane on MOF-508b
DOI: 10.1016/j.seppur.2014.08.021
Article source: Figure 10c
Adsorbate Carbon Dioxide: InChIKey CURLTUGMZLYLDI-UHFFFAOYSA-N
Adsorbate Nitrogen: InChIKey IJGRMHOSHXDMSA-UHFFFAOYSA-N
Adsorbate Methane: InChIKey VNWKTOKETHGBQD-UHFFFAOYSA-N
Kind: experiment
Isotherm type: excess
Temperature: 343 K
Tabular data in the source: 0
pressure (bar)	Carbon Dioxide fraction	Carbon Dioxide uptake (mmol/g)	Nitrogen fraction	Nitrogen uptake (mmol/g)	Methane fraction	Methane uptake (mmol/g)	total uptake (mmol/g)
0.0085	0.33	0.0266	0.33	0.0266	0.33	0.0266	0.0266
2	0.33	0.429	0.33	0.2428	0.33	0.2761	0.9679
2.9915	0.33	0.607	0.33	0.3209	0.33	0.3542	1.2988
4.0085	0.33	0.7982	0.33	0.4324	0.33	0.4789	1.7029
