Adsorption isotherm of Carbon Dioxide, Methane on MOF-508b
DOI: 10.1016/j.seppur.2014.08.021
Article source: Figure 8a
Adsorbate Carbon Dioxide: InChIKey CURLTUGMZLYLDI-UHFFFAOYSA-N
Adsorbate Methane: InChIKey VNWKTOKETHGBQD-UHFFFAOYSA-N
Kind: experiment
Isotherm type: excess
Temperature: 303 K
Tabular data in the source: 0
pressure (bar)	Carbon Dioxide fraction	Carbon Dioxide uptake (mmol/g)	Methane fraction	Methane uptake (mmol/g)	total uptake (mmol/g)
0.0496	0.5	0.051	0.5	0.0306	0.0511
1.0124	0.5	0.8261	0.5	0.2839	1.133
2.0149	0.5	1.5192	0.5	0.4757	2.0102
4.0099	0.5	2.8338	0.5	0.8798	3.7135
