Adsorption isotherm of Methane on Norit R1 Extra
DOI: 10.1016/j.seppur.2014.08.021
Adsorbate Methane: InChIKey VNWKTOKETHGBQD-UHFFFAOYSA-N
Temperature: 298 K
Tabular data in the source: 0
pressure (bar)	uptake (mmol/g)
0.440252	1.05882
4.62264	2.91176
9.24528	3.92647
19.5912	5.20588
26.6352	5.60294
38.9623	6.08824
48.6478	6.30882
57.2327	6.39706
