Adsorption isotherm of Methane on Calgon F-400
DOI: 10.1016/j.seppur.2014.08.021
Adsorbate Methane: InChIKey VNWKTOKETHGBQD-UHFFFAOYSA-N
Temperature: 318 K
Tabular data in the source: 0
pressure (bar)	uptake (mmol/g)
8.80734	2.4
15.7798	3.08571
28.2569	3.8
43.3028	4.17143
53.211	4.31429
69.3578	4.45714
83.6697	4.45714
97.6147	4.45714
110.826	4.37143
