Adsorption isotherm of Nitrogen on MOF-508b
DOI: 10.1016/j.seppur.2014.08.021
Article source: Figure 7b
Adsorbate Nitrogen: InChIKey IJGRMHOSHXDMSA-UHFFFAOYSA-N
Kind: experiment
Isotherm type: excess
Temperature: 323 K
Tabular data in the source: 0
pressure (bar)	uptake (mmol/g)
0.5046	0.3974
0.9348	0.5808
2.0199	0.9782
3.03	1.3755
4.6202	1.9869
