Adsorption isotherm of Carbon Dioxide on MOF-508b
DOI: 10.1016/j.seppur.2014.08.021
Article source: Figure 7c
Adsorbate Carbon Dioxide: InChIKey CURLTUGMZLYLDI-UHFFFAOYSA-N
Kind: experiment
Isotherm type: excess
Temperature: 343 K
Tabular data in the source: 0
pressure (bar)	uptake (mmol/g)
0.1145	0.157
0.5344	0.4721
1.0115	0.9126
2.042	1.544
3.0344	2.144
4.5038	2.9656
