Adsorption isotherm of Nitrogen on Norit R1 Extra
DOI: 10.1016/j.seppur.2014.08.021
Article source: Figure 1
Adsorbate Nitrogen: InChIKey IJGRMHOSHXDMSA-UHFFFAOYSA-N
Kind: experiment
Isotherm type: excess
Temperature: 298 K
Tabular data in the source: 0
pressure (bar)	uptake (mmol/g)
1.628	0.3972
5.02	1.2579
9.706	1.9697
19.696	2.8138
29.146	3.3103
39.958	3.7076
46.419	3.84
59.682	4.0883
