Adsorption isotherm of Nitrogen on MOF-508b
DOI: 10.1016/j.seppur.2014.08.021
Adsorbate Nitrogen: InChIKey IJGRMHOSHXDMSA-UHFFFAOYSA-N
Temperature: 303 K
Tabular data in the source: 0
pressure (bar)	uptake (mmol/g)
0.11194	0.0898417
0.522388	0.419261
1.00746	0.687886
2.01493	0.983531
3.02239	1.39986
4.51493	1.93396
