Adsorption isotherm of Carbon Dioxide on MOF-508b
DOI: 10.1016/j.seppur.2014.08.021
Adsorbate Carbon Dioxide: InChIKey CURLTUGMZLYLDI-UHFFFAOYSA-N
Temperature: 303 K
Tabular data in the source: 0
pressure (bar)	uptake (mmol/g)
0.11194	0.240704
0.466418	0.992875
1.00746	1.80427
2.03358	3.06531
3.04104	4.23596
4.53358	5.91661
