Adsorption isotherm of Nitrogen on MIL-53(Al)
DOI: 10.1016/j.micromeso.2010.07.024
Adsorbate Nitrogen: InChIKey IJGRMHOSHXDMSA-UHFFFAOYSA-N
Temperature: 77 K
Tabular data in the source: 0
pressure (bar)	uptake (cm3(STP)/g)
0.00229475	216.015
0.0180263	230.174
0.0466292	235.68
0.0981143	241.186
0.15389	245.119
0.242559	247.478
0.339808	254.557
0.429908	258.49
0.525727	264.783
0.612966	269.502
0.700205	277.368
0.784583	284.447
0.864671	295.46
0.929027	306.472
0.976222	319.844
1.00053	327.709
