Adsorption isotherm of Nitrogen on L-MOF
DOI: 10.1016/j.micromeso.2010.07.024
Adsorbate Nitrogen: InChIKey IJGRMHOSHXDMSA-UHFFFAOYSA-N
Temperature: 77 K
Tabular data in the source: 0
pressure (bar)	uptake (cm3(STP)/g)
0.00229475	159.381
0.00944547	212.082
0.0308976	234.106
0.0623608	244.332
0.123857	253.771
0.25543	269.502
0.342669	277.368
0.45279	289.167
0.531448	297.819
0.65158	309.618
0.776002	326.136
0.867531	344.227
0.936178	361.532
1.00053	385.916
