Adsorption isotherm of Nitrogen on L-MOF
DOI: 10.1016/j.micromeso.2010.07.024
Adsorbate Nitrogen: InChIKey IJGRMHOSHXDMSA-UHFFFAOYSA-N
Temperature: 77 K
Tabular data in the source: 0
pressure (bar)	uptake (cm3(STP)/g)
0.00372489	260.85
0.00515504	300.179
0.0137359	329.282
0.0437689	344.227
0.102405	356.813
0.191074	367.825
0.285463	377.264
0.388433	386.703
0.504275	396.928
0.584363	404.794
0.677322	416.593
0.75884	429.178
0.831778	442.55
0.921877	463.787
0.971932	484.238
0.996244	496.824
