Adsorption isotherm of Nitrogen on L-MOF
DOI: 10.1016/j.micromeso.2010.07.024
Adsorbate Nitrogen: InChIKey IJGRMHOSHXDMSA-UHFFFAOYSA-N
Temperature: 77 K
Tabular data in the source: 0
pressure (bar)	uptake (cm3(STP)/g)
0.00515504	221.521
0.00658518	266.356
0.0266072	286.021
0.0637909	300.179
0.129577	310.405
0.243989	323.776
0.378422	335.575
0.462801	342.654
0.572922	352.88
0.677322	366.252
0.777432	381.197
0.85037	395.355
0.917586	413.446
0.967641	431.538
1.00053	447.269
