Adsorption isotherm of Benzene on DAT-MOF-1
DOI: 10.1039/c5cc06128h
Article source: Figure 3
Adsorbate Benzene: InChIKey UHOVQNZJYSORNB-UHFFFAOYSA-N
Kind: experiment
Temperature: 298 K
Tabular data in the source: 0
pressure (bar)	uptake (mmol/g)
0.002066	0.487952
0.004476	0.628012
0.005164	0.885542
0.009296	0.722892
0.00964	0.935241
0.013772	0.971386
0.016182	0.786145
0.018936	0.989458
0.022379	0.822289
0.023067	1.01205
0.028576	1.04819
0.029265	0.86747
0.035462	0.881024
0.039249	1.125
0.042003	0.903614
0.050955	0.935241
0.051643	1.16114
0.057496	1.1747
0.063005	0.966867
0.065415	1.19729
0.080219	1.25602
0.081597	1.0256
0.093991	1.33283
0.094335	1.07982
0.10432	1.46386
0.110861	1.63554
0.11155	1.26506
0.119124	1.68524
