Adsorption isotherm of Cyclohexane on DAT-MOF-1
DOI: 10.1039/c5cc06128h
Article source: Figure 3
Adsorbate Cyclohexane: InChIKey XDTMQSROBMDMFD-UHFFFAOYSA-N
Kind: experiment
Temperature: 298 K
Tabular data in the source: 0
pressure (bar)	uptake (mmol/g)
0.004225	0.008888
0.00529	0.022775
0.006697	0.013788
0.008452	0.013259
0.010921	0.000382
0.01303	0.017617
0.019721	0.030937
0.035571	0.043938
0.038391	0.034803
0.040502	0.048283
0.04649	0.052592
0.04966	0.052482
0.053533	0.061382
0.055297	0.052284
0.061633	0.074653
0.061637	0.056581
0.068328	0.069901
0.075016	0.092258
0.078189	0.083111
0.086985	0.127984
0.090159	0.114319
0.094374	0.168389
0.101755	0.24042
0.102126	0.159082
0.111264	0.253642
