Adsorption isotherm of Nitrogen on CuBTC
DOI: 10.1016/S2095-4956(14)60171-6
Adsorbate Nitrogen: InChIKey IJGRMHOSHXDMSA-UHFFFAOYSA-N
Temperature: 77 K
Tabular data in the source: 0
pressure (bar)	uptake (cm3(STP)/g)
0.00333022	42.8184
0.00365364	8.13008
0.00449251	118.157
0.00480078	85.0949
0.0137908	120.867
0.0305329	125.203
0.0603483	127.371
0.0864291	130.081
0.0938829	130.623
0.118114	131.707
0.155399	132.791
0.174041	133.333
0.34556	137.127
0.388443	137.669
0.435061	137.669
0.794887	144.715
0.915963	158.808
0.947582	167.48
0.95313	172.358
0.962403	177.778
