Adsorption isotherm of Carbon Dioxide on IRMOF-1
DOI: 10.1016/S2095-4956(14)60171-6
Adsorbate Carbon Dioxide: InChIKey CURLTUGMZLYLDI-UHFFFAOYSA-N
Temperature: 298 K
Tabular data in the source: 0
pressure (bar)	uptake (cm3(STP)/g)
-0.0174294	-1.30847
0.0347178	1.63601
6.01403	97.6353
