Adsorption isotherm of Methane on IRMOF-1
DOI: 10.1016/S2095-4956(14)60171-6
Adsorbate Methane: InChIKey VNWKTOKETHGBQD-UHFFFAOYSA-N
Temperature: 298 K
Tabular data in the source: 0
pressure (bar)	uptake (cm3(STP)/g)
0.20654	3.52174
0.413081	6.07573
5.00861	43.2247
7.02238	51.0294
