Adsorption isotherm of Nitrogen on IRMOF-1
DOI: 10.1016/S2095-4956(14)60171-6
Adsorbate Nitrogen: InChIKey IJGRMHOSHXDMSA-UHFFFAOYSA-N
Temperature: 298 K
Tabular data in the source: 0
pressure (bar)	uptake (cm3(STP)/g)
0.223752	0.938871
0.430293	0.91222
5.02582	16.7709
