Adsorption isotherm of Nitrogen on CuBTC
DOI: 10.1016/S2095-4956(14)60171-6
Adsorbate Nitrogen: InChIKey IJGRMHOSHXDMSA-UHFFFAOYSA-N
Temperature: 298 K
Tabular data in the source: 0
pressure (bar)	uptake (cm3(STP)/g)
0.238027	3.336
5.02241	22.1214
7.01476	28.0214
