Adsorption isotherm of Nitrogen on IRMOF-1
DOI: 10.1016/S2095-4956(14)60171-6
Adsorbate Nitrogen: InChIKey IJGRMHOSHXDMSA-UHFFFAOYSA-N
Temperature: 77 K
Tabular data in the source: 0
pressure (bar)	uptake (cm3(STP)/g)
0.000424489	154.472
0.00333022	42.8184
0.00365364	8.13008
0.00449251	118.157
0.00480078	85.0949
0.0115067	165.854
0.0338176	172.9
0.0598833	177.236
0.0729263	178.32
0.0952877	179.946
0.11206	181.03
0.151209	182.114
0.177305	183.198
0.236961	184.824
0.350694	186.45
0.725473	189.702
0.796337	189.16
0.829898	189.702
0.852269	190.244
0.924983	191.328
0.951084	191.87
