Adsorption isotherm of Methane on CuBTC
DOI: 10.1016/S2095-4956(14)60171-6
Adsorbate Methane: InChIKey VNWKTOKETHGBQD-UHFFFAOYSA-N
Temperature: 298 K
Tabular data in the source: 0
pressure (bar)	uptake (cm3(STP)/g)
0.135336	6.69484
0.22023	8.70032
