Adsorption isotherm of Carbon Dioxide on CuBTC
DOI: 10.1016/S2095-4956(14)60171-6
Adsorbate Carbon Dioxide: InChIKey CURLTUGMZLYLDI-UHFFFAOYSA-N
Temperature: 298 K
Tabular data in the source: 0
pressure (bar)	uptake (cm3(STP)/g)
0.0171022	-0.336709
0.167021	10.7507
0.21585	18.4801
0.399402	30.9109
0.970588	55.7657
