Adsorption isotherm of Methylene blue, Co(II), Water on modified chitin
DOI: 10.1016/j.molliq.2016.10.079
Article source: Figure 1
Adsorbate Methylene blue: InChIKey CXKWCBBOMKCUKX-UHFFFAOYSA-M
Adsorbate Co(II): InChIKey XLJKHNWPARRRJB-UHFFFAOYSA-N
Adsorbate Water: InChIKey XLYOFNOQVPJJNP-UHFFFAOYSA-N
Kind: experiment
Temperature: 298 K
Tabular data in the source: 0
pressure (bar)	Methylene blue fraction	Methylene blue uptake (mg/g)	Co(II) fraction	Co(II) uptake (mg/g)	Water fraction	Water uptake (mg/g)	total uptake (mg/g)
1.01325	1.25	0.055	0.143	0.346			
1.01325	9.96	6.064	3.964	5.087			
1.01325	40.94	10.255	6.419	8.323			
1.01325	110	15.105	8.973	11.884			
1.01325	219.97	16.203	17.001	15.078			
1.01325	353.86	16.306	35.007	22.241			
