Adsorption isotherm of Co(II), Water on modified chitin
DOI: 10.1016/j.molliq.2016.10.079
Article source: Figure 1
Adsorbate Co(II): InChIKey XLJKHNWPARRRJB-UHFFFAOYSA-N
Adsorbate Water: InChIKey XLYOFNOQVPJJNP-UHFFFAOYSA-N
Kind: experiment
Temperature: 298 K
Tabular data in the source: 0
pressure (bar)	Co(II) fraction	Co(II) uptake (mg/g)	Water fraction	Water uptake (mg/g)	total uptake (mg/g)
1.01325	0.133	0.305			
1.01325	4.083	8.152			
1.01325	6.062	9.431			
1.01325	8.648	12.907			
1.01325	16.359	18.227			
1.01325	31.969	25.369			
