Adsorption isotherm of Methylene blue, Co(II), Water on modified chitin
DOI: 10.1016/j.molliq.2016.10.079
Article source: Figure 1
Adsorbate Methylene blue: InChIKey CXKWCBBOMKCUKX-UHFFFAOYSA-M
Adsorbate Co(II): InChIKey XLJKHNWPARRRJB-UHFFFAOYSA-N
Adsorbate Water: InChIKey XLYOFNOQVPJJNP-UHFFFAOYSA-N
Kind: experiment
Temperature: 328 K
Tabular data in the source: 0
pressure (bar)	Methylene blue fraction	Methylene blue uptake (mg/g)	Co(II) fraction	Co(II) uptake (mg/g)	Water fraction	Water uptake (mg/g)	total uptake (mg/g)
1.01325	1.25	0.055	0.143	0.346			
1.01325	37.94	1.763	2.321	14.855			
1.01325	99.8	3.924	3.554	18.741			
1.01325	203.09	5.021	3.828	21			
1.01325	339.62	5.536	9.773	32.192			
1.01325	484.5	5.68	25.188	51.991			
