Adsorption isotherm of Methylene blue, Co(II), Water on modified chitin
DOI: 10.1016/j.molliq.2016.10.079
Article source: Figure 1
Adsorbate Methylene blue: InChIKey CXKWCBBOMKCUKX-UHFFFAOYSA-M
Adsorbate Co(II): InChIKey XLJKHNWPARRRJB-UHFFFAOYSA-N
Adsorbate Water: InChIKey XLYOFNOQVPJJNP-UHFFFAOYSA-N
Kind: experiment
Temperature: 318 K
Tabular data in the source: 0
pressure (bar)	Methylene blue fraction	Methylene blue uptake (mg/g)	Co(II) fraction	Co(II) uptake (mg/g)	Water fraction	Water uptake (mg/g)	total uptake (mg/g)
1.01325	1.25	0.055	0.143	0.346			
1.01325	30.15	3.128	2.454	8.058			
1.01325	81.7	6.97	3.698	13.064			
1.01325	194.03	8.389	5.371	17.113			
1.01325	304.97	9.171	12.34	29.241			
1.01325	439.42	9.288	29.178	35.285			
