Adsorption isotherm of Methylene blue, Water on modified chitin
DOI: 10.1016/j.molliq.2016.10.079
Article source: Figure 1
Adsorbate Methylene blue: InChIKey CXKWCBBOMKCUKX-UHFFFAOYSA-M
Adsorbate Water: InChIKey XLYOFNOQVPJJNP-UHFFFAOYSA-N
Kind: experiment
Temperature: 328 K
Tabular data in the source: 0
pressure (bar)	Methylene blue fraction	Methylene blue uptake (mg/g)	Water fraction	Water uptake (mg/g)	total uptake (mg/g)
1.01325	0.89	0.076			
1.01325	34.36	3.464			
1.01325	63.65	7.714			
1.01325	172.78	10.215			
1.01325	295.96	10.941			
1.01325	423.7	11.186			
