Adsorption isotherm of Co(II), Water on modified chitin
DOI: 10.1016/j.molliq.2016.10.079
Article source: Figure 1
Adsorbate Co(II): InChIKey XLJKHNWPARRRJB-UHFFFAOYSA-N
Adsorbate Water: InChIKey XLYOFNOQVPJJNP-UHFFFAOYSA-N
Kind: experiment
Temperature: 308 K
Tabular data in the source: 0
pressure (bar)	Co(II) fraction	Co(II) uptake (mg/g)	Water fraction	Water uptake (mg/g)	total uptake (mg/g)
1.01325	0.133	0.305			
1.01325	3.467	9.434			
1.01325	4.67	11.223			
1.01325	7.028	13.824			
1.01325	14.417	20.223			
1.01325	30.141	32.206			
