Adsorption isotherm of Methylene blue, Water on modified chitin
DOI: 10.1016/j.molliq.2016.10.079
Article source: Figure 1
Adsorbate Methylene blue: InChIKey CXKWCBBOMKCUKX-UHFFFAOYSA-M
Adsorbate Water: InChIKey XLYOFNOQVPJJNP-UHFFFAOYSA-N
Kind: experiment
Temperature: 318 K
Tabular data in the source: 0
pressure (bar)	Methylene blue fraction	Methylene blue uptake (mg/g)	Water fraction	Water uptake (mg/g)	total uptake (mg/g)
1.01325	0.89	0.076			
1.01325	29.8	4.072			
1.01325	62.52	7.832			
1.01325	164.55	11.254			
1.01325	286.97	12.048			
1.01325	415.59	12.276			
