Adsorption isotherm of Methylene blue, Co(II), Water on modified chitin
DOI: 10.1016/j.molliq.2016.10.079
Article source: Figure 1
Adsorbate Methylene blue: InChIKey CXKWCBBOMKCUKX-UHFFFAOYSA-M
Adsorbate Co(II): InChIKey XLJKHNWPARRRJB-UHFFFAOYSA-N
Adsorbate Water: InChIKey XLYOFNOQVPJJNP-UHFFFAOYSA-N
Kind: experiment
Temperature: 308 K
Tabular data in the source: 0
pressure (bar)	Methylene blue fraction	Methylene blue uptake (mg/g)	Co(II) fraction	Co(II) uptake (mg/g)	Water fraction	Water uptake (mg/g)	total uptake (mg/g)
1.01325	1.25	0.055	0.143	0.346			
1.01325	24.99	4.61	3.875	6.41			
1.01325	68.76	8.115	5.516	10.378			
1.01325	169.69	9.857	7.971	12.922			
1.01325	276.18	10.969	16.384	18.497			
1.01325	384.35	11.195	33.211	25.497			
