Adsorption isotherm of Acenaphthylene on NC6H14 Soot Film
DOI: 10.1021/es050800f
Adsorbate Acenaphthylene: InChIKey HXGDTGSAIMULJN-UHFFFAOYSA-N
Temperature: 298 K
Tabular data in the source: 0
pressure (bar)	uptake (molecules/cm2)
1.57559e-09	66911400000000
2.79346e-09	73807400000000
4.24124e-09	89784200000000
5.8532e-09	91558800000000
7.08424e-09	105027000000000
