Adsorption isotherm of Benzene on NC6H14 Soot Film
DOI: 10.1021/es050800f
Adsorbate Benzene: InChIKey UHOVQNZJYSORNB-UHFFFAOYSA-N
Temperature: 273 K
Tabular data in the source: 0
pressure (bar)	uptake (molecules/cm2)
1.73254e-10	4701860000
7.52373e-10	24355700000
1.42795e-09	32553700000
4.2953e-09	109094000000
1.3519e-08	331894000000
3.38207e-08	755440000000
8.46103e-08	1719100000000
1.33737e-07	2189270000000
