Adsorption isotherm of Acenaphthylene on NC6H14 Soot Film
DOI: 10.1021/es050800f
Adsorbate Acenaphthylene: InChIKey HXGDTGSAIMULJN-UHFFFAOYSA-N
Temperature: 308 K
Tabular data in the source: 0
pressure (bar)	uptake (molecules/cm2)
1.38179e-09	35051000000000
1.63299e-09	37905300000000
1.86201e-09	41001500000000
2.14859e-09	44340400000000
2.56964e-09	47021900000000
2.93004e-09	48910300000000
3.3409e-09	51868100000000
3.76429e-09	53938600000000
4.4486e-09	57200500000000
4.95283e-09	58344500000000
5.9945e-09	61872800000000
6.67395e-09	61872800000000
