Adsorption isotherm of Acenaphthylene on NC6H14 Soot Film
DOI: 10.1021/es050800f
Adsorbate Acenaphthylene: InChIKey HXGDTGSAIMULJN-UHFFFAOYSA-N
Temperature: 298 K
Tabular data in the source: 0
pressure (bar)	uptake (molecules/cm2)
1.72664e-09	2934270000000
4.08821e-09	8128310000000
8.35013e-09	15863500000000
1.20816e-08	23157900000000
1.8363e-08	30053800000000
