Adsorption isotherm of Benzene on NC6H14 Soot Film
DOI: 10.1021/es050800f
Adsorbate Benzene: InChIKey UHOVQNZJYSORNB-UHFFFAOYSA-N
Temperature: 243 K
Tabular data in the source: 0
pressure (bar)	uptake (molecules/cm2)
3.98486e-10	67251200000
1.04511e-09	225372000000
2.08062e-09	512979000000
8.22589e-09	1416770000000
1.36283e-08	2531630000000
3.5661e-08	4747880000000
7.77433e-08	9345450000000
1.41069e-07	15160000000000
