Adsorption isotherm of Benzene on NC6H14 Soot Film
DOI: 10.1021/es050800f
Adsorbate Benzene: InChIKey UHOVQNZJYSORNB-UHFFFAOYSA-N
Temperature: 263 K
Tabular data in the source: 0
pressure (bar)	uptake (molecules/cm2)
6.26965e-10	26828700000
1.08706e-09	45677300000
1.71954e-09	70583000000
2.59856e-09	109094000000
4.3043e-09	185738000000
6.21188e-09	260615000000
1.02873e-08	422766000000
1.78436e-08	792866000000
3.09324e-08	1285880000000
5.87859e-08	2412130000000
8.10332e-08	3224040000000
1.2246e-07	4983100000000
