Adsorption isotherm of Acenaphthylene on NC6H14 Soot Film
DOI: 10.1021/es050800f
Adsorbate Acenaphthylene: InChIKey HXGDTGSAIMULJN-UHFFFAOYSA-N
Temperature: 315 K
Tabular data in the source: 0
pressure (bar)	uptake (molecules/cm2)
8.45363e-10	509096000000
3.19583e-09	1676100000000
6.69011e-09	3571080000000
1.01684e-08	5209550000000
1.36648e-08	6767060000000
1.66404e-08	7598010000000
