Adsorption isotherm of Ethylbenzene on NC6H14 Soot Film
DOI: 10.1021/es050800f
Adsorbate Ethylbenzene: InChIKey YNQLUTRBYVCPMQ-UHFFFAOYSA-N
Temperature: 283 K
Tabular data in the source: 0
pressure (bar)	uptake (molecules/cm2)
1.94202e-09	242605000000
3.62379e-09	469786000000
6.28366e-09	875185000000
1.35792e-08	1760760000000
1.82122e-08	2311000000000
4.72828e-08	6106610000000
6.11298e-08	6858040000000
7.61856e-08	8659640000000
9.15278e-08	10113500000000
1.0996e-07	10927000000000
1.18335e-07	12770300000000
1.37042e-07	14345000000000
