Adsorption isotherm of Acenaphthylene on NC6H14 Soot Film
DOI: 10.1021/es050800f
Adsorbate Acenaphthylene: InChIKey HXGDTGSAIMULJN-UHFFFAOYSA-N
Temperature: 298 K
Tabular data in the source: 0
pressure (bar)	uptake (molecules/cm2)
1.85906e-09	3706810000000
2.20878e-09	4413670000000
2.37817e-09	4677350000000
2.82555e-09	5569290000000
3.35717e-09	6828100000000
4.73918e-09	9130610000000
5.63084e-09	10871800000000
6.69011e-09	12944900000000
8.55841e-09	15406400000000
1.0422e-08	19444600000000
1.40053e-08	24530100000000
1.70551e-08	28359600000000
