Adsorption isotherm of Naphthalene on NC6H14 Soot Film
DOI: 10.1021/es050800f
Adsorbate Naphthalene: InChIKey UFWIBTONFRDIAS-UHFFFAOYSA-N
Temperature: 308 K
Tabular data in the source: 0
pressure (bar)	uptake (molecules/cm2)
1.24593e-09	951919000000
1.57919e-09	1205040000000
2.07054e-09	1570720000000
2.62436e-09	1930630000000
3.44083e-09	2591790000000
4.51142e-09	3379090000000
5.71812e-09	4153360000000
7.49727e-09	5257750000000
1.01684e-08	6854880000000
1.33322e-08	8677610000000
1.68983e-08	10666000000000
2.29189e-08	13505200000000
3.00499e-08	16603500000000
4.36127e-08	20417400000000
5.91511e-08	25107300000000
7.75556e-08	28261800000000
1.16435e-07	33759800000000
