Adsorption isotherm of Ethylbenzene on NC6H14 Soot Film
DOI: 10.1021/es050800f
Adsorbate Ethylbenzene: InChIKey YNQLUTRBYVCPMQ-UHFFFAOYSA-N
Temperature: 273 K
Tabular data in the source: 0
pressure (bar)	uptake (molecules/cm2)
5.57716e-10	146859000000
8.35051e-10	225216000000
1.55824e-09	403274000000
2.51075e-09	642984000000
4.04551e-09	1024940000000
6.76212e-09	1698630000000
9.40834e-09	2505530000000
1.69236e-08	4317180000000
2.18798e-08	5450040000000
3.27599e-08	8037110000000
5.68045e-08	13319900000000
8.82314e-08	20422100000000
