Adsorption isotherm of Ethylbenzene on NC6H14 Soot Film
DOI: 10.1021/es050800f
Adsorbate Ethylbenzene: InChIKey YNQLUTRBYVCPMQ-UHFFFAOYSA-N
Temperature: 263 K
Tabular data in the source: 0
pressure (bar)	uptake (molecules/cm2)
1.3958e-09	1462850000000
3.49328e-09	3180530000000
9.40834e-09	8402340000000
1.9599e-08	13912300000000
3.65724e-08	23040900000000
6.11298e-08	31419600000000
8.82314e-08	39646100000000
