Adsorption isotherm of Naphthalene on NC6H14 Soot Film
DOI: 10.1021/es050800f
Adsorbate Naphthalene: InChIKey UFWIBTONFRDIAS-UHFFFAOYSA-N
Temperature: 283 K
Tabular data in the source: 0
pressure (bar)	uptake (molecules/cm2)
9.82999e-10	9651620000000
2.80823e-09	24785600000000
6.32955e-09	35359000000000
8.58466e-09	39810700000000
1.68983e-08	58465500000000
2.45252e-08	67811000000000
3.80875e-08	81002800000000
4.66684e-08	93885800000000
6.32955e-08	99678200000000
7.75556e-08	102731000000000
