Adsorption isotherm of Naphthalene on NC6H14 Soot Film
DOI: 10.1021/es050800f
Adsorbate Naphthalene: InChIKey UFWIBTONFRDIAS-UHFFFAOYSA-N
Temperature: 283 K
Tabular data in the source: 0
pressure (bar)	uptake (molecules/cm2)
9.82999e-10	6787350000000
1.24593e-09	8342570000000
1.63359e-09	10876800000000
2.29189e-09	14604900000000
3.32631e-09	20197600000000
4.36127e-09	25568200000000
5.71812e-09	31434000000000
7.24758e-09	37514600000000
1.05187e-08	48932800000000
1.42664e-08	56728300000000
1.93492e-08	67733000000000
2.45252e-08	74045700000000
3.00499e-08	80928200000000
3.80875e-08	88450400000000
5.91511e-08	99655200000000
7.24758e-08	102707000000000
