Adsorption isotherm of Benzene on NC6H14 Soot Film
DOI: 10.1021/es050800f
Adsorbate Benzene: InChIKey UHOVQNZJYSORNB-UHFFFAOYSA-N
Temperature: 283 K
Tabular data in the source: 0
pressure (bar)	uptake (molecules/cm2)
3.43402e-10	3517390000
4.52307e-10	4934920000
6.83397e-10	7266750000
1.03255e-09	10700400000
1.4904e-09	15758000000
2.15131e-09	23200600000
2.96547e-09	31017000000
4.48222e-09	50315300000
7.7686e-09	77767800000
1.28704e-08	138963000000
2.13188e-08	236537000000
3.52999e-08	365595000000
4.8659e-08	488765000000
7.02365e-08	719615000000
