Adsorption isotherm of Benzene on NC6H14 Soot Film
DOI: 10.1021/es050800f
Adsorbate Benzene: InChIKey UHOVQNZJYSORNB-UHFFFAOYSA-N
Temperature: 283 K
Tabular data in the source: 0
pressure (bar)	uptake (molecules/cm2)
2.9896e-10	2388640000
7.84374e-10	8818200000
1.18512e-09	12983700000
3.90745e-09	47940200000
8.13791e-09	94362600000
1.41154e-08	176970000000
2.68209e-08	316228000000
5.58384e-08	565067000000
8.05848e-08	792866000000
