Adsorption isotherm of Ethylbenzene on NC6H14 Soot Film
DOI: 10.1021/es050800f
Adsorbate Ethylbenzene: InChIKey YNQLUTRBYVCPMQ-UHFFFAOYSA-N
Temperature: 243 K
Tabular data in the source: 0
pressure (bar)	uptake (molecules/cm2)
2.24902e-09	16409700000000
8.74245e-09	37033900000000
1.63137e-08	74559000000000
3.39839e-08	90344100000000
6.82438e-08	133076000000000
1.05999e-07	143615000000000
