Adsorption isotherm of Naphthalene on NC6H14 Soot Film
DOI: 10.1021/es050800f
Adsorbate Naphthalene: InChIKey UFWIBTONFRDIAS-UHFFFAOYSA-N
Temperature: 308 K
Tabular data in the source: 0
pressure (bar)	uptake (molecules/cm2)
1.24593e-09	752835000000
2.62436e-09	1667630000000
5.71812e-09	3483370000000
8.88041e-09	6461000000000
1.24593e-08	8675610000000
1.87052e-08	12000500000000
4.51142e-08	20422100000000
5.91511e-08	25107300000000
7.75556e-08	26656300000000
1.01684e-07	30005400000000
1.16435e-07	36863800000000
