Adsorption isotherm of Benzene on NC6H14 Soot Film
DOI: 10.1021/es050800f
Adsorbate Benzene: InChIKey UHOVQNZJYSORNB-UHFFFAOYSA-N
Temperature: 263 K
Tabular data in the source: 0
pressure (bar)	uptake (molecules/cm2)
6.27687e-10	35859100000
1.30802e-09	81620600000
8.97662e-09	512979000000
1.55612e-08	832147000000
4.2672e-08	2085930000000
9.73762e-08	4105820000000
1.4707e-07	5489090000000
