Adsorption isotherm of Naphthalene on NC6H14 Soot Film
DOI: 10.1021/es050800f
Adsorbate Naphthalene: InChIKey UFWIBTONFRDIAS-UHFFFAOYSA-N
Temperature: 303 K
Tabular data in the source: 0
pressure (bar)	uptake (molecules/cm2)
3.00499e-09	4392380000000
3.93997e-09	5725320000000
5.52781e-09	7687760000000
7.24758e-09	9734190000000
9.50261e-09	12688200000000
1.33322e-08	16546300000000
1.74805e-08	20342300000000
2.37084e-08	25009200000000
2.90498e-08	28986800000000
3.68199e-08	32628700000000
5.16586e-08	41314300000000
7.24758e-08	47907100000000
1.08809e-07	53963500000000
