Adsorption isotherm of Benzene on NC6H14 Soot Film
DOI: 10.1021/es050800f
Adsorbate Benzene: InChIKey UHOVQNZJYSORNB-UHFFFAOYSA-N
Temperature: 273 K
Tabular data in the source: 0
pressure (bar)	uptake (molecules/cm2)
1.89646e-10	3691730000
3.1414e-10	6285210000
6.54249e-10	12370900000
9.44372e-10	18218000000
1.56427e-09	31017000000
2.59062e-09	50315300000
5.15553e-09	103944000000
8.93888e-09	176970000000
1.86206e-08	365595000000
3.22852e-08	622444000000
5.86061e-08	1112240000000
1.11379e-07	2085930000000
