Adsorption isotherm of Benzene on NC6H14 Soot Film
DOI: 10.1021/es050800f
Adsorbate Benzene: InChIKey UHOVQNZJYSORNB-UHFFFAOYSA-N
Temperature: 243 K
Tabular data in the source: 0
pressure (bar)	uptake (molecules/cm2)
3.98e-10	47940200000
6.29e-10	74079800000
9.96e-10	120000000000
1.5e-09	177000000000
2.49e-09	287000000000
4.96e-09	565000000000
9e-09	1060000000000
1.63e-08	1800000000000
2.47e-08	2930000000000
3.91e-08	4310000000000
5.64e-08	6350000000000
9.34e-08	10300000000000
1.35e-07	14400000000000
