Adsorption isotherm of Naphthalene on NC6H14 Soot Film
DOI: 10.1021/es050800f
Adsorbate Naphthalene: InChIKey UFWIBTONFRDIAS-UHFFFAOYSA-N
Temperature: 303 K
Tabular data in the source: 0
pressure (bar)	uptake (molecules/cm2)
2.71471e-09	4390360000000
6.32955e-09	8908410000000
9.18635e-09	10332400000000
1.37915e-08	19160200000000
2.71471e-08	26533800000000
4.07561e-08	34609900000000
5.71812e-08	42559800000000
1.12557e-07	55577600000000
