Adsorption isotherm of Ethylbenzene on NC6H14 Soot Film
DOI: 10.1021/es050800f
Adsorbate Ethylbenzene: InChIKey YNQLUTRBYVCPMQ-UHFFFAOYSA-N
Temperature: 283 K
Tabular data in the source: 0
pressure (bar)	uptake (molecules/cm2)
2.01457e-09	242549000000
3.01636e-09	357767000000
4.19675e-09	488203000000
5.62863e-09	666193000000
8.42758e-09	982653000000
1.26184e-08	1506950000000
1.75559e-08	1977420000000
2.18798e-08	2699600000000
3.0442e-08	3542420000000
4.08285e-08	4649430000000
5.27853e-08	6103800000000
6.82438e-08	7705490000000
9.49496e-08	10514800000000
1.32106e-07	13797500000000
