Adsorption isotherm of Naphthalene on NC6H14 Soot Film
DOI: 10.1021/es050800f
Adsorbate Naphthalene: InChIKey UFWIBTONFRDIAS-UHFFFAOYSA-N
Temperature: 273 K
Tabular data in the source: 0
pressure (bar)	uptake (molecules/cm2)
1.08809e-09	12947900000000
1.37915e-09	16387000000000
1.68983e-09	18993300000000
2.07054e-09	23340000000000
2.37084e-09	26260300000000
3.10852e-09	32284900000000
4.07561e-09	40869600000000
5.34371e-09	48786500000000
7.00637e-09	56558800000000
8.88041e-09	67515000000000
1.08809e-08	73790400000000
1.42664e-08	83061500000000
1.74805e-08	93497500000000
2.29189e-08	99265900000000
2.90498e-08	108493000000000
3.55937e-08	115160000000000
4.07561e-08	118631000000000
5.16586e-08	125951000000000
