Adsorption isotherm of Acenaphthylene on NC6H14 Soot Film
DOI: 10.1021/es050800f
Adsorbate Acenaphthylene: InChIKey HXGDTGSAIMULJN-UHFFFAOYSA-N
Temperature: 298 K
Tabular data in the source: 0
pressure (bar)	uptake (molecules/cm2)
1.59449e-09	63095700000000
1.86201e-09	68233900000000
2.09794e-09	72376900000000
2.36376e-09	75266200000000
2.69527e-09	78270800000000
3.14748e-09	83004200000000
3.76429e-09	88044000000000
4.4486e-09	93368400000000
5.07239e-09	93368400000000
5.92343e-09	97095700000000
6.59482e-09	99014800000000
7.00024e-09	100995000000000
