Adsorption isotherm of Acenaphthylene on NC6H14 Soot Film
DOI: 10.1021/es050800f
Adsorbate Acenaphthylene: InChIKey HXGDTGSAIMULJN-UHFFFAOYSA-N
Temperature: 283 K
Tabular data in the source: 0
pressure (bar)	uptake (molecules/cm2)
2.32029e-09	13418400000000
2.89603e-09	16447500000000
3.61462e-09	19574900000000
4.40173e-09	23307700000000
5.77116e-09	29403600000000
7.02802e-09	33993800000000
8.55841e-09	41677300000000
1.0422e-08	46795100000000
1.26915e-08	55705700000000
1.54551e-08	62546100000000
1.74805e-08	66267400000000
