Adsorption isotherm of Acenaphthylene on NC6H14 Soot Film
DOI: 10.1021/es050800f
Adsorbate Acenaphthylene: InChIKey HXGDTGSAIMULJN-UHFFFAOYSA-N
Temperature: 283 K
Tabular data in the source: 0
pressure (bar)	uptake (molecules/cm2)
2.10263e-09	13040700000000
4.51142e-09	21345200000000
9.44437e-09	40448300000000
1.26915e-08	59060900000000
1.8363e-08	72326900000000
