Adsorption isotherm of Acenaphthylene on NC6H14 Soot Film
DOI: 10.1021/es050800f
Adsorbate Acenaphthylene: InChIKey HXGDTGSAIMULJN-UHFFFAOYSA-N
Temperature: 308 K
Tabular data in the source: 0
pressure (bar)	uptake (molecules/cm2)
1.36541e-09	38654500000000
2.76034e-09	43481000000000
4.04364e-09	47962300000000
5.64733e-09	61872800000000
6.75403e-09	64342800000000
