Adsorption isotherm of Naphthalene on NC6H14 Soot Film
DOI: 10.1021/es050800f
Adsorbate Naphthalene: InChIKey UFWIBTONFRDIAS-UHFFFAOYSA-N
Temperature: 295 K
Tabular data in the source: 0
pressure (bar)	uptake (molecules/cm2)
2.62436e-09	11222800000000
5.91511e-09	21468400000000
1.20443e-08	41058200000000
1.28882e-08	32478800000000
1.80823e-08	52011600000000
2.62436e-08	60311500000000
3.32631e-08	67889100000000
4.21602e-08	74216400000000
5.52781e-08	83541100000000
6.54761e-08	86099400000000
7.75556e-08	94080600000000
9.50261e-08	96961700000000
1.12557e-07	97028700000000
1.33322e-07	102967000000000
