Adsorption isotherm of Acenaphthylene on NC6H14 Soot Film
DOI: 10.1021/es050800f
Adsorbate Acenaphthylene: InChIKey HXGDTGSAIMULJN-UHFFFAOYSA-N
Temperature: 315 K
Tabular data in the source: 0
pressure (bar)	uptake (molecules/cm2)
8.66429e-10	426973000000
1.10839e-09	554881000000
1.34975e-09	680143000000
1.72664e-09	883690000000
2.32029e-09	1114810000000
2.75685e-09	1366780000000
3.79711e-09	1827680000000
5.10262e-09	2444560000000
6.21374e-09	2997090000000
7.38283e-09	3465770000000
9.67973e-09	4635540000000
1.17875e-08	5519500000000
1.54551e-08	7382440000000
