Adsorption isotherm of Ethylbenzene on NC6H14 Soot Film
DOI: 10.1021/es050800f
Adsorbate Ethylbenzene: InChIKey YNQLUTRBYVCPMQ-UHFFFAOYSA-N
Temperature: 253 K
Tabular data in the source: 0
pressure (bar)	uptake (molecules/cm2)
1.2503e-09	2162220000000
1.87203e-09	3315890000000
2.42027e-09	4352110000000
3.62379e-09	6173050000000
5.62863e-09	9103320000000
7.8311e-09	12915200000000
1.17253e-08	19050200000000
1.69236e-08	25989600000000
2.72686e-08	38317800000000
4.55788e-08	54325000000000
5.89282e-08	63430800000000
