Adsorption isotherm of Ethylbenzene on NC6H14 Soot Film
DOI: 10.1021/es050800f
Adsorbate Ethylbenzene: InChIKey YNQLUTRBYVCPMQ-UHFFFAOYSA-N
Temperature: 253 K
Tabular data in the source: 0
pressure (bar)	uptake (molecules/cm2)
1.20527e-09	4198560000000
2.90772e-09	8443060000000
1.0503e-08	21424000000000
1.88927e-08	32832200000000
3.65724e-08	48372700000000
6.82438e-08	68548800000000
9.15278e-08	80020300000000
