Adsorption isotherm of Acenaphthylene on NC6H14 Soot Film
DOI: 10.1021/es050800f
Adsorbate Acenaphthylene: InChIKey HXGDTGSAIMULJN-UHFFFAOYSA-N
Temperature: 308 K
Tabular data in the source: 0
pressure (bar)	uptake (molecules/cm2)
1.68462e-09	1496920000000
2.15508e-09	1888860000000
2.89603e-09	2526390000000
3.44083e-09	3008150000000
4.2946e-09	3796650000000
5.36023e-09	4653720000000
6.21374e-09	5381460000000
7.20316e-09	6224440000000
9.21453e-09	7627810000000
1.15009e-08	9627200000000
1.50794e-08	11795100000000
