Adsorption isotherm of Naphthalene on NC6H14 Soot Film
DOI: 10.1021/es050800f
Adsorbate Naphthalene: InChIKey UFWIBTONFRDIAS-UHFFFAOYSA-N
Temperature: 263 K
Tabular data in the source: 0
pressure (bar)	uptake (molecules/cm2)
4.36127e-09	80260200000000
5.52781e-09	87740500000000
6.77303e-09	98741600000000
9.18635e-09	111173000000000
1.28882e-08	125199000000000
1.87052e-08	132984000000000
2.29189e-08	141124000000000
2.80823e-08	145445000000000
3.44083e-08	149899000000000
