Adsorption isotherm of Ethylbenzene on NC6H14 Soot Film
DOI: 10.1021/es050800f
Adsorbate Ethylbenzene: InChIKey YNQLUTRBYVCPMQ-UHFFFAOYSA-N
Temperature: 243 K
Tabular data in the source: 0
pressure (bar)	uptake (molecules/cm2)
2.3331e-09	12983700000000
3.24603e-09	18420400000000
4.86019e-09	25130400000000
7.54906e-09	35636900000000
1.08956e-08	48618300000000
1.69236e-08	63767600000000
2.18798e-08	77428300000000
3.65724e-08	101531000000000
5.68045e-08	113946000000000
7.61856e-08	133015000000000
9.84993e-08	132862000000000
