Adsorption isotherm of Naphthalene on NC6H14 Soot Film
DOI: 10.1021/es050800f
Adsorbate Naphthalene: InChIKey UFWIBTONFRDIAS-UHFFFAOYSA-N
Temperature: 273 K
Tabular data in the source: 0
pressure (bar)	uptake (molecules/cm2)
1.08809e-09	18958300000000
3.55937e-09	43311200000000
7.75556e-09	54954100000000
1.24593e-08	76032600000000
2.07054e-08	90844800000000
3.21553e-08	115107000000000
4.36127e-08	118686000000000
5.91511e-08	129778000000000
6.77303e-08	129837000000000
