Adsorption isotherm of Naphthalene on NC6H14 Soot Film
DOI: 10.1021/es050800f
Adsorbate Naphthalene: InChIKey UFWIBTONFRDIAS-UHFFFAOYSA-N
Temperature: 263 K
Tabular data in the source: 0
pressure (bar)	uptake (molecules/cm2)
4.21602e-09	80260200000000
7.24758e-09	95918000000000
1.08809e-08	117978000000000
1.57919e-08	129033000000000
2.53696e-08	137120000000000
3.80875e-08	154454000000000
