Adsorption isotherm of Acenaphthylene on NC6H14 Soot Film
DOI: 10.1021/es050800f
Adsorbate Acenaphthylene: InChIKey HXGDTGSAIMULJN-UHFFFAOYSA-N
Temperature: 308 K
Tabular data in the source: 0
pressure (bar)	uptake (molecules/cm2)
1.64366e-09	937346000000
4.2946e-09	4144770000000
9.67973e-09	7624300000000
1.43547e-08	11797800000000
1.70551e-08	13642700000000
