Adsorption isotherm of Naphthalene on NC6H14 Soot Film
DOI: 10.1021/es050800f
Adsorbate Naphthalene: InChIKey UFWIBTONFRDIAS-UHFFFAOYSA-N
Temperature: 295 K
Tabular data in the source: 0
pressure (bar)	uptake (molecules/cm2)
2.80823e-09	11225400000000
3.55937e-09	13797500000000
4.66684e-09	16962900000000
5.71812e-09	20244200000000
7.24758e-09	24882800000000
9.18635e-09	30584400000000
1.08809e-08	34419100000000
1.42664e-08	42315600000000
1.74805e-08	46238100000000
2.21561e-08	53604300000000
2.90498e-08	62144100000000
3.55937e-08	67920400000000
4.82751e-08	76471600000000
6.11875e-08	86079600000000
8.58466e-08	94123900000000
