Adsorption isotherm of Ethylbenzene on NC6H14 Soot Film
DOI: 10.1021/es050800f
Adsorbate Ethylbenzene: InChIKey YNQLUTRBYVCPMQ-UHFFFAOYSA-N
Temperature: 273 K
Tabular data in the source: 0
pressure (bar)	uptake (molecules/cm2)
5.18254e-10	135863000000
1.29704e-09	453733000000
3.36739e-09	1246810000000
7.27701e-09	2508420000000
1.46131e-08	4856240000000
3.65724e-08	10153100000000
7.07951e-08	16815100000000
9.84993e-08	22069900000000
