Adsorption isotherm of Ethylbenzene on NC6H14 Soot Film
DOI: 10.1021/es050800f
Adsorbate Ethylbenzene: InChIKey YNQLUTRBYVCPMQ-UHFFFAOYSA-N
Temperature: 263 K
Tabular data in the source: 0
pressure (bar)	uptake (molecules/cm2)
1.44791e-09	952138000000
2.01447e-09	1350830000000
2.8028e-09	1772560000000
3.62361e-09	2515940000000
5.42552e-09	3568620000000
8.12347e-09	5263810000000
1.30892e-08	8390730000000
1.88917e-08	11447200000000
2.8286e-08	16881100000000
4.55766e-08	24888600000000
7.90299e-08	41247700000000
