Adsorption isotherm of Nitrogen on Bth-Dha
DOI: 10.1021/acsami.9b02640
Article source: Figure 3
Adsorbate Nitrogen: InChIKey IJGRMHOSHXDMSA-UHFFFAOYSA-N
Kind: experiment
Temperature: 77 K
Tabular data in the source: 0
pressure (bar)	uptake (cm3(STP)/g)
0	4.89396
0.004632	7.83034
0.01158	10.7667
0.030108	11.7455
0.0579	12.2349
0.078744	12.7243
0.099588	12.969
0.120432	13.7031
0.141276	13.7031
0.162404	14.4402
0.180275	14.2042
0.202612	14.9122
0.252873	15.6203
0.302016	16.3283
0.354511	17.2724
0.402537	17.5084
0.455031	18.4524
0.505292	18.9245
0.555552	19.8685
0.60693	20.3405
0.656073	20.8126
0.708567	22.4647
0.757711	23.8807
0.810205	24.5888
0.829192	26.0048
0.860465	27.1849
0.885037	29.545
0.910726	32.6132
0.936415	38.5135
0.960986	53.3823
0.985558	68.7232
0.993376	94.9206
1.00231	122.77
1.00678	139.763
1.0079	136.931
0.991143	122.062
0.982207	92.0885
0.953168	78.1637
0.921895	54.7984
0.892856	41.8177
0.867167	34.5013
0.841478	31.1971
0.81579	29.309
0.790101	28.365
0.758828	27.4209
0.70745	26.7129
0.65719	25.5328
0.60693	24.5888
0.556669	24.1167
0.506409	23.8807
0.455031	23.4087
0.404771	22.7007
0.33329	22.2286
0.303133	21.9926
0.251756	21.2846
0.201496	20.5766
0.141183	20.1045
0.099858	19.1605
