Adsorption isotherm of Nitrogen on Bth-Dma
DOI: 10.1021/acsami.9b02640
Article source: Figure 3
Adsorbate Nitrogen: InChIKey IJGRMHOSHXDMSA-UHFFFAOYSA-N
Kind: experiment
Temperature: 77 K
Tabular data in the source: 0
pressure (bar)	uptake (cm3(STP)/g)
0.001122	43.4911
0.00561	59.5414
0.011221	70.932
0.012343	76.1095
0.030297	83.358
0.058349	90.0888
0.077424	96.3018
0.099866	104.586
0.121186	125.296
0.141384	127.885
0.160459	129.956
0.180657	131.509
0.201977	132.544
0.251349	133.58
0.304087	134.098
0.353459	134.615
0.405076	136.169
0.454448	137.722
0.504942	138.24
0.556558	141.346
0.607052	144.97
0.657547	151.183
0.708041	179.142
0.759657	191.568
0.809029	204.512
0.829227	210.725
0.858401	220.044
0.884209	226.775
0.912262	234.541
0.935826	241.79
0.961634	251.627
0.987442	262.5
0.993052	268.195
0.999785	276.479
1.0054	284.763
0.975099	268.713
0.93807	253.18
0.91114	244.379
0.885331	235.059
0.861767	228.328
0.835959	224.186
0.810151	212.796
0.760779	207.618
0.710285	195.192
0.656424	175.518
0.607052	155.843
0.556558	150.148
0.506064	149.112
0.45557	149.112
0.405076	147.559
0.354581	148.595
0.301843	148.077
0.253593	147.041
0.201977	147.559
0.141384	147.559
0.099866	144.453
0.079669	123.743
0.030297	95.2663
0.012343	83.358
