Adsorption isotherm of Nitric oxide on Cu-SIP-3
DOI: 10.1021/Ja910600b
Adsorbate Nitric oxide: InChIKey MWUXSHHQAYIFBG-UHFFFAOYSA-N
Temperature: 298 K
Tabular data in the source: 0
pressure (bar)	uptake (mmol/g)
0.00821607	0.0319562
0.0623953	0.0690006
0.162375	0.063134
0.270518	0.0732239
0.346534	0.174152
0.487775	0.381399
0.553089	0.514384
0.648439	0.737875
0.822057	0.928949
1.03362	1.15182
