Adsorption isotherm of Argon on Graphitized Thermal Carbon Black
DOI: 10.1007/s10450-016-9818-5
Article source: Figure 1
Adsorbate Argon: InChIKey XKRFYHLGVUSROY-UHFFFAOYSA-N
Kind: experiment
Isotherm type: excess
Temperature: 78 K
Tabular data in the source: 0
pressure (bar)	uptake (cm3(STP)/g)
0.001344	1.37221
0.003361	7.68439
0.007394	11.2521
0.00941	14.6827
0.00941	17.2899
0.014787	19.4854
0.024197	20.9949
0.043689	22.0926
0.059148	22.6415
0.072591	23.3276
0.098804	23.7393
0.131067	24.4254
0.156608	24.5626
0.180805	25.5232
0.20433	26.072
0.227183	26.4837
0.268184	27.7187
0.303135	29.0909
0.32666	30.7376
0.355562	32.247
0.381775	34.1681
0.399251	36.0892
0.417399	37.7358
0.436891	39.7942
0.454366	41.4408
0.475202	43.6364
0.500744	45.0086
0.524269	47.3413
0.550482	48.5763
0.580056	50.7719
0.603581	52.0069
0.625762	53.7907
0.645926	54.3396
0.661385	55.8491
0.682221	57.3585
0.695664	59.2796
0.710451	60.5146
0.723222	61.3379
0.740025	62.1612
0.751452	63.5334
