Adsorption isotherm of Sulfur dioxide on Graphitized Thermal Carbon Black
DOI: 10.1007/s10450-016-9818-5
Article source: Figure 1
Adsorbate Sulfur dioxide: InChIKey RAHZWNYVWXNFOC-UHFFFAOYSA-N
Kind: experiment
Isotherm type: excess
Temperature: 273 K
Tabular data in the source: 0
pressure (bar)	uptake (cm3(STP)/g)
0.003852	0.153322
0.046229	1.22658
0.120966	3.27087
0.134834	3.93526
0.158719	4.95741
0.169506	5.62181
0.174899	5.72402
0.183375	6.33731
0.199555	7.15503
0.214194	7.97274
0.241931	9.25043
0.246554	9.40375
0.278914	10.5792
0.315898	11.7547
0.357504	12.7257
0.364438	12.9302
0.418372	13.6968
0.520846	15.3833
0.610992	16.661
0.705761	18.1431
0.796678	19.6252
