Adsorption isotherm of Carbon Dioxide on TRI-PE-MCM-41
DOI: 10.1021/Ef100679e
Adsorbate Carbon Dioxide: InChIKey CURLTUGMZLYLDI-UHFFFAOYSA-N
Temperature: 298 K
Tabular data in the source: 0
pressure (bar)	uptake (wt%)
0.202899	4.31655
0.405797	5.50811
1.06522	6.99971
2.02899	7.97209
4.00725	9.32189
5.98551	10.6717
8.01449	12.245
9.99275	13.5204
12.0725	14.5731
16.029	16.3798
20.0362	17.9636
25.058	19.9992
