Adsorption isotherm of Carbon Dioxide on Carbon
DOI: 10.1021/Ef100679e
Adsorbate Carbon Dioxide: InChIKey CURLTUGMZLYLDI-UHFFFAOYSA-N
Temperature: 298 K
Tabular data in the source: 0
pressure (bar)	uptake (wt%)
0.176871	2.10598
0.377551	3.66848
0.578231	5.09511
0.772109	6.38587
1.02721	7.47283
1.96259	12.0245
