Adsorption isotherm of Carbon Dioxide on TRI-PE-MCM-41
DOI: 10.1021/Ef100679e
Adsorbate Carbon Dioxide: InChIKey CURLTUGMZLYLDI-UHFFFAOYSA-N
Temperature: 298 K
Tabular data in the source: 0
pressure (bar)	uptake (wt%)
0.180479	4.31158
0.383057	5.50455
0.578269	6.08647
0.777164	6.50767
1.03131	6.92976
1.46961	7.25835
1.97053	7.9738
