Adsorption isotherm of Carbon Dioxide on TRI-PE-MCM-41
DOI: 10.1021/Ef100679e
Adsorbate Carbon Dioxide: InChIKey CURLTUGMZLYLDI-UHFFFAOYSA-N
Temperature: 323 K
Tabular data in the source: 0
pressure (bar)	uptake (wt%)
0.202899	5.20941
0.608696	7.07169
1.06522	7.81816
1.97826	9.2367
4.05797	11.1079
5.98551	11.9366
8.06522	12.8405
10.0942	13.8185
12.0725	14.5731
16.0797	15.4872
19.9855	16.3265
25.058	17.6927
