Adsorption isotherm of Carbon Dioxide on Carbon
DOI: 10.1021/Ef100679e
Adsorbate Carbon Dioxide: InChIKey CURLTUGMZLYLDI-UHFFFAOYSA-N
Temperature: 343 K
Tabular data in the source: 0
pressure (bar)	uptake (wt%)
0.176871	1.15489
0.37415	1.63043
0.578231	2.24185
0.77551	2.71739
0.972789	3.19293
1.4898	4.34783
1.96939	5.36685
