Adsorption isotherm of Carbon Dioxide on TRI-PE-MCM-41
DOI: 10.1021/Ef100679e
Adsorbate Carbon Dioxide: InChIKey CURLTUGMZLYLDI-UHFFFAOYSA-N
Temperature: 343 K
Tabular data in the source: 0
pressure (bar)	uptake (wt%)
0.176871	6.99728
0.377551	7.88043
0.578231	8.22011
0.778912	8.42391
1.02381	9.30707
1.46259	9.78261
1.96599	10.1902
