Adsorption isotherm of Carbon Dioxide on TRI-PE-MCM-41
DOI: 10.1021/Ef100679e
Adsorbate Carbon Dioxide: InChIKey CURLTUGMZLYLDI-UHFFFAOYSA-N
Temperature: 343 K
Tabular data in the source: 0
pressure (bar)	uptake (wt%)
0.202899	6.77191
0.405797	7.66585
0.963768	9.15691
1.97826	10.0552
4.05797	11.2567
6.08696	12.2347
8.01449	12.6914
10.0942	13.8185
12.1232	14.7966
16.1304	15.7851
20.087	17.4431
25.058	18.3623
