Adsorption isotherm of Carbon Dioxide on Zn-Atz-MOF
DOI: 10.1021/Ef100679e
Adsorbate Carbon Dioxide: InChIKey CURLTUGMZLYLDI-UHFFFAOYSA-N
Temperature: 343 K
Tabular data in the source: 0
pressure (bar)	uptake (wt%)
0.170068	1.7663
0.278912	2.10598
0.380952	2.51359
0.482993	2.78533
0.581633	3.125
0.77551	3.80435
0.979592	4.41576
1.46599	5.63859
1.96939	6.58967
