Adsorption isotherm of Carbon Dioxide on TRI-PE-MCM-41
DOI: 10.1021/Ef100679e
Adsorbate Carbon Dioxide: InChIKey CURLTUGMZLYLDI-UHFFFAOYSA-N
Temperature: 298 K
Tabular data in the source: 0
pressure (bar)	uptake (wt%)
0.176871	4.41576
0.380952	5.57065
0.578231	6.18207
0.778912	6.58967
1.02721	6.99728
1.46259	7.33696
1.96599	8.0163
