Adsorption isotherm of Carbon Dioxide on Zn-Atz-MOF
DOI: 10.1021/Ef100679e
Adsorbate Carbon Dioxide: InChIKey CURLTUGMZLYLDI-UHFFFAOYSA-N
Temperature: 298 K
Tabular data in the source: 0
pressure (bar)	uptake (wt%)
0.170068	5.09511
0.278912	6.4538
0.377551	7.33696
0.479592	8.0163
0.581633	8.69565
0.778912	9.375
0.979592	9.91848
1.46259	10.7337
1.96599	11.2092
