Adsorption isotherm of Carbon Dioxide on TRI-PE-MCM-41
DOI: 10.1021/Ef100679e
Adsorbate Carbon Dioxide: InChIKey CURLTUGMZLYLDI-UHFFFAOYSA-N
Temperature: 343 K
Tabular data in the source: 0
pressure (bar)	uptake (wt%)
0.176796	6.85172
0.383057	7.75535
0.581952	8.1444
0.777164	8.37262
1.03131	9.18057
1.4733	9.7343
1.97053	10.096
