Adsorption isotherm of Carbon Dioxide on Zeolite 13X
DOI: 10.1021/Ef100679e
Adsorbate Carbon Dioxide: InChIKey CURLTUGMZLYLDI-UHFFFAOYSA-N
Temperature: 343 K
Tabular data in the source: 0
pressure (bar)	uptake (wt%)
0.176871	2.44565
0.380952	4.34783
0.578231	5.63859
0.77551	6.79348
1.02721	7.8125
1.46599	9.30707
1.96939	10.394
