Adsorption isotherm of Carbon Dioxide on TRI-PE-MCM-41
DOI: 10.1021/Ef100679e
Adsorbate Carbon Dioxide: InChIKey CURLTUGMZLYLDI-UHFFFAOYSA-N
Temperature: 323 K
Tabular data in the source: 0
pressure (bar)	uptake (wt%)
0.162063	5.27592
0.276243	6.0173
0.375691	6.24398
0.578269	7.0511
1.02394	7.70135
1.46593	8.70524
1.96685	9.29207
