Adsorption isotherm of Carbon Dioxide on Zeolite 13X
DOI: 10.1021/Ef100679e
Adsorbate Carbon Dioxide: InChIKey CURLTUGMZLYLDI-UHFFFAOYSA-N
Temperature: 298 K
Tabular data in the source: 0
pressure (bar)	uptake (wt%)
0.180272	8.0163
0.380952	10.8016
0.581633	12.3641
0.782313	13.519
1.03061	14.1304
1.46599	15.0136
1.96939	15.7609
