Adsorption isotherm of Nitrogen on DMF
DOI: 10.1021/Ic302641v
Article source: Figure 10
Adsorbate Nitrogen: InChIKey IJGRMHOSHXDMSA-UHFFFAOYSA-N
Kind: experiment
Temperature: 77 K
Tabular data in the source: 0
pressure (bar)	uptake (cm3(STP)/g)
0.0769124	-0.0134345
0.124279	-0.196381
0.176308	-0.205469
0.228337	-0.214557
0.280228	-0.398293
0.350354	-0.410542
0.402383	-0.41963
0.452011	-0.602971
0.50404	-0.612059
0.655465	-0.813182
0.707355	-0.996918
0.759523	-0.831358
0.809151	-1.0147
0.856656	-1.023
0.908823	-0.857436
0.95859	-0.866129
