Adsorption isotherm of Carbon Dioxide on DMF
DOI: 10.1021/Ic302641v
Article source: Figure 10
Adsorbate Carbon Dioxide: InChIKey CURLTUGMZLYLDI-UHFFFAOYSA-N
Temperature: 195 K
Tabular data in the source: 0
pressure (bar)	uptake (cm3(STP)/g)
0.0162142	3.33333
0.032984	7.36842
0.0491982	10.7018
0.0702151	14.386
0.090081	19.4737
0.114611	24.7368
0.153866	28.5965
0.191871	30.8772
0.224796	32.4561
0.275959	34.2105
0.330952	35.0877
0.408986	36.4912
0.461717	37.3684
0.509784	38.0702
0.560114	38.7719
0.610582	39.6491
0.665436	40.3509
0.715488	40.7018
0.76808	41.4035
0.81827	41.9298
0.870723	42.4561
0.920914	42.9825
0.971243	43.6842
1.02129	44.0351
