Adsorption isotherm of Argon on DMF
DOI: 10.1021/Ic302641v
Article source: Figure 10
Adsorbate Argon: InChIKey XKRFYHLGVUSROY-UHFFFAOYSA-N
Temperature: 87 K
Tabular data in the source: 0
pressure (bar)	uptake (cm3(STP)/g)
0.000138	0.174648
0.027146	-0.004742
0.054429	0.165165
0.104058	-0.018176
0.151701	0.148174
0.203453	-0.21021
0.25082	-0.393156
0.300587	-0.401849
0.3799	-0.241031
0.429528	-0.424372
0.481557	-0.43346
0.529062	-0.441758
0.580953	-0.625494
0.632982	-0.634582
0.682749	-0.643275
0.732515	-0.651968
0.782144	-0.835309
0.834173	-0.844397
0.88394	-0.85309
0.933845	-0.687135
0.984027	-0.171882
1.00705	8.90706
