Adsorption isotherm of Nitrogen on C54H34CdCl6N10O14
DOI: 10.1039/C2dt11815g
Adsorbate Nitrogen: InChIKey IJGRMHOSHXDMSA-UHFFFAOYSA-N
Temperature: 77 K
Tabular data in the source: 0
pressure (bar)	uptake (cm3(STP)/g)
0.00307267	10.4804
0.00590028	12.9471
0.019699	14.1843
0.0637626	15.123
0.0857991	15.7464
0.113321	15.7551
0.143624	16.6894
0.165641	16.6964
0.190421	17.0125
0.237227	17.6438
0.289529	17.9686
0.336325	18.2916
0.388627	18.6164
0.432672	18.9386
0.484964	18.9552
0.534503	18.9709
0.5813	19.294
0.630831	19.0015
0.680408	20.2501
0.727205	20.5732
0.779544	22.1309
0.798819	22.4452
0.818122	23.6842
0.848453	25.5431
0.873326	28.9415
0.898351	37.2713
0.92363	53.9232
0.951642	69.9594
0.968551	82.91
