Adsorption isotherm of Carbon Dioxide on C54H34CdCl6N10O14
DOI: 10.1039/C2dt11815g
Adsorbate Carbon Dioxide: InChIKey CURLTUGMZLYLDI-UHFFFAOYSA-N
Temperature: 195 K
Tabular data in the source: 0
pressure (bar)	uptake (cm3(STP)/g)
0.000531516	16.644
0.000659474	20.6509
0.00646678	22.502
0.00652584	24.3513
0.0210047	27.7461
0.0268219	29.9054
0.0383873	32.0665
0.061459	34.5392
0.0787432	35.7773
0.10465	37.0181
0.205333	39.8227
0.30885	41.3952
0.412358	42.6595
0.515876	44.2321
0.61649	44.8791
0.722862	45.836
0.823506	47.4077
0.926994	48.0556
1.019	49.0082
