Adsorption isotherm of Argon on Silica Nanoparticle 20 NM
DOI: 10.1016/j.colsurfa.2013.03.025
Adsorbate Argon: InChIKey XKRFYHLGVUSROY-UHFFFAOYSA-N
Temperature: 87 K
Tabular data in the source: 0
pressure (bar)	uptake (mmol/g)
0.535383	33.3333
0.551648	34.4444
0.569268	36.1111
0.595021	37.2222
0.611286	38.3333
0.630261	39.4444
0.647881	40.5556
0.670923	42.7778
0.69261	44.4444
0.717007	47.2222
0.737338	50
0.752247	52.2222
0.769868	53.8889
0.786132	56.6667
0.809174	60.5556
0.824084	63.8889
0.836282	67.7778
0.853902	71.1111
0.86339	74.4444
