Adsorption isotherm of Nitrogen on Vycor Glass
DOI: 10.1016/j.colsurfa.2013.03.025
Adsorbate Nitrogen: InChIKey IJGRMHOSHXDMSA-UHFFFAOYSA-N
Temperature: 77 K
Tabular data in the source: 0
pressure (bar)	uptake (mmol/g)
0.195933	1.53659
0.243186	1.65854
0.292067	1.7561
0.339319	1.90244
0.384942	2
0.411012	2.07317
0.435453	2.17073
0.461523	2.2439
0.484334	2.34146
0.513663	2.46341
0.534845	2.56098
0.557657	2.65854
0.583727	2.82927
0.604909	3
0.629349	3.21951
0.65379	3.43902
0.67986	3.7561
0.701042	4.12195
0.728742	4.60976
0.753183	5.14634
0.774365	5.5122
0.800435	5.73171
0.826505	5.7561
0.852575	5.78049
0.873757	5.78049
0.898198	5.78049
0.922638	5.80488
0.948709	5.80488
