Adsorption isotherm of Argon on Silica Nanoparticle 40 NM
DOI: 10.1016/j.colsurfa.2013.03.025
Adsorbate Argon: InChIKey XKRFYHLGVUSROY-UHFFFAOYSA-N
Temperature: 87 K
Tabular data in the source: 0
pressure (bar)	uptake (mmol/g)
0.392524	19.4142
0.416589	20.7258
0.442258	21.366
0.467927	22.0063
0.490388	21.9808
0.516057	22.621
0.540122	24.6021
0.560978	24.5783
0.589856	25.215
0.61392	26.5265
0.634777	27.1723
0.660446	28.482
0.687719	29.7899
0.711784	31.1014
0.734244	33.0843
0.758309	35.0653
0.783978	37.0445
0.793604	38.3724
0.804835	39.6986
0.816065	41.6942
0.830504	44.3556
0.843338	46.3493
0.852964	47.6773
0.860986	49.0071
0.872216	50.3332
0.880238	53.0019
0.889864	54.3299
0.89949	58.3357
0.909116	63.011
0.920346	134.63
0.931576	139.973
0.939598	139.294
0.952432	139.28
0.962058	140.608
0.976497	140.591
