Adsorption isotherm of Xenon on Vycor Glass
DOI: 10.1016/j.colsurfa.2013.03.025
Adsorbate Xenon: InChIKey FHNFHKCVQCLJFQ-UHFFFAOYSA-N
Temperature: 151 K
Tabular data in the source: 0
pressure (bar)	uptake (mmol/g)
0.106001	1.15421
0.122449	1.23983
0.140268	1.37618
0.156031	1.51238
0.171109	1.68229
0.18276	1.81818
0.195096	1.95413
0.204691	2.05611
0.213601	2.15804
0.22251	2.27685
0.230734	2.39561
0.241015	2.59891
0.252666	2.80232
0.26226	2.98869
0.269114	3.15798
0.277338	3.36113
0.284192	3.53041
0.289674	3.68272
0.297899	3.90275
0.306123	4.12277
0.311606	4.2582
