Adsorption isotherm of Xenon on Vycor Glass
DOI: 10.1016/j.colsurfa.2013.03.025
Adsorbate Xenon: InChIKey FHNFHKCVQCLJFQ-UHFFFAOYSA-N
Temperature: 151 K
Tabular data in the source: 0
pressure (bar)	uptake (mmol/g)
0.106477	1.193
0.116594	1.23138
0.127194	1.28272
0.137312	1.37304
0.146466	1.46343
0.155138	1.52786
0.166701	1.64408
0.175855	1.73446
0.185973	1.82479
0.195127	1.95413
0.204281	2.07049
0.213917	2.18681
0.223071	2.2772
0.229334	2.39372
0.237043	2.52314
0.243306	2.63967
0.251497	2.79504
0.258242	2.92452
0.264987	3.07998
0.270769	3.2225
0.278959	3.40385
0.284741	3.54637
0.291968	3.71479
0.296304	3.87038
0.301122	3.974
