Adsorption isotherm of Nitrogen on SBA-15 Silica
DOI: 10.1016/j.colsurfa.2013.03.025
Adsorbate Nitrogen: InChIKey IJGRMHOSHXDMSA-UHFFFAOYSA-N
Temperature: 77 K
Tabular data in the source: 0
pressure (bar)	uptake (mmol/g)
0.560473	25.869
0.569397	26.1587
0.580235	26.7342
0.591709	27.0255
0.603821	27.744
0.617208	28.1786
0.629321	28.8971
0.640795	29.3307
0.65227	29.9065
0.666294	30.7684
0.677769	31.4865
0.689881	32.0627
0.703268	32.7819
0.716655	33.6434
0.722393	34.2159
0.72813	34.5038
