Adsorption isotherm of Argon on Silica Nanoparticle 10 NM
DOI: 10.1016/j.colsurfa.2013.03.025
Adsorbate Argon: InChIKey XKRFYHLGVUSROY-UHFFFAOYSA-N
Temperature: 87 K
Tabular data in the source: 0
pressure (bar)	uptake (mmol/g)
0.394133	25.4025
0.418263	26.6081
0.442394	27.8137
0.466524	29.0194
0.492264	30.2266
0.516394	30.8416
0.566264	33.8452
0.580742	35.0412
0.585569	35.046
0.614525	35.6658
0.635438	38.0496
0.659569	39.2553
0.664395	39.2601
0.674047	39.8605
0.686917	41.0549
0.694961	42.8351
0.706221	44.6185
0.715874	45.8096
0.723917	47.5899
0.735178	49.3733
0.746439	52.9289
0.754483	57.072
0.764135	66.5332
0.773787	83.0829
0.785048	100.225
0.793092	108.503
0.809179	114.426
0.834918	117.406
0.859048	119.793
0.88157	119.816
0.90731	121.023
0.929831	121.636
0.955571	122.843
0.974875	124.044
