Adsorption isotherm of Nitrogen on SBA-15 Silica
DOI: 10.1016/j.colsurfa.2013.03.025
Adsorbate Nitrogen: InChIKey IJGRMHOSHXDMSA-UHFFFAOYSA-N
Temperature: 77 K
Tabular data in the source: 0
pressure (bar)	uptake (mmol/g)
0.00259765	20.4661
0.0805271	21.6525
0.163652	23.4322
0.205214	24.322
0.246776	25.2119
0.288339	26.3983
0.405233	29.3644
0.418221	29.0678
0.433807	29.9576
0.449393	30.5508
0.462381	31.4407
0.48576	32.3305
0.490955	34.1102
0.503944	37.0763
0.511736	41.822
0.516932	48.6441
0.532518	54.8729
0.553299	56.0593
0.571482	56.3559
0.592264	56.3559
0.61824	56.6525
0.646814	56.9492
0.688376	57.2458
0.729939	57.839
0.768904	57.839
0.810466	58.1356
0.849431	58.4322
0.890993	58.4322
0.92736	59.322
