Adsorption isotherm of Argon on Silica Nanoparticle 40 NM
DOI: 10.1016/j.colsurfa.2013.03.025
Adsorbate Argon: InChIKey XKRFYHLGVUSROY-UHFFFAOYSA-N
Temperature: 87 K
Tabular data in the source: 0
pressure (bar)	uptake (mmol/g)
0.670651	34.7273
0.685317	34.7273
0.71465	37.4545
0.737316	38.5455
0.758649	40.1818
0.777315	41.8182
0.801314	44.5455
0.822647	47.2727
0.83998	48.9091
0.85998	51.6364
0.878646	55.4545
0.895979	59.2727
0.906645	64.1818
0.915978	65.8182
0.923978	70.1818
