Adsorption isotherm of Argon on Silica Nanoparticle 20 NM
DOI: 10.1016/j.colsurfa.2013.03.025
Adsorbate Argon: InChIKey XKRFYHLGVUSROY-UHFFFAOYSA-N
Temperature: 87 K
Tabular data in the source: 0
pressure (bar)	uptake (mmol/g)
0.394169	27.7985
0.417194	29.1809
0.441864	30.5653
0.468178	30.5956
0.492848	32.6579
0.512584	33.3586
0.540543	35.4247
0.561923	36.1273
0.591527	37.5173
0.614552	38.8997
0.639222	40.962
0.662247	42.3445
0.685272	44.4049
0.711587	47.825
0.736257	51.2433
0.746125	51.9326
0.755992	53.9778
0.76586	56.0231
0.775728	59.4243
0.783952	61.4677
0.795464	64.8708
0.805332	70.9838
0.8152	77.7748
0.823423	89.3097
0.831647	119.15
0.844804	140.86
0.851382	141.545
0.862895	142.914
0.872763	144.96
0.897433	145.666
0.922102	147.728
0.945128	148.433
0.969797	149.817
0.976376	151.859
