Adsorption isotherm of Argon on Silica Nanoparticle 10 NM
DOI: 10.1016/j.colsurfa.2013.03.025
Adsorbate Argon: InChIKey XKRFYHLGVUSROY-UHFFFAOYSA-N
Temperature: 87 K
Tabular data in the source: 0
pressure (bar)	uptake (mmol/g)
0.550791	31.2821
0.569925	32.8205
0.589059	33.8462
0.61366	34.8718
0.638262	36.4103
0.657396	38.4615
0.68473	40
0.709331	42.0513
0.739399	45.641
0.762634	48.2051
0.779034	50.7692
0.794068	52.3077
0.805002	54.8718
0.818669	56.9231
0.83097	60
0.843271	62.5641
0.852838	65.641
