Adsorption isotherm of Nitrogen on KIT-6 Silica
DOI: 10.1016/j.colsurfa.2013.03.025
Adsorbate Nitrogen: InChIKey IJGRMHOSHXDMSA-UHFFFAOYSA-N
Temperature: 77 K
Tabular data in the source: 0
pressure (bar)	uptake (mmol/g)
0.655776	12.1902
0.666571	11.7842
0.681143	11.4829
0.695177	10.9103
0.70813	10.8419
0.716766	10.6966
0.725941	10.3739
0.737276	10.2393
0.746991	10.0385
0.755087	9.77137
0.766961	9.60897
0.778295	9.62393
0.786931	9.77778
0.798805	9.61538
0.804742	9.60897
