Adsorption isotherm of Argon on Silica Nanoparticle 30 NM
DOI: 10.1016/j.colsurfa.2013.03.025
Adsorbate Argon: InChIKey XKRFYHLGVUSROY-UHFFFAOYSA-N
Temperature: 87 K
Tabular data in the source: 0
pressure (bar)	uptake (mmol/g)
0.640577	32.2222
0.648755	33.3333
0.674651	34.4444
0.69782	35
0.725079	37.2222
0.752338	38.8889
0.783685	41.6667
0.80004	43.8889
0.816395	45
0.835476	47.2222
0.854557	50.5556
0.872276	52.7778
0.888631	56.1111
0.903623	60
0.913163	63.8889
0.922704	66.6667
