Adsorption isotherm of Argon on Silica Nanoparticle 30 NM
DOI: 10.1016/j.colsurfa.2013.03.025
Adsorbate Argon: InChIKey XKRFYHLGVUSROY-UHFFFAOYSA-N
Temperature: 87 K
Tabular data in the source: 0
pressure (bar)	uptake (mmol/g)
0.39416	21.2876
0.417057	21.9742
0.44159	22.6609
0.466122	23.3476
0.489019	24.721
0.515188	25.4077
0.539721	26.7811
0.564253	27.4678
0.585515	28.1545
0.613319	29.5279
0.639487	30.9013
0.660749	32.2747
0.686917	33.6481
0.71145	35.7082
0.735983	37.0815
0.760515	39.8283
0.785048	42.5751
0.79159	43.2618
0.804674	44.6352
0.812852	44.6352
0.8243	46.0086
0.835749	46.6953
0.843927	48.7554
0.85374	49.4421
0.860282	50.8155
0.87173	54.2489
0.879908	56.309
0.892992	63.8627
0.899534	85.8369
0.904441	111.931
0.910983	142.833
0.920796	143.519
0.930609	144.206
0.942058	144.206
0.956777	144.893
0.973132	145.579
