Adsorption isotherm of Nitrogen on KIT-6 Silica
DOI: 10.1016/j.colsurfa.2013.03.025
Adsorbate Nitrogen: InChIKey IJGRMHOSHXDMSA-UHFFFAOYSA-N
Temperature: 77 K
Tabular data in the source: 0
pressure (bar)	uptake (mmol/g)
0.000491073	9.40171
0.0762725	10.2564
0.162489	10.8974
0.240871	11.5385
0.321865	12.1795
0.366273	12.3932
0.400235	12.6068
0.447289	13.4615
0.455124	13.4615
0.489097	13.8889
0.523093	14.7436
0.551832	14.9573
0.570146	15.5983
0.58845	16.0256
0.611977	16.453
0.627691	17.3077
0.638182	18.1624
0.643506	20.0855
0.659589	27.9915
0.662792	39.3162
0.668082	40.5983
0.668149	41.8803
0.689098	42.9487
0.717836	43.1624
0.730894	43.1624
0.767457	43.1624
0.811854	43.1624
0.85104	43.3761
0.895448	43.5897
0.932022	43.8034
0.965973	43.8034
