Adsorption isotherm of Nitrogen on [Mg(H2diol)(DMF)2]
DOI: 10.1039/C3ce41253a
Adsorbate Nitrogen: InChIKey IJGRMHOSHXDMSA-UHFFFAOYSA-N
Temperature: 77 K
Tabular data in the source: 0
pressure (bar)	uptake (cm3(STP)/g)
0.00893555	4.71335
0.00913194	1.87526
0.0112922	7.57942
0.0139434	10.8038
0.0158091	16.1496
0.0163	13.6698
0.0187548	19.7322
0.0237627	25.8226
0.0242536	23.3428
0.0261193	28.6887
0.0271012	32.9598
0.0348584	36.2401
0.0392771	41.614
0.0408482	46.6017
0.0446778	51.259
0.0471326	57.3215
0.0541042	62.7233
0.0601922	67.0504
0.0625489	69.9165
0.0639236	77.7422
0.0702079	79.2312
0.0719754	81.3808
0.0762958	83.5583
0.0800272	85.0194
0.0806163	85.7359
0.0812055	86.4524
0.0874898	87.9414
0.0980944	91.608
0.106343	92.4085
0.117438	93.5952
0.127945	94.0654
0.141594	95.2801
0.149548	95.7223
0.168008	96.6348
0.178809	97.4633
0.186763	97.9055
0.200117	98.762
0.213471	99.6184
0.231932	100.531
0.260603	101.555
0.279359	102.826
0.31569	103.934
0.346915	104.987
0.380399	105.709
0.408777	106.375
0.439708	107.069
0.475155	107.103
0.511781	108.569
0.537311	108.849
0.567948	109.185
0.600842	109.191
0.636879	109.941
0.667515	110.277
0.698151	110.612
0.726234	110.92
0.760012	112.001
0.79546	112.034
0.826096	112.37
0.856733	112.706
0.887369	113.042
0.920264	113.048
0.950899	113.383
0.981536	113.719
1.02013	114.497
1.05076	114.833
