Adsorption isotherm of Nitrogen on TJNU-202
DOI: 10.1039/c9ta13980j
Article source: Figure 2
Adsorbate Nitrogen: InChIKey IJGRMHOSHXDMSA-UHFFFAOYSA-N
Kind: experiment
Temperature: 77 K
Tabular data in the source: 0
pressure (bar)	uptake (cm3(STP)/g)
-0.00144	20.9011
-0.000956	39.0683
1.1e-05	58.6697
0.000494	74.4465
0.001461	86.3986
0.006295	96.4384
0.013545	102.653
0.022246	107.912
0.030464	111.02
0.0585	121.299
0.081702	126.08
0.106355	132.773
0.126657	136.597
0.150826	141.856
0.169678	145.681
0.194814	148.071
0.218983	151.418
0.299225	162.414
0.364965	171.976
0.444724	182.972
0.526899	193.968
0.606657	204.007
0.618258	206.876
0.633727	209.744
0.644845	212.613
0.656446	213.569
0.668047	216.438
0.682548	217.394
0.69415	219.784
0.707201	219.784
0.720252	223.131
0.733304	225.521
0.745388	228.39
0.756023	230.302
0.768107	232.692
0.781642	234.127
0.793243	235.561
0.806295	238.429
0.817412	240.342
0.830464	243.21
0.844482	245.123
0.857533	249.425
0.867684	251.338
0.882186	253.728
0.894271	256.118
0.903455	260.899
0.918923	263.768
0.930041	267.114
0.940675	274.286
0.951793	278.11
0.960011	283.369
0.977413	299.624
0.989014	314.445
1.00206	342.652
0.990464	334.524
0.955177	294.843
0.91699	276.198
0.863817	265.202
0.812095	255.162
0.739104	246.557
0.683032	239.864
0.63276	234.605
0.579588	229.824
0.530766	224.087
0.483394	213.569
0.432639	204.007
0.3785	199.226
0.328228	192.055
0.280373	186.318
0.233968	181.059
0.190464	174.366
0.050766	145.203
