Adsorption isotherm of Nitrogen on TJNU-201
DOI: 10.1039/c9ta13980j
Article source: Figure 2
Adsorbate Nitrogen: InChIKey IJGRMHOSHXDMSA-UHFFFAOYSA-N
Kind: experiment
Temperature: 77 K
Tabular data in the source: 0
pressure (bar)	uptake (cm3(STP)/g)
-0.000956	18.9887
-0.002406	41.4587
-0.002406	58.6697
-0.001923	76.8369
-0.000956	98.8288
-0.00144	115.084
-0.000956	135.641
1.1e-05	154.287
1.1e-05	173.41
-0.001923	189.187
-0.000473	210.7
-0.000473	223.131
0.001944	241.776
0.001944	255.64
0.002428	269.983
0.004361	280.979
0.004844	293.887
0.006778	302.493
0.007261	310.62
0.008228	319.704
0.010162	328.309
0.01282	336.198
0.014512	344.086
0.015962	352.213
0.016929	359.385
0.019829	364.166
0.030222	400.978
0.039165	471.256
0.051249	509.981
0.062851	522.411
0.083636	536.276
0.106355	544.881
0.127624	552.053
0.150826	559.224
0.173545	564.005
0.193847	569.264
0.218983	572.132
0.268772	581.216
0.321944	588.387
0.379467	594.124
0.405086	597.471
0.456325	602.251
0.504663	607.032
0.556385	611.335
0.604724	616.833
0.619225	618.506
0.629376	618.984
0.642428	620.419
0.657896	621.853
0.671431	624.243
0.684482	625.678
0.696567	627.112
0.706234	627.59
0.717835	628.546
0.72992	629.98
0.741038	633.327
0.753122	634.761
0.768591	635.239
0.783092	636.674
0.796627	638.586
0.810645	640.498
0.820313	642.411
0.830947	643.845
0.843032	645.757
0.854633	647.669
0.868651	652.45
0.882186	654.841
0.892337	658.665
0.903455	662.968
0.914573	664.88
0.927624	668.227
0.936325	673.964
0.947926	678.267
0.95566	681.613
0.98273	700.737
1.00158	729.422
0.98998	717.47
0.943576	685.438
0.887503	670.617
0.838681	659.622
0.787926	652.45
0.735237	648.148
0.683999	643.845
0.636144	640.498
0.583455	636.674
0.53415	630.937
0.482428	618.506
0.431189	612.769
0.37995	607.032
0.328228	602.251
0.282307	596.036
0.235418	590.299
0.190464	582.172
0.048349	520.499
