Adsorption isotherm of Hydrogen on Zeolite Li-LSX 78%
DOI: 10.1016/j.ijhydene.2009.01.092
Adsorbate Hydrogen: InChIKey UFHFLCQGNIYNRP-UHFFFAOYSA-N
Temperature: 293 K
Tabular data in the source: 0
pressure (bar)	uptake (mmol/g)
0.915332	0.0160602
2.51716	0.0504585
5.03432	0.103205
7.43707	0.146793
9.95423	0.192675
14.3021	0.266101
19.1076	0.346412
24.4851	0.433615
26.7735	0.477198
30.4348	0.534574
34.5538	0.596547
38.9016	0.653954
45.3089	0.736627
50.3432	0.800931
