Adsorption isotherm of Nitrogen on Zeolite 13X
DOI: 10.1016/j.ijhydene.2009.01.092
Adsorbate Nitrogen: InChIKey IJGRMHOSHXDMSA-UHFFFAOYSA-N
Temperature: 293 K
Tabular data in the source: 0
pressure (bar)	uptake (mmol/g)
4.83871	1.22895
9.67742	1.89733
19.5853	2.56571
30.0691	2.91068
39.977	3.12628
50.576	3.24127
