Adsorption isotherm of Nitrogen on Zeolite 13X
DOI: 10.1016/j.ijhydene.2009.01.092
Adsorbate Nitrogen: InChIKey IJGRMHOSHXDMSA-UHFFFAOYSA-N
Temperature: 313 K
Tabular data in the source: 0
pressure (bar)	uptake (mmol/g)
4.95392	0.905544
10.4839	1.51643
20.1613	2.12731
30.6452	2.50103
40.2074	2.70945
50.2304	2.846
