Adsorption isotherm of Nitrogen on Zeolite 13X
DOI: 10.1016/j.ijhydene.2009.01.092
Adsorbate Nitrogen: InChIKey IJGRMHOSHXDMSA-UHFFFAOYSA-N
Temperature: 333 K
Tabular data in the source: 0
pressure (bar)	uptake (mmol/g)
4.95392	0.654004
10.023	1.12115
19.9309	1.6961
29.7235	2.02669
39.7465	2.25667
50.4608	2.45072
