Adsorption isotherm of Hydrogen on Zeolite Li-LSX 99%
DOI: 10.1016/j.ijhydene.2009.01.092
Adsorbate Hydrogen: InChIKey UFHFLCQGNIYNRP-UHFFFAOYSA-N
Temperature: 293 K
Tabular data in the source: 0
pressure (bar)	uptake (mmol/g)
1.83066	0.0275437
4.34783	0.0734255
7.55149	0.13078
9.15332	0.160602
10.7551	0.188135
13.2723	0.227152
16.8192	0.277658
20.1373	0.325864
23.341	0.371778
27.0023	0.426865
28.9474	0.452126
30.4348	0.4705
32.9519	0.498076
35.1259	0.525635
37.7574	0.550927
39.8169	0.576193
41.8764	0.599171
43.135	0.612958
44.508	0.626751
46.1098	0.642843
47.9405	0.661233
50.1144	0.686504
