Adsorption isotherm of Hydrogen on Zeolite Li-LSX 83%
DOI: 10.1016/j.ijhydene.2009.01.092
Adsorbate Hydrogen: InChIKey UFHFLCQGNIYNRP-UHFFFAOYSA-N
Temperature: 293 K
Tabular data in the source: 0
pressure (bar)	uptake (mmol/g)
0.114416	0.00229357
1.02975	0.0137771
3.43249	0.0505003
5.03432	0.0734569
8.00915	0.107918
10.2975	0.135483
13.73	0.174541
15.5606	0.19522
17.7346	0.22278
20.2517	0.248066
22.0824	0.266457
23.7986	0.28713
26.2014	0.312412
27.9176	0.328509
30.3204	0.349214
31.8078	0.363012
33.524	0.37682
37.2998	0.406741
40.389	0.432054
42.2197	0.44358
44.508	0.459703
47.5973	0.480439
50.5721	0.505747
