Adsorption isotherm of Nitrogen on MCN
DOI: 10.1002/smll.201501692
Article source: Figure 3c- N2 at 298 K
Adsorbate Nitrogen: InChIKey IJGRMHOSHXDMSA-UHFFFAOYSA-N
Kind: experiment
Temperature: 298 K
Tabular data in the source: 0
pressure (bar)	uptake (wt%)
0.004706	-0.0652
0.014625	-0.0424
0.028318	-0.0392
0.041917	-0.0262
0.056649	-0.036
0.071581	-0.023
0.08702	0.0063
0.112471	0.0192
0.135989	0.1006
0.173826	0.1233
0.217995	0.1459
0.277204	0.1881
0.337426	0.2466
0.425872	0.3929
0.510945	0.549
0.601031	0.6693
0.736713	0.8709
0.908805	1.0887
1.07067	1.3488
