Adsorption isotherm of Nitrogen on MCN
DOI: 10.1002/smll.201501692
Article source: Figure 2a- MCN
Adsorbate Nitrogen: InChIKey IJGRMHOSHXDMSA-UHFFFAOYSA-N
Kind: experiment
Temperature: 77 K
Tabular data in the source: 0
pressure (bar)	uptake (cm3(STP)/g)
0.004114	-16.673
0.004458	4.411
0.010001	196.535
0.029161	204.345
0.062538	208.486
0.083684	209.466
0.10168	210.075
0.102095	210.792
0.204008	214.443
0.253454	214.804
0.253657	214.808
0.304482	216.421
0.335801	215.326
0.353381	216.44
0.387507	215.717
0.402139	215.369
0.437167	215.868
0.454331	218.469
0.456874	218.443
0.503707	218.463
0.508307	218.621
0.553366	218.827
0.560783	219.304
0.603634	219.111
0.608781	219.19
0.656444	219.023
0.660426	219.793
0.705273	219.786
0.712213	219.812
0.753686	220.098
0.763372	220.468
0.804308	220.648
0.810833	220.908
0.821817	221.416
0.842142	222.183
0.851485	221.969
0.869956	222.71
0.878883	222.682
0.895024	223.238
0.905673	223.103
0.924145	224.35
0.933072	224.215
0.956072	226.125
0.982447	228.805
0.984028	229.342
0.997686	237.334
1.0038	246.529
1.00517	230.077
