Adsorption isotherm of Carbon Dioxide on MCN
DOI: 10.1002/smll.201501692
Article source: Figure 3c- CO2 at 298 K 2nd
Adsorbate Carbon Dioxide: InChIKey CURLTUGMZLYLDI-UHFFFAOYSA-N
Kind: experiment
Temperature: 298 K
Tabular data in the source: 0
pressure (bar)	uptake (wt%)
0.063288	2.4955
0.135682	4.4533
0.175359	5.2938
0.265138	6.8899
0.44459	9.3753
0.52813	10.3101
0.709515	11.9744
0.888247	13.5377
0.97588	14.1304
1.0675	14.7882
