Adsorption isotherm of Carbon Dioxide on MCN
DOI: 10.1002/smll.201501692
Article source: Figure 3c- CO2 at 273 K
Adsorbate Carbon Dioxide: InChIKey CURLTUGMZLYLDI-UHFFFAOYSA-N
Kind: experiment
Temperature: 273 K
Tabular data in the source: 0
pressure (bar)	uptake (wt%)
0.009079	1.3189
0.015079	2.0016
0.030571	2.5575
0.105725	5.6947
0.181492	8.1348
0.32956	11.7247
0.477921	14.6564
0.626282	17.1582
0.773323	19.4188
0.921684	21.5752
1.06862	23.6273
