Adsorption isotherm of Nitrogen on MCS
DOI: 10.1002/smll.201501692
Article source: Figure 2a- MCS
Adsorbate Nitrogen: InChIKey IJGRMHOSHXDMSA-UHFFFAOYSA-N
Kind: experiment
Temperature: 77 K
Tabular data in the source: 0
pressure (bar)	uptake (cm3(STP)/g)
0.003486	44.064
0.003597	87.537
0.003597	86.321
0.003749	72.421
0.00379	127.994
0.00381	83.796
0.00382	52.781
0.00383	35.905
0.003871	104.154
0.003871	111.557
0.003891	49.459
0.003891	48.023
0.003901	37.871
0.003931	109.602
0.003931	112.393
0.003942	95.517
0.003942	89.59
0.003952	64.05
0.003952	61.525
0.003972	31.838
0.003972	24.982
0.003972	21.553
0.003972	10.005
0.003972	16.318
0.003992	131.688
0.004002	118.001
0.004002	101.204
0.004012	78.162
0.004012	75.148
0.004023	70.109
0.004033	40.742
0.004043	12.863
0.004053	138.571
0.004073	112.366
0.004124	135.701
0.004134	123.608
0.004205	120.738
0.004256	10.205
0.004266	126.426
0.004306	55.386
0.004327	148.591
0.004327	157.775
0.004327	142.106
0.004347	115.609
0.004367	58.336
0.004387	114.534
0.004387	128.203
0.00459	179.792
0.004671	155.049
0.004722	181.466
0.004803	160.896
0.004874	158.69
0.004874	152.258
0.004935	164.51
0.005005	167.019
0.005005	167.035
0.006444	185.187
0.007397	192.846
0.00994	196.136
0.031776	203.946
0.065486	207.608
0.083005	208.456
0.122563	210.47
0.14151	212.194
0.161289	212.165
0.182101	212.507
0.20339	213.673
0.303995	215.039
0.353239	214.819
0.47336	215.544
0.487434	215.943
0.525066	215.695
0.538806	216.278
0.574857	215.608
0.589073	216.19
0.626087	215.653
0.639898	216.129
0.675888	215.968
0.691037	216.099
0.726774	215.993
0.741304	216.192
0.776423	215.895
0.792017	216.052
0.817287	216.074
0.829031	215.993
0.840977	216.39
0.852174	215.909
0.866531	216.332
0.879167	215.905
0.892349	216.302
0.904913	216.087
0.918035	216.245
0.931156	216.189
0.944612	216.347
0.956559	216.318
0.974422	216.422
0.983825	216.473
0.998862	216.631
1.00381	222.184
1.00436	219.473
