Adsorption isotherm of Carbon Dioxide on MCN
DOI: 10.1002/smll.201501692
Article source: Figure 3c- CO2 at 243 K
Adsorbate Carbon Dioxide: InChIKey CURLTUGMZLYLDI-UHFFFAOYSA-N
Kind: experiment
Temperature: 243 K
Tabular data in the source: 0
pressure (bar)	uptake (wt%)
0.014625	2.8051
0.060835	7.1903
0.116057	10.2885
0.185078	12.9762
0.248566	14.9145
0.425872	18.7129
0.575779	21.0158
0.800108	23.7552
0.934163	25.3153
1.06739	26.7485
