Adsorption isotherm of Carbon Dioxide on MCN
DOI: 10.1002/smll.201501692
Article source: Figure 3c- CO2 at 298 K 1st
Adsorbate Carbon Dioxide: InChIKey CURLTUGMZLYLDI-UHFFFAOYSA-N
Kind: experiment
Temperature: 298 K
Tabular data in the source: 0
pressure (bar)	uptake (wt%)
0.015132	0.847
0.029144	1.3683
0.03793	1.681
0.047543	2.0361
0.064315	2.616
0.135376	4.4729
0.176999	5.3948
0.265951	7.0137
0.44499	9.486
0.52905	10.473
0.709822	12.2448
0.888247	13.6876
0.975986	14.3747
1.06689	14.9479
