Adsorption isotherm of Carbon Dioxide on MCN
DOI: 10.1002/smll.201501692
Article source: Figure 3c- CO2 at 298 K 3rd
Adsorbate Carbon Dioxide: InChIKey CURLTUGMZLYLDI-UHFFFAOYSA-N
Kind: experiment
Temperature: 298 K
Tabular data in the source: 0
pressure (bar)	uptake (wt%)
0.136815	4.4664
0.175666	5.3687
0.266365	7.0137
0.445403	9.4893
0.528637	10.4502
0.709928	12.2285
0.888967	13.668
0.97568	14.3128
1.06669	15.0033
