Adsorption isotherm of Nitrogen on ZIF-8
DOI: 10.1016/j.seppur.2015.10.037
Article source: Figure  3
Adsorbate Nitrogen: InChIKey IJGRMHOSHXDMSA-UHFFFAOYSA-N
Kind: experiment
Temperature: 77 K
Tabular data in the source: 0
pressure (bar)	uptake (cm3(STP)/g)
0.00309	96.54
0.003344	76.33
0.003536	18.18
0.003597	61.29
0.003607	68.59
0.003658	101.25
0.00385	39.51
0.003911	84.19
0.004012	54.44
0.004063	90.81
0.004286	47.26
0.004398	26.15
0.004408	133.36
0.004499	3.93
0.004519	67.19
0.004539	32.22
0.00461	179.94
0.004671	220.35
0.004793	9.43
0.004864	159.06
0.005046	290.74
0.005066	285.64
0.005076	112.7
0.005117	143.46
0.005157	267.84
0.005269	149.41
0.005279	252.91
0.005401	242.47
0.005441	273.56
0.005522	225.5
0.005522	227.43
0.005603	285.91
0.005613	250.27
0.005634	210.7
0.005654	322.51
0.005674	237.31
0.005705	258.63
0.005745	188.92
0.005776	310.5
0.005857	165.24
0.006009	174.55
0.006211	316.56
0.006657	339.91
0.006819	355.4
0.007032	302.64
0.007549	371.11
0.00764	356
0.00768	365.84
0.007802	349.22
0.007853	355.08
0.008126	383.8
0.011946	402.21
0.012645	396.48
0.0176	416.61
0.017732	417.02
0.021836	437
0.021967	437.27
0.02523	452.49
0.027905	458.67
0.029891	466.75
0.034248	471.58
0.041979	474.05
0.055192	474.94
0.080493	477.18
0.096086	475.95
0.105935	478.08
0.121529	477.74
0.1346	479.54
0.146131	479.2
0.158209	480.21
0.170155	480.21
0.184209	481.33
0.195881	481.55
0.210776	481.55
0.22174	481.43
0.233959	482.22
0.246189	482.78
0.262077	483.45
0.272757	483.56
0.286952	483.78
0.300996	483.78
0.312669	485.35
0.347798	486.47
0.362561	486.7
0.397549	487.7
0.412727	488.15
0.447026	488.15
0.464869	489.49
0.497333	489.71
0.516312	490.49
0.548634	489.71
0.568302	490.6
0.598942	490.82
0.62017	491.83
0.648693	491.49
0.671602	492.83
0.698727	492.16
0.721637	493.39
0.750301	493.16
0.772086	494.51
0.800194	494.95
0.823377	495.4
0.852893	497.19
0.874121	496.85
0.914033	500.44
0.923729	499.09
0.966884	503.8
0.967309	503.9
0.990796	522.21
0.990918	522.19
1.00387	523.33
1.00599	526.95
