Adsorption isotherm of Methane on Boron nitride
DOI: 10.1021/acsami.7b01889
Article source: Figure 6
Adsorbate Methane: InChIKey VNWKTOKETHGBQD-UHFFFAOYSA-N
Kind: experiment
Temperature: 298 K
Tabular data in the source: 0
pressure (bar)	uptake (mmol/g)
0.025651	0.0307
0.050623	0.08
0.053489	0.0492
0.077194	0.0734
0.100685	0.1124
0.102965	0.0864
0.128976	0.0975
0.151881	0.1477
0.153361	0.1235
0.178799	0.1393
0.201357	0.1895
0.203423	0.1569
0.230448	0.1709
0.252099	0.2229
0.254619	0.1941
0.279937	0.208
0.303762	0.2573
0.304562	0.2228
0.330559	0.2312
0.353344	0.2833
0.356784	0.26
0.381529	0.2674
0.404887	0.3185
0.406273	0.2757
0.431471	0.3027
0.454029	0.3473
0.457802	0.3287
0.48232	0.3389
0.504998	0.3761
0.507972	0.3519
0.53237	0.3621
0.556194	0.4085
0.557687	0.3909
0.583112	0.4011
0.606137	0.4327
0.609683	0.4187
0.634881	0.4345
0.655506	0.4763
0.658826	0.4586
0.684477	0.4577
0.707049	0.4939
0.709328	0.4799
0.736139	0.4948
0.757444	0.5227
0.760191	0.5106
0.786309	0.5189
0.80852	0.5486
0.810813	0.53
0.835785	0.5495
0.860756	0.5765
0.887674	0.5792
0.909205	0.6052
0.911725	0.5931
0.937376	0.5996
0.960748	0.6312
0.961548	0.6219
0.988812	0.6284
1.00725	0.6525
