Adsorption isotherm of Nitrogen on Boron nitride
DOI: 10.1021/acsami.7b01889
Article source: Figure 6
Adsorbate Nitrogen: InChIKey IJGRMHOSHXDMSA-UHFFFAOYSA-N
Kind: experiment
Temperature: 298 K
Tabular data in the source: 0
pressure (bar)	uptake (mmol/g)
0.025545	0.0121
0.053942	0.0204
0.077887	0.0203
0.100792	-0.0002
0.102965	0.0277
0.129429	0.0305
0.150161	0.0165
0.154627	0.0332
0.179479	0.0406
0.20033	0.0276
0.20457	0.0462
0.229421	0.0461
0.252446	0.0386
0.254966	0.0517
0.28039	0.0507
0.302042	0.0432
0.304215	0.0544
0.331479	0.0646
0.353118	0.0543
0.355984	0.071
0.381182	0.0803
0.404207	0.0672
0.406953	0.0756
0.433178	0.0793
0.452883	0.0774
0.458149	0.0839
0.482894	0.0913
0.504878	0.0894
0.508212	0.0968
0.533063	0.1024
0.555274	0.0865
0.559754	0.1014
0.584832	0.1116
0.604537	0.1023
0.60911	0.1153
0.633975	0.1162
0.656306	0.1124
0.659506	0.1171
0.684597	0.1291
0.706249	0.1207
0.711515	0.1384
0.735913	0.1272
0.757098	0.1197
0.760071	0.1383
0.786069	0.1494
0.808294	0.1317
0.81288	0.1456
0.836358	0.1484
0.858116	0.1577
0.861676	0.1465
0.887327	0.1576
0.909085	0.1576
0.911952	0.1631
0.937603	0.164
0.959948	0.1556
0.964294	0.1761
0.989612	0.1853
1.00496	0.1704
1.00782	0.1825
