Adsorption isotherm of Nitrogen on Boron nitride
DOI: 10.1021/acsami.7b01889
Article source: Figure 1
Adsorbate Nitrogen: InChIKey IJGRMHOSHXDMSA-UHFFFAOYSA-N
Kind: experiment
Temperature: 77 K
Tabular data in the source: 0
pressure (bar)	uptake (cm3(STP)/g)
0.005461	231.17
0.010659	251.34
0.028877	282.23
0.051492	303.44
0.051654	306.24
0.101445	340.74
0.104373	343.77
0.120807	351.12
0.148134	367.32
0.154163	367.67
0.18231	379.2
0.202808	386.55
0.222019	391.44
0.251139	399.02
0.256671	399.6
0.303057	407.99
0.308103	409.27
0.352523	414.16
0.356596	415.09
0.405089	418.12
0.406883	419.86
0.45489	421.96
0.457007	424.41
0.506311	426.73
0.506473	423.35
0.557418	425.33
0.557905	429.52
0.606884	430.8
0.607381	426.37
0.658316	432.66
0.658478	429.28
0.709251	434.17
0.709575	431.14
0.757582	432.06
0.759862	435.45
0.809662	433.22
0.810473	436.72
0.860597	438.23
0.861904	434.97
0.910559	439.86
0.910884	437.41
0.960035	441.02
0.96036	443.58
1.00494	470.39
1.00656	469.22
