Adsorption isotherm of N-propane on Boron nitride
DOI: 10.1021/acsami.7b01889
Article source: Figure 6
Adsorbate N-propane: InChIKey ATUOYWHBWRKTHZ-UHFFFAOYSA-N
Kind: experiment
Temperature: 298 K
Tabular data in the source: 0
pressure (bar)	uptake (mmol/g)
0.010852	0.8548
0.049983	1.7738
0.053996	1.6695
0.101845	2.3055
0.102872	2.4926
0.153121	2.8074
0.153347	2.9918
0.202583	3.1789
0.20349	3.3689
0.253872	3.4918
0.253979	3.6641
0.303442	3.9127
0.305175	3.7451
0.354744	3.9547
0.354851	4.1307
0.40478	4.3085
0.405927	4.154
0.455269	4.465
0.455509	4.3049
0.506118	4.6103
0.506812	4.4511
0.556154	4.7239
0.556381	4.5917
0.605737	4.8497
0.607563	4.7082
0.656226	4.9522
0.657719	4.8311
0.706155	5.0518
0.709942	4.9299
0.759284	5.1478
0.759524	5.0463
0.810467	5.2316
0.810707	5.1366
0.860849	5.3108
0.861089	5.2345
0.910778	5.3742
0.913072	5.3295
0.960481	5.4496
0.962308	5.4115
1.00674	5.4906
