Adsorption isotherm of Ethane on Boron nitride
DOI: 10.1021/acsami.7b01889
Article source: Figure 6
Adsorbate Ethane: InChIKey OTMSDBZUPAUEDD-UHFFFAOYSA-N
Kind: experiment
Temperature: 298 K
Tabular data in the source: 0
pressure (bar)	uptake (mmol/g)
0.050596	0.5084
0.052209	0.4609
0.101312	0.8092
0.102232	0.7561
0.153414	1.0625
0.153414	1.0011
0.201623	1.1929
0.203677	1.2655
0.252459	1.368
0.253939	1.4425
0.303295	1.6036
0.303642	1.5356
0.353104	1.7573
0.353104	1.7079
0.40486	1.8951
0.405553	1.8318
0.454549	2.0376
0.456842	1.9659
0.505052	2.1606
0.505972	2.0963
0.556341	2.2798
0.558874	2.2333
0.606843	2.4018
0.608217	2.346
0.656079	2.4996
0.657453	2.4633
0.706355	2.603
0.709675	2.577
0.757951	2.7092
0.759364	2.6915
0.81032	2.781
0.81104	2.8196
0.858929	2.8876
0.861396	2.8797
0.912805	2.9663
0.962041	3.0521
1.0059	3.1424
