Adsorption isotherm of Ethene on Boron nitride
DOI: 10.1021/acsami.7b01889
Article source: Figure 6
Adsorbate Ethene: InChIKey VGGSQFUCUMXWEO-UHFFFAOYSA-N
Kind: experiment
Temperature: 298 K
Tabular data in the source: 0
pressure (bar)	uptake (mmol/g)
0.011106	0.0726
0.052209	0.2794
0.100645	0.4722
0.102698	0.5411
0.152401	0.6556
0.201397	0.8559
0.20301	0.7991
0.253499	0.9304
0.303428	1.0915
0.305722	1.0459
0.355184	1.1679
0.403273	1.3085
0.407393	1.2611
0.456296	1.3728
0.504732	1.507
0.508158	1.4697
0.558087	1.5517
0.606177	1.6746
0.610643	1.643
0.659879	1.7287
0.708208	1.8014
0.709928	1.8358
0.758591	1.8759
0.809093	1.9458
0.811373	1.9802
0.860156	2.0231
0.909739	2.1107
0.909859	2.1041
0.961268	2.1675
1.00718	2.2234
