Adsorption isotherm of Propene on Boron nitride
DOI: 10.1021/acsami.7b01889
Article source: Figure 6
Adsorbate Propene: InChIKey QQONPFPTGQHPMA-UHFFFAOYSA-N
Kind: experiment
Temperature: 298 K
Tabular data in the source: 0
pressure (bar)	uptake (mmol/g)
0.011212	0.4022
0.051822	1.3986
0.053329	1.1053
0.101965	1.9563
0.101978	1.6342
0.152227	2.3679
0.152347	2.0327
0.202717	2.6855
0.20273	2.3661
0.253219	2.6501
0.253432	2.9518
0.302895	3.1911
0.303588	2.9053
0.354078	3.3923
0.355917	3.1232
0.405153	3.2974
0.40538	3.5776
0.454949	3.7276
0.455416	3.4697
0.506478	3.8738
0.506492	3.6252
0.556061	3.9977
0.557101	3.7705
0.607017	4.116
0.60851	3.9028
0.656706	4.2185
0.657746	4.0211
0.709155	4.1403
0.709275	4.3079
0.759764	4.4029
0.760004	4.2437
0.810387	4.483
0.810493	4.3499
0.860076	4.5492
0.861223	4.4374
0.910925	4.619
0.912072	4.5362
0.961414	4.675
0.963134	4.6498
1.00481	4.7169
1.0063	4.702
