Adsorption isotherm of Methane on Coal YJ with 6.23% humidity
DOI: 10.1007/s10450-017-9889-y
Article source: Figure 9
Adsorbate Methane: InChIKey VNWKTOKETHGBQD-UHFFFAOYSA-N
Kind: experiment
Temperature: 303 K
Tabular data in the source: 0
pressure (bar)	uptake (ml/g)
3.0478	1.49443
8.2372	3.79939
17.0511	5.82573
25.6178	7.85208
32.1252	8.61196
40.6919	9.21986
49.0527	10.689
