Adsorption isotherm of Nitrogen on YJ Coal
DOI: 10.1007/s10450-017-9889-y
Article source: Figure 5
Adsorbate Nitrogen: InChIKey IJGRMHOSHXDMSA-UHFFFAOYSA-N
Kind: experiment
Temperature: 77 K
Tabular data in the source: 0
pressure (bar)	uptake (ml/g)
0.006576	0.22989
0.013162	0.32184
0.023031	0.3908
0.037835	0.43678
0.050987	0.45977
0.059214	0.45977
0.069083	0.45977
0.078952	0.50575
0.101984	0.52874
0.126656	0.55172
0.150508	0.57471
0.177643	0.5977
0.202326	0.5977
0.22864	0.64368
0.253312	0.64368
0.279627	0.66667
0.30513	0.68966
0.330623	0.71264
0.353655	0.73563
0.3701	0.73563
0.384903	0.75862
0.401348	0.75862
0.417804	0.75862
0.430955	0.78161
0.440825	0.8046
0.455638	0.8046
0.470442	0.82759
0.483594	0.85057
0.495114	0.87356
0.503332	0.87356
0.513201	0.89655
0.521429	0.89655
0.537874	0.89655
0.55597	0.91954
0.560905	0.91954
0.583936	0.94253
0.608609	0.97701
0.633281	1.01149
0.658775	1.03448
0.683447	1.09195
0.710592	1.14943
0.738558	1.21839
0.761579	1.26437
0.786252	1.33333
0.810924	1.41379
0.836428	1.51724
0.863563	1.64368
0.883301	1.77011
0.903039	1.88506
0.909625	1.97701
0.919494	2.09195
0.934298	2.22989
0.940874	2.3908
0.952394	2.57471
0.963905	2.82759
0.972953	3.18391
0.984464	3.73563
0.993512	4.71264
0.998446	5.28736
1.00009	6.01149
1.00338	7.10345
1.00502	7.65517
1.00667	8.52874
1.00667	8.87356
1.00996	10.092
0.023031	0.49425
0.050987	0.52874
0.07567	0.57471
0.101984	0.62069
0.126656	0.64368
0.151329	0.68966
0.177643	0.71264
0.201495	0.71264
0.22864	0.73563
0.253312	0.78161
0.277985	0.78161
0.304299	0.8046
0.330623	0.82759
0.354475	0.85057
0.379969	0.86207
0.404641	0.87356
0.419445	0.90805
0.43589	0.91954
0.447411	0.91954
0.45728	0.94253
0.467149	0.96552
0.477018	1.01149
0.488528	1.03448
0.498397	1.05747
0.508266	1.08046
0.516494	1.13793
0.528005	1.17241
0.539525	1.1954
0.558443	1.22989
0.582295	1.26437
0.606967	1.31034
0.633281	1.35632
0.657954	1.42529
0.684268	1.49425
0.709771	1.55172
0.735265	1.63218
0.759937	1.72414
0.78461	1.81609
0.810924	1.90805
0.835607	2.06897
0.8611	2.21839
0.886594	2.3908
0.912908	2.68966
0.935939	3.05747
0.962263	3.77011
0.975415	4.32184
0.983643	5.03448
0.99187	6.5977
1.0042	9.54023
1.00831	10.092
