Adsorption isotherm of Methane on Coal YZG with 2.1% humidity
DOI: 10.1007/s10450-017-9889-y
Article source: Figure 9
Adsorbate Methane: InChIKey VNWKTOKETHGBQD-UHFFFAOYSA-N
Kind: experiment
Temperature: 303 K
Tabular data in the source: 0
pressure (bar)	uptake (ml/g)
1.0417	2.46285
8.4201	13.5032
15.842	16.9851
23.0035	19.8302
31.033	21.7834
38.4115	23.5244
46.0503	24.5011
