Adsorption isotherm of Methane on Coal YZG with 5.82% humidity
DOI: 10.1007/s10450-017-9889-y
Article source: Figure 9
Adsorbate Methane: InChIKey VNWKTOKETHGBQD-UHFFFAOYSA-N
Kind: experiment
Temperature: 303 K
Tabular data in the source: 0
pressure (bar)	uptake (ml/g)
1.0417	1.10403
8.5069	2.88747
16.4931	4.16136
25.5208	5.6051
33.7674	6.87898
42.5347	7.98301
50.4774	8.78981
