Adsorption isotherm of Methane on Dry Coal YJ
DOI: 10.1007/s10450-017-9889-y
Article source: Figure 9
Adsorbate Methane: InChIKey VNWKTOKETHGBQD-UHFFFAOYSA-N
Kind: experiment
Temperature: 303 K
Tabular data in the source: 0
pressure (bar)	uptake (ml/g)
1.0708	2.58359
8.5667	12.8166
16.7216	16.6413
23.3114	18.9463
30.8484	19.9848
38.5502	21.1246
46.3344	22.4164
