Adsorption isotherm of Methane on Coal YZG with 3.35% humidity
DOI: 10.1007/s10450-017-9889-y
Article source: Figure 9
Adsorbate Methane: InChIKey VNWKTOKETHGBQD-UHFFFAOYSA-N
Kind: experiment
Temperature: 303 K
Tabular data in the source: 0
pressure (bar)	uptake (ml/g)
1.1285	1.86837
8.6806	10.7006
15.9722	13.1635
22.5694	15.6263
32.0313	18.0892
40.5382	19.8726
48.5243	21.2314
