Adsorption isotherm of Methane on Coal WLH with 1.41% humidity
DOI: 10.1007/s10450-017-9889-y
Article source: Figure 9
Adsorbate Methane: InChIKey VNWKTOKETHGBQD-UHFFFAOYSA-N
Kind: experiment
Temperature: 303 K
Tabular data in the source: 0
pressure (bar)	uptake (ml/g)
0.75	5.35354
10	21.1111
17.5	23.9394
23.7917	27.2727
29.5417	28.1313
35.5417	29.0404
42.375	31.1111
