Adsorption isotherm of Methane on Dry Coal WLH
DOI: 10.1007/s10450-017-9889-y
Article source: Figure 9
Adsorbate Methane: InChIKey VNWKTOKETHGBQD-UHFFFAOYSA-N
Kind: experiment
Temperature: 303 K
Tabular data in the source: 0
pressure (bar)	uptake (ml/g)
0.875	3.38384
9.0833	29.4949
17	34.5454
22	36.1616
33.5417	37.9293
37.9167	38.9899
40.0833	39.5454
