Adsorption isotherm of Methane on Coal YJ with 3.86% humidity
DOI: 10.1007/s10450-017-9889-y
Article source: Figure 9
Adsorbate Methane: InChIKey VNWKTOKETHGBQD-UHFFFAOYSA-N
Kind: experiment
Temperature: 303 K
Tabular data in the source: 0
pressure (bar)	uptake (ml/g)
1.0708	0.40527
7.9901	4.20466
17.3806	7.49747
25.659	9.37183
31.1367	10.7396
38.1384	11.4995
45.3871	12.1074
