Adsorption isotherm of Methane on Coal YZG with 1.48% humidity
DOI: 10.1007/s10450-017-9889-y
Article source: Figure 9
Adsorbate Methane: InChIKey VNWKTOKETHGBQD-UHFFFAOYSA-N
Kind: experiment
Temperature: 303 K
Tabular data in the source: 0
pressure (bar)	uptake (ml/g)
0.9549	4.92569
8.9844	17.8344
15.7118	22.0382
24.7396	25.6476
32.5521	27.6008
40.5382	29.172
48.0035	29.8089
