Adsorption isotherm of Methane on Dry Coal YZG
DOI: 10.1007/s10450-017-9889-y
Article source: Figure 9
Adsorbate Methane: InChIKey VNWKTOKETHGBQD-UHFFFAOYSA-N
Kind: experiment
Temperature: 303 K
Tabular data in the source: 0
pressure (bar)	uptake (ml/g)
1.0417	6.02972
8.9844	24.7134
16.6233	28.8747
21.658	31.5499
30.816	33.3758
38.3681	35.414
45.5729	36.5181
