Adsorption isotherm of Methane on Coal YJ with 1.16% humidity
DOI: 10.1007/s10450-017-9889-y
Article source: Figure 9
Adsorbate Methane: InChIKey VNWKTOKETHGBQD-UHFFFAOYSA-N
Kind: experiment
Temperature: 303 K
Tabular data in the source: 0
pressure (bar)	uptake (ml/g)
1.0708	1.72239
8.5667	7.64944
17.3806	11.5501
26.8534	13.9311
35.173	15.6028
42.6277	16.2867
50.4942	17.0719
