Adsorption isotherm of Nitrogen on WLH Coal
DOI: 10.1007/s10450-017-9889-y
Article source: Figure 5
Adsorbate Nitrogen: InChIKey IJGRMHOSHXDMSA-UHFFFAOYSA-N
Kind: experiment
Temperature: 77 K
Tabular data in the source: 0
pressure (bar)	uptake (ml/g)
0.006931	0.18388
0.010396	0.25199
0.020782	0.27923
0.034643	0.29285
0.046761	0.32009
0.060623	0.33371
0.071019	0.34733
0.083137	0.36095
0.102186	0.37457
0.128176	0.3882
0.153284	0.41544
0.177532	0.42906
0.204383	0.44268
0.229501	0.46311
0.254609	0.48354
0.280589	0.49716
0.304836	0.51078
0.330826	0.5244
0.356806	0.53802
0.36633	0.55165
0.375855	0.56527
0.384518	0.56527
0.394904	0.57889
0.407033	0.59251
0.417429	0.60613
0.433012	0.61975
0.446874	0.62656
0.457259	0.64699
0.467655	0.64699
0.481507	0.66061
0.498833	0.64699
0.509219	0.66061
0.519615	0.67423
0.538664	0.70148
0.559456	0.7151
0.583703	0.72872
0.60795	0.75596
0.635662	0.7832
0.659909	0.79682
0.685889	0.82406
0.711869	0.85131
0.735255	0.87855
0.760373	0.91941
0.786353	0.96027
0.8106	1.01476
0.83658	1.06924
0.862559	1.17821
0.883341	1.24631
0.904133	1.35528
0.912786	1.42338
0.923182	1.48468
0.932707	1.60045
0.942231	1.70942
0.952627	1.85925
0.963023	2.00908
0.971676	2.25426
0.982072	2.6084
0.994201	3.27582
0.995934	3.56186
0.999389	3.99773
1.00285	4.3723
1.00285	4.62429
1.00546	4.97162
1.00632	5.44154
1.00805	5.78207
0.024247	0.5244
0.050227	0.56527
0.076207	0.59932
0.102186	0.61975
0.128176	0.64699
0.150691	0.66061
0.17667	0.68785
0.204383	0.70148
0.22863	0.7151
0.252877	0.72872
0.278857	0.75596
0.303114	0.76958
0.329955	0.79682
0.355073	0.81044
0.37932	0.83768
0.4053	0.86493
0.420884	0.87174
0.434745	0.87855
0.446874	0.90579
0.457259	0.90579
0.465923	0.91941
0.478041	0.96027
0.488437	1.01476
0.500566	1.1101
0.507486	1.19183
0.517882	1.27355
0.526545	1.30079
0.538664	1.31442
0.557723	1.32804
0.582832	1.3689
0.60795	1.40976
0.63393	1.44381
0.659909	1.48468
0.684157	1.51873
0.711008	1.5664
0.736126	1.60045
0.761234	1.66175
0.786353	1.72304
0.812333	1.80477
0.83658	1.88649
0.860827	1.98184
0.888539	2.11805
0.913658	2.28831
0.937905	2.51986
0.963023	2.92168
0.975142	3.1941
0.983805	3.53462
0.995934	4.12032
1.00459	5.35982
1.00805	5.76844
