Adsorption isotherm of Methane on Coal YJ with 2.68% humidity
DOI: 10.1007/s10450-017-9889-y
Article source: Figure 9
Adsorbate Methane: InChIKey VNWKTOKETHGBQD-UHFFFAOYSA-N
Kind: experiment
Temperature: 303 K
Tabular data in the source: 0
pressure (bar)	uptake (ml/g)
1.1532	0.50659
7.9901	4.91388
16.8863	8.91591
25.6178	11.2969
32.4547	12.462
39.6211	13.3232
45.3048	13.7791
