Adsorption isotherm of Methane on Coal WLH with .96% humidity
DOI: 10.1007/s10450-017-9889-y
Article source: Figure 9
Adsorbate Methane: InChIKey VNWKTOKETHGBQD-UHFFFAOYSA-N
Kind: experiment
Temperature: 303 K
Tabular data in the source: 0
pressure (bar)	uptake (ml/g)
1	6.06061
9.0833	23.4848
16.4167	27.3737
23.1667	30.404
29.75	32.0707
38.4583	32.3737
46.0833	34.5454
