Adsorption isotherm of Methane on Coal WLH with .65% humidity
DOI: 10.1007/s10450-017-9889-y
Article source: Figure 9
Adsorbate Methane: InChIKey VNWKTOKETHGBQD-UHFFFAOYSA-N
Kind: experiment
Temperature: 303 K
Tabular data in the source: 0
pressure (bar)	uptake (ml/g)
1	4.54545
8.4583	25.9091
17	31.9192
24	34.0404
30.625	35.7576
36.5833	36.4646
43.75	36.8687
