Adsorption isotherm of Nitrogen on YZG Coal
DOI: 10.1007/s10450-017-9889-y
Article source: Figure 5
Adsorbate Nitrogen: InChIKey IJGRMHOSHXDMSA-UHFFFAOYSA-N
Kind: experiment
Temperature: 77 K
Tabular data in the source: 0
pressure (bar)	uptake (ml/g)
0.001641	1.29167
0.008207	1.66667
0.014783	1.91667
0.018066	2.04167
0.026274	2.16667
0.041057	2.375
0.049264	2.5
0.060765	2.58333
0.070613	2.66667
0.080472	2.79167
0.101001	2.91667
0.126454	3.08333
0.151086	3.25
0.177359	3.375
0.201991	3.54167
0.226623	3.64583
0.252897	3.83333
0.276719	3.95833
0.303813	4.08333
0.330086	4.25
0.353898	4.39583
0.364577	4.41667
0.374426	4.54167
0.385927	4.54167
0.394134	4.66667
0.403983	4.70833
0.415483	4.79167
0.425332	4.875
0.433549	4.91667
0.44504	4.95833
0.45654	5.04167
0.46803	5.08333
0.481172	5.20833
0.497597	5.33333
0.504163	5.41667
0.516474	5.47917
0.538644	5.625
0.558351	5.75
0.581342	5.95833
0.606805	6.16667
0.632258	6.375
0.657711	6.5625
0.683164	6.83333
0.707796	7.04167
0.735711	7.33333
0.759522	7.54167
0.784985	7.83333
0.811259	8.04167
0.834249	8.29167
0.860523	8.58333
0.880231	8.79167
0.90158	9.04167
0.911429	9.20833
0.922929	9.375
0.931136	9.54167
0.940174	9.75
0.950844	10
0.960703	10.3333
0.972193	10.7917
0.982052	11.3333
0.99108	12.375
0.996004	13
0.998467	13.8542
1.00175	14.75
1.00258	15.5417
1.00422	16.4167
1.00586	17.5
1.00668	18.5
0.023811	2.66667
0.050906	3
0.075538	3.25
0.10018	3.41667
0.125633	3.60417
0.151906	3.79167
0.176539	3.91667
0.201991	4.04167
0.226623	4.20833
0.254549	4.33333
0.277539	4.5
0.302171	4.625
0.329266	4.75
0.353077	4.875
0.380992	5.04167
0.407266	5.25
0.418766	5.33333
0.435191	5.54167
0.448323	5.66667
0.454899	5.83333
0.466389	6.08333
0.476248	6.54167
0.484455	6.70833
0.495955	7
0.507446	7.25
0.515653	7.58333
0.527153	7.70833
0.537002	7.79167
0.557531	7.89583
0.582984	8.08333
0.608446	8.25
0.633899	8.41667
0.660173	8.625
0.684805	8.83333
0.709437	9.02083
0.73489	9.1875
0.760353	9.375
0.785806	9.58333
0.810438	9.75
0.834249	9.95833
0.862164	10.25
0.885155	10.5417
0.91307	10.9583
0.936061	11.375
0.962344	12.1667
0.972193	12.6667
0.983693	13.3333
0.993542	14.625
1.0034	17.6667
1.00586	18.5
