Adsorption isotherm of Methane on Coal WLH with 2.24% humidity
DOI: 10.1007/s10450-017-9889-y
Article source: Figure 9
Adsorbate Methane: InChIKey VNWKTOKETHGBQD-UHFFFAOYSA-N
Kind: experiment
Temperature: 303 K
Tabular data in the source: 0
pressure (bar)	uptake (ml/g)
0.9167	3.73737
9.0833	16.1616
15.5833	20.404
21.7917	22.0202
30.5	22.1212
37	22.8283
45.0833	22.9293
