Adsorption isotherm of Carbon Dioxide on [Zn3(OH)(p-CDC)2.5(DEF)4]n
DOI: 10.1039/B805785k
Adsorbate Carbon Dioxide: InChIKey CURLTUGMZLYLDI-UHFFFAOYSA-N
Temperature: 298 K
Tabular data in the source: 0
pressure (bar)	uptake (mmol/g)
0.0801993	0.0348325
0.779359	0.21574
2.00289	0.47137
3.31381	0.679807
4.97432	0.860715
6.72222	1.01803
8.99448	1.17534
11.5289	1.30905
13.6264	1.3995
16.9474	1.52535
19.7441	1.61581
