Adsorption isotherm of Carbon Dioxide on [Zn3(OH)(p-CDC)2.5(DEF)4]n
DOI: 10.1039/B805785k
Adsorbate Carbon Dioxide: InChIKey CURLTUGMZLYLDI-UHFFFAOYSA-N
Temperature: 298 K
Tabular data in the source: 0
pressure (bar)	uptake (mmol/g)
0	0.0908272
0.473477	0.366121
1.26003	0.700407
2.52726	1.04125
4.66843	1.48041
7.15919	1.80814
10.4365	2.14898
13.1894	2.37184
16.6415	2.6078
19.8752	2.83066
