Adsorption isotherm of Methane on [Zn3(OH)(p-CDC)2.5(DEF)4]n
DOI: 10.1039/B805785k
Adsorbate Methane: InChIKey VNWKTOKETHGBQD-UHFFFAOYSA-N
Temperature: 298 K
Tabular data in the source: 0
pressure (bar)	uptake (mmol/g)
0.123897	0.0033703
1.60961	0.0741602
3.6197	0.137085
5.93566	0.180345
8.90709	0.227538
11.7037	0.259001
14.0197	0.290463
16.3357	0.317992
18.4331	0.345522
19.9626	0.361253
