Adsorption isotherm of Methane on [Zn3(OH)(p-CDC)2.5(DEF)4]n
DOI: 10.1039/B805785k
Adsorbate Methane: InChIKey VNWKTOKETHGBQD-UHFFFAOYSA-N
Temperature: 298 K
Tabular data in the source: 0
pressure (bar)	uptake (mmol/g)
0.386801	0.0421351
1.13403	0.184152
1.99924	0.337093
3.17907	0.522807
4.51621	0.697597
5.93201	0.850538
7.74109	1.02533
9.86478	1.22197
12.2244	1.39676
14.7808	1.5934
17.3764	1.76819
