Adsorption isotherm of Methane on [Zn3(OH)(p-CDC)2.5(DEF)4]n
DOI: 10.1039/B805785k
Adsorbate Methane: InChIKey VNWKTOKETHGBQD-UHFFFAOYSA-N
Temperature: 298 K
Tabular data in the source: 0
pressure (bar)	uptake (mmol/g)
1.05537	0.118606
2.07789	0.227849
3.13974	0.315244
4.55554	0.446337
6.04999	0.55558
7.74109	0.642975
9.94344	0.784992
12.2638	0.894236
14.7414	0.970706
17.4944	1.1018
