Adsorption isotherm of Carbon Dioxide on [Zn3(OH)(p-CDC)2.5(DEF)4]n
DOI: 10.1039/B805785k
Adsorbate Carbon Dioxide: InChIKey CURLTUGMZLYLDI-UHFFFAOYSA-N
Temperature: 298 K
Tabular data in the source: 0
pressure (bar)	uptake (mmol/g)
0.0328516	0.0312107
0.465457	0.216925
1.13403	0.544656
2.03857	0.774068
3.17907	1.09087
4.55554	1.29844
6.12865	1.49508
7.81974	1.65894
9.94344	1.81188
12.3031	1.93205
14.7808	2.07407
17.455	2.20516
