Adsorption isotherm of Carbon Dioxide on [Zn3(OH)(p-CDC)2.5(DEF)4]n
DOI: 10.1039/B805785k
Adsorbate Carbon Dioxide: InChIKey CURLTUGMZLYLDI-UHFFFAOYSA-N
Temperature: 298 K
Tabular data in the source: 0
pressure (bar)	uptake (mmol/g)
0.386801	0.468185
0.976717	0.937933
1.92058	1.37491
3.10041	1.77911
4.51621	2.11777
6.04999	2.41272
7.74109	2.74045
9.86478	3.04634
12.2244	3.34129
14.7808	3.71272
17.6123	4.02953
