Adsorption isotherm of Methane on [Zn3(OH)(p-CDC)2.5(DEF)4]n
DOI: 10.1039/B805785k
Adsorbate Methane: InChIKey VNWKTOKETHGBQD-UHFFFAOYSA-N
Temperature: 298 K
Tabular data in the source: 0
pressure (bar)	uptake (mmol/g)
0.167594	0.0121718
1.39112	0.0973819
3.44491	0.162928
5.89196	0.241584
8.7323	0.313684
11.5289	0.366121
14.4567	0.444777
17.4281	0.503768
19.7878	0.56276
