Adsorption isotherm of Nitrogen on Py-HTP-BT-COF
DOI: 10.1002/anie.202006925
Article source: Figure 2
Adsorbate Nitrogen: InChIKey IJGRMHOSHXDMSA-UHFFFAOYSA-N
Kind: experiment
Temperature: 77 K
Tabular data in the source: 0
pressure (bar)	uptake (cm3(STP)/g)
0.002629	9.43998
0.000791	25.746
0.001159	39.2896
0.000424	53.938
0.000791	66.6524
0.000791	82.1305
0.001526	95.9507
0.001526	107.006
0.001894	123.59
0.001526	136.304
0.002997	149.572
0.002997	160.352
0.002262	174.447
0.002997	188.82
0.002997	199.876
0.015492	265.114
0.019167	279.489
0.019167	294.138
0.02174	308.235
0.033867	318.747
0.043423	328.703
0.052978	347.505
0.056653	354.141
0.070619	372.945
0.086054	394.514
0.10296	423.823
0.12795	460.877
0.144856	491.292
0.162496	525.577
0.172787	565.385
0.198513	692.82
0.224238	729.045
0.259519	740.678
0.310236	762.824
0.359482	779.441
0.414609	797.72
0.469736	814.894
0.522657	832.067
0.575579	846.475
0.628501	864.2
0.722584	890.245
0.78653	910.189
0.880613	952.818
0.94309	989.897
0.942396	989.574
0.900541	968.816
0.848477	946.899
0.799475	930.743
0.738734	914.195
0.686159	898.42
0.637158	883.991
0.585604	869.561
0.534561	855.706
0.524352	851.477
0.47433	834.168
0.423797	815.708
0.371733	800.701
0.320179	783.391
0.266073	763.393
0.258417	749.184
0.224728	745.706
0.206353	731.49
0.19104	682.343
0.185425	649.709
0.180831	613.621
0.172664	586.744
0.166029	559.484
0.150716	516.863
0.134382	486.525
0.10886	445.432
0.088953	418.163
0.074151	398.575
0.056796	369.388
0.039952	344.809
0.023618	308.713
0.021576	301.034
