Adsorption isotherm of Nitrogen on Py-FTP-BT-COF
DOI: 10.1002/anie.202006925
Article source: Figure 2
Adsorbate Nitrogen: InChIKey IJGRMHOSHXDMSA-UHFFFAOYSA-N
Kind: experiment
Temperature: 77 K
Tabular data in the source: 0
pressure (bar)	uptake (cm3(STP)/g)
0.005242	25.3959
0.005242	47.661
0.005242	69.1583
0.005753	89.5044
0.006774	108.699
0.007795	127.126
0.010347	141.715
0.01392	167.438
0.018514	181.261
0.026681	195.854
0.036379	210.064
0.05016	220.822
0.062666	229.276
0.075682	238.498
0.088443	248.871
0.103501	260.974
0.121111	274.613
0.139486	291.133
0.149695	302.08
0.159903	311.684
0.173685	336.262
0.180576	353.349
0.185935	367.749
0.194102	390.595
0.200228	407.49
0.204821	423.232
0.201248	434.362
0.214009	441.857
0.228301	453.575
0.256375	457.433
0.280365	462.439
0.305887	464.76
0.329877	467.272
0.358972	470.746
0.391129	474.031
0.409505	475.771
0.432985	478.666
0.462079	481.373
0.490664	484.463
0.513633	486.398
0.535582	487.565
0.561869	487.583
0.586114	489.519
0.614699	490.69
0.643793	493.013
0.667273	494.18
0.693816	494.966
0.718827	496.902
0.766297	499.622
0.815298	503.878
0.867363	508.136
0.914833	514.694
0.939334	519.317
0.934229	520.465
0.907176	521.215
0.85792	513.888
0.806621	508.479
0.756854	504.798
0.7053	505.147
0.680034	503.786
0.655533	503.002
0.630522	502.025
0.602448	499.895
0.571312	498.146
0.550384	498.324
0.5218	496.001
0.500872	493.3
0.481476	491.943
0.451871	490.195
0.420224	487.103
0.3799	483.237
0.350805	481.297
0.319158	477.821
0.298486	474.16
0.269136	470.877
0.249229	468.177
0.224218	464.705
0.202269	454.709
0.190019	437.426
0.184915	421.683
0.176748	398.261
0.169857	378.486
0.166284	364.088
0.162966	351.034
0.15633	334.907
0.148163	318.394
