Adsorption isotherm of Nitrogen on Py-CITP-BT-COF
DOI: 10.1002/anie.202006925
Article source: Figure 2
Adsorbate Nitrogen: InChIKey IJGRMHOSHXDMSA-UHFFFAOYSA-N
Kind: experiment
Temperature: 77 K
Tabular data in the source: 0
pressure (bar)	uptake (cm3(STP)/g)
0.001159	21.9382
0.001669	39.9809
0.001669	58.4072
0.001414	75.6817
0.00269	92.5733
0.003201	110.616
0.003711	124.82
0.005242	137.873
0.006263	150.926
0.010347	168.587
0.01443	182.793
0.019024	192.777
0.023618	201.994
0.029743	212.363
0.037144	219.278
0.044546	227.728
0.057307	239.637
0.069046	252.697
0.083339	263.455
0.095589	275.748
0.117538	291.502
0.136934	306.102
0.154799	321.854
0.159903	331.838
0.173175	346.818
0.178279	356.803
0.178279	373.31
0.188488	381.378
0.191295	395.008
0.196655	410.175
0.198186	423.612
0.210947	444.35
0.220645	452.418
0.256375	458.2
0.275261	462.052
0.305887	465.144
0.329367	466.695
0.358206	470.554
0.386025	473.644
0.405932	475.961
0.429412	476.552
0.460548	478.685
0.504445	481.018
0.529456	481.803
0.55753	486.044
0.577947	486.058
0.613678	487.042
0.645325	490.71
0.662169	489.954
0.696368	491.513
0.711681	492.291
0.762214	496.548
0.814788	499.271
0.8643	503.527
0.913812	509.319
0.93525	512.789
0.93525	513.556
0.907687	513.921
0.859706	509.666
0.808663	504.257
0.756088	501.918
0.705556	498.045
0.684117	496.111
0.655533	494.556
0.634605	493.007
0.60449	492.218
0.573864	489.51
0.552936	489.112
0.523842	487.173
0.502914	486.391
0.481986	484.074
0.454423	480.216
0.422776	478.275
0.401848	477.109
0.381941	474.793
0.351571	473.62
0.32069	470.528
0.300783	467.828
0.271178	464.353
0.251781	461.652
0.221155	456.257
0.200738	452.788
0.19104	437.81
0.185935	425.523
0.185935	415.158
0.176748	392.119
0.172664	373.69
0.170112	360.636
0.165008	351.036
0.152247	331.833
0.146122	319.928
0.128257	306.864
0.1206	302.253
0.106308	288.423
0.093037	275.746
0.086401	270.175
0.074151	260.762
0.065729	251.159
0.054754	240.403
0.044035	231.183
0.036889	224.652
0.032295	216.587
0.02617	211.209
0.024128	203.53
0.019024	196.232
0.014941	188.936
