Adsorption isotherm of Carbon Dioxide, Methane on Zeolite 13X
DOI: 10.1016/j.apenergy.2016.06.146
Article source: Figure 7
Adsorbate Carbon Dioxide: InChIKey CURLTUGMZLYLDI-UHFFFAOYSA-N
Adsorbate Methane: InChIKey VNWKTOKETHGBQD-UHFFFAOYSA-N
Kind: experiment
Temperature: 298 K
Tabular data in the source: 0
pressure (bar)	Carbon Dioxide fraction	Carbon Dioxide uptake (mg/g)	Methane fraction	Methane uptake (mg/g)	total uptake (mg/g)
1.89	0.03	0.0195	0.97	0.0819	
4.51	0.03	0.0661	0.97	0.2	
5.91	0.03	0.0894	0.97	0.282	
7.01	0.03	0.104	0.97	0.352	
8.61	0.03	0.129	0.97	0.448	
10.9	0.03	0.171	0.97	0.582	
13	0.03	0.205	0.97	0.689	
