Adsorption isotherm of Methane on [H3O][In(btec)]*0.8H2O
DOI: 10.1039/C1dt10683j
Adsorbate Methane: InChIKey VNWKTOKETHGBQD-UHFFFAOYSA-N
Temperature: 298 K
Tabular data in the source: 0
pressure (bar)	uptake (cm3(STP)/g)
0.0547527	0.0936194
1.23458	2.06001
2.6766	3.58942
4.24971	5.22807
5.69173	6.32051
7.33038	7.63143
8.7724	8.83312
10.2144	9.48858
12.3774	9.92555
16.8346	11.1272
20.964	13.2029
23.4548	16.2617
25.6833	22.2701
