Adsorption isotherm of Carbon Dioxide on [H3O][In(btec)]*0.8H2O
DOI: 10.1039/C1dt10683j
Adsorbate Carbon Dioxide: InChIKey CURLTUGMZLYLDI-UHFFFAOYSA-N
Temperature: 298 K
Tabular data in the source: 0
pressure (bar)	uptake (cm3(STP)/g)
0.185845	3.15244
0.316938	7.84992
0.644669	12.1104
0.906854	16.0432
2.6766	24.7827
3.98753	29.6987
5.42954	32.3205
7.00265	34.9424
10.0178	38.7659
13.5573	42.2617
17.7522	45.2113
20.0463	45.6482
22.2094	45.6482
24.1102	45.2113
26.2732	44.0096
