Adsorption isotherm of Hydrogen on ZIF-11
DOI: 10.1021/Jp103785u
Adsorbate Hydrogen: InChIKey UFHFLCQGNIYNRP-UHFFFAOYSA-N
Temperature: 300 K
Tabular data in the source: 0
pressure (bar)	uptake (wt%)
20.3134	0.184333
30.8236	0.265698
41.0654	0.311921
51.8166	0.371671
61.61	0.423287
71.3685	0.464091
81.7135	0.4941
90.954	0.518674
101.713	0.532479
