Adsorption isotherm of Hydrogen on ZIF-11
DOI: 10.1021/Jp103785u
Adsorbate Hydrogen: InChIKey UFHFLCQGNIYNRP-UHFFFAOYSA-N
Temperature: 300 K
Tabular data in the source: 0
pressure (bar)	uptake (g/l)
11.0492	1.26955
21.566	2.40432
31.5876	3.48139
41.8463	4.40427
52.728	5.32703
63.1146	6.19208
72.6758	6.96095
83.1995	7.78744
94.144	8.51751
104.593	9.18987
