Adsorption isotherm of Hydrogen on ZIF-3
DOI: 10.1021/Jp103785u
Adsorbate Hydrogen: InChIKey UFHFLCQGNIYNRP-UHFFFAOYSA-N
Temperature: 300 K
Tabular data in the source: 0
pressure (bar)	uptake (wt%)
20.9172	0.178944
30.426	0.23866
41.6866	0.311937
51.5147	0.374365
61.6447	0.434099
71.7747	0.493832
91.9913	0.599784
102.251	0.651412
