Adsorption isotherm of Hydrogen on ZIF-8
DOI: 10.1021/Jp103785u
Adsorbate Hydrogen: InChIKey UFHFLCQGNIYNRP-UHFFFAOYSA-N
Temperature: 77 K
Tabular data in the source: 0
pressure (bar)	uptake (wt%)
0.536193	0.208333
0.80429	1.31944
4.82574	2.77778
9.65147	3.00347
20.3753	3.19444
29.7587	3.21181
40.2145	3.22917
49.5979	3.21181
59.7855	3.14236
69.9732	3.09028
79.3566	3.02083
90.0804	2.89931
100	2.79514
