Adsorption isotherm of Hydrogen on ZIF-8
DOI: 10.1021/Jp103785u
Adsorbate Hydrogen: InChIKey UFHFLCQGNIYNRP-UHFFFAOYSA-N
Temperature: 77 K
Tabular data in the source: 0
pressure (bar)	uptake (wt%)
3.04383	3.08863
8.47113	4.55877
13.0296	4.74759
23.832	5.04432
34.0592	5.19268
43.4496	5.2736
53.9109	5.30058
64.0923	5.3815
73.7991	5.46243
84.1114	5.50289
92.963	5.4894
104.197	5.4894
