Adsorption isotherm of Hydrogen on ZIF-3
DOI: 10.1021/Jp103785u
Adsorbate Hydrogen: InChIKey UFHFLCQGNIYNRP-UHFFFAOYSA-N
Temperature: 300 K
Tabular data in the source: 0
pressure (bar)	uptake (wt%)
5.25508	0.0406826
10.2331	0.0435198
40.8358	0.0956983
59.9977	0.115135
70.4458	0.128931
80.2814	0.145413
90.5568	0.153799
100.539	0.167582
