Adsorption isotherm of Hydrogen on ZIF-11
DOI: 10.1021/Jp103785u
Adsorbate Hydrogen: InChIKey UFHFLCQGNIYNRP-UHFFFAOYSA-N
Temperature: 77 K
Tabular data in the source: 0
pressure (bar)	uptake (g/l)
2.19459	12.3555
7.73331	27.0679
12.6868	29.8973
22.6565	32.7325
33.0233	34.7447
43.3483	36.2863
53.4852	37.4747
63.5594	37.9571
73.3723	39.0275
83.2584	39.1568
93.6566	39.7572
103.24	40.0038
