Adsorption isotherm of Hydrogen on ZIF-70
DOI: 10.1021/Jp103785u
Adsorbate Hydrogen: InChIKey UFHFLCQGNIYNRP-UHFFFAOYSA-N
Temperature: 300 K
Tabular data in the source: 0
pressure (bar)	uptake (wt%)
11.4081	0.0883771
21.9867	0.154046
32.3624	0.219719
43.0552	0.276294
53.3867	0.337423
63.8103	0.387186
74.2119	0.434677
84.7719	0.477619
94.9707	0.525114
105.553	0.570328
