Adsorption isotherm of Hydrogen on ZIF-70
DOI: 10.1021/Jp103785u
Adsorbate Hydrogen: InChIKey UFHFLCQGNIYNRP-UHFFFAOYSA-N
Temperature: 77 K
Tabular data in the source: 0
pressure (bar)	uptake (wt%)
1.90735	1.10487
10.0795	2.54768
15.5421	2.69948
25.7035	2.93322
36.2626	3.06236
46.3124	3.14492
56.1425	3.12281
66.9179	3.15894
77.1004	3.20664
87.2095	3.21944
97.1861	3.26711
106.884	3.27987
