Adsorption isotherm of Hydrogen on ZIF-2
DOI: 10.1021/Jp103785u
Adsorbate Hydrogen: InChIKey UFHFLCQGNIYNRP-UHFFFAOYSA-N
Temperature: 300 K
Tabular data in the source: 0
pressure (bar)	uptake (wt%)
10.2095	0.132708
20.5742	0.265421
30.8781	0.379213
42.0616	0.476812
52.1407	0.568977
62.185	0.650329
72.2466	0.737088
82.5493	0.802231
93.1278	0.856571
102.947	0.916296
