Adsorption isotherm of Hydrogen on ZIF-8
DOI: 10.1021/Jp103785u
Adsorbate Hydrogen: InChIKey UFHFLCQGNIYNRP-UHFFFAOYSA-N
Temperature: 77 K
Tabular data in the source: 0
pressure (bar)	uptake (wt%)
4.82574	2.84722
10.4558	3.125
19.8391	3.45486
30.2949	3.62847
39.6783	3.78472
50.134	3.88889
60.0536	3.94097
69.7051	4.02778
79.8928	4.0625
89.8123	4.07986
99.7319	4.13194
