Adsorption isotherm of Hydrogen on ZIF-8
DOI: 10.1021/Jp103785u
Adsorbate Hydrogen: InChIKey UFHFLCQGNIYNRP-UHFFFAOYSA-N
Temperature: 77 K
Tabular data in the source: 0
pressure (bar)	uptake (g/l)
3.33368	26.9451
8.13042	43.8919
14.7351	47.6644
24.548	50.4995
34.7581	52.5115
44.8532	53.2292
54.9587	54.0647
64.5836	54.7819
74.9922	55.5
84.9201	56.0999
95.2869	56.3474
104.87	56.594
