Adsorption isotherm of Hydrogen on ZIF-8
DOI: 10.1021/Jp103785u
Adsorbate Hydrogen: InChIKey UFHFLCQGNIYNRP-UHFFFAOYSA-N
Temperature: 300 K
Tabular data in the source: 0
pressure (bar)	uptake (g/l)
1.06473	0.269544
5.20963	0.788977
10.3541	1.44309
21.0732	2.67417
31.9387	3.88595
42.4183	4.94366
52.6956	5.90507
62.9357	6.78942
73.8081	7.69291
83.653	8.40392
93.9837	9.15338
104.617	9.8835
