Adsorption isotherm of Hydrogen on ZIF-3
DOI: 10.1021/Jp103785u
Adsorbate Hydrogen: InChIKey UFHFLCQGNIYNRP-UHFFFAOYSA-N
Temperature: 77 K
Tabular data in the source: 0
pressure (bar)	uptake (wt%)
13.742	5.09827
24.0671	5.62428
33.7528	5.90751
43.8858	6.15029
54.4203	6.28516
64.6292	6.40655
74.4942	6.48748
84.6848	6.58189
94.7172	6.6763
104.88	6.73025
