Adsorption isotherm of Hydrogen on ZIF-2
DOI: 10.1021/Jp103785u
Adsorbate Hydrogen: InChIKey UFHFLCQGNIYNRP-UHFFFAOYSA-N
Temperature: 300 K
Tabular data in the source: 0
pressure (bar)	uptake (wt%)
10.3809	0.0894698
20.2178	0.1546
30.9777	0.217053
40.3051	0.268657
51.1595	0.312193
61.3404	0.339496
70.7623	0.372183
80.6241	0.396774
91.3653	0.405172
101.356	0.421658
