Adsorption isotherm of Hydrogen on ZIF-69
DOI: 10.1021/Jp103785u
Adsorbate Hydrogen: InChIKey UFHFLCQGNIYNRP-UHFFFAOYSA-N
Temperature: 300 K
Tabular data in the source: 0
pressure (bar)	uptake (wt%)
21.6917	0.165416
32.3366	0.237901
43.0958	0.301293
53.5858	0.357873
63.8288	0.409913
74.4773	0.461944
85.0374	0.504886
94.9891	0.547841
105.686	0.583962
