Adsorption isotherm of Hydrogen on ZIF-2
DOI: 10.1021/Jp103785u
Adsorbate Hydrogen: InChIKey UFHFLCQGNIYNRP-UHFFFAOYSA-N
Temperature: 300 K
Tabular data in the source: 0
pressure (bar)	uptake (g/l)
10.6074	0.999883
20.9754	1.8264
31.3154	2.59512
41.6275	3.30604
52.1047	4.0362
62.0495	4.63159
72.9474	5.26533
82.8829	5.84145
93.2764	6.39821
103.651	6.91644
