Adsorption isotherm of Hydrogen on ZIF-8
DOI: 10.1021/Jp103785u
Adsorbate Hydrogen: InChIKey UFHFLCQGNIYNRP-UHFFFAOYSA-N
Temperature: 300 K
Tabular data in the source: 0
pressure (bar)	uptake (wt%)
1.34048	0.0520833
5.09383	0.0520833
12.0643	0.0868056
17.1582	0.138889
22.7882	0.15625
29.2225	0.190972
36.9973	0.260417
44.7721	0.295139
50.134	0.364583
53.0831	0.347222
