Adsorption isotherm of Hydrogen on ZIF-10
DOI: 10.1021/Jp103785u
Adsorbate Hydrogen: InChIKey UFHFLCQGNIYNRP-UHFFFAOYSA-N
Temperature: 77 K
Tabular data in the source: 0
pressure (bar)	uptake (wt%)
3.02371	1.65896
6.70045	2.41426
12.2329	2.87283
32.7303	3.46628
42.9575	3.61464
52.506	3.69557
73.0912	3.95183
83.0961	4.00578
92.8121	4.10019
