Adsorption isotherm of Hydrogen on ZIF-70
DOI: 10.1021/Jp103785u
Adsorbate Hydrogen: InChIKey UFHFLCQGNIYNRP-UHFFFAOYSA-N
Temperature: 77 K
Tabular data in the source: 0
pressure (bar)	uptake (wt%)
2.35695	1.37572
6.9291	2.75145
12.3061	2.98073
21.9004	3.12909
33.1986	3.22351
42.0593	3.22351
52.3259	3.19653
62.5466	3.10212
72.022	3.07514
82.0937	2.99422
91.8398	2.89981
102.042	2.77842
