Adsorption isotherm of Hydrogen on ZIF-70
DOI: 10.1021/Jp103785u
Adsorbate Hydrogen: InChIKey UFHFLCQGNIYNRP-UHFFFAOYSA-N
Temperature: 300 K
Tabular data in the source: 0
pressure (bar)	uptake (g/l)
0.964802	0.385171
5.58625	0.923779
10.5378	1.50086
30.9577	3.7898
41.7209	4.78965
52.3469	5.82806
63.3471	6.67373
73.7523	7.57731
83.9087	8.28826
94.5509	9.03766
105	9.71002
