Adsorption isotherm of Hydrogen on ZIF-3
DOI: 10.1021/Jp103785u
Adsorbate Hydrogen: InChIKey UFHFLCQGNIYNRP-UHFFFAOYSA-N
Temperature: 77 K
Tabular data in the source: 0
pressure (bar)	uptake (wt%)
6.79465	2.31985
11.6302	2.68401
22.2287	2.91329
32.2611	3.00771
41.42	2.98073
52.1521	2.94027
61.9073	2.85934
82.2456	2.75145
91.3679	2.67052
101.869	2.52216
