Adsorption isotherm of Hydrogen on ZIF-68
DOI: 10.1021/Jp103785u
Adsorbate Hydrogen: InChIKey UFHFLCQGNIYNRP-UHFFFAOYSA-N
Temperature: 77 K
Tabular data in the source: 0
pressure (bar)	uptake (wt%)
1.1961	0.569907
2.70953	1.29101
10.5993	2.50123
15.5421	2.69948
26.4324	3.08447
36.3253	3.19027
46.6541	3.30775
57.2376	3.44852
68.0863	3.51954
77.6268	3.55554
88.2453	3.61491
97.6882	3.60438
108.003	3.61721
