Adsorption isotherm of Hydrogen on ZIF-8
DOI: 10.1021/Jp103785u
Adsorbate Hydrogen: InChIKey UFHFLCQGNIYNRP-UHFFFAOYSA-N
Temperature: 300 K
Tabular data in the source: 0
pressure (bar)	uptake (wt%)
1.32059	0.02436
5.02274	0.0650006
10.4679	0.116499
20.8749	0.214078
31.118	0.308949
41.4294	0.376795
51.5942	0.44734
61.4223	0.509768
71.8281	0.558698
82.8812	0.615754
92.3031	0.648441
102.346	0.681144
