Adsorption isotherm of Hydrogen on ZIF-11
DOI: 10.1021/Jp103785u
Adsorbate Hydrogen: InChIKey UFHFLCQGNIYNRP-UHFFFAOYSA-N
Temperature: 77 K
Tabular data in the source: 0
pressure (bar)	uptake (wt%)
8.47754	4.80154
13.4164	5.08478
24.2464	5.42197
33.5516	5.61079
44.0312	5.66474
54.0636	5.75915
64.1051	5.86705
73.6263	5.90751
84.0967	5.94798
94.409	5.98844
104.405	6.0289
