Adsorption isotherm of Hydrogen on ZIF-10
DOI: 10.1021/Jp103785u
Adsorbate Hydrogen: InChIKey UFHFLCQGNIYNRP-UHFFFAOYSA-N
Temperature: 300 K
Tabular data in the source: 0
pressure (bar)	uptake (wt%)
19.9171	0.205944
30.2546	0.281899
41.3424	0.349766
51.4811	0.412202
61.2571	0.458412
71.3523	0.507334
81.5681	0.545448
91.9044	0.572754
102.12	0.610868
