Adsorption isotherm of Hydrogen on ZIF-11
DOI: 10.1021/Jp103785u
Adsorbate Hydrogen: InChIKey UFHFLCQGNIYNRP-UHFFFAOYSA-N
Temperature: 77 K
Tabular data in the source: 0
pressure (bar)	uptake (wt%)
13.4649	4.92293
23.9509	5.21965
33.3413	5.30058
43.2639	5.23314
54.1999	5.26012
63.9734	5.20617
73.9326	5.19268
83.548	5.13873
93.6197	5.0578
103.542	4.99037
