Adsorption isotherm of Hydrogen on ZIF-8
DOI: 10.1021/Jp103785u
Adsorbate Hydrogen: InChIKey UFHFLCQGNIYNRP-UHFFFAOYSA-N
Temperature: 300 K
Tabular data in the source: 0
pressure (bar)	uptake (wt%)
1.33411	0.0520833
20.579	0.173611
29.9345	0.225694
40.0893	0.329861
50.2479	0.364583
59.8698	0.434028
69.7601	0.486111
79.9168	0.555556
89.8052	0.642361
99.6973	0.659722
