Adsorption isotherm of Hydrogen on ZIF-79
DOI: 10.1021/Jp103785u
Adsorbate Hydrogen: InChIKey UFHFLCQGNIYNRP-UHFFFAOYSA-N
Temperature: 77 K
Tabular data in the source: 0
pressure (bar)	uptake (wt%)
1.72114	0.821759
3.11431	1.38889
3.39379	1.62037
10.709	2.66204
16.1219	2.89352
26.2691	3.03241
36.6815	3.10185
46.6347	3.14815
56.4667	3.13657
66.8064	3.1713
76.4573	3.1713
86.7	3.15972
96.5321	3.14815
106.545	3.125
