Adsorption isotherm of Hydrogen on ZIF-69
DOI: 10.1021/Jp103785u
Adsorbate Hydrogen: InChIKey UFHFLCQGNIYNRP-UHFFFAOYSA-N
Temperature: 77 K
Tabular data in the source: 0
pressure (bar)	uptake (wt%)
1.75753	0.837414
2.60136	1.33751
3.13839	1.59339
10.348	2.67562
15.7269	2.88555
26.2266	3.08444
36.5799	3.21356
46.6297	3.29612
56.9447	3.30895
67.2003	3.39153
77.3339	3.41597
87.4675	3.4404
97.3953	3.46481
107.529	3.48925
