Adsorption isotherm of Hydrogen on ZIF-10
DOI: 10.1021/Jp103785u
Adsorbate Hydrogen: InChIKey UFHFLCQGNIYNRP-UHFFFAOYSA-N
Temperature: 300 K
Tabular data in the source: 0
pressure (bar)	uptake (g/l)
5.1073	0.577051
11.249	1.03829
20.6987	1.57597
31.1386	2.22907
41.3857	2.80513
51.4583	3.34269
62.1819	3.93792
71.9337	4.45627
82.4643	4.97448
93.1693	5.53118
103.04	5.97244
