Adsorption isotherm of Hydrogen on ZIF-78
DOI: 10.1021/Jp103785u
Adsorbate Hydrogen: InChIKey UFHFLCQGNIYNRP-UHFFFAOYSA-N
Temperature: 300 K
Tabular data in the source: 0
pressure (bar)	uptake (wt%)
5.60451	0.0339635
10.5158	0.0383974
20.7183	0.0654382
30.8322	0.0833902
41.2854	0.0945162
51.0859	0.101112
61.1113	0.109975
71.2031	0.125654
81.4314	0.134513
91.2761	0.145653
101.526	0.156783
