Adsorption isotherm of Hydrogen on ZIF-11
DOI: 10.1021/Jp103785u
Adsorbate Hydrogen: InChIKey UFHFLCQGNIYNRP-UHFFFAOYSA-N
Temperature: 300 K
Tabular data in the source: 0
pressure (bar)	uptake (wt%)
5.45504	0.10285
10.7971	0.170562
21.05	0.316785
31.3887	0.441389
42.633	0.557909
52.3071	0.668981
62.852	0.761158
73.1211	0.864138
82.8461	0.94278
93.1923	1.02144
103.866	1.10551
