Adsorption isotherm of Hydrogen on ZIF-8
DOI: 10.1021/Jp103785u
Adsorbate Hydrogen: InChIKey UFHFLCQGNIYNRP-UHFFFAOYSA-N
Temperature: 77 K
Tabular data in the source: 0
pressure (bar)	uptake (wt%)
0.268097	0.3125
1.07239	1.59722
3.48525	2.44792
6.70241	2.86458
13.1367	3.17708
18.2306	3.28125
25.4692	3.31597
34.0483	3.31597
42.6273	3.26389
52.815	3.19444
55.7641	3.19444
