Adsorption isotherm of Hydrogen on ZIF-78
DOI: 10.1021/Jp103785u
Adsorbate Hydrogen: InChIKey UFHFLCQGNIYNRP-UHFFFAOYSA-N
Temperature: 300 K
Tabular data in the source: 0
pressure (bar)	uptake (wt%)
11.2238	0.111109
22.2484	0.201767
32.532	0.278806
43.5825	0.351282
75.3438	0.530106
85.7675	0.579869
95.9441	0.625092
106.301	0.668039
