Adsorption isotherm of Hydrogen on ZIF-70
DOI: 10.1021/Jp103785u
Adsorbate Hydrogen: InChIKey UFHFLCQGNIYNRP-UHFFFAOYSA-N
Temperature: 77 K
Tabular data in the source: 0
pressure (bar)	uptake (g/l)
0.209008	0.588481
3.58449	29.7689
9.12321	44.4813
14.3693	47.0757
24.1196	49.2048
33.9743	50.7459
44.4247	51.9346
53.9973	52.0635
64.4059	52.7817
74.4696	53.1464
84.7424	54.0997
94.4717	54.2288
104.661	54.2408
