Adsorption isotherm of Hydrogen on ZIF-70
DOI: 10.1021/Jp103785u
Adsorbate Hydrogen: InChIKey UFHFLCQGNIYNRP-UHFFFAOYSA-N
Temperature: 300 K
Tabular data in the source: 0
pressure (bar)	uptake (wt%)
10.7797	0.165156
20.9718	0.292459
31.7937	0.422481
41.7783	0.533562
52.1853	0.63114
62.4632	0.736823
72.5335	0.826285
82.7244	0.904938
93.0793	0.986299
103.572	1.06226
