Adsorption isotherm of Hydrogen on ZIF-79
DOI: 10.1021/Jp103785u
Adsorbate Hydrogen: InChIKey UFHFLCQGNIYNRP-UHFFFAOYSA-N
Temperature: 300 K
Tabular data in the source: 0
pressure (bar)	uptake (wt%)
6.11703	0.0657701
11.021	0.111113
22.0235	0.199499
32.5099	0.276534
43.8074	0.35355
54.2274	0.423768
65.075	0.496248
75.248	0.561926
86.0072	0.625318
96.5414	0.686442
106.965	0.736205
