Adsorption isotherm of Hydrogen on ZIF-2
DOI: 10.1021/Jp103785u
Adsorbate Hydrogen: InChIKey UFHFLCQGNIYNRP-UHFFFAOYSA-N
Temperature: 77 K
Tabular data in the source: 0
pressure (bar)	uptake (wt%)
3.01548	2.34682
7.34616	2.89981
22.3998	3.39884
32.4962	3.58767
41.8865	3.66859
52.999	3.72254
62.5384	3.78998
72.8781	3.87091
82.6974	3.88439
92.684	3.91137
103.015	3.97881
