Adsorption isotherm of Hydrogen on ZIF-3
DOI: 10.1021/Jp103785u
Adsorbate Hydrogen: InChIKey UFHFLCQGNIYNRP-UHFFFAOYSA-N
Temperature: 77 K
Tabular data in the source: 0
pressure (bar)	uptake (g/l)
2.40359	14.7087
6.58376	22.9489
12.6032	27.1913
22.6565	30.9678
32.9397	33.8035
43.0766	34.9919
53.0776	36.4154
63.3295	37.1333
73.3096	38.3215
83.4047	39.0393
103.595	40.4748
