Adsorption isotherm of Hydrogen on ZIF-68
DOI: 10.1021/Jp103785u
Adsorbate Hydrogen: InChIKey UFHFLCQGNIYNRP-UHFFFAOYSA-N
Temperature: 300 K
Tabular data in the source: 0
pressure (bar)	uptake (wt%)
10.8919	0.0770252
21.5405	0.129056
31.7392	0.176551
42.5685	0.226305
52.723	0.269256
62.9475	0.298569
73.2163	0.332427
83.5994	0.357191
93.5548	0.379692
103.488	0.399921
