Adsorption isotherm of Hydrogen on ZIF-8
DOI: 10.1021/Jp103785u
Adsorbate Hydrogen: InChIKey UFHFLCQGNIYNRP-UHFFFAOYSA-N
Temperature: 77 K
Tabular data in the source: 0
pressure (bar)	uptake (wt%)
12.0811	3.11561
22.7345	3.42582
32.8583	3.65511
42.5743	3.74952
52.6158	3.85742
62.9646	3.95183
72.5132	4.03276
83.151	4.08671
93.1285	4.10019
103.115	4.12717
