Adsorption isotherm of Hydrogen on ZIF-10
DOI: 10.1021/Jp103785u
Adsorbate Hydrogen: InChIKey UFHFLCQGNIYNRP-UHFFFAOYSA-N
Temperature: 77 K
Tabular data in the source: 0
pressure (bar)	uptake (wt%)
11.8497	3.00771
22.3266	3.29094
32.1642	3.33141
42.1417	3.34489
51.9426	3.33141
62.5348	3.31792
72.3266	3.29094
81.802	3.26397
92.3575	3.19653
102.448	3.14258
