Adsorption isotherm of Hydrogen on ZIF-2
DOI: 10.1021/Jp103785u
Adsorbate Hydrogen: InChIKey UFHFLCQGNIYNRP-UHFFFAOYSA-N
Temperature: 77 K
Tabular data in the source: 0
pressure (bar)	uptake (wt%)
13.4741	4.93642
24.164	5.30058
32.8181	5.46243
43.4285	5.47592
53.8807	5.4894
63.7942	5.40848
73.4095	5.35453
83.8159	5.30058
93.8511	5.1657
103.914	5.07129
