Adsorption isotherm of Hydrogen on ZIF-70
DOI: 10.1021/Jp103785u
Adsorbate Hydrogen: InChIKey UFHFLCQGNIYNRP-UHFFFAOYSA-N
Temperature: 77 K
Tabular data in the source: 0
pressure (bar)	uptake (wt%)
0.16969	0.0810185
1.73255	0.729167
4.13244	1.875
5.97194	2.36111
11.037	2.91667
16.631	3.13657
26.9236	3.34491
37.1549	3.42593
47.0354	3.4375
57.3024	3.4375
67.2071	3.46065
76.7126	3.3912
87.0879	3.34491
97.0525	3.29861
106.969	3.22917
