Adsorption isotherm of Hydrogen on ZIF-70
DOI: 10.1021/Jp103785u
Adsorbate Hydrogen: InChIKey UFHFLCQGNIYNRP-UHFFFAOYSA-N
Temperature: 77 K
Tabular data in the source: 0
pressure (bar)	uptake (wt%)
0.0365845	0.0539499
3.23224	2.89981
7.94157	4.47784
13.486	4.72062
23.5641	4.88247
33.2983	5.00385
43.8995	5.00385
53.5423	4.99037
73.126	4.93642
83.4108	4.93642
93.0444	4.90944
103.944	4.88247
