Adsorption isotherm of Hydrogen on ZIF-70
DOI: 10.1021/Jp103785u
Adsorbate Hydrogen: InChIKey UFHFLCQGNIYNRP-UHFFFAOYSA-N
Temperature: 300 K
Tabular data in the source: 0
pressure (bar)	uptake (wt%)
20.2648	0.314061
31.6483	0.473828
42.151	0.601139
52.4462	0.712228
63.0693	0.828732
72.8726	0.931699
84.1517	1.05903
93.6953	1.12956
104.102	1.22714
