Adsorption isotherm of Hydrogen on ZIF-68
DOI: 10.1021/Jp103785u
Adsorbate Hydrogen: InChIKey UFHFLCQGNIYNRP-UHFFFAOYSA-N
Temperature: 77 K
Tabular data in the source: 0
pressure (bar)	uptake (wt%)
1.26055	0.601852
3.9984	1.71296
9.72935	2.48843
15.6015	2.74306
36.355	3.04398
56.4183	3.11343
76.3718	3.03241
96.6518	3.00926
106.616	2.96296
