Adsorption isotherm of Hydrogen on ZIF-68
DOI: 10.1021/Jp103785u
Adsorbate Hydrogen: InChIKey UFHFLCQGNIYNRP-UHFFFAOYSA-N
Temperature: 300 K
Tabular data in the source: 0
pressure (bar)	uptake (wt%)
10.6707	0.0543029
20.7588	0.0904373
31.3189	0.133379
41.3185	0.160425
51.9487	0.189728
61.9041	0.212229
71.8152	0.230186
82.1319	0.248133
92.4265	0.263808
102.563	0.284033
