Adsorption isotherm of Hydrogen on ZIF-3
DOI: 10.1021/Jp103785u
Adsorbate Hydrogen: InChIKey UFHFLCQGNIYNRP-UHFFFAOYSA-N
Temperature: 300 K
Tabular data in the source: 0
pressure (bar)	uptake (g/l)
10.1798	1.40459
21.2103	2.6356
31.7085	3.73185
41.9858	4.69326
52.5654	5.63534
63.2448	6.4618
73.1548	7.30768
83.1275	7.96086
94.1905	8.61384
104.593	9.18987
