Adsorption isotherm of Hydrogen on ZIF-10
DOI: 10.1021/Jp103785u
Adsorbate Hydrogen: InChIKey UFHFLCQGNIYNRP-UHFFFAOYSA-N
Temperature: 300 K
Tabular data in the source: 0
pressure (bar)	uptake (wt%)
20.9954	0.20327
41.0405	0.352461
51.5333	0.42842
62	0.49627
81.8376	0.629239
92.2782	0.68898
102.701	0.743316
