Adsorption isotherm of Hydrogen on ZIF-79
DOI: 10.1021/Jp103785u
Adsorbate Hydrogen: InChIKey UFHFLCQGNIYNRP-UHFFFAOYSA-N
Temperature: 77 K
Tabular data in the source: 0
pressure (bar)	uptake (wt%)
0.414974	0.197723
2.38885	0.942138
4.11862	1.57025
9.8354	2.43138
15.6642	2.75764
26.9556	3.23569
37.0193	3.42291
47.2156	3.57526
57.8235	3.72765
67.8489	3.79859
77.9964	3.92767
88.6148	3.98705
98.5076	4.09285
108.641	4.11728
