Adsorption isotherm of Hydrogen on ZIF-8
DOI: 10.1021/Jp103785u
Adsorbate Hydrogen: InChIKey UFHFLCQGNIYNRP-UHFFFAOYSA-N
Temperature: 300 K
Tabular data in the source: 0
pressure (bar)	uptake (wt%)
20.3753	0.0694444
29.7587	0.0868056
39.9464	0.121528
49.5979	0.121528
59.7855	0.138889
69.7051	0.121528
79.6247	0.121528
89.8123	0.15625
99.1957	0.121528
