Adsorption isotherm of Hydrogen on ZIF-79
DOI: 10.1021/Jp103785u
Adsorbate Hydrogen: InChIKey UFHFLCQGNIYNRP-UHFFFAOYSA-N
Temperature: 300 K
Tabular data in the source: 0
pressure (bar)	uptake (wt%)
11.2017	0.108836
21.935	0.190411
32.8712	0.27198
43.6746	0.339916
54.5444	0.414669
64.6731	0.475803
75.141	0.53011
85.856	0.588958
96.1211	0.64327
106.5	0.688489
