Adsorption isotherm of Hydrogen on ZIF-78
DOI: 10.1021/Jp103785u
Adsorbate Hydrogen: InChIKey UFHFLCQGNIYNRP-UHFFFAOYSA-N
Temperature: 77 K
Tabular data in the source: 0
pressure (bar)	uptake (wt%)
0.231006	0.208333
2.43555	1.06481
3.23409	1.25
4.50462	1.5625
9.89762	2.37269
15.6856	2.68519
25.7971	2.90509
36.4391	2.98611
46.0415	2.96296
56.0304	2.92824
65.9708	2.87037
75.7543	2.83565
85.5978	2.73148
95.695	2.65046
105.285	2.52315
