Adsorption isotherm of Hydrogen on ZIF-8
DOI: 10.1021/Jp103785u
Adsorbate Hydrogen: InChIKey UFHFLCQGNIYNRP-UHFFFAOYSA-N
Temperature: 300 K
Tabular data in the source: 0
pressure (bar)	uptake (wt%)
16.8901	0.0520833
22.5201	0.0868056
29.2225	0.104167
37.5335	0.104167
44.2359	0.15625
49.5979	0.138889
53.0831	0.15625
