Adsorption isotherm of Hydrogen on ZIF-69
DOI: 10.1021/Jp103785u
Adsorbate Hydrogen: InChIKey UFHFLCQGNIYNRP-UHFFFAOYSA-N
Temperature: 300 K
Tabular data in the source: 0
pressure (bar)	uptake (wt%)
6.02854	0.0566812
11.4966	0.097466
21.8244	0.179049
32.178	0.24245
43.3649	0.308105
53.7001	0.34878
63.9652	0.403092
74.234	0.436949
84.7719	0.477619
95.0407	0.511476
105.287	0.543062
