Adsorption isotherm of Hydrogen on ZIF-2
DOI: 10.1021/Jp103785u
Adsorbate Hydrogen: InChIKey UFHFLCQGNIYNRP-UHFFFAOYSA-N
Temperature: 77 K
Tabular data in the source: 0
pressure (bar)	uptake (g/l)
3.29188	24.7098
7.51385	29.8912
12.6241	32.7207
23.5343	35.5571
33.0965	37.3331
43.6723	38.169
53.6002	38.7689
64.0297	39.7224
73.6754	40.6749
83.5615	40.8042
93.3117	41.1686
103.679	41.4161
