Adsorption isotherm of Hydrogen on ZIF-78
DOI: 10.1021/Jp103785u
Adsorbate Hydrogen: InChIKey UFHFLCQGNIYNRP-UHFFFAOYSA-N
Temperature: 77 K
Tabular data in the source: 0
pressure (bar)	uptake (wt%)
-0.156991	0.0232376
1.23439	0.68619
2.56642	1.4189
3.88457	2.04696
10.9827	2.97802
16.4348	3.22284
26.9728	3.53802
38.1737	3.67886
47.2189	3.77293
68.3964	3.96144
78.2266	3.93933
88.4578	4.01029
98.41	4.04633
108.313	4.05911
