Adsorption isotherm of Hydrogen on ZIF-70
DOI: 10.1021/Jp103785u
Adsorbate Hydrogen: InChIKey UFHFLCQGNIYNRP-UHFFFAOYSA-N
Temperature: 300 K
Tabular data in the source: 0
pressure (bar)	uptake (wt%)
1.41588	0.0204224
10.6006	0.0679409
21.452	0.119967
31.6065	0.162918
42.5058	0.199034
52.1883	0.235178
62.3908	0.262218
72.2798	0.277903
83.0906	0.30493
93.0017	0.322886
103.071	0.336294
