Adsorption isotherm of Hydrogen on ZIF-10
DOI: 10.1021/Jp103785u
Adsorbate Hydrogen: InChIKey UFHFLCQGNIYNRP-UHFFFAOYSA-N
Temperature: 77 K
Tabular data in the source: 0
pressure (bar)	uptake (g/l)
3.10377	20.8272
7.90051	36.0093
13.5751	39.8983
24.0255	44.6165
33.9638	47.0988
44.477	48.9935
54.4989	50.6524
64.8657	50.8998
74.1979	51.852
84.9514	52.9235
94.8793	53.5234
104.786	53.888
