Adsorption isotherm of Hydrogen on ZIF-8
DOI: 10.1021/Jp103785u
Adsorbate Hydrogen: InChIKey UFHFLCQGNIYNRP-UHFFFAOYSA-N
Temperature: 77 K
Tabular data in the source: 0
pressure (bar)	uptake (wt%)
1.34048	1.5625
2.14477	2.01389
3.75335	2.48264
6.43432	2.95139
8.84718	3.14236
12.3324	3.35069
18.7668	3.61111
25.4692	3.75
34.8525	3.88889
42.8954	3.99306
49.5979	4.0625
53.3512	4.09722
56.3003	4.11458
