Adsorption isotherm of Hydrogen on ZIF-69
DOI: 10.1021/Jp103785u
Adsorbate Hydrogen: InChIKey UFHFLCQGNIYNRP-UHFFFAOYSA-N
Temperature: 77 K
Tabular data in the source: 0
pressure (bar)	uptake (wt%)
2.14608	1.12269
10.1044	2.56944
15.9523	2.8125
36.971	3.04398
46.4408	3.05556
56.0917	3.05556
66.3344	3.04398
76.4445	3.06713
86.325	3.0787
96.4593	3.11343
106.472	3.09028
