Adsorption isotherm of Hydrogen on UMCM-1
DOI: 10.1016/j.micromeso.2010.07.007
Adsorbate Hydrogen: InChIKey UFHFLCQGNIYNRP-UHFFFAOYSA-N
Temperature: 298 K
Tabular data in the source: 0
pressure (bar)	uptake (wt%)
670.377	7.17884
2068.7	15.2629
5914.07	23.5654
11856.9	30.7755
20072.1	35.3637
32132.6	38.641
45416.6	41.0444
59924.2	41.6998
69887.2	42.5738
80025	43.2293
