Adsorption isotherm of Hydrogen on IRMOF-16
DOI: 10.1016/j.micromeso.2010.07.007
Adsorbate Hydrogen: InChIKey UFHFLCQGNIYNRP-UHFFFAOYSA-N
Temperature: 298 K
Tabular data in the source: 0
pressure (bar)	uptake (wt%)
45.0637	0.486412
121.453	1.1253
295.064	2.09752
482.564	2.8753
697.841	3.3753
996.453	4.01419
1996.45	5.43086
2996.45	6.31975
3996.45	7.09752
