Adsorption isotherm of Hydrogen on IRMOF-16
DOI: 10.1016/j.micromeso.2010.07.007
Adsorbate Hydrogen: InChIKey UFHFLCQGNIYNRP-UHFFFAOYSA-N
Temperature: 298 K
Tabular data in the source: 0
pressure (bar)	uptake (wt%)
0	0.348726
114.508	9.3765
482.564	28.8209
711.73	35.3487
1017.29	43.8209
1996.45	63.2654
3031.17	76.3209
3996.45	85.9043
