Adsorption isotherm of Hydrogen on UMCM-1
DOI: 10.1016/j.micromeso.2010.07.007
Adsorbate Hydrogen: InChIKey UFHFLCQGNIYNRP-UHFFFAOYSA-N
Temperature: 298 K
Tabular data in the source: 0
pressure (bar)	uptake (wt%)
6.89433	4.95471
62.4499	13.3806
127.265	21.1584
307.82	31.8992
516.154	38.1029
719.857	43.0103
1016.15	48.6584
2002.26	60.788
3002.26	68.4732
3997.64	75.2325
