Adsorption isotherm of Hydrogen on CuBTC
DOI: 10.1016/j.micromeso.2010.07.007
Adsorbate Hydrogen: InChIKey UFHFLCQGNIYNRP-UHFFFAOYSA-N
Temperature: 298 K
Tabular data in the source: 0
pressure (bar)	uptake (wt%)
302.008	17.9876
524.23	25.0709
725.619	29.2376
1010.34	34.9321
2010.34	47.2932
2996.45	55.6265
4010.34	62.1543
