Adsorption isotherm of Hydrogen on CuBTC
DOI: 10.1016/j.micromeso.2010.07.007
Adsorbate Hydrogen: InChIKey UFHFLCQGNIYNRP-UHFFFAOYSA-N
Temperature: 298 K
Tabular data in the source: 0
pressure (bar)	uptake (wt%)
2154.96	0.338573
4185.33	0.448551
6102.9	0.52328
8133.27	0.586729
10163.6	0.637488
12194	0.675558
14562.8	0.719267
16254.7	0.740417
18172.3	0.765796
20202.7	0.793996
