Adsorption isotherm of Hydrogen on MOF-177
DOI: 10.1016/j.micromeso.2010.07.007
Adsorbate Hydrogen: InChIKey UFHFLCQGNIYNRP-UHFFFAOYSA-N
Temperature: 298 K
Tabular data in the source: 0
pressure (bar)	uptake (wt%)
2068.7	13.078
3816.6	17.8847
7661.97	23.3469
15877.1	28.8091
24267	31.6494
32307.4	33.1788
45241.8	35.3637
60273.7	36.4561
69887.2	36.8931
79850.2	37.7671
