Adsorption isotherm of Hydrogen on IRMOF-16
DOI: 10.1016/j.micromeso.2010.07.007
Adsorbate Hydrogen: InChIKey UFHFLCQGNIYNRP-UHFFFAOYSA-N
Temperature: 298 K
Tabular data in the source: 0
pressure (bar)	uptake (wt%)
16.1536	3.10285
57.8203	10.0473
136.524	17.9177
303.191	30.4177
511.524	39.3992
710.598	46.1584
1006.89	53.4732
2011.52	71.5288
2997.64	82.8251
3997.64	91.3436
