Adsorption isotherm of Hydrogen on IRMOF-1
DOI: 10.1016/j.micromeso.2010.07.007
Adsorbate Hydrogen: InChIKey UFHFLCQGNIYNRP-UHFFFAOYSA-N
Temperature: 298 K
Tabular data in the source: 0
pressure (bar)	uptake (wt%)
1003.4	39.3765
2017.29	56.1821
3010.34	66.4598
4017.29	74.7932
