Adsorption isotherm of Hydrogen on CuBTC
DOI: 10.1016/j.micromeso.2010.07.007
Adsorbate Hydrogen: InChIKey UFHFLCQGNIYNRP-UHFFFAOYSA-N
Temperature: 298 K
Tabular data in the source: 0
pressure (bar)	uptake (wt%)
49.2905	2.90308
117.346	3.8753
295.124	4.84752
497.902	5.43086
699.291	5.81975
999.291	6.23641
