Adsorption isotherm of Hydrogen on IRMOF-16
DOI: 10.1016/j.micromeso.2010.07.007
Adsorbate Hydrogen: InChIKey UFHFLCQGNIYNRP-UHFFFAOYSA-N
Temperature: 298 K
Tabular data in the source: 0
pressure (bar)	uptake (wt%)
320.797	0.624214
495.587	13.515
1019.96	21.599
2243.49	31.4309
4166.18	42.1368
10109	59.1788
20072.1	72.9435
40347.7	82.557
60273.7	85.1788
80199.8	88.4561
