Adsorption isotherm of Hydrogen on MOF-177
DOI: 10.1016/j.micromeso.2010.07.007
Adsorbate Hydrogen: InChIKey UFHFLCQGNIYNRP-UHFFFAOYSA-N
Temperature: 298 K
Tabular data in the source: 0
pressure (bar)	uptake (wt%)
0	6.251
57.8203	17.5473
127.265	27.8251
307.82	39.6769
511.524	46.9917
724.487	51.8992
1020.78	57.6399
2025.41	69.6769
2997.64	78.5658
3997.64	84.8621
