Adsorption isotherm of Hydrogen on UMCM-1
DOI: 10.1016/j.micromeso.2010.07.007
Adsorbate Hydrogen: InChIKey UFHFLCQGNIYNRP-UHFFFAOYSA-N
Temperature: 298 K
Tabular data in the source: 0
pressure (bar)	uptake (wt%)
50.6794	4.01419
121.513	6.40308
302.068	9.40308
500.679	11.3475
704.846	12.7364
1000.68	14.3197
