Adsorption isotherm of Hydrogen on MOF-177
DOI: 10.1016/j.micromeso.2010.07.007
Adsorbate Hydrogen: InChIKey UFHFLCQGNIYNRP-UHFFFAOYSA-N
Temperature: 298 K
Tabular data in the source: 0
pressure (bar)	uptake (wt%)
17.2859	0.208634
58.9526	1.1253
114.508	2.54197
295.064	4.98641
503.397	7.09752
704.786	8.70863
996.453	10.5975
2010.34	15.042
3031.17	17.9031
