Adsorption isotherm of Hydrogen on IRMOF-1
DOI: 10.1016/j.micromeso.2010.07.007
Adsorbate Hydrogen: InChIKey UFHFLCQGNIYNRP-UHFFFAOYSA-N
Temperature: 298 K
Tabular data in the source: 0
pressure (bar)	uptake (wt%)
1719.12	9.5822
5914.07	14.3889
12206.5	18.7587
18149.4	21.3805
28112.4	23.5654
39998.1	25.0948
55379.6	25.5318
65517.4	26.1872
75305.7	27.0612
80199.8	26.8427
