Adsorption isotherm of Hydrogen on IRMOF-16
DOI: 10.1016/j.micromeso.2010.07.007
Adsorbate Hydrogen: InChIKey UFHFLCQGNIYNRP-UHFFFAOYSA-N
Temperature: 298 K
Tabular data in the source: 0
pressure (bar)	uptake (wt%)
146.007	0
670.377	0.104561
1194.75	0.240024
4254.2	0.473433
6118.63	0.555002
11945	0.707943
19868.8	0.8201
32220.6	0.885646
39911.3	0.932257
59953.9	0.961388
74752.8	0.99052
79763.4	1.00072
