Adsorption isotherm of Hydrogen on MOF-177
DOI: 10.1016/j.micromeso.2010.07.007
Adsorbate Hydrogen: InChIKey UFHFLCQGNIYNRP-UHFFFAOYSA-N
Temperature: 298 K
Tabular data in the source: 0
pressure (bar)	uptake (wt%)
7.62386	1.40308
52.0683	4.8753
120.124	8.79197
300.679	14.7642
496.513	19.0975
