Adsorption isotherm of Hydrogen on CuBTC
DOI: 10.1016/j.micromeso.2010.07.007
Adsorbate Hydrogen: InChIKey UFHFLCQGNIYNRP-UHFFFAOYSA-N
Temperature: 298 K
Tabular data in the source: 0
pressure (bar)	uptake (wt%)
20.7832	12.7325
48.561	25.5103
118.005	34.214
298.561	43.1954
1011.52	55.5103
2006.89	63.4732
2997.64	69.4917
3997.64	73.9362
