Adsorption isotherm of Hydrogen on CuBTC
DOI: 10.1016/j.micromeso.2010.07.007
Adsorbate Hydrogen: InChIKey UFHFLCQGNIYNRP-UHFFFAOYSA-N
Temperature: 298 K
Tabular data in the source: 0
pressure (bar)	uptake (wt%)
52.0082	0.708634
107.564	1.59752
302.008	3.18086
503.397	4.48641
697.841	5.45863
1024.23	6.59752
1989.51	9.20863
3010.34	10.8753
4010.34	12.2086
