Adsorption isotherm of Hydrogen on UMCM-1
DOI: 10.1016/j.micromeso.2010.07.007
Adsorbate Hydrogen: InChIKey UFHFLCQGNIYNRP-UHFFFAOYSA-N
Temperature: 298 K
Tabular data in the source: 0
pressure (bar)	uptake (wt%)
10.3415	0.403078
45.0637	2.06975
121.453	4.59752
308.953	9.56975
496.453	13.8753
711.73	17.3753
