Adsorption isotherm of Hydrogen on CuBTC
DOI: 10.1016/j.micromeso.2010.07.007
Adsorbate Hydrogen: InChIKey UFHFLCQGNIYNRP-UHFFFAOYSA-N
Temperature: 298 K
Tabular data in the source: 0
pressure (bar)	uptake (wt%)
670.377	3.24606
2767.86	6.74186
7836.76	9.80068
14129.2	11.3301
24092.2	13.515
35977.9	15.2629
49961.1	16.3553
60098.9	16.3553
70062	17.0108
80025	17.0108
