Adsorption isotherm of Hydrogen on IRMOF-16
DOI: 10.1016/j.micromeso.2010.07.007
Adsorbate Hydrogen: InChIKey UFHFLCQGNIYNRP-UHFFFAOYSA-N
Temperature: 298 K
Tabular data in the source: 0
pressure (bar)	uptake (wt%)
462.987	0.0664469
1929.36	0.320243
3282.94	0.375232
4298.13	0.425991
5990.1	0.49226
9938.04	0.596599
13998.8	0.668508
18285.1	0.737597
24150.6	0.805276
27873	0.839115
32046.5	0.861675
