Adsorption isotherm of Hydrogen on UMCM-1
DOI: 10.1016/j.micromeso.2010.07.007
Adsorbate Hydrogen: InChIKey UFHFLCQGNIYNRP-UHFFFAOYSA-N
Temperature: 298 K
Tabular data in the source: 0
pressure (bar)	uptake (wt%)
517.286	26.5987
725.619	33.2654
1010.34	41.0432
2010.34	58.1265
3010.34	69.5154
4003.4	78.2654
