Adsorption isotherm of Hydrogen on IRMOF-1
DOI: 10.1016/j.micromeso.2010.07.007
Adsorbate Hydrogen: InChIKey UFHFLCQGNIYNRP-UHFFFAOYSA-N
Temperature: 298 K
Tabular data in the source: 0
pressure (bar)	uptake (wt%)
100.619	2.09752
308.953	4.48641
510.341	6.34752
697.841	7.73641
989.508	9.40308
2003.4	13.2086
3010.34	15.6531
4003.4	17.5697
