Adsorption isotherm of Hydrogen on UMCM-1
DOI: 10.1016/j.micromeso.2010.07.007
Adsorbate Hydrogen: InChIKey UFHFLCQGNIYNRP-UHFFFAOYSA-N
Temperature: 298 K
Tabular data in the source: 0
pressure (bar)	uptake (wt%)
408.823	0.0626768
641.876	0.166094
4254.2	0.454498
6235.15	0.543349
10197.1	0.652593
16256.4	0.76038
18470.4	0.786598
