Adsorption isotherm of Hydrogen on IRMOF-1
DOI: 10.1016/j.micromeso.2010.07.007
Adsorbate Hydrogen: InChIKey UFHFLCQGNIYNRP-UHFFFAOYSA-N
Temperature: 298 K
Tabular data in the source: 0
pressure (bar)	uptake (wt%)
25.4129	7.08434
57.8203	20.2325
113.376	30.5103
312.45	42.3621
516.154	48.6584
710.598	53.3806
1016.15	58.8436
3006.89	76.8066
3997.64	83.1029
