Adsorption isotherm of Lead(II) Ion, Water on montmorillonite-chitosan composite
DOI: 10.1016/j.clay.2017.04.005
Article source: Figure 4
Adsorbate Lead(II) Ion: InChIKey RVPVRDXYQKGNMQ-UHFFFAOYSA-N
Adsorbate Water: InChIKey XLYOFNOQVPJJNP-UHFFFAOYSA-N
Kind: experiment
Temperature: 298 K
Tabular data in the source: 0
pressure (bar)	Lead(II) Ion fraction	Lead(II) Ion uptake (mg/g)	Water fraction	Water uptake (mg/g)	total uptake (mg/g)
1.01325	1.28	3.743			
1.01325	2.056	6.538			
1.01325	3.627	8.412			
1.01325	4.758	10.172			
1.01325	5.973	11.536			
1.01325	14.515	18.838			
1.01325	34.53	33.327			
1.01325	53.318	42.59			
1.01325	70.678	49.303			
