Adsorption isotherm of Copper(II) Ion, Water on montmorillonite (Mt)
DOI: 10.1016/j.clay.2017.04.005
Article source: Figure 4
Adsorbate Copper(II) Ion: InChIKey JPVYNHNXODAKFH-UHFFFAOYSA-N
Adsorbate Water: InChIKey XLYOFNOQVPJJNP-UHFFFAOYSA-N
Kind: experiment
Temperature: 298 K
Tabular data in the source: 0
pressure (bar)	Copper(II) Ion fraction	Copper(II) Ion uptake (mg/g)	Water fraction	Water uptake (mg/g)	total uptake (mg/g)
1.01325	0.264	0.207			
1.01325	0.925	3.552			
1.01325	1.903	6.576			
1.01325	3.158	9.227			
1.01325	4.069	11.174			
1.01325	5.072	13.193			
1.01325	14.369	19.11			
1.01325	37.643	23.55			
1.01325	58.794	25.156			
1.01325	78.104	25.383			
