Adsorption isotherm of Copper(II) Ion, Water on montmorillonite-chitosan composite
DOI: 10.1016/j.clay.2017.04.005
Article source: Figure 4
Adsorbate Copper(II) Ion: InChIKey JPVYNHNXODAKFH-UHFFFAOYSA-N
Adsorbate Water: InChIKey XLYOFNOQVPJJNP-UHFFFAOYSA-N
Kind: experiment
Temperature: 298 K
Tabular data in the source: 0
pressure (bar)	Copper(II) Ion fraction	Copper(II) Ion uptake (mg/g)	Water fraction	Water uptake (mg/g)	total uptake (mg/g)
1.01325	0.958	3.117			
1.01325	2.471	4.879			
1.01325	4.033	6.549			
1.01325	5.379	7.711			
1.01325	6.891	8.599			
1.01325	16.295	13.443			
1.01325	38.623	20.602			
1.01325	58.69	25.318			
1.01325	77.189	28.548			
