Adsorption isotherm of Cadmium(II) Ion, Water on montmorillonite-chitosan composite
DOI: 10.1016/j.clay.2017.04.005
Article source: Figure 4
Adsorbate Cadmium(II) Ion: InChIKey WLZRMCYVCSSEQC-UHFFFAOYSA-N
Adsorbate Water: InChIKey XLYOFNOQVPJJNP-UHFFFAOYSA-N
Kind: experiment
Temperature: 298 K
Tabular data in the source: 0
pressure (bar)	Cadmium(II) Ion fraction	Cadmium(II) Ion uptake (mg/g)	Water fraction	Water uptake (mg/g)	total uptake (mg/g)
1.01325	1.132	2.379			
1.01325	2.577	3.958			
1.01325	4.336	5.734			
1.01325	5.802	6.622			
1.01325	7.037	7.329			
1.01325	16.874	10.933			
1.01325	40.201	15.425			
1.01325	60.792	18.21			
1.01325	79.353	20.6			
