Adsorption isotherm of Nitrogen on [Zn3(OH)2(btca)2]
DOI: 10.1002/chem.201203515
Adsorbate Nitrogen: InChIKey IJGRMHOSHXDMSA-UHFFFAOYSA-N
Temperature: 77 K
Tabular data in the source: 0
pressure (bar)	uptake (cm3(STP)/g)
0.00208205	0.784286
0.00208205	94.0599
0.00892902	156.919
0.0203406	161.786
0.0682694	163.814
0.125327	165.841
0.200644	168.68
0.310196	171.925
0.456264	174.763
0.586357	178.413
0.739272	182.063
0.871647	183.686
0.95381	185.713
0.990328	187.335
