Adsorption isotherm of Carbon Dioxide on [Zn3(OH)2(btca)2]
DOI: 10.1002/chem.201203515
Adsorbate Carbon Dioxide: InChIKey CURLTUGMZLYLDI-UHFFFAOYSA-N
Temperature: 195 K
Tabular data in the source: 0
pressure (bar)	uptake (cm3(STP)/g)
0.00208205	0.784286
0.0066467	49.0443
0.0134937	63.2384
0.0522931	116.365
0.125327	122.854
0.266831	128.531
0.369536	130.965
0.431159	136.642
0.522452	138.67
0.622874	141.103
0.723296	144.753
0.826	147.186
0.899035	149.214
0.978916	152.458
