Adsorption isotherm of Oxygen on Desolvated PCM-14a
DOI: 10.1039/C2dt12011a
Adsorbate Oxygen: InChIKey MYMOFIZGZYHOMD-UHFFFAOYSA-N
Temperature: 77 K
Tabular data in the source: 0
pressure (bar)	uptake (wt%)
0.00567137	0.0670927
0.0103975	0.0766773
0.0160689	0.0670927
0.0363913	0.0766773
0.0406448	0.0766773
0.0510423	0.086262
0.0562411	0.0958466
0.0661659	0.105431
0.0718373	0.0958466
0.0765635	0.115016
0.0973585	0.115016
0.106811	0.124601
0.112009	0.124601
0.117208	0.124601
0.128078	0.134185
0.138476	0.162939
0.142729	0.182109
0.153127	0.182109
0.157853	0.210863
0.163524	0.230032
0.168251	0.239617
0.173922	0.277955
0.178175	0.325879
