Adsorption isotherm of Hydrogen on Desolvated PCM-14a
DOI: 10.1039/C2dt12011a
Adsorbate Hydrogen: InChIKey UFHFLCQGNIYNRP-UHFFFAOYSA-N
Temperature: 77 K
Tabular data in the source: 0
pressure (bar)	uptake (wt%)
3.59712	0.0191693
6.23501	0
11.7506	0.0191693
14.3885	0.0191693
19.4245	0
21.8225	0
24.7002	0.00958466
29.4964	0.0191693
32.6139	0.0191693
42.6859	0.028754
48.2014	0.0191693
53.4772	0.0383387
58.5132	0.028754
61.1511	0.0383387
66.4269	0.0479233
71.223	0.057508
76.9784	0.057508
87.2902	0.0670927
92.3261	0.0766773
97.1223	0.0766773
