Adsorption isotherm of Carbon Dioxide on Desolvated PCM-14a
DOI: 10.1039/C2dt12011a
Adsorbate Carbon Dioxide: InChIKey CURLTUGMZLYLDI-UHFFFAOYSA-N
Temperature: 196 K
Tabular data in the source: 0
pressure (bar)	uptake (wt%)
0.013693	0.172524
0.0766811	0.306709
0.134192	0.440895
0.19718	0.565495
0.254691	0.690096
0.312201	0.824281
0.372451	0.958466
0.429962	1.08307
0.490211	1.23642
0.55046	1.36102
0.61071	1.49521
0.668221	1.63898
0.72847	1.78275
0.788719	1.9361
0.84623	2.08946
0.909218	2.2524
0.969468	2.41534
1.02698	2.58786
1.08723	2.74121
1.12009	2.84665
