Adsorption isotherm of Nitrogen on Desolvated PCM-14a
DOI: 10.1039/C2dt12011a
Adsorbate Nitrogen: InChIKey IJGRMHOSHXDMSA-UHFFFAOYSA-N
Temperature: 77 K
Tabular data in the source: 0
pressure (bar)	uptake (wt%)
0.0139787	0.0383387
0.0372765	0.0383387
0.0745531	0.057508
0.118819	0.0479233
0.165414	0.057508
0.188712	0.0479233
0.242297	0.0479233
0.291223	0.057508
0.314521	0.0670927
0.363446	0.0766773
0.419361	0.0958466
0.438	0.105431
0.465957	0.105431
0.517212	0.115016
0.568468	0.14377
0.617392	0.162939
0.64302	0.172524
0.670977	0.182109
0.691946	0.201278
0.708254	0.172524
0.722233	0.191693
0.743201	0.230032
0.768829	0.239617
0.799116	0.268371
0.820084	0.306709
0.843381	0.325879
0.876001	0.364217
0.896963	0.421725
0.922595	0.507987
