Adsorption isotherm of Ethane, Ethene on RT-Cu(Qc)2
DOI: 10.1016/j.ces.2019.115355
Article source: Table 1
Adsorbate Ethane: InChIKey OTMSDBZUPAUEDD-UHFFFAOYSA-N
Adsorbate Ethene: InChIKey VGGSQFUCUMXWEO-UHFFFAOYSA-N
Kind: experiment
Temperature: 288 K
Tabular data in the source: 0
pressure (bar)	Ethane fraction	Ethane uptake (mmol/g)	Ethene fraction	Ethene uptake (mmol/g)	total uptake (mmol/g)
1	0.063	0.18	0.938	0.76	
1	0.5	1.16	0.5	0.48	
