Adsorption isotherm of Ethene on RT-Cu(Qc)2
DOI: 10.1016/j.ces.2019.115355
Article source: Figure S6a
Adsorbate Ethene: InChIKey VGGSQFUCUMXWEO-UHFFFAOYSA-N
Kind: experiment
Temperature: 288 K
Tabular data in the source: 0
pressure (bar)	uptake (mmol/g)
0.0143	0.112
0.0587	0.147
0.109	0.183
0.159	0.22
0.21	0.256
0.26	0.293
0.309	0.33
0.36	0.369
0.41	0.407
0.509	0.488
0.56	0.533
0.61	0.579
0.66	0.627
0.711	0.676
0.76	0.726
0.81	0.778
0.861	0.829
0.91	0.884
0.951	0.926
0.991	0.973
