Adsorption isotherm of Methane on RT-Cu(Qc)2
DOI: 10.1016/j.ces.2019.115355
Article source: Figure S6a
Adsorbate Methane: InChIKey VNWKTOKETHGBQD-UHFFFAOYSA-N
Kind: experiment
Temperature: 288 K
Tabular data in the source: 0
pressure (bar)	uptake (mmol/g)
0.00784	0.102
0.037	0.1
0.0633	0.105
0.108	0.108
0.143	0.113
0.215	0.121
0.288	0.13
0.323	0.134
0.394	0.14
0.501	0.151
0.572	0.155
0.644	0.165
0.714	0.171
0.821	0.182
0.893	0.187
0.959	0.195
0.993	0.196
