Adsorption isotherm of Ethane on RT-Cu(Qc)2
DOI: 10.1016/j.ces.2019.115355
Article source: Figure S6a
Adsorbate Ethane: InChIKey OTMSDBZUPAUEDD-UHFFFAOYSA-N
Kind: experiment
Temperature: 288 K
Tabular data in the source: 0
pressure (bar)	uptake (mmol/g)
0.06	0.241
0.105	0.358
0.159	0.535
0.208	0.742
0.258	0.995
0.309	1.26
0.36	1.47
0.409	1.63
0.46	1.74
0.509	1.83
0.56	1.9
0.609	1.96
0.659	2
0.71	2.04
0.76	2.07
0.81	2.1
0.86	2.13
0.91	2.15
0.961	2.17
0.991	2.18
