Adsorption isotherm of Co(II), Water on M4195
DOI: 10.1166/sam.2017.3214
Article source: Figure 10
Adsorbate Co(II): InChIKey XLJKHNWPARRRJB-UHFFFAOYSA-N
Adsorbate Water: InChIKey XLYOFNOQVPJJNP-UHFFFAOYSA-N
Kind: experiment
Temperature: 298 K
Tabular data in the source: 0
pressure (bar)	Co(II) fraction	Co(II) uptake (mmol/g)	Water fraction	Water uptake (mmol/g)	total uptake (mmol/g)
1.01325	18.579	8.02514			
1.01325	23.68	8.43155			
1.01325	67.675	10.0158			
1.01325	91.702	10.3179			
