Adsorption isotherm of Co(II), Water on IRC748
DOI: 10.1166/sam.2017.3214
Article source: Figure 10
Adsorbate Co(II): InChIKey XLJKHNWPARRRJB-UHFFFAOYSA-N
Adsorbate Water: InChIKey XLYOFNOQVPJJNP-UHFFFAOYSA-N
Kind: experiment
Temperature: 298 K
Tabular data in the source: 0
pressure (bar)	Co(II) fraction	Co(II) uptake (mmol/g)	Water fraction	Water uptake (mmol/g)	total uptake (mmol/g)
1.01325	7.604	10.852			
1.01325	19.784	16.3207			
1.01325	43.613	20.6335			
1.01325	65.4	23.0826			
