Adsorption isotherm of Ni(II), Water on M4195
DOI: 10.1166/sam.2017.3214
Article source: Figure 10
Adsorbate Ni(II): InChIKey VEQPNABPJHWNSG-UHFFFAOYSA-N
Adsorbate Water: InChIKey XLYOFNOQVPJJNP-UHFFFAOYSA-N
Kind: experiment
Temperature: 298 K
Tabular data in the source: 0
pressure (bar)	Ni(II) fraction	Ni(II) uptake (mmol/g)	Water fraction	Water uptake (mmol/g)	total uptake (mmol/g)
1.01325	13.912	9.96348			
1.01325	45.574	15.1193			
1.01325	68.784	14.113			
1.01325	91.787	14.5405			
