Adsorption isotherm of Ni(II), Water on IRC748
DOI: 10.1166/sam.2017.3214
Article source: Figure 10
Adsorbate Ni(II): InChIKey VEQPNABPJHWNSG-UHFFFAOYSA-N
Adsorbate Water: InChIKey XLYOFNOQVPJJNP-UHFFFAOYSA-N
Kind: experiment
Temperature: 298 K
Tabular data in the source: 0
pressure (bar)	Ni(II) fraction	Ni(II) uptake (mmol/g)	Water fraction	Water uptake (mmol/g)	total uptake (mmol/g)
1.01325	7.544	19.1036			
1.01325	21.865	31.2045			
1.01325	40.783	35.4204			
1.01325	83.409	39.0711			
