Adsorption isotherm of Nitrogen on CTF 2 AA (condensed for 40 hours at 400 c with 1 equivalent ZnCl)
DOI: 10.1002/adma.200903436
Article source: Figure 3 (a)
Adsorbate Nitrogen: InChIKey IJGRMHOSHXDMSA-UHFFFAOYSA-N
Kind: experiment
Temperature: 77 K
Tabular data in the source: 0
pressure (bar)	uptake (cm3(STP)/g)
0.048899	36.5854
0.100514	37.8537
0.150761	38.8293
0.201019	39.6098
0.249918	40.1951
0.301533	40.5854
0.354506	40.9756
0.406111	41.2683
0.45501	41.6585
0.505267	41.8537
0.55824	41.9512
0.609855	41.8537
0.66147	41.9512
0.711717	42.0488
0.756543	41.561
0.809516	41.3658
0.861131	41.3658
0.914093	41.1707
0.962993	41.3658
0.005431	0.39024
0.005431	0.78049
0.005431	1.36585
0.008147	1.95122
0.009504	2.43902
0.013578	2.92683
0.016303	3.5122
0.019019	3.90244
0.021734	4.4878
0.023092	5.07317
0.02445	5.46341
0.027165	6.04878
0.027165	6.43902
0.029881	6.82927
0.032596	7.41463
0.033954	7.80488
0.038027	8.39024
0.040743	8.78049
0.043468	9.36585
0.043468	9.95122
0.048899	10.3415
0.048899	10.7317
0.057046	11.5122
0.110019	13.4634
0.158918	16.878
0.210523	20.7805
0.258065	24.7805
0.30968	26.3415
0.36401	26.8293
0.415625	28
0.464524	30.1463
0.516129	30.8293
0.562313	31.7073
0.616644	32.9756
0.669616	33.6585
0.71579	34.0488
0.766047	35.1219
0.810874	37.3658
0.863846	38.2439
0.916819	39.1219
0.968424	40
1.00782	42.9268
