Adsorption isotherm of Nitrogen on CTF 2 AA (condensed for 40 hours at 450 c with 5 equivalent ZnCl)
DOI: 10.1002/adma.200903436
Article source: Figure 3 (c)
Adsorbate Nitrogen: InChIKey IJGRMHOSHXDMSA-UHFFFAOYSA-N
Kind: experiment
Temperature: 77 K
Tabular data in the source: 0
pressure (bar)	uptake (cm3(STP)/g)
0.098052	86.3813
0.15526	97.2763
0.197472	103.502
0.251955	112.062
0.307785	121.401
0.352733	127.237
0.405847	136.187
0.457594	147.86
0.510708	165.759
0.558382	167.315
0.608771	170.039
0.660517	170.428
0.708181	172.763
0.765389	173.152
0.811694	174.319
0.866167	175.875
0.91383	176.654
0	33.463
0	38.1323
0.002726	46.6926
0.005451	50.5837
0.005451	53.6965
0.008167	56.8093
0.010892	60.7004
0.016344	62.2568
0.024511	65.3697
0.027236	68.4825
0.035413	70.428
0.040854	72.3735
0.049031	73.93
0.054472	76.2646
0.100778	86.3813
0.149809	95.7198
0.19884	104.28
0.247861	111.284
0.300976	119.066
0.35409	127.237
0.405847	135.409
0.454868	143.969
0.506625	151.751
0.558382	157.977
0.607403	163.813
0.660517	168.482
0.708181	171.984
0.761295	173.541
0.815778	174.708
0.863441	175.097
0.915198	175.875
0.966944	176.654
1.00508	177.821
