Adsorption isotherm of Methane on MnC12H6O4
DOI: 10.1021/Ic0611948
Adsorbate Methane: InChIKey VNWKTOKETHGBQD-UHFFFAOYSA-N
Temperature: 273 K
Tabular data in the source: 0
pressure (bar)	uptake (cm3(STP)/g)
0.0244914	1.21387
0.0342624	2.42775
0.0661281	3.23699
0.088166	4.45087
0.117593	4.85549
0.144544	5.86705
0.16169	6.6763
0.188663	7.08092
0.215629	7.68786
0.242588	8.49711
0.267115	8.69942
0.289167	9.50867
0.318593	9.91329
0.345566	10.3179
0.362726	10.7225
0.416679	11.3295
0.446092	12.1387
0.475518	12.5434
0.517211	12.948
0.549091	13.3526
0.573611	13.7572
0.625111	14.3642
0.644745	14.1618
0.671704	14.9711
0.723225	14.9711
0.755091	15.7803
0.794345	15.7803
0.823786	15.7803
0.845845	16.3873
0.870379	16.3873
0.889999	16.5896
0.926786	16.9942
0.953766	17.1965
0.963579	17.1965
0.98566	17.1965
1.01509	17.6012
