Adsorption isotherm of Nitrogen on MnC12H6O4
DOI: 10.1021/Ic0611948
Adsorbate Nitrogen: InChIKey IJGRMHOSHXDMSA-UHFFFAOYSA-N
Temperature: 77 K
Tabular data in the source: 0
pressure (bar)	uptake (cm3(STP)/g)
0.00252052	0.00252052
0.00504104	39.6694
0.0100821	41.3223
0.0176437	41.9835
0.0327668	42.9752
0.052931	43.9669
0.0806567	44.9587
0.100821	46.281
0.110903	45.9504
0.153752	47.2727
0.204162	48.595
0.254573	49.5868
0.302463	50.9091
0.352873	52.2314
0.408325	53.2231
0.463776	54.876
0.516707	55.5372
0.567118	56.8595
0.617528	58.1818
0.670459	59.1736
0.715828	60.8264
0.77128	62.1488
0.81917	64.1322
0.86958	65.7851
0.91747	68.7603
0.960319	74.0496
1.00821	115.041
