Adsorption isotherm of Carbon Dioxide on MnC12H6O4
DOI: 10.1021/Ic0611948
Adsorbate Carbon Dioxide: InChIKey CURLTUGMZLYLDI-UHFFFAOYSA-N
Temperature: 273 K
Tabular data in the source: 0
pressure (bar)	uptake (cm3(STP)/g)
0.00485714	1.41618
0.0145927	3.64162
0.0219103	4.85549
0.0316388	7.28324
0.0413956	8.90173
0.0584772	11.5318
0.0731479	12.948
0.0829189	14.1618
0.0902507	14.9711
0.107382	16.185
0.131859	17.8035
0.15635	19.0173
0.188195	20.4335
0.210254	21.0405
0.237192	22.4566
0.291124	23.6705
0.313183	24.2775
0.342602	24.8844
0.369576	25.289
0.391635	25.896
0.413694	26.5029
0.470094	27.3121
0.499527	27.5145
0.541214	28.1214
0.56818	28.7283
0.595153	29.1329
0.617226	29.3353
0.64666	29.5376
0.680979	30.3468
0.71778	30.3468
0.74722	30.3468
0.771733	30.9538
0.801167	31.1561
0.818326	31.5607
0.840399	31.763
0.86248	31.763
0.891914	31.9653
0.926261	31.9653
0.950781	32.3699
0.970394	32.7746
0.990021	32.7746
1.01453	33.3815
