Adsorption isotherm of Methane on MnC12H6O4
DOI: 10.1021/Ic0611948
Adsorbate Methane: InChIKey VNWKTOKETHGBQD-UHFFFAOYSA-N
Temperature: 195 K
Tabular data in the source: 0
pressure (bar)	uptake (cm3(STP)/g)
0.00469406	6.06936
0.007034	9.30636
0.00709781	7.48555
0.0118628	11.5318
0.0142665	12.948
0.0215274	15.7803
0.0312559	18.2081
0.0409986	20.2312
0.0580943	22.4566
0.0825856	23.6705
0.109516	25.289
0.160974	27.1098
0.212452	28.3237
0.263931	29.5376
0.317877	30.3468
0.366917	31.1561
0.418409	31.9653
0.46501	32.3699
0.51897	32.7746
0.568009	33.5838
0.614603	34.1908
0.671009	34.7977
0.720063	35.2023
0.774023	35.6069
0.823077	36.0116
0.87213	36.4162
0.926091	36.8208
0.970238	37.2254
1.00948	37.4277
