Adsorption isotherm of Hydrogen on MnC12H6O4
DOI: 10.1021/Ic0611948
Adsorbate Hydrogen: InChIKey UFHFLCQGNIYNRP-UHFFFAOYSA-N
Temperature: 77 K
Tabular data in the source: 0
pressure (bar)	uptake (cm3(STP)/g)
0.00252052	0.00252052
0.00504104	5.28926
0.00756157	6.61157
0.0100821	15.8678
0.0201642	22.4793
0.0277257	26.4463
0.0403284	30.0826
0.052931	33.3884
0.0705746	36.6942
0.0856978	39.3388
0.108382	41.9835
0.153752	44.2975
0.206683	46.6116
0.259614	48.9256
0.312545	50.5785
0.362955	52.2314
0.410845	52.562
0.463776	53.5537
0.516707	54.5455
0.569638	55.5372
0.617528	56.5289
0.670459	56.5289
0.713308	59.5041
0.768759	60.4959
0.81917	61.4876
0.86958	62.1488
0.922511	62.8099
0.970401	63.4711
1.01073	63.4711
