Adsorption isotherm of Carbon Dioxide on MnC12H6O4
DOI: 10.1021/Ic0611948
Adsorbate Carbon Dioxide: InChIKey CURLTUGMZLYLDI-UHFFFAOYSA-N
Temperature: 195 K
Tabular data in the source: 0
pressure (bar)	uptake (cm3(STP)/g)
0.00394244	27.5145
0.00410553	22.8613
0.00631783	29.7399
0.00867904	32.3699
0.0110473	34.7977
0.0232292	37.2254
0.0330002	38.4393
0.0427571	40.0578
0.0598882	41.2717
0.0794799	42.2832
0.10641	43.9017
0.130909	44.9133
0.160314	45.9249
0.184813	46.9364
0.209311	47.948
0.238723	48.7572
0.285274	50.578
0.334278	52.3988
0.36123	53.4104
0.388189	54.2197
0.437186	56.2428
0.464159	56.6474
0.488657	57.659
0.518069	58.4682
0.540136	58.8728
0.594068	60.0867
0.6431	61.0983
0.694579	62.3121
0.719098	62.7168
0.746072	63.1214
0.770591	63.526
0.797572	63.7283
0.824538	64.3353
0.849057	64.7399
0.871131	64.9422
0.890737	65.5491
0.915256	65.9538
0.949582	66.5607
0.988837	66.5607
1.00844	67.1676
