Adsorption isotherm of Hydrogen on IRMOF-1-2Li
DOI: 10.1002/cphc.201300225
Adsorbate Hydrogen: InChIKey UFHFLCQGNIYNRP-UHFFFAOYSA-N
Temperature: 298 K
Tabular data in the source: 0
pressure (bar)	uptake (wt%)
0.99848	0.216197
5.26329	0.628473
10.0335	1.0013
20.0869	1.53047
29.8941	1.92199
39.9566	2.23476
50.0206	2.50819
59.8345	2.74233
69.9019	2.93707
79.9693	3.13181
89.7864	3.28726
99.8555	3.44265
