Adsorption isotherm of Hydrogen on IRMOF-1-2Li
DOI: 10.1002/cphc.201300225
Adsorbate Hydrogen: InChIKey UFHFLCQGNIYNRP-UHFFFAOYSA-N
Temperature: 298 K
Tabular data in the source: 0
pressure (bar)	uptake (wt%)
0.757576	0.177632
5.05051	0.572368
10.101	0.927632
19.9495	1.38158
29.798	1.71711
39.899	1.99342
50	2.19079
60.101	2.40789
69.9495	2.54605
80.0505	2.68421
90.1515	2.80263
100	2.88158
