Adsorption isotherm of Hydrogen on IRMOF-1
DOI: 10.1002/cphc.201300225
Adsorbate Hydrogen: InChIKey UFHFLCQGNIYNRP-UHFFFAOYSA-N
Temperature: 298 K
Tabular data in the source: 0
pressure (bar)	uptake (wt%)
2.45134	0.0561654
6.81239	0.133323
9.53792	0.182427
11.9921	0.217465
14.7196	0.252485
17.1729	0.294565
19.6261	0.336646
22.3526	0.378708
24.8049	0.427831
27.2582	0.469911
29.9866	0.497888
32.7122	0.546992
35.4377	0.596096
38.1661	0.624073
40.6194	0.666154
43.3449	0.715257
46.0714	0.757319
48.7989	0.792338
51.5263	0.827357
54.527	0.862357
57.2535	0.904419
59.979	0.953523
62.9797	0.988523
65.7091	1.00946
68.4337	1.0656
71.4334	1.10765
74.437	1.12152
77.4338	1.18469
80.1612	1.21971
83.1638	1.24062
85.8865	1.31085
89.1614	1.33879
92.1659	1.34562
94.8885	1.41585
97.8892	1.45085
101.163	1.48583
