Adsorption isotherm of Hydrogen on MOF-177-15Li
DOI: 10.1002/cphc.201300225
Adsorbate Hydrogen: InChIKey UFHFLCQGNIYNRP-UHFFFAOYSA-N
Temperature: 298 K
Tabular data in the source: 0
pressure (bar)	uptake (wt%)
0.74813	2.17476
4.73815	3.96117
9.97506	4.85437
19.9501	5.78641
30.1746	6.29126
39.9002	6.67961
49.8753	6.95146
59.8504	7.14563
70.0748	7.37864
80.0499	7.53398
89.7756	7.68932
100	7.84466
