Adsorption isotherm of Hydrogen on IRMOF-1-1Li
DOI: 10.1002/cphc.201300225
Adsorbate Hydrogen: InChIKey UFHFLCQGNIYNRP-UHFFFAOYSA-N
Temperature: 298 K
Tabular data in the source: 0
pressure (bar)	uptake (wt%)
1.0101	0.0592105
4.79798	0.236842
9.84848	0.394737
19.9495	0.690789
29.798	0.927632
40.1515	1.10526
50	1.26316
60.101	1.38158
69.9495	1.51974
80.0505	1.59868
90.1515	1.67763
100	1.75658
