Adsorption isotherm of Hydrogen on IRMOF-1
DOI: 10.1002/cphc.201300225
Adsorbate Hydrogen: InChIKey UFHFLCQGNIYNRP-UHFFFAOYSA-N
Temperature: 298 K
Tabular data in the source: 0
pressure (bar)	uptake (wt%)
1.63455	0.0350962
5.18361	0.055973
10.0978	0.0837959
19.9225	0.167611
30.0222	0.237322
40.123	0.299991
50.2246	0.355618
60.0521	0.418306
69.8825	0.459867
79.9852	0.508452
90.0888	0.549994
100.191	0.598578
