Adsorption isotherm of Hydrogen on IRMOF-1
DOI: 10.1002/cphc.201300225
Adsorbate Hydrogen: InChIKey UFHFLCQGNIYNRP-UHFFFAOYSA-N
Temperature: 298 K
Tabular data in the source: 0
pressure (bar)	uptake (wt%)
0.816776	0.0212014
4.90645	0.0848057
9.81386	0.162544
20.1761	0.310954
30.2651	0.459364
39.8106	0.586572
49.9015	0.720848
59.7212	0.840989
69.8141	0.961131
80.1811	1.0742
89.7285	1.18728
99.8233	1.29329
