Adsorption isotherm of Hydrogen on IRMOF-1-4Li
DOI: 10.1002/cphc.201300225
Adsorbate Hydrogen: InChIKey UFHFLCQGNIYNRP-UHFFFAOYSA-N
Temperature: 298 K
Tabular data in the source: 0
pressure (bar)	uptake (wt%)
1.21816	0.983367
4.9445	2.22198
9.95259	2.92919
19.745	3.6748
30.0543	4.10556
39.6105	4.47745
49.6754	4.73121
59.7428	4.92595
69.8094	5.14037
79.6274	5.27614
89.6972	5.41186
99.7663	5.56726
