Adsorption isotherm of Hydrogen on IRMOF-1
DOI: 10.1002/cphc.201300225
Adsorbate Hydrogen: InChIKey UFHFLCQGNIYNRP-UHFFFAOYSA-N
Temperature: 298 K
Tabular data in the source: 0
pressure (bar)	uptake (wt%)
2.45615	0.0209538
4.91423	0.0278229
6.82489	0.0417729
9.55524	0.0556651
12.0114	0.0766189
14.7408	0.0975535
17.1979	0.111465
19.654	0.132419
22.3834	0.153353
24.8396	0.174307
27.5699	0.188199
30.027	0.202111
32.7545	0.23713
35.4848	0.251022
38.2152	0.264914
40.9465	0.271764
43.6749	0.299741
46.1311	0.320695
49.1346	0.334568
51.5917	0.348479
54.5963	0.35531
57.3256	0.376245
60.3273	0.404202
63.0596	0.40401
65.7909	0.41086
68.5193	0.438837
71.2506	0.445687
74.5293	0.445456
77.53	0.480456
80.2623	0.480263
83.2678	0.480052
86.2675	0.522094
89.273	0.521882
92.2794	0.514628
95.2791	0.55667
98.2837	0.563501
101.288	0.570332
