Adsorption isotherm of Hydrogen on MOF-200-27Li
DOI: 10.1002/cphc.201300225
Adsorbate Hydrogen: InChIKey UFHFLCQGNIYNRP-UHFFFAOYSA-N
Temperature: 298 K
Tabular data in the source: 0
pressure (bar)	uptake (wt%)
0.932836	3
5.11969	5.02597
10.0762	5.92208
20.0063	6.8961
29.9444	7.48052
39.8882	7.79221
49.8336	8.02597
59.7782	8.2987
69.9748	8.41558
79.9226	8.53247
89.6225	8.61039
99.5695	8.76623
