Adsorption isotherm of Hydrogen on IRMOF-1-4Li
DOI: 10.1002/cphc.201300225
Adsorbate Hydrogen: InChIKey UFHFLCQGNIYNRP-UHFFFAOYSA-N
Temperature: 298 K
Tabular data in the source: 0
pressure (bar)	uptake (wt%)
1.0101	0.967105
4.79798	2.17105
9.84848	2.86184
19.697	3.57237
30.0505	3.96711
39.899	4.28289
49.7475	4.5
59.8485	4.65789
69.9495	4.81579
80.0505	4.93421
89.899	4.99342
100	5.11184
