Adsorption isotherm of Hydrogen on IRMOF-1-1Li
DOI: 10.1002/cphc.201300225
Adsorbate Hydrogen: InChIKey UFHFLCQGNIYNRP-UHFFFAOYSA-N
Temperature: 298 K
Tabular data in the source: 0
pressure (bar)	uptake (wt%)
1.76076	0.05867
5.27733	0.294044
10.0534	0.52917
20.3677	0.841895
29.9263	1.15477
39.9929	1.36918
50.0595	1.58359
59.875	1.77839
69.9424	1.97313
80.0114	2.12852
90.0821	2.24457
99.8992	2.40002
