Adsorption isotherm of Hydrogen on MOF-200-27Li
DOI: 10.1002/cphc.201300225
Adsorbate Hydrogen: InChIKey UFHFLCQGNIYNRP-UHFFFAOYSA-N
Temperature: 298 K
Tabular data in the source: 0
pressure (bar)	uptake (wt%)
1.24688	3.02913
4.98753	5.12621
9.97506	6.17476
19.7007	7.2233
29.9252	7.96117
40.1496	8.46602
50.1247	8.85437
59.8504	9.24272
70.0748	9.5534
79.8005	9.82524
90.0249	10.0194
100	10.3301
