Adsorption isotherm of Hydrogen on IRMOF-8-6Li
DOI: 10.1002/cphc.201300225
Adsorbate Hydrogen: InChIKey UFHFLCQGNIYNRP-UHFFFAOYSA-N
Temperature: 298 K
Tabular data in the source: 0
pressure (bar)	uptake (wt%)
0.997506	1.39806
4.73815	2.79612
10.2244	3.57282
19.9501	4.34951
30.1746	4.85437
39.9002	5.20388
49.8753	5.5534
59.8504	5.82524
70.0748	5.98058
80.0499	6.21359
90.0249	6.36893
100	6.52427
