Adsorption isotherm of Hydrogen on MOF-177-15Li
DOI: 10.1002/cphc.201300225
Adsorbate Hydrogen: InChIKey UFHFLCQGNIYNRP-UHFFFAOYSA-N
Temperature: 298 K
Tabular data in the source: 0
pressure (bar)	uptake (wt%)
1.20098	2.06494
4.89355	3.93506
10.1005	4.75325
20.033	5.61039
29.9727	6.11688
39.6677	6.42857
50.1106	6.66234
60.0569	6.85714
70.0055	6.93506
79.9525	7.09091
89.6524	7.16883
99.849	7.28571
