Adsorption isotherm of Hydrogen on IRMOF-8-6Li
DOI: 10.1002/cphc.201300225
Adsorbate Hydrogen: InChIKey UFHFLCQGNIYNRP-UHFFFAOYSA-N
Temperature: 298 K
Tabular data in the source: 0
pressure (bar)	uptake (wt%)
0.965949	1.4026
5.16654	2.76623
10.1271	3.46753
19.8133	4.20779
30.0026	4.67532
39.9472	4.94805
49.8918	5.22078
59.838	5.41558
70.0346	5.53247
79.7328	5.68831
89.6815	5.76623
99.6301	5.84416
