Adsorption isotherm of Nitrogen on Co/NPC-600
DOI: 10.1002/smll.201302910
Adsorbate Nitrogen: InChIKey IJGRMHOSHXDMSA-UHFFFAOYSA-N
Temperature: 77 K
Tabular data in the source: 0
pressure (bar)	uptake (cm3(STP)/g)
0.00410791	0.00422833
0.00616186	34.4682
0.00821581	75.8426
0.0267014	88.4426
0.0492949	92.9868
0.0718884	97.531
0.110914	102.036
0.137615	105.421
0.164316	106.508
0.188964	108.748
0.213611	112.138
0.234151	115.538
0.256745	116.634
0.287553	118.86
0.308093	121.11
0.332741	123.351
0.357388	126.741
0.384089	130.126
0.408737	132.366
0.429276	134.616
0.453923	141.455
0.464193	147.177
0.482679	149.433
0.501164	152.837
0.517597	155.097
0.540189	156.193
0.558675	158.448
0.577161	160.703
0.5977	161.804
0.616186	164.059
0.634672	166.314
0.653157	168.569
0.669589	169.68
0.698344	173.06
0.725045	174.146
0.747639	177.541
0.776394	179.772
0.801042	184.311
0.833905	188.831
0.860606	192.216
0.889361	199.045
0.928387	205.849
0.967412	229.895
