Adsorption isotherm of Nitrogen on Co/NPC-600
DOI: 10.1002/smll.201302910
Adsorbate Nitrogen: InChIKey IJGRMHOSHXDMSA-UHFFFAOYSA-N
Temperature: 77 K
Tabular data in the source: 0
pressure (bar)	uptake (cm3(STP)/g)
0.00410791	0.00422833
0.00616186	34.4682
0.00821581	75.8426
0.0267014	88.4426
0.0492949	92.9868
0.0718884	97.531
0.110914	102.036
0.137615	105.421
0.164316	106.508
0.188964	108.748
0.213611	112.138
0.234151	115.538
0.256745	116.634
0.287553	118.86
0.308093	121.11
0.330687	123.355
0.355334	124.447
0.386143	127.822
0.406683	127.773
0.421061	131.188
0.439546	132.293
0.462139	135.688
0.482679	135.639
0.501164	137.895
0.517597	137.856
0.538136	141.255
0.556622	143.51
0.577161	144.611
0.5977	146.862
0.622348	147.953
0.642888	153.651
0.667535	153.593
0.690128	158.137
0.71683	159.223
0.739423	163.768
0.766125	167.153
0.788718	168.249
0.817474	171.629
0.846229	175.009
0.874984	179.539
0.899631	185.228
0.930441	192.051
0.967412	229.895
