Adsorption isotherm of Nitrogen on Co/NPC-800
DOI: 10.1002/smll.201302910
Adsorbate Nitrogen: InChIKey IJGRMHOSHXDMSA-UHFFFAOYSA-N
Temperature: 77 K
Tabular data in the source: 0
pressure (bar)	uptake (cm3(STP)/g)
2.69651e-17	26.4368
0.00205395	44.8227
0.00410791	17.2317
0.00821581	57.4518
0.0205395	67.7675
0.0328632	72.336
0.0492949	78.0443
0.0739423	83.7331
0.0985899	88.2725
0.133507	90.4887
0.151992	95.0426
0.182802	99.5674
0.203341	100.668
0.234151	105.193
0.260852	110.877
0.283446	110.824
0.314255	116.498
0.328632	116.464
0.359442	120.989
0.394359	123.205
0.423114	126.585
0.445708	127.681
0.462139	129.941
0.474463	131.061
0.492949	133.316
0.515542	137.861
0.531974	140.121
0.556622	142.361
0.595647	146.866
0.612078	151.425
0.640833	154.805
0.66548	159.345
0.68602	160.446
0.712722	163.831
0.737369	167.221
0.757909	171.77
0.782556	176.309
0.807204	183.147
0.835959	192.275
0.866769	202.547
0.891416	217.431
0.926333	248.383
0.969466	390.809
