Adsorption isotherm of Nitrogen on Co/NPC-800
DOI: 10.1002/smll.201302910
Adsorbate Nitrogen: InChIKey IJGRMHOSHXDMSA-UHFFFAOYSA-N
Temperature: 77 K
Tabular data in the source: 0
pressure (bar)	uptake (cm3(STP)/g)
2.69651e-17	26.4368
0.00205395	44.8227
0.00410791	17.2317
0.00821581	57.4518
0.0205395	67.7675
0.0328632	72.336
0.0492949	78.0443
0.0739423	83.7331
0.0985899	88.2725
0.133507	90.4887
0.151992	95.0426
0.182802	99.5674
0.203341	100.668
0.234151	105.193
0.260852	110.877
0.283446	110.824
0.314255	116.498
0.328632	116.464
0.359442	120.989
0.379982	122.089
0.406683	123.176
0.421061	125.44
0.435438	134.602
0.451869	139.161
0.462139	147.182
0.480626	150.587
0.501164	155.136
0.517597	157.396
0.538136	159.646
0.558675	161.896
0.581269	165.291
0.5977	167.551
0.616186	169.806
0.636725	173.206
0.657265	176.606
0.67575	178.861
0.702452	183.395
0.729154	187.93
0.753801	194.768
0.782556	199.298
0.80515	206.141
0.833905	218.716
0.866769	242.777
0.897578	265.692
0.930441	310.442
0.969466	390.809
