Adsorption isotherm of Ethene on PAF-1-SO3Ag
DOI: 10.1021/Ja502119z
Adsorbate Ethene: InChIKey VGGSQFUCUMXWEO-UHFFFAOYSA-N
Temperature: 296 K
Tabular data in the source: 0
pressure (bar)	uptake (cm3(STP)/g)
0.0129834	17.3951
0.0138421	14.2069
0.0192347	20.5853
0.0203339	22.9044
0.0265851	26.0947
0.0324243	28.4152
0.0431408	31.027
0.0513499	33.3482
0.0620664	35.96
0.0772481	37.9934
0.0876898	40.0254
0.103421	43.2184
0.116508	45.8309
0.133784	47.2852
0.151336	49.3192
0.168613	50.7735
0.183657	52.517
0.208319	54.5531
0.220993	56.2959
0.240915	58.3307
0.253177	59.2038
0.287456	61.5326
0.319228	63.5708
0.34863	65.6083
0.385141	67.6479
0.414131	68.8157
0.45315	71.1458
0.482139	72.3137
0.508896	73.7707
0.542763	75.2298
0.57663	76.6889
0.607852	77.5675
0.636979	79.0252
0.672941	79.9052
0.699423	80.7824
0.730782	81.951
0.766745	82.8309
0.795597	83.7089
0.831971	85.4585
0.863056	86.0473
0.89414	86.636
0.93024	87.8059
0.958954	88.3939
0.990177	89.2725
1.01917	90.4403
1.05011	90.7392
1.08594	91.3293
