Adsorption isotherm of Nitrogen on PAF-1-SO3H
DOI: 10.1021/Ja502119z
Adsorbate Nitrogen: InChIKey IJGRMHOSHXDMSA-UHFFFAOYSA-N
Temperature: 77 K
Tabular data in the source: 0
pressure (bar)	uptake (cm3(STP)/g)
0.000344439	162.641
0.000419785	198.219
0.00123221	234.014
0.00186493	254.518
0.00276019	259.861
0.00350803	265.161
