Adsorption isotherm of Nitrogen on PAF-1-SO3Ag
DOI: 10.1021/Ja502119z
Adsorbate Nitrogen: InChIKey IJGRMHOSHXDMSA-UHFFFAOYSA-N
Temperature: 77 K
Tabular data in the source: 0
pressure (bar)	uptake (cm3(STP)/g)
0.00106168	35.5778
0.00151668	50.8254
0.00212335	71.1555
0.00541389	111.859
0.00824943	137.315
0.0155427	173.023
0.0240031	178.28
0.0324635	183.536
