Adsorption isotherm of Nitrogen on PAF-1
DOI: 10.1021/Ja502119z
Adsorbate Nitrogen: InChIKey IJGRMHOSHXDMSA-UHFFFAOYSA-N
Temperature: 77 K
Tabular data in the source: 0
pressure (bar)	uptake (cm3(STP)/g)
0.00050917	309.991
0.00084378	259.296
0.000911639	360.904
0.00116669	411.772
0.00141098	457.559
0.00204698	549.175
0.00243868	595.004
0.00254632	645.83
0.00268625	711.903
0.00274007	737.315
0.00326842	778.106
0.00346966	803.562
0.00386136	849.392
0.00440048	895.265
0.0049396	941.138
0.00644933	1027.93
0.00698846	1073.81
0.00746295	1089.18
0.00829694	1135.14
0.00923525	1160.82
0.00969906	1171.11
0.0107848	1196.83
0.0120072	1217.51
0.0126183	1227.85
0.0141463	1253.69
0.0153472	1264.21
0.0171807	1295.22
0.0185182	1300.7
0.0198665	1311.25
0.0216893	1337.19
0.0228794	1342.62
0.0245118	1348.18
0.0261656	1363.9
0.0273665	1374.41
0.028251	1374.67
0.0298941	1385.32
0.0312424	1395.87
0.0328639	1396.35
0.0342122	1406.91
0.0352548	1412.29
0.036898	1422.94
0.0385303	1428.5
0.039857	1428.89
0.0410687	1444.48
0.0423954	1444.87
0.0438695	1445.31
0.0452178	1455.86
0.0469868	1456.39
0.0480295	1461.77
0.049367	1467.25
0.0508519	1472.76
0.0523369	1478.28
0.0535161	1478.63
0.0550011	1484.14
0.0561804	1484.49
0.0576653	1490.01
0.059161	1500.61
0.0601822	1495.83
0.0618145	1501.39
0.0632995	1506.91
0.0644896	1512.34
