Adsorption isotherm of Ethane on PAF-1-SO3Ag
DOI: 10.1021/Ja502119z
Adsorbate Ethane: InChIKey OTMSDBZUPAUEDD-UHFFFAOYSA-N
Temperature: 296 K
Tabular data in the source: 0
pressure (bar)	uptake (cm3(STP)/g)
0.00236999	0.000686955
0.0345195	7.83609
0.0373016	8.70646
0.0601429	11.9015
0.0629251	12.7719
0.0907811	16.5481
0.11084	18.8727
0.126022	20.9061
0.140517	21.49
0.158206	23.814
0.170605	24.977
0.190252	26.432
0.220066	29.3391
0.244453	30.7955
0.266332	31.9613
0.298241	34.2893
0.334478	35.7491
0.368345	37.2082
0.399979	38.9565
0.426599	40.1237
0.462836	41.5834
0.496565	42.7526
0.561379	44.5105
0.590369	45.6784
0.619084	46.2664
1.00017	55.3624
1.03112	55.6612
1.07168	56.2527
