Adsorption isotherm of Carbon Dioxide on [Zn2(ndc)2(dabco)]n
DOI: 10.1002/asia.200800112
Adsorbate Carbon Dioxide: InChIKey CURLTUGMZLYLDI-UHFFFAOYSA-N
Temperature: 195 K
Tabular data in the source: 0
pressure (bar)	uptake (ml/g)
0.00289047	0.00289047
0.00867142	78.8544
0.0115619	108.665
0.0144524	129.821
0.0231238	146.176
0.0346857	154.841
0.054919	162.552
0.115619	169.34
0.170538	172.277
0.205224	174.233
0.329514	181.082
0.372871	184.007
0.439352	190.801
0.453805	192.738
0.462476	198.515
0.468257	204.29
0.479819	210.07
0.491381	214.889
0.537628	217.817
0.615671	219.814
0.664809	221.784
0.716838	220.872
0.742852	221.858
0.797771	222.871
0.8498	222.921
0.875814	223.907
0.930733	225.882
0.953857	224.942
