Adsorption isotherm of Carbon Dioxide on [Cu2(bdc)2(dabco)]n
DOI: 10.1002/asia.200800112
Adsorbate Carbon Dioxide: InChIKey CURLTUGMZLYLDI-UHFFFAOYSA-N
Temperature: 195 K
Tabular data in the source: 0
pressure (bar)	uptake (ml/g)
0.00874618	23.3333
0.0116616	40
0.0174924	63.3333
0.0262385	186.667
0.0349847	251.667
0.0495617	283.333
0.0699694	296.667
0.081631	303.333
0.0991233	311.667
0.1137	316.667
0.125362	321.667
0.157431	326.667
0.212824	335
0.265301	341.667
0.317778	346.667
0.364424	350
0.422732	355
0.472294	358.333
0.521855	360
0.574332	361.667
0.623894	365
0.673456	368.333
0.728848	368.333
0.775494	371.667
0.822141	371.667
0.880449	375
0.93001	375
0.979572	376.667
