Adsorption isotherm of Acetylene on [Zn2(adc)2(dabco)]n
DOI: 10.1002/asia.200800112
Adsorbate Acetylene: InChIKey HSFWRNGVRCDJHI-UHFFFAOYSA-N
Temperature: 273 K
Tabular data in the source: 0
pressure (bar)	uptake (ml/g)
0	0
0.0228137	59.3631
0.0304183	65.0883
0.0456274	72.8929
0.0760456	81.7312
0.114068	88.4823
0.178707	95.7403
0.254753	99.3465
0.319392	102.959
0.391635	104.484
0.456274	104.971
0.532319	107.014
0.593156	108.024
0.730038	109.516
0.794677	110.003
0.863118	111.009
0.939163	111.49
0.996198	111.46
1.06464	111.946
