Adsorption isotherm of Acetylene on [Zn2(adc)2(dabco)]n
DOI: 10.1002/asia.200800112
Adsorbate Acetylene: InChIKey HSFWRNGVRCDJHI-UHFFFAOYSA-N
Temperature: 323 K
Tabular data in the source: 0
pressure (bar)	uptake (ml/g)
0.00380228	4.16469
0.0456274	26.0179
0.0570342	30.1786
0.117871	42.6469
0.163498	47.8315
0.220532	53.531
0.285171	58.7056
0.34981	62.3178
0.422053	65.926
0.48289	69.0193
0.555133	71.5859
0.619772	74.1564
0.692015	76.2021
0.756654	77.7309
0.821293	79.7806
0.885932	80.7886
0.954373	82.3154
1.02281	83.3215
