Adsorption isotherm of Acetylene on [Cu2(bdc)2(dabco)]n
DOI: 10.1002/asia.200800112
Adsorbate Acetylene: InChIKey HSFWRNGVRCDJHI-UHFFFAOYSA-N
Temperature: 273 K
Tabular data in the source: 0
pressure (bar)	uptake (ml/g)
0.0501931	7.53425
0.0694981	9.58904
0.119691	14.3836
0.208494	24.6575
0.258687	30.8219
0.297297	36.3014
0.34749	42.4658
0.393822	49.3151
0.436293	56.1644
0.486486	64.3836
0.53668	71.9178
0.594595	81.5068
0.644788	89.0411
0.702703	98.6301
0.772201	107.534
0.841699	115.753
0.907336	123.288
0.976834	130.137
1.04633	135.616
