Adsorption isotherm of Acetylene on [Zn2(adc)2(dabco)]n
DOI: 10.1002/asia.200800112
Adsorbate Acetylene: InChIKey HSFWRNGVRCDJHI-UHFFFAOYSA-N
Temperature: 298 K
Tabular data in the source: 0
pressure (bar)	uptake (ml/g)
0.00380228	14.0605
0.0304183	36.9633
0.0418251	43.2074
0.0570342	48.4078
0.0836502	56.7273
0.095057	58.8047
0.114068	62.4406
0.155894	68.6688
0.21673	74.8871
0.281369	80.0618
0.361217	84.7077
0.422053	88.3218
0.494297	90.8884
0.562738	92.9361
0.627376	93.9441
0.768061	96.9958
0.828897	98.0058
0.897338	99.0118
0.969582	100.016
1.03422	101.024
