Adsorption isotherm of Acetylene on [Zn2(ndc)2(dabco)]n
DOI: 10.1002/asia.200800112
Adsorbate Acetylene: InChIKey HSFWRNGVRCDJHI-UHFFFAOYSA-N
Temperature: 323 K
Tabular data in the source: 0
pressure (bar)	uptake (ml/g)
0.0305988	7.12299
0.0840109	14.2312
0.114544	18.7568
0.156467	22.6257
0.198407	27.1439
0.247951	31.6572
0.301297	36.168
0.347006	39.3851
0.404154	43.8934
0.468907	48.3968
0.53743	51.5991
0.609771	55.4482
0.746831	62.5021
0.815337	65.055
0.880057	68.2597
0.944761	70.8151
1.01327	73.368
1.08176	75.2716
