Adsorption isotherm of Acetylene on [Zn2(ndc)2(dabco)]n
DOI: 10.1002/asia.200800112
Adsorbate Acetylene: InChIKey HSFWRNGVRCDJHI-UHFFFAOYSA-N
Temperature: 195 K
Tabular data in the source: 0
pressure (bar)	uptake (ml/g)
0.00340856	0.00340856
0.0102257	93.1624
0.0136342	102.564
0.0204514	113.675
0.0238599	124.786
0.030677	134.188
0.0409027	143.59
0.0511284	152.991
0.0613541	163.248
0.0749883	170.085
0.0988482	175.214
0.132934	177.778
0.167019	179.487
0.204514	181.197
0.242008	182.906
0.282911	183.761
0.320405	184.615
0.361307	185.47
0.398802	186.325
0.436296	186.325
0.480607	186.325
0.559004	188.889
0.640809	189.744
0.681712	188.889
0.766926	189.744
0.80442	190.598
0.886226	190.598
0.968031	192.308
