Adsorption isotherm of Acetylene on [Cu2(ndc)2(dabco)]n
DOI: 10.1002/asia.200800112
Adsorbate Acetylene: InChIKey HSFWRNGVRCDJHI-UHFFFAOYSA-N
Temperature: 298 K
Tabular data in the source: 0
pressure (bar)	uptake (ml/g)
0.0383142	9.15542
0.0651341	13.7381
0.0881226	18.9705
0.118774	23.5557
0.16092	30.1049
0.203065	36.6542
0.252874	42.5562
0.35249	53.7081
0.409962	59.6152
0.475096	65.5272
0.616858	76.7066
0.67433	80.6572
0.747126	84.6177
0.816092	88.5757
0.885057	91.8816
0.950192	93.8806
1.01916	97.1864
