Adsorption isotherm of Carbon Dioxide on [Zn2(bdc)2(dabco)]n
DOI: 10.1002/asia.200800112
Adsorbate Carbon Dioxide: InChIKey CURLTUGMZLYLDI-UHFFFAOYSA-N
Temperature: 195 K
Tabular data in the source: 0
pressure (bar)	uptake (ml/g)
0.00874618	75
0.0116616	143.333
0.014577	170
0.0233231	280
0.0262385	288.333
0.0349847	296.667
0.0495617	311.667
0.0524771	321.667
0.0728848	328.333
0.0845464	333.333
0.1137	338.333
0.128277	345
0.18367	353.333
0.265301	360
0.41107	368.333
0.55684	373.333
0.606402	373.333
0.658879	375
0.758002	378.333
0.810479	378.333
0.860041	380
0.921264	380
