Adsorption isotherm of Acetylene on [Cu2(adc)2(dabco)]n
DOI: 10.1002/asia.200800112
Adsorbate Acetylene: InChIKey HSFWRNGVRCDJHI-UHFFFAOYSA-N
Temperature: 273 K
Tabular data in the source: 0
pressure (bar)	uptake (ml/g)
0.00384615	13.5965
0.0153846	24.1228
0.0307692	35.0877
0.0423077	42.1053
0.0576923	48.6842
0.0884615	57.8947
0.103846	60.9649
0.142308	67.5439
0.207692	73.6842
0.273077	78.0702
0.338462	81.5789
0.411538	84.2105
0.480769	86.4035
0.546154	88.1579
0.611538	89.4737
0.684615	91.2281
0.746154	92.1053
0.819231	93.4211
0.884615	94.2982
0.946154	95.1754
1.01923	96.0526
