Adsorption isotherm of Acetylene on [Zn2(bdc)2(dabco)]n
DOI: 10.1002/asia.200800112
Adsorbate Acetylene: InChIKey HSFWRNGVRCDJHI-UHFFFAOYSA-N
Temperature: 273 K
Tabular data in the source: 0
pressure (bar)	uptake (ml/g)
0.0226681	7.6555
0.0643659	14.3541
0.0833045	18.1818
0.109811	23.9234
0.147707	30.622
0.18935	40.1914
0.234777	50.7177
0.280204	61.244
0.36722	84.2105
0.412629	95.6938
0.458002	109.091
0.507195	121.531
0.567777	134.928
0.632161	148.325
0.696582	159.809
0.76102	170.335
0.908909	191.388
1.04936	203.828
