Adsorption isotherm of Acetylene on [Zn2(adc)2(dabco)]n
DOI: 10.1002/asia.200800112
Adsorbate Acetylene: InChIKey HSFWRNGVRCDJHI-UHFFFAOYSA-N
Temperature: 195 K
Tabular data in the source: 0
pressure (bar)	uptake (ml/g)
0.000811565	113.452
0.000896103	109.645
0.00126807	92.8934
0.0039902	120.305
0.0204751	127.919
0.0436723	133.249
0.076862	138.579
0.106772	141.624
0.133384	143.147
0.159963	146.193
0.209891	147.716
0.243148	150
0.273109	150.761
0.313044	152.284
0.362972	153.807
0.416231	155.33
0.519435	157.614
0.622656	159.137
0.729225	159.898
0.832446	161.421
0.935667	162.944
