Adsorption isotherm of Acetylene on [Cu2(ndc)2(dabco)]n
DOI: 10.1002/asia.200800112
Adsorbate Acetylene: InChIKey HSFWRNGVRCDJHI-UHFFFAOYSA-N
Temperature: 195 K
Tabular data in the source: 0
pressure (bar)	uptake (ml/g)
0.00681712	117.949
0.0102257	129.06
0.0511284	151.282
0.0818054	158.12
0.115891	162.393
0.139751	164.957
0.173837	167.521
0.214739	170.085
0.245416	172.65
0.276093	174.359
0.316996	176.923
0.371533	179.487
0.419253	181.197
0.52151	185.47
0.623767	188.889
0.726023	193.162
0.82828	195.726
0.933946	199.145
