Adsorption isotherm of Acetylene on [Cu2(adc)2(dabco)]n
DOI: 10.1002/asia.200800112
Adsorbate Acetylene: InChIKey HSFWRNGVRCDJHI-UHFFFAOYSA-N
Temperature: 323 K
Tabular data in the source: 0
pressure (bar)	uptake (ml/g)
0.0115385	2.19298
0.0576923	14.0351
0.0769231	16.2281
0.1	20.1754
0.146154	25.4386
0.2	29.8246
0.242308	33.3333
0.303846	36.8421
0.369231	40.7895
0.438462	44.2982
0.503846	47.3684
0.573077	50
0.638462	52.6316
0.711538	54.386
0.776923	56.5789
0.846154	58.3333
0.911538	59.6491
0.973077	60.9649
1.04231	62.7193
