Adsorption isotherm of Acetylene on [Zn2(bdc)2(dabco)]n
DOI: 10.1002/asia.200800112
Adsorbate Acetylene: InChIKey HSFWRNGVRCDJHI-UHFFFAOYSA-N
Temperature: 298 K
Tabular data in the source: 0
pressure (bar)	uptake (ml/g)
0.0873069	7.6555
0.102498	8.61244
0.140448	12.4402
0.174614	15.311
0.231539	21.0526
0.265723	22.9665
0.318864	27.7512
0.406171	35.4067
0.455491	41.1483
0.565576	50.7177
0.626303	56.4593
0.68703	62.201
0.755362	67.9426
0.819856	75.5981
0.884385	81.3397
1.02103	93.7799
