Adsorption isotherm of Acetylene on [Cu2(ndc)2(dabco)]n
DOI: 10.1002/asia.200800112
Adsorbate Acetylene: InChIKey HSFWRNGVRCDJHI-UHFFFAOYSA-N
Temperature: 323 K
Tabular data in the source: 0
pressure (bar)	uptake (ml/g)
0.0727969	7.22139
0.0957854	9.84508
0.1341	13.1309
0.226054	20.3648
0.272031	23.6557
0.321839	27.6012
0.367816	30.8921
0.478927	37.4863
0.54023	41.4393
0.605364	44.7426
0.743295	52.0065
0.808429	54.6577
0.873563	57.961
0.942529	60.6147
1.01533	63.2709
1.08046	65.922
