Adsorption isotherm of Acetylene on [Zn2(ndc)2(dabco)]n
DOI: 10.1002/asia.200800112
Adsorbate Acetylene: InChIKey HSFWRNGVRCDJHI-UHFFFAOYSA-N
Temperature: 273 K
Tabular data in the source: 0
pressure (bar)	uptake (ml/g)
0.0196366	24.6626
0.0273562	29.203
0.0581361	43.4687
0.0696744	48.6561
0.0812292	54.4927
0.12335	66.1537
0.165454	77.1653
0.211328	86.8758
0.264773	95.2826
0.325839	104.334
0.398262	111.43
0.474454	117.224
0.539224	122.377
0.672482	129.433
0.741005	132.636
0.813313	135.186
0.881802	137.09
0.946506	139.645
1.01878	140.897
1.08347	142.803
