Adsorption isotherm of Acetylene on [Zn2(ndc)2(dabco)]n
DOI: 10.1002/asia.200800112
Adsorbate Acetylene: InChIKey HSFWRNGVRCDJHI-UHFFFAOYSA-N
Temperature: 298 K
Tabular data in the source: 0
pressure (bar)	uptake (ml/g)
0.0193074	11.6758
0.0728512	23.9787
0.0958455	31.1066
0.141653	38.2197
0.191313	47.2784
0.233269	52.4459
0.282862	58.9072
0.343862	65.3611
0.408664	71.8126
0.545824	82.7625
0.618165	86.6116
0.686704	90.4632
0.75144	94.3172
0.819962	97.5195
0.888485	100.722
0.956974	102.625
1.02168	105.181
