Adsorption isotherm of Acetylene on [Cu2(bdc)2(dabco)]n
DOI: 10.1002/asia.200800112
Adsorbate Acetylene: InChIKey HSFWRNGVRCDJHI-UHFFFAOYSA-N
Temperature: 195 K
Tabular data in the source: 0
pressure (bar)	uptake (ml/g)
0.00165849	209.917
0.0047303	257.851
0.0097923	77.686
0.0147966	304.132
0.0564319	332.231
0.10871	340.496
0.161032	343.802
0.213368	345.455
0.269195	347.107
0.318041	348.76
0.373867	350.413
0.419223	352.066
0.471559	353.719
0.52391	353.719
0.576246	355.372
0.628582	357.025
0.680918	358.678
0.733254	360.331
0.785605	360.331
0.830976	360.331
0.883312	361.983
0.935662	361.983
0.984509	363.636
