Adsorption isotherm of Carbon Dioxide on [Cu2(adc)2(dabco)]n
DOI: 10.1002/asia.200800112
Adsorbate Carbon Dioxide: InChIKey CURLTUGMZLYLDI-UHFFFAOYSA-N
Temperature: 195 K
Tabular data in the source: 0
pressure (bar)	uptake (ml/g)
0.00289873	21.1055
0.0086962	55.0251
0.0115949	67.8392
0.0202911	84.4221
0.0289873	99.4975
0.0376835	107.035
0.043481	109.296
0.0463797	113.065
0.0608734	117.588
0.0695696	122.111
0.0811645	126.633
0.113051	134.925
0.171025	145.477
0.234797	150.754
0.263785	154.523
0.301468	156.03
0.356544	158.291
0.41162	161.307
0.458	164.322
0.507278	166.583
0.614531	169.598
0.66381	171.106
0.713088	172.613
0.765266	174.121
0.814544	175.628
0.86962	176.382
0.918898	177.136
