Adsorption isotherm of Acetylene on [Cu2(ndc)2(dabco)]n
DOI: 10.1002/asia.200800112
Adsorbate Acetylene: InChIKey HSFWRNGVRCDJHI-UHFFFAOYSA-N
Temperature: 273 K
Tabular data in the source: 0
pressure (bar)	uptake (ml/g)
0.0191571	12.4038
0.0229885	16.3193
0.0383142	22.8511
0.0689655	34.6102
0.0842912	39.1854
0.0996169	44.4128
0.126437	52.9085
0.210728	74.4853
0.260536	82.996
0.321839	91.5142
0.386973	100.687
0.463602	107.911
0.528736	113.171
0.666667	121.087
0.735632	125.045
0.800766	128.348
0.8659	130.347
0.938697	132.351
1	135
1.0728	137.004
