Adsorption isotherm of Carbon Dioxide on [Zn2(adc)2(dabco)]n
DOI: 10.1002/asia.200800112
Adsorbate Carbon Dioxide: InChIKey CURLTUGMZLYLDI-UHFFFAOYSA-N
Temperature: 195 K
Tabular data in the source: 0
pressure (bar)	uptake (ml/g)
0.00579747	94.2211
0.0086962	110.05
0.0115949	104.774
0.0173924	119.849
0.0637721	134.925
0.118848	140.955
0.139139	143.216
0.185519	146.231
0.211608	148.492
0.272481	151.508
0.310164	153.015
0.359443	156.03
0.414519	156.03
0.463797	159.045
0.510177	160.553
0.562354	162.06
0.620329	162.814
0.669607	164.322
0.715987	165.075
0.773962	166.583
0.817443	168.09
0.866721	169.598
0.924696	171.106
