Adsorption isotherm of Acetylene on [Zn2(bdc)2(dabco)]n
DOI: 10.1002/asia.200800112
Adsorbate Acetylene: InChIKey HSFWRNGVRCDJHI-UHFFFAOYSA-N
Temperature: 195 K
Tabular data in the source: 0
pressure (bar)	uptake (ml/g)
0.00477357	252.893
0.00656185	47.9339
0.00796075	287.603
0.00809055	272.727
0.0182578	307.438
0.0599941	323.967
0.105321	328.926
0.171603	332.231
0.209994	332.231
0.244894	332.231
0.31468	333.884
0.367031	333.884
0.419367	335.537
0.520578	335.537
0.62877	335.537
0.726491	335.537
0.827702	335.537
0.932389	337.19
