Adsorption isotherm of Acetylene on [Cu2(bdc)2(dabco)]n
DOI: 10.1002/asia.200800112
Adsorbate Acetylene: InChIKey HSFWRNGVRCDJHI-UHFFFAOYSA-N
Temperature: 298 K
Tabular data in the source: 0
pressure (bar)	uptake (ml/g)
0.0579151	3.42466
0.100386	6.84932
0.162162	9.58904
0.204633	12.3288
0.254826	13.6986
0.301158	16.4384
0.389961	20.5479
0.444015	23.9726
0.555985	29.4521
0.617761	32.8767
0.760618	41.0959
0.818533	43.8356
0.88417	47.9452
0.949807	51.3699
1.01544	55.4795
1.08494	59.589
