Adsorption isotherm of Acetylene on [Zn2(bdc)2(dabco)]n
DOI: 10.1002/asia.200800112
Adsorbate Acetylene: InChIKey HSFWRNGVRCDJHI-UHFFFAOYSA-N
Temperature: 323 K
Tabular data in the source: 0
pressure (bar)	uptake (ml/g)
0.0835956	2.87081
0.117743	6.69856
0.170939	8.61244
0.208925	10.5263
0.262139	11.4833
0.349519	15.311
0.398894	18.1818
0.448287	20.0957
0.505267	22.9665
0.558462	24.8804
0.687631	30.622
0.756017	33.4928
0.820601	36.3636
0.888988	39.2344
0.957374	42.1053
1.02196	44.9761
