Adsorption isotherm of Acetylene on [Cu2(bdc)2(dabco)]n
DOI: 10.1002/asia.200800112
Adsorbate Acetylene: InChIKey HSFWRNGVRCDJHI-UHFFFAOYSA-N
Temperature: 323 K
Tabular data in the source: 0
pressure (bar)	uptake (ml/g)
0.0965251	3.42466
0.177606	5.47945
0.216216	6.16438
0.312741	8.90411
0.405405	10.9589
0.451737	12.3288
0.563707	15.7534
0.629344	17.1233
0.756757	21.2329
0.826255	22.6027
0.96139	26.0274
1.02703	28.0822
