Adsorption isotherm of Acetylene on [Cu2(adc)2(dabco)]n
DOI: 10.1002/asia.200800112
Adsorbate Acetylene: InChIKey HSFWRNGVRCDJHI-UHFFFAOYSA-N
Temperature: 298 K
Tabular data in the source: 0
pressure (bar)	uptake (ml/g)
0.0307692	15.3509
0.0423077	20.614
0.0730769	28.5088
0.0961538	32.4561
0.107692	35.5263
0.157692	42.9825
0.207692	48.2456
0.269231	54.386
0.338462	58.3333
0.407692	62.2807
0.469231	65.7895
0.538462	68.4211
0.611538	71.0526
0.676923	73.2456
0.742308	75.4386
0.811538	76.7544
0.876923	78.5088
0.942308	79.386
1.00769	80.2632
1.08077	82.0175
