Adsorption isotherm of Carbon Dioxide on [Cu2(ndc)2(dabco)]n
DOI: 10.1002/asia.200800112
Adsorbate Carbon Dioxide: InChIKey CURLTUGMZLYLDI-UHFFFAOYSA-N
Temperature: 195 K
Tabular data in the source: 0
pressure (bar)	uptake (ml/g)
0.00578095	0.00578095
0.0144524	129.821
0.0202333	146.173
0.0433571	166.387
0.0635904	171.214
0.0867142	176.044
0.106948	177.986
0.1214	180.884
0.141633	182.827
0.158976	183.805
0.190771	186.719
0.211005	187.7
0.2428	189.653
0.268814	192.562
0.309281	193.562
0.358419	198.417
0.407557	203.271
0.456695	207.164
0.508724	211.059
0.557862	214.952
0.656138	222.737
0.713947	226.638
0.768866	227.652
0.818004	228.66
0.867142	230.63
0.922061	232.605
