Adsorption isotherm of Acetylene on [Cu2(adc)2(dabco)]n
DOI: 10.1002/asia.200800112
Adsorbate Acetylene: InChIKey HSFWRNGVRCDJHI-UHFFFAOYSA-N
Temperature: 195 K
Tabular data in the source: 0
pressure (bar)	uptake (ml/g)
0.00784513	96.7005
0.00838617	72.335
0.0144391	99.7462
0.0209823	105.076
0.0342379	108.122
0.0474935	111.168
0.0541212	112.69
0.0773523	116.497
0.087294	118.782
0.103897	121.066
0.150444	124.873
0.200355	127.157
0.25358	130.203
0.303492	132.487
0.35675	134.01
0.410009	135.533
0.523172	139.34
0.569786	140.102
0.623045	141.624
0.67299	142.386
0.726266	143.147
0.779525	144.67
0.82947	145.431
0.882729	146.954
0.92936	146.954
0.982636	147.716
