Adsorption isotherm of Carbon Dioxide on Zeolite 13X
DOI: 10.1016/j.cej.2008.07.034
Adsorbate Carbon Dioxide: InChIKey CURLTUGMZLYLDI-UHFFFAOYSA-N
Temperature: 298 K
Tabular data in the source: 0
pressure (bar)	uptake (kg/mol)
0.000127	4.39663
0.00113254	4.39663
0.00215943	4.39663
0.00309892	4.57719
0.00410397	4.39663
0.00513086	4.486
0.00611405	4.486
0.00705355	4.67023
0.00810228	4.486
0.00901993	4.57719
0.0100468	4.486
