Adsorption isotherm of Hydrogen sulfide on Zeolite Na-Y
DOI: 10.1016/j.cej.2008.07.034
Adsorbate Hydrogen sulfide: InChIKey RWSOTUBLDIXVET-UHFFFAOYSA-N
Temperature: 298 K
Tabular data in the source: 0
pressure (bar)	uptake (kg/mol)
0.000127	0.951355
0.00111069	1.47572
0.00213758	1.79909
0.00309892	1.86026
0.00408212	2.11371
0.00504346	2.22732
0.0060485	2.31472
0.00700985	2.48951
0.00803674	2.54194
0.00901993	2.64682
0.00998128	2.68178
