Adsorption isotherm of Carbon Dioxide on Zeolite LTA
DOI: 10.1016/j.cej.2008.07.034
Adsorbate Carbon Dioxide: InChIKey CURLTUGMZLYLDI-UHFFFAOYSA-N
Temperature: 298 K
Tabular data in the source: 0
pressure (bar)	uptake (kg/mol)
6.19e-05	4.24098
0.00111069	4.93188
0.00207203	4.64295
0.00303338	4.858
0.00408212	4.93188
0.00513086	4.93188
0.0060485	4.858
0.00705355	4.71355
0.00805859	4.64295
0.00904178	4.78523
0.0100468	4.71355
