Adsorption isotherm of Methane on Zeolite 13X
DOI: 10.1016/j.cej.2008.07.034
Adsorbate Methane: InChIKey VNWKTOKETHGBQD-UHFFFAOYSA-N
Temperature: 298 K
Tabular data in the source: 0
pressure (bar)	uptake (kg/mol)
0.000149	0.599666
0.00115439	0.611856
0.00211573	0.611856
0.00314262	0.542266
0.00406027	0.576011
0.00506531	0.480591
0.0060922	0.461632
0.00709724	0.461632
0.00803674	0.452436
0.00901993	0.443422
0.010025	0.38516
