Adsorption isotherm of Hydrogen sulfide on Zeolite LTA
DOI: 10.1016/j.cej.2008.07.034
Adsorbate Hydrogen sulfide: InChIKey RWSOTUBLDIXVET-UHFFFAOYSA-N
Temperature: 298 K
Tabular data in the source: 0
pressure (bar)	uptake (kg/mol)
0.00112897	0.0293068
0.00210488	0.0584384
0.00310993	0.140007
0.00407127	0.163312
0.00509088	0.209923
0.00605222	0.239055
0.00702813	0.297318
0.00801861	0.297318
0.00899452	0.308971
0.009985	0.303144
