Adsorption isotherm of Methane on Zeolite Na-Y
DOI: 10.1016/j.cej.2008.07.034
Adsorbate Methane: InChIKey VNWKTOKETHGBQD-UHFFFAOYSA-N
Temperature: 298 K
Tabular data in the source: 0
pressure (bar)	uptake (kg/mol)
0.000149	0.782255
0.00115439	0.662594
0.00213758	0.578437
0.00314262	0.427724
0.00410397	0.302278
0.00510901	0.330929
0.00607035	0.34107
0.00707539	0.325972
0.00805859	0.330929
0.00906363	0.306875
0.00998128	0.335961
