Adsorption isotherm of Hydrogen sulfide on Zeolite MFI
DOI: 10.1016/j.cej.2008.07.034
Adsorbate Hydrogen sulfide: InChIKey RWSOTUBLDIXVET-UHFFFAOYSA-N
Temperature: 298 K
Tabular data in the source: 0
pressure (bar)	uptake (kg/mol)
0.000127	3.76e-05
0.00113254	0.000746
0.00213758	0.00179025
0.00309892	0.00202
0.00403842	0.00273177
0.00506531	0.00392424
0.00600481	0.00429619
0.00707539	0.00514919
0.00801489	0.00762358
0.00897623	0.00739689
0.00995943	0.00860193
