Adsorption isotherm of Hydrogen sulfide on Zeolite LTA
DOI: 10.1016/j.cej.2008.07.034
Adsorbate Hydrogen sulfide: InChIKey RWSOTUBLDIXVET-UHFFFAOYSA-N
Temperature: 298 K
Tabular data in the source: 0
pressure (bar)	uptake (kg/mol)
0.000106	0.0343987
0.00108884	0.0437941
0.00205018	0.0765485
0.00307707	0.165281
0.00412581	0.192207
0.00510901	0.223519
0.00705355	0.311542
0.00803674	0.311542
0.00899808	0.311542
0.00998128	0.321089
