Adsorption isotherm of Hydrogen sulfide on Zeolite Na-Y
DOI: 10.1016/j.cej.2008.07.034
Adsorbate Hydrogen sulfide: InChIKey RWSOTUBLDIXVET-UHFFFAOYSA-N
Temperature: 298 K
Tabular data in the source: 0
pressure (bar)	uptake (kg/mol)
0.00152994	0.61426
0.011493	1.70233
0.0222425	2.84283
0.0322056	3.55073
0.042693	3.99644
0.0531804	4.25863
0.0644543	4.35039
0.0731064	4.31107
0.0854291	4.57325
0.0959165	4.90098
