Adsorption isotherm of Methane on Zeolite MFI
DOI: 10.1016/j.cej.2008.07.034
Adsorbate Methane: InChIKey VNWKTOKETHGBQD-UHFFFAOYSA-N
Temperature: 298 K
Tabular data in the source: 0
pressure (bar)	uptake (kg/mol)
0.000127	2.5837
0.00113254	2.91528
0.00213758	2.91528
0.00309892	3.19159
0.00406027	3.09669
0.00506531	2.91528
0.00602665	2.82859
0.00700985	2.91528
0.00803674	2.91528
0.00899808	3.00462
0.00995943	3.09669
