Adsorption isotherm of Hydrogen sulfide on Zeolite Na-Y
DOI: 10.1016/j.cej.2008.07.034
Adsorbate Hydrogen sulfide: InChIKey RWSOTUBLDIXVET-UHFFFAOYSA-N
Temperature: 298 K
Tabular data in the source: 0
pressure (bar)	uptake (kg/mol)
0.000149	0.103624
0.00106699	0.295893
0.00209388	0.619254
0.00309892	0.785305
0.00408212	0.794044
0.00502161	0.794044
0.00600481	0.794044
0.00700985	0.916397
0.00799304	0.916397
0.00901993	0.942616
0.0100468	1.06497
