Adsorption isotherm of Hydrogen sulfide on Zeolite LTA
DOI: 10.1016/j.cej.2008.07.034
Adsorbate Hydrogen sulfide: InChIKey RWSOTUBLDIXVET-UHFFFAOYSA-N
Temperature: 298 K
Tabular data in the source: 0
pressure (bar)	uptake (kg/mol)
0.000149	0.593036
0.00113254	1.36211
0.00211573	1.74665
0.00312077	2.07001
0.00410397	2.3322
0.00506531	2.5769
0.00598296	2.79539
0.00700985	3.01388
0.00799304	3.07505
0.00901993	3.21488
0.00995943	3.26732
