Adsorption isotherm of Hydrogen sulfide on Zeolite Na-Y
DOI: 10.1016/j.cej.2008.07.034
Adsorbate Hydrogen sulfide: InChIKey RWSOTUBLDIXVET-UHFFFAOYSA-N
Temperature: 298 K
Tabular data in the source: 0
pressure (bar)	uptake (kg/mol)
0.00624926	0.9551
0.0107064	1.50569
0.0298459	2.96081
0.0403333	3.68182
0.0649787	4.35039
0.0896241	4.65191
0.0961787	4.82233
0.106142	5.04518
