Adsorption isotherm of Hydrogen sulfide on Zeolite 13X
DOI: 10.1016/j.cej.2008.07.034
Adsorbate Hydrogen sulfide: InChIKey RWSOTUBLDIXVET-UHFFFAOYSA-N
Temperature: 298 K
Tabular data in the source: 0
pressure (bar)	uptake (kg/mol)
0.00111441	0.0759174
0.00209032	0.140007
0.00309536	0.0992227
0.00408584	0.134181
0.00504718	0.244881
0.00606679	0.361408
0.0070427	0.355581
0.00801861	0.460455
0.00897995	0.460455
0.009985	0.466282
