Adsorption isotherm of Carbon Dioxide on Zeolite Na-Y
DOI: 10.1016/j.cej.2008.07.034
Adsorbate Carbon Dioxide: InChIKey CURLTUGMZLYLDI-UHFFFAOYSA-N
Temperature: 298 K
Tabular data in the source: 0
pressure (bar)	uptake (kg/mol)
0.000149	4.64295
0.00117623	4.5734
0.00213758	4.5734
0.00312077	4.5734
0.00410397	4.71355
0.00508716	4.50489
0.0060922	4.64295
0.0070317	4.43741
0.00808044	4.50489
0.00901993	4.43741
0.010025	4.17745
