Adsorption isotherm of Methane on Zeolite LTA
DOI: 10.1016/j.cej.2008.07.034
Adsorbate Methane: InChIKey VNWKTOKETHGBQD-UHFFFAOYSA-N
Temperature: 298 K
Tabular data in the source: 0
pressure (bar)	uptake (kg/mol)
0.000106	0.682899
0.00108884	0.544549
0.00209388	0.55283
0.00309892	0.402666
0.00412581	0.351523
0.00506531	0.271972
0.0061359	0.244705
0.0070317	0.248426
0.00803674	0.267898
0.00908548	0.252204
0.0100031	0.288897
