Adsorption isotherm of Hydrogen sulfide on Zeolite Na-Y
DOI: 10.1016/j.cej.2008.07.034
Adsorbate Hydrogen sulfide: InChIKey RWSOTUBLDIXVET-UHFFFAOYSA-N
Temperature: 298 K
Tabular data in the source: 0
pressure (bar)	uptake (kg/mol)
0.000127	0.116806
0.00115439	0.302278
0.00211573	0.633262
0.00314262	0.806227
0.00410397	0.818488
0.00508716	0.818488
0.0060922	0.818488
0.00709724	0.93757
0.00803674	0.923526
0.00901993	0.93757
0.0100031	1.05789
