Adsorption isotherm of Hydrogen sulfide on Zeolite MFI
DOI: 10.1016/j.cej.2008.07.034
Adsorbate Hydrogen sulfide: InChIKey RWSOTUBLDIXVET-UHFFFAOYSA-N
Temperature: 298 K
Tabular data in the source: 0
pressure (bar)	uptake (kg/mol)
0.000171	0.0249685
0.00113254	0.330851
0.00312077	0.890179
0.00406027	1.13488
0.00504346	1.31841
0.0060485	1.46699
0.00707539	1.65925
0.00895439	1.83404
0.00995943	1.9127
