Adsorption isotherm of Hydrogen sulfide on Zeolite 13X
DOI: 10.1016/j.cej.2008.07.034
Adsorbate Hydrogen sulfide: InChIKey RWSOTUBLDIXVET-UHFFFAOYSA-N
Temperature: 298 K
Tabular data in the source: 0
pressure (bar)	uptake (kg/mol)
0.000127	0.00498781
0.00113254	0.0941621
0.00215943	0.132571
0.00314262	0.115152
0.00410397	0.149584
0.00510901	0.262779
0.0060922	0.355372
0.00705355	0.348292
0.00803674	0.49036
0.00899808	0.500327
0.0100687	0.49036
