Adsorption isotherm of Carbon Dioxide on Zeolite MFI
DOI: 10.1016/j.cej.2008.07.034
Adsorbate Carbon Dioxide: InChIKey CURLTUGMZLYLDI-UHFFFAOYSA-N
Temperature: 298 K
Tabular data in the source: 0
pressure (bar)	uptake (kg/mol)
0.000106	0.57119
0.00115439	0.260579
0.00209388	0.192685
0.00307707	0.126275
0.00410397	0.252831
0.00506531	0.245314
0.0060485	0.268565
0.00700985	0.385798
0.00801489	0.29402
0.00899808	0.224075
0.0100031	0.181397
