Adsorption isotherm of Hydrogen sulfide on Zeolite MFI
DOI: 10.1016/j.cej.2008.07.034
Adsorbate Hydrogen sulfide: InChIKey RWSOTUBLDIXVET-UHFFFAOYSA-N
Temperature: 298 K
Tabular data in the source: 0
pressure (bar)	uptake (kg/mol)
0.000153	0.00600144
0.00114354	0.000175
0.00209032	0.000175
0.00310993	0.000175
0.00407127	0.000175
0.00507631	0.000175
0.00605222	0.000175
0.0070427	0.000175
0.00800404	0.000175
0.00900909	0.000175
0.00999956	0.000175
