Adsorption isotherm of Hydrogen sulfide on Zeolite NaX
DOI: 10.1016/j.cej.2008.07.034
Adsorbate Hydrogen sulfide: InChIKey RWSOTUBLDIXVET-UHFFFAOYSA-N
Temperature: 298 K
Tabular data in the source: 0
pressure (bar)	uptake (kg/mol)
0.000127	0.418246
0.00117623	0.829002
0.00213758	1.2485
0.00309892	1.47572
0.00410397	1.51942
0.00510901	1.51942
0.00607035	1.61556
0.00700985	1.65051
0.00801489	1.73791
0.00899808	2.00883
0.010025	2.15741
