Adsorption isotherm of Nitrogen on Soc-MOF
DOI: 10.1016/j.micromeso.2009.06.014
Adsorbate Nitrogen: InChIKey IJGRMHOSHXDMSA-UHFFFAOYSA-N
Temperature: 77 K
Tabular data in the source: 0
pressure (bar)	uptake (cm3(STP)/g)
1.17e-06	58.8477
1.89e-06	83.2517
2.77e-06	101.464
3.7e-06	114.941
1.54e-05	176.861
2.8e-05	206.364
4.01e-05	219.841
5.22e-05	227.855
0.000124	248.616
0.00027	263.914
0.00043	271.563
0.000566	275.57
0.000729	278.848
0.00224694	293.418
0.00385253	302.159
0.00461102	305.073
0.00538817	306.166
0.00622132	307.623
0.00701321	308.716
0.00809762	306.894
0.00923837	311.265
0.0166174	316
0.0206169	318.914
0.0252745	320.736
0.035349	323.285
0.0449206	324.014
0.0683227	328.385
0.093294	330.57
0.115748	331.663
0.141897	332.755
0.163838	334.212
0.193759	334.941
0.218422	336.034
0.237531	336.034
0.264576	336.034
0.294701	337.126
