Adsorption isotherm of Carbon Dioxide on Soc-MOF
DOI: 10.1016/j.micromeso.2009.06.014
Adsorbate Carbon Dioxide: InChIKey CURLTUGMZLYLDI-UHFFFAOYSA-N
Temperature: 273 K
Tabular data in the source: 0
pressure (bar)	uptake (cm3(STP)/g)
0.00103	0.408187
0.00299	0.561754
0.00504	1.17602
0.00723	1.32959
0.00913	1.48316
0.0103	2.40456
0.0239	4.40093
0.0338	7.01157
0.0487829	9.31507
0.0603126	11.465
0.0840932	15.1506
0.106951	18.9898
0.154489	26.361
0.207918	33.7322
0.258883	40.0285
0.306772	47.2461
0.353381	54.9245
0.401354	59.3779
0.452626	64.7528
0.499734	70.4347
0.551744	75.1953
0.604874	80.263
0.658447	84.4093
0.711714	88.8628
0.742564	92.0877
0.825665	97.309
0.861453	100.227
0.898793	103.145
0.964658	106.062
0.992336	108.519
1.1759	116.044
1.58258	130.172
2.02705	138.311
2.19103	141.536
2.59634	146.45
3.37288	155.664
4.41277	162.421
5.45571	167.643
7.08747	175.167
11.0659	186.839
15.1051	193.288
19.3473	196.82
22.1298	197.127
24.4329	195.285
