Adsorption isotherm of Methane on Soc-MOF
DOI: 10.1016/j.micromeso.2009.06.014
Adsorbate Methane: InChIKey VNWKTOKETHGBQD-UHFFFAOYSA-N
Temperature: 323 K
Tabular data in the source: 0
pressure (bar)	uptake (mmol/g)
0.747593	0.231047
1.57762	0.548736
2.24248	0.722022
2.74097	0.866426
3.23917	1.03971
4.15313	1.29964
5.56649	1.61733
6.89711	1.87726
8.22834	2.07942
10.5581	2.42599
13.7208	2.80144
16.2187	3.00361
20.1321	3.3213
22.2142	3.43682
26.2948	3.69675
