Adsorption isotherm of Methane on Soc-MOF
DOI: 10.1016/j.micromeso.2009.06.014
Adsorbate Methane: InChIKey VNWKTOKETHGBQD-UHFFFAOYSA-N
Temperature: 273 K
Tabular data in the source: 0
pressure (bar)	uptake (mmol/g)
0.409216	0.487805
0.737451	0.731707
1.22908	1.21951
1.72129	1.60976
2.04981	1.80488
2.46075	2
2.95325	2.34146
3.36448	2.4878
3.77541	2.68293
4.35119	2.87805
4.92696	3.07317
5.7497	3.31707
6.49089	3.41463
7.14937	3.56098
8.21965	3.7561
9.70173	4
11.3486	4.2439
12.831	4.43902
14.4785	4.58537
16.0436	4.73171
19.9152	5.07317
22.0572	5.21951
24.1995	5.31707
25.6827	5.36585
27.1656	5.46341
