Adsorption isotherm of Carbon Dioxide on Soc-MOF
DOI: 10.1016/j.micromeso.2009.06.014
Adsorbate Carbon Dioxide: InChIKey CURLTUGMZLYLDI-UHFFFAOYSA-N
Temperature: 298 K
Tabular data in the source: 0
pressure (bar)	uptake (mmol/g)
0.32565	0.682927
0.652161	1.21951
0.732856	1.5122
1.22277	2.29268
1.71325	2.97561
2.28644	3.60976
2.6141	3.95122
3.76393	4.63415
3.9279	4.78049
4.91433	5.21951
6.47739	5.70732
7.95832	6.14634
9.60524	6.39024
16.1958	6.87805
20.6452	7.07317
25.9188	7.26829
