Adsorption isotherm of Carbon Dioxide on Soc-MOF
DOI: 10.1016/j.micromeso.2009.06.014
Adsorbate Carbon Dioxide: InChIKey CURLTUGMZLYLDI-UHFFFAOYSA-N
Temperature: 273 K
Tabular data in the source: 0
pressure (bar)	uptake (mmol/g)
0.0774292	0.682682
0.155993	1.22885
0.159113	0.853423
0.234273	1.80914
0.236826	1.50198
0.314539	2.15053
0.39452	2.52605
0.395371	2.42366
0.474219	2.93569
0.476488	2.66266
0.553633	3.37947
0.555335	3.17469
0.63475	3.61847
0.714448	4.02812
0.71615	3.82334
0.794997	4.33538
0.796415	4.16473
0.87668	4.50612
0.958364	4.67686
1.0392	4.94999
1.04033	4.81347
1.20313	5.22321
1.61353	5.83801
2.02592	6.21391
2.19071	6.38474
2.60452	6.58999
3.34903	7.0004
4.50905	7.41127
5.50428	7.65131
7.24687	7.96046
11.2304	8.61346
15.7147	8.99399
19.7011	9.30569
22.4428	9.37707
23.0246	9.37773
23.8559	9.34455
25.019	9.38
