Adsorption isotherm of Carbon Dioxide on Soc-MOF
DOI: 10.1016/j.micromeso.2009.06.014
Adsorbate Carbon Dioxide: InChIKey CURLTUGMZLYLDI-UHFFFAOYSA-N
Temperature: 273 K
Tabular data in the source: 0
pressure (bar)	uptake (mmol/g)
0.238063	1.56098
0.240074	1.21951
0.242945	0.731707
0.399452	2.14634
0.478998	2.63415
0.558257	3.17073
0.63809	3.60976
0.717062	4.19512
0.718785	3.90244
0.878738	4.73171
0.880748	4.39024
0.95972	4.97561
1.20582	5.17073
1.69631	5.85366
2.02397	6.19512
2.18823	6.29268
2.59888	6.53659
3.42076	6.92683
4.48989	7.31707
5.47775	7.5122
7.28893	7.85366
11.2418	8.39024
15.7733	8.63415
19.7282	8.82927
22.6129	8.82927
23.1898	8.82927
23.9318	8.78049
25.2505	8.78049
