Adsorption isotherm of Hydrogen on Soc-MOF
DOI: 10.1016/j.micromeso.2009.06.014
Adsorbate Hydrogen: InChIKey UFHFLCQGNIYNRP-UHFFFAOYSA-N
Temperature: 107 K
Tabular data in the source: 0
pressure (bar)	uptake (cm3(STP)/g)
0.0257761	0.81897
0.0496827	2.50004
0.0745853	4.51732
0.102476	6.36649
0.124391	8.04756
0.151285	9.2243
0.17818	11.5778
0.201091	12.4183
0.226989	14.7718
0.253884	16.1167
0.280779	17.6296
0.301697	18.6383
0.325604	20.4875
0.356483	22.3366
0.382382	22.8409
0.407285	25.0263
0.432187	26.3712
0.45709	27.3798
0.483985	28.5566
0.506895	29.9014
0.53379	31.5825
0.557697	32.7592
0.583595	33.936
0.608498	35.1127
0.634397	36.6257
0.662288	37.9705
0.685198	38.8111
0.708109	40.1559
0.736996	41.1646
0.759906	42.1732
0.785805	43.6862
0.811704	44.3586
0.837602	45.5353
0.861509	46.544
0.8894	48.0569
0.914303	48.7294
0.939205	49.738
0.963112	51.0829
0.98901	52.0915
1.01192	52.5958
