Adsorption isotherm of Carbon Dioxide on Soc-MOF
DOI: 10.1016/j.micromeso.2009.06.014
Adsorbate Carbon Dioxide: InChIKey CURLTUGMZLYLDI-UHFFFAOYSA-N
Temperature: 298 K
Tabular data in the source: 0
pressure (bar)	uptake (mmol/g)
0.326451	0.717095
0.652334	1.50245
0.65432	1.26354
1.22696	2.35634
1.63736	2.97115
1.71989	3.0395
2.21368	3.62027
2.62579	4.03029
3.70015	4.74824
3.94861	4.85091
4.85847	5.36389
6.35005	5.87753
7.92558	6.28888
9.58478	6.63206
16.1444	7.28799
20.5463	7.60017
25.8622	7.91338
