Adsorption isotherm of Methane on Soc-MOF
DOI: 10.1016/j.micromeso.2009.06.014
Adsorbate Methane: InChIKey VNWKTOKETHGBQD-UHFFFAOYSA-N
Temperature: 323 K
Tabular data in the source: 0
pressure (bar)	uptake (mmol/g)
1.57792	0.519856
2.24308	0.66426
2.74128	0.837545
3.24007	0.953069
4.15403	1.213
5.65072	1.53069
6.98195	1.73285
8.22984	1.93502
10.6438	2.19495
13.7238	2.51264
16.3054	2.68592
20.1363	2.91697
22.3017	3.03249
26.3836	3.1769
