Adsorption isotherm of Methane on Soc-MOF
DOI: 10.1016/j.micromeso.2009.06.014
Adsorbate Methane: InChIKey VNWKTOKETHGBQD-UHFFFAOYSA-N
Temperature: 298 K
Tabular data in the source: 0
pressure (bar)	uptake (mmol/g)
1.23282	0.585366
2.0547	0.97561
2.54777	1.21951
3.28809	1.46341
4.19296	1.7561
5.34508	2.04878
6.57991	2.29268
8.8853	2.68293
10.2028	2.87805
12.1794	3.12195
13.9917	3.26829
16.2983	3.46341
18.0288	3.5122
20.3356	3.65854
22.0661	3.70732
24.126	3.80488
