Adsorption isotherm of Methane on Soc-MOF
DOI: 10.1016/j.micromeso.2009.06.014
Adsorbate Methane: InChIKey VNWKTOKETHGBQD-UHFFFAOYSA-N
Temperature: 273 K
Tabular data in the source: 0
pressure (bar)	uptake (mmol/g)
0.330325	0.288809
0.411552	0.490975
0.658845	0.750903
1.3204	1.24188
1.65042	1.55957
2.06438	1.81949
2.47894	2.02166
2.97593	2.31047
3.39079	2.48375
3.80535	2.68592
4.38658	2.88809
4.96811	3.06137
5.79904	3.29242
6.4642	3.43682
7.12936	3.58123
8.21089	3.75451
9.70788	4.04332
11.3721	4.27437
12.8703	4.44765
14.4522	4.59206
15.9507	4.73646
19.864	5.05415
24.111	5.34296
27.0268	5.4296
