Adsorption isotherm of Carbon Dioxide on Soc-MOF
DOI: 10.1016/j.micromeso.2009.06.014
Adsorbate Carbon Dioxide: InChIKey CURLTUGMZLYLDI-UHFFFAOYSA-N
Temperature: 323 K
Tabular data in the source: 0
pressure (bar)	uptake (mmol/g)
0.576607	0.61499
0.988712	1.02502
1.48335	1.50339
1.73039	1.77671
1.97714	2.08416
2.47291	2.42602
2.96897	2.73375
3.29911	3.00717
4.04334	3.4517
5.61688	4.10195
7.44058	4.6501
11.5886	5.50806
15.9881	6.09327
19.9736	6.50736
23.6275	6.81869
