Adsorption isotherm of Argon on Carbon
DOI: 10.1016/j.micromeso.2009.06.014
Adsorbate Argon: InChIKey XKRFYHLGVUSROY-UHFFFAOYSA-N
Temperature: 87 K
Tabular data in the source: 0
pressure (bar)	uptake (cm3(STP)/g)
2.41e-06	2.78122
4.39e-06	5.75918
7.29e-06	11.1972
1.2e-05	18.8363
2.02e-05	31.3955
3.37e-05	46.9326
4.54e-05	58.9739
5.76e-05	72.5689
7.7e-05	89.9187
0.000113	116.72
0.000155	140.803
0.000195	153.88
0.000257	169.288
0.000381	185.213
0.000583	196.866
0.000963	210.461
0.0015164	224.962
0.00196896	236.615
0.00296046	251.505
0.00467988	264.323
0.0068871	274.293
0.0109653	287.758
0.017901	302.13
0.0291195	310.546
0.0519858	318.574
0.0982757	326.342
0.168677	332.816
0.360118	341.75
0.713188	353.921
0.970116	365.056
