Adsorption isotherm of Methane on Soc-MOF
DOI: 10.1016/j.micromeso.2009.06.014
Adsorbate Methane: InChIKey VNWKTOKETHGBQD-UHFFFAOYSA-N
Temperature: 273 K
Tabular data in the source: 0
pressure (bar)	uptake (mmol/g)
0.246691	0.31769
0.494886	0.490975
0.659146	0.722022
1.23676	1.27076
1.73345	1.58845
2.06408	1.84838
2.39531	2.05054
2.892	2.36823
3.30656	2.5704
3.72142	2.74368
4.38538	3.00361
4.88387	3.14801
5.7145	3.40794
6.4627	3.58123
7.12756	3.75451
8.12575	3.9278
9.70578	4.24549
11.3694	4.5343
12.8673	4.73646
14.4489	4.90975
15.9468	5.11191
19.8592	5.51625
24.022	5.8917
26.9365	6.09386
