Adsorption isotherm of Argon on Soc-MOF
DOI: 10.1016/j.micromeso.2009.06.014
Adsorbate Argon: InChIKey XKRFYHLGVUSROY-UHFFFAOYSA-N
Temperature: 87 K
Tabular data in the source: 0
pressure (bar)	uptake (cm3(STP)/g)
1.34e-06	4.52965
2.16e-06	5.35212
2.91e-06	7.40831
1.34e-05	26.3252
2.57e-05	45.6534
3.8e-05	63.3366
5.26e-05	83.4872
0.00013	150.519
0.00027	201.512
0.000411	221.252
0.000568	233.589
0.000715	242.225
0.00232666	270.763
0.00393749	280.039
0.00569062	286.117
0.00724875	290.275
0.00923351	293.794
0.0182978	303.071
0.0264447	307.229
0.0351335	310.428
0.0466771	313.947
0.0696231	319.704
0.0934772	322.903
0.146962	328.021
0.197313	331.54
0.24098	333.139
0.351958	339.537
0.395146	342.096
0.457861	343.695
0.514045	346.574
0.589396	348.814
0.66172	352.012
0.774854	354.891
0.86083	358.09
0.987015	362.888
