Adsorption isotherm of Hydrogen on Soc-MOF
DOI: 10.1016/j.micromeso.2009.06.014
Adsorbate Hydrogen: InChIKey UFHFLCQGNIYNRP-UHFFFAOYSA-N
Temperature: 97 K
Tabular data in the source: 0
pressure (bar)	uptake (cm3(STP)/g)
0.0128267	1.32329
0.0327489	3.84489
0.0407177	4.1811
0.0516749	5.69406
0.0755814	9.72862
0.104468	12.4183
0.128375	15.6124
0.152282	18.6383
0.180173	21.4961
0.205075	23.8496
0.228982	27.3798
0.255877	29.7333
0.279783	32.423
0.304686	34.6084
0.331581	36.9619
0.357479	39.1473
0.381386	41.837
0.407285	44.3586
0.436172	46.2078
0.45709	48.7294
0.487969	50.2423
0.507891	52.5958
0.536778	54.445
0.555704	56.4623
0.588576	58.1433
0.611486	60.665
0.634397	61.1693
0.662288	64.0271
0.68719	65.54
0.711097	67.3892
0.736	68.566
0.764887	70.247
0.786801	71.76
0.813696	73.7773
0.838598	74.7859
0.864497	76.6351
0.8894	77.4756
0.917291	79.8291
0.940201	80.6696
0.969088	82.1826
0.993991	83.3594
1.01491	85.2085
