Adsorption isotherm of Carbon Dioxide on Soc-MOF
DOI: 10.1016/j.micromeso.2009.06.014
Adsorbate Carbon Dioxide: InChIKey CURLTUGMZLYLDI-UHFFFAOYSA-N
Temperature: 273 K
Tabular data in the source: 0
pressure (bar)	uptake (mmol/g)
0.502793	2.5526
1.00559	4.21867
1.67598	5.24625
2.17877	5.88395
2.68156	6.23797
2.93296	6.41497
3.26816	6.62734
4.27374	7.05169
5.44693	7.47583
6.28492	7.65215
8.04469	8.00468
11.8994	8.63842
15.838	9.05929
19.8603	9.30277
22.5419	9.44144
23.0447	9.40538
23.8827	9.43985
25.2235	9.43827
