Adsorption isotherm of Carbon Dioxide on Soc-MOF
DOI: 10.1016/j.micromeso.2009.06.014
Adsorbate Carbon Dioxide: InChIKey CURLTUGMZLYLDI-UHFFFAOYSA-N
Temperature: 298 K
Tabular data in the source: 0
pressure (bar)	uptake (mmol/g)
0.326451	0.717095
0.654887	1.19528
0.735152	1.53667
1.22696	2.35634
1.63736	2.97115
2.21397	3.58614
2.54325	3.96194
3.94946	4.74852
4.94242	5.2616
6.43428	5.74111
8.00981	6.15246
9.58648	6.42729
16.2304	6.94679
20.4671	7.12226
25.7839	7.33309
