Adsorption isotherm of Carbon Dioxide on Soc-MOF
DOI: 10.1016/j.micromeso.2009.06.014
Adsorbate Carbon Dioxide: InChIKey CURLTUGMZLYLDI-UHFFFAOYSA-N
Temperature: 273 K
Tabular data in the source: 0
pressure (bar)	uptake (mmol/g)
0.159113	0.853423
0.234273	1.80914
0.395655	2.38953
0.472233	3.1746
0.63475	3.61847
1.20313	5.22321
1.61382	5.80388
2.02621	6.17978
2.6048	6.55586
3.43241	6.96636
4.4268	7.30879
5.50542	7.5148
7.4142	7.82413
11.3154	8.37465
15.7179	8.61856
19.7056	8.75962
22.5308	8.79696
23.0297	8.7634
23.7779	8.73012
25.0244	8.73154
