Adsorption isotherm of Methane on Soc-MOF
DOI: 10.1016/j.micromeso.2009.06.014
Adsorbate Methane: InChIKey VNWKTOKETHGBQD-UHFFFAOYSA-N
Temperature: 323 K
Tabular data in the source: 0
pressure (bar)	uptake (mmol/g)
1.64548	0.487805
2.13912	0.634146
2.63277	0.780488
3.12641	0.926829
3.53764	1.07317
4.1964	1.17073
4.77218	1.36585
5.67791	1.5122
6.25397	1.65854
6.99544	1.70732
7.65392	1.85366
8.23056	1.90244
9.30084	2.09756
10.6189	2.19512
12.1016	2.34146
13.7488	2.53659
15.1493	2.63415
16.2205	2.68293
18.4449	2.82927
20.2578	2.87805
21.5759	2.97561
22.3174	3.02439
