Adsorption isotherm of Methane on Soc-MOF
DOI: 10.1016/j.micromeso.2009.06.014
Adsorbate Methane: InChIKey VNWKTOKETHGBQD-UHFFFAOYSA-N
Temperature: 107 K
Tabular data in the source: 0
pressure (bar)	uptake (cm3(STP)/g)
2.73139e-06	4.8951
3.2987e-06	7.34266
3.5574e-06	12.2378
3.83639e-06	12.2378
8.80183e-06	29.3706
1.23627e-05	41.6084
1.94461e-05	59.965
3.42565e-05	89.3357
0.000102365	143.182
0.000128385	156.643
0.000194463	171.329
0.000273135	181.119
0.000329872	186.014
0.000398394	190.909
0.000481149	194.58
0.00051888	197.028
0.000675804	200.699
0.00133	211.713
0.00201944	216.608
0.00329872	222.727
0.00463326	225.175
0.0053884	227.622
0.0060345	228.846
0.00675804	231.294
0.0128384	236.189
0.016721	237.413
0.0201945	238.636
0.0253275	241.084
0.032987	242.308
0.0499658	247.203
0.0675808	248.427
0.0847585	252.098
0.102365	252.098
0.114639	255.769
0.133322	255.769
0.16721	256.993
0.187259	258.217
0.243895	259.441
0.317653	263.112
0.398394	263.112
0.481153	263.112
0.603452	265.559
0.675808	266.783
