Adsorption isotherm of Hydrogen on Soc-MOF
DOI: 10.1016/j.micromeso.2009.06.014
Adsorbate Hydrogen: InChIKey UFHFLCQGNIYNRP-UHFFFAOYSA-N
Temperature: 87 K
Tabular data in the source: 0
pressure (bar)	uptake (cm3(STP)/g)
0.00884232	3.34057
0.0178073	6.03028
0.0307566	9.39241
0.0417138	13.2589
0.0496827	15.4443
0.0775736	23.0091
0.10148	28.7247
0.125387	34.7765
0.150289	39.9878
0.177184	46.2078
0.202087	50.5785
0.227986	55.6217
0.253884	60.1606
0.278787	64.6995
0.305682	68.3979
0.330584	72.7686
0.355487	76.2989
0.384374	79.8291
0.407285	83.5275
0.433183	86.8896
0.455098	89.4112
0.484981	93.1095
0.508887	95.463
0.534786	98.8252
0.558693	101.179
0.58758	104.541
0.61049	106.558
0.636389	109.248
0.660296	111.097
0.68719	113.619
0.712093	116.476
0.736996	118.157
0.763891	120.511
0.788793	122.024
0.813696	124.041
0.840591	126.058
0.866489	127.74
0.891392	130.429
0.918287	131.438
0.942194	133.287
0.968092	134.8
0.991003	136.649
1.01092	137.994
