Adsorption isotherm of Argon on Zeolite Pore Model
DOI: 10.1016/j.micromeso.2009.06.014
Adsorbate Argon: InChIKey XKRFYHLGVUSROY-UHFFFAOYSA-N
Temperature: 87 K
Tabular data in the source: 0
pressure (bar)	uptake (cm3(STP)/g)
5.36e-06	5.91031
9.64e-06	10.9178
1.61e-05	18.8785
3.6e-05	41.7742
5.6e-05	63.2969
8.18e-05	84.964
0.000117	108.076
0.000191	146.065
0.000317	177.41
0.000479	198.355
0.00079	221.9
0.00118159	236.056
0.0020743	250.645
0.00423784	268.99
0.00926584	283.868
0.0282159	305.102
0.07562	320.124
0.176806	333.325
0.344411	341.369
0.657481	351.607
0.945881	361.113
1.04643	368.426
