Adsorption isotherm of Carbon Dioxide on Soc-MOF
DOI: 10.1016/j.micromeso.2009.06.014
Adsorbate Carbon Dioxide: InChIKey CURLTUGMZLYLDI-UHFFFAOYSA-N
Temperature: 323 K
Tabular data in the source: 0
pressure (bar)	uptake (mmol/g)
0.90085	0.97561
1.39248	1.46341
1.72072	1.70732
2.04867	2
2.45874	2.34146
2.95153	2.63415
3.44431	2.92683
4.10135	3.31707
4.8411	3.65854
5.66355	3.95122
6.32146	4.19512
7.47387	4.43902
9.20234	4.82927
11.6726	5.21951
13.2368	5.5122
16.0375	5.7561
17.685	5.90244
19.9922	6
21.6399	6.09756
23.6995	6.2439
