Adsorption isotherm of Carbon Dioxide on Soc-MOF
DOI: 10.1016/j.micromeso.2009.06.014
Adsorbate Carbon Dioxide: InChIKey CURLTUGMZLYLDI-UHFFFAOYSA-N
Temperature: 273 K
Tabular data in the source: 0
pressure (bar)	uptake (mmol/g)
0.0829736	0.0708239
0.479765	2.58809
1.05139	4.18315
1.62747	5.2463
2.2068	5.91938
2.62167	6.2735
2.95475	6.41495
3.28724	6.62732
4.20291	7.05177
5.28631	7.4051
6.28673	7.6876
7.95569	7.96932
11.7941	8.63854
15.7188	8.98851
19.7273	9.30292
22.5682	9.33503
22.9861	9.33453
23.8217	9.33354
25.1585	9.36742
