Adsorption isotherm of Carbon Dioxide on Soc-MOF
DOI: 10.1016/j.micromeso.2009.06.014
Adsorbate Carbon Dioxide: InChIKey CURLTUGMZLYLDI-UHFFFAOYSA-N
Temperature: 323 K
Tabular data in the source: 0
pressure (bar)	uptake (mmol/g)
0.576607	0.61499
0.90561	1.02492
1.40025	1.5033
1.73039	1.77671
1.97714	2.08416
2.47348	2.35776
2.96954	2.66549
3.38249	2.97313
4.12729	3.34941
5.61773	3.99957
7.44172	4.51359
11.5903	5.30329
15.9907	5.78611
19.977	6.09781
23.6315	6.34088
