Adsorption isotherm of Methane on Soc-MOF
DOI: 10.1016/j.micromeso.2009.06.014
Adsorbate Methane: InChIKey VNWKTOKETHGBQD-UHFFFAOYSA-N
Temperature: 298 K
Tabular data in the source: 0
pressure (bar)	uptake (mmol/g)
1.24368	0.606498
1.98947	1.01083
2.5701	1.27076
3.31709	1.55957
4.23075	1.84838
5.22744	2.16606
6.47443	2.45487
8.88658	2.88809
10.1342	3.11913
12.2151	3.35018
13.963	3.55235
16.2106	3.78339
20.2076	4.0722
24.0385	4.30325
27.8691	4.56318
