Adsorption isotherm of Methane on Soc-MOF
DOI: 10.1016/j.micromeso.2009.06.014
Adsorbate Methane: InChIKey VNWKTOKETHGBQD-UHFFFAOYSA-N
Temperature: 298 K
Tabular data in the source: 0
pressure (bar)	uptake (mmol/g)
1.24398	0.577617
1.99007	0.953069
2.5704	1.24188
3.31769	1.50181
4.23165	1.76173
5.22864	2.05054
6.55897	2.33935
8.97202	2.68592
10.1366	2.88809
12.1342	3.11913
13.8827	3.26354
16.2975	3.43682
20.2118	3.66787
24.0436	3.81227
27.8755	3.95668
