Adsorption isotherm of Nitrogen on HPW/CuBTC
DOI: 10.1016/j.cattod.2011.03.017
Adsorbate Nitrogen: InChIKey IJGRMHOSHXDMSA-UHFFFAOYSA-N
Temperature: 77 K
Tabular data in the source: 0
pressure (bar)	uptake (cm3(STP)/g)
0.0349747	0.671141
0.122412	1.34228
0.209848	2.01342
0.340032	2.01342
0.483817	2.68456
0.553766	2.68456
0.614001	2.68456
0.650918	2.01342
0.705324	2.68456
0.746127	2.68456
0.775273	2.68456
0.794703	2.68456
0.814134	2.68456
0.833564	3.3557
0.852995	4.02685
0.870482	4.69799
0.889912	6.04027
0.9074	8.72483
0.922944	12.0805
0.938488	16.1074
