Adsorption isotherm of Nitrogen on CuBTC
DOI: 10.1016/j.cattod.2011.03.017
Adsorbate Nitrogen: InChIKey IJGRMHOSHXDMSA-UHFFFAOYSA-N
Temperature: 77 K
Tabular data in the source: 0
pressure (bar)	uptake (cm3(STP)/g)
0.00244101	192.122
0.00488201	208.382
0.014646	215.786
0.0366151	221.731
0.0781122	227.705
0.114727	232.194
0.156224	233.735
0.197721	235.276
0.244101	236.825
0.285598	238.365
0.336859	239.921
0.378356	239.984
0.432058	240.066
0.495524	241.64
0.554108	243.207
0.615133	243.3
0.659071	243.367
0.70545	244.915
0.744507	243.497
0.803091	246.542
0.861675	246.631
0.883644	251.098
0.905613	252.609
0.925141	260.028
0.942228	274.832
