Adsorption isotherm of Nitrogen on HPW/CuBTC
DOI: 10.1016/j.cattod.2011.03.017
Adsorbate Nitrogen: InChIKey IJGRMHOSHXDMSA-UHFFFAOYSA-N
Temperature: 77 K
Tabular data in the source: 0
pressure (bar)	uptake (cm3(STP)/g)
0.00582912	104.027
0.0155443	110.067
0.0310886	113.423
0.0446899	115.436
0.0641203	117.45
0.0816077	118.792
0.101038	120.805
0.118525	121.477
0.137956	122.819
0.157386	123.49
0.176817	124.161
0.194304	125.503
0.213734	126.174
0.233165	126.846
0.252595	127.517
0.272026	128.188
0.289513	128.859
0.308943	129.53
0.328374	129.53
0.347804	130.201
0.365292	131.544
0.384722	132.215
0.404152	132.215
0.423583	132.886
0.443013	133.557
0.4605	134.228
0.479931	134.228
0.499361	134.899
0.518792	134.899
0.538222	134.899
0.557652	135.57
0.577083	135.57
0.596513	135.57
0.615944	136.242
0.635374	136.242
0.654804	136.913
0.672292	136.913
0.691722	137.584
0.711153	137.584
0.730583	138.255
0.750013	138.255
0.769444	138.926
0.788874	139.597
0.806362	139.597
0.825792	140.94
0.845222	141.611
0.86271	142.953
0.88214	144.966
0.897684	148.322
0.922944	157.718
0.932659	163.087
