Adsorption isotherm of Nitrogen on HPW/CuBTC
DOI: 10.1016/j.cattod.2011.03.017
Adsorbate Nitrogen: InChIKey IJGRMHOSHXDMSA-UHFFFAOYSA-N
Temperature: 77 K
Tabular data in the source: 0
pressure (bar)	uptake (cm3(STP)/g)
0.00244101	0.00244101
0.00732302	101.982
0.0244101	112.352
0.0488201	115.345
0.0707891	118.334
0.0951992	119.849
0.119609	121.364
0.141578	122.875
0.165988	124.39
0.190398	124.428
0.214808	125.943
0.239218	127.457
0.263629	127.495
0.285598	129.006
0.310008	129.043
0.334418	130.558
0.358828	130.595
0.383238	132.11
0.407648	132.147
0.432058	133.662
0.456468	133.699
0.480878	133.736
0.502847	135.248
0.527257	135.285
0.551667	135.322
0.576077	135.359
0.600487	136.874
0.624897	136.911
0.649307	136.948
0.673717	136.985
0.698127	138.5
0.722537	138.538
0.746948	138.575
0.771358	140.09
0.795768	140.127
0.820178	141.642
0.842147	141.675
0.866557	143.19
0.890967	146.183
0.912936	152.128
0.932464	162.502
