Adsorption isotherm of Nitrogen on Liu-COF 2 (THF)
DOI: 10.1002/anie.202113348
Article source: Figure S27
Adsorbate Nitrogen: InChIKey IJGRMHOSHXDMSA-UHFFFAOYSA-N
Kind: experiment
Temperature: 77 K
Tabular data in the source: 0
pressure (bar)	uptake (cm3(STP)/g)
0.005395	10.2941
0.005328	33.6898
0.004051	60.4278
0.007542	98.3066
0.005043	132.843
0.007365	159.581
0.007307	179.635
0.007218	210.829
0.010749	234.225
0.052647	266.533
0.084998	281.016
0.118565	289.929
0.159337	296.613
0.197722	298.841
0.233698	304.412
0.264879	308.868
0.296065	311.096
0.335647	314.439
0.371636	315.553
0.405216	320.009
0.439986	327.807
0.477162	333.378
0.510748	335.606
0.54793	338.948
0.583903	345.633
0.61389	347.861
0.654665	353.431
0.69185	355.66
0.718225	362.344
0.755395	370.143
0.792583	371.257
0.834526	387.968
0.865687	399.109
0.900415	421.39
0.936324	450.357
0.966173	500.49
1.00898	635.294
1.00536	639.75
0.970645	614.127
0.941992	565.107
0.907348	513.859
0.861915	459.269
0.79726	413.592
0.763719	395.766
0.726566	382.397
0.689393	375.713
0.65462	369.029
0.603054	361.23
0.567071	357.888
0.519095	353.431
0.475911	351.203
0.443534	345.633
0.400366	337.834
0.366779	335.606
0.334409	327.807
0.302042	318.895
0.264859	315.553
0.231267	315.553
0.196484	312.21
0.12212	305.526
0.087353	296.613
0.050216	277.674
