Adsorption isotherm of Nitrogen on Liu-COF 2 (Pristine)
DOI: 10.1002/anie.202113348
Article source: Figure 2E
Adsorbate Nitrogen: InChIKey IJGRMHOSHXDMSA-UHFFFAOYSA-N
Kind: experiment
Temperature: 77 K
Tabular data in the source: 0
pressure (bar)	uptake (cm3(STP)/g)
0.005657	223.644
0.005322	231.633
0.005322	241.841
0.008333	254.27
0.05082	285.806
0.096651	297.816
0.127429	303.825
0.160548	309.392
0.197013	312.963
0.231471	318.086
0.266932	321.213
0.299717	325.226
0.335847	326.8
0.368967	328.594
0.404093	331.277
0.441227	333.739
0.476354	335.978
0.512484	337.774
0.547611	340.235
0.583072	340.477
0.618533	344.491
0.655332	345.843
0.688786	347.194
0.725251	350.099
0.761047	352.561
0.79517	356.796
0.831635	358.814
0.865758	363.938
0.901888	372.169
0.938018	383.507
0.970468	405.495
1.0066	492.063
1.00626	492.506
0.968127	464.745
0.933335	435.655
0.894862	411.222
0.86743	397.67
0.832973	385.445
0.796508	375.216
0.760043	369.204
0.723913	364.523
0.687448	360.73
0.653325	357.604
0.617195	354.699
0.581734	352.237
0.545938	349.554
0.51148	346.428
0.476019	343.745
0.438551	340.173
0.404093	337.269
0.369301	335.03
0.332836	333.234
0.298044	329.442
0.262918	328.756
0.227122	324.963
0.190992	320.948
0.156199	316.268
0.120738	311.366
0.085612	303.357
0.049816	293.573
