Adsorption isotherm of Nitrogen on Liu-COF 2 (DCM)
DOI: 10.1002/anie.202113348
Article source: Figure S27
Adsorbate Nitrogen: InChIKey IJGRMHOSHXDMSA-UHFFFAOYSA-N
Kind: experiment
Temperature: 77 K
Tabular data in the source: 0
pressure (bar)	uptake (cm3(STP)/g)
0.006598	9.18004
0.006554	24.7772
0.006515	38.1462
0.006483	49.287
0.006454	59.3137
0.006425	69.3405
0.006396	79.3672
0.006361	91.6221
0.006335	100.535
0.006287	117.246
0.007436	135.071
0.005591	150.668
0.003727	172.95
0.003676	190.775
0.006021	209.715
0.004773	226.426
0.009534	239.795
0.051425	274.332
0.092168	291.043
0.124542	297.727
0.159315	304.412
0.195291	309.982
0.228877	312.21
0.26485	318.895
0.299636	321.123
0.336818	324.465
0.371601	327.807
0.406384	331.15
0.442363	335.606
0.475946	338.948
0.510735	340.062
0.546714	344.519
0.583897	347.861
0.617473	353.431
0.652253	357.888
0.688238	360.116
0.723015	365.686
0.760187	372.371
0.796144	384.626
0.832111	393.538
0.866868	405.793
0.900415	421.39
0.933931	448.128
0.970985	496.034
1.0053	660.918
1.0041	660.918
0.964585	635.294
0.941931	586.275
0.895369	507.175
0.865485	469.296
0.834369	442.558
0.796045	419.162
0.761288	406.907
0.725334	393.538
0.689368	384.626
0.652198	376.827
0.617425	370.143
0.581452	363.458
0.547872	359.002
0.510693	354.545
0.474714	350.089
0.439934	345.633
0.402755	341.176
0.370375	336.72
0.334396	332.264
0.29842	326.693
0.262438	323.351
0.227658	318.895
0.192882	313.324
0.156902	308.868
0.122129	302.184
0.087353	296.613
0.051406	281.016
