Adsorption isotherm of Nitrogen on Liu-COF 2 (DMSO)
DOI: 10.1002/anie.202113348
Article source: Figure S27
Adsorbate Nitrogen: InChIKey IJGRMHOSHXDMSA-UHFFFAOYSA-N
Kind: experiment
Temperature: 77 K
Tabular data in the source: 0
pressure (bar)	uptake (cm3(STP)/g)
0.00657	19.2068
0.00528	50.4011
0.006387	82.7094
0.005062	126.159
0.006181	154.011
0.004866	194.118
0.007169	227.54
0.00708	258.734
0.050193	285.472
0.084963	293.271
0.123332	301.07
0.154506	307.754
0.196487	311.096
0.23247	314.439
0.266053	317.781
0.302048	316.667
0.334425	322.237
0.375216	322.237
0.402804	324.465
0.439989	326.693
0.478377	327.807
0.510764	330.036
0.545543	334.492
0.581532	335.606
0.618715	338.948
0.653504	340.062
0.690686	343.405
0.723066	347.861
0.762056	348.418
0.796237	352.317
0.829814	357.888
0.86339	363.458
0.900557	372.371
0.93651	385.74
0.967626	412.478
1.00575	506.061
1.00455	507.175
0.96865	473.752
0.935153	440.33
0.904034	414.706
0.865694	396.881
0.832139	383.512
0.794973	374.599
0.75901	364.572
0.72423	360.116
0.688251	355.66
0.652272	351.203
0.618683	350.089
0.5827	346.747
0.541919	343.405
0.511932	341.176
0.473553	336.72
0.442382	328.922
0.406396	326.693
0.366815	323.351
0.335625	322.237
0.299649	316.667
0.264866	313.324
0.228883	309.982
0.195307	304.412
0.158128	299.955
0.123355	293.271
0.090981	286.586
0.049016	277.674
0.010727	242.023
