Adsorption isotherm of Nitrogen on Liu-COF 1 (20M NaOH)
DOI: 10.1002/anie.202113348
Article source: Figure 2D
Adsorbate Nitrogen: InChIKey IJGRMHOSHXDMSA-UHFFFAOYSA-N
Kind: experiment
Temperature: 77 K
Tabular data in the source: 0
pressure (bar)	uptake (cm3(STP)/g)
0.006753	390.808
0.006183	413.553
0.006753	430.023
0.009032	444.925
0.05063	499.826
0.08482	526.493
0.115591	546.885
0.156049	570.414
0.190239	593.159
0.224429	618.256
0.261468	734.333
0.297937	773.549
0.334406	779.039
0.384552	789.235
0.405066	793.156
0.437546	797.862
0.475725	801.784
0.512764	805.705
0.547524	808.842
0.582853	813.548
0.618753	814.333
0.655792	818.254
0.688842	822.176
0.725881	826.881
0.759502	833.156
0.795971	837.077
0.830731	843.352
0.86606	850.411
0.90139	857.469
0.93615	876.293
0.96863	906.096
1.00282	1009.62
1.00168	1011.19
0.976608	971.193
0.940708	928.841
0.90139	899.037
0.86777	877.861
0.831301	864.528
0.79768	855.116
0.761781	847.273
0.725312	839.43
0.689412	833.94
0.651803	830.803
0.601088	823.744
0.583423	820.607
0.545244	816.685
0.513334	811.195
0.475725	808.058
0.440965	804.921
0.403926	800.215
0.369736	795.509
0.335546	788.451
0.297937	781.392
0.263177	775.902
0.231267	644.138
0.187959	600.217
0.15263	574.335
0.127557	554.728
0.086529	527.277
0.052339	503.748
