Adsorption isotherm of Nitrogen on Liu-COF 2 (0.1M HCl)
DOI: 10.1002/anie.202113348
Article source: Figure 2E
Adsorbate Nitrogen: InChIKey IJGRMHOSHXDMSA-UHFFFAOYSA-N
Kind: experiment
Temperature: 77 K
Tabular data in the source: 0
pressure (bar)	uptake (cm3(STP)/g)
0.002226	3.87101
0.002226	10.7735
0.001648	18.4426
0.001648	24.1946
0.001648	33.0145
0.001648	40.6839
0.001648	49.8872
0.002804	60.2416
0.002226	69.828
0.002804	77.4978
0.002804	86.7011
0.002226	95.904
0.002226	105.107
0.001648	112.393
0.001648	120.446
0.001648	127.348
0.002804	135.018
0.002804	144.222
0.005694	152.276
0.008007	162.248
0.049051	186.813
0.095875	197.96
0.120733	201.426
0.155996	206.047
0.191837	208.752
0.2271	211.072
0.26352	213.394
0.299939	214.565
0.334046	216.118
0.369309	217.288
0.40515	219.609
0.439835	220.779
0.47452	221.566
0.512096	223.121
0.546781	222.757
0.581466	225.078
0.619041	225.866
0.653148	227.035
0.688412	229.356
0.723675	232.06
0.76125	234.382
0.795935	238.237
0.830042	242.474
0.864727	248.246
0.900568	257.086
0.936988	272.445
0.969938	303.142
1.00809	445.814
1.00751	445.814
0.968204	387.888
0.930051	338.015
0.890163	302.713
0.869352	286.212
0.83062	272.002
0.795357	260.861
0.759516	254.322
0.725409	249.318
0.691302	246.231
0.654305	242.758
0.617307	241.587
0.581466	240.033
0.548515	239.247
0.512096	237.309
0.476255	234.988
0.438679	229.982
0.403994	228.429
0.369309	225.725
0.335202	224.171
0.297627	223
0.262942	222.213
0.2271	221.426
0.192415	217.955
0.155996	214.867
0.121311	211.396
0.08547	205.624
0.048472	195.249
