Adsorption isotherm of Nitrogen on Liu-COF 2 (Boiling Water)
DOI: 10.1002/anie.202113348
Article source: Figure 2E
Adsorbate Nitrogen: InChIKey IJGRMHOSHXDMSA-UHFFFAOYSA-N
Kind: experiment
Temperature: 77 K
Tabular data in the source: 0
pressure (bar)	uptake (cm3(STP)/g)
0.005694	157.261
0.003382	168.764
0.002226	180.268
0.002226	187.937
0.002804	196.757
0.002226	207.494
0.003093	218.615
0.003382	228.202
0.004538	237.79
0.006272	248.528
0.049629	281.531
0.084314	291.137
0.123623	298.062
0.158886	302.683
0.19415	305.388
0.226522	307.323
0.262364	310.411
0.298205	313.116
0.335202	314.671
0.370465	315.841
0.404572	317.778
0.440992	318.182
0.473364	318.967
0.510362	321.289
0.546781	322.843
0.582044	324.013
0.617885	325.951
0.653148	325.587
0.688412	326.374
0.723675	330.612
0.760672	332.551
0.793623	334.487
0.83062	337.575
0.865883	340.663
0.902881	347.203
0.935253	357.191
0.968782	373.7
1.00636	464.987
1.00751	466.138
0.962423	445.405
0.930051	414.709
0.893053	389.763
0.868774	377.861
0.83062	364.802
0.796513	355.579
0.760094	349.04
0.724253	344.418
0.691302	342.098
0.653148	338.625
0.618463	337.072
0.582044	333.6
0.546203	333.196
0.51094	331.643
0.475098	328.938
0.439835	325.85
0.404572	325.064
0.369887	322.36
0.334624	320.422
0.297627	318.868
0.262364	316.93
0.228257	314.227
0.192993	311.139
0.156574	307.284
0.121311	302.662
0.083736	295.355
0.050785	285.366
