Adsorption isotherm of Nitrogen on Liu-COF 3 (DCM)
DOI: 10.1002/anie.202113348
Article source: Figure S27
Adsorbate Nitrogen: InChIKey IJGRMHOSHXDMSA-UHFFFAOYSA-N
Kind: experiment
Temperature: 77 K
Tabular data in the source: 0
pressure (bar)	uptake (cm3(STP)/g)
0.006626	7.72418
0.006626	17.4858
0.004926	29.501
0.004926	46.3961
0.003793	61.4146
0.004926	71.551
0.006059	86.5682
0.005493	99.3337
0.005493	114.727
0.005493	127.492
0.005493	140.257
0.005493	154.149
0.005493	172.17
0.005493	183.058
0.006626	195.072
0.006626	205.96
0.007192	218.725
0.007759	232.991
0.010025	245.38
0.047981	269.763
0.095	281.751
0.125025	287.742
0.161281	293.353
0.195271	297.84
0.231528	301.95
0.266651	304.183
0.301774	307.918
0.338597	311.276
0.370887	310.883
0.407143	314.242
0.441134	315.725
0.479089	318.332
0.51308	320.191
0.548203	323.926
0.585025	326.909
0.617883	328.392
0.653572	331.752
0.692095	335.109
0.727218	338.094
0.761208	341.829
0.794065	344.439
0.831454	349.675
0.867144	355.662
0.902834	366.155
0.93909	379.275
0.970814	398.781
1.0082	482.485
1.00707	482.486
0.967415	455.475
0.933991	424.332
0.896602	401.826
0.867711	385.698
0.833154	374.078
0.798031	367.339
0.760075	357.974
0.723252	353.489
0.689829	350.879
0.655838	346.768
0.619016	341.908
0.582759	338.924
0.547636	337.067
0.509681	334.835
0.47739	330.723
0.4417	324.36
0.403178	319.501
0.368621	315.765
0.332932	313.157
0.298941	310.923
0.263818	307.188
0.229262	304.203
0.190739	299.719
0.157316	295.983
0.123892	291.121
0.087069	282.506
0.05138	274.266
