Adsorption isotherm of Nitrogen on Liu-COF 2 (NMP)
DOI: 10.1002/anie.202113348
Article source: Figure S27
Adsorbate Nitrogen: InChIKey IJGRMHOSHXDMSA-UHFFFAOYSA-N
Kind: experiment
Temperature: 77 K
Tabular data in the source: 0
pressure (bar)	uptake (cm3(STP)/g)
0.00537	19.2068
0.005309	40.3743
0.004026	69.3405
0.003901	112.79
0.003782	154.011
0.00486	196.346
0.008382	223.084
0.005899	252.05
0.051399	283.244
0.089749	297.727
0.125719	305.526
0.159299	309.982
0.198884	312.21
0.227661	317.781
0.260054	317.781
0.30082	326.693
0.336808	327.807
0.367995	330.036
0.408783	331.15
0.442369	333.378
0.473553	336.72
0.511935	340.062
0.54614	335.606
0.582729	336.72
0.618715	338.948
0.652294	343.405
0.687087	343.405
0.723063	348.975
0.758452	350.089
0.795031	354.545
0.829814	357.888
0.865185	365.129
0.900553	373.485
0.936504	387.968
0.970016	415.82
1.00451	520.544
1.0045	521.658
0.972233	479.323
0.936347	442.558
0.896823	419.162
0.866884	400.223
0.833333	385.74
0.79617	375.713
0.757801	367.914
0.723021	363.458
0.687035	361.23
0.652256	356.774
0.61748	351.203
0.583897	347.861
0.546714	344.519
0.508329	342.291
0.478345	338.948
0.43996	336.72
0.401572	335.606
0.369176	336.72
0.334387	335.606
0.299604	332.264
0.261219	330.036
0.227636	326.693
0.194056	322.237
0.161672	318.895
0.123297	313.324
0.086131	304.412
0.051367	294.385
0.011882	257.62
