Adsorption isotherm of Nitrogen on Liu-COF 2 (20M NaOH)
DOI: 10.1002/anie.202113348
Article source: Figure 2E
Adsorbate Nitrogen: InChIKey IJGRMHOSHXDMSA-UHFFFAOYSA-N
Kind: experiment
Temperature: 77 K
Tabular data in the source: 0
pressure (bar)	uptake (cm3(STP)/g)
0.005232	151.463
0.004399	163.611
0.00396	176.434
0.005116	187.172
0.00685	197.143
0.009163	207.498
0.012053	216.703
0.046738	247.017
0.095297	257.781
0.121889	262.015
0.156574	265.869
0.191837	269.34
0.228257	272.812
0.262942	274.749
0.299361	276.687
0.333468	278.623
0.369309	279.794
0.404572	281.348
0.439257	283.668
0.475677	285.223
0.511518	286.393
0.546781	288.331
0.582622	290.652
0.616729	292.397
0.65257	296.06
0.68899	296.464
0.723964	299.551
0.759516	303.023
0.796513	306.495
0.830042	309.965
0.865305	314.97
0.901725	322.66
0.938722	332.268
0.968782	354.143
1.00867	457.319
1.00694	458.085
0.96358	429.684
0.929473	394.001
0.891319	364.069
0.867618	351.401
0.83062	339.493
0.797091	330.654
0.760672	323.731
0.724542	319.812
0.688412	314.998
0.653726	312.102
0.618078	310.165
0.581466	307.907
0.547263	306.29
0.510651	304.672
0.475484	301.137
0.441281	293.448
0.401778	287.993
0.350714	285.088
0.314584	283.15
0.297723	281.863
0.261111	279.925
0.227389	277.03
0.191259	275.092
0.155611	271.237
0.120926	266.424
0.085759	260.332
0.050592	251.365
