Adsorption isotherm of Nitrogen on Liu-COF 3 (0.1M HCl)
DOI: 10.1002/anie.202113348
Article source: Figure S26
Adsorbate Nitrogen: InChIKey IJGRMHOSHXDMSA-UHFFFAOYSA-N
Kind: experiment
Temperature: 77 K
Tabular data in the source: 0
pressure (bar)	uptake (cm3(STP)/g)
0.005464	5.33585
0.006609	10.3343
0.007178	14.9483
0.00717	19.9468
0.00716	25.7143
0.00715	31.4817
0.007141	36.8647
0.006551	44.1702
0.007117	50.7066
0.007108	55.7051
0.007099	61.0881
0.007092	64.9331
0.007082	71.0851
0.006496	76.0835
0.006487	81.082
0.006477	86.8495
0.007048	90.6945
0.006462	95.6929
0.006452	101.46
0.006448	104.152
0.006441	107.997
0.005853	114.149
0.005846	118.378
0.005833	125.684
0.00698	130.298
0.006966	137.988
0.006958	142.986
0.006371	148.369
0.005208	153.752
0.005775	159.52
0.005761	167.594
0.005751	173.746
0.005739	180.667
0.005732	184.512
0.006299	190.28
0.006868	194.893
0.009165	201.814
0.049123	228.545
0.084006	240.172
0.121396	244.048
0.157121	249.031
0.192854	250.138
0.230246	252.353
0.263482	255.121
0.298383	256.229
0.333285	256.782
0.369018	257.336
0.406414	257.89
0.442145	259.551
0.475384	260.658
0.511948	261.212
0.549341	263.426
0.580087	263.98
0.618313	265.087
0.654045	266.195
0.688116	266.749
0.724679	267.856
0.759576	271.732
0.795307	273.393
0.830204	276.715
0.865101	280.59
0.901656	286.127
0.93405	295.54
0.970582	314.918
1.00368	397.416
1.00202	397.97
0.960504	375.823
0.928974	347.585
0.890786	324.885
0.865044	313.257
0.827669	301.077
0.794446	290.557
0.757055	287.788
0.719667	282.805
0.685602	278.929
0.649869	278.376
0.61497	276.161
0.580901	273.946
0.542676	272.839
0.510272	269.517
0.473711	267.302
0.439638	267.302
0.405568	266.195
0.366515	263.426
0.334937	262.873
0.298376	260.658
0.261814	258.443
0.226914	256.782
0.191184	254.568
0.155456	250.692
0.124715	246.816
0.087329	240.726
0.053276	230.206
