Adsorption isotherm of Nitrogen on Liu-COF 3 (DMF)
DOI: 10.1002/anie.202113348
Article source: Figure S27
Adsorbate Nitrogen: InChIKey IJGRMHOSHXDMSA-UHFFFAOYSA-N
Kind: experiment
Temperature: 77 K
Tabular data in the source: 0
pressure (bar)	uptake (cm3(STP)/g)
0.007419	16.6594
0.006739	44.1424
0.006059	77.4824
0.005379	114.427
0.006059	162.183
0.006739	204.533
0.012857	244.177
0.048887	272.541
0.091715	281.077
0.125705	287.816
0.159015	292.754
0.198444	296.787
0.231754	299.021
0.266424	299.903
0.301094	303.938
0.335084	306.623
0.371114	308.405
0.404424	310.639
0.442493	312.42
0.479203	314.202
0.512513	315.986
0.547183	318.219
0.581853	320.002
0.618562	321.334
0.655272	323.566
0.689942	324.448
0.723932	328.935
0.761321	330.265
0.795991	332.048
0.829981	336.535
0.867371	339.217
0.902041	346.857
0.935351	354.498
0.970021	371.599
1.00809	424.741
1.00741	425.192
0.967302	410.347
0.935351	389.189
0.897282	371.189
0.867371	361.294
0.832701	352.753
0.795311	348.268
0.759962	344.683
0.725292	340.197
0.690622	335.26
0.653232	332.578
0.617203	328.994
0.583213	325.408
0.549222	320.02
0.512513	317.788
0.475804	315.556
0.443173	314.222
0.405784	315.144
0.370434	313.361
0.336444	310.226
0.304493	307.991
0.263705	304.86
0.199803	299.039
0.164454	293.652
0.125705	288.717
0.088995	281.98
0.050247	268.935
