Adsorption isotherm of Nitrogen on Liu-COF 1 (NMP)
DOI: 10.1002/anie.202113348
Article source: Figure S27
Adsorbate Nitrogen: InChIKey IJGRMHOSHXDMSA-UHFFFAOYSA-N
Kind: experiment
Temperature: 77 K
Tabular data in the source: 0
pressure (bar)	uptake (cm3(STP)/g)
0.007484	163.97
0.00833	186.785
0.012641	214.674
0.052472	279.364
0.09579	323.78
0.11572	340.282
0.155574	379.624
0.190232	410.087
0.223155	443.082
0.263767	602.83
0.307084	648.513
0.340024	662.497
0.384244	667.624
0.40505	673.989
0.439732	679.103
0.47181	686.749
0.513426	694.408
0.548109	698.255
0.583658	703.371
0.616605	708.483
0.652155	712.332
0.685966	721.247
0.724983	727.635
0.757931	731.48
0.796948	737.868
0.832491	749.321
0.865432	760.77
0.900098	783.629
0.936494	811.559
0.965935	858.492
0.996079	1087.93
0.992605	1094.27
0.972743	1001.72
0.940768	880.005
0.898341	808.975
0.860212	779.775
0.826406	765.789
0.797796	758.148
0.761386	746.694
0.722372	737.771
0.691161	730.126
0.653878	725.008
0.617465	717.356
0.581915	713.508
0.547235	705.858
0.512553	700.744
0.476139	694.359
0.442325	687.978
0.404175	682.859
0.369497	673.942
0.334814	670.095
0.295801	659.905
0.220528	470.962
0.187617	425.292
0.147762	387.218
0.116574	354.225
0.08885	326.306
0.048997	286.964
0.009167	221.006
