Adsorption isotherm of Nitrogen on Liu-COF 3 (1M HCl)
DOI: 10.1002/anie.202113348
Article source: Figure 2F
Adsorbate Nitrogen: InChIKey IJGRMHOSHXDMSA-UHFFFAOYSA-N
Kind: experiment
Temperature: 77 K
Tabular data in the source: 0
pressure (bar)	uptake (cm3(STP)/g)
0.002861	-0.023568
0.003317	8.94726
0.004245	19.1999
0.004222	31.1606
0.004203	41.4125
0.00371	51.6641
0.003692	61.0618
0.003675	70.4594
0.0046	81.5664
0.005525	93.1006
0.009295	101.647
0.049022	116.628
0.095862	123.925
0.122834	126.081
0.158796	129.953
0.190498	133.394
0.22883	135.132
0.263846	138.148
0.299813	139.03
0.333885	141.191
0.368907	141.218
0.405818	143.381
0.441309	145.544
0.475145	147.065
0.511822	148.16
0.547312	150.75
0.582332	152.058
0.618294	155.502
0.653313	156.81
0.688328	160.681
0.725712	163.273
0.760255	166.289
0.797163	170.161
0.830285	173.604
0.86672	177.476
0.903151	183.056
0.93579	192.051
0.972677	207.03
1.00384	245.498
1.00479	245.499
0.9589	234.358
0.922487	219.166
0.886541	206.965
0.867623	200.543
0.829773	194.107
0.778673	187.234
0.742711	183.362
0.724732	180.786
0.688766	179.477
0.635764	177.301
0.599323	176.419
0.581342	175.124
0.546795	173.817
0.493316	173.349
0.476758	170.346
0.441754	160.495
0.402011	154.485
0.369834	151.47
0.315886	148.867
0.278975	146.703
0.261939	145.836
0.227392	144.528
0.192849	141.939
0.15641	140.416
0.120448	136.758
0.085908	132.033
0.050426	125.172
