Adsorption isotherm of Nitrogen on Liu-COF 3 (DMSO)
DOI: 10.1002/anie.202113348
Article source: Figure S27
Adsorbate Nitrogen: InChIKey IJGRMHOSHXDMSA-UHFFFAOYSA-N
Kind: experiment
Temperature: 77 K
Tabular data in the source: 0
pressure (bar)	uptake (cm3(STP)/g)
0.004808	6.98331
0.00383	27.7445
0.004808	60.1825
0.00383	94.5679
0.00383	127.006
0.005787	149.064
0.005787	165.932
0.005787	192.531
0.005787	215.238
0.008724	235.349
0.008724	250.27
0.050818	281.388
0.088016	293.045
0.122279	297.568
0.161435	303.385
0.194718	305.313
0.228981	307.889
0.264222	311.113
0.302399	313.039
0.341556	315.612
0.376797	317.539
0.413017	321.411
0.452174	322.039
0.477626	323.322
0.510909	325.25
0.548108	328.473
0.58237	330.401
0.61859	332.976
0.653831	338.795
0.69103	340.721
0.728228	341.349
0.770322	341.326
0.79871	344.554
0.842762	346.476
0.874087	345.81
0.914223	350.978
0.939675	357.451
0.972958	369.759
1.00624	429.428
1.00879	427.35
0.964148	411.805
0.932431	392.359
0.893665	375.253
0.867822	368.261
0.833756	358.937
0.798515	351.95
0.765623	349.633
0.726858	342.647
0.693966	340.33
0.650502	338.018
0.616436	336.48
0.583544	335.72
0.551827	333.402
0.513062	328.752
0.481345	326.434
0.44493	323.34
0.40264	318.692
0.369749	317.153
0.338032	316.392
0.299267	312.521
0.266375	307.868
0.231134	307.109
0.194718	304.794
0.157128	302.479
0.121887	299.384
0.087821	292.397
0.053754	281.516
0.01029	247.285
