Adsorption isotherm of Nitrogen on Liu-COF 3 (Boiling Water)
DOI: 10.1002/anie.202113348
Article source: Figure 2F
Adsorbate Nitrogen: InChIKey IJGRMHOSHXDMSA-UHFFFAOYSA-N
Kind: experiment
Temperature: 77 K
Tabular data in the source: 0
pressure (bar)	uptake (cm3(STP)/g)
0.003165	89.8523
0.004266	108.307
0.004236	124.197
0.004213	136.5
0.002476	153.927
0.004149	170.331
0.002982	186.733
0.003522	201.599
0.00803	220.569
0.051693	256.484
0.082908	267.272
0.122083	273.453
0.157852	279.118
0.19476	282.734
0.227692	286.86
0.262898	289.962
0.299239	293.065
0.33558	296.168
0.367948	298.243
0.403723	300.833
0.440062	304.961
0.474132	308.063
0.511041	311.166
0.547949	314.782
0.580598	318.651
0.617507	321.669
0.652286	325.113
0.688956	329.839
0.722548	334.991
0.759928	339.718
0.79541	346.579
0.830414	356.431
0.865421	364.146
0.900896	375.279
0.93447	390.255
0.970387	417.621
1.00617	516.75
1.00588	517.605
0.969599	484.002
0.933888	447.837
0.897592	420.642
0.866958	402.678
0.832345	386.248
0.795356	375.199
0.759877	366.629
0.723449	359.34
0.687494	352.051
0.687494	352.051
0.652957	346.045
0.618416	341.747
0.582457	336.594
0.546497	331.868
0.511483	327.997
0.475996	323.271
0.440519	313.847
0.399355	308.262
0.371911	304.824
0.334057	300.951
0.297622	297.506
0.263552	294.491
0.226647	288.91
0.191396	285.038
0.155199	280.739
0.122081	274.734
0.084232	267.871
0.050417	255.244
