Adsorption isotherm of Nitrogen on Liu-COF 2 (0.01M HCl)
DOI: 10.1002/anie.202113348
Article source: Figure S26
Adsorbate Nitrogen: InChIKey IJGRMHOSHXDMSA-UHFFFAOYSA-N
Kind: experiment
Temperature: 77 K
Tabular data in the source: 0
pressure (bar)	uptake (cm3(STP)/g)
0.005475	6.25432
0.005487	13.4147
0.004152	21.0227
0.004844	31.7633
0.005534	41.6088
0.003533	53.2445
0.003546	61.2999
0.004909	70.2504
0.006274	80.991
0.007635	89.494
0.006978	99.3396
0.006317	106.947
0.005659	116.346
0.005674	124.848
0.00771	134.247
0.006377	142.749
0.006389	149.91
0.005057	158.86
0.006421	168.706
0.005089	177.656
0.005103	186.159
0.006467	196.005
0.011201	207.193
0.048294	233.597
0.096816	246.575
0.121748	251.498
0.157457	255.526
0.193838	259.106
0.228868	260.001
0.263901	262.686
0.300955	265.819
0.333965	267.161
0.371017	269.399
0.404025	269.847
0.441753	272.979
0.476111	274.769
0.511816	276.56
0.548194	278.35
0.583223	278.797
0.617581	281.035
0.654632	281.93
0.689661	282.825
0.72402	285.062
0.761745	286.853
0.794759	290.433
0.831138	292.67
0.86685	298.936
0.902561	304.306
0.936259	314.599
0.972672	336.975
1.00584	434.088
1.00517	435.431
0.962683	405.894
0.929617	370.987
0.890503	344.583
0.866905	331.605
0.831854	318.179
0.795466	310.571
0.759753	303.859
0.722023	299.383
0.688334	294.908
0.653976	292.67
0.616925	291.328
0.580546	289.09
0.545515	287.3
0.510484	285.958
0.475452	283.72
0.438398	280.587
0.40404	278.35
0.369008	276.112
0.333977	274.769
0.298273	272.979
0.261892	269.847
0.227534	267.609
0.193175	265.371
0.157467	261.791
0.120409	256.421
0.08672	251.051
0.051	240.757
