Adsorption isotherm of Nitrogen on Liu-COF 3 (THF)
DOI: 10.1002/anie.202113348
Article source: Figure S27
Adsorbate Nitrogen: InChIKey IJGRMHOSHXDMSA-UHFFFAOYSA-N
Kind: experiment
Temperature: 77 K
Tabular data in the source: 0
pressure (bar)	uptake (cm3(STP)/g)
0.00383	8.93016
0.00383	30.3396
0.004808	62.1288
0.004808	90.6748
0.005787	114.03
0.004808	136.089
0.00383	164.635
0.006766	193.179
0.005787	217.833
0.011661	245.078
0.054733	278.142
0.087038	287.207
0.124236	295.62
0.156541	302.739
0.195697	305.312
0.228981	306.591
0.262264	311.763
0.300441	312.391
0.33764	315.614
0.370924	316.893
0.408122	319.468
0.449237	323.338
0.486436	326.561
0.517761	329.787
0.55496	329.767
0.590201	333.64
0.621526	337.515
0.65481	338.794
0.693966	341.368
0.727249	343.296
0.759554	346.522
0.797732	350.393
0.832973	354.915
0.870171	354.895
0.904434	363.958
0.933801	375.62
0.970021	389.873
1.00918	456.675
1.00624	457.974
0.968063	438.532
0.929885	422.334
0.892687	410.028
0.865277	400.311
0.831015	388.004
0.797732	378.29
0.758575	371.824
0.726271	366.003
0.687114	358.888
0.652852	355.015
0.619569	349.194
0.583349	348.566
0.550065	341.447
0.513845	341.468
0.478604	336.297
0.441406	331.127
0.405186	326.606
0.367987	323.383
0.336661	319.507
0.298484	316.285
0.264222	313.708
0.229959	309.186
0.19374	305.962
0.15752	299.495
0.122279	294.973
0.088995	287.855
0.04886	274.901
0.009703	245.08
