Adsorption isotherm of Nitrogen on Liu-COF 1 (Boiling Water)
DOI: 10.1002/anie.202113348
Article source: Figure 2D
Adsorbate Nitrogen: InChIKey IJGRMHOSHXDMSA-UHFFFAOYSA-N
Kind: experiment
Temperature: 77 K
Tabular data in the source: 0
pressure (bar)	uptake (cm3(STP)/g)
0.003903	355.514
0.003903	372.769
0.005043	390.024
0.007322	402.573
0.009602	419.043
0.047211	459.827
0.091658	482.572
0.11616	497.474
0.156619	516.297
0.193088	534.336
0.227848	550.806
0.267166	661.393
0.309334	678.648
0.39025	688.06
0.42387	689.628
0.45863	690.412
0.545244	695.903
0.650664	702.961
0.691122	706.883
0.724742	708.451
0.759502	710.02
0.793692	711.589
0.828451	719.432
0.86606	722.569
0.90253	737.471
0.93615	761
0.967491	803.352
1.00282	990.017
1.00396	988.448
0.976038	901.39
0.938999	819.038
0.895122	768.059
0.854094	744.529
0.815345	728.843
0.779446	718.647
0.741837	712.373
0.725122	711.109
0.687924	708.386
0.634502	705.118
0.619069	701.85
0.581476	700.216
0.52845	699.127
0.51183	695.859
0.474633	696.404
0.440205	693.136
0.404195	689.323
0.368185	688.234
0.331779	683.332
0.298539	680.064
0.26332	674.617
0.228892	562.963
0.192486	535.73
0.143417	511.765
0.124819	500.328
0.088017	480.72
0.052007	458.934
