Adsorption isotherm of Nitrogen on Liu-COF 1 (DMSO)
DOI: 10.1002/anie.202113348
Article source: Figure S27
Adsorbate Nitrogen: InChIKey IJGRMHOSHXDMSA-UHFFFAOYSA-N
Kind: experiment
Temperature: 77 K
Tabular data in the source: 0
pressure (bar)	uptake (cm3(STP)/g)
0.011339	216.151
0.051739	291.192
0.197587	428.685
0.235101	498.442
0.265301	665.358
0.424245	703.587
0.456757	711.022
0.493607	715.294
0.531898	724.85
0.569472	728.067
0.602708	733.391
0.636665	740.828
0.672788	750.381
0.706744	758.874
0.744313	768.429
0.781161	774.814
0.835344	790.727
0.901807	811.937
0.955964	856.366
0.981906	937.726
1.00131	1058.16
1.0042	1061.33
0.973905	995.806
0.939277	930.278
0.903184	887.983
0.831712	811.846
0.798478	803.353
0.759467	791.684
0.724072	775.796
0.68795	765.187
0.653269	759.861
0.624368	754.543
0.591858	746.051
0.549232	735.434
0.518164	730.113
0.481317	721.616
0.441576	717.339
0.408344	707.791
0.373664	700.352
0.338259	696.082
0.295635	683.352
0.26096	670.633
0.258855	600.922
0.232929	502.664
0.191077	435.014
0.149915	404.331
