Adsorption isotherm of Nitrogen on Liu-COF 1 (DCM)
DOI: 10.1002/anie.202113348
Article source: Figure S27
Adsorbate Nitrogen: InChIKey IJGRMHOSHXDMSA-UHFFFAOYSA-N
Kind: experiment
Temperature: 77 K
Tabular data in the source: 0
pressure (bar)	uptake (cm3(STP)/g)
0.003571	14.4098
0.00427	40.8152
0.005697	60.8846
0.004224	92.5681
0.005643	121.087
0.006334	156.998
0.007029	187.628
0.008445	220.372
0.049572	290.133
0.084223	329.257
0.119604	359.932
0.151375	387.434
0.189643	422.338
0.22141	455.121
0.255964	601.975
0.297088	674.905
0.343323	689.751
0.378727	695.078
0.404733	704.617
0.439414	711
0.475539	718.44
0.511667	722.711
0.549237	730.153
0.581028	735.475
0.616431	741.858
0.654727	745.077
0.68796	754.625
0.723362	762.065
0.76093	771.619
0.797056	778.003
0.831014	784.384
0.866406	803.441
0.899635	816.158
0.932126	846.83
0.966046	895.458
1.00129	1072.94
1.00057	1077.17
0.968105	1016.92
0.939262	947.177
0.901743	882.701
0.866368	845.688
0.834594	821.355
0.799202	802.298
0.760189	792.742
0.725516	777.91
0.692281	770.474
0.65399	760.918
0.617144	752.421
0.583187	744.984
0.547783	739.657
0.510216	729.046
0.476255	725.834
0.441575	718.396
0.405449	712.012
0.371494	702.462
0.335371	692.909
0.294916	680.183
0.263127	671.692
0.232206	502.663
0.186023	430.782
0.156421	401.171
0.115269	358.87
0.08639	330.316
0.051013	294.888
