Adsorption isotherm of Nitrogen on Liu-COF 3 (Pristine)
DOI: 10.1002/anie.202113348
Article source: Figure 2F
Adsorbate Nitrogen: InChIKey IJGRMHOSHXDMSA-UHFFFAOYSA-N
Kind: experiment
Temperature: 77 K
Tabular data in the source: 0
pressure (bar)	uptake (cm3(STP)/g)
0.002677	168.075
0.004009	184.684
0.006025	199.448
0.009399	217.289
0.050885	262.839
0.089716	270.865
0.124461	277.658
0.160566	285.682
0.195312	291.244
0.229375	298.036
0.264124	302.368
0.299554	306.701
0.334305	309.802
0.367691	314.133
0.401083	315.389
0.439239	319.724
0.477398	322.828
0.511469	325.314
0.544178	327.184
0.583018	330.289
0.615725	333.389
0.649109	338.336
0.686587	341.439
0.722704	342.697
0.758818	345.8
0.796295	349.519
0.82968	353.85
0.867147	362.49
0.902562	374.819
0.936617	385.917
0.969974	405.626
1.00729	493.001
1.00866	492.387
0.96166	477.589
0.931727	449.27
0.895663	419.717
0.865711	401.241
0.83166	388.298
0.794198	377.198
0.760818	369.791
0.724032	361.152
0.688599	358.664
0.651806	353.716
0.617058	349.384
0.580781	347.272
0.546081	343.686
0.510989	339.031
0.47471	336.156
0.441986	330.436
0.402164	324.354
0.368252	321.125
0.333946	317.895
0.29846	312.885
0.261	309.297
0.228668	305.001
0.190816	299.633
0.156914	291.064
0.120247	285.341
0.087137	274.992
0.050482	262.506
0.009933	223.674
