Adsorption isotherm of Nitrogen on Liu-COF 1 (Pristine)
DOI: 10.1002/anie.202113348
Article source: Figure 2D
Adsorbate Nitrogen: InChIKey IJGRMHOSHXDMSA-UHFFFAOYSA-N
Kind: experiment
Temperature: 77 K
Tabular data in the source: 0
pressure (bar)	uptake (cm3(STP)/g)
0.008082	445.971
0.088334	533.552
0.113026	553.813
0.152915	577.342
0.188529	600.871
0.229842	652.504
0.259283	711.327
0.297272	770.804
0.333362	783.222
0.383697	804.137
0.44163	809.365
0.47677	813.94
0.515708	814.594
0.604507	823.091
0.658641	831.587
0.692356	836.162
0.726071	840.084
0.798725	855.77
0.86568	864.92
0.902245	878.646
0.93596	896.292
0.97015	925.704
1.00671	1013.94
1.00387	1015.25
0.978222	988.448
0.930261	942.043
0.902245	920.475
0.86568	898.907
0.830066	883.874
0.7973	872.763
0.762161	864.92
0.725122	858.384
0.689982	851.195
0.654367	845.966
0.617328	843.352
0.583138	835.509
0.547999	830.28
0.51096	827.666
0.477244	822.437
0.440205	817.862
0.406965	811.326
0.370876	807.405
0.334786	801.522
0.298222	793.026
0.262133	785.836
0.232216	653.812
0.193753	610.675
0.160512	583.878
0.114926	553.813
0.089283	533.552
0.051532	503.813
