Adsorption isotherm of Nitrogen on Liu-COF 3 (0.01M HCl)
DOI: 10.1002/anie.202113348
Article source: Figure S26
Adsorbate Nitrogen: InChIKey IJGRMHOSHXDMSA-UHFFFAOYSA-N
Kind: experiment
Temperature: 77 K
Tabular data in the source: 0
pressure (bar)	uptake (cm3(STP)/g)
0.007112	13.1642
0.00543	24.7915
0.006241	36.4187
0.006226	45.2775
0.006212	53.029
0.00703	60.7805
0.007005	75.1761
0.007815	87.357
0.008627	98.4306
0.008607	110.058
0.007748	126.668
0.006897	138.295
0.006877	149.369
0.006845	168.194
0.007646	185.358
0.010092	213.042
0.048264	245.155
0.088971	252.907
0.1222	259.551
0.157095	264.534
0.194486	267.302
0.229384	270.071
0.26096	271.732
0.298349	276.161
0.333251	276.715
0.364829	277.268
0.405552	275.607
0.443777	276.715
0.47369	278.929
0.510253	280.59
0.545985	281.698
0.580053	283.913
0.617446	285.574
0.653174	289.449
0.686414	290.003
0.723806	292.218
0.759533	296.647
0.794431	299.415
0.83182	303.291
0.865885	307.721
0.902436	316.026
0.935656	328.207
0.970519	351.461
1.0061	439.496
1.00361	441.157
0.967924	410.151
0.929745	382.467
0.894891	354.23
0.864168	339.28
0.827624	327.099
0.793568	318.241
0.755353	311.043
0.722117	307.721
0.682236	303.291
0.649001	299.969
0.615768	294.986
0.580451	293.879
0.544304	292.771
0.511067	290.557
0.472009	290.003
0.437115	285.02
0.402217	282.251
0.367314	281.698
0.331585	278.929
0.295025	276.161
0.260126	273.393
0.226056	272.285
0.193651	269.517
0.154186	264.534
0.120537	260.104
0.083981	255.121
0.051588	245.155
