Adsorption isotherm of Nitrogen on Liu-COF 3 (THF)
DOI: 10.1002/anie.202113348
Article source: Figure S27
Adsorbate Nitrogen: InChIKey IJGRMHOSHXDMSA-UHFFFAOYSA-N
Kind: experiment
Temperature: 77 K
Tabular data in the source: 0
pressure (bar)	uptake (cm3(STP)/g)
0.00323	72.7106
0.00321	94.2567
0.004057	117.071
0.00403	147.489
0.007473	175.377
0.007438	214.667
0.051585	300.909
0.094038	342.789
0.130431	374.521
0.165949	413.857
0.190208	436.702
0.227465	470.971
0.262873	633.247
0.307938	663.723
0.34435	672.642
0.382495	684.099
0.424116	686.687
0.454461	693.064
0.490007	700.715
0.517754	703.285
0.546365	709.66
0.56977	718.562
0.603582	726.21
0.632195	730.05
0.66774	738.968
0.705023	744.086
0.731033	749.189
0.761381	753.031
0.79519	763.214
0.829005	768.327
0.861943	783.579
0.899212	805.174
0.946882	830.584
0.966792	869.9
1.00483	999.226
1.00657	992.891
0.974515	959.896
0.932083	895.203
0.901758	866.013
0.864501	831.744
0.831562	817.76
0.79776	798.705
0.760476	794.854
0.725801	782.135
0.688519	775.75
0.649504	768.095
0.615694	757.911
0.581878	754.065
0.547198	747.683
0.509047	742.564
0.475236	733.648
0.442288	729.803
0.401538	722.146
0.36946	714.5
0.333914	706.849
0.296637	694.127
0.26196	683.942
0.230891	519.138
0.193654	462.055
0.161601	426.526
0.116553	378.306
0.08623	347.848
0.049841	312.313
0.008295	226.075
