Adsorption isotherm of Nitrogen on Liu-COF 1 (0.01M HCl)
DOI: 10.1002/anie.202113348
Article source: Figure 2D
Adsorbate Nitrogen: InChIKey IJGRMHOSHXDMSA-UHFFFAOYSA-N
Kind: experiment
Temperature: 77 K
Tabular data in the source: 0
pressure (bar)	uptake (cm3(STP)/g)
0.004521	286.278
0.004125	296.626
0.004125	312.421
0.004521	323.859
0.009269	339.109
0.049632	355.449
0.093557	366.887
0.12007	371.789
0.157663	378.325
0.191695	385.95
0.225727	396.843
0.273213	433.88
0.314763	438.237
0.333362	438.781
0.370955	442.049
0.405382	443.139
0.441788	444.228
0.47582	445.862
0.512226	446.951
0.546258	447.496
0.581872	448.041
0.616695	448.041
0.651914	451.853
0.689903	451.853
0.723935	454.576
0.759945	457.3
0.794372	458.934
0.830382	460.568
0.866393	465.47
0.901612	471.461
0.936039	479.631
0.972049	494.336
1.00371	525.926
1.0045	527.016
0.958199	518.846
0.923772	505.774
0.887761	495.97
0.866788	490.524
0.827217	481.265
0.796351	477.452
0.758362	474.184
0.725122	471.461
0.689507	468.738
0.654684	467.104
0.617091	465.47
0.582664	464.925
0.54784	463.291
0.511434	460.023
0.477403	458.934
0.441392	451.853
0.402216	448.041
0.35196	446.951
0.315554	444.228
0.298143	443.683
0.26332	442.049
0.229684	406.102
0.190112	391.396
0.142626	381.593
0.107407	373.423
0.086434	369.61
0.050028	361.44
