Adsorption isotherm of Nitrogen on Liu-COF 3 (NMP)
DOI: 10.1002/anie.202113348
Article source: Figure S27
Adsorbate Nitrogen: InChIKey IJGRMHOSHXDMSA-UHFFFAOYSA-N
Kind: experiment
Temperature: 77 K
Tabular data in the source: 0
pressure (bar)	uptake (cm3(STP)/g)
0.00383	8.28139
0.00383	34.2322
0.002851	71.2127
0.006766	101.703
0.00383	139.333
0.005787	169.824
0.004808	199.668
0.009703	235.348
0.053754	275.547
0.088995	281.367
0.123257	289.782
0.15752	297.548
0.197655	300.121
0.228002	302.051
0.267158	304.624
0.302399	309.146
0.332746	310.427
0.371902	311.703
0.405186	312.333
0.440427	315.557
0.474689	318.133
0.512867	320.059
0.549087	323.931
0.58237	323.913
0.622505	325.837
0.65481	328.414
0.690051	331.638
0.728228	332.915
0.76298	334.193
0.79871	336.769
0.831994	339.994
0.867235	343.218
0.903455	349.686
0.937717	358.101
0.970021	371.707
1.01016	428.777
1.00624	429.428
0.969042	412.581
0.933801	393.786
0.896602	374.992
0.868214	366.574
0.831994	360.106
0.79871	354.285
0.759554	347.819
0.722355	345.245
0.690051	342.668
0.651873	341.391
0.616632	338.167
0.583349	337.536
0.549087	336.258
0.513845	333.034
0.476647	329.161
0.442385	325.288
0.408122	318.819
0.368966	316.894
0.336661	314.966
0.298484	311.743
0.264222	310.465
0.230938	307.239
0.194718	300.771
0.159477	296.898
0.124236	293.025
0.088016	285.909
0.050818	272.305
0.007745	244.432
