Adsorption isotherm of Nitrogen on Liu-COF 1 (DMF)
DOI: 10.1002/anie.202113348
Article source: Figure S27
Adsorbate Nitrogen: InChIKey IJGRMHOSHXDMSA-UHFFFAOYSA-N
Kind: experiment
Temperature: 77 K
Tabular data in the source: 0
pressure (bar)	uptake (cm3(STP)/g)
0.007014	203.471
0.051748	280.63
0.131164	362.059
0.153549	381.1
0.188924	419.168
0.223582	449.842
0.229345	469.917
0.261018	606.206
0.29783	653.782
0.333226	667.558
0.370795	677.113
0.386689	681.358
0.41631	688.79
0.460388	690.959
0.495069	697.341
0.52686	702.663
0.560094	710.1
0.598388	716.487
0.648245	721.832
0.685815	729.274
0.724106	737.773
0.759509	745.212
0.794184	757.932
0.829586	765.371
0.867154	774.925
0.900381	790.811
0.936485	821.487
0.968974	854.271
0.999904	1012.74
1.00135	1015.91
0.971057	948.274
0.932803	897.528
0.90972	852.082
0.86567	818.227
0.828843	787.55
0.794165	777.999
0.796332	779.058
0.758763	770.56
0.724086	761.009
0.690131	750.403
0.654009	740.851
0.61788	737.635
0.583198	732.31
0.547072	726.982
0.512393	718.487
0.480604	711.053
0.443754	706.78
0.408354	696.173
0.367171	688.726
0.331769	681.287
0.257398	614.651
0.213464	450.885
0.130441	363.115
