Adsorption isotherm of Nitrogen on Liu-COF 3 (20M NaOH)
DOI: 10.1002/anie.202113348
Article source: Figure 2F
Adsorbate Nitrogen: InChIKey IJGRMHOSHXDMSA-UHFFFAOYSA-N
Kind: experiment
Temperature: 77 K
Tabular data in the source: 0
pressure (bar)	uptake (cm3(STP)/g)
0.002871	137.319
0.004479	152.083
0.00445	167.584
0.005234	185.3
0.007662	198.588
0.010909	211.877
0.046838	240.692
0.091797	251.798
0.121774	256.742
0.157208	259.229
0.194	264.178
0.228754	266.049
0.26487	267.922
0.296896	270.406
0.334375	272.895
0.371174	274.153
0.405245	276.64
0.439317	278.511
0.476798	279.769
0.511213	280.41
0.546987	282.898
0.583785	284.771
0.619223	285.413
0.651929	288.513
0.689409	290.387
0.725524	292.875
0.758915	294.745
0.795709	298.464
0.829778	302.18
0.867933	307.13
0.901992	315.767
0.936726	328.096
0.969392	352.725
1.00739	439.486
1.0074	438.255
0.969284	409.931
0.931173	381.607
0.893738	356.359
0.865144	340.344
0.831775	327.401
0.796352	318.763
0.760245	311.969
0.724817	306.407
0.689386	302.689
0.653271	299.586
0.617839	296.484
0.583086	293.997
0.54697	292.125
0.511536	289.637
0.476104	285.92
0.44135	284.663
0.404553	282.175
0.368436	280.302
0.333004	277.2
0.298249	275.944
0.261453	272.84
0.2267	270.969
0.192629	268.482
0.155836	264.149
0.121087	259.817
0.083616	253.022
0.050239	244.385
