Adsorption isotherm of Nitrogen on Liu-COF 2 (DMF)
DOI: 10.1002/anie.202113348
Article source: Figure S27
Adsorbate Nitrogen: InChIKey IJGRMHOSHXDMSA-UHFFFAOYSA-N
Kind: experiment
Temperature: 77 K
Tabular data in the source: 0
pressure (bar)	uptake (cm3(STP)/g)
0.005379	15.8645
0.005216	72.6827
0.005039	133.957
0.004893	184.648
0.008979	224.198
0.020264	263.191
0.051415	277.674
0.090962	293.271
0.128144	296.613
0.159321	302.184
0.200103	305.526
0.226484	309.982
0.261863	314.439
0.299642	318.895
0.330826	322.237
0.369217	322.237
0.4052	325.579
0.442379	330.036
0.472366	332.264
0.510741	337.834
0.545524	341.176
0.587515	341.176
0.618683	350.089
0.655871	351.203
0.695443	357.888
0.729017	364.572
0.754195	370.143
0.790174	374.599
0.833326	387.968
0.864478	402.451
0.901625	418.048
0.931544	443.672
0.968579	498.262
1.00286	674.287
1.00527	673.173
0.970558	644.207
0.935981	569.563
0.897772	506.061
0.866714	459.269
0.836794	433.645
0.798463	412.478
0.764909	399.109
0.727766	382.397
0.69059	376.827
0.657029	365.686
0.619844	363.458
0.580262	360.116
0.546676	357.888
0.514286	356.774
0.47592	347.861
0.442328	347.861
0.402759	340.062
0.36557	338.948
0.335589	334.492
0.30081	330.036
0.269626	326.693
0.227642	324.465
0.192862	320.009
0.15688	316.667
0.123307	309.982
0.088546	298.841
0.050196	284.358
0.011952	233.111
