Adsorption isotherm of Nitrogen on SiO2-G2.0-MITC
DOI: 10.1021/acs.iecr.6b00172
Article source: Figure 4E
Adsorbate Nitrogen: InChIKey IJGRMHOSHXDMSA-UHFFFAOYSA-N
Kind: experiment
Temperature: 77 K
Tabular data in the source: 0
pressure (bar)	uptake (cm3(STP)/g)
0.010609	16.968
0.0298	23.077
0.065263	27.974
0.080614	29.579
0.101761	31.173
0.120942	32.42
0.140963	33.153
0.142088	34.782
0.161826	35.356
0.181666	36.089
0.201789	38.647
0.202913	38.707
0.251185	40.191
0.253627	41.434
0.303681	44.29
0.303965	44.284
0.353178	47.755
0.356178	45.639
0.403425	49.329
0.404641	49.297
0.454514	52.666
0.454797	52.709
0.504487	60.351
0.50627	60.637
0.556051	63.398
0.5598	68.318
0.59724	75.77
0.605832	70.509
0.642735	89.639
0.656373	79.89
0.692273	115.816
0.707107	92.886
0.748802	172.308
0.756918	112.057
0.806466	142.426
0.809911	156.566
0.831544	165.127
0.831868	165.414
0.85569	244.867
0.85802	193.552
0.881609	246.614
0.884922	221.272
0.906028	247.787
0.911155	246.295
0.913789	247.965
0.931187	246.176
0.938675	248.21
0.964786	249.028
0.973855	248.661
0.999966	249.607
1.01598	255.21
