Adsorption isotherm of Nitrogen on SiO2
DOI: 10.1021/acs.iecr.6b00172
Article source: Figure 4A
Adsorbate Nitrogen: InChIKey IJGRMHOSHXDMSA-UHFFFAOYSA-N
Kind: experiment
Temperature: 77 K
Tabular data in the source: 0
pressure (bar)	uptake (cm3(STP)/g)
0.010862	40.45
0.032698	50.95
0.063693	57.26
0.081101	60.18
0.101112	62.68
0.121874	65.74
0.141612	67.69
0.160803	69.8
0.181757	71.34
0.202336	73.2
0.252431	77.86
0.302354	81.88
0.307197	82.27
0.352915	86.46
0.357302	86.45
0.403679	90.72
0.453865	95.71
0.504426	101.41
0.5414	105.14
0.554531	105.83
0.595396	112.67
0.604333	112.89
0.652077	123.56
0.656008	120.19
0.70355	133.26
0.708991	141.88
0.746684	166.18
0.753665	151.92
0.800437	184.59
0.811026	340.8
0.825971	217.08
0.83433	488.09
0.850066	273.57
0.853582	577.72
0.87944	403.41
0.881072	416.41
0.900414	534.15
0.903687	616.06
0.928917	619.03
0.93832	619.65
0.96738	622.37
0.970359	621.8
0.989074	624.47
0.995224	624.45
1.00417	639.79
