Adsorption isotherm of Nitrogen on SIO2-G0-MITC
DOI: 10.1021/acs.iecr.6b00172
Article source: Figure 4B
Adsorbate Nitrogen: InChIKey IJGRMHOSHXDMSA-UHFFFAOYSA-N
Kind: experiment
Temperature: 77 K
Tabular data in the source: 0
pressure (bar)	uptake (cm3(STP)/g)
0.011065	21.743
0.029607	29.419
0.065253	35.757
0.079388	37.583
0.101193	40.598
0.12161	42.205
0.140183	44.369
0.143233	44.751
0.160793	46.317
0.18047	47.754
0.200897	49.66
0.248206	53.209
0.251722	53.719
0.30051	57.652
0.304299	57.649
0.349855	62.184
0.355681	61.965
0.400122	66.757
0.403456	65.899
0.450015	71.586
0.453997	71.156
0.501386	76.885
0.504619	78.677
0.539252	83.99
0.553305	84.32
0.589681	94.374
0.602722	92.953
0.652948	104.236
0.653708	104.556
0.686153	135.404
0.703246	119.877
0.745489	205.311
0.751933	143.212
0.800721	181.59
0.806719	300.431
0.826437	314.202
0.82669	316.525
0.851069	321.077
0.855224	255.347
0.877029	323.833
0.879339	292.079
0.901235	326.377
0.907294	321.457
0.909838	326.54
0.923618	324.563
0.933872	326.947
0.965678	326.621
0.967603	328.671
0.992843	328.479
0.993208	328.436
1.0018	347.574
