Adsorption isotherm of Nitrogen on IRMOF-1
DOI: 10.1007/s40195-013-0105-0
Adsorbate Nitrogen: InChIKey IJGRMHOSHXDMSA-UHFFFAOYSA-N
Temperature: 77 K
Tabular data in the source: 0
pressure (bar)	uptake (ml/g)
0.00206528	13.0879
0.00592666	198.434
0.0316692	232.758
0.0960257	248.203
0.165531	256.784
0.278798	261.933
0.413946	263.649
0.541372	263.649
0.657214	261.933
0.791075	263.649
0.928798	265.365
