Adsorption isotherm of Nitrogen on IRMOF-1
DOI: 10.1007/s40195-013-0105-0
Adsorbate Nitrogen: InChIKey IJGRMHOSHXDMSA-UHFFFAOYSA-N
Temperature: 77 K
Tabular data in the source: 0
pressure (bar)	uptake (ml/g)
0.00335241	23.3849
0.0162237	630.91
0.0265207	666.949
0.0535504	718.434
0.0908772	732.164
0.150085	756.19
0.20157	780.217
0.256917	792.23
0.374045	824.837
0.475729	852.296
0.59157	886.619
0.698402	903.781
0.779491	924.375
0.867016	955.266
0.906917	974.144
0.928798	999.887
