Adsorption isotherm of Nitrogen on IRMOF-1
DOI: 10.1007/s40195-013-0105-0
Adsorbate Nitrogen: InChIKey IJGRMHOSHXDMSA-UHFFFAOYSA-N
Temperature: 77 K
Tabular data in the source: 0
pressure (bar)	uptake (ml/g)
0.00335241	23.3849
0.00978805	253.352
0.0278079	291.108
0.0857286	318.566
0.171966	337.444
0.273649	351.174
0.380481	363.187
0.511768	366.619
0.621174	373.484
0.707412	378.632
0.805234	375.2
0.899194	388.929
0.927511	404.375
