Adsorption isotherm of Nitrogen on IRMOF-1
DOI: 10.1007/s40195-013-0105-0
Adsorbate Nitrogen: InChIKey IJGRMHOSHXDMSA-UHFFFAOYSA-N
Temperature: 77 K
Tabular data in the source: 0
pressure (bar)	uptake (ml/g)
0.00206528	19.9526
0.00850092	649.788
0.0213722	709.854
0.0419663	745.893
0.0728574	761.339
0.0998871	781.933
0.178402	814.54
0.321273	869.458
0.44355	903.781
0.558105	926.091
0.662362	953.55
0.7486	975.86
0.828402	1010.18
0.879887	1034.21
0.909491	1063.38
0.928798	1108.01
