Adsorption isotherm of Nitrogen on IRMOF-1
DOI: 10.1007/s40195-013-0105-0
Adsorbate Nitrogen: InChIKey IJGRMHOSHXDMSA-UHFFFAOYSA-N
Temperature: 77 K
Tabular data in the source: 0
pressure (bar)	uptake (ml/g)
0.00335241	28.5334
0.0110752	634.342
0.0213722	685.827
0.0419663	723.583
0.0586989	739.029
0.0818673	749.326
0.105036	769.92
0.175828	790.514
0.268501	826.553
0.361174	857.444
0.45256	886.619
0.542659	905.497
0.65464	932.956
0.758897	963.847
0.855432	994.738
0.897907	1018.76
0.926224	1046.22
