Adsorption isotherm of Nitrogen on IRMOF-1
DOI: 10.1007/s40195-013-0105-0
Adsorbate Nitrogen: InChIKey IJGRMHOSHXDMSA-UHFFFAOYSA-N
Temperature: 77 K
Tabular data in the source: 0
pressure (bar)	uptake (ml/g)
0.00463953	26.8173
0.00721379	227.609
0.0368178	258.5
0.101174	263.649
0.21959	270.514
0.356026	268.797
0.469293	272.23
0.603154	273.946
0.73058	275.662
0.848996	277.378
0.927511	280.811
