Adsorption isotherm of Isooctane, N-Pentane on Zeolite 5A
DOI: 10.1007/s10450-018-9973-y
Article source: Figure 4
Adsorbate Isooctane: InChIKey NHTMVDHEPJAVLT-UHFFFAOYSA-N
Adsorbate N-Pentane: InChIKey OFBQJSOFQDEBGM-UHFFFAOYSA-N
Kind: experiment
Temperature: 348 K
Tabular data in the source: 0
pressure (bar)	Isooctane fraction	Isooctane uptake (g/g)	N-Pentane fraction	N-Pentane uptake (g/g)	total uptake (g/g)
21			2.76498	0.064396	
21			5.62212	0.076615	
21			10.9677	0.088669	
21			27.3733	0.09742	
21			53.6406	0.10386	
21			103.871	0.095273	
