Adsorption isotherm of Isooctane, N-Dodecane on Zeolite 5A
DOI: 10.1007/s10450-018-9973-y
Article source: Figure 4
Adsorbate Isooctane: InChIKey NHTMVDHEPJAVLT-UHFFFAOYSA-N
Adsorbate N-Dodecane: InChIKey SNRUBQQJIBEYMU-UHFFFAOYSA-N
Kind: experiment
Temperature: 348 K
Tabular data in the source: 0
pressure (bar)	Isooctane fraction	Isooctane uptake (g/g)	N-Dodecane fraction	N-Dodecane uptake (g/g)	total uptake (g/g)
21			5.52995	0.134737	
21			11.2442	0.145965	
21			16.682	0.146956	
21			28.1106	0.152239	
21			56.4977	0.147781	
