Adsorption isotherm of Isooctane, N-octadecane on Zeolite 5A
DOI: 10.1007/s10450-018-9973-y
Article source: Figure 4
Adsorbate Isooctane: InChIKey NHTMVDHEPJAVLT-UHFFFAOYSA-N
Adsorbate N-octadecane: InChIKey RZJRJXONCZWCBN-UHFFFAOYSA-N
Kind: experiment
Temperature: 348 K
Tabular data in the source: 0
pressure (bar)	Isooctane fraction	Isooctane uptake (g/g)	N-octadecane fraction	N-octadecane uptake (g/g)	total uptake (g/g)
21			2.67281	0.101218	
21			5.52995	0.105346	
21			11.1521	0.106832	
21			17.0507	0.107988	
21			28.1106	0.111455	
