Adsorption isotherm of N-hexadecane, Isooctane on Zeolite 5A
DOI: 10.1007/s10450-018-9973-y
Article source: Figure 4
Adsorbate N-hexadecane: InChIKey DCAYPVUWAIABOU-UHFFFAOYSA-N
Adsorbate Isooctane: InChIKey NHTMVDHEPJAVLT-UHFFFAOYSA-N
Kind: experiment
Temperature: 348 K
Tabular data in the source: 0
pressure (bar)	N-hexadecane fraction	N-hexadecane uptake (g/g)	Isooctane fraction	Isooctane uptake (g/g)	total uptake (g/g)
21	2.76498	0.111455			
21	5.52995	0.11195			
21	11.1521	0.116409			
21	16.8664	0.115253			
21	28.0184	0.124665			
21	56.7742	0.131104			
