Adsorption isotherm of N-Tetradecane, Isooctane on Zeolite 5A
DOI: 10.1007/s10450-018-9973-y
Article source: Figure 4
Adsorbate N-Tetradecane: InChIKey BGHCVCJVXZWKCC-UHFFFAOYSA-N
Adsorbate Isooctane: InChIKey NHTMVDHEPJAVLT-UHFFFAOYSA-N
Kind: experiment
Temperature: 348 K
Tabular data in the source: 0
pressure (bar)	N-Tetradecane fraction	N-Tetradecane uptake (g/g)	Isooctane fraction	Isooctane uptake (g/g)	total uptake (g/g)
21	0.829493	0.084871			
21	0.829493	0.088173			
21	2.67281	0.096264			
21	5.52995	0.09709			
21	11.2442	0.094448			
21	16.8664	0.093622			
21	28.2028	0.098246			
21	56.7742	0.089329			
