Adsorption isotherm of N-decane, Isooctane on Zeolite 5A
DOI: 10.1007/s10450-018-9973-y
Article source: Figure 4
Adsorbate N-decane: InChIKey DIOQZVSQGTUSAI-UHFFFAOYSA-N
Adsorbate Isooctane: InChIKey NHTMVDHEPJAVLT-UHFFFAOYSA-N
Kind: experiment
Temperature: 348 K
Tabular data in the source: 0
pressure (bar)	N-decane fraction	N-decane uptake (g/g)	Isooctane fraction	Isooctane uptake (g/g)	total uptake (g/g)
21	2.76498	0.115913			
21	5.52995	0.124169			
21	10.9677	0.128627			
21	16.7742	0.127967			
21	28.0184	0.132921			
21	56.3134	0.138204			
