Adsorption isotherm of Carbon Dioxide on ZIF-8
DOI: 10.8888/Ja909263x
Adsorbate Carbon Dioxide: InChIKey CURLTUGMZLYLDI-UHFFFAOYSA-N
Temperature: 298 K
Tabular data in the source: 0
pressure (bar)	uptake (mmol/g)
0.0193396	0.0520833
0.0386696	0.111607
0.0451194	0.126488
0.0579996	0.171131
0.0740951	0.230655
0.0934251	0.290179
0.0998652	0.3125
0.11599	0.349702
0.13532	0.409226
0.154659	0.46131
0.177224	0.520833
0.196563	0.572917
0.219137	0.625
0.238467	0.684524
0.277147	0.78869
0.29973	0.833333
0.31907	0.885417
0.341635	0.94494
0.364209	0.997024
0.373864	1.03423
0.399682	1.07887
0.419022	1.13095
0.441596	1.18304
0.46418	1.22768
0.483529	1.27232
0.509347	1.31696
0.531931	1.36161
0.554505	1.41369
0.560945	1.43601
0.586773	1.47321
0.609347	1.5253
0.635156	1.57738
0.654505	1.62202
0.680333	1.65923
0.706151	1.70387
0.73197	1.74851
0.757797	1.78571
0.783616	1.83036
0.809434	1.875
0.835252	1.91964
0.86108	1.95685
0.886908	1.99405
0.91597	2.03125
0.941798	2.06845
0.970861	2.10565
0.996688	2.14286
1.02575	2.18006
1.05159	2.20982
1.08066	2.23958
1.10972	2.27679
1.13879	2.30655
1.16788	2.32887
1.19695	2.35863
1.22603	2.38095
1.2551	2.41071
1.28418	2.43304
1.31651	2.44792
