Adsorption isotherm of Methylene blue on PET fibers grafted with binary mixture of 2-methylpropenoic acid and acrylonitrile by free radical
DOI: 10.1007/s00289-016-1773-5
Article source: Figure 13
Adsorbate Methylene blue: InChIKey CXKWCBBOMKCUKX-UHFFFAOYSA-M
Kind: experiment
Temperature: 298 K
Tabular data in the source: 0
pressure (bar)	uptake (mg/g)
1.01325	2.606
1.01325	5.546
1.01325	7.541
1.01325	10.271
1.01325	13.001
1.01325	15.1
1.01325	19.825
1.01325	22.975
1.01325	30.115
1.01325	41.034
1.01325	52.833
