Adsorption isotherm of Water on HKUST-1-F
DOI: 10.1002/bkcs.10087
Article source: Figure 4
Adsorbate Water: InChIKey XLYOFNOQVPJJNP-UHFFFAOYSA-N
Kind: experiment
Temperature: 298 K
Tabular data in the source: 0
pressure (bar)	uptake (mg/g)
0	0
0.000357	22.9226
0.000595	34.384
0.000774	48.7106
0.000881	246.418
0.000952	63.0372
0.00113	83.0946
0.001239	255.014
0.001308	103.152
0.001605	126.074
0.001717	260.745
0.002082	146.132
0.002194	275.072
0.002439	157.593
0.002737	171.92
0.003453	194.842
0.004881	275.072
0.006255	275.072
0.007748	277.937
0.009062	275.072
0.009664	197.708
0.009898	275.072
0.012769	220.63
0.013064	275.072
0.014381	223.496
0.016292	237.822
0.017844	246.418
0.019216	283.668
0.019337	257.88
0.021068	275.072
0.02256	280.802
0.02465	292.264
0.026143	300.86
0.02674	306.59
0.027336	320.917
0.027873	335.244
0.028171	349.57
0.028647	381.089
0.028772	289.398
0.028942	441.261
0.02895	300.86
0.029059	481.375
0.029117	504.298
0.029224	722.063
0.029233	570.201
0.029235	530.086
0.029284	707.736
0.029286	684.814
0.029287	661.891
0.029289	633.238
0.029291	595.989
0.029334	882.521
0.029335	856.734
0.029337	825.215
0.02934	782.235
0.029341	762.178
0.029511	916.905
0.029626	979.943
0.029628	957.02
0.029864	1002.87
0.030024	315.186
0.030084	323.782
0.030102	1011.46
0.030202	346.705
0.030318	392.55
0.030375	441.261
0.030377	415.473
0.03038	363.897
0.03043	530.086
0.030431	504.298
0.030433	472.779
0.030488	550.143
0.030529	868.195
0.030531	836.676
0.030532	813.754
0.030534	779.37
0.030538	710.602
0.03054	676.218
0.030543	638.968
0.030545	601.719
0.030546	575.931
0.030596	742.12
0.030641	988.539
0.030643	951.289
0.030646	914.04
0.030759	1014.33
