Adsorption isotherm of Water on CuBTC
DOI: 10.1002/bkcs.10087
Article source: Figure 4
Adsorbate Water: InChIKey XLYOFNOQVPJJNP-UHFFFAOYSA-N
Kind: experiment
Temperature: 298 K
Tabular data in the source: 0
pressure (bar)	uptake (mg/g)
0	0
0.000769	120.344
0.001007	137.536
0.001305	154.728
0.001483	169.054
0.00196	183.381
0.002377	194.842
0.002377	206.304
0.002675	217.765
0.002914	212.034
0.003033	223.496
0.003212	229.226
0.003391	226.361
0.00345	237.822
0.003748	249.284
0.003926	260.745
0.004106	255.014
0.004284	269.341
0.004523	269.341
0.004939	303.725
0.005179	292.264
0.005237	315.186
0.005536	306.59
0.005774	335.244
0.005953	329.513
0.00637	358.166
0.006789	340.974
0.007087	346.705
0.007325	366.762
0.007803	355.301
0.008042	361.032
0.008877	372.493
0.009414	386.819
0.009952	378.223
0.01019	398.281
0.010666	418.338
0.011442	438.395
0.01162	444.126
0.011624	383.954
0.012097	458.453
0.012455	469.914
0.012992	481.375
0.013475	395.415
0.014006	498.567
0.015087	401.146
0.016037	504.298
0.01664	406.877
0.017894	412.607
0.018186	518.625
0.019805	421.203
0.0207	429.799
0.02153	527.221
0.021535	444.126
0.022191	461.318
0.022788	467.049
0.023086	484.241
0.023623	492.837
0.024578	510.029
0.026009	535.817
0.027265	518.625
0.028877	530.086
0.030907	544.413
