Adsorption isotherm of Water on Ti(pyradine-2-carboxylic acid)
DOI: 10.1002/bkcs.10087
Article source: Figure 2
Adsorbate Water: InChIKey XLYOFNOQVPJJNP-UHFFFAOYSA-N
Kind: experiment
Temperature: 298 K
Tabular data in the source: 0
pressure (bar)	uptake (cm3(STP)/g)
0	0
0.000873	0
0.001507	134.097
0.001825	0.673854
0.00238	148.248
0.004681	40.4313
0.005157	2.02156
0.005554	187.332
0.006744	73.4501
0.007061	198.787
0.008648	210.916
0.008727	85.5795
0.009917	215.633
0.010393	90.2965
0.012376	90.9704
0.012852	125.337
0.01547	138.14
0.018009	140.836
0.019199	169.137
0.020389	200.809
0.020548	196.765
0.021341	202.83
0.023087	205.526
0.023166	209.569
0.023801	212.264
0.025229	223.046
0.026181	221.698
0.027609	220.35
0.029354	222.372
0.030148	217.655
0.031417	226.415
