Adsorption isotherm of N-propane on CuBTC
DOI: 10.5012/bkcs.2010.31.01.220
Adsorbate N-propane: InChIKey ATUOYWHBWRKTHZ-UHFFFAOYSA-N
Temperature: 353 K
Tabular data in the source: 0
pressure (bar)	uptake (mmol/g)
0.0135135	0.223048
0.0189189	0.371747
0.0324324	0.594796
0.0540541	0.892193
0.0837838	1.18959
0.1	1.37546
0.118919	1.59851
0.137838	1.85874
0.156757	2.04461
0.178378	2.34201
0.194595	2.56506
0.218919	2.86245
0.240541	3.04833
0.256757	3.34572
0.281081	3.5316
0.308108	3.75465
0.327027	3.9777
0.362162	4.31227
0.397297	4.57249
0.418919	4.72119
0.440541	4.79554
0.478378	5.01859
0.508108	5.13011
0.545946	5.27881
0.581081	5.39033
0.624324	5.50186
0.664865	5.61338
0.708108	5.72491
0.745946	5.79926
0.767568	5.83643
0.810811	5.94796
0.845946	6.0223
0.886486	6.05948
0.932432	6.09665
0.97027	6.171
0.994595	6.20818
