Adsorption isotherm of Propene on CuBTC
DOI: 10.5012/bkcs.2010.31.01.220
Adsorbate Propene: InChIKey QQONPFPTGQHPMA-UHFFFAOYSA-N
Temperature: 333 K
Tabular data in the source: 0
pressure (bar)	uptake (mmol/g)
0.0162162	1.71642
0.0243243	2.68657
0.0459459	3.76866
0.0621622	4.29104
0.0837838	4.85075
0.102703	5.26119
0.124324	5.59701
0.145946	5.93284
0.167568	6.23134
0.186486	6.45522
0.210811	6.60448
0.254054	6.86567
0.291892	7.08955
0.32973	7.27612
0.37027	7.38806
0.410811	7.46269
0.451351	7.53731
0.489189	7.61194
0.52973	7.68657
0.567568	7.72388
0.610811	7.79851
0.651351	7.83582
0.694595	7.94776
0.732432	7.94776
0.775676	8.02239
0.813514	8.0597
0.856757	8.02239
0.891892	8.09701
0.935135	8.0597
0.975676	8.0597
1	8.13433
