Adsorption isotherm of N-propane on CuBTC
DOI: 10.5012/bkcs.2010.31.01.220
Adsorbate N-propane: InChIKey ATUOYWHBWRKTHZ-UHFFFAOYSA-N
Temperature: 323 K
Tabular data in the source: 0
pressure (bar)	uptake (mmol/g)
0.0216216	0.892193
0.0351351	1.52416
0.0810811	3.04833
0.1	3.75465
0.121622	4.46097
0.145946	5.01859
0.17027	5.39033
0.194595	5.65056
0.216216	5.87361
0.237838	5.94796
0.251351	6.09665
0.267568	6.20818
0.286486	6.28253
0.327027	6.43123
0.362162	6.54275
0.405405	6.69145
0.427027	6.69145
0.464865	6.80297
0.505405	6.9145
0.527027	6.95167
0.567568	6.98885
0.589189	7.02602
0.608108	6.98885
0.627027	7.02602
0.648649	7.13755
0.689189	7.13755
0.72973	7.17472
0.77027	7.2119
0.791892	7.2119
0.810811	7.28625
0.832432	7.28625
0.854054	7.28625
0.891892	7.32342
0.910811	7.32342
0.935135	7.36059
0.972973	7.39777
0.994595	7.43494
