Adsorption isotherm of Propene on CuBTC
DOI: 10.5012/bkcs.2010.31.01.220
Adsorbate Propene: InChIKey QQONPFPTGQHPMA-UHFFFAOYSA-N
Temperature: 353 K
Tabular data in the source: 0
pressure (bar)	uptake (mmol/g)
0.0135135	0.783582
0.0216216	1.23134
0.0486486	2.31343
0.0567568	2.68657
0.0783784	3.24627
0.105405	3.65672
0.121622	3.95522
0.137838	4.25373
0.162162	4.51493
0.186486	4.73881
0.205405	5.03731
0.224324	5.18657
0.248649	5.33582
0.267568	5.48507
0.291892	5.70896
0.310811	5.8209
0.332432	5.93284
0.351351	6.04478
0.364865	6.1194
0.386486	6.19403
0.405405	6.30597
0.427027	6.34328
0.448649	6.45522
0.464865	6.49254
0.486486	6.56716
0.510811	6.64179
0.52973	6.71642
0.545946	6.79104
0.567568	6.82836
0.591892	6.90299
0.610811	6.9403
0.62973	6.9403
0.654054	7.05224
0.675676	7.05224
0.686486	7.08955
0.710811	7.12687
0.72973	7.16418
0.754054	7.16418
0.772973	7.20149
0.789189	7.23881
0.808108	7.27612
0.832432	7.31343
0.851351	7.31343
0.87027	7.35075
0.894595	7.42537
0.908108	7.42537
0.932432	7.42537
0.954054	7.5
0.972973	7.5
0.994595	7.53731
