Adsorption isotherm of Propene on CuBTC
DOI: 10.5012/bkcs.2010.31.01.220
Adsorbate Propene: InChIKey QQONPFPTGQHPMA-UHFFFAOYSA-N
Temperature: 323 K
Tabular data in the source: 0
pressure (bar)	uptake (mmol/g)
0.0108108	2.42537
0.027027	3.58209
0.0405405	4.58955
0.0594595	5.26119
0.0783784	5.85821
0.102703	6.26866
0.124324	6.64179
0.145946	6.90299
0.191892	7.23881
0.213514	7.42537
0.235135	7.53731
0.251351	7.57463
0.275676	7.68657
0.310811	7.79851
0.32973	7.87313
0.367568	7.94776
0.410811	8.02239
0.448649	8.0597
0.489189	8.13433
0.532432	8.20896
0.57027	8.24627
0.610811	8.24627
0.648649	8.3209
0.691892	8.3209
0.732432	8.35821
0.772973	8.39552
0.832432	8.39552
0.856757	8.43284
0.894595	8.47015
0.913514	8.50746
0.954054	8.50746
0.994595	8.50746
