Adsorption isotherm of Propene on CuBTC
DOI: 10.5012/bkcs.2010.31.01.220
Adsorbate Propene: InChIKey QQONPFPTGQHPMA-UHFFFAOYSA-N
Temperature: 303 K
Tabular data in the source: 0
pressure (bar)	uptake (mmol/g)
0.0135135	4.14179
0.0243243	5.37313
0.0432432	6.23134
0.0648649	7.05224
0.0891892	7.5
0.108108	7.68657
0.124324	7.83582
0.151351	7.94776
0.172973	8.0597
0.194595	8.13433
0.210811	8.20896
0.248649	8.28358
0.291892	8.39552
0.327027	8.47015
0.362162	8.50746
0.405405	8.58209
0.445946	8.58209
0.486486	8.6194
0.52973	8.69403
0.567568	8.69403
0.591892	8.69403
0.632432	8.73134
0.667568	8.76866
0.713514	8.80597
0.772973	8.84328
0.810811	8.8806
0.875676	8.8806
0.910811	8.91791
0.951351	8.95522
0.97027	8.95522
0.994595	8.95522
