Adsorption isotherm of N-propane on CuBTC
DOI: 10.5012/bkcs.2010.31.01.220
Adsorbate N-propane: InChIKey ATUOYWHBWRKTHZ-UHFFFAOYSA-N
Temperature: 303 K
Tabular data in the source: 0
pressure (bar)	uptake (mmol/g)
0.0189189	1.59851
0.0432432	3.6803
0.0702703	5.46468
0.072973	5.53903
0.102703	6.05948
0.121622	6.35688
0.145946	6.50558
0.167568	6.65428
0.189189	6.72862
0.208108	6.87732
0.227027	6.95167
0.243243	7.02602
0.267568	7.10037
0.289189	7.13755
0.305405	7.2119
0.327027	7.24907
0.343243	7.28625
0.362162	7.32342
0.386486	7.36059
0.408108	7.39777
0.421622	7.43494
0.445946	7.43494
0.467568	7.47212
0.486486	7.50929
0.508108	7.54647
0.52973	7.54647
0.548649	7.62082
0.57027	7.62082
0.589189	7.65799
0.608108	7.62082
0.62973	7.65799
0.656757	7.69517
0.672973	7.73234
0.691892	7.73234
0.710811	7.73234
0.732432	7.76952
0.754054	7.80669
0.772973	7.76952
0.791892	7.80669
0.816216	7.84387
0.82973	7.84387
0.851351	7.91822
0.87027	7.91822
0.889189	7.91822
0.913514	7.95539
0.935135	7.99257
0.954054	7.99257
0.967568	7.99257
0.991892	7.99257
