Adsorption isotherm of Propene on CuBTC
DOI: 10.5012/bkcs.2010.31.01.220
Adsorbate Propene: InChIKey QQONPFPTGQHPMA-UHFFFAOYSA-N
Temperature: 313 K
Tabular data in the source: 0
pressure (bar)	uptake (mmol/g)
0.0108108	0.0108108
0.0135135	3.20896
0.0216216	4.47761
0.0432432	5.41045
0.0594595	6.19403
0.0837838	6.79104
0.105405	7.05224
0.124324	7.31343
0.145946	7.53731
0.167568	7.68657
0.189189	7.72388
0.221622	7.87313
0.232432	7.91045
0.254054	7.94776
0.267568	8.02239
0.289189	8.0597
0.324324	8.13433
0.364865	8.24627
0.405405	8.3209
0.427027	8.3209
0.448649	8.3209
0.47027	8.35821
0.489189	8.39552
0.521622	8.43284
0.548649	8.39552
0.613514	8.50746
0.648649	8.50746
0.672973	8.54478
0.713514	8.58209
0.732432	8.58209
0.772973	8.58209
0.813514	8.6194
0.835135	8.6194
0.867568	8.65672
0.891892	8.65672
0.92973	8.73134
0.967568	8.73134
0.994595	8.69403
