Adsorption isotherm of N-propane on CuBTC
DOI: 10.5012/bkcs.2010.31.01.220
Adsorbate N-propane: InChIKey ATUOYWHBWRKTHZ-UHFFFAOYSA-N
Temperature: 333 K
Tabular data in the source: 0
pressure (bar)	uptake (mmol/g)
0.0189189	0.483271
0.0351351	0.966543
0.0567568	1.44981
0.0783784	1.89591
0.1	2.37918
0.118919	2.86245
0.137838	3.42007
0.162162	3.86617
0.186486	4.34944
0.208108	4.64684
0.22973	4.90706
0.254054	5.13011
0.275676	5.31599
0.294595	5.42751
0.310811	5.53903
0.327027	5.57621
0.345946	5.68773
0.364865	5.76208
0.383784	5.91078
0.402703	5.98513
0.424324	5.98513
0.445946	6.09665
0.467568	6.171
0.486486	6.20818
0.505405	6.20818
0.527027	6.24535
0.545946	6.3197
0.586486	6.39405
0.627027	6.50558
0.667568	6.54275
0.705405	6.57993
0.748649	6.6171
0.791892	6.65428
0.832432	6.69145
0.872973	6.7658
0.913514	6.84015
0.954054	6.84015
0.994595	6.87732
