Adsorption isotherm of N-propane on CuBTC
DOI: 10.5012/bkcs.2010.31.01.220
Adsorbate N-propane: InChIKey ATUOYWHBWRKTHZ-UHFFFAOYSA-N
Temperature: 313 K
Tabular data in the source: 0
pressure (bar)	uptake (mmol/g)
0.0162162	1.18959
0.0378378	2.11896
0.0567568	3.12268
0.0756757	4.23792
0.108108	5.20446
0.127027	5.61338
0.151351	5.91078
0.17027	6.09665
0.189189	6.24535
0.227027	6.4684
0.245946	6.57993
0.264865	6.65428
0.305405	6.7658
0.327027	6.80297
0.381081	7.02602
0.418919	7.10037
0.462162	7.13755
0.486486	7.17472
0.505405	7.2119
0.527027	7.2119
0.543243	7.24907
0.572973	7.32342
0.594595	7.24907
0.610811	7.32342
0.632432	7.43494
0.648649	7.43494
0.667568	7.39777
0.689189	7.39777
0.710811	7.47212
0.735135	7.50929
0.745946	7.50929
0.772973	7.50929
0.791892	7.54647
0.813514	7.54647
0.832432	7.54647
0.854054	7.58364
0.875676	7.65799
0.894595	7.62082
0.916216	7.62082
0.940541	7.69517
0.972973	7.69517
0.991892	7.69517
