Adsorption isotherm of Nitrogen on QOTHOY
DOI: 10.1039/c4qi00240g
Article source: Figure 3
Adsorbate Nitrogen: InChIKey IJGRMHOSHXDMSA-UHFFFAOYSA-N
Kind: experiment
Temperature: 77 K
Tabular data in the source: 0
pressure (bar)	uptake (cm3(STP)/g)
0.00075	21.086
0.002016	41.206
0.002503	62.747
0.005117	81.333
0.005563	100.202
0.006819	117.537
0.009332	126.063
0.017458	129.133
0.020184	131.463
0.026952	132.941
0.034794	134.249
0.043184	135.272
0.054005	136.921
0.073206	138.912
0.094818	139.709
0.11185	140.562
0.134273	141.416
0.158054	142.099
0.171023	142.725
0.188582	143.01
0.215879	143.978
0.236143	144.604
0.252892	144.833
0.27262	145.345
0.295032	145.403
0.315297	145.291
0.333393	145.406
0.355279	146.43
0.377975	146.261
0.399841	145.523
0.41741	146.49
0.434159	146.548
0.45415	146.549
0.475762	146.607
0.498185	146.665
0.518713	146.78
0.538704	146.952
0.559222	146.498
0.576781	146.556
0.59434	146.671
0.616226	146.729
0.640807	146.559
0.65944	146.617
0.684305	147.244
0.704296	147.7
0.722929	147.758
0.743995	147.247
0.766681	147.021
0.779924	147.022
0.801536	147.08
0.824496	146.968
0.84475	147.196
0.866089	146.743
0.883648	146.573
0.904713	146.972
0.926599	147.542
0.942811	147.486
0.967391	147.544
