Adsorption isotherm of Carbon Dioxide on QOTHOY
DOI: 10.1039/c4qi00240g
Article source: Figure 3
Adsorbate Carbon Dioxide: InChIKey CURLTUGMZLYLDI-UHFFFAOYSA-N
Kind: experiment
Temperature: 273 K
Tabular data in the source: 0
pressure (bar)	uptake (wt%)
0.011159	1.28
0.022638	2.329
0.039357	3.317
0.065635	4.693
0.090966	5.834
0.118204	6.802
0.145921	7.617
0.170293	8.28
0.200877	8.902
0.227155	9.483
0.253926	9.962
0.279244	10.441
0.304575	10.838
0.331813	11.195
0.362877	11.623
0.388675	11.96
0.408753	12.235
0.434071	12.5
0.465615	12.745
0.495719	13.133
0.520091	13.337
0.547808	13.571
0.5717	13.796
0.600377	14.081
0.622362	14.183
0.651506	14.336
0.678264	14.581
0.700729	14.704
0.73466	14.887
0.757591	15.112
0.787215	15.265
0.816853	15.449
0.840264	15.571
0.864636	15.765
0.892833	15.827
0.921498	15.969
0.948735	16.102
0.974547	16.215
0.996531	16.368
1.02329	16.541
1.05483	16.633
1.07586	16.766
