Adsorption isotherm of Carbon Dioxide on QOTHOY
DOI: 10.1039/c4qi00240g
Article source: Figure 3
Adsorbate Carbon Dioxide: InChIKey CURLTUGMZLYLDI-UHFFFAOYSA-N
Kind: experiment
Temperature: 298 K
Tabular data in the source: 0
pressure (bar)	uptake (wt%)
0.015465	0.658
0.054169	1.841
0.067554	2.218
0.092872	2.962
0.12107	3.644
0.150228	4.174
0.170293	4.643
0.199917	5.133
0.228595	5.652
0.256312	6.101
0.278297	6.488
0.310308	6.917
0.336119	7.243
0.35953	7.508
0.393461	7.824
0.416872	8.059
0.441244	8.405
0.468415	8.649
0.495813	8.907
0.517784	9.086
0.546688	9.382
0.57318	9.588
0.598471	9.825
0.629468	10.005
0.655666	10.211
0.680051	10.365
0.707435	10.571
0.73182	10.751
0.757711	10.867
0.791428	11.066
0.814906	11.176
0.842304	11.368
0.869102	11.465
0.894086	11.664
0.922084	11.812
0.946162	11.864
0.973253	12.063
1.00396	12.198
1.02955	12.314
1.05394	12.417
1.08194	12.526
