Adsorption isotherm of Argon on AC1
DOI: 10.1007/s10450-020-00228-1
Article source: figure 1 (a)
Adsorbate Argon: InChIKey XKRFYHLGVUSROY-UHFFFAOYSA-N
Kind: experiment
Temperature: 87 K
Tabular data in the source: 0
pressure (bar)	uptake (cm3(STP)/g)
0	3.63901
0	12.3726
0	24.0175
0	37.1179
0	50.2183
0	61.8632
0	73.508
0.001084	83.6972
0.002168	101.164
0.006505	121.543
0.010842	133.188
0.023842	146.288
0.041178	159.389
0.062852	172.489
0.083441	181.951
0.110535	192.868
0.151714	208.151
0.186397	219.068
0.218903	227.802
0.249249	235.08
0.277428	242.358
0.305596	249.636
0.329438	254.731
0.346785	258.37
0.372785	264.192
0.398795	270.742
0.429142	277.293
0.461647	283.843
0.489825	288.937
0.522341	296.215
0.550519	302.038
0.580856	309.316
0.604697	314.41
0.635044	320.961
0.665381	328.239
0.702233	335.517
0.73257	341.339
0.769422	349.345
0.8236	360.99
0.860452	368.996
0.88863	377.001
0.918967	385.007
0.959061	394.469
0.98724	403.202
0.988324	408.297
0.990492	414.119
0.990492	421.397
0.992661	427.22
0.994829	437.409
0.996997	446.143
0.999166	456.332
1.00349	472.344
1.00349	483.988
1.00783	500
0	44.3959
0	54.5852
0	67.6856
0	85.1528
0	102.62
0.002168	120.087
0.003253	136.099
0.010842	153.566
0.034673	178.311
0.061768	195.779
0.105115	213.974
0.160387	232.897
0.211323	246.725
0.277428	262.737
0.34028	277.293
0.37929	286.026
0.407468	291.849
0.429142	300.582
0.45732	309.316
0.473573	312.227
0.505004	318.049
0.546182	326.783
0.578687	333.333
0.626371	342.795
0.654549	347.889
0.691391	354.44
0.728243	361.718
0.775927	368.996
0.819273	377.001
0.864789	386.463
0.890789	390.83
0.925472	398.836
0.964482	406.841
0.990492	412.664
0.992661	422.853
0.994829	431.587
0.999166	451.965
1.00241	467.977
1.00458	483.988
1.00783	500
