Adsorption isotherm of Argon on AC5
DOI: 10.1007/s10450-020-00228-1
Article source: figure 6 (a)
Adsorbate Argon: InChIKey XKRFYHLGVUSROY-UHFFFAOYSA-N
Kind: experiment
Temperature: 87 K
Tabular data in the source: 0
pressure (bar)	uptake (cm3(STP)/g)
0	20.3125
0	45.3125
0	73.4375
0	107.812
0	135.938
0.002158	170.312
0.002158	201.562
0.006485	229.688
0.012959	264.062
0.023761	295.312
0.041047	323.438
0.060491	343.75
0.077777	364.062
0.101538	385.938
0.131783	410.938
0.168514	442.188
0.196601	464.062
0.218203	479.688
0.248449	501.562
0.283021	525
0.324068	551.562
0.365115	575
0.391044	592.188
0.419131	607.812
0.462336	629.688
0.490423	642.188
0.527153	660.938
0.572517	679.688
0.620048	701.562
0.65462	717.188
0.687024	731.25
0.738872	751.562
0.795047	773.438
0.836093	792.188
0.87714	807.812
0.911712	823.438
0.948432	845.312
0.96356	854.688
0.974361	873.438
0.989489	895.312
0.991648	917.188
0.993806	939.062
0.995964	957.812
0.998122	979.688
1.00029	1004.69
1.00677	1051.56
0.010801	260.938
0.019444	289.062
0.035646	317.188
0.056175	342.188
0.075619	364.062
0.09938	385.938
0.12315	407.812
0.149069	431.25
0.171756	448.438
0.20416	473.438
0.233331	495.312
0.261418	512.5
0.298139	537.5
0.35863	576.562
0.386717	604.688
0.40833	623.438
0.429932	657.812
0.456935	696.875
0.488265	712.5
0.522827	729.688
0.554157	743.75
0.601688	760.938
0.651378	779.688
0.720512	804.688
0.777761	823.438
0.82745	839.062
0.864181	850
0.896584	860.938
0.91387	867.188
0.941958	885.938
0.962476	898.438
0.974361	920.312
0.989489	939.062
0.993806	967.188
1.00029	1007.81
1.00677	1051.56
