Adsorption isotherm of Argon on AC3
DOI: 10.1007/s10450-020-00228-1
Article source: figure 3 (b)
Adsorbate Argon: InChIKey XKRFYHLGVUSROY-UHFFFAOYSA-N
Kind: experiment
Temperature: 87 K
Tabular data in the source: 0
pressure (bar)	uptake (cm3(STP)/g)
0	5.66372
0	12.7434
0	18.4071
0	31.1504
0	43.8938
0	58.0531
0.002351	70.7965
0.002351	82.1239
0.002351	92.0354
0.007042	104.779
0.014084	116.106
0.018786	123.186
0.028178	129.558
0.039922	135.929
0.049315	141.593
0.058708	145.841
0.068101	151.504
0.079834	156.46
0.089227	160
0.09862	164.248
0.110363	168.496
0.120931	171.327
0.1315	175.575
0.139717	178.407
0.150285	181.239
0.163204	185.487
0.171422	188.319
0.180814	191.15
0.190207	192.566
0.201941	196.814
0.227779	202.478
0.253606	208.85
0.304097	219.469
0.354577	229.381
0.405067	239.292
0.454382	247.08
0.506037	254.867
0.556528	263.363
0.609358	271.858
0.658673	281.062
0.710329	290.973
0.761994	300.885
0.810134	312.92
0.861789	326.372
0.911104	341.239
0.96276	358.938
0.988598	373.097
0.304097	249.204
0.354577	257.699
0.403892	269.027
0.456722	320
0.508388	329.204
0.557703	334.867
0.609358	339.115
0.658673	343.363
0.707988	345.487
0.760819	351.15
0.812475	355.398
0.860614	361.062
0.91228	366.726
0.96276	377.345
0.990938	389.381
1.00972	438.938
