Adsorption isotherm of Argon on AC2
DOI: 10.1007/s10450-020-00228-1
Article source: figure 2 (a)
Adsorbate Argon: InChIKey XKRFYHLGVUSROY-UHFFFAOYSA-N
Kind: experiment
Temperature: 87 K
Tabular data in the source: 0
pressure (bar)	uptake (cm3(STP)/g)
0	4.7619
0	14.2857
0	29.5238
0	46.6667
0	63.8095
0	86.6667
0	111.429
0	136.19
0	160.952
0	181.905
0.002067	210.476
0.004134	240.952
0.008268	265.714
0.014479	290.476
0.021714	307.619
0.031016	330.476
0.05273	362.857
0.079611	395.238
0.103392	418.095
0.128207	436.19
0.159222	456.19
0.184037	467.619
0.212985	479.048
0.25848	490.476
0.283295	496.19
0.320521	501.905
0.351537	507.619
0.382553	512.381
0.412535	516.19
0.430114	518.095
0.473542	522.857
0.506625	527.619
0.561422	534.286
0.666881	546.667
0.721677	553.333
0.747535	556.19
0.785786	560.952
0.826113	565.714
0.862296	570.476
0.891245	578.095
0.924327	585.714
0.947075	591.429
0.967755	597.143
0.987402	604.762
0.998771	623.81
1.00808	640.952
0.010335	275.238
0.014479	292.381
0.024814	317.143
0.037217	341.905
0.05583	366.667
0.072376	385.714
0.103392	416.19
0.144753	446.667
0.175768	463.81
0.242977	486.667
0.287429	497.143
0.332924	505.714
0.397032	514.286
0.42288	520.952
0.506625	540
0.453895	530.476
0.523171	541.905
0.545919	543.81
0.568656	546.667
0.589337	548.571
0.618285	551.429
0.6431	554.286
0.669981	557.143
0.691695	560
0.713409	562.857
0.738224	565.714
0.752703	566.667
0.767172	568.571
0.794054	570.476
0.814734	572.381
0.837482	575.238
0.874708	580
0.895379	583.81
0.920193	587.619
0.940874	593.333
0.963621	597.143
0.986368	604.762
0.994637	616.19
1.00085	629.524
1.00705	640.952
