Adsorption isotherm of Argon on AC4
DOI: 10.1007/s10450-020-00228-1
Article source: figure 4 (a)
Adsorbate Argon: InChIKey XKRFYHLGVUSROY-UHFFFAOYSA-N
Kind: experiment
Temperature: 87 K
Tabular data in the source: 0
pressure (bar)	uptake (cm3(STP)/g)
0	8.01336
0	21.3689
0	42.7379
0	61.4357
0	82.8047
0	104.174
0	141.569
0	178.965
0	205.676
0	229.716
0	264.441
0.001059	287.145
0.002118	317.863
0.004235	347.245
0.006353	373.957
0.009529	395.326
0.01694	430.05
0.025411	456.761
0.035998	480.801
0.048704	510.184
0.076232	548.915
0.08682	560.935
0.100584	578.297
0.124936	599.666
0.146112	615.693
0.168345	630.384
0.196932	643.74
0.224461	654.424
0.249872	663.773
0.277399	671.786
0.304927	679.8
0.336691	687.813
0.385395	698.497
0.425629	707.846
0.457392	713.189
0.491272	717.195
0.533624	725.209
0.569622	730.551
0.607738	737.229
0.645855	742.571
0.703028	750.584
0.743261	758.598
0.800436	766.611
0.842787	773.289
0.899961	782.638
0.958194	794.658
0.986781	801.336
0.995251	817.362
1.00796	836.06
0.010588	406.01
0.016942	430.05
0.025412	456.761
0.039172	491.486
0.05506	520.868
0.078344	555.593
0.103757	584.975
0.13764	614.357
0.179994	639.733
0.228701	659.766
0.277397	675.793
0.31657	686.477
0.376929	699.833
0.431979	710.518
0.499745	723.873
0.565383	734.558
0.624679	743.906
0.66915	750.584
0.717847	758.598
0.758083	763.94
0.823732	774.624
0.853379	779.967
0.891488	786.644
0.933842	794.658
0.964543	800
0.987838	808.013
1.0069	836.06
