Adsorption isotherm of Ethane on Zeolite 5A
DOI: 10.1007/s10450-012-9423-1
Article source: Table 3
Adsorbate Ethane: InChIKey OTMSDBZUPAUEDD-UHFFFAOYSA-N
Kind: experiment
Temperature: 283 K
Tabular data in the source: 1
pressure (bar)	uptake (mmol/g)
0.0816	0.669
0.173	1.247
0.262	1.626
0.486	1.81
0.679	1.921
0.858	1.993
1.352	2.106
2.769	2.24
4.79	2.324
6.816	2.37
8.326	2.373
9.296	2.377
