Adsorption isotherm of Ethane on Zeolite 5A
DOI: 10.1007/s10450-012-9423-1
Article source: Table 3
Adsorbate Ethane: InChIKey OTMSDBZUPAUEDD-UHFFFAOYSA-N
Kind: experiment
Temperature: 323 K
Tabular data in the source: 1
pressure (bar)	uptake (mmol/g)
0.122	0.454
0.219	0.707
0.306	0.898
0.494	1.125
0.712	1.286
0.922	1.402
1.45	1.569
2.934	1.793
4.907	1.951
6.926	1.933
8.451	2.013
9.476	2.025
