Adsorption isotherm of Ethene on Zeolite 5A
DOI: 10.1007/s10450-012-9423-1
Article source: Table 2
Adsorbate Ethene: InChIKey VGGSQFUCUMXWEO-UHFFFAOYSA-N
Kind: experiment
Temperature: 323 K
Tabular data in the source: 1
pressure (bar)	uptake (mmol/g)
0.051	0.82
0.134	1.332
0.232	1.64
0.401	1.88
0.606	2.043
0.782	2.134
0.933	2.192
1.346	2.306
2.445	2.457
4.474	2.551
5.966	2.569
7.864	2.572
9.503	2.476
