Adsorption isotherm of Ethene on Zeolite 5A
DOI: 10.1007/s10450-012-9423-1
Article source: Table 2
Adsorbate Ethene: InChIKey VGGSQFUCUMXWEO-UHFFFAOYSA-N
Kind: experiment
Temperature: 303 K
Tabular data in the source: 1
pressure (bar)	uptake (mmol/g)
0.063	1.056
0.18	1.675
0.324	1.941
0.452	2.187
0.551	2.257
0.65	2.314
0.769	2.385
0.852	2.416
0.963	2.448
1.318	2.538
2.455	2.728
4.421	2.809
6.402	2.816
7.941	2.817
9.492	2.819
