Adsorption isotherm of Ethane on Zeolite 5A
DOI: 10.1007/s10450-012-9423-1
Article source: Table 3
Adsorbate Ethane: InChIKey OTMSDBZUPAUEDD-UHFFFAOYSA-N
Kind: experiment
Temperature: 303 K
Tabular data in the source: 1
pressure (bar)	uptake (mmol/g)
0.086	0.509
0.209	0.946
0.291	1.206
0.492	1.462
0.711	1.611
0.923	1.721
1.454	1.846
2.911	2.014
4.914	2.121
6.922	2.18
8.445	2.201
9.442	2.223
