Adsorption isotherm of Ethene on Zeolite 5A
DOI: 10.1007/s10450-012-9423-1
Article source: Table 2
Adsorbate Ethene: InChIKey VGGSQFUCUMXWEO-UHFFFAOYSA-N
Kind: experiment
Temperature: 283 K
Tabular data in the source: 1
pressure (bar)	uptake (mmol/g)
0.049	1.474
0.184	2.159
0.376	2.394
0.517	2.51
0.726	2.642
0.836	2.722
0.953	2.788
1.321	2.892
2.581	3.038
4.451	3.098
6.479	3.115
7.938	3.118
9.507	3.12
