Adsorption isotherm of Ethanol on Silicalite MFI
DOI: 10.1016/j.memsci.2006.12.025
Adsorbate Ethanol: InChIKey LFQSCWFLJHTTHZ-UHFFFAOYSA-N
Temperature: 303 K
Tabular data in the source: 0
pressure (bar)	uptake (mmol/g)
0.000575691	0.579926
0.000863536	1.60595
0.0143923	1.93309
0.0172707	2.00743
0.020437	2.09665
0.0227398	2.12639
0.0253304	2.24535
0.0261939	2.18587
0.0287845	2.23048
0.031663	2.26022
0.0345414	2.27509
0.037132	2.28996
0.0397227	2.30483
0.044616	2.30483
0.0489337	2.33457
0.0523878	2.33457
0.0552663	2.33457
0.0581448	2.34944
0.0610232	2.34944
0.0639017	2.36431
0.0667801	2.36431
0.0693707	2.37918
0.0722492	2.37918
0.0751276	2.37918
0.0780061	2.39405
0.0808845	2.39405
0.083763	2.39405
0.0866414	2.39405
0.0895199	2.40892
0.0923983	2.40892
0.0952768	2.40892
0.0981552	2.42379
0.0995945	2.42379
