Adsorption isotherm of Water on Silicalite MFI
DOI: 10.1016/j.memsci.2006.12.025
Adsorbate Water: InChIKey XLYOFNOQVPJJNP-UHFFFAOYSA-N
Temperature: 303 K
Tabular data in the source: 0
pressure (bar)	uptake (mmol/g)
0.000659985	0.0148699
0.00155422	0.0297398
0.00228856	0.0594796
0.00360853	0.0892193
0.00589709	0.148699
0.00752566	0.193309
0.00915423	0.237918
0.00969709	0.252788
0.0110171	0.282528
0.0122199	0.312268
0.0135399	0.342007
0.014977	0.371747
0.0163713	0.416357
0.0175741	0.446097
0.0189684	0.490706
0.0201713	0.520446
0.0214913	0.550186
0.0234712	0.594796
0.0247484	0.639405
0.0260684	0.669145
0.0273456	0.713755
0.0286655	0.743494
0.0298684	0.773234
0.0311884	0.802974
0.0323912	0.832714
0.0337112	0.862454
0.0351055	0.907063
0.0363083	0.936803
0.037394	0.966543
0.038714	0.996283
0.0399912	1.04089
0.0413112	1.07063
0.042514	1.10037
0.043834	1.13011
0.0451112	1.17472
0.0464311	1.20446
0.0478255	1.24907
0.0487197	1.26394
