Adsorption isotherm of Nitrogen on Zn-Atz
DOI: 10.1021/Ie303343m
Adsorbate Nitrogen: InChIKey IJGRMHOSHXDMSA-UHFFFAOYSA-N
Temperature: 298 K
Tabular data in the source: 0
pressure (bar)	uptake (molecules/unitcell)
0.111747	0.00748405
1.09855	0.73333
3.02924	1.97469
5.04574	2.95577
7.06224	3.81672
9.03584	4.39736
12.082	5.0781
14.9995	5.69879
18.0457	6.17931
21.0919	6.55973
24.0523	6.90011
27.0985	7.16039
30.0589	7.40066
