Adsorption isotherm of Carbon Dioxide on Zn-Atz
DOI: 10.1021/Ie303343m
Adsorbate Carbon Dioxide: InChIKey CURLTUGMZLYLDI-UHFFFAOYSA-N
Temperature: 298 K
Tabular data in the source: 0
pressure (bar)	uptake (molecules/unitcell)
0.283364	7.16039
0.283364	8.0814
0.54079	9.04246
1.09855	10.2838
2.12825	11.6453
4.05894	12.7065
6.07544	13.1269
7.10515	13.7076
9.03584	13.9078
10.9665	14.2081
12.082	14.4884
13.1117	14.4084
15.0853	14.7888
16.0292	14.6887
17.2306	14.8488
19.0754	14.949
22.1216	15.2092
24.1811	15.029
27.0556	15.3294
29.0721	15.0891
30.1018	15.2493
