Adsorption isotherm of Carbon Dioxide on Zn-Atz
DOI: 10.1021/Ie303343m
Adsorbate Carbon Dioxide: InChIKey CURLTUGMZLYLDI-UHFFFAOYSA-N
Temperature: 273 K
Tabular data in the source: 0
pressure (bar)	uptake (mmol/g)
0.00790222	0.512179
0.0164831	0.984126
0.0250639	1.44892
0.055955	2.16399
0.0799814	2.49293
0.114305	2.82186
0.169222	3.1794
0.231005	3.42967
0.296219	3.61559
0.418067	3.82296
0.538199	3.95882
0.654899	4.05893
0.780179	4.13044
0.898595	4.2091
1.01873	4.27345
1.07879	4.29491
1.20064	4.34496
