Adsorption isotherm of Carbon Dioxide on Zn-Atz
DOI: 10.1021/Ie303343m
Adsorbate Carbon Dioxide: InChIKey CURLTUGMZLYLDI-UHFFFAOYSA-N
Temperature: 298 K
Tabular data in the source: 0
pressure (bar)	uptake (molecules/unitcell)
0.102621	3.09173
0.205421	4.68256
0.305124	5.47128
0.50278	6.47632
0.709045	7.00054
1.03289	7.56718
1.98866	8.61534
4.0067	9.68225
6.02908	9.93674
7.81497	10.3311
9.9993	10.7411
20.1463	11.9156
29.731	12.3885
49.3091	13.0483
