Adsorption isotherm of Hydrogen on Zn-Atz
DOI: 10.1021/Ie303343m
Adsorbate Hydrogen: InChIKey UFHFLCQGNIYNRP-UHFFFAOYSA-N
Temperature: 273 K
Tabular data in the source: 0
pressure (bar)	uptake (mmol/g)
0.105444	0.00150689
0.155785	0.0127945
0.26562	0.0223288
0.338843	0.0175617
0.437237	0.0127945
0.535631	0.0509317
0.608855	0.0652331
0.637457	0.060466
0.731275	0.0747674
0.868568	0.0700003
1.00243	0.0795345
1.09854	0.0890688
