Adsorption isotherm of Nitrogen on Zn-Atz
DOI: 10.1021/Ie303343m
Adsorbate Nitrogen: InChIKey IJGRMHOSHXDMSA-UHFFFAOYSA-N
Temperature: 298 K
Tabular data in the source: 0
pressure (bar)	uptake (molecules/unitcell)
0.104638	0.054709
0.206758	0.0872721
0.303151	0.109513
0.522732	0.152451
0.718303	0.188837
0.919073	0.200188
1.01958	0.226444
2.05421	0.327735
4.05901	0.486804
6.1078	0.576227
8.17797	0.599094
9.07227	0.660311
10.3961	0.58755
20.4093	0.746913
30.711	0.812624
40.3277	0.884116
50.6052	0.686515
