Adsorption isotherm of Carbon Dioxide on Zn-Atz
DOI: 10.1021/Ie303343m
Adsorbate Carbon Dioxide: InChIKey CURLTUGMZLYLDI-UHFFFAOYSA-N
Temperature: 273 K
Tabular data in the source: 0
pressure (bar)	uptake (mmol/g)
0.00705032	0.456139
0.00705032	0.80414
0.00819444	1.07587
0.0104827	1.48584
0.0196356	2.32009
0.0608237	2.58228
0.102012	2.7396
0.20155	2.93029
0.302232	3.0876
0.49902	3.24968
0.600846	3.3641
0.701528	3.37363
0.799922	3.51664
0.900604	3.49281
0.998998	3.57862
1.10311	3.62629
1.20036	3.65966
