Adsorption isotherm of Nitrogen on Zn-Atz
DOI: 10.1021/Ie303343m
Adsorbate Nitrogen: InChIKey IJGRMHOSHXDMSA-UHFFFAOYSA-N
Temperature: 273 K
Tabular data in the source: 0
pressure (bar)	uptake (mmol/g)
0.00819444	0.00326025
0.0608237	0.0175617
0.103156	0.0461645
0.202694	0.112905
0.301088	0.160576
0.399482	0.217782
0.500164	0.255919
0.600846	0.308357
0.702672	0.360796
0.799922	0.418002
0.902892	0.446605
1.00701	0.494276
1.09968	0.527646
1.20379	0.57055
