Adsorption isotherm of Nitrogen on Zn-Atz
DOI: 10.1021/Ie303343m
Adsorbate Nitrogen: InChIKey IJGRMHOSHXDMSA-UHFFFAOYSA-N
Temperature: 273 K
Tabular data in the source: 0
pressure (bar)	uptake (mmol/g)
0.0230679	0.060466
0.0551031	0.0652331
0.152353	0.093836
0.269053	0.0795345
0.34342	0.108137
0.44067	0.151042
0.536775	0.151042
0.635169	0.179645
0.740428	0.227316
0.873145	0.241617
1.00357	0.232083
