Adsorption isotherm of Carbon Dioxide on Zn-Atz
DOI: 10.1021/Ie303343m
Adsorbate Carbon Dioxide: InChIKey CURLTUGMZLYLDI-UHFFFAOYSA-N
Temperature: 298 K
Tabular data in the source: 0
pressure (bar)	uptake (molecules/unitcell)
0.103961	2.93519
0.206758	4.50352
0.30711	5.54233
0.526134	6.35108
0.713659	6.86515
1.03289	7.23078
2.08103	8.17912
4.11201	8.89869
6.18755	9.13259
7.22977	9.74457
9.37131	9.74457
10.2621	10.1313
20.4093	10.8805
30.9108	11.2392
40.5901	11.6097
50.6052	12.3075
