Adsorption isotherm of Carbon Dioxide on Zn-Atz
DOI: 10.1021/Ie303343m
Adsorbate Carbon Dioxide: InChIKey CURLTUGMZLYLDI-UHFFFAOYSA-N
Temperature: 273 K
Tabular data in the source: 0
pressure (bar)	uptake (mmol/g)
0.00618604	0.0616836
0.00961839	1.56333
0.0130507	1.90657
0.0199154	2.2498
0.0405095	2.55728
0.0988593	2.92197
0.20183	3.2366
0.303084	3.42967
0.400906	3.62989
0.50216	3.81581
0.599981	3.91592
0.699519	3.99458
0.800774	3.99458
0.903744	4.08754
0.999849	4.16619
1.10282	4.25915
1.19893	4.28061
