Adsorption isotherm of Hydrogen on Zn-Atz
DOI: 10.1021/Ie303343m
Adsorbate Hydrogen: InChIKey UFHFLCQGNIYNRP-UHFFFAOYSA-N
Temperature: 273 K
Tabular data in the source: 0
pressure (bar)	uptake (mmol/g)
0.00132975	0.00326025
0.102012	0.00326025
0.20155	0.0080274
0.302232	0.00326025
0.399482	0.00326025
0.500164	0.00326025
0.599702	0.0175617
0.700384	0.0223288
0.801066	0.0223288
0.900604	0.0223288
1.00014	0.0175617
1.10311	0.0175617
1.20036	0.027096
