Adsorption isotherm of Methane on Zn-Atz
DOI: 10.1021/Ie303343m
Adsorbate Methane: InChIKey VNWKTOKETHGBQD-UHFFFAOYSA-N
Temperature: 298 K
Tabular data in the source: 0
pressure (bar)	uptake (molecules/unitcell)
0.103961	0.169319
0.204093	0.253826
0.301192	0.366502
0.405901	0.42284
0.59129	0.535516
0.791701	0.620023
1.00644	0.732699
2.0016	0.929882
2.95387	1.04256
4.89903	1.1834
5.87467	1.21157
7.76444	0.98622
8.89744	1.21157
9.74321	1.21157
19.252	1.40876
38.0409	1.40876
48.9903	1.26791
