Adsorption isotherm of Methane on Zn-Atz
DOI: 10.1021/Ie303343m
Adsorbate Methane: InChIKey VNWKTOKETHGBQD-UHFFFAOYSA-N
Temperature: 298 K
Tabular data in the source: 0
pressure (bar)	uptake (molecules/unitcell)
0.197555	0.312868
0.369173	1.31397
0.712407	2.35511
1.09855	3.39626
2.04244	4.97799
4.10185	6.29945
6.07544	6.84004
9.03584	7.36061
12.2108	7.64092
15.1282	7.84114
18.0886	8.04136
21.049	8.20154
24.0952	8.32167
27.1414	8.46182
29.9731	8.56193
