Adsorption isotherm of Carbon Dioxide on Zn-Atz
DOI: 10.1021/Ie303343m
Adsorbate Carbon Dioxide: InChIKey CURLTUGMZLYLDI-UHFFFAOYSA-N
Temperature: 273 K
Tabular data in the source: 0
pressure (bar)	uptake (mmol/g)
0.00790222	0.619439
0.0113346	1.06993
0.0216316	2.2069
0.0370771	2.37852
0.095427	2.73605
0.303084	3.12219
0.402622	3.2652
0.498727	3.31526
0.60513	3.41537
0.701236	3.53693
0.80249	3.61559
0.902028	3.73
1.00157	3.7443
1.10282	3.81581
1.19893	3.90162
