Adsorption isotherm of Carbon Dioxide on Zn-Atz
DOI: 10.1021/Ie303343m
Adsorbate Carbon Dioxide: InChIKey CURLTUGMZLYLDI-UHFFFAOYSA-N
Temperature: 298 K
Tabular data in the source: 0
pressure (bar)	uptake (molecules/unitcell)
0.197555	3.47634
0.326268	5.15819
0.497885	6.6198
0.669503	7.2605
1.01274	8.00132
2.12825	9.02244
4.10185	9.96347
6.03254	10.5641
8.09194	10.8044
9.07874	11.1047
12.1249	11.5853
14.0556	11.5252
16.115	11.9657
16.9731	11.7254
18.1315	12.0057
18.9896	11.8856
19.9764	12.0858
21.95	12.1258
24.0952	12.1659
25.983	12.266
27.0985	12.4862
28.0853	12.4262
30.1018	12.5463
