Adsorption isotherm of Hydrogen on Zn-Atz
DOI: 10.1021/Ie303343m
Adsorbate Hydrogen: InChIKey UFHFLCQGNIYNRP-UHFFFAOYSA-N
Temperature: 298 K
Tabular data in the source: 0
pressure (bar)	uptake (molecules/unitcell)
0.103289	0.00413964
0.204093	0.00660358
0.31112	0.00844932
0.509345	0.0118386
0.709045	0.0147596
1.03289	0.018885
2.01463	0.029354
4.0067	0.0427609
5.95138	0.0547128
8.07257	0.0656088
9.9993	0.0700054
19.252	0.0828649
29.9244	0.100665
48.6736	0.111673
