Adsorption isotherm of Hydrogen on Zn-Atz
DOI: 10.1021/Ie303343m
Adsorbate Hydrogen: InChIKey UFHFLCQGNIYNRP-UHFFFAOYSA-N
Temperature: 298 K
Tabular data in the source: 0
pressure (bar)	uptake (molecules/unitcell)
0.884024	0.03256
3.11505	0.172714
5.04574	0.292846
7.01934	0.453022
9.12165	0.553132
10.9665	0.673264
13.0688	0.793396
15.1712	0.893506
18.0886	1.0737
21.0919	1.2539
24.1811	1.4341
26.0688	1.51419
28.0853	1.67436
29.8873	1.77447
