Adsorption isotherm of Carbon Dioxide on Zn-Atz
DOI: 10.1021/Ie303343m
Adsorbate Carbon Dioxide: InChIKey CURLTUGMZLYLDI-UHFFFAOYSA-N
Temperature: 298 K
Tabular data in the source: 0
pressure (bar)	uptake (molecules/unitcell)
0.105319	937855
0.202774	13400000
0.299244	59600000
0.499529	218000000
0.796853	577000000
0.980661	1100000000
1.97581	6780000000
4.0067	50600000000
5.83669	185000000000
7.91701	879000000000
8.95534	459000000000
9.80661	1300000000000
19.3773	3010000000000
29.158	6560000000000
38.0409	24000000000000
48.0463	55800000000000
