Adsorption isotherm of Methane on Zn-Atz
DOI: 10.1021/Ie303343m
Adsorbate Methane: InChIKey VNWKTOKETHGBQD-UHFFFAOYSA-N
Temperature: 298 K
Tabular data in the source: 0
pressure (bar)	uptake (molecules/unitcell)
0.105319	0.251224
0.205421	0.499635
0.301192	0.718454
0.413877	0.943428
0.61078	1.35661
1.00644	2.08147
2.04093	3.40765
2.99244	4.24845
5.09345	5.16104
7.09045	5.95263
10.1299	6.6898
20.016	7.23129
30.3151	7.81662
40.3277	7.91868
50.278	7.81662
