Adsorption isotherm of Hydrogen on Zn-Atz
DOI: 10.1021/Ie303343m
Adsorbate Hydrogen: InChIKey UFHFLCQGNIYNRP-UHFFFAOYSA-N
Temperature: 298 K
Tabular data in the source: 0
pressure (bar)	uptake (molecules/unitcell)
0.105319	0.00334199
0.201463	0.00639285
0.30711	0.00943428
0.506052	0.0156469
0.81251	0.0227933
1.00644	0.0284173
2.02774	0.0465229
4.03277	0.0742136
6.14755	0.0974526
7.91701	0.11686
9.9993	0.136544
20.4093	0.223541
30.1192	0.286022
40.067	0.356594
50.6052	0.438848
