Adsorption isotherm of Carbon Dioxide on Zn-Atz
DOI: 10.1021/Ie303343m
Adsorbate Carbon Dioxide: InChIKey CURLTUGMZLYLDI-UHFFFAOYSA-N
Temperature: 298 K
Tabular data in the source: 0
pressure (bar)	uptake (molecules/unitcell)
2.08534	8.92233
4.01604	9.86336
6.03254	10.1637
8.04904	10.5441
10.1084	10.7443
12.2108	10.8645
13.0688	11.0046
14.0556	10.9846
15.0424	11.2649
16.0721	11.0647
17.1018	11.2249
19.0754	11.345
22.0358	11.3049
23.1084	11.5452
25.1679	11.345
28.0853	11.7855
28.9005	11.4851
30.1018	11.5652
