Adsorption isotherm of Nitrogen on ZIF-8
DOI: 10.1021/La102582g
Adsorbate Nitrogen: InChIKey IJGRMHOSHXDMSA-UHFFFAOYSA-N
Temperature: 77 K
Tabular data in the source: 0
pressure (bar)	uptake (cm3(STP)/g)
0.00102265	6.99052
0.00306796	234.791
0.00613592	273.931
0.0112492	315.871
0.0153398	331.255
0.0204531	356.425
0.0286343	377.412
0.0378381	383.028
0.0480647	383.058
0.0572685	383.084
0.0664724	383.11
0.0766989	384.537
0.0869255	384.567
0.097152	384.596
0.107379	384.626
0.117605	384.655
0.127832	384.685
0.138058	384.714
0.148285	384.743
0.158511	384.773
0.168738	384.802
0.178964	384.832
0.189191	384.861
0.199417	384.89
0.209644	384.92
0.21987	384.949
0.230097	384.979
0.240323	385.008
0.25055	385.038
0.260776	385.067
0.271003	385.096
0.281229	385.126
0.291456	386.553
0.301683	385.185
0.311909	385.214
0.322136	385.244
0.332362	385.273
0.342589	385.302
0.352815	385.332
0.363042	385.361
0.373268	385.391
0.383495	385.42
0.393721	385.449
0.403948	385.479
0.414174	385.508
0.424401	385.538
0.434627	385.567
0.444854	385.597
0.45508	385.626
0.465307	385.655
0.475533	385.685
0.484737	387.109
