Adsorption isotherm of Nitrogen on C60H53Cd3N9NaO19.5
DOI: 10.1007/s00706-011-0592-5
Adsorbate Nitrogen: InChIKey IJGRMHOSHXDMSA-UHFFFAOYSA-N
Temperature: 77 K
Tabular data in the source: 0
pressure (bar)	uptake (cm3(STP)/g)
0.0101997	0.317635
0.0305991	0.714053
0.0560983	1.34891
0.0841474	1.7447
0.0994469	2.14153
0.114746	2.45875
0.155545	3.25158
0.175945	3.56838
0.193794	3.88539
0.239693	4.75743
0.290691	5.62904
0.33914	6.50087
0.387588	7.29308
0.438586	8.16469
0.484485	9.03673
0.532934	9.82894
0.581382	10.7008
0.63238	11.4928
0.678279	12.3648
0.729277	13.2364
0.780276	13.9488
0.798125	14.3454
0.826174	14.9004
0.851674	15.3761
0.874623	15.7723
0.900122	16.2479
0.923071	16.7237
0.948571	17.4382
0.96132	18.0741
