Adsorption isotherm of Argon on Er2(TBDC)3(phen)2*4DMF*2H2O
DOI: 10.1021/Ic100822s
Adsorbate Argon: InChIKey XKRFYHLGVUSROY-UHFFFAOYSA-N
Temperature: 77 K
Tabular data in the source: 0
pressure (bar)	uptake (ml/g)
0.00515504	1.34086
0.035188	2.54218
0.0981143	3.40027
0.15103	3.82931
0.205375	4.42997
0.266871	4.77321
0.325507	5.20225
0.384143	5.7171
0.464231	6.40357
0.547179	7.26165
0.630128	8.20555
0.725947	9.40687
0.831778	11.4663
0.927597	13.5257
0.947619	14.4696
