Adsorption isotherm of Carbon Dioxide on Er2(TBDC)3(phen)2*4DMF*2H2O
DOI: 10.1021/Ic100822s
Adsorbate Carbon Dioxide: InChIKey CURLTUGMZLYLDI-UHFFFAOYSA-N
Temperature: 195 K
Tabular data in the source: 0
pressure (bar)	uptake (ml/g)
0.00658518	8.37717
0.00658518	14.4696
0.0208866	17.1296
0.0738019	19.2749
0.175342	22.364
0.282603	25.3673
0.388433	28.2848
0.482823	31.5455
0.578642	34.9778
0.665881	38.4102
0.773142	42.4432
0.870392	46.6478
0.95763	51.1098
