Adsorption isotherm of Nitrogen on Er2(TBDC)3(phen)2*4DMF*2H2O
DOI: 10.1021/Ic100822s
Adsorbate Nitrogen: InChIKey IJGRMHOSHXDMSA-UHFFFAOYSA-N
Temperature: 77 K
Tabular data in the source: 0
pressure (bar)	uptake (ml/g)
0.0137359	0.91182
0.0394785	2.28476
0.106695	3.91512
0.145309	4.85901
0.266871	6.661
0.382713	7.86231
0.478532	8.80621
0.564341	9.49268
0.681613	10.4366
0.760271	11.3805
0.848939	12.496
0.909005	13.5257
0.947619	13.9547
