Adsorption isotherm of Hydrogen on Er2(TBDC)3(phen)2*4DMF*2H2O
DOI: 10.1021/Ic100822s
Adsorbate Hydrogen: InChIKey UFHFLCQGNIYNRP-UHFFFAOYSA-N
Temperature: 77 K
Tabular data in the source: 0
pressure (bar)	uptake (ml/g)
0.00515504	1.42667
0.0108756	4.00093
0.0180263	6.06033
0.0380483	8.89202
0.0609306	12.0669
0.0909636	13.9547
0.129577	16.529
0.179632	18.8458
0.226827	21.0768
0.276882	23.1362
0.324077	24.7666
0.372702	26.5686
0.427047	28.1989
0.522867	30.859
0.673032	34.7204
0.688763	36.0933
0.741679	36.4366
0.818906	38.4102
0.916156	40.5554
0.987663	42.4432
