Adsorption isotherm of Nitrogen on AN-8
DOI: 10.1039/c5ta03575a
Article source: Figure  3a
Adsorbate Nitrogen: InChIKey IJGRMHOSHXDMSA-UHFFFAOYSA-N
Kind: experiment
Temperature: 77 K
Tabular data in the source: 0
pressure (bar)	uptake (cm3(STP)/g)
0.004134	60.21
0.004205	60.36
0.009525	66.3
0.054736	76.91
0.083887	78.72
0.096735	86.52
0.111883	80.36
0.122968	86.33
0.133455	80.84
0.143963	85.99
0.16289	81.16
0.173985	88.13
0.188546	81.14
0.196429	87.12
0.213613	80.96
0.226168	88.43
0.239846	81.94
0.248611	88.58
0.26462	80.92
0.272807	87.07
0.289982	81.07
0.296122	87.22
0.313895	81.56
0.346258	86.02
0.365196	81.52
0.400477	85.65
0.412129	82.32
0.453237	86.12
0.464595	81.46
0.50162	84.26
0.515896	81.92
0.552049	84.39
0.56516	81.06
0.602772	83.36
0.610929	81.19
0.655826	84.16
0.664266	80.49
0.704796	83.46
0.717026	80.63
0.754061	82.76
0.765419	79.6
0.805939	82.23
0.818757	79.23
0.855791	81.37
0.86948	78.86
0.90622	81.67
0.917873	80
0.959264	80.97
0.968596	80.63
0.988415	80.45
0.998325	79.94
