Adsorption isotherm of Nitrogen on AN-10
DOI: 10.1039/c5ta03575a
Article source: Figure  3a
Adsorbate Nitrogen: InChIKey IJGRMHOSHXDMSA-UHFFFAOYSA-N
Kind: experiment
Temperature: 77 K
Tabular data in the source: 0
pressure (bar)	uptake (cm3(STP)/g)
0.006302	162.69
0.006951	183.46
0.008501	214.87
0.00994	208.22
0.017012	236.3
0.02754	247.26
0.042161	264.37
0.052963	270.34
0.073988	282.46
0.103179	296.07
0.132057	301.53
0.156851	307.33
0.179599	311.97
0.198567	317.78
0.213127	312.45
0.220422	317.6
0.23936	315.26
0.247253	320.07
0.264732	317.4
0.274662	323.87
0.286598	318.88
0.295069	324.36
0.315455	318.36
0.345498	324.83
0.36094	321.66
0.398268	326.45
0.42216	323.28
0.451616	328.25
0.470847	324.58
0.499431	332.53
0.520983	325.87
0.547236	332.67
0.572588	327.5
0.601171	334.3
0.622146	328.96
0.650729	336.26
0.669657	330.43
0.695627	336.89
0.723015	332.22
0.750717	337.69
0.77315	333.35
0.800569	338.82
0.822131	334.32
0.851586	339.95
0.871395	335.78
0.902015	340.91
0.923577	336.74
0.956528	342.37
0.974301	339.87
0.992975	344.34
1.00378	350.98
