Adsorption isotherm of Nitrogen on AN-7
DOI: 10.1039/c5ta03575a
Article source: Figure  3a
Adsorbate Nitrogen: InChIKey IJGRMHOSHXDMSA-UHFFFAOYSA-N
Kind: experiment
Temperature: 77 K
Tabular data in the source: 0
pressure (bar)	uptake (cm3(STP)/g)
0.01605	4.97
0.051027	6.45
0.082225	6.26
0.096532	16.72
0.106118	5.41
0.121023	17.37
0.135269	6.23
0.14609	16.36
0.157722	6.88
0.171168	18.33
0.183084	7.19
0.193602	16.99
0.20874	7.51
0.22101	17.47
0.232642	7.49
0.247243	17.29
0.258581	9.14
0.27144	17.44
0.283062	6.96
0.29592	17.75
0.311351	10.27
0.347514	17.39
0.358569	9.9
0.397356	16.36
0.414247	9.87
0.454787	17.65
0.462924	9.5
0.504923	17.28
0.512482	10.47
0.553316	16.92
0.564664	10.43
0.604039	16.55
0.613351	11.56
0.652422	16.52
0.662321	10.7
0.706357	17.82
0.71654	11.5
0.75328	16.95
0.766676	11.96
0.806334	16.26
0.817105	12.59
0.853846	16.39
0.866663	13.06
0.904863	16.19
0.916221	14.19
0.955586	16.49
0.96811	13.66
0.989682	14.81
1.00223	18.45
