Adsorption isotherm of Nitrogen on AN-8
DOI: 10.1039/c5ta03575a
Article source: Figure  3a
Adsorbate Nitrogen: InChIKey IJGRMHOSHXDMSA-UHFFFAOYSA-N
Kind: experiment
Temperature: 77 K
Tabular data in the source: 0
pressure (bar)	uptake (cm3(STP)/g)
0.002097	20.11
0.002482	52.51
0.004023	78.77
0.005836	103.86
0.007954	128.12
0.01759	134.26
0.02985	139.24
0.042678	142.56
0.051433	143.55
0.08641	143.52
0.096917	148.84
0.112065	144.34
0.124326	149.32
0.139758	144.65
0.147651	151.79
0.162789	144.64
0.171553	151.61
0.18815	144.79
0.198962	153.26
0.211465	145.1
0.221395	152.08
0.241204	145.42
0.252877	152.22
0.264235	147.23
0.273861	151.05
0.289009	146.22
0.296599	150.86
0.312334	147.2
0.347322	148.84
0.366259	148.16
0.396292	150.3
0.41145	148.46
0.451099	150.43
0.463329	148.43
0.501812	148.57
0.51464	148.89
0.554572	149.86
0.565647	148.03
0.602671	150.5
0.615205	148.33
0.6531	148.3
0.6668	147.96
0.703236	149.1
0.716641	146.27
0.752206	146.91
0.765318	147.07
0.806719	148.2
0.816335	147.2
0.853065	146.84
0.866764	146.17
0.90466	147.14
0.917771	146.97
0.956538	145.45
0.971119	145.94
0.986277	147.09
1.00378	149.07
