Adsorption isotherm of Krypton, Argon on Activated carbon: Koestrolith 13X-K2
DOI: 10.1007/s10450-011-9337-3
Article source: Table 7
Adsorbate Krypton: InChIKey DNNSSWSSYDEUBZ-UHFFFAOYSA-N
Adsorbate Argon: InChIKey XKRFYHLGVUSROY-UHFFFAOYSA-N
Kind: experiment
Temperature: 303 K
Tabular data in the source: 0
pressure (bar)	Krypton fraction	Krypton uptake (mmol/g)	Argon fraction	Argon uptake (mmol/g)	total uptake (mmol/g)
3.33	0.06	0.091242	0.94	0.241758	0.333
3.38	0.03	0.046282	0.97	0.270718	0.317
