Adsorption isotherm of Krypton, Argon on Activated carbon: Koestrolith 4AK
DOI: 10.1007/s10450-011-9337-3
Article source: Table 8
Adsorbate Krypton: InChIKey DNNSSWSSYDEUBZ-UHFFFAOYSA-N
Adsorbate Argon: InChIKey XKRFYHLGVUSROY-UHFFFAOYSA-N
Kind: experiment
Temperature: 303 K
Tabular data in the source: 0
pressure (bar)	Krypton fraction	Krypton uptake (mmol/g)	Argon fraction	Argon uptake (mmol/g)	total uptake (mmol/g)
9.81	0.075	0.233877	0.925	0.669123	0.903
9.8	0.04	0.130249	0.96	0.678751	0.809
