Adsorption isotherm of Xenon on Activated carbon:SorboNorit B3
DOI: 10.1007/s10450-011-9337-3
Article source: Figure 2a
Adsorbate Xenon: InChIKey FHNFHKCVQCLJFQ-UHFFFAOYSA-N
Kind: experiment
Temperature: 303 K
Tabular data in the source: 0
pressure (bar)	uptake (mmol/g)
0.258	1.71
0.482	2.34
0.929	3.17
1.36	3.72
1.69	4.05
2.49	4.65
3.16	5
4.01	5.33
