Adsorption isotherm of Xenon, Oxygen on Activated carbon: Koestrolith 13X-K2
DOI: 10.1007/s10450-011-9337-3
Article source: Table 7
Adsorbate Xenon: InChIKey FHNFHKCVQCLJFQ-UHFFFAOYSA-N
Adsorbate Oxygen: InChIKey MYMOFIZGZYHOMD-UHFFFAOYSA-N
Kind: experiment
Temperature: 303 K
Tabular data in the source: 0
pressure (bar)	Xenon fraction	Xenon uptake (mmol/g)	Oxygen fraction	Oxygen uptake (mmol/g)	total uptake (mmol/g)
3.17	0.023	0.149023	0.977	0.277977	0.427
3.34	0.012	0.0738	0.988	0.2952	0.369
