Adsorption isotherm of Krypton, Oxygen on Activated carbon:SorboNorit B3
DOI: 10.1007/s10450-011-9337-3
Article source: Table 6
Adsorbate Krypton: InChIKey DNNSSWSSYDEUBZ-UHFFFAOYSA-N
Adsorbate Oxygen: InChIKey MYMOFIZGZYHOMD-UHFFFAOYSA-N
Kind: experiment
Temperature: 303 K
Tabular data in the source: 0
pressure (bar)	Krypton fraction	Krypton uptake (mmol/g)	Oxygen fraction	Oxygen uptake (mmol/g)	total uptake (mmol/g)
8.53	0.06	0.422552	0.94	1.48945	1.912
8.58	0.025	0.232448	0.975	1.58355	1.816
