Adsorption isotherm of Oxygen on Activated carbon: Koestrolith 13X-K2
DOI: 10.1007/s10450-011-9337-3
Article source: Figure 2b
Adsorbate Oxygen: InChIKey MYMOFIZGZYHOMD-UHFFFAOYSA-N
Kind: experiment
Temperature: 303 K
Tabular data in the source: 0
pressure (bar)	uptake (mmol/g)
0.944	0.085
1.92	0.17
2.95	0.262
4.01	0.36
5.53	0.485
7.61	0.642
11.5	0.917
15.1	1.11
18.9	1.3
23	1.52
27.8	1.72
