Adsorption isotherm of Oxygen, Argon on Activated carbon: Koestrolith 13X-K2
DOI: 10.1007/s10450-011-9337-3
Article source: Table 7
Adsorbate Oxygen: InChIKey MYMOFIZGZYHOMD-UHFFFAOYSA-N
Adsorbate Argon: InChIKey XKRFYHLGVUSROY-UHFFFAOYSA-N
Kind: experiment
Temperature: 303 K
Tabular data in the source: 0
pressure (bar)	Oxygen fraction	Oxygen uptake (mmol/g)	Argon fraction	Argon uptake (mmol/g)	total uptake (mmol/g)
3.38	0.9	0.283815	0.1	0.031185	0.315
3.42	0.949	0.301467	0.051	0.015533	0.317
