Adsorption isotherm of Xenon on Activated carbon: Koestrolith 4AK
DOI: 10.1007/s10450-011-9337-3
Article source: Figure 2c
Adsorbate Xenon: InChIKey FHNFHKCVQCLJFQ-UHFFFAOYSA-N
Kind: experiment
Temperature: 303 K
Tabular data in the source: 0
pressure (bar)	uptake (mmol/g)
0.31	0.114
0.516	0.254
0.808	0.442
1.43	0.739
1.65	0.905
2.37	1.17
3.77	1.47
