Adsorption isotherm of Krypton, Xenon on Activated carbon: Koestrolith 13X-K2
DOI: 10.1007/s10450-011-9337-3
Article source: Table 7
Adsorbate Krypton: InChIKey DNNSSWSSYDEUBZ-UHFFFAOYSA-N
Adsorbate Xenon: InChIKey FHNFHKCVQCLJFQ-UHFFFAOYSA-N
Kind: experiment
Temperature: 303 K
Tabular data in the source: 0
pressure (bar)	Krypton fraction	Krypton uptake (mmol/g)	Xenon fraction	Xenon uptake (mmol/g)	total uptake (mmol/g)
2.32	0.965	0.606564	0.035	0.140436	0.747
2.49	0.984	0.667058	0.016	0.074942	0.742
