Adsorption isotherm of Oxygen, Argon on Activated carbon:SorboNorit B3
DOI: 10.1007/s10450-011-9337-3
Article source: Table 6
Adsorbate Oxygen: InChIKey MYMOFIZGZYHOMD-UHFFFAOYSA-N
Adsorbate Argon: InChIKey XKRFYHLGVUSROY-UHFFFAOYSA-N
Kind: experiment
Temperature: 303 K
Tabular data in the source: 0
pressure (bar)	Oxygen fraction	Oxygen uptake (mmol/g)	Argon fraction	Argon uptake (mmol/g)	total uptake (mmol/g)
8.48	0.905	1.54946	0.095	0.164544	1.714
8.66	0.95	1.61554	0.05	0.081456	1.697
