Adsorption isotherm of Xenon on Activated carbon: Koestrolith 13X-K2
DOI: 10.1007/s10450-011-9337-3
Article source: Figure 2b
Adsorbate Xenon: InChIKey FHNFHKCVQCLJFQ-UHFFFAOYSA-N
Kind: experiment
Temperature: 303 K
Tabular data in the source: 0
pressure (bar)	uptake (mmol/g)
0.28	1.6
0.487	2.72
0.914	4.81
2.4	7.79
4.12	8.77
7.32	9.52
10.3	9.86
