Adsorption isotherm of Krypton on Activated carbon: Koestrolith 13X-K2
DOI: 10.1007/s10450-011-9337-3
Article source: Figure 2b
Adsorbate Krypton: InChIKey DNNSSWSSYDEUBZ-UHFFFAOYSA-N
Kind: experiment
Temperature: 303 K
Tabular data in the source: 0
pressure (bar)	uptake (mmol/g)
0.265	0.151
0.531	0.295
0.959	0.545
2.49	1.38
4.07	2.13
6.92	3.18
10.2	4.01
16	4.89
22.1	5.42
