Adsorption isotherm of Argon on Activated carbon:SorboNorit B3
DOI: 10.1007/s10450-011-9337-3
Article source: Figure 2a
Adsorbate Argon: InChIKey XKRFYHLGVUSROY-UHFFFAOYSA-N
Kind: experiment
Temperature: 303 K
Tabular data in the source: 0
pressure (bar)	uptake (mmol/g)
2.22	0.512
3.97	0.838
7.03	1.32
10.1	1.71
13.2	2.03
15.9	2.26
19.6	2.54
22	2.7
26.7	3
30.6	3.2
