Adsorption isotherm of Xenon, Argon on Activated carbon:SorboNorit B3
DOI: 10.1007/s10450-011-9337-3
Article source: Table 6
Adsorbate Xenon: InChIKey FHNFHKCVQCLJFQ-UHFFFAOYSA-N
Adsorbate Argon: InChIKey XKRFYHLGVUSROY-UHFFFAOYSA-N
Kind: experiment
Temperature: 303 K
Tabular data in the source: 0
pressure (bar)	Xenon fraction	Xenon uptake (mmol/g)	Argon fraction	Argon uptake (mmol/g)	total uptake (mmol/g)
8.34	0.014	0.67524	0.986	1.36476	2.04
8.52	0.006	0.3375	0.994	1.5375	1.875
