Adsorption isotherm of Krypton, Argon on Activated carbon:SorboNorit B3
DOI: 10.1007/s10450-011-9337-3
Article source: Table 6
Adsorbate Krypton: InChIKey DNNSSWSSYDEUBZ-UHFFFAOYSA-N
Adsorbate Argon: InChIKey XKRFYHLGVUSROY-UHFFFAOYSA-N
Kind: experiment
Temperature: 303 K
Tabular data in the source: 0
pressure (bar)	Krypton fraction	Krypton uptake (mmol/g)	Argon fraction	Argon uptake (mmol/g)	total uptake (mmol/g)
8.65	0.055	0.429408	0.945	1.48759	1.917
8.61	0.03	0.317974	0.97	1.52003	1.838
