Adsorption isotherm of Xenon, Argon on Activated carbon: Koestrolith 4AK
DOI: 10.1007/s10450-011-9337-3
Article source: Table 8
Adsorbate Xenon: InChIKey FHNFHKCVQCLJFQ-UHFFFAOYSA-N
Adsorbate Argon: InChIKey XKRFYHLGVUSROY-UHFFFAOYSA-N
Kind: experiment
Temperature: 303 K
Tabular data in the source: 0
pressure (bar)	Xenon fraction	Xenon uptake (mmol/g)	Argon fraction	Argon uptake (mmol/g)	total uptake (mmol/g)
9.92	0.075	0.21204	0.925	0.64296	0.855
9.89	0.028	0.142956	0.972	0.693044	0.836
