Adsorption isotherm of Argon on Activated carbon: Koestrolith 4AK
DOI: 10.1007/s10450-011-9337-3
Article source: Figure 2c
Adsorbate Argon: InChIKey XKRFYHLGVUSROY-UHFFFAOYSA-N
Kind: experiment
Temperature: 303 K
Tabular data in the source: 0
pressure (bar)	uptake (mmol/g)
0.638	0.0553
0.965	0.0837
2.47	0.208
4.07	0.332
6.95	0.531
9.45	0.682
12.6	0.848
15.8	0.998
19	1.12
22.5	1.24
24.9	1.32
27.8	1.4
