Adsorption isotherm of Krypton on Activated carbon: Koestrolith 4AK
DOI: 10.1007/s10450-011-9337-3
Article source: Figure 2c
Adsorbate Krypton: InChIKey DNNSSWSSYDEUBZ-UHFFFAOYSA-N
Kind: experiment
Temperature: 303 K
Tabular data in the source: 0
pressure (bar)	uptake (mmol/g)
0.654	0.197
1.31	0.422
2.31	0.625
3.72	0.917
6.73	1.35
10.1	1.68
12.8	1.84
16.2	2
19	2.09
21.9	2.18
25.2	2.24
27.7	2.29
30.6	2.33
