Adsorption isotherm of Oxygen, Argon on Activated carbon: Koestrolith 4AK
DOI: 10.1007/s10450-011-9337-3
Article source: Table 8
Adsorbate Oxygen: InChIKey MYMOFIZGZYHOMD-UHFFFAOYSA-N
Adsorbate Argon: InChIKey XKRFYHLGVUSROY-UHFFFAOYSA-N
Kind: experiment
Temperature: 303 K
Tabular data in the source: 0
pressure (bar)	Oxygen fraction	Oxygen uptake (mmol/g)	Argon fraction	Argon uptake (mmol/g)	total uptake (mmol/g)
9.85	0.9	0.7389	0.1	0.0821	0.821
9.92	0.95	0.77045	0.05	0.04055	0.811
