Adsorption isotherm of Krypton, Xenon on Activated carbon:SorboNorit B3
DOI: 10.1007/s10450-011-9337-3
Article source: Table 6
Adsorbate Krypton: InChIKey DNNSSWSSYDEUBZ-UHFFFAOYSA-N
Adsorbate Xenon: InChIKey FHNFHKCVQCLJFQ-UHFFFAOYSA-N
Kind: experiment
Temperature: 303 K
Tabular data in the source: 0
pressure (bar)	Krypton fraction	Krypton uptake (mmol/g)	Xenon fraction	Xenon uptake (mmol/g)	total uptake (mmol/g)
6.4	0.979	2.70308	0.021	0.541915	3.245
6.52	0.992	2.98902	0.008	0.22498	3.214
