Adsorption isotherm of Xenon, Argon on Activated carbon: Koestrolith 13X-K2
DOI: 10.1007/s10450-011-9337-3
Article source: Table 7
Adsorbate Xenon: InChIKey FHNFHKCVQCLJFQ-UHFFFAOYSA-N
Adsorbate Argon: InChIKey XKRFYHLGVUSROY-UHFFFAOYSA-N
Kind: experiment
Temperature: 303 K
Tabular data in the source: 0
pressure (bar)	Xenon fraction	Xenon uptake (mmol/g)	Argon fraction	Argon uptake (mmol/g)	total uptake (mmol/g)
3.22	0.02	0.153223	0.98	0.259777	0.413
3.36	0.01	0.077544	0.99	0.281456	0.359
