Adsorption isotherm of Oxygen on Activated carbon:SorboNorit B3
DOI: 10.1007/s10450-011-9337-3
Article source: Figure 2a
Adsorbate Oxygen: InChIKey MYMOFIZGZYHOMD-UHFFFAOYSA-N
Kind: experiment
Temperature: 303 K
Tabular data in the source: 0
pressure (bar)	uptake (mmol/g)
2.12	0.531
3.92	0.893
7.03	1.39
9.96	1.76
12.9	2.07
15.9	2.38
19	2.64
21.8	2.83
24.9	3.04
28.8	3.25
31.5	3.39
