Adsorption isotherm of Xenon, Oxygen on Activated carbon:SorboNorit B3
DOI: 10.1007/s10450-011-9337-3
Article source: Table 6
Adsorbate Xenon: InChIKey FHNFHKCVQCLJFQ-UHFFFAOYSA-N
Adsorbate Oxygen: InChIKey MYMOFIZGZYHOMD-UHFFFAOYSA-N
Kind: experiment
Temperature: 303 K
Tabular data in the source: 0
pressure (bar)	Xenon fraction	Xenon uptake (mmol/g)	Oxygen fraction	Oxygen uptake (mmol/g)	total uptake (mmol/g)
8.25	0.011	0.57771	0.989	1.38729	1.965
8.67	0.006	0.311304	0.994	1.5417	1.853
