Adsorption isotherm of Oxygen on Activated carbon: Koestrolith 4AK
DOI: 10.1007/s10450-011-9337-3
Article source: Figure 2c
Adsorbate Oxygen: InChIKey MYMOFIZGZYHOMD-UHFFFAOYSA-N
Kind: experiment
Temperature: 303 K
Tabular data in the source: 0
pressure (bar)	uptake (mmol/g)
0.603	0.06
1.02	0.0995
2.4	0.223
3.96	0.355
6.95	0.579
9.98	0.778
12.9	0.943
16.4	1.13
18.9	1.23
22.1	1.35
24.9	1.43
27.8	1.52
