Adsorption isotherm of Argon on Activated carbon: Koestrolith 13X-K2
DOI: 10.1007/s10450-011-9337-3
Article source: Figure 2b
Adsorbate Argon: InChIKey XKRFYHLGVUSROY-UHFFFAOYSA-N
Kind: experiment
Temperature: 303 K
Tabular data in the source: 0
pressure (bar)	uptake (mmol/g)
0.959	0.085
2.61	0.209
4.03	0.321
6.96	0.53
10.1	0.733
16	1.05
21.9	1.31
