Adsorption isotherm of Krypton, Oxygen on Activated carbon: Koestrolith 4AK
DOI: 10.1007/s10450-011-9337-3
Article source: Table 8
Adsorbate Krypton: InChIKey DNNSSWSSYDEUBZ-UHFFFAOYSA-N
Adsorbate Oxygen: InChIKey MYMOFIZGZYHOMD-UHFFFAOYSA-N
Kind: experiment
Temperature: 303 K
Tabular data in the source: 0
pressure (bar)	Krypton fraction	Krypton uptake (mmol/g)	Oxygen fraction	Oxygen uptake (mmol/g)	total uptake (mmol/g)
9.73	0.068	0.212576	0.932	0.736424	0.949
9.7	0.035	0.120235	0.965	0.744765	0.865
