Adsorption isotherm of Krypton on Activated carbon:SorboNorit B3
DOI: 10.1007/s10450-011-9337-3
Article source: Figure 2a
Adsorbate Krypton: InChIKey DNNSSWSSYDEUBZ-UHFFFAOYSA-N
Kind: experiment
Temperature: 303 K
Tabular data in the source: 0
pressure (bar)	uptake (mmol/g)
0.482	0.583
0.946	0.988
2.73	1.96
3.89	2.4
6.81	3.21
9.73	3.78
12.8	4.25
15.8	4.6
18.9	4.9
22.7	5.17
24.8	5.29
28.1	5.46
30.1	5.56
