Adsorption isotherm of Carbon Dioxide on USO-1-Al
DOI: 10.1007/s10450-008-9137-6
Adsorbate Carbon Dioxide: InChIKey CURLTUGMZLYLDI-UHFFFAOYSA-N
Temperature: 298 K
Tabular data in the source: 0
pressure (bar)	uptake (wt%)
0.0864297	1.02189
1.1281	8.79966
2.27393	14.633
4.32254	20.4663
5.98921	23.5774
9.18365	27.5636
11.8225	30.0913
14.3225	31.7441
17.0656	33.3969
19.635	34.9524
21.9614	36.2163
24.1837	37.0913
