Adsorption isotherm of Carbon Dioxide on USO-2-Ni
DOI: 10.1007/s10450-008-9137-6
Adsorbate Carbon Dioxide: InChIKey CURLTUGMZLYLDI-UHFFFAOYSA-N
Temperature: 298 K
Tabular data in the source: 0
pressure (bar)	uptake (wt%)
0.0086073	0.222092
0.248304	2.08326
0.345592	3.08153
0.448521	4.01211
0.547219	5.07806
0.645917	6.12708
0.746026	7.20994
0.851774	8.30973
0.998412	9.93402
