Adsorption isotherm of Carbon Dioxide on USO-1-Al-A
DOI: 10.1007/s10450-008-9137-6
Adsorbate Carbon Dioxide: InChIKey CURLTUGMZLYLDI-UHFFFAOYSA-N
Temperature: 298 K
Tabular data in the source: 0
pressure (bar)	uptake (wt%)
0.018735	0.943266
0.0951239	2.53771
0.195124	4.13215
0.297902	5.57104
0.402068	6.83493
0.556235	8.58493
0.650679	9.55715
0.754846	10.4127
0.904846	11.5016
0.999291	12.1238
