Adsorption isotherm of Carbon Dioxide on USO-1-Al-A
DOI: 10.1007/s10450-008-9137-6
Adsorbate Carbon Dioxide: InChIKey CURLTUGMZLYLDI-UHFFFAOYSA-N
Temperature: 323 K
Tabular data in the source: 0
pressure (bar)	uptake (wt%)
0.00901274	0.282155
0.0867905	1.46827
0.160402	2.36271
0.250679	3.29604
0.350679	4.13215
0.499291	5.29882
0.650679	6.27104
0.799291	7.24327
0.903457	7.86549
0.996513	8.39049
