Adsorption isotherm of Carbon Dioxide on USO-2-Ni
DOI: 10.1007/s10450-008-9137-6
Adsorbate Carbon Dioxide: InChIKey CURLTUGMZLYLDI-UHFFFAOYSA-N
Temperature: 298 K
Tabular data in the source: 0
pressure (bar)	uptake (wt%)
0.0864297	1.41077
1.30171	12.2997
2.3781	21.5358
3.6281	31.258
5.08643	38.7441
7.27393	46.4247
9.84337	52.4524
12.5864	56.5358
15.5031	59.9386
18.6975	62.2719
23.3503	64.6052
