Adsorption isotherm of Carbon Dioxide on USO-3-In
DOI: 10.1007/s10450-008-9137-6
Adsorbate Carbon Dioxide: InChIKey CURLTUGMZLYLDI-UHFFFAOYSA-N
Temperature: 298 K
Tabular data in the source: 0
pressure (bar)	uptake (wt%)
0.0100173	0.188253
0.101666	1.13576
0.203184	1.93099
0.304703	2.64161
0.403401	3.18305
0.554269	3.84292
0.705137	4.38435
0.853184	4.87502
0.999822	5.26417
