Adsorption isotherm of Carbon Dioxide on USO-2-Ni-A
DOI: 10.1007/s10450-008-9137-6
Adsorbate Carbon Dioxide: InChIKey CURLTUGMZLYLDI-UHFFFAOYSA-N
Temperature: 298 K
Tabular data in the source: 0
pressure (bar)	uptake (wt%)
0.018735	0.729377
0.093735	1.85715
0.196513	3.21827
0.297902	4.54049
0.397902	5.88215
0.540957	7.90438
0.689568	9.94604
0.843735	11.9099
0.946513	13.1544
0.997902	13.7766
