Adsorption isotherm of Carbon Dioxide on USO-3-In
DOI: 10.1007/s10450-008-9137-6
Adsorbate Carbon Dioxide: InChIKey CURLTUGMZLYLDI-UHFFFAOYSA-N
Temperature: 298 K
Tabular data in the source: 0
pressure (bar)	uptake (wt%)
0.0104016	0.184933
0.0992905	1.11827
0.197902	1.93493
0.346513	2.9266
0.445124	3.43215
0.547902	3.84049
0.650679	4.19049
0.747902	4.55993
0.849291	4.8516
0.997902	5.24049
