Adsorption isotherm of Carbon Dioxide on USO-1-Al
DOI: 10.1007/s10450-008-9137-6
Adsorbate Carbon Dioxide: InChIKey CURLTUGMZLYLDI-UHFFFAOYSA-N
Temperature: 298 K
Tabular data in the source: 0
pressure (bar)	uptake (wt%)
0.00762386	0.301599
0.0965127	1.42938
0.190957	2.63493
0.293735	3.82104
0.393735	4.73493
0.497902	5.88215
0.600679	6.91271
0.699291	7.94327
0.802068	8.89604
0.896513	9.84882
1.00346	10.7044
