Adsorption isotherm of Carbon Dioxide on MCM-41-NH2
DOI: 10.1007/s10450-008-9137-6
Adsorbate Carbon Dioxide: InChIKey CURLTUGMZLYLDI-UHFFFAOYSA-N
Temperature: 298 K
Tabular data in the source: 0
pressure (bar)	uptake (wt%)
0.00719732	1.38955
0.0523166	2.30322
0.101666	2.59086
0.193314	2.99693
0.317393	3.41992
0.45416	3.75832
0.624768	4.16439
0.753076	4.48587
0.820755	4.63814
0.995592	5.04422
