Adsorption isotherm of Carbon Dioxide on USO-1-Al
DOI: 10.1007/s10450-008-9137-6
Adsorbate Carbon Dioxide: InChIKey CURLTUGMZLYLDI-UHFFFAOYSA-N
Temperature: 298 K
Tabular data in the source: 0
pressure (bar)	uptake (wt%)
0.00400996	0.415746
0.0957747	1.46449
0.196279	2.53944
0.301153	3.6144
0.399472	4.68936
0.545859	6.28869
0.696615	7.80936
0.847371	9.35625
0.995943	10.6147
