Adsorption isotherm of Carbon Dioxide on USO-1-Al-A
DOI: 10.1007/s10450-008-9137-6
Adsorbate Carbon Dioxide: InChIKey CURLTUGMZLYLDI-UHFFFAOYSA-N
Temperature: 303 K
Tabular data in the source: 0
pressure (bar)	uptake (wt%)
0.00901274	0.61271
0.0465127	1.89604
0.146513	3.89882
0.252068	5.31827
0.354846	6.54327
0.500679	8.04049
0.650679	9.30438
0.753457	10.1599
0.850679	10.9572
0.996513	12.1238
