Adsorption isotherm of Carbon Dioxide on MCM-41
DOI: 10.1007/s10450-008-9137-6
Adsorbate Carbon Dioxide: InChIKey CURLTUGMZLYLDI-UHFFFAOYSA-N
Temperature: 298 K
Tabular data in the source: 0
pressure (bar)	uptake (wt%)
0.0170672	0.509728
0.0875661	1.01732
0.211644	1.52491
0.304703	1.91407
0.400581	2.23554
0.527479	2.64161
0.644508	2.98001
0.771406	3.38608
0.888434	3.77524
0.994182	4.07979
