Adsorption isotherm of Carbon Dioxide on USO-2-Ni
DOI: 10.1007/s10450-008-9137-6
Adsorbate Carbon Dioxide: InChIKey CURLTUGMZLYLDI-UHFFFAOYSA-N
Temperature: 298 K
Tabular data in the source: 0
pressure (bar)	uptake (wt%)
0.00762386	0.126599
0.0979016	0.943266
0.236791	2.14882
0.389568	3.58771
0.492346	4.65716
0.592346	5.64882
0.688179	6.73771
0.795124	7.84604
0.890957	8.91549
0.996513	10.0238
