Adsorption isotherm of Carbon Dioxide on USO-1-Al
DOI: 10.1007/s10450-008-9137-6
Adsorbate Carbon Dioxide: InChIKey CURLTUGMZLYLDI-UHFFFAOYSA-N
Temperature: 303 K
Tabular data in the source: 0
pressure (bar)	uptake (wt%)
0.0104016	0.282155
0.0673461	1.15715
0.129846	1.95438
0.192346	2.59604
0.279846	3.4516
0.400679	4.69604
0.550679	6.0766
0.704846	7.63215
0.807624	8.46827
0.902068	9.32382
0.995124	10.1988
