Adsorption isotherm of Carbon Dioxide on USO-3-In-A
DOI: 10.1007/s10450-008-9137-6
Adsorbate Carbon Dioxide: InChIKey CURLTUGMZLYLDI-UHFFFAOYSA-N
Temperature: 298 K
Tabular data in the source: 0
pressure (bar)	uptake (wt%)
0.0104016	0.573822
0.0479016	1.21549
0.152068	2.63493
0.252068	3.64604
0.352068	4.44327
0.457624	5.06549
0.614568	5.97938
0.715957	6.54327
0.820124	7.1266
0.914568	7.55438
0.999291	8.04049
