Adsorption isotherm of Carbon Dioxide on USO-1-Al
DOI: 10.1007/s10450-008-9137-6
Adsorbate Carbon Dioxide: InChIKey CURLTUGMZLYLDI-UHFFFAOYSA-N
Temperature: 323 K
Tabular data in the source: 0
pressure (bar)	uptake (wt%)
0.00623497	0.126599
0.068735	0.534933
0.146513	1.05993
0.247902	1.77938
0.350679	2.36271
0.500679	3.2766
0.652068	4.09327
0.750679	4.61827
0.854846	5.2016
0.947902	5.78493
0.997902	5.99882
