Adsorption isotherm of Ethene on NJTU-1
DOI: 10.1039/c5ce00015g
Article source: Figure 4c
Adsorbate Ethene: InChIKey VGGSQFUCUMXWEO-UHFFFAOYSA-N
Kind: experiment
Temperature: 298 K
Tabular data in the source: 0
pressure (bar)	uptake (mmol/g)
0	0
0.013736	0.016963
0.027473	0.038181
0.049451	0.07213
0.076923	0.110311
0.104396	0.144237
0.131868	0.182418
0.159341	0.216343
0.186813	0.254524
0.211538	0.284206
0.236264	0.313888
0.260989	0.34357
0.285714	0.373252
0.313187	0.402923
0.35989	0.453788
0.409341	0.508896
0.461538	0.559738
0.510989	0.606336
0.565934	0.661422
0.615385	0.703764
0.667582	0.750351
0.717033	0.796949
0.769231	0.83928
0.818681	0.877367
0.870879	0.919698
0.92033	0.957786
0.972527	0.991606
1	1.01277
