Adsorption isotherm of Carbon Dioxide on NJTU-1
DOI: 10.1039/c5ce00015g
Article source: Figure 4a
Adsorbate Carbon Dioxide: InChIKey CURLTUGMZLYLDI-UHFFFAOYSA-N
Kind: experiment
Temperature: 195 K
Tabular data in the source: 0
pressure (bar)	uptake (mmol/g)
0	0
0.00274	0.560556
0.005479	0.770644
0.008219	0.980732
0.010959	1.19082
0.013699	1.5411
0.016438	1.89137
0.019178	2.03137
0.021918	2.17136
0.024657	2.31136
0.027397	2.45135
0.030137	2.66144
0.032877	2.87153
0.035616	2.94143
0.038356	3.15152
0.041096	3.29151
0.046575	3.43131
0.049315	3.57131
0.052055	3.7113
0.054795	3.78121
0.057534	3.99129
0.063014	4.20119
0.068493	4.34099
0.073973	4.55089
0.079452	4.76079
0.087671	5.04058
0.09589	5.32038
0.10411	5.60018
0.115068	5.94988
0.117808	6.15997
0.128767	6.50967
0.142466	6.92927
0.153425	7.34906
0.167123	7.83875
0.175342	8.32883
0.180822	8.60882
0.191781	9.09871
0.2	9.51869
0.205479	9.86877
0.210959	10.359
0.216438	10.7792
0.224658	11.2693
0.227397	11.6897
0.232877	12.1799
0.238356	12.6702
0.246575	13.1603
0.252055	13.5104
0.257534	13.7904
0.276712	14.2096
0.284932	14.3492
0.312329	14.5575
0.364384	14.7642
0.410959	14.9712
0.465753	15.1776
0.520548	15.314
0.558904	15.4515
0.605479	15.5183
0.638356	15.5861
0.676712	15.7236
0.715068	15.791
0.753425	15.7883
0.791781	15.9258
0.830137	15.9932
0.887671	15.9892
0.939726	16.0556
0.994521	16.1219
