Adsorption isotherm of Ethene on NJTU-1
DOI: 10.1039/c5ce00015g
Article source: Figure 3c
Adsorbate Ethene: InChIKey VGGSQFUCUMXWEO-UHFFFAOYSA-N
Kind: experiment
Isotherm type: excess
Temperature: 298 K
Tabular data in the source: 0
pressure (bar)	uptake (cm3(STP)/g)
0.0852	5.1029
0.3551	24.0137
0.625	39.0223
0.8381	50.729
1.0511	57.9331
2.3011	92.753
3.5511	118.568
4.8295	136.578
6.108	153.988
7.3722	166.295
8.6506	178.302
9.9432	188.208
13.1534	205.017
16.1932	214.322
18.9915	219.125
21.6193	219.726
