Adsorption isotherm of Argon on NJTU-1
DOI: 10.1039/c5ce00015g
Article source: Figure 2
Adsorbate Argon: InChIKey XKRFYHLGVUSROY-UHFFFAOYSA-N
Kind: experiment
Temperature: 87 K
Tabular data in the source: 0
pressure (bar)	uptake (cm3(STP)/g)
0	0
0.00202	153.333
0.00404	197.778
0.006061	222.222
0.008081	262.222
0.010101	280
0.012121	311.111
0.014141	346.667
0.016162	355.556
0.018182	373.333
0.020202	386.667
0.022222	415.556
0.024242	426.667
0.026263	437.778
0.028283	442.222
0.030303	462.222
0.032323	473.333
0.036364	486.667
0.038384	493.333
0.040404	500
0.042424	506.667
0.046465	511.111
0.048485	520
0.050505	524.444
0.052525	528.889
0.054545	533.333
0.056566	537.778
0.058586	544.444
0.060606	548.889
0.064646	557.778
0.066667	562.222
0.068687	566.667
0.070707	573.333
0.072727	582.222
0.074747	604.444
0.076768	600
0.078788	622.222
0.080808	622.222
0.082828	631.111
0.084848	640
0.086869	664.444
0.088889	671.111
0.090909	682.222
0.092929	695.556
0.09495	695.556
0.09697	702.222
0.09899	704.444
0.10101	706.667
0.109091	713.333
0.115152	717.778
0.121212	720
0.131313	722.222
0.141414	726.667
0.149495	731.111
0.151515	726.667
0.167677	733.333
0.173737	733.333
0.19798	737.778
0.20202	740
0.220202	742.222
0.228283	742.222
0.244444	744.444
0.256566	746.667
0.270707	748.889
0.284848	751.111
0.29697	751.111
0.311111	751.111
0.347475	753.333
0.355556	755.556
0.393939	757.778
0.406061	760
0.444444	760
0.460606	762.222
0.492929	762.222
0.511111	764.444
0.541414	764.444
0.561616	766.667
0.591919	766.667
0.612121	768.889
0.642424	768.889
0.662626	771.111
0.688889	771.111
0.713131	771.111
0.737374	771.111
0.763636	773.333
0.785859	773.333
0.818182	775.556
0.836364	775.556
0.866667	775.556
0.886869	775.556
0.917172	775.556
0.937374	777.778
0.967677	777.778
0.991919	777.778
