Adsorption isotherm of Methane on NJTU-1
DOI: 10.1039/c5ce00015g
Article source: Figure 4a
Adsorbate Methane: InChIKey VNWKTOKETHGBQD-UHFFFAOYSA-N
Kind: experiment
Temperature: 195 K
Tabular data in the source: 0
pressure (bar)	uptake (mmol/g)
0	0
0.005479	0.069709
0.013699	0.139227
0.021918	0.208744
0.027397	0.278453
0.043836	0.487582
0.052055	0.627192
0.068493	0.836321
0.073973	0.90603
0.09589	1.04468
0.10137	1.11439
0.126027	1.39304
0.128767	1.39284
0.158904	1.6711
0.183562	1.87966
0.208219	2.01812
0.230137	2.15677
0.257534	2.36513
0.279452	2.43368
0.309589	2.64185
0.358904	2.91877
0.410959	3.19549
0.460274	3.40232
0.512329	3.53886
0.567123	3.81539
0.610959	3.88241
0.668493	4.08866
0.709589	4.22596
0.758904	4.36269
0.810959	4.49923
0.863014	4.63577
0.912329	4.7725
0.961644	4.90923
0.994521	4.97702
