Adsorption isotherm of Ethane on NJTU-1
DOI: 10.1039/c5ce00015g
Article source: Figure 3d
Adsorbate Ethane: InChIKey OTMSDBZUPAUEDD-UHFFFAOYSA-N
Kind: experiment
Temperature: 273 K
Tabular data in the source: 0
pressure (bar)	uptake (mmol/g)
0.038462	10.1818
0.269231	50.9091
0.5	76.3636
0.730769	94.1818
0.961538	109.455
1.15385	120.909
2.34615	178.182
3.53846	220.182
5.07692	253.273
6.53846	272.364
7.96154	287.636
9.30769	299.091
10.6154	308
12.5769	314.364
