Adsorption isotherm of Ethene on NJTU-1
DOI: 10.1039/c5ce00015g
Article source: Figure 3b
Adsorbate Ethene: InChIKey VGGSQFUCUMXWEO-UHFFFAOYSA-N
Kind: experiment
Temperature: 298 K
Tabular data in the source: 0
pressure (bar)	uptake (mmol/g)
0	0
0.058945	4.90909
0.35155	13.0909
0.644156	21.2727
0.936761	29.4545
1.17085	36
2.39936	67.0909
3.68534	91.6364
5.26308	117.818
6.78208	140.727
8.24257	162
9.64431	180
11.0461	198
13.0313	219.273
14.9579	237.273
17.0012	256.909
18.9273	271.636
20.9696	283.091
