Adsorption isotherm of Ethene on NJTU-1
DOI: 10.1039/c5ce00015g
Article source: Figure 4a
Adsorbate Ethene: InChIKey VGGSQFUCUMXWEO-UHFFFAOYSA-N
Kind: experiment
Temperature: 195 K
Tabular data in the source: 0
pressure (bar)	uptake (mmol/g)
0	0
0.00274	1.47177
0.005479	1.82205
0.008219	2.45269
0.010959	3.08334
0.013699	3.36353
0.016438	3.85399
0.021918	4.13398
0.027397	4.48406
0.038356	5.25432
0.049315	5.67411
0.054795	5.81392
0.065753	6.23371
0.079452	6.58322
0.093151	6.93272
0.10137	7.14243
0.120548	7.63174
0.128767	7.84144
0.145205	8.26085
0.150685	8.40065
0.172603	8.95986
0.178082	9.16976
0.194521	9.65926
0.205479	9.86877
0.224658	10.288
0.230137	10.4278
0.249315	10.9171
0.254795	11.0569
0.276712	11.546
0.279452	11.6159
0.306849	12.1047
0.339726	12.7332
0.356164	12.8722
0.394521	13.4303
0.408219	13.4994
0.449315	13.9171
0.460274	13.9864
0.512329	14.3332
0.564384	14.61
0.608219	14.7471
0.660274	14.9537
0.709589	15.0904
0.761644	15.227
0.813699	15.2233
0.863014	15.3601
0.917808	15.3562
0.967123	15.4229
0.994521	15.4209
