Adsorption isotherm of Ethane on NJTU-1
DOI: 10.1039/c5ce00015g
Article source: Figure 4c
Adsorbate Ethane: InChIKey OTMSDBZUPAUEDD-UHFFFAOYSA-N
Kind: experiment
Temperature: 298 K
Tabular data in the source: 0
pressure (bar)	uptake (mmol/g)
0	0
0.010989	0.02123
0.03022	0.055191
0.06044	0.106126
0.07967	0.144342
0.107143	0.191033
0.131868	0.224971
0.159341	0.267407
0.181319	0.305611
0.208791	0.343792
0.233516	0.381985
0.258242	0.415922
0.282967	0.445604
0.307692	0.483797
0.35989	0.543149
0.409341	0.606769
0.458791	0.657622
0.510989	0.716975
0.56044	0.763573
0.612637	0.814414
0.664835	0.856745
0.711538	0.8991
0.766484	0.94993
0.813187	0.983774
0.865385	1.01759
0.917582	1.05993
0.967033	1.09376
0.994505	1.11917
