Adsorption isotherm of Nitrogen on NJTU-1
DOI: 10.1039/c5ce00015g
Article source: Figure 2
Adsorbate Nitrogen: InChIKey IJGRMHOSHXDMSA-UHFFFAOYSA-N
Kind: experiment
Temperature: 77 K
Tabular data in the source: 0
pressure (bar)	uptake (cm3(STP)/g)
0	0
9e-05	4.44444
0.000135	6.66667
0.000224	11.1111
0.000314	15.5556
0.000494	24.4444
0.000584	28.8889
0.000718	35.5556
0.000853	42.2222
0.000988	48.8889
0.001122	55.5556
0.001302	64.4444
0.001437	71.1111
0.001616	80
0.001796	88.8889
0.001975	97.7778
0.002155	106.667
0.002379	117.778
0.002514	124.444
0.002694	133.333
0.002828	140
0.003008	148.889
0.003143	155.556
0.003367	166.667
0.003547	175.556
0.003726	184.444
0.003951	195.556
0.00413	204.444
0.00431	213.333
0.004489	222.222
0.006734	233.333
0.006958	244.444
0.009158	253.333
0.009383	264.444
0.009562	273.333
0.009742	282.222
0.009921	291.111
0.010056	297.778
0.010146	302.222
0.012391	313.333
0.01257	322.222
0.01486	335.556
0.015084	346.667
0.015219	353.333
0.015398	362.222
0.015578	371.111
0.017823	382.222
0.018047	393.333
0.020247	402.222
0.020427	411.111
0.020561	417.778
0.022806	428.889
0.024961	435.556
0.027116	442.222
0.02725	448.889
0.027385	455.556
0.03156	462.222
0.03376	471.111
0.03587	475.556
0.038025	482.222
0.040135	486.667
0.042245	491.111
0.044355	495.556
0.04651	502.222
0.04862	506.667
0.050729	511.111
0.052839	515.556
0.054949	520
0.05908	524.444
0.06119	528.889
0.061324	535.556
0.063434	540
0.063614	548.889
0.065724	553.333
0.065859	560
0.067969	564.444
0.070168	573.333
0.072323	580
0.074478	586.667
0.074568	591.111
0.076723	597.778
0.078833	602.222
0.078923	606.667
0.081032	611.111
0.085118	613.333
0.091268	617.778
0.097419	622.222
0.099529	626.667
0.109719	631.111
0.113805	633.333
0.136207	642.222
0.142222	640
0.17275	651.111
0.17468	646.667
0.201122	655.556
0.205073	651.111
0.247677	660
0.253692	657.778
0.28404	660
0.296251	664.444
0.334635	664.444
0.342761	666.667
0.385185	666.667
0.395376	671.111
0.435735	668.889
0.443861	671.111
0.486285	671.111
0.492435	675.556
0.53688	675.556
0.542941	675.556
0.587385	675.556
0.59147	677.778
0.63789	675.556
0.64202	680
0.688395	675.556
0.692525	680
0.740965	677.778
0.74101	680
0.789495	680
0.79358	682.222
0.840045	682.222
0.84202	680
0.88853	682.222
0.89459	682.222
0.943075	682.222
0.991605	684.444
