Adsorption isotherm of Carbon Dioxide on NJTU-1
DOI: 10.1039/c5ce00015g
Article source: Figure 4c
Adsorbate Carbon Dioxide: InChIKey CURLTUGMZLYLDI-UHFFFAOYSA-N
Kind: experiment
Temperature: 298 K
Tabular data in the source: 0
pressure (bar)	uptake (mmol/g)
0	0
0.013736	0.012708
0.024725	0.025427
0.038462	0.042389
0.049451	0.042343
0.07967	0.067746
0.101648	0.084674
0.129121	0.110089
0.153846	0.13126
0.178571	0.152432
0.206044	0.173591
0.230769	0.194763
0.258242	0.215922
0.282967	0.237094
0.307692	0.258265
0.362637	0.30484
0.414835	0.347171
0.464286	0.385258
0.516484	0.427589
0.565934	0.465677
0.618132	0.503753
0.673077	0.550327
0.71978	0.584171
0.774725	0.630746
0.824176	0.664578
0.881868	0.706886
0.931319	0.744973
0.978022	0.778817
1.00549	0.795721
1.02198	0.812672
