Adsorption isotherm of Ethene on NJTU-1
DOI: 10.1039/c5ce00015g
Article source: Figure 3c
Adsorbate Ethene: InChIKey VGGSQFUCUMXWEO-UHFFFAOYSA-N
Kind: experiment
Isotherm type: excess
Temperature: 273 K
Tabular data in the source: 0
pressure (bar)	uptake (cm3(STP)/g)
0.0568	9.6055
0.2841	43.2247
0.5398	65.4374
0.767	79.2453
1.0227	90.0515
2.2159	136.278
3.4375	169.297
4.6875	193.911
5.9375	214.623
7.1875	230.232
8.4517	241.338
9.7017	250.643
10.9801	256.346
14.3182	261.149
17.4148	260.549
20.2557	260.549
