Adsorption isotherm of Ethane on NJTU-1
DOI: 10.1039/c5ce00015g
Article source: Figure 4a
Adsorbate Ethane: InChIKey OTMSDBZUPAUEDD-UHFFFAOYSA-N
Kind: experiment
Temperature: 195 K
Tabular data in the source: 0
pressure (bar)	uptake (mmol/g)
0	0
0.00274	1.33158
0.008219	3.57419
0.010959	3.92447
0.013699	4.27474
0.019178	4.76501
0.024657	5.32537
0.038356	6.23563
0.043836	6.65581
0.049315	6.9358
0.060274	7.63596
0.068493	8.26623
0.071233	8.6165
0.082192	9.17648
0.093151	9.87665
0.09589	10.2269
0.106849	10.7168
0.120548	11.4168
0.126027	11.7669
0.145205	12.4665
0.164384	12.9558
0.19726	13.3039
0.20274	13.3035
0.224658	13.4422
0.230137	13.5119
0.282192	13.7185
0.30411	13.7871
0.347945	13.9242
0.356164	13.9236
0.4	14.0607
0.408219	14.0602
0.457534	14.267
0.509589	14.1933
0.564384	14.3296
0.610959	14.3964
0.654795	14.4634
0.709589	14.5297
0.758904	14.5262
0.813699	14.5925
0.863014	14.6591
0.912329	14.7258
0.961644	14.7223
0.989041	14.7204
1.00274	14.7194
