Adsorption isotherm of Methane on NJTU-1
DOI: 10.1039/c5ce00015g
Article source: Figure 4c
Adsorbate Methane: InChIKey VNWKTOKETHGBQD-UHFFFAOYSA-N
Kind: experiment
Temperature: 298 K
Tabular data in the source: 0
pressure (bar)	uptake (mmol/g)
0	0
0.008242	-3.5e-05
0.021978	-9.4e-05
0.041209	0.008335
0.054945	0.008277
0.068681	0.012474
0.07967	0.016682
0.107143	0.016565
0.123626	0.020751
0.131868	0.020716
0.159341	0.020599
0.184066	0.024749
0.208791	0.028899
0.236264	0.033037
0.260989	0.037187
0.285714	0.037082
0.31044	0.041232
0.362637	0.045265
0.412088	0.04931
0.461538	0.053355
0.510989	0.0574
0.563187	0.057178
0.615385	0.061211
0.664835	0.061001
0.717033	0.060779
0.766484	0.060568
0.818681	0.060346
0.868132	0.05588
0.92033	0.055658
0.96978	0.051192
0.994505	0.051087
