Adsorption isotherm of Methane on NJTU-1
DOI: 10.1039/c5ce00015g
Article source: Figure 3a
Adsorbate Methane: InChIKey VNWKTOKETHGBQD-UHFFFAOYSA-N
Kind: experiment
Isotherm type: excess
Temperature: 298 K
Tabular data in the source: 0
pressure (bar)	uptake (cm3(STP)/g)
0.0828	0.4303
0.331	4.3029
0.5793	6.8847
1.0759	11.1876
2.3172	23.2358
3.6414	34.4234
4.8828	42.8141
6.2069	52.4957
7.4483	61.1015
8.7724	67.9862
10.0138	74.0103
12.6207	87.3494
15.9724	99.8279
19.3655	111.016
22.5517	122.633
25.6966	129.303
28.6345	137.263
31.6138	141.997
34.3448	147.375
37.0759	154.69
39.7241	156.411
42.2069	163.296
44.6897	165.663
47.2966	169.535
49.9448	170.611
52.5931	171.687
55.1172	174.268
57.7655	172.978
60.5379	173.193
