Adsorption isotherm of Ethane on NJTU-1
DOI: 10.1039/c5ce00015g
Article source: Figure 3d
Adsorbate Ethane: InChIKey OTMSDBZUPAUEDD-UHFFFAOYSA-N
Kind: experiment
Temperature: 298 K
Tabular data in the source: 0
pressure (bar)	uptake (mmol/g)
0.038462	6.36364
0.346154	33.0909
0.576923	52.1818
0.807692	64.9091
1	75.0909
2.23077	123.455
3.46154	161.636
5.03846	199.818
6.53846	227.818
7.96154	249.455
9.34615	268.545
10.6923	282.545
12.6923	299.091
