Adsorption isotherm of Methane on NJTU-1
DOI: 10.1039/c5ce00015g
Article source: Figure 3a
Adsorbate Methane: InChIKey VNWKTOKETHGBQD-UHFFFAOYSA-N
Kind: experiment
Isotherm type: excess
Temperature: 273 K
Tabular data in the source: 0
pressure (bar)	uptake (cm3(STP)/g)
0.0828	1.2909
0.6207	11.1876
1.0345	18.5026
2.2345	37.0052
3.5586	51.6351
4.8	64.1136
6.0828	76.8072
7.2828	86.0585
8.6069	96.3855
9.8069	104.131
12.3724	119.406
15.8069	134.897
19.0759	147.805
22.2207	159.423
25.2828	170.181
28.2621	177.281
31.1172	184.811
33.931	190.189
36.5793	195.353
39.2276	199.441
41.7103	204.389
44.1103	206.11
46.5931	209.337
49.1586	209.553
51.7241	209.122
54.331	209.337
56.9379	209.122
59.5034	209.553
