Adsorption isotherm of Oxygen on Nanoporous Carbon
DOI: 10.1021/La020319s
Adsorbate Oxygen: InChIKey MYMOFIZGZYHOMD-UHFFFAOYSA-N
Temperature: 300 K
Tabular data in the source: 0
pressure (bar)	uptake (molecules/unitcell)
0.0328616	0.674161
0.109915	2.42206
0.216779	4.51954
0.484837	9.93803
1.00555	17.1044
2.0855	27.0674
4.78315	40.701
9.9202	49.4405
20.5744	57.1313
50.8867	63.249
100.36	66.9195
