Adsorption isotherm of Oxygen on Nanoporous Carbon
DOI: 10.1021/La020319s
Adsorbate Oxygen: InChIKey MYMOFIZGZYHOMD-UHFFFAOYSA-N
Temperature: 350 K
Tabular data in the source: 0
pressure (bar)	uptake (molecules/unitcell)
0.0198701	0.149791
0.0993941	0.674161
0.196028	1.19853
0.52284	3.29601
1.00555	6.26744
1.88587	11.3363
5.15806	21.9985
10.1729	32.3111
19.5649	42.0994
52.183	52.9363
102.917	59.4036
