Adsorption isotherm of Nitrogen on Nanoporous Carbon
DOI: 10.1021/La020319s
Adsorbate Nitrogen: InChIKey IJGRMHOSHXDMSA-UHFFFAOYSA-N
Temperature: 350 K
Tabular data in the source: 0
pressure (bar)	uptake (molecules/unitcell)
0.101926	0.324581
0.196028	1.19853
0.484837	3.29601
1.05743	7.14139
1.93391	11.6859
5.28946	20.775
9.9202	29.5145
20.5744	37.38
50.8867	47.3431
102.917	53.9851
