Adsorption isotherm of Oxygen on Nanoporous Carbon
DOI: 10.1021/La020319s
Adsorbate Oxygen: InChIKey MYMOFIZGZYHOMD-UHFFFAOYSA-N
Temperature: 273 K
Tabular data in the source: 0
pressure (bar)	uptake (molecules/unitcell)
0.00763968	0.324581
0.0150672	0.674161
0.0354374	1.89769
0.0648107	3.12122
0.127822	5.91786
0.227963	9.93803
0.324195	13.7834
0.639387	20.9498
0.886709	26.3683
1.3945	33.8842
2.0855	39.4775
3.27981	45.2456
5.28946	51.0137
6.80229	54.3347
11.8302	58.5296
19.5649	62.7246
44.8727	66.2204
82.0668	69.7162
