Adsorption isotherm of Nitrogen on Nanoporous Carbon
DOI: 10.1021/La020319s
Adsorbate Nitrogen: InChIKey IJGRMHOSHXDMSA-UHFFFAOYSA-N
Temperature: 273 K
Tabular data in the source: 0
pressure (bar)	uptake (molecules/unitcell)
0.0175218	1.02374
0.0503968	2.77164
0.104522	5.2187
0.201022	9.41366
0.497188	18.3279
0.98057	26.3683
2.03369	35.9817
5.02994	46.9935
9.9202	53.4607
19.5649	57.6557
48.39	61.1515
95.4363	63.0742
