Adsorption isotherm of Nitrogen on Nanoporous Carbon
DOI: 10.1021/La020319s
Adsorbate Nitrogen: InChIKey IJGRMHOSHXDMSA-UHFFFAOYSA-N
Temperature: 300 K
Tabular data in the source: 0
pressure (bar)	uptake (molecules/unitcell)
0.0193766	0.499371
0.0503968	1.19853
0.206142	5.04391
0.497188	10.2876
2.03369	25.1447
5.02994	36.8557
20.0633	51.538
49.6227	58.0053
