Adsorption isotherm of Nitrogen on CaZrO3
DOI: 10.1007/s10450-017-9915-0
Article source: Figure 5
Adsorbate Nitrogen: InChIKey IJGRMHOSHXDMSA-UHFFFAOYSA-N
Kind: experiment
Isotherm type: excess
Temperature: 77 K
Tabular data in the source: 0
pressure (bar)	uptake (cm3(STP)/g)
0.001849	0.190513
0.054854	0.517107
0.081356	0.576983
0.107242	0.587869
0.131279	0.593313
0.157781	0.620529
0.183051	0.642302
0.20832	0.664075
0.232357	0.685848
0.258243	0.72395
0.284129	0.762053
0.310015	0.762053
0.359938	0.827372
0.409861	0.898134
0.4604	0.974339
0.512788	1.05054
0.562095	1.16485
0.611401	1.25194
0.66379	1.38258
0.714329	1.49145
0.764252	1.62753
0.813558	1.82893
0.86533	2.08476
0.914021	2.58009
0.962711	3.61975
0.984899	5.02411
0.989829	5.70995
0.998458	6.85848
0.096764	0.718507
0.122034	0.74028
0.147303	0.767496
0.172573	0.783826
0.197226	0.827372
0.222496	0.865474
0.248382	0.887247
0.273651	0.898134
0.298921	0.919907
0.348844	0.985226
0.400616	1.03421
0.451155	1.10498
0.502311	1.17574
0.55285	1.27372
0.602773	1.36625
0.654545	1.48056
0.702619	1.56765
0.75624	1.7255
0.806162	1.95412
0.857318	2.26439
0.914637	2.91213
0.966409	4.24572
0.989213	5.7154
0.997842	6.87481
