Adsorption isotherm of Methane on Activated carbon: D47/3
DOI: 10.1260/026361705776316550
Article source: Figure 9
Adsorbate Methane: InChIKey VNWKTOKETHGBQD-UHFFFAOYSA-N
Kind: experiment
Temperature: 333 K
Tabular data in the source: 0
pressure (bar)	uptake (mmol/g)
0.509	0.263
0.996	0.473
1.99	0.803
3.02	1.08
4.98	1.49
7.01	1.84
8.98	2.11
11	2.35
14	2.65
17.1	2.91
