Adsorption isotherm of Carbon Dioxide on Activated carbon: D47/3
DOI: 10.1260/026361705776316550
Article source: Figure 7
Adsorbate Carbon Dioxide: InChIKey CURLTUGMZLYLDI-UHFFFAOYSA-N
Kind: experiment
Temperature: 293 K
Tabular data in the source: 0
pressure (bar)	uptake (mmol/g)
0.428	1.3
0.96	2.1
2.03	3.2
2.98	3.9
4.94	4.96
6.94	5.71
9.01	6.31
11	6.76
14	7.3
16.9	7.7
20	8.04
