Adsorption isotherm of Carbon Dioxide, Methane on Activated carbon: D47/3
DOI: 10.1260/026361705776316550
Article source: Figure 6a
Adsorbate Carbon Dioxide: InChIKey CURLTUGMZLYLDI-UHFFFAOYSA-N
Adsorbate Methane: InChIKey VNWKTOKETHGBQD-UHFFFAOYSA-N
Kind: experiment
Temperature: 293 K
Tabular data in the source: 0
pressure (bar)	Carbon Dioxide fraction	Carbon Dioxide uptake (mmol/g)	Methane fraction	Methane uptake (mmol/g)	total uptake (mmol/g)
0	0.204	0	0.796	0	0
1.03	0.204	0.649	0.796	0.671	1.32
3.1	0.204	1.14	0.796	1.28	2.42
7.13	0.204	1.73	0.796	1.85	3.58
11.1	0.204	2.06	0.796	2.17	4.23
14.1	0.204	2.23	0.796	2.36	4.59
