Adsorption isotherm of Hydrogen, Methane on Activated carbon: D47/3
DOI: 10.1260/026361705776316550
Article source: Figure 11
Adsorbate Hydrogen: InChIKey UFHFLCQGNIYNRP-UHFFFAOYSA-N
Adsorbate Methane: InChIKey VNWKTOKETHGBQD-UHFFFAOYSA-N
Kind: experiment
Temperature: 333 K
Tabular data in the source: 0
pressure (bar)	Hydrogen fraction	Hydrogen uptake (mmol/g)	Methane fraction	Methane uptake (mmol/g)	total uptake (mmol/g)
0	0.8	0	0.2	0	0
0.995	0.8	0.0191	0.2	0.0979	0.117
2.99	0.8	0.068	0.2	0.303	0.371
7	0.8	0.137	0.2	0.597	0.734
11	0.8	0.177	0.2	0.843	1.02
14	0.8	0.13	0.2	1	1.13
