Adsorption isotherm of Hydrogen, Methane on Activated carbon: D47/3
DOI: 10.1260/026361705776316550
Article source: Figure 10
Adsorbate Hydrogen: InChIKey UFHFLCQGNIYNRP-UHFFFAOYSA-N
Adsorbate Methane: InChIKey VNWKTOKETHGBQD-UHFFFAOYSA-N
Kind: experiment
Temperature: 293 K
Tabular data in the source: 0
pressure (bar)	Hydrogen fraction	Hydrogen uptake (mmol/g)	Methane fraction	Methane uptake (mmol/g)	total uptake (mmol/g)
0	0.8	0	0.2	0	0
0.983	0.8	0.111	0.2	0.26	0.371
3	0.8	0.111	0.2	0.644	0.755
7.01	0.8	0.19	0.2	1.15	1.34
11	0.8	0.16	0.2	1.51	1.67
14	0.8	0.18	0.2	1.73	1.91
