Adsorption isotherm of Carbon Dioxide, Methane on Activated carbon: D47/3
DOI: 10.1260/026361705776316550
Article source: Figure 9
Adsorbate Carbon Dioxide: InChIKey CURLTUGMZLYLDI-UHFFFAOYSA-N
Adsorbate Methane: InChIKey VNWKTOKETHGBQD-UHFFFAOYSA-N
Kind: experiment
Temperature: 333 K
Tabular data in the source: 0
pressure (bar)	Carbon Dioxide fraction	Carbon Dioxide uptake (mmol/g)	Methane fraction	Methane uptake (mmol/g)	total uptake (mmol/g)
0	0.794	0	0.206	0	0
1.02	0.794	0.879	0.206	0.077	0.956
3.05	0.794	1.76	0.206	0.23	1.99
7.05	0.794	2.88	0.206	0.42	3.3
11.1	0.794	3.61	0.206	0.57	4.18
14	0.794	4.01	0.206	0.65	4.66
