Adsorption isotherm of Methane on Activated carbon: D47/3
DOI: 10.1260/026361705776316550
Article source: Figure 7
Adsorbate Methane: InChIKey VNWKTOKETHGBQD-UHFFFAOYSA-N
Kind: experiment
Temperature: 293 K
Tabular data in the source: 0
pressure (bar)	uptake (mmol/g)
0.48	0.555
1.03	0.956
1.99	1.47
3.01	1.86
4.98	2.44
7.03	2.87
8.99	3.2
11	3.48
14	3.81
17	4.09
