Adsorption isotherm of Carbon Dioxide, Methane on Activated carbon: D47/3
DOI: 10.1260/026361705776316550
Article source: Figure 7
Adsorbate Carbon Dioxide: InChIKey CURLTUGMZLYLDI-UHFFFAOYSA-N
Adsorbate Methane: InChIKey VNWKTOKETHGBQD-UHFFFAOYSA-N
Kind: experiment
Temperature: 293 K
Tabular data in the source: 0
pressure (bar)	Carbon Dioxide fraction	Carbon Dioxide uptake (mmol/g)	Methane fraction	Methane uptake (mmol/g)	total uptake (mmol/g)
0	0.483	0	0.517	0	0
1.05	0.483	1.418	0.517	0.442	1.86
3.12	0.483	2.591	0.517	0.929	3.52
7.09	0.483	4.11	0.517	1.44	5.55
