Adsorption isotherm of Carbon Dioxide, Methane on Activated carbon: D47/3
DOI: 10.1260/026361705776316550
Article source: Figure 8
Adsorbate Carbon Dioxide: InChIKey CURLTUGMZLYLDI-UHFFFAOYSA-N
Adsorbate Methane: InChIKey VNWKTOKETHGBQD-UHFFFAOYSA-N
Kind: experiment
Temperature: 293 K
Tabular data in the source: 0
pressure (bar)	Carbon Dioxide fraction	Carbon Dioxide uptake (mmol/g)	Methane fraction	Methane uptake (mmol/g)	total uptake (mmol/g)
0	0.775	0	0.225	0	0
1.07	0.775	1.8	0.225	0.14	1.94
3.08	0.775	3.29	0.225	0.2	3.49
7.02	0.775	4.83	0.225	0.2	5.03
10.9	0.775	5.77	0.225	0.2	5.97
13.8	0.775	6.29	0.225	0.2	6.49
