Adsorption isotherm of Carbon Dioxide on Activated carbon: D47/3
DOI: 10.1260/026361705776316550
Article source: Figure 9
Adsorbate Carbon Dioxide: InChIKey CURLTUGMZLYLDI-UHFFFAOYSA-N
Kind: experiment
Temperature: 333 K
Tabular data in the source: 0
pressure (bar)	uptake (mmol/g)
0.495	0.619
0.989	1
2.01	1.62
3.03	2.09
4.96	2.81
7.05	3.41
9	3.87
11	4.28
14	4.79
17.1	5.2
20.1	5.55
