Adsorption isotherm of Hydrogen on Activated carbon: D47/3
DOI: 10.1260/026361705776316550
Article source: Figure 10
Adsorbate Hydrogen: InChIKey UFHFLCQGNIYNRP-UHFFFAOYSA-N
Kind: experiment
Temperature: 293 K
Tabular data in the source: 0
pressure (bar)	uptake (mmol/g)
0.523	0.0156
1.01	0.025
2	0.0531
3	0.0874
5.01	0.147
6.99	0.206
9	0.265
12	0.353
14	0.403
17	0.481
