Adsorption isotherm of Hydrogen on Activated carbon: D47/3
DOI: 10.1260/026361705776316550
Article source: Figure 11
Adsorbate Hydrogen: InChIKey UFHFLCQGNIYNRP-UHFFFAOYSA-N
Kind: experiment
Temperature: 333 K
Tabular data in the source: 0
pressure (bar)	uptake (mmol/g)
0.514	0.00735
1.06	0.0147
2.01	0.0319
3.09	0.054
4.09	0.0786
5	0.0983
7	0.138
9	0.175
11	0.211
14	0.268
17	0.322
