Adsorption isotherm of Nitrogen on BT-TAPT-COF
DOI: 10.1039/d0cc05222a
Article source: Figure 2c
Adsorbate Nitrogen: InChIKey IJGRMHOSHXDMSA-UHFFFAOYSA-N
Kind: experiment
Temperature: 77 K
Tabular data in the source: 0
pressure (bar)	uptake (cm3(STP)/g)
1.00718	361.819
0.993531	329.793
0.987464	297.004
0.964711	228.377
0.931341	168.137
0.89797	147.549
0.86915	136.111
0.847914	128.486
0.814544	122.386
0.785724	118.573
0.767522	113.998
0.708365	107.898
0.050056	47.658
0.101628	59.0959
0.147134	66.7211
0.200223	70.5338
0.251796	74.3464
0.306402	79.6841
0.355699	81.5904
0.404997	85.4031
0.455052	88.8344
0.505108	93.0283
0.556681	97.6035
0.606737	101.035
0.661343	104.847
0.759937	107.135
0.706848	101.797
0.659826	97.9847
0.607495	93.4096
0.555164	89.5969
0.506625	88.0719
0.455052	81.9717
0.404997	80.4466
0.354941	75.8715
0.306402	72.8214
0.251796	68.2462
0.203257	64.4335
0.183538	62.146
0.162302	60.6209
0.141066	58.3333
0.11983	57.5708
0.100112	52.2331
0.084943	50.7081
0.071292	45.7516
0.02882	36.22
0.009101	27.0697
0.003034	20.9695
0	14.1068
0	5.71895
0.813027	115.142
0.832746	117.81
0.863841	124.673
0.888869	130.392
0.914655	139.161
0.937408	154.412
0.963194	177.288
0.981396	222.277
0.995048	262.691
0.999598	284.804
1.00718	320.643
