Adsorption isotherm of Nitrogen on BT-TAPT-COF immersed in 1M NaOH
DOI: 10.1039/d0cc05222a
Article source: Figure S13
Adsorbate Nitrogen: InChIKey IJGRMHOSHXDMSA-UHFFFAOYSA-N
Kind: experiment
Temperature: 77 K
Tabular data in the source: 0
pressure (bar)	uptake (cm3(STP)/g)
1.00284	387.524
1.00284	362.217
1.00065	335.734
1.00065	312.194
0.996257	290.419
0.989671	270.998
0.989671	258.051
0.980889	230.979
0.980889	213.324
0.978693	196.846
0.967716	188.606
0.942468	165.654
0.924905	143.291
0.877702	121.516
0.825011	108.569
0.778906	104.449
0.73829	96.7985
0.683404	92.6789
0.63181	87.3823
0.573631	83.2627
0.564849	81.4972
0.616442	86.2053
0.666938	92.0904
0.722922	96.7985
0.77232	100.918
0.838184	112.688
0.888679	126.813
0.9271	146.234
0.952348	165.066
0.977596	190.96
0.981987	231.568
0.991317	263.347
1.00284	383.404
0.00281	4.40207
0.006103	10.8757
0.009397	18.5264
0.020374	25.5885
0.030253	27.9426
0.044524	33.2392
0.056599	36.1817
0.066479	36.7702
0.086238	40.3013
0.105997	43.2439
0.134538	49.129
0.163079	53.8371
0.169665	55.6026
0.212477	59.1337
0.220161	59.7222
0.256386	62.0763
0.272303	62.959
0.314566	66.7844
0.327739	67.9614
0.367257	71.4925
0.379332	71.4925
0.417753	72.081
0.42873	73.258
0.467151	76.2006
0.478128	77.0833
0.515451	79.1431
0.529721	80.6144
