Adsorption isotherm of Nitrogen on BT-TAPT-COF immersed in H2O for 1 week
DOI: 10.1039/d0cc05222a
Article source: Figure S13
Adsorbate Nitrogen: InChIKey IJGRMHOSHXDMSA-UHFFFAOYSA-N
Kind: experiment
Temperature: 77 K
Tabular data in the source: 0
pressure (bar)	uptake (cm3(STP)/g)
0.001074	10.0211
0.023866	31.7262
0.060793	45.1631
0.078751	49.347
0.12126	56.8733
0.152606	61.4177
0.198227	65.1539
0.245429	69.2527
0.282356	73.3756
0.319284	75.2414
0.356211	78.3053
0.393138	80.8397
0.430065	84.2192
0.466993	85.2608
0.50364	87.6075
0.540847	91.0769
0.578033	91.7761
0.614702	95.6581
0.651629	99.5073
0.688556	102.249
0.725483	106.894
0.761851	109.841
0.810156	115.235
0.834922	119.311
0.880785	127.721
0.916337	141.342
0.941248	160.176
0.959915	181.556
0.986052	227.039
0.996616	291.961
1.00013	323.281
0.996123	263.897
1.00207	354.047
0.860709	123.729
0.008694	26.2712
0.003952	18.6441
0.000527	1.69492
0.037938	36.4407
0.993491	330.508
0.990329	293.22
0.987168	260.169
0.178886	63.4887
0.05111	46.8927
0.103801	59.6045
0.147272	65.2542
0.203915	71.6102
0.252654	75.1412
0.30271	80.0847
0.35145	82.9096
0.404141	86.4407
0.459466	87.8531
0.501619	93.5028
0.558262	97.7401
0.604367	100.565
0.662327	106.215
0.712384	107.627
0.763758	113.983
0.79669	120.339
0.816449	123.87
0.846746	128.107
0.878361	135.876
0.902072	150.706
0.936321	172.599
0.962667	206.497
0.981108	263.701
0.971887	224.859
