Adsorption isotherm of Nitrogen on BT-TAPT-COF immersed in DMF for 1 week
DOI: 10.1039/d0cc05222a
Article source: Figure S13
Adsorbate Nitrogen: InChIKey IJGRMHOSHXDMSA-UHFFFAOYSA-N
Kind: experiment
Temperature: 77 K
Tabular data in the source: 0
pressure (bar)	uptake (cm3(STP)/g)
0.000615	2.04802
0.001712	10.8757
0.005006	19.7034
0.010494	24.4115
0.019276	30.8851
0.034644	33.8277
0.05111	37.9473
0.059892	39.7128
0.068674	42.0669
0.088433	46.775
0.126854	54.4256
0.170763	62.0763
0.216868	66.1959
0.278341	70.3154
0.320055	73.8465
0.360671	77.3776
0.425437	82.0857
0.480323	86.2053
0.524233	90.3249
0.571435	92.6789
0.623028	97.9755
0.681208	101.507
0.719629	106.215
0.756952	110.923
0.80635	119.75
0.857943	128.578
0.89307	142.114
0.945761	180.367
0.962227	206.262
0.977596	243.927
0.981987	290.419
0.986378	323.376
0.989671	353.978
0.991866	385.169
1.00175	386.935
0.984182	286.888
0.996257	350.447
0.994062	319.256
0.984182	244.515
0.96113	201.554
0.943566	177.425
0.884289	143.291
0.850259	132.109
0.801959	123.282
0.753658	116.808
0.709749	110.923
0.671329	106.803
0.619735	101.507
0.563751	96.7985
0.520939	93.8559
0.475932	90.3249
0.416655	86.7938
0.355182	80.9087
0.121365	56.7797
0.16747	62.6648
0.211379	66.1959
0.27395	70.904
0.316761	75.6121
