Adsorption isotherm of Nitrogen on BT-TAPT-COF immersed in 0.1 M Ascrobic acid for 1 week
DOI: 10.1039/d0cc05222a
Article source: Figure S13
Adsorbate Nitrogen: InChIKey IJGRMHOSHXDMSA-UHFFFAOYSA-N
Kind: experiment
Temperature: 77 K
Tabular data in the source: 0
pressure (bar)	uptake (cm3(STP)/g)
1.01163	232.745
0.980889	212.735
0.969912	179.779
0.969912	173.894
0.95125	156.238
0.922709	134.463
0.928198	142.114
0.949055	167.42
0.8788	120.339
0.86892	122.105
0.829402	110.334
0.828304	113.277
0.778906	106.215
0.731704	100.33
0.674622	95.033
0.688892	96.21
0.742681	100.918
0.783297	107.097
0.621931	90.6191
0.635103	91.7961
0.597781	88.5593
0.571435	86.7938
0.546187	85.6168
0.523684	83.2627
0.475932	79.7316
0.485812	80.3202
0.435316	77.9661
0.425437	77.9661
0.384821	73.8465
0.368355	74.435
0.336521	70.3154
0.320055	71.4925
0.280536	66.7844
0.224552	61.4878
0.204793	59.7222
0.161981	56.1912
0.023667	26.7655
0.005006	16.1723
0.053306	36.1817
0.100508	43.2439
0.00281	4.99058
