Adsorption isotherm of Sulfur Hexafluoride on BrCOF-2
DOI: 10.1002/anie.202012435
Article source: Figure 3
Adsorbate Sulfur Hexafluoride: InChIKey SFZCNBIFKDRMGX-UHFFFAOYSA-N
Kind: experiment
Temperature: 298 K
Tabular data in the source: 0
pressure (bar)	uptake (mmol/g)
0.000923	0.007968
0.013786	0.027462
0.027232	0.050854
0.041851	0.064499
0.052376	0.078145
0.066994	0.095689
0.079858	0.111284
0.088337	0.122005
0.098277	0.134676
0.129558	0.177562
0.161714	0.22727
0.228955	0.315965
0.281579	0.384192
0.359346	0.483609
0.503184	0.671721
0.572765	0.762366
0.641176	0.850087
0.707831	0.941706
0.780336	1.03332
0.852257	1.12105
0.9195	1.20487
0.990833	1.30136
0.990249	1.30039
0.91774	1.21949
0.848158	1.13469
0.777993	1.04307
0.707827	0.953402
0.63766	0.867631
0.567495	0.776011
0.500255	0.684392
0.431849	0.581077
0.363423	0.534292
0.295602	0.432926
0.228963	0.294522
0.161724	0.199004
