Adsorption isotherm of Nitrogen on BrCOF-2
DOI: 10.1002/anie.202012435
Article source: Figure 1
Adsorbate Nitrogen: InChIKey IJGRMHOSHXDMSA-UHFFFAOYSA-N
Kind: experiment
Temperature: 77 K
Tabular data in the source: 0
pressure (bar)	uptake (cm3(STP)/g)
-0.000616	1.06567
0.000642	34.9229
0.000597	75.0791
0.0025	112.873
0.005054	147.518
0.008909	179.013
0.015361	206.571
0.02376	231.767
0.03476	250.664
0.046408	269.561
0.060654	283.734
0.072953	300.269
0.084608	312.867
0.096911	325.465
0.113747	342
0.127346	355.779
0.141595	367.196
0.155841	381.369
0.190165	412.864
0.222535	452.233
0.238361	503.019
0.244134	557.348
0.258012	611.283
0.307903	634.904
0.370448	647.109
0.425867	654.589
0.47772	662.462
0.525686	668.761
0.574949	673.486
0.621619	678.997
0.665044	687.659
0.71139	692.383
0.752551	696.32
0.796628	701.831
0.843299	705.768
0.887372	714.429
0.930154	718.366
0.972604	728.996
0.991724	732.539
1.00856	748.286
1.01051	748.286
0.970982	730.177
0.929504	719.941
0.886722	716.004
0.84265	706.556
0.797275	702.619
0.752551	696.32
0.710415	694.745
0.665688	690.808
0.623557	685.296
0.582718	682.934
0.539937	678.21
0.49521	675.06
0.454378	666.399
0.412894	660.888
0.370113	656.951
0.327981	651.439
0.287798	641.991
0.249565	628.605
0.234712	577.426
0.225055	517.585
0.208909	462.469
0.186258	427.824
0.159066	396.329
0.155841	381.369
0.142245	365.621
0.126701	353.023
0.111156	340.425
0.095612	327.04
0.084604	316.017
0.071008	300.269
