Adsorption isotherm of Sulfur Hexafluoride on BrCOF-2
DOI: 10.1002/anie.202012435
Article source: Figure 3
Adsorbate Sulfur Hexafluoride: InChIKey SFZCNBIFKDRMGX-UHFFFAOYSA-N
Kind: experiment
Temperature: 273 K
Tabular data in the source: 0
pressure (bar)	uptake (mmol/g)
0.000287	0.018729
0.015439	0.049606
0.028062	0.086098
0.040266	0.114169
0.047415	0.147854
0.06004	0.175924
0.073088	0.201188
0.085292	0.232065
0.097916	0.262943
0.108018	0.282592
0.137888	0.379436
0.169026	0.462244
0.232987	0.632072
0.284745	0.765407
0.355445	0.933831
0.428671	1.10366
0.494742	1.26226
0.563338	1.42226
0.628991	1.57103
0.6938	1.72262
0.758613	1.86156
0.824266	2.00753
0.893708	2.16052
0.958104	2.28964
0.989664	2.37105
0.989244	2.36824
0.919376	2.23069
0.850352	2.08613
0.785539	1.94718
0.717781	1.79841
0.651707	1.65103
0.585213	1.49805
0.521668	1.34506
0.457281	1.19068
0.392476	1.02927
0.326829	0.863654
0.262868	0.696634
0.198479	0.54786
0.13369	0.340137
