Adsorption isotherm of Nitrogen on BrCOF-1-SCH3
DOI: 10.1002/anie.202012435
Article source: Figure 1
Adsorbate Nitrogen: InChIKey IJGRMHOSHXDMSA-UHFFFAOYSA-N
Kind: experiment
Temperature: 77 K
Tabular data in the source: 0
pressure (bar)	uptake (cm3(STP)/g)
0.001978	-0.509084
0.002605	19.1753
0.000635	41.2219
0.000607	66.418
-6.9e-05	91.614
0.001189	125.471
0.008287	155.392
0.01603	187.674
0.027025	210.508
0.038023	230.98
0.047724	252.239
0.061969	267.199
0.074916	283.734
0.089809	299.482
0.101461	314.442
0.113114	328.615
0.129302	345.937
0.140306	360.897
0.1565	371.92
0.171395	386.093
0.189528	402.628
0.215124	412.077
0.243314	421.525
0.274424	427.824
0.314612	432.548
0.352856	436.485
0.38008	438.847
0.431937	443.572
0.484805	448.831
0.533345	451.099
0.573482	454.5
0.618289	456.768
0.659357	462.437
0.700428	465.839
0.743366	469.24
0.788174	470.374
0.825509	474.909
0.867511	480.578
0.909512	487.381
0.945911	494.184
0.976702	507.79
0.994428	517.995
1.00748	531.6
1.00944	543.568
0.986762	531.758
0.967982	514.436
0.942711	503.412
0.907067	493.964
0.872713	489.239
0.834472	482.94
0.793634	479.791
0.753446	475.854
0.710015	472.705
0.668529	469.161
0.627044	464.831
0.587503	461.681
0.546664	459.319
0.505828	454.595
0.468234	449.083
0.432584	445.146
0.391097	442.784
0.353504	436.485
0.314613	430.974
0.278309	431.761
0.243959	423.887
0.216095	413.651
0.189532	398.691
