Adsorption isotherm of Nitrogen on BrCOF-2-SCH3
DOI: 10.1002/anie.202012435
Article source: Figure 1
Adsorbate Nitrogen: InChIKey IJGRMHOSHXDMSA-UHFFFAOYSA-N
Kind: experiment
Temperature: 77 K
Tabular data in the source: 0
pressure (bar)	uptake (cm3(STP)/g)
0.000682	-0.509084
6e-06	23.8996
0.002568	52.2452
0.002541	75.8665
0.003169	93.9762
0.012223	113.661
0.019334	131.77
0.029041	147.518
0.038103	159.328
0.051054	172.714
0.06336	182.162
0.075015	194.76
0.086672	205.784
0.100924	215.232
0.114526	225.468
0.127478	237.279
0.143028	245.153
0.161824	249.089
0.174136	253.026
0.214654	253.026
0.259057	256.176
0.318042	263.262
0.375731	270.349
0.433423	274.286
0.490464	280.978
0.54297	284.521
0.590939	287.277
0.635019	290.033
0.683637	292.395
0.734841	300.663
0.780221	300.269
0.829484	305.781
0.875506	310.505
0.91764	314.442
0.96431	319.166
1.0006	332.551
1.0142	344.362
1.01161	343.575
0.978557	332.551
0.934486	322.316
0.891707	316.017
0.845035	312.867
0.796419	308.143
0.751044	304.993
0.705021	300.269
0.662887	297.119
0.614918	293.97
0.57084	290.033
0.524818	284.521
0.481387	281.372
0.437957	277.435
0.394525	275.86
0.348501	271.923
0.303777	265.624
0.259046	265.624
0.215617	260.9
0.177379	252.239
0.161824	248.302
