Adsorption isotherm of Nitrogen on BrCOF-2
DOI: 10.1002/anie.202012435
Article source: Figure 3
Adsorbate Nitrogen: InChIKey IJGRMHOSHXDMSA-UHFFFAOYSA-N
Kind: experiment
Temperature: 273 K
Tabular data in the source: 0
pressure (bar)	uptake (mmol/g)
0.000629	0.011867
0.01496	0.015766
0.028413	0.017715
0.040695	0.024538
0.054734	0.026487
0.066434	0.026487
0.079886	0.03136
0.092172	0.027462
0.1027	0.032335
0.135456	0.041107
0.167628	0.044031
0.249229	0.053778
0.34896	0.074246
0.432608	0.083993
0.506309	0.099588
0.582058	0.113233
0.651959	0.124929
0.726834	0.130777
0.796437	0.156119
0.871894	0.169764
0.945596	0.18341
0.998826	0.189258
0.999118	0.191207
0.948227	0.186334
0.877157	0.173663
0.806379	0.163916
0.735017	0.148321
0.662778	0.132727
0.594048	0.12103
0.523268	0.115182
0.452489	0.105436
0.384053	0.089841
0.316493	0.075221
0.247763	0.06255
0.17991	0.052803
0.111474	0.035259
