Adsorption isotherm of Sulfur Hexafluoride on BrCOF-2-CF3
DOI: 10.1002/anie.202012435
Article source: Figure 3
Adsorbate Sulfur Hexafluoride: InChIKey SFZCNBIFKDRMGX-UHFFFAOYSA-N
Kind: experiment
Temperature: 273 K
Tabular data in the source: 0
pressure (bar)	uptake (mmol/g)
-0.000556	0.021536
0.011218	0.077677
0.021305	0.136625
0.034764	0.192766
0.046537	0.248908
0.059154	0.302242
0.069246	0.347155
0.079336	0.400489
0.091116	0.439788
0.099521	0.493122
0.128969	0.591369
0.160097	0.703652
0.223199	0.919795
0.276213	1.07699
0.348587	1.27489
0.415916	1.44612
0.483252	1.5991
0.548061	1.75068
0.613719	1.88262
0.681902	2.02297
0.747564	2.14227
0.813646	2.26718
0.880152	2.38508
0.948344	2.49736
0.998424	2.61245
0.998004	2.60965
0.948336	2.51982
0.879722	2.41035
0.812372	2.29806
0.746706	2.18718
0.680202	2.06648
0.615378	1.9556
0.550144	1.81665
0.48533	1.6777
0.421785	1.52472
0.35782	1.36892
0.294703	1.19769
0.232433	1.01243
0.170589	0.81032
