Adsorption isotherm of Nitrogen on BrCOF-2-CF3
DOI: 10.1002/anie.202012435
Article source: Figure 3
Adsorbate Nitrogen: InChIKey IJGRMHOSHXDMSA-UHFFFAOYSA-N
Kind: experiment
Temperature: 273 K
Tabular data in the source: 0
pressure (bar)	uptake (mmol/g)
-0.002003	0.009918
0.014375	0.015766
0.027828	0.017715
0.043036	0.021614
0.055906	0.019664
0.069362	0.017715
0.081058	0.025512
0.091589	0.023563
0.133704	0.03136
0.164705	0.039158
0.236072	0.039158
0.299247	0.045006
0.470048	0.078145
0.545505	0.09179
0.622133	0.103486
0.692912	0.111284
0.761934	0.125904
0.836221	0.138575
0.913434	0.150271
0.984211	0.163916
1.00059	0.171714
0.952039	0.160017
0.87658	0.15222
0.806094	0.142473
0.733854	0.129803
0.66249	0.120056
0.592882	0.110309
0.523274	0.097638
0.384937	0.071322
0.316204	0.066449
0.248643	0.056702
0.180499	0.041107
0.111768	0.029411
