Adsorption isotherm of Nitrogen on BrPOP-2
DOI: 10.1002/anie.202012435
Article source: Figure S23
Adsorbate Nitrogen: InChIKey IJGRMHOSHXDMSA-UHFFFAOYSA-N
Kind: experiment
Temperature: 77 K
Tabular data in the source: 0
pressure (bar)	uptake (cm3(STP)/g)
0.002314	0.055212
0.015508	2.97683
0.034474	3.58761
0.050967	4.26246
0.068696	4.63244
0.088075	5.06669
0.107866	5.58121
0.125596	5.98328
0.144975	6.36938
0.163529	6.7394
0.215893	8.17027
0.262897	9.10336
0.326393	9.86069
0.393601	10.7947
0.45751	11.6323
0.515234	12.5017
0.56801	13.4351
0.618312	14.3683
0.663667	15.3013
0.700775	16.2019
0.742007	17.0063
0.783651	18.0996
0.822821	19.1607
0.860754	20.3823
0.899511	21.5397
0.941568	22.9861
0.98115	25.0744
1.01166	30.4364
1.01166	30.4364
0.985273	27.7388
0.94734	23.9494
0.910232	22.1822
0.871886	20.8803
0.830242	19.7228
0.791897	18.6617
0.752315	17.5846
0.713145	16.6197
0.674387	15.7833
0.637279	14.9791
0.599346	14.2711
0.560588	13.531
0.522243	13.0156
0.483073	12.3076
0.44514	11.7601
0.405146	11.2286
0.3668	10.7293
0.328043	10.2941
0.289285	9.79473
0.251352	9.31146
0.213419	8.4109
0.176311	7.38198
