Adsorption isotherm of Nitrogen on BrCOF-1
DOI: 10.1002/anie.202012435
Article source: Figure 1
Adsorbate Nitrogen: InChIKey IJGRMHOSHXDMSA-UHFFFAOYSA-N
Kind: experiment
Temperature: 77 K
Tabular data in the source: 0
pressure (bar)	uptake (cm3(STP)/g)
-0.001154	1.35685
-0.002304	31.2076
0.001016	59.7015
0.000984	88.1954
0.002071	115.332
0.005386	147.897
0.013165	184.532
0.01984	208.955
0.03433	238.806
0.056639	268.657
0.068902	291.723
0.07559	305.292
0.095685	317.503
0.111305	335.142
0.121335	356.852
0.135837	375.848
0.16151	394.844
0.20391	440.977
0.219504	481.682
0.240676	530.529
0.264096	565.807
0.312099	597.015
0.37016	624.152
0.426002	637.72
0.485201	645.862
0.534344	656.716
0.573441	659.43
0.62258	672.999
0.666142	678.426
0.716406	685.21
0.755497	693.351
0.800173	702.849
0.844848	712.347
0.888406	721.845
0.928603	739.484
0.964323	765.265
0.976593	781.547
0.986619	807.327
0.997754	839.891
1.0033	871.099
1.00549	910.448
1.01217	934.871
1.01217	932.979
0.991208	893.719
0.972406	845.297
0.947673	801.456
0.917537	771.356
0.88308	751.071
0.844845	736.675
0.80445	726.206
0.760283	717.699
0.713959	710.502
0.670868	702.649
0.626158	696.76
0.582526	690.871
0.540511	684.982
0.499037	676.476
0.466195	656.845
0.424181	649.647
0.378397	641.141
0.340695	631.98
0.303004	613.004
0.270167	588.793
0.239491	560.002
0.21906	522.704
0.201872	476.9
0.178207	440.911
0.150768	407.539
0.13518	375.476
0.118497	359.772
0.103428	345.376
0.091053	330.981
0.077066	312.659
0.063617	294.992
