Adsorption isotherm of Sulfur Hexafluoride on BrCOF-2-CF3
DOI: 10.1002/anie.202012435
Article source: Figure 3
Adsorbate Sulfur Hexafluoride: InChIKey SFZCNBIFKDRMGX-UHFFFAOYSA-N
Kind: experiment
Temperature: 298 K
Tabular data in the source: 0
pressure (bar)	uptake (mmol/g)
-0.001398	0.020132
0.013329	0.060835
0.028061	0.087502
0.039004	0.111362
0.05163	0.136625
0.063415	0.160485
0.075201	0.181538
0.092042	0.198381
0.100457	0.223644
0.110139	0.237679
0.140864	0.300838
0.173698	0.352769
0.234309	0.463648
0.28482	0.55207
0.359328	0.668563
0.432154	0.779442
0.501194	0.877689
0.571919	0.973129
0.641807	1.05453
0.712953	1.14857
0.782841	1.23138
0.848096	1.30998
0.919248	1.39138
0.988718	1.46156
0.988718	1.46156
0.919657	1.42507
0.84725	1.32121
0.7782	1.25384
0.710839	1.17383
0.643473	1.10646
0.576116	1.01523
0.509177	0.932427
0.443083	0.841198
0.376571	0.74295
0.310059	0.641896
0.243551	0.532421
0.17452	0.40891
