Adsorption isotherm of Methane on Carbon Slit Pore
DOI: 10.1002/aic.10687
Article source: Figure 2a- CH4 DFT at 308 K
Adsorbate Methane: InChIKey VNWKTOKETHGBQD-UHFFFAOYSA-N
Kind: experiment
Isotherm type: absolute
Temperature: 308 K
Tabular data in the source: 0
pressure (bar)	uptake (mmol/cm3)
22.69	7.3085
32.999	8.9792
42.362	10.0179
66.771	11.7228
101.831	13.0448
121.881	13.5407
141.823	13.9242
167.627	14.3499
194.039	14.6781
224.56	15.021
248.738	15.2494
