Adsorption isotherm of Arsenate on CuFeOX foam at pH 7.0
DOI: 10.1016/j.seppur.2020.117673
Article source: Figure 6B
Adsorbate Arsenate: InChIKey HAYXDMNJJFVXCI-UHFFFAOYSA-N
Kind: experiment
Temperature: 303 K
Tabular data in the source: 0
pressure (bar)	uptake ()
1.01325	16.2581
1.01325	77.9355
1.01325	107.355
1.01325	140.903
1.01325	166.71
1.01325	168.258
1.01325	168.516
1.01325	169.032
