Adsorption isotherm of As(III) on CuFeOX foam at pH 7.0
DOI: 10.1016/j.seppur.2020.117673
Article source: Figure 6A
Adsorbate As(III): InChIKey LULLIKNODDLMDQ-UHFFFAOYSA-N
Kind: experiment
Temperature: 303 K
Tabular data in the source: 0
pressure (bar)	uptake (mg/g)
1.01325	8.01027
1.01325	15.4044
1.01325	48.267
1.01325	71.2709
1.01325	110.295
1.01325	130.834
1.01325	135.764
1.01325	136.175
1.01325	136.175
