Adsorption isotherm of Nitrogen on residual from alginate extraction from sargassum filipendula biomass
DOI: 10.1016/j.cej.2016.12.082
Article source: Figure 3
Adsorbate Nitrogen: InChIKey IJGRMHOSHXDMSA-UHFFFAOYSA-N
Kind: experiment
Temperature: 77 K
Tabular data in the source: 0
pressure (bar)	uptake (cm3(STP)/g)
0.049192	0.08198
0.101667	0.1257
0.152603	0.16785
0.157831	0.16941
0.201217	0.21468
0.207216	0.22093
0.250207	0.26465
0.251372	0.25944
0.30172	0.30289
0.317212	0.32892
0.351885	0.34712
0.370275	0.3807
0.40204	0.39396
0.42199	0.43274
0.451617	0.44366
0.47331	0.48635
0.502157	0.49336
0.529271	0.54438
0.555807	0.54593
0.584076	0.60267
0.608282	0.60474
0.634819	0.6581
0.659025	0.65678
0.689432	0.72289
0.707832	0.71481
0.741522	0.7778
0.756437	0.76347
0.79343	0.83323
0.806014	0.82281
0.844355	0.89256
0.854234	0.88084
0.898198	0.94669
0.904784	0.93809
0.953966	1.01044
0.954939	0.99873
1.00199	1.06848
