Adsorption isotherm of Nitrogen on DBC-2P⊂PEG-37 wt %
DOI: 10.1002/anie.201909554
Article source: Figure 3d
Adsorbate Nitrogen: InChIKey IJGRMHOSHXDMSA-UHFFFAOYSA-N
Kind: experiment
Temperature: 77 K
Tabular data in the source: 0
pressure (bar)	uptake (cm3(STP)/g)
0.014807	6.29685
0.021153	6.29685
0.03173	7.1964
0.044422	7.1964
0.048653	7.1964
0.061345	7.1964
0.080383	8.09595
0.103652	8.9955
0.114229	8.9955
0.126921	9.89505
0.152305	11.6942
0.173458	11.6942
0.198842	11.6942
0.222111	12.5937
0.243265	12.5937
0.266533	13.4933
0.294033	15.2924
0.342686	16.1919
0.36807	17.0915
0.384993	17.0915
0.416723	17.991
0.437876	17.991
0.473837	17.991
0.520375	19.7901
0.558451	20.6897
0.588066	20.6897
0.609219	20.6897
0.643065	20.6897
0.67268	22.4888
0.691718	24.2879
0.706525	24.2879
0.723448	24.2879
0.769985	26.087
0.822869	26.9865
0.867291	28.7856
0.918059	32.3838
0.856715	28.7856
0.810177	26.087
0.761524	25.1874
0.700179	24.2879
0.655757	23.3883
0.630373	21.5892
0.61345	20.6897
0.590181	19.7901
0.575374	19.7901
0.55422	18.8906
0.537297	17.991
0.518259	17.991
0.497106	17.0915
0.465376	16.1919
0.446338	16.1919
0.391339	15.2924
0.359609	14.3928
0.34057	14.3928
0.325763	14.3928
0.268649	12.5937
0.219996	11.6942
0.169228	9.89505
0.141728	8.9955
0.112113	8.09595
0.093075	8.09595
0.06346	7.1964
0	7.1964
0.082498	15.2924
0.069806	15.2924
0.050768	14.3928
0.008461	8.9955
