Adsorption isotherm of Nitrogen on DBC-2P-PEG-37wt% after treatment using hot EtOH and water
DOI: 10.1002/anie.201909554
Article source: Figure S14
Adsorbate Nitrogen: InChIKey IJGRMHOSHXDMSA-UHFFFAOYSA-N
Kind: experiment
Temperature: 77 K
Tabular data in the source: 0
pressure (bar)	uptake (cm3(STP)/g)
0.004871	157.612
0.007307	171.94
0.007307	180.896
0.012178	189.851
0.014614	197.015
0.019486	204.179
0.026793	218.507
0.036535	227.463
0.041407	231.045
0.065764	248.955
0.075507	256.119
0.082814	263.284
0.094992	268.657
0.107171	277.612
0.114478	282.985
0.121785	290.149
0.131528	293.731
0.143706	297.313
0.151013	304.478
0.163192	309.851
0.180242	322.388
0.189984	333.134
0.202163	340.299
0.20947	347.463
0.221648	352.836
0.22652	358.209
0.231391	360
0.248441	374.328
0.255748	385.075
0.277669	406.567
0.287412	419.104
0.292284	426.269
0.292284	435.224
0.299591	458.507
0.299591	467.463
0.302026	480
0.314205	485.373
0.331255	488.955
0.345869	492.537
0.370226	494.328
0.389712	497.91
0.409197	501.493
0.433554	503.284
0.45304	505.075
0.479832	506.866
0.501754	510.448
0.523675	512.239
0.548032	514.03
0.596746	519.403
0.643024	521.194
0.76968	531.94
0.857365	540.896
0.954793	558.806
0.915822	551.642
0.852494	542.687
0.78673	535.522
0.747759	530.149
0.740452	530.149
0.691738	526.567
0.635717	521.194
0.584567	519.403
0.572389	519.403
0.523675	515.821
0.513932	514.03
0.499318	512.239
0.482268	512.239
0.460347	508.657
0.445733	506.866
0.423811	505.075
0.397019	503.284
0.377533	499.701
0.36779	497.91
0.360483	497.91
0.348305	494.328
0.328819	490.746
0.321512	488.955
0.314205	485.373
0.306898	480
0.294719	454.925
0.287412	445.97
0.287412	431.642
0.284977	422.687
0.280105	413.731
0.275234	410.149
0.265491	399.403
0.255748	394.03
0.24357	374.328
0.231391	363.582
0.211906	351.045
0.197291	343.881
0.185113	336.716
0.17537	327.761
0.163192	313.433
0.148578	309.851
0.133963	297.313
0.112042	284.776
0.094992	277.612
0.080378	270.448
0.0682	263.284
0.058457	257.91
0.043843	236.418
0.041407	236.418
0.007307	182.687
