Adsorption isotherm of Nitrogen on DBC-2P in boiling water
DOI: 10.1002/anie.201909554
Article source: Figure S12
Adsorbate Nitrogen: InChIKey IJGRMHOSHXDMSA-UHFFFAOYSA-N
Kind: experiment
Temperature: 77 K
Tabular data in the source: 0
pressure (bar)	uptake (cm3(STP)/g)
0	144.865
0.005105	155.676
0.012761	160
0.025523	176.216
0.040836	188.108
0.053598	193.514
0.066359	198.919
0.074016	203.243
0.089329	214.054
0.104643	219.459
0.125061	228.108
0.148031	235.676
0.165897	247.568
0.193972	256.216
0.209286	262.703
0.219495	270.27
0.260331	283.243
0.278197	292.973
0.30372	322.162
0.30372	342.703
0.319033	372.973
0.324138	378.378
0.362422	384.865
0.398154	387.027
0.413467	388.108
0.428781	389.189
0.46196	392.432
0.497692	394.595
0.515558	396.757
0.541081	397.838
0.57426	401.081
0.587021	401.081
0.612544	403.243
0.650828	406.486
0.663589	406.486
0.696769	407.568
0.717187	408.649
0.763128	416.216
0.82183	419.459
0.867771	424.865
0.926473	432.432
0.936682	440.541
0.908607	438.919
0.865219	430.27
0.809069	422.703
0.758023	417.297
0.706978	412.973
0.68656	411.892
0.650828	408.649
0.638067	407.568
0.60744	405.405
0.581917	404.324
0.556394	403.243
0.520662	402.162
0.49514	401.081
0.479826	401.081
0.454304	397.838
0.423676	395.676
0.400706	393.514
0.387945	393.514
0.347108	389.189
0.316481	388.108
0.301168	385.946
0.283302	355.676
0.275645	338.378
0.257779	312.432
0.255227	300.541
0.227152	286.486
0.204181	275.676
0.181211	268.108
0.160793	257.297
0.142927	245.405
0.114852	237.838
0.094434	230.27
0.084225	223.784
0.071463	216.216
0.058702	210.811
0.045941	206.486
0.043389	202.162
0.043389	196.757
