Adsorption isotherm of Nitrogen on DBC-2P
DOI: 10.1002/anie.201909554
Article source: Figure 1e
Adsorbate Nitrogen: InChIKey IJGRMHOSHXDMSA-UHFFFAOYSA-N
Kind: experiment
Temperature: 77 K
Tabular data in the source: 0
pressure (bar)	uptake (cm3(STP)/g)
0.002009	129.353
0.002009	141.294
0.002009	151.244
0.004688	160.199
0.006027	176.119
0.007367	190.05
0.011385	199.005
0.015403	207.96
0.018082	210.945
0.028797	226.866
0.034154	231.841
0.047548	240.796
0.058264	247.761
0.0663	253.731
0.072997	258.706
0.082373	264.677
0.102463	277.612
0.123894	288.557
0.139966	300.497
0.157379	312.438
0.170772	321.393
0.186845	329.353
0.201578	342.289
0.214972	352.239
0.231045	364.179
0.245778	374.129
0.267209	398.01
0.277924	407.96
0.291318	432.836
0.295336	449.751
0.300693	466.667
0.303372	484.577
0.364984	495.522
0.419899	503.483
0.480172	509.453
0.531069	514.428
0.63822	522.388
0.74939	529.353
0.852523	544.279
0.94762	559.204
0.908777	552.239
0.853862	544.279
0.794929	541.294
0.74939	533.333
0.741353	533.333
0.690457	527.363
0.632863	523.383
0.590002	519.403
0.577948	519.403
0.473475	512.438
0.417221	505.473
0.370342	499.503
0.316766	493.532
0.303372	480.597
0.295336	462.687
0.291318	441.791
0.281942	422.886
0.276584	411.94
0.259172	395.025
0.249797	387.065
0.235063	374.129
0.213633	354.229
0.192203	337.313
0.188185	335.323
0.172112	323.383
0.15336	313.433
0.139966	304.478
0.122554	292.537
0.10916	282.587
0.08907	270.647
0.077015	263.682
0.067639	260.697
0.062282	255.721
0.055585	252.736
0.052906	249.751
0.048888	245.771
