Adsorption isotherm of Water on DBC-2P
DOI: 10.1002/anie.201909554
Article source: Figure S14
Adsorbate Water: InChIKey XLYOFNOQVPJJNP-UHFFFAOYSA-N
Kind: experiment
Temperature: 298 K
Tabular data in the source: 0
pressure (bar)	uptake (cm3(STP)/g)
0.001161	2.13713
0.001548	3.56189
0.002786	5.69902
0.003173	7.12378
0.005107	12.8228
0.005494	14.2476
0.006113	16.3847
0.006655	18.5218
0.007274	20.6589
0.00797	22.7961
0.008667	24.9332
0.009595	30.6322
0.010833	42.0303
0.011298	47.7293
0.011994	57.7026
0.012536	71.9501
0.013232	84.7729
0.014393	91.1843
0.016405	99.7329
0.018185	104.719
0.019345	108.994
0.02128	116.118
0.022982	128.228
0.024143	142.476
0.02484	158.148
0.025072	175.245
0.025381	188.78
0.025613	208.014
0.025846	225.111
0.026232	243.633
0.026387	259.305
0.02631	278.54
0.02631	295.637
0.026774	309.884
0.027006	327.694
0.027161	344.791
0.027316	361.888
0.026155	357.614
0.02453	342.654
0.023215	326.981
0.022209	312.021
0.021435	297.061
0.020506	281.389
0.019732	266.429
0.019268	250.757
0.018649	231.523
0.018339	217.988
0.018262	201.603
0.01803	182.369
0.017759	164.559
0.017566	147.462
0.017179	132.502
0.01714	112.199
0.016018	97.5957
0.01478	85.4853
0.013697	80.4987
0.012226	58.415
0.011298	45.5922
0.009054	27.7827
0.008435	24.9332
0.00797	22.7961
0.007506	22.0837
0.006964	20.6589
0.0065	19.2342
0.005958	17.8094
0.005417	14.9599
0.005107	14.2476
0.004566	13.5352
0.002631	7.12378
0.001393	3.56189
