Adsorption isotherm of Nitrogen on DBC-2P-PEG-LiBf
DOI: 10.1002/anie.201909554
Article source: Figure S14
Adsorbate Nitrogen: InChIKey IJGRMHOSHXDMSA-UHFFFAOYSA-N
Kind: experiment
Temperature: 77 K
Tabular data in the source: 0
pressure (bar)	uptake (cm3(STP)/g)
0.007298	26.7857
0.007298	33.9286
0.014597	41.0714
0.021895	44.6429
0.034059	46.4286
0.041357	48.2143
0.055954	51.7857
0.068118	53.5714
0.08758	57.1429
0.097311	58.9286
0.111908	60.7143
0.13137	64.2857
0.150832	69.6429
0.167861	73.2143
0.194622	75
0.21895	80.3571
0.24571	85.7143
0.260307	87.5
0.272471	91.0714
0.274903	94.6429
0.277336	100
0.2895	110.714
0.291933	119.643
0.301664	132.143
0.323559	137.5
0.357618	139.286
0.381945	141.071
0.394109	141.071
0.411139	142.857
0.42087	142.857
0.442765	142.857
0.46466	144.643
0.486555	148.214
0.501151	148.214
0.523046	148.214
0.552239	150
0.596029	150
0.627655	150
0.64955	150
0.695773	155.357
0.734697	158.929
0.773622	158.929
0.807681	160.714
0.844172	162.5
0.878231	166.071
0.909857	169.643
0.951214	176.786
0.973109	180.357
0.987706	185.714
0.995004	192.857
1.0023	208.929
1.00473	225
1.00473	237.5
0.997437	233.929
0.990139	225
0.985273	219.643
0.973109	203.571
0.963378	192.857
0.93905	178.571
0.91229	171.429
0.885529	167.857
0.856336	162.5
0.846605	162.5
0.802815	158.929
0.776055	157.143
0.763891	157.143
0.727399	153.571
0.715235	151.786
0.661714	153.571
0.627655	153.571
0.600895	153.571
0.579	153.571
0.532777	150
0.520613	148.214
0.479256	148.214
0.474391	148.214
0.462227	146.429
0.416004	146.429
0.367349	142.857
0.311395	137.5
0.2895	133.929
0.277336	114.286
0.250576	94.6429
0.223815	89.2857
0.189756	83.9286
0.143534	69.6429
0.094878	62.5
0.090013	62.5
0.072983	58.9286
0.051088	55.3571
0.038924	51.7857
0.036492	48.2143
