Adsorption isotherm of Nitrogen on DBC-2P⊂PEG-28 wt %
DOI: 10.1002/anie.201909554
Article source: Figure 3d
Adsorbate Nitrogen: InChIKey IJGRMHOSHXDMSA-UHFFFAOYSA-N
Kind: experiment
Temperature: 77 K
Tabular data in the source: 0
pressure (bar)	uptake (cm3(STP)/g)
0.012692	11.6942
0.025384	12.5937
0.044422	13.4933
0.05923	14.3928
0.078268	16.1919
0.09096	16.1919
0.114229	17.991
0.139613	20.6897
0.15442	21.5892
0.192496	23.3883
0.21788	24.2879
0.232688	24.2879
0.253841	26.9865
0.274995	27.8861
0.283456	27.8861
0.313071	36.8816
0.334224	35.0825
0.365955	36.8816
0.397685	36.8816
0.4273	37.7811
0.450568	38.6807
0.46326	38.6807
0.492875	38.6807
0.520375	39.5802
0.539413	40.4798
0.560566	41.3793
0.58595	42.2789
0.626142	42.2789
0.651526	42.2789
0.67268	43.1784
0.698064	43.1784
0.717102	43.1784
0.772101	45.8771
0.820754	47.6762
0.867291	50.3748
0.913829	53.973
0.85883	50.3748
0.812292	49.4753
0.759409	46.7766
0.714986	44.9775
0.689602	44.078
0.670564	43.1784
0.651526	42.2789
0.611335	41.3793
0.58595	41.3793
0.560566	41.3793
0.530951	39.5802
0.511913	39.5802
0.484414	38.6807
0.480183	38.6807
0.448453	38.6807
0.425184	35.982
0.391339	36.8816
0.353263	36.8816
0.338455	35.982
0.310956	34.1829
0.300379	32.3838
0.296148	30.5847
0.255957	26.9865
0.232688	26.087
0.21788	25.1874
0.203073	25.1874
0.175574	22.4888
0.156535	22.4888
0.137497	20.6897
0.126921	19.7901
0.101537	18.8906
0.076152	17.991
0.052884	16.1919
