Adsorption isotherm of Nitrogen on DBC-2P⊂PEG-17 wt %
DOI: 10.1002/anie.201909554
Article source: Figure 3d
Adsorbate Nitrogen: InChIKey IJGRMHOSHXDMSA-UHFFFAOYSA-N
Kind: experiment
Temperature: 77 K
Tabular data in the source: 0
pressure (bar)	uptake (cm3(STP)/g)
0.004231	23.3883
0.021153	35.982
0.046538	45.8771
0.065576	49.4753
0.084614	52.1739
0.093075	54.8726
0.112113	59.3703
0.139613	67.4663
0.18192	74.6627
0.232688	85.4573
0.270764	97.1514
0.321532	129.535
0.374416	134.033
0.433646	137.631
0.552105	149.325
0.89056	183.508
0.970943	209.595
0.873637	185.307
0.763639	174.513
0.655757	161.919
0.387108	134.933
0.224227	81.8591
0.156535	71.0645
