Adsorption isotherm of Water on DBC-2Pâ¸¦PEG-28wt%
DOI: 10.1002/anie.201909554
Article source: Figure S14
Adsorbate Water: InChIKey XLYOFNOQVPJJNP-UHFFFAOYSA-N
Kind: experiment
Temperature: 298 K
Tabular data in the source: 0
pressure (bar)	uptake (cm3(STP)/g)
0.000851	-1.42475
0.001702	-0.712378
0.002554	2.84951
0.003095	4.27426
0.003869	7.83615
0.00503	10.6857
0.005339	12.8228
0.006191	15.6723
0.007351	19.2342
0.00797	22.0837
0.008744	27.0703
0.00975	30.6322
0.011298	42.0303
0.013851	44.8798
0.014316	49.1541
0.015786	52.0036
0.017875	63.4016
0.02097	79.0739
0.022209	91.1843
0.023679	101.87
0.024994	114.693
0.025226	118.967
0.026774	140.338
0.028012	159.573
0.028399	163.847
0.026619	135.352
0.025304	115.405
0.023601	99.0205
0.021899	86.1977
0.020429	76.2244
0.018262	66.2511
0.017024	61.2645
0.015012	44.8798
0.014393	36.3313
0.014006	34.1941
0.012149	33.4817
0.010988	29.2075
0.009054	22.7961
0.008512	19.9466
0.007351	16.3847
0.007042	14.9599
0.006345	13.5352
0.006036	12.1104
0.005649	10.6857
0.005339	9.97329
0.004952	8.54853
0.004179	7.12378
