Adsorption isotherm of Nitrogen on DBC-2P⊂PEG-45 wt %
DOI: 10.1002/anie.201909554
Article source: Figure 3d
Adsorbate Nitrogen: InChIKey IJGRMHOSHXDMSA-UHFFFAOYSA-N
Kind: experiment
Temperature: 77 K
Tabular data in the source: 0
pressure (bar)	uptake (cm3(STP)/g)
0.044422	0.89955
0.065576	0.89955
0.097306	0.89955
0.112113	0.89955
0.141728	0.89955
0.179804	3.5982
0.211534	4.49775
0.236919	4.49775
0.262303	4.49775
0.287687	4.49775
0.315186	4.49775
0.342686	4.49775
0.365955	4.49775
0.389223	5.3973
0.429415	5.3973
0.467491	5.3973
0.499221	5.3973
0.530951	6.29685
0.558451	6.29685
0.598642	6.29685
0.634603	8.09595
0.670564	8.9955
0.700179	8.9955
0.734025	8.9955
0.76787	8.9955
0.8271	8.09595
0.871522	10.7946
0.920175	11.6942
0.909598	11.6942
0.85883	9.89505
0.814408	8.9955
0.761524	8.09595
0.706525	7.1964
0.668449	7.1964
0.64518	7.1964
0.617681	7.1964
0.575374	7.1964
0.54999	7.1964
0.528836	6.29685
0.514029	5.3973
0.499221	5.3973
0.478068	4.49775
0.469606	4.49775
0.452684	4.49775
0.43153	4.49775
0.404031	4.49775
0.382877	3.5982
0.349032	3.5982
0.323648	3.5982
0.306725	4.49775
0.247495	5.3973
0.156535	2.69865
0.105767	0.89955
0.065576	0
0.044422	0
0.03173	-0.89955
