Adsorption isotherm of Water on DBC-2Pâ¸¦PEG-LiBF4
DOI: 10.1002/anie.201909554
Article source: Figure S14
Adsorbate Water: InChIKey XLYOFNOQVPJJNP-UHFFFAOYSA-N
Kind: experiment
Temperature: 298 K
Tabular data in the source: 0
pressure (bar)	uptake (cm3(STP)/g)
0.000851	6.4114
0.001702	12.1104
0.002476	16.3847
0.003095	19.9466
0.004024	24.2208
0.00472	29.2075
0.005649	34.1941
0.0065	38.4684
0.007351	44.1674
0.007816	46.3045
0.009131	51.2912
0.01122	61.9768
0.012923	71.9501
0.014161	81.5672
0.015863	92.6091
0.01772	104.719
0.019191	110.419
0.021125	118.967
0.022054	121.817
0.023834	129.653
0.025381	138.201
0.026929	145.325
0.028631	154.586
0.026232	145.325
0.024607	138.201
0.022441	127.516
0.021048	123.241
0.019732	116.83
0.018262	111.131
0.016173	96.171
0.013619	81.9234
0.012458	74.7996
0.010679	59.8397
0.008667	47.7293
0.00828	46.3045
0.006964	39.1808
0.005726	34.1941
0.005339	31.3446
0.004488	27.7827
0.003792	24.9332
0.001161	10.6857
0.000929	9.26091
