Adsorption isotherm of Nitrogen on DBC-2P in 4 M NaOH
DOI: 10.1002/anie.201909554
Article source: Figure S12
Adsorbate Nitrogen: InChIKey IJGRMHOSHXDMSA-UHFFFAOYSA-N
Kind: experiment
Temperature: 77 K
Tabular data in the source: 0
pressure (bar)	uptake (cm3(STP)/g)
0.017866	118.919
0.035732	135.135
0.043389	144.865
0.053598	149.189
0.063807	154.595
0.091882	168.649
0.107195	174.054
0.130166	187.027
0.148031	194.595
0.16845	200
0.188868	210.811
0.216943	220.541
0.229704	230.27
0.257779	241.081
0.280749	255.135
0.298615	286.486
0.324138	316.757
0.35987	330.811
0.393049	334.054
0.421124	338.378
0.431333	340.541
0.464513	343.784
0.490035	347.027
0.510453	349.189
0.530872	353.514
0.569156	355.676
0.587021	358.919
0.622753	360
0.650828	362.162
0.666142	364.324
0.701873	367.568
0.717187	369.73
0.773337	377.297
0.819278	380.541
0.867771	388.108
0.913712	397.838
0.921368	403.243
0.939234	406.486
0.906055	405.405
0.857562	396.757
0.809069	390.27
0.763128	383.784
0.704426	377.297
0.68656	376.216
0.658485	374.054
0.625305	371.892
0.60744	369.73
0.564051	367.568
0.55129	365.405
0.51811	363.243
0.490035	361.081
0.474722	361.081
0.454304	356.757
0.410915	353.514
0.398154	350.27
0.387945	349.189
0.342004	345.946
0.319033	343.784
0.306272	336.216
0.275645	292.973
0.273093	280
0.237361	256.216
0.219495	249.73
0.206734	234.595
0.176106	225.946
0.158241	219.459
0.142927	211.892
0.114852	198.919
0.091882	191.351
0.081673	185.946
0.063807	179.459
0.05615	174.054
0.045941	169.73
0.040836	162.162
0.025523	156.757
0.02297	152.432
0.017866	145.946
0.015314	141.622
