Adsorption isotherm of 1-Pentyne on FAU zeolites
DOI: 10.1016/j.seppur.2021.119563
Article source: Figure 4A
Adsorbate 1-Pentyne: InChIKey IBXNCJKFFQIKKY-UHFFFAOYSA-N
Kind: experiment
Temperature: 298 K
Tabular data in the source: 0
pressure (bar)	uptake (mol/l)
1.01325	0
1.01325	0.001305
1.01325	0.00185
1.01325	0.002181
1.01325	0.002285
1.01325	0.002438
1.01325	0.002634
1.01325	0.00283
1.01325	0.002965
1.01325	0.00321
