Adsorption isotherm of Isoprene on FAU zeolites
DOI: 10.1016/j.seppur.2021.119563
Article source: Figure 4A
Adsorbate Isoprene: InChIKey RRHGJUQNOFWUDK-UHFFFAOYSA-N
Kind: experiment
Temperature: 298 K
Tabular data in the source: 0
pressure (bar)	uptake (mol/l)
1.01325	0
1.01325	0.000251
1.01325	0.000502
1.01325	0.000631
1.01325	0.000827
1.01325	0.001017
1.01325	0.001176
1.01325	0.00128
1.01325	0.001611
