Adsorption isotherm of Nitrogen on FAU zeolites
DOI: 10.1016/j.seppur.2021.119563
Article source: Figure 2A
Adsorbate Nitrogen: InChIKey IJGRMHOSHXDMSA-UHFFFAOYSA-N
Kind: experiment
Temperature: 77 K
Tabular data in the source: 0
pressure (bar)	uptake (cm3(STP)/g)
0	0
0	76.4294
0	83.4306
0	86.056
0	92.182
0	95.0992
0.002673	100.35
0.00802	103.851
0.050796	110.852
0.097582	113.769
0.152389	114.936
0.203185	116.686
0.255318	117.853
0.304777	119.02
0.355573	120.187
0.406369	121.354
0.457166	122.52
0.457166	122.52
0.507962	123.687
0.558758	124.854
0.608217	126.021
0.657677	127.771
0.708473	129.522
0.759269	131.272
0.807392	133.606
0.858188	137.106
0.912994	141.774
0.962454	151.109
1.00657	221.12
0.965127	158.693
0.914331	147.316
0.862198	141.19
0.807392	137.69
0.759269	135.356
0.708473	133.022
0.65634	131.272
0.605544	129.813
0.554748	128.355
0.503952	126.896
0.455829	123.687
0.402359	121.937
0.351563	120.77
0.29943	119.603
0.256654	118.436
0.199174	116.978
0.148378	115.811
0.097582	113.769
0.049459	111.435
0.009357	105.018
0.00401	102.392
0.001337	96.266
0	94.224
0	89.2649
0	85.1809
0	83.7223
0	76.7211
