Adsorption isotherm of 1-Hexyne on FAU zeolites
DOI: 10.1016/j.seppur.2021.119563
Article source: Figure 7G
Adsorbate 1-Hexyne: InChIKey CGHIBGNXEGJPQZ-UHFFFAOYSA-N
Kind: experiment
Temperature: 298 K
Tabular data in the source: 0
pressure (bar)	uptake (mol/g)
1.01325	0
1.01325	0.001651
1.01325	0.002015
1.01325	0.002205
1.01325	0.002338
1.01325	0.002405
1.01325	0.002503
1.01325	0.002544
1.01325	0.002579
1.01325	0.002677
