Adsorption isotherm of Hex-1-ene on FAU zeolites
DOI: 10.1016/j.seppur.2021.119563
Article source: Figure 7G
Adsorbate Hex-1-ene: InChIKey LIKMAJRDDDTEIG-UHFFFAOYSA-N
Kind: experiment
Temperature: 298 K
Tabular data in the source: 0
pressure (bar)	uptake (mol/g)
1.01325	0
1.01325	0.000226
1.01325	0.000318
1.01325	0.000359
1.01325	0.000395
1.01325	0.000492
1.01325	0.000559
1.01325	0.000692
1.01325	0.000867
