Adsorption isotherm of 1-Pentene on FAU zeolites
DOI: 10.1016/j.seppur.2021.119563
Article source: Figure 7F
Adsorbate 1-Pentene: InChIKey YWAKXRMUMFPDSH-UHFFFAOYSA-N
Kind: experiment
Temperature: 298 K
Tabular data in the source: 0
pressure (bar)	uptake (mol/g)
1.01325	0
1.01325	0.000133
1.01325	0.000259
1.01325	0.000364
1.01325	0.000477
1.01325	0.000561
1.01325	0.000638
1.01325	0.00068
1.01325	0.000834
