Adsorption isotherm of 1-Hexyne, Hex-1-ene on FAU zeolites
DOI: 10.1016/j.seppur.2021.119563
Article source: Figure 7E
Adsorbate 1-Hexyne: InChIKey CGHIBGNXEGJPQZ-UHFFFAOYSA-N
Adsorbate Hex-1-ene: InChIKey LIKMAJRDDDTEIG-UHFFFAOYSA-N
Kind: experiment
Temperature: 298 K
Tabular data in the source: 0
pressure (bar)	1-Hexyne fraction	1-Hexyne uptake (mg/g)	Hex-1-ene fraction	Hex-1-ene uptake (mg/g)	total uptake (mg/g)
1.01325	0.091054	151.537	0.908946	84.5112	
1.01325	0.197284	177.105	0.802716	58.3039	
1.01325	0.34345	188.641	0.65655	47.7032	
1.01325	0.439297	191.136	0.560703	45.053	
1.01325	0.552716	196.437	0.447284	40.0471	
1.01325	0.625399	202.049	0.374601	33.5689	
1.01325	0.729233	210.78	0.270767	25.6184	
1.01325	0.806709	217.016	0.193291	18.8457	
1.01325	0.932907	226.993	0.067093	9.42285	
