Adsorption isotherm of 1-Pentyne, Isoprene on FAU zeolites
DOI: 10.1016/j.seppur.2021.119563
Article source: Figure 3C
Adsorbate 1-Pentyne: InChIKey IBXNCJKFFQIKKY-UHFFFAOYSA-N
Adsorbate Isoprene: InChIKey RRHGJUQNOFWUDK-UHFFFAOYSA-N
Kind: experiment
Temperature: 298 K
Tabular data in the source: 0
pressure (bar)	1-Pentyne fraction	1-Pentyne uptake (mg/g)	Isoprene fraction	Isoprene uptake (mg/g)	total uptake (mg/g)
1.01325	0.053824	89.3385	0.946176	146.344	
1.01325	0.181303	126.381	0.818697	110.135	
1.01325	0.273371	149.261	0.726629	87.5048	
1.01325	0.390935	156.342	0.609065	80.4642	
1.01325	0.487252	166.693	0.512748	69.4004	
1.01325	0.584986	179.767	0.415014	56.325	
1.01325	0.694051	192.84	0.305949	42.7466	
1.01325	0.791785	202.646	0.208215	34.1973	
1.01325	0.90085	218.988	0.09915	17.0986	
