Adsorption isotherm of Nitrogen on COF-LZU8
DOI: 10.1021/jacs.5b10754
Article source: Figure 3
Adsorbate Nitrogen: InChIKey IJGRMHOSHXDMSA-UHFFFAOYSA-N
Kind: experiment
Temperature: 77 K
Tabular data in the source: 0
pressure (bar)	uptake (cm3(STP)/g)
0.009857	32.0069
0.011828	40.5976
0.011828	47.6289
0.013799	58.5634
0.017742	65.5885
0.019713	73.398
0.023656	89.7981
0.037455	98.3706
0.049283	101.477
0.06111	103.803
0.067024	105.356
0.086737	109.232
0.104479	113.111
0.124192	114.643
0.145876	117.735
0.165589	118.486
0.183331	120.021
0.206987	120.765
0.254298	123.036
0.303581	124.523
0.356806	125.222
0.406089	125.927
0.457342	127.411
0.508596	126.55
0.55985	127.253
0.611104	127.955
0.658415	129.054
0.709669	128.584
0.762894	130.064
0.989594	196.121
0.987623	180.499
0.961996	157.101
0.936369	147.766
0.912714	142.333
0.885115	138.47
0.86146	136.162
0.827947	133.87
0.810206	133.116
1.00734	279.688
1.00044	231.261
0.014493	43.5212
0.01091	59.9946
0.011048	67.0533
0.013153	74.8948
0.013276	81.1692
0.013413	88.2279
0.019469	98.4193
0.033441	114.095
0.041358	119.579
0.060972	124.27
0.068873	128.969
0.090395	131.306
0.109994	135.212
0.154927	136.746
0.17053	135.949
0.19202	136.717
0.205748	139.844
0.229144	138.257
0.240873	139.032
0.260381	138.233
0.320932	139.755
0.365819	138.936
0.414688	142.035
0.463464	140.429
0.496653	140.403
0.57084	140.345
0.59625	141.894
0.66458	141.842
0.723179	143.365
0.77586	141.755
0.795383	141.74
0.855965	144.831
0.82665	143.285
0.871629	147.171
0.902912	149.5
0.92062	156.545
0.94809	163.583
0.983843	194.928
1.00023	234.131
1.0148	280.394
