Adsorption isotherm of Carbon Dioxide on [Co2(4-Ptz)2(2-NH2-BDC)(DMA)]n
DOI: 10.1016/j.jssc.2015.09.005
Article source: Figure S6
Adsorbate Carbon Dioxide: InChIKey CURLTUGMZLYLDI-UHFFFAOYSA-N
Kind: experiment
Temperature: 195 K
Tabular data in the source: 0
pressure (bar)	uptake (cm3(STP)/g)
0.017479	3.09006
0.032773	5.79386
0.037143	6.56638
0.041513	7.53182
0.048067	8.49766
0.061176	9.85058
0.072101	11.5889
0.096134	13.7156
0.117983	15.6489
0.137647	17.5818
0.16168	19.9014
0.187899	22.2214
0.218487	24.7351
0.26	27.6367
0.299328	30.7308
0.349579	33.8269
0.408571	37.3105
0.478487	41.182
0.559328	45.2485
0.651092	49.5098
0.762521	53.9678
0.887059	58.6211
1.03781	63.6652
