Adsorption isotherm of Carbon Dioxide on [Co2(4-Ptz)2(BDC)(DMA)]n
DOI: 10.1016/j.jssc.2015.09.005
Article source: Figure 4
Adsorbate Carbon Dioxide: InChIKey CURLTUGMZLYLDI-UHFFFAOYSA-N
Kind: experiment
Temperature: 273 K
Tabular data in the source: 0
pressure (bar)	uptake (cm3(STP)/g)
0.007246	4.23792
0.016562	4.90706
0.019667	5.35316
0.028983	5.79926
0.041404	6.4684
0.053826	7.13755
0.072458	7.91822
0.081774	8.47584
0.097301	9.25651
0.119038	9.92565
0.131459	10.5948
0.159407	11.71
0.19046	12.8253
0.23083	13.829
0.271199	14.9442
0.320884	16.0595
0.382991	17.2862
0.451308	18.4015
0.532047	19.4052
0.625207	20.855
0.740104	22.1933
0.867423	23.5316
1.01648	24.9814
1.19038	26.4312
