Adsorption isotherm of Carbon Dioxide on [Co2(4-Ptz)2(2-NH2-BDC)(DMA)]n
DOI: 10.1016/j.jssc.2015.09.005
Article source: Figure 4
Adsorbate Carbon Dioxide: InChIKey CURLTUGMZLYLDI-UHFFFAOYSA-N
Kind: experiment
Temperature: 273 K
Tabular data in the source: 0
pressure (bar)	uptake (cm3(STP)/g)
0.007246	3.56877
0.013456	4.12639
0.022772	4.79554
0.038299	5.79926
0.047615	6.13383
0.060037	6.69145
0.069352	7.47212
0.087984	8.25279
0.109722	9.14498
0.134565	10.2602
0.162512	11.1524
0.196672	12.2677
0.23083	13.6059
0.271199	14.8327
0.323989	16.3941
0.382991	18.0669
0.454415	19.8513
0.535153	21.7472
0.628312	23.8662
0.740104	25.9851
0.867423	28.3271
1.01648	30.8922
1.19038	33.7918
