Adsorption isotherm of Oxygen on Al-soc-MOF-2
DOI: 10.1021/jacs.5b07053
Article source: Figure S42
Adsorbate Oxygen: InChIKey MYMOFIZGZYHOMD-UHFFFAOYSA-N
Kind: experiment
Temperature: 298 K
Tabular data in the source: 0
pressure (bar)	uptake (mmol/g)
0.237543	0.025241
1.58489	0.407998
2.06038	0.535535
3.96289	1.14842
6.02381	1.78669
7.92579	2.29684
9.9863	2.85806
11.9678	3.44511
14.0282	3.98064
16.0096	4.54201
18.0697	5.02618
19.9717	5.53632
22.983	6.32693
24.9641	6.83693
30.0352	8.03465
35.0273	9.2582
39.9398	10.4048
45.0106	11.5512
49.9227	12.6208
54.9928	13.6387
