Adsorption isotherm of Carbon Dioxide on Al-soc-MOF-1
DOI: 10.1021/jacs.5b07053
Article source: Figure S43
Adsorbate Carbon Dioxide: InChIKey CURLTUGMZLYLDI-UHFFFAOYSA-N
Kind: experiment
Temperature: 298 K
Tabular data in the source: 0
pressure (bar)	uptake (mmol/g)
0.21645	0.27152
0.613276	0.882685
1.08225	1.22154
1.51515	1.5605
2.0202	2.10335
2.99423	3.39321
3.96825	4.61505
6.02453	7.39857
7.97258	10.2504
9.99278	13.6463
12.013	17.1102
13.9971	21.1864
15.9812	25.1266
18.0375	28.9985
19.9856	32.0545
22.5108	35.449
24.9639	37.8232
