Adsorption isotherm of Hydrogen on Al-soc-MOF-1
DOI: 10.1021/jacs.5b07053
Article source: Figure S40
Adsorbate Hydrogen: InChIKey UFHFLCQGNIYNRP-UHFFFAOYSA-N
Kind: experiment
Isotherm type: excess
Temperature: 77 K
Tabular data in the source: 0
pressure (bar)	uptake (wt%)
0.172605	0.368408
0.457174	0.759776
0.683029	0.943888
0.965347	1.17403
1.98459	2.20983
4.01696	3.84381
6.04162	4.92501
8.06177	5.68375
12.095	6.69454
16.0663	7.26774
20.0373	7.81791
30.0347	8.20288
