Adsorption isotherm of Carbon Dioxide on Al-soc-MOF-1
DOI: 10.1021/jacs.5b07053
Article source: Figure S29b
Adsorbate Carbon Dioxide: InChIKey CURLTUGMZLYLDI-UHFFFAOYSA-N
Kind: experiment
Temperature: 90 K
Tabular data in the source: 0
pressure (bar)	uptake (cm3(STP)/g)
0.010691	7.38876
0.023521	22.1345
0.034212	29.5233
0.049179	36.9279
0.074838	62.745
0.087667	70.1417
0.098359	77.5304
0.143261	118.117
0.171058	154.966
0.186026	191.767
0.190303	210.155
0.196717	228.552
0.209546	294.741
0.222376	349.907
0.230928	390.358
0.235205	419.771
0.243758	449.199
0.263002	515.412
0.267278	504.404
0.275832	585.276
0.27797	633.053
0.280108	622.037
0.282246	658.79
0.284384	769.035
0.286523	684.528
0.288661	916.032
0.292937	769.066
0.297214	1066.72
0.299352	853.605
0.303628	1011.63
0.305766	1081.45
0.31432	1077.81
0.339979	1096.28
0.344255	1110.99
0.35067	1096.31
0.352807	1111.02
0.391296	1133.21
0.401988	1136.93
0.442613	1133.4
0.44689	1155.46
0.491792	1148.28
0.493931	1170.34
0.540972	1163.16
0.54311	1181.54
0.592289	1196.42
0.594428	1170.71
0.63933	1200.27
0.643607	1185.59
0.690648	1211.49
0.692786	1193.12
0.737689	1215.34
0.744104	1204.34
0.786868	1222.87
0.793283	1208.19
0.83391	1230.39
0.844601	1219.41
0.883089	1230.57
0.891642	1230.61
0.938682	1234.46
