Adsorption isotherm of Hydrogen on Al-soc-MOF-1
DOI: 10.1021/jacs.5b07053
Article source: Figure S32a
Adsorbate Hydrogen: InChIKey UFHFLCQGNIYNRP-UHFFFAOYSA-N
Kind: experiment
Temperature: 77 K
Tabular data in the source: 0
pressure (bar)	uptake (wt%)
0.004253	0.00863
0.012765	0.030189
0.019163	0.056028
0.027663	0.068991
0.034055	0.090532
0.042567	0.112091
0.053194	0.129369
0.061712	0.155225
0.072345	0.176801
0.082977	0.198376
0.095737	0.224267
0.112749	0.258788
0.195672	0.418482
0.204178	0.435743
0.29769	0.586926
0.306196	0.604187
0.397583	0.751055
0.406083	0.764018
0.499572	0.898009
0.510205	0.919585
0.599428	1.03635
0.612175	1.05364
0.701398	1.17041
0.712024	1.18769
0.803357	1.29587
0.816104	1.31317
0.905315	1.42134
0.915935	1.43432
0.973279	1.49925
