Adsorption isotherm of Hydrogen sulfide on Al-soc-MOF-1
DOI: 10.1021/jacs.5b07053
Article source: Figure S28b
Adsorbate Hydrogen sulfide: InChIKey RWSOTUBLDIXVET-UHFFFAOYSA-N
Kind: experiment
Temperature: 298 K
Tabular data in the source: 0
pressure (bar)	uptake (cm3(STP)/g)
0.10419	0.254263
0.151944	0.399664
0.160626	0.399585
0.208381	0.544985
0.256134	0.653927
0.303888	0.799327
0.351641	1.09056
0.355983	0.962917
0.408078	1.14474
0.507927	1.45373
0.555681	1.69027
0.607776	1.76272
0.707625	2.03525
0.746695	2.34479
0.807473	2.30778
0.907322	2.58031
0.955076	2.92623
1.01151	2.85281
1.11136	3.21648
1.15911	3.47126
1.21121	3.58016
1.3154	3.88911
1.35881	4.16216
1.40657	4.14349
1.51944	4.39768
1.55851	4.70722
1.61061	4.65206
1.71479	4.99747
1.74519	5.14303
1.81899	5.41579
1.91449	5.7066
2.01	5.96094
