Adsorption isotherm of Oxygen on Al-soc-MOF-1
DOI: 10.1021/jacs.5b07053
Article source: Figure S42
Adsorbate Oxygen: InChIKey MYMOFIZGZYHOMD-UHFFFAOYSA-N
Kind: experiment
Temperature: 298 K
Tabular data in the source: 0
pressure (bar)	uptake (mmol/g)
0.317899	0.256255
0.713985	0.33257
1.18961	0.485792
2.0616	0.766697
3.96357	1.27684
5.94522	1.88958
8.0056	2.42511
9.98684	2.9608
11.9684	3.54785
13.9497	4.10922
16.0103	4.67044
17.9122	5.18058
20.0519	5.74165
22.9838	6.48104
24.8862	7.06824
29.878	8.24042
35.029	9.5921
39.9415	10.7387
44.7755	11.9883
50.0044	13.1086
53.5703	14.001
