Adsorption isotherm of Methane on Al-soc-MOF-1
DOI: 10.1021/jacs.5b07053
Article source: Figure 3
Adsorbate Methane: InChIKey VNWKTOKETHGBQD-UHFFFAOYSA-N
Kind: experiment
Temperature: 273 K
Tabular data in the source: 0
pressure (bar)	uptake (cm3(STP)/g)
1.82278	30.833
3.03797	47.6587
4.86076	81.2888
8.10127	134.549
10.3291	162.599
12.1519	193.432
16	252.308
20.0506	305.596
24.9114	367.305
30.1772	423.433
35.038	476.75
40.1013	516.087
41.9241	538.529
44.962	561.013
50.0253	600.351
55.0886	631.297
60.1519	665.04
65.0127	690.385
70.0759	718.534
75.1392	738.292
80	760.839
85.0633	780.597
