Adsorption isotherm of Nitrogen on Al-soc-MOF-3
DOI: 10.1021/jacs.5b07053
Article source: Figure S36a
Adsorbate Nitrogen: InChIKey IJGRMHOSHXDMSA-UHFFFAOYSA-N
Kind: experiment
Temperature: 77 K
Tabular data in the source: 0
pressure (bar)	uptake (cm3(STP)/g)
0	-0.002268
0	200.597
0.002268	322.388
0.006803	497.91
0.00907	562.388
0.011338	594.627
0.013605	662.687
0.015873	687.761
0.018141	770.149
0.020408	813.134
0.024943	834.627
0.027211	863.284
0.029479	888.358
0.031746	917.015
0.034014	938.507
0.036281	960
0.038549	981.493
0.040816	999.403
0.045352	1013.73
0.047619	1028.06
0.058957	1042.39
0.070295	1056.72
0.07483	1060.3
0.09297	1074.63
0.099773	1078.21
0.151927	1103.28
0.199546	1110.45
0.247166	1121.19
0.294785	1131.94
0.346939	1142.69
0.371882	1146.27
0.39229	1142.69
0.399093	1146.27
0.451247	1153.43
0.47619	1153.43
0.501134	1153.43
0.55102	1160.6
0.591837	1160.6
0.598639	1160.6
0.650794	1164.18
0.70068	1167.76
0.714286	1167.76
0.750567	1171.34
0.78458	1171.34
0.800454	1171.34
0.825397	1171.34
0.85034	1174.93
0.863946	1174.93
0.879819	1178.51
0.902494	1174.93
0.92517	1178.51
0.950113	1178.51
0.975057	1182.09
0.995465	1182.09
