Adsorption isotherm of Oxygen on Al-soc-MOF-1
DOI: 10.1021/jacs.5b07053
Article source: Figure S33a
Adsorbate Oxygen: InChIKey MYMOFIZGZYHOMD-UHFFFAOYSA-N
Kind: experiment
Temperature: 288 K
Tabular data in the source: 0
pressure (bar)	uptake (cm3(STP)/g)
8.5e-05	0.330852
0.000105	0.407198
0.000127	0.534641
0.00015	0.636508
0.000215	0.993316
0.000252	1.12049
0.000283	1.27334
0.000348	1.52785
0.000385	1.65502
0.000416	1.7823
0.000484	2.11348
0.000518	2.26628
0.000549	2.36798
0.000617	2.75031
0.000651	2.92869
0.000682	3.10712
0.00075	3.4383
0.000787	3.53989
0.000818	3.6416
0.000883	3.92168
0.00092	4.07442
0.000951	4.2017
0.001019	4.43058
0.001053	4.58338
0.001084	4.68509
0.001149	4.93959
0.001217	5.16847
0.001262	5.3722
0.001282	5.44855
0.001333	5.65217
