Adsorption isotherm of Oxygen on Al-soc-MOF-1
DOI: 10.1021/jacs.5b07053
Article source: Figure S33a
Adsorbate Oxygen: InChIKey MYMOFIZGZYHOMD-UHFFFAOYSA-N
Kind: experiment
Temperature: 273 K
Tabular data in the source: 0
pressure (bar)	uptake (cm3(STP)/g)
1.4e-05	0.05075
3.1e-05	0.126957
4.8e-05	0.203163
5.9e-05	0.279477
7.3e-05	0.406758
8.8e-05	0.483018
0.000105	0.533715
0.000124	0.635377
0.000147	0.788006
0.000217	1.16931
0.000251	1.32172
0.000282	1.47419
0.00035	1.77901
0.000384	1.93143
0.000415	2.08389
0.000483	2.46525
0.000517	2.66868
0.000548	2.82115
0.000616	3.15148
0.000652	3.38037
0.000684	3.55835
0.000749	3.99078
0.000782	4.11768
0.000816	4.24458
0.000881	4.52395
0.000918	4.70182
0.000949	4.85429
0.001017	5.18462
0.001051	5.36255
0.001085	5.48945
0.001147	5.79438
0.001192	5.9976
0.001215	6.15023
0.001263	6.35339
0.001282	6.45505
0.001333	6.68367
