Adsorption isotherm of Oxygen on Al-soc-MOF-1
DOI: 10.1021/jacs.5b07053
Article source: Figure 9b
Adsorbate Oxygen: InChIKey MYMOFIZGZYHOMD-UHFFFAOYSA-N
Kind: experiment
Temperature: 298 K
Tabular data in the source: 0
pressure (bar)	uptake (cm3(STP)/cm3)
0.502529	0.013095
1.25878	1.9872
2.26711	4.61934
4.03251	9.87707
4.78794	11.1997
5.79545	13.1803
7.8113	17.7931
9.82714	22.4059
11.5909	26.3607
13.6051	29.6705
15.873	34.9413
17.8881	38.9026
19.9039	43.5154
21.9181	46.8252
24.6894	52.7606
26.7044	56.7219
29.9782	62.6704
34.7637	71.9157
39.8013	81.8189
45.0885	90.4258
49.8731	99.0195
54.9091	107.62
59.9442	115.569
64.9785	122.866
70.0152	132.118
74.7974	138.757
80.083	146.061
85.1173	153.358
89.9003	160.649
94.933	166.643
99.9681	174.592
