Adsorption isotherm of Methane on Al-soc-MOF-1
DOI: 10.1021/jacs.5b07053
Article source: Figure S41
Adsorbate Methane: InChIKey VNWKTOKETHGBQD-UHFFFAOYSA-N
Kind: experiment
Temperature: 298 K
Tabular data in the source: 0
pressure (bar)	uptake (mmol/g)
0.345564	0.213548
0.864279	0.64089
2.93692	1.70814
5.00972	2.81819
8.03167	4.18374
9.9322	5.33685
12.0044	6.27568
16.0625	8.11064
19.9485	10.0743
24.9554	12.0791
29.9629	14.2552
34.9693	16.0888
40.0615	17.8367
42.0465	18.476
44.9807	19.4136
50.0722	20.9474
54.9909	22.353
59.9951	23.5873
