Adsorption isotherm of Carbon Dioxide on Al-soc-MOF-1
DOI: 10.1021/jacs.5b07053
Article source: Figure S31a
Adsorbate Carbon Dioxide: InChIKey CURLTUGMZLYLDI-UHFFFAOYSA-N
Kind: experiment
Temperature: 273 K
Tabular data in the source: 0
pressure (bar)	uptake (mmol/g)
0.008527	0.00517
0.014916	0.015409
0.021304	0.025649
0.027687	0.040977
0.036204	0.056325
0.042587	0.071653
0.051103	0.087002
0.061747	0.107459
0.072396	0.122828
0.083035	0.148375
0.091557	0.158635
0.112845	0.19955
0.161815	0.286531
0.19163	0.332617
0.212922	0.368444
0.264026	0.455446
0.295969	0.506641
0.315129	0.542447
0.366231	0.629449
0.393909	0.680604
0.417335	0.716451
0.466299	0.808521
0.496109	0.859696
0.517397	0.900612
0.566367	0.987593
0.598309	1.03879
0.617469	1.07459
0.668573	1.1616
0.698377	1.21786
0.717532	1.25876
0.768639	1.34067
0.800571	1.40204
0.819738	1.43276
0.868702	1.52483
0.9049	1.58624
0.919811	1.60674
0.958131	1.67835
0.970908	1.69883
1.01136	1.77555
