Adsorption isotherm of Methane on Al-soc-MOF-1
DOI: 10.1021/jacs.5b07053
Article source: Figure S30a
Adsorbate Methane: InChIKey VNWKTOKETHGBQD-UHFFFAOYSA-N
Kind: experiment
Temperature: 298 K
Tabular data in the source: 0
pressure (bar)	uptake (mmol/g)
0.011064	0.002734
0.026554	0.01076
0.039831	0.01614
0.050895	0.021498
0.064172	0.024254
0.07081	0.029568
0.079661	0.034905
0.090726	0.035014
0.092938	0.03766
0.112854	0.043106
0.163749	0.061979
0.190303	0.070115
0.214644	0.078228
0.265538	0.097102
0.292092	0.099988
0.316433	0.105477
0.367328	0.126975
0.393882	0.137735
0.41601	0.143203
0.466904	0.159452
0.495671	0.170233
0.5178	0.18095
0.568695	0.199824
0.595248	0.207959
0.619589	0.213448
0.670485	0.229697
0.697039	0.240457
0.721379	0.248571
0.772274	0.267444
0.798828	0.27558
0.823168	0.283693
0.871851	0.297296
0.90283	0.308099
0.924959	0.313567
0.960364	0.321789
0.975853	0.327191
1.01126	0.340663
