Adsorption isotherm of Methane on Al-soc-MOF-1
DOI: 10.1021/jacs.5b07053
Article source: Figure 7a
Adsorbate Methane: InChIKey VNWKTOKETHGBQD-UHFFFAOYSA-N
Kind: experiment
Temperature: 298 K
Tabular data in the source: 0
pressure (bar)	uptake (cm3(STP)/g)
0.66482	0.747515
1.32964	4.43621
1.99446	8.1249
3.10249	13.2923
5.54017	19.9548
8.19945	33.9743
12.41	50.2281
16.3989	65.0073
20.3878	79.0512
25.4848	96.0567
30.1385	112.319
35.0139	128.585
42.1053	147.098
50.0831	167.097
60.0554	187.869
70.0277	206.434
80	223.529
85.097	230.241
