Adsorption isotherm of Methane on Al-soc-MOF-1
DOI: 10.1021/jacs.5b07053
Article source: Figure S28a
Adsorbate Methane: InChIKey VNWKTOKETHGBQD-UHFFFAOYSA-N
Kind: experiment
Temperature: 112 K
Tabular data in the source: 0
pressure (bar)	uptake (cm3(STP)/g)
1.3e-05	4.01151
5.1e-05	16.046
0.002314	32.1006
0.00239	56.1697
0.002454	76.2272
0.004717	92.2818
0.004768	108.328
0.004819	124.374
0.00707	136.417
0.011622	176.549
0.011723	208.641
0.014025	236.73
0.014126	268.822
0.014215	296.903
0.016491	316.969
0.016593	349.061
0.018869	369.127
0.021158	393.205
0.023421	409.259
0.023497	433.328
0.025761	449.383
0.025824	469.441
0.028139	501.541
0.030453	533.642
0.034955	557.728
0.037294	597.852
0.037396	629.944
0.041923	662.053
0.046437	690.15
0.048751	722.251
0.048815	742.309
0.048903	770.389
0.048979	794.458
0.053595	854.648
0.055986	910.818
0.060576	962.984
0.062928	1007.12
0.069693	1047.26
0.072008	1079.36
0.076522	1107.46
0.080998	1123.52
0.0855	1147.61
0.096627	1167.71
0.103291	1175.76
0.114393	1187.83
0.143223	1208
0.152086	1212.05
0.16095	1216.09
0.203057	1236.31
0.207508	1244.35
0.214146	1244.38
0.245151	1252.52
0.262879	1260.61
0.316024	1272.85
0.36473	1281.06
0.366931	1277.06
0.41565	1289.28
0.422289	1289.31
0.466556	1293.49
0.473208	1297.53
0.519689	1301.72
0.526327	1301.74
0.570596	1305.93
0.57946	1309.97
0.623729	1314.15
0.632592	1318.2
0.674636	1318.36
0.681274	1318.39
0.725542	1322.57
0.736606	1322.61
0.778663	1326.79
0.787513	1326.82
0.82957	1330.99
0.840633	1331.04
0.880476	1335.2
0.893753	1335.25
0.935809	1339.43
0.94466	1339.46
0.995567	1343.67
