Adsorption isotherm of Methane on Al-soc-MOF-1
DOI: 10.1021/jacs.5b07053
Article source: Figure 3
Adsorbate Methane: InChIKey VNWKTOKETHGBQD-UHFFFAOYSA-N
Kind: experiment
Temperature: 298 K
Tabular data in the source: 0
pressure (bar)	uptake (cm3(STP)/g)
8.10127	98.1854
10.1266	123.431
11.9494	145.872
16	187.972
20.0506	227.274
24.9114	277.794
30.1772	322.733
34.8354	364.854
39.8987	404.192
42.1266	421.053
44.962	440.733
50.0253	474.476
55.0886	505.423
59.9494	533.565
65.0127	564.511
70.0759	587.066
74.9367	609.613
80	632.168
85.0633	654.722
