Adsorption isotherm of Methane on Al-soc-MOF-1
DOI: 10.1021/jacs.5b07053
Article source: Figure 3
Adsorbate Methane: InChIKey VNWKTOKETHGBQD-UHFFFAOYSA-N
Kind: experiment
Temperature: 288 K
Tabular data in the source: 0
pressure (bar)	uptake (cm3(STP)/g)
2.02532	25.2456
8.10127	109.374
9.92405	129.018
12.1519	159.865
16	210.35
20.0506	249.652
24.9114	308.563
29.9747	359.09
35.038	404.022
40.1013	443.36
41.9241	463.004
45.1646	482.698
50.0253	516.434
54.8861	547.374
59.9494	583.914
65.0127	609.266
69.8734	634.611
74.9367	657.166
80	679.72
84.8608	699.471
