Adsorption isotherm of Carbon Dioxide on Al-soc-MOF-1
DOI: 10.1021/jacs.5b07053
Article source: Figure S31a
Adsorbate Carbon Dioxide: InChIKey CURLTUGMZLYLDI-UHFFFAOYSA-N
Kind: experiment
Temperature: 298 K
Tabular data in the source: 0
pressure (bar)	uptake (mmol/g)
0.023459	0.005313
0.036252	0.010524
0.044763	0.030961
0.055424	0.036152
0.063945	0.046412
0.0746	0.056691
0.083116	0.07204
0.087377	0.07717
0.095904	0.08234
0.110814	0.102839
0.161967	0.144039
0.191803	0.169769
0.213113	0.190329
0.264265	0.231529
0.291968	0.257239
0.315411	0.277819
0.364419	0.329177
0.392122	0.354887
0.415566	0.375467
0.466712	0.421757
0.494415	0.447466
0.517852	0.473135
0.56686	0.524493
0.596698	0.550223
0.618007	0.570783
0.669148	0.622162
0.696847	0.65296
0.718161	0.668431
0.771441	0.714741
0.797001	0.750608
0.818315	0.766079
0.869456	0.817457
0.903548	0.853406
0.920603	0.863747
0.958956	0.904825
0.971744	0.915126
1.0101	0.956204
