Adsorption isotherm of Methane on Al-soc-MOF-1
DOI: 10.1021/jacs.5b07053
Article source: Figure 3
Adsorbate Methane: InChIKey VNWKTOKETHGBQD-UHFFFAOYSA-N
Kind: experiment
Temperature: 258 K
Tabular data in the source: 0
pressure (bar)	uptake (cm3(STP)/g)
0.202532	5.60149
1.21519	22.4201
1.62025	39.2175
2.83544	61.6376
5.06329	106.471
8.10127	165.318
10.1266	201.753
12.1519	238.187
16.2025	305.462
19.8481	372.722
24.9114	442.829
30.1772	507.349
35.2405	563.47
40.3038	608.402
41.9241	625.242
44.962	650.523
50.0253	695.455
55.0886	720.807
59.9494	754.544
64.8101	777.091
69.8734	808.038
75.1392	833.396
80	853.147
85.0633	870.107
