Adsorption isotherm of Oxygen on Al-soc-MOF-1
DOI: 10.1021/jacs.5b07053
Article source: Figure S33a
Adsorbate Oxygen: InChIKey MYMOFIZGZYHOMD-UHFFFAOYSA-N
Kind: experiment
Temperature: 258 K
Tabular data in the source: 0
pressure (bar)	uptake (cm3(STP)/g)
1.4e-05	0.178301
2.5e-05	0.229105
3.1e-05	0.254508
4e-05	0.305366
4.2e-05	0.305312
5.1e-05	0.35617
5.9e-05	0.407028
6.5e-05	0.40692
7.1e-05	0.457832
7.9e-05	0.508691
8.5e-05	0.559603
9.3e-05	0.584951
9.9e-05	0.635863
0.000105	0.635755
0.000116	0.76309
0.000124	0.762928
0.00015	0.941013
0.000215	1.34793
0.000251	1.50029
0.000282	1.67827
0.00035	2.11065
0.000384	2.28857
0.000415	2.44103
0.000483	2.8479
0.00052	3.07679
0.000548	3.28033
0.000616	3.6872
0.000652	3.96711
0.000681	4.17065
0.000749	4.552
0.000785	4.75538
0.000816	4.90785
0.000881	5.31477
0.000918	5.54366
0.000949	5.74715
0.001014	6.10305
0.001051	6.28091
0.001082	6.45889
0.001147	6.8403
0.001192	7.06903
0.001215	7.19615
0.001263	7.47584
0.001282	7.5775
0.00133	7.90822
