Adsorption isotherm of Carbon Dioxide on Al-soc-MOF-2
DOI: 10.1021/jacs.5b07053
Article source: Figure S43
Adsorbate Carbon Dioxide: InChIKey CURLTUGMZLYLDI-UHFFFAOYSA-N
Kind: experiment
Temperature: 298 K
Tabular data in the source: 0
pressure (bar)	uptake (mmol/g)
0.4329	0.475013
0.685426	0.814461
1.08225	1.28957
1.47908	1.69666
1.98413	2.30753
3.0303	3.80128
4.00433	5.09114
6.02453	8.07884
8.00866	11.2027
9.99278	14.5987
12.013	18.0625
13.9971	21.5946
16.0173	25.0585
18.0375	28.3183
20.0216	31.034
22.5108	33.6802
25	35.7143
