Adsorption isotherm of Oxygen on Al-soc-MOF-1
DOI: 10.1021/jacs.5b07053
Article source: Figure S33a
Adsorbate Oxygen: InChIKey MYMOFIZGZYHOMD-UHFFFAOYSA-N
Kind: experiment
Temperature: 288 K
Tabular data in the source: 0
pressure (bar)	uptake (cm3(STP)/g)
4.5e-05	0.050282
5.9e-05	0.101161
7.4e-05	0.126465
9.1e-05	0.177291
0.000105	0.22817
0.000119	0.279049
0.000125	0.304516
0.00015	0.380754
0.000215	0.584108
0.000252	0.685704
0.000283	0.761833
0.000351	0.939558
0.000385	1.01563
0.000416	1.06619
0.000484	1.34621
0.000518	1.44786
0.000549	1.52399
0.000617	1.77844
0.000651	1.90567
0.000682	2.03295
0.00075	2.2874
0.000784	2.3379
0.000818	2.3884
0.000883	2.5406
0.00092	2.66777
0.000951	2.76948
0.001016	2.92168
0.001053	3.04885
0.001084	3.15056
0.001149	3.30276
0.001189	3.4043
0.001217	3.48049
0.001265	3.60744
0.001285	3.63264
0.001333	3.73402
