Adsorption isotherm of Nitrogen on Al-soc-MOF-2
DOI: 10.1021/jacs.5b07053
Article source: Figure S34a
Adsorbate Nitrogen: InChIKey IJGRMHOSHXDMSA-UHFFFAOYSA-N
Kind: experiment
Temperature: 77 K
Tabular data in the source: 0
pressure (bar)	uptake (cm3(STP)/g)
0	28.9086
0	61.9469
0	90.8555
0	140.413
0	177.581
0.001675	363.422
0.001742	322.124
0.001795	289.086
0.001855	251.917
0.001915	214.749
0.003751	479.056
0.003837	425.369
0.003884	396.46
0.005926	532.743
0.005966	507.965
0.007955	677.286
0.008022	635.988
0.008075	602.95
0.008102	586.431
0.008155	553.392
0.010184	697.935
0.010251	656.637
0.012367	747.493
0.012393	730.973
0.012427	710.324
0.014549	797.05
0.014569	784.661
0.014596	768.142
0.019001	842.478
0.023445	892.035
0.027897	937.463
0.032342	987.021
0.034531	1032.45
0.041218	1094.4
0.041271	1061.36
0.045689	1127.43
0.050174	1152.21
0.054666	1172.86
0.061406	1201.77
0.070429	1218.29
0.072678	1226.55
0.083971	1238.94
0.090751	1243.07
0.097525	1251.33
0.102044	1255.46
0.115598	1267.85
0.133691	1271.98
0.144997	1276.11
0.165345	1284.37
0.192475	1296.76
0.201518	1300.88
0.210567	1300.88
0.242228	1309.14
0.25354	1309.14
0.264846	1313.27
0.296507	1321.53
0.301032	1321.53
0.344005	1329.79
0.34853	1329.79
0.393772	1333.92
0.398297	1333.92
0.448057	1342.18
0.497824	1346.31
0.545329	1350.44
0.597358	1354.57
0.644863	1358.7
0.647126	1358.7
0.694637	1358.7
0.699162	1358.7
0.746666	1362.83
0.751191	1362.83
0.794178	1362.83
0.798703	1362.83
0.846201	1371.09
0.84847	1366.96
0.893712	1371.09
0.900499	1371.09
0.950273	1371.09
