Adsorption isotherm of Oxygen on Al-soc-MOF-3
DOI: 10.1021/jacs.5b07053
Article source: Figure S42
Adsorbate Oxygen: InChIKey MYMOFIZGZYHOMD-UHFFFAOYSA-N
Kind: experiment
Temperature: 298 K
Tabular data in the source: 0
pressure (bar)	uptake (mmol/g)
0.4759	0.20459
1.03066	0.357664
1.50629	0.510885
1.98179	0.638421
3.9633	1.22547
6.02381	1.78669
8.00519	2.34806
9.9863	2.85806
12.0468	3.41928
13.9488	3.92942
16.0092	4.46496
17.9903	4.97496
19.9714	5.48495
22.9826	6.24988
25.0426	6.70836
30.0344	7.88054
35.026	9.02704
40.0173	10.0965
45.0087	11.1916
49.9998	12.2354
54.8318	13.1253
