Adsorption isotherm of Nitrogen on Al-soc-MOF-2
DOI: 10.1021/jacs.5b07053
Article source: Figure 2c
Adsorbate Nitrogen: InChIKey IJGRMHOSHXDMSA-UHFFFAOYSA-N
Kind: experiment
Temperature: 77 K
Tabular data in the source: 0
pressure (bar)	uptake (cm3(STP)/g)
0	0
0.002717	581.326
0.005435	650.422
0.008152	696.497
0.013587	748.358
0.021739	777.229
0.024456	892.368
0.032609	996.059
0.038044	1047.92
0.043478	1082.51
0.046196	1105.57
0.048913	1122.87
0.054348	1134.44
0.057065	1163.25
0.059783	1180.54
0.065217	1203.63
0.07337	1220.99
0.081522	1226.84
0.095109	1244.26
0.105978	1255.9
0.122283	1261.84
0.138587	1267.78
0.146739	1273.63
0.168478	1291.15
0.192935	1291.43
0.206522	1291.59
0.211957	1297.4
0.244565	1297.78
0.247283	1309.32
0.269022	1315.33
0.296196	1315.64
0.304348	1321.49
0.350543	1327.78
0.361413	1327.9
0.399457	1334.09
0.407609	1334.19
0.451087	1340.44
0.497283	1340.98
0.5	1346.76
0.55163	1347.36
0.603261	1359.46
0.652174	1354.27
0.69837	1360.56
0.706522	1360.65
0.747283	1361.12
0.755435	1361.21
0.793478	1367.41
0.804348	1367.53
0.850543	1373.82
0.855978	1368.13
0.899457	1374.38
0.907609	1380.23
0.959239	1369.31
