Adsorption isotherm of Nitrogen on Al-soc-MOF-3
DOI: 10.1021/jacs.5b07053
Article source: Figure 2c
Adsorbate Nitrogen: InChIKey IJGRMHOSHXDMSA-UHFFFAOYSA-N
Kind: experiment
Temperature: 77 K
Tabular data in the source: 0
pressure (bar)	uptake (cm3(STP)/g)
0	0
0.002717	201.47
0.005435	385.674
0.008152	564.123
0.013587	639.005
0.016304	690.835
0.019022	742.665
0.024456	794.526
0.027174	846.356
0.029891	921.207
0.032609	955.771
0.043478	1001.94
0.054348	1030.84
0.065217	1048.23
0.078804	1059.9
0.097826	1083.14
0.154891	1101.06
0.203804	1113.14
0.247283	1125.15
0.298913	1131.5
0.347826	1143.57
0.377717	1149.67
0.394022	1149.86
0.399457	1149.92
0.451087	1156.27
0.480978	1162.37
0.5	1162.59
0.55163	1163.18
0.600543	1169.5
0.652174	1170.1
0.701087	1170.66
0.752717	1177.01
0.80163	1177.57
0.853261	1183.92
0.899457	1184.45
0.951087	1190.8
