Adsorption isotherm of Nitrogen on Al-soc-MOF-1
DOI: 10.1021/jacs.5b07053
Article source: Figure 2c
Adsorbate Nitrogen: InChIKey IJGRMHOSHXDMSA-UHFFFAOYSA-N
Kind: experiment
Temperature: 77 K
Tabular data in the source: 0
pressure (bar)	uptake (cm3(STP)/g)
0.032609	1024.84
0.038044	1076.7
0.040761	1122.77
0.043478	1163.09
0.057065	1232.31
0.065217	1278.45
0.07337	1307.32
0.081522	1318.92
0.095109	1336.35
0.100543	1347.92
0.105978	1347.98
0.138587	1371.38
0.154891	1383.08
0.19837	1400.84
0.203804	1406.66
0.23913	1412.82
0.252717	1418.74
0.298913	1425.02
0.353261	1437.16
0.399457	1443.45
0.404891	1443.51
0.44837	1455.52
0.453804	1455.58
0.497283	1461.84
0.502717	1461.9
0.55163	1468.22
0.554348	1468.25
0.597826	1468.75
0.605978	1468.85
0.646739	1469.31
0.657609	1475.2
0.692935	1481.36
0.709239	1481.55
0.744565	1476.2
0.755435	1482.08
0.80163	1482.61
0.807065	1488.43
0.845109	1488.86
0.855978	1488.99
0.896739	1489.46
0.904891	1489.55
0.956522	1501.66
