Adsorption isotherm of Nitrogen on Al-soc-MOF-1
DOI: 10.1021/jacs.5b07053
Article source: Figure S27a
Adsorbate Nitrogen: InChIKey IJGRMHOSHXDMSA-UHFFFAOYSA-N
Kind: experiment
Temperature: 77 K
Tabular data in the source: 0
pressure (bar)	uptake (cm3(STP)/g)
0.002232	0.002232
0.004464	404.348
0.006696	300
0.008929	508.696
0.011161	543.478
0.013393	617.391
0.017857	778.261
0.022321	834.783
0.024554	852.174
0.026786	873.913
0.03125	943.478
0.033482	1026.09
0.035714	991.304
0.040179	1100
0.042411	1117.39
0.044643	1130.43
0.046875	1152.17
0.049107	1178.26
0.055804	1230.43
0.064732	1269.57
0.071429	1300
0.080357	1313.04
0.09375	1339.13
0.098214	1339.13
0.107143	1347.83
0.138393	1373.91
0.151786	1378.26
0.196429	1395.65
0.203125	1400
0.236607	1413.04
0.25	1413.04
0.299107	1421.74
0.350446	1434.78
0.399554	1443.48
0.404018	1443.48
0.444196	1447.83
0.457589	1447.83
0.495536	1452.17
0.504464	1452.17
0.542411	1465.22
0.555804	1465.22
0.59375	1460.87
0.602679	1469.57
0.645089	1469.57
0.658482	1469.57
0.698661	1469.57
0.707589	1469.57
0.747768	1478.26
0.758929	1478.26
0.792411	1478.26
0.803571	1478.26
0.845982	1478.26
0.854911	1482.61
0.895089	1482.61
0.904018	1486.96
0.953125	1482.61
