Adsorption isotherm of Carbon Dioxide on Al-soc-MOF-1
DOI: 10.1021/jacs.5b07053
Article source: Figure S31a
Adsorbate Carbon Dioxide: InChIKey CURLTUGMZLYLDI-UHFFFAOYSA-N
Kind: experiment
Temperature: 288 K
Tabular data in the source: 0
pressure (bar)	uptake (mmol/g)
0.012799	0.000122
0.031964	0.030839
0.042619	0.041119
0.059663	0.061638
0.068184	0.071898
0.076701	0.087246
0.085222	0.097505
0.093744	0.107765
0.110782	0.133373
0.159784	0.18982
0.191743	0.225748
0.213048	0.251397
0.26205	0.307844
0.291876	0.343752
0.315313	0.369421
0.364305	0.436046
0.394137	0.466865
0.41544	0.492514
0.464432	0.559139
0.494258	0.595047
0.517695	0.620716
0.566687	0.687342
0.596512	0.72325
0.617817	0.748898
0.668948	0.810455
0.698768	0.851452
0.720077	0.872011
0.769074	0.933548
0.798889	0.979634
0.820205	0.995104
0.87133	1.06175
0.905406	1.11297
0.922459	1.12331
0.958662	1.17963
0.973584	1.18995
1.01193	1.24121
