Adsorption isotherm of Oxygen on Al-soc-MOF-1
DOI: 10.1021/jacs.5b07053
Article source: Figure 9a
Adsorbate Oxygen: InChIKey MYMOFIZGZYHOMD-UHFFFAOYSA-N
Kind: experiment
Temperature: 298 K
Tabular data in the source: 0
pressure (bar)	uptake (mmol/g)
0.374332	0.214067
1.49733	0.642202
3.74332	1.17737
5.24064	1.6055
7.48663	2.24771
11.9786	3.53211
13.8503	4.06728
15.7219	4.60245
17.9679	5.13761
19.8396	5.67278
22.8342	6.52905
25.0802	7.38532
25.4545	6.95719
29.9465	8.02752
34.8128	9.74006
39.6791	10.5963
44.9198	12.0948
53.9037	14.0214
59.893	15.0917
70.7487	16.9113
80.107	18.945
90.2139	20.7645
100.321	22.4771
114.92	25.0459
