Adsorption isotherm of Hydrogen on Al-soc-MOF-1
DOI: 10.1021/jacs.5b07053
Article source: Figure S32a
Adsorbate Hydrogen: InChIKey UFHFLCQGNIYNRP-UHFFFAOYSA-N
Kind: experiment
Temperature: 87 K
Tabular data in the source: 0
pressure (bar)	uptake (wt%)
0.019102	0.013048
0.027602	0.02601
0.038229	0.043288
0.048856	0.060566
0.05947	0.069247
0.06797	0.08221
0.082832	0.095223
0.091326	0.103888
0.093446	0.103905
0.112561	0.125549
0.193247	0.203563
0.208115	0.220875
0.293043	0.298923
0.310031	0.316252
0.394953	0.390003
0.411941	0.407331
0.496862	0.481082
0.513844	0.494113
0.598765	0.567863
0.615748	0.580894
0.700657	0.646048
0.715524	0.66336
0.800434	0.728514
0.81741	0.737247
0.902319	0.802401
0.917181	0.815415
0.97024	0.850226
