Adsorption isotherm of Oxygen on Al-soc-MOF-1
DOI: 10.1021/jacs.5b07053
Article source: Figure S29a
Adsorbate Oxygen: InChIKey MYMOFIZGZYHOMD-UHFFFAOYSA-N
Kind: experiment
Temperature: 90 K
Tabular data in the source: 0
pressure (bar)	uptake (cm3(STP)/g)
0.002136	10.0279
0.004229	55.1532
0.004265	25.0696
0.006347	80.2228
0.008458	110.306
0.012676	175.487
0.0127	155.432
0.014775	215.599
0.018993	280.78
0.019017	260.724
0.02318	371.031
0.023198	355.989
0.023228	330.919
0.029497	476.323
0.029515	461.281
0.029557	426.184
0.029569	416.156
0.029599	391.086
0.03375	511.421
0.033768	496.379
0.035862	541.504
0.035874	531.476
0.037979	566.574
0.037991	556.546
0.040091	596.657
0.04222	611.699
0.044332	641.783
0.046408	701.95
0.046432	681.894
0.046438	676.88
0.046456	661.838
0.048537	716.992
0.052772	767.131
0.057002	822.284
0.059095	867.409
0.06333	917.549
0.065448	942.618
0.067518	1007.8
0.067548	982.73
0.069588	1072.98
0.071621	1168.25
0.071711	1093.04
0.071765	1047.91
0.071783	1032.87
0.073721	1208.36
0.073739	1193.31
0.073799	1143.18
0.073829	1118.11
0.077986	1233.43
0.080074	1283.57
0.082173	1323.68
0.084267	1368.8
0.086391	1388.86
0.088496	1423.96
0.090602	1459.05
0.092708	1494.15
0.094825	1519.22
0.094843	1504.18
0.099096	1539.28
0.103374	1554.32
0.111951	1564.35
0.126954	1589.42
0.141963	1609.47
0.148405	1609.47
0.187031	1634.54
0.195614	1639.55
0.202057	1639.55
0.206352	1639.55
0.221367	1654.6
0.242835	1659.61
0.247125	1664.62
0.249278	1659.61
0.296499	1679.67
0.343733	1689.69
0.393113	1699.72
0.442493	1709.75
0.491881	1714.76
0.496169	1719.78
0.541261	1724.79
0.543409	1724.79
0.588501	1729.81
0.594942	1729.81
0.635745	1729.81
0.64433	1734.82
0.687274	1739.83
0.695863	1739.83
0.738813	1739.83
0.745244	1749.86
0.783906	1744.85
0.792495	1744.85
0.833292	1749.86
0.841882	1749.86
0.88698	1749.86
0.893423	1749.86
0.942809	1754.87
