Adsorption isotherm of Methane on Al-soc-MOF-3
DOI: 10.1021/jacs.5b07053
Article source: Figure S41
Adsorbate Methane: InChIKey VNWKTOKETHGBQD-UHFFFAOYSA-N
Kind: experiment
Temperature: 298 K
Tabular data in the source: 0
pressure (bar)	uptake (mmol/g)
0.259062	0.128055
0.432361	0.384657
0.950781	0.726383
1.55541	1.06799
1.98718	1.28141
2.93752	1.87937
4.92395	2.94674
7.94664	4.52633
9.58678	5.16611
11.9186	6.40423
15.9764	8.15357
18.5661	9.17727
19.9472	9.689
20.6374	9.85925
22.8822	10.8406
25.0399	11.5653
25.8165	11.7782
29.8726	13.0567
30.0465	13.4845
34.9654	14.9758
36.5169	14.888
42.0413	16.9777
46.4389	17.2711
49.9791	18.9355
54.1213	20.1711
57.3124	20.5946
59.6414	21.0193
61.626	21.5302
