Adsorption isotherm of Methane on Al-soc-MOF-3
DOI: 10.1021/jacs.5b07053
Article source: Figure S37a
Adsorbate Methane: InChIKey VNWKTOKETHGBQD-UHFFFAOYSA-N
Kind: experiment
Temperature: 112 K
Tabular data in the source: 0
pressure (bar)	uptake (cm3(STP)/g)
0	9.27835
0	24.7423
7.4e-05	40.2062
0.000102	55.6701
0.000137	74.2268
0.002362	83.5052
0.00239	98.9691
0.002419	114.433
0.002481	148.454
0.002493	154.639
0.002521	170.103
0.004655	129.897
0.004769	191.753
0.004803	210.309
0.004815	216.495
0.004837	228.866
0.007079	247.423
0.007102	259.794
0.009356	284.536
0.011609	309.278
0.013857	330.928
0.013897	352.577
0.016145	374.227
0.020595	392.784
0.020635	414.433
0.022872	429.897
0.022906	448.454
0.025171	479.381
0.029644	510.309
0.031903	538.144
0.034157	562.887
0.03641	587.629
0.038664	612.371
0.040906	630.928
0.043148	649.485
0.043188	671.134
0.047638	689.691
0.047678	711.34
0.047701	723.711
0.049938	739.175
0.049977	760.825
0.054445	788.66
0.05671	819.588
0.061177	847.423
0.063419	865.979
0.067875	887.629
0.078956	909.278
0.094446	927.835
0.103296	937.113
0.109925	940.206
0.116561	946.392
0.127612	952.577
0.136451	955.67
0.156335	961.856
0.176219	968.041
0.209357	977.32
0.260159	986.598
0.313176	998.969
0.394897	1011.34
0.434653	1017.53
0.45674	1020.62
0.469988	1020.62
0.496491	1023.71
0.525201	1026.8
0.549495	1029.9
0.573785	1029.9
0.600287	1032.99
0.624581	1036.08
0.651078	1036.08
0.677576	1036.08
0.704078	1039.18
0.73058	1042.27
0.754863	1039.18
0.781366	1042.27
0.805655	1042.27
0.832157	1045.36
0.858659	1048.45
0.887364	1048.45
0.913867	1051.55
0.940364	1051.55
0.964653	1051.55
0.986738	1054.64
1.01545	1057.73
1.03753	1057.73
