Adsorption isotherm of Methane on Al-soc-MOF-2
DOI: 10.1021/jacs.5b07053
Article source: Figure S35a
Adsorbate Methane: InChIKey VNWKTOKETHGBQD-UHFFFAOYSA-N
Kind: experiment
Temperature: 112 K
Tabular data in the source: 0
pressure (bar)	uptake (cm3(STP)/g)
0	14.5078
0.00193	90.6736
0.001988	72.5389
0.002068	47.1503
0.004044	123.316
0.00409	108.808
0.006147	159.585
0.006204	141.451
0.008295	181.347
0.010191	282.902
0.010272	257.513
0.010329	239.378
0.010398	217.617
0.010433	206.736
0.01234	304.663
0.014431	344.56
0.014488	326.425
0.01643	413.472
0.016476	398.964
0.016545	377.202
0.016602	359.067
0.01851	456.995
0.018567	438.86
0.020601	496.891
0.020658	478.756
0.022772	511.399
0.024852	554.922
0.024921	533.161
0.027023	569.43
0.029069	623.834
0.029114	609.326
0.031229	641.969
0.033308	685.492
0.035434	714.508
0.03556	674.611
0.037674	707.254
0.039593	801.554
0.03965	783.42
0.039719	761.658
0.039765	747.15
0.043913	837.824
0.043971	819.689
0.046096	848.705
0.048222	877.72
0.050313	917.617
0.050336	910.363
0.052427	950.259
0.056781	975.648
0.058953	990.155
0.063284	1022.8
0.06333	1008.29
0.067662	1040.93
0.072063	1051.81
0.078692	1059.07
0.083104	1066.32
0.087516	1073.58
0.091928	1080.83
0.098569	1084.46
0.12071	1095.34
0.202664	1124.35
0.269108	1149.74
0.368838	1167.88
0.437557	1175.13
0.537297	1189.64
0.599376	1193.26
0.648137	1200.52
0.676964	1200.52
0.707998	1204.15
0.73239	1204.15
0.781164	1207.77
0.832154	1211.4
0.885362	1215.03
0.938581	1215.03
0.989584	1215.03
