Adsorption isotherm of Hydrogen on Al-soc-MOF-1
DOI: 10.1021/jacs.5b07053
Article source: Figure S40
Adsorbate Hydrogen: InChIKey UFHFLCQGNIYNRP-UHFFFAOYSA-N
Kind: experiment
Isotherm type: absolute
Temperature: 77 K
Tabular data in the source: 0
pressure (bar)	uptake (wt%)
0.170998	0.253246
0.510745	0.598512
0.848241	0.782551
1.02278	1.28915
1.98748	2.41712
4.0221	4.21232
6.04869	5.43172
8.07142	6.37473
12.0527	7.66193
16.0843	8.55755
20.0595	9.40714
30.0666	10.4831
