Adsorption isotherm of Methane on Al-soc-MOF-2
DOI: 10.1021/jacs.5b07053
Article source: Figure S41
Adsorbate Methane: InChIKey VNWKTOKETHGBQD-UHFFFAOYSA-N
Kind: experiment
Temperature: 298 K
Tabular data in the source: 0
pressure (bar)	uptake (mmol/g)
0.172413	-0.000246
0.517682	0.127686
1.12216	0.426481
1.64058	0.768207
1.986	0.938947
3.02239	1.49397
5.00883	2.56135
7.94561	4.22668
9.93175	5.20843
12.0043	6.23287
15.9761	8.06796
19.9481	9.94585
24.955	11.9507
29.9612	13.7415
34.9675	15.5751
40.059	17.1089
42.0438	17.7054
44.9779	18.6002
50.0688	19.9628
55.0731	21.1971
59.9908	22.3459
