Adsorption isotherm of Oxygen on Al-soc-MOF-2
DOI: 10.1021/jacs.5b07053
Article source: Figure S35b
Adsorbate Oxygen: InChIKey MYMOFIZGZYHOMD-UHFFFAOYSA-N
Kind: experiment
Temperature: 90 K
Tabular data in the source: 0
pressure (bar)	uptake (cm3(STP)/g)
5e-06	4.66321
4.4e-05	37.3057
0.00217	46.6321
0.002209	79.2746
0.006467	102.591
0.00861	125.907
0.008637	149.223
0.008659	167.876
0.010802	191.192
0.012944	214.508
0.012983	247.15
0.012999	261.14
0.015142	284.456
0.017312	331.088
0.0194	307.772
0.019449	349.741
0.021592	373.057
0.023735	396.373
0.023768	424.352
0.023801	452.332
0.025933	466.321
0.028064	480.311
0.030202	498.964
0.030229	522.28
0.032366	540.933
0.034504	559.585
0.034542	592.228
0.03457	615.544
0.034591	634.197
0.038861	666.839
0.041014	699.482
0.043152	718.135
0.045305	750.777
0.047443	769.43
0.047465	788.083
0.049607	811.399
0.051756	839.378
0.053893	858.031
0.056036	881.347
0.056063	904.663
0.058195	918.653
0.062464	951.295
0.062475	960.622
0.062492	974.611
0.064629	993.264
0.066772	1016.58
0.066783	1025.91
0.068925	1049.22
0.071052	1058.55
0.0732	1086.53
0.073211	1095.85
0.073249	1128.5
0.075376	1137.82
0.077513	1156.48
0.077529	1170.47
0.079678	1198.45
0.079694	1212.44
0.081831	1231.09
0.083974	1254.4
0.083991	1268.39
0.086122	1282.38
0.086133	1291.71
0.08826	1301.04
0.090397	1319.69
0.090414	1333.68
0.090419	1338.34
0.092556	1356.99
0.094688	1370.98
0.094694	1375.65
0.098941	1389.64
0.098946	1394.3
0.101089	1417.62
0.149798	1464.25
0.19638	1501.55
0.25988	1534.2
0.312776	1543.52
0.399533	1566.84
0.454545	1576.17
0.490506	1576.17
0.513775	1576.17
0.53705	1580.83
0.541281	1580.83
0.575133	1585.49
0.596292	1590.16
0.621676	1590.16
0.647067	1594.82
0.670341	1599.48
0.697841	1599.48
0.723232	1604.15
0.744385	1604.15
0.769775	1608.81
0.797276	1608.81
0.822665	1613.47
0.843814	1608.81
0.871319	1613.47
0.892479	1618.13
0.917864	1618.13
0.943253	1622.8
0.970747	1618.13
0.987681	1627.46
