Adsorption isotherm of Methane on Al-soc-MOF-1
DOI: 10.1021/jacs.5b07053
Article source: Figure S30a
Adsorbate Methane: InChIKey VNWKTOKETHGBQD-UHFFFAOYSA-N
Kind: experiment
Temperature: 258 K
Tabular data in the source: 0
pressure (bar)	uptake (mmol/g)
0.008851	0.005336
0.013277	0.010629
0.017703	0.015922
0.030979	0.026552
0.044256	0.039806
0.055321	0.053038
0.064172	0.060999
0.073023	0.06896
0.084087	0.076943
0.090726	0.084882
0.092938	0.087529
0.115067	0.103495
0.161536	0.148572
0.192515	0.169874
0.216857	0.188486
0.265538	0.23096
0.292092	0.252219
0.316433	0.273456
0.365115	0.31593
0.396094	0.342482
0.418223	0.361072
0.466904	0.403546
0.495671	0.430076
0.5178	0.451291
0.568695	0.496411
0.597462	0.517692
0.619589	0.533658
0.670485	0.576154
0.69925	0.597434
0.721379	0.616025
0.772274	0.661145
0.801041	0.682426
0.823168	0.701016
0.874064	0.746137
0.905043	0.772688
0.927172	0.791279
0.964789	0.817896
0.978066	0.828525
1.01347	0.86037
