Adsorption isotherm of Oxygen on Al-soc-MOF-3
DOI: 10.1021/jacs.5b07053
Article source: Figure S37b
Adsorbate Oxygen: InChIKey MYMOFIZGZYHOMD-UHFFFAOYSA-N
Kind: experiment
Temperature: 90 K
Tabular data in the source: 0
pressure (bar)	uptake (cm3(STP)/g)
0	0
0.002106	144.339
0.004213	169.09
0.006319	214.459
0.008426	272.2
0.010532	296.951
0.012638	334.073
0.014745	379.443
0.016851	400.07
0.018957	437.192
0.021064	474.315
0.025277	515.569
0.027383	544.444
0.029489	569.195
0.031596	593.946
0.035808	643.448
0.037915	664.075
0.040021	692.95
0.044234	738.329
0.04634	767.203
0.048447	800.202
0.050553	824.953
0.05266	870.322
0.054766	928.063
0.056872	948.691
0.058979	989.936
0.061085	1035.31
0.063192	1068.3
0.065298	1117.8
0.067404	1126.05
0.069511	1150.81
0.071617	1167.31
0.077936	1196.2
0.086362	1225.1
0.096894	1237.52
0.099	1249.9
0.147447	1287.21
0.198	1303.92
0.265404	1320.69
0.294893	1329.06
0.345447	1337.52
0.396	1345.98
0.444447	1358.55
0.467617	1358.65
0.495	1362.89
0.51817	1367.11
0.543447	1367.21
0.57083	1371.45
0.594	1371.55
0.619277	1375.78
0.642447	1380
0.667723	1380.1
0.693	1380.21
0.718277	1384.44
0.743553	1388.66
0.76883	1384.65
0.792	1388.87
0.817277	1388.97
0.842553	1393.2
0.865723	1393.3
0.891	1393.4
0.916277	1397.63
0.937341	1401.84
0.964723	1401.96
0.987893	1406.18
