Adsorption isotherm of Carbon Dioxide on Al-soc-MOF-3
DOI: 10.1021/jacs.5b07053
Article source: Figure S43
Adsorbate Carbon Dioxide: InChIKey CURLTUGMZLYLDI-UHFFFAOYSA-N
Kind: experiment
Temperature: 298 K
Tabular data in the source: 0
pressure (bar)	uptake (mmol/g)
0.21645	0.407574
0.396825	0.611165
0.613276	0.950712
0.793651	1.29036
1.0101	1.56188
1.19048	1.76547
1.51515	2.17275
2.0202	2.78362
2.99423	4.27757
4.00433	5.70339
5.95238	8.62326
6.02453	8.75912
8.00866	11.6789
9.77633	14.6673
12.013	17.8585
13.5642	20.4393
16.0173	23.5619
17.1717	25.1233
20.0216	27.8367
20.8153	28.3787
24.0981	31.0229
