Adsorption isotherm of Methane on Al-soc-MOF-1
DOI: 10.1021/jacs.5b07053
Article source: Figure S30a
Adsorbate Methane: InChIKey VNWKTOKETHGBQD-UHFFFAOYSA-N
Kind: experiment
Temperature: 273 K
Tabular data in the source: 0
pressure (bar)	uptake (mmol/g)
0.004426	0.005293
0.013277	0.010629
0.028767	0.021281
0.046469	0.029329
0.059746	0.042583
0.068597	0.047919
0.075236	0.055859
0.088513	0.061239
0.095151	0.063929
0.112854	0.079851
0.163749	0.117097
0.190303	0.133107
0.214644	0.14647
0.263325	0.178445
0.292092	0.194476
0.314221	0.210442
0.365115	0.245064
0.393882	0.26372
0.41601	0.28231
0.466904	0.314307
0.495671	0.335588
0.5178	0.348929
0.568695	0.386175
0.597462	0.402206
0.619589	0.415548
0.670485	0.447545
0.697039	0.466179
0.721379	0.482166
0.770061	0.516766
0.798828	0.530173
0.823168	0.543536
0.874064	0.572908
0.905043	0.591586
0.924959	0.604905
0.962577	0.626273
0.97364	0.63688
1.01347	0.663519
