Adsorption isotherm of Methanol on C15H27N2O10Er
DOI: 10.1021/Cg800204q
Adsorbate Methanol: InChIKey OKKJLVBELUTLKV-UHFFFAOYSA-N
Temperature: 298 K
Tabular data in the source: 0
pressure (bar)	uptake (mmol/g)
0.000727819	0.0332538
0.00873382	1.8305
0.0163759	2.31283
0.0243819	2.54546
0.0287488	2.62015
0.0414857	2.81926
0.0505834	2.89371
0.060045	2.92653
0.0753292	2.94242
0.0836991	2.95865
0.0909773	2.95829
0.100803	2.96613
0.108445	2.96575
0.116451	2.96536
0.123001	2.97336
0.132463	2.97289
0.140469	2.97249
0.149203	2.97206
0.156845	2.97168
