Adsorption isotherm of Methanol on C15H27N2O10Tb
DOI: 10.1021/Cg800204q
Adsorbate Methanol: InChIKey OKKJLVBELUTLKV-UHFFFAOYSA-N
Temperature: 298 K
Tabular data in the source: 0
pressure (bar)	uptake (mmol/g)
0.000323533	0.340281
0.00270222	1.7428
0.00665705	2.08272
0.0120789	2.29799
0.016786	2.41373
0.0207708	2.49634
0.0240341	2.53752
0.0291092	2.61173
0.0396245	2.7435
0.0544964	2.88314
0.0835313	3.01308
0.0929698	3.03705
0.115842	3.0763
0.135451	3.07437
0.141624	3.07376
0.161596	3.07179
