Adsorption isotherm of Water on C15H27N2O10Ho
DOI: 10.1021/Cg800204q
Adsorbate Water: InChIKey XLYOFNOQVPJJNP-UHFFFAOYSA-N
Temperature: 298 K
Tabular data in the source: 0
pressure (bar)	uptake (mmol/g)
0.000131847	0.155639
0.00317628	2.54154
0.00476416	3.83827
0.00635932	4.40833
0.00788916	4.84002
0.00942073	5.0987
0.0110194	5.32274
0.0125523	5.443
0.0142189	5.54589
0.0156191	5.59702
0.0173527	5.66527
0.0188867	5.68173
0.020354	5.69822
0.0220214	5.71461
0.0234216	5.76574
0.0248888	5.79953
0.0266229	5.81588
0.0280238	5.79781
0.0296238	5.88343
