Adsorption isotherm of Water on C15H27N2O10Er
DOI: 10.1021/Cg800204q
Adsorbate Water: InChIKey XLYOFNOQVPJJNP-UHFFFAOYSA-N
Temperature: 298 K
Tabular data in the source: 0
pressure (bar)	uptake (mmol/g)
6.38e-05	0.294087
0.00470162	3.42307
0.00629574	4.09694
0.00782488	4.59784
0.00948848	4.99485
0.0109523	5.35738
0.0124837	5.63335
0.0141494	5.82275
0.0158149	6.02945
0.0172139	6.20169
0.0185469	6.30476
0.0201468	6.40769
0.0216804	6.45875
0.0236145	6.49229
0.0250814	6.54338
0.0267486	6.57707
0.0283493	6.59349
0.0292165	6.59301
