Adsorption isotherm of Methanol on C15H27N2O10Tm
DOI: 10.1021/Cg800204q
Adsorbate Methanol: InChIKey OKKJLVBELUTLKV-UHFFFAOYSA-N
Temperature: 298 K
Tabular data in the source: 0
pressure (bar)	uptake (mmol/g)
0.00109173	0.0165909
0.00909773	1.3894
0.0171037	2.09641
0.0254737	2.44554
0.0327518	2.68653
0.0418496	2.83588
0.0505834	2.88539
0.0589533	2.92659
0.0687789	2.93442
0.0753292	2.94242
0.084063	2.93367
0.0927969	2.93324
0.101895	2.93279
0.109901	2.94071
0.117179	2.94035
0.124821	2.93998
0.132463	2.93128
0.140833	2.93919
0.149567	2.93043
0.157573	2.93004
