Adsorption isotherm of Water on C15H27N2O10Tb
DOI: 10.1021/Cg800204q
Adsorbate Water: InChIKey XLYOFNOQVPJJNP-UHFFFAOYSA-N
Temperature: 298 K
Tabular data in the source: 0
pressure (bar)	uptake (mmol/g)
0.000265426	0.138264
0.00164765	1.98874
0.0043584	4.39213
0.00808477	5.28975
0.010616	5.63438
0.0129492	5.77151
0.0141496	5.80545
0.0152833	5.82213
0.0184184	5.8204
0.0274235	5.79814
0.0304248	5.83109
