Adsorption isotherm of Methanol on C15H27N2O10Dy
DOI: 10.1021/Cg800204q
Adsorbate Methanol: InChIKey OKKJLVBELUTLKV-UHFFFAOYSA-N
Temperature: 298 K
Tabular data in the source: 0
pressure (bar)	uptake (mmol/g)
0.000727819	0.0332538
0.00982555	1.4393
0.0171037	1.93828
0.0258376	2.29572
0.0342075	2.52001
0.0414857	2.6861
0.0513112	2.81045
0.0582255	2.86836
0.0673232	2.92617
0.076057	2.97568
0.084063	3.00857
0.0931608	3.02477
0.100803	3.01607
0.109537	3.02396
0.117907	3.02354
0.123729	3.03158
0.133555	3.03109
0.140469	3.03075
0.150658	3.03025
0.159392	3.02982
