Adsorption isotherm of Methanol on C15H27N2O10Ho
DOI: 10.1021/Cg800204q
Adsorbate Methanol: InChIKey OKKJLVBELUTLKV-UHFFFAOYSA-N
Temperature: 298 K
Tabular data in the source: 0
pressure (bar)	uptake (mmol/g)
0.000727819	0.0332538
0.00909773	1.42269
0.0174676	2.02981
0.0243819	2.34572
0.0342075	2.58659
0.0425774	2.73598
0.0505834	2.81881
0.0589533	2.8933
0.0673232	2.94282
0.076421	2.98398
0.0833352	3.01693
0.0917051	3.03316
0.10335	3.04091
0.108809	3.05728
0.118998	3.0651
0.125913	3.07308
0.131735	3.08112
0.140833	3.08067
0.147383	3.08034
0.155389	3.08827
