Adsorption isotherm of Water on C15H27N2O10Tm
DOI: 10.1021/Cg800204q
Adsorbate Water: InChIKey XLYOFNOQVPJJNP-UHFFFAOYSA-N
Temperature: 298 K
Tabular data in the source: 0
pressure (bar)	uptake (mmol/g)
6.64e-05	0.0346927
0.0032535	1.49179
0.00471314	2.27237
0.00624036	2.96623
0.00776809	3.60804
0.00949542	4.3019
0.0108908	4.83964
0.012487	5.30799
0.0140844	5.65492
0.0157498	5.86307
0.0172157	6.01919
0.0188817	6.17531
0.0203482	6.27938
0.022015	6.34877
0.0232817	6.41816
0.025082	6.48754
0.0265493	6.50489
0.0279497	6.53958
0.0294173	6.52223
