Adsorption isotherm of Water on C15H27N2O10Dy
DOI: 10.1021/Cg800204q
Adsorbate Water: InChIKey XLYOFNOQVPJJNP-UHFFFAOYSA-N
Temperature: 298 K
Tabular data in the source: 0
pressure (bar)	uptake (mmol/g)
0.000265426	0.138264
0.00323952	2.88753
0.00469625	3.95941
0.00629123	4.54678
0.00788864	4.89193
0.00948605	5.23707
0.0108842	5.49582
0.0125497	5.70252
0.0140822	5.87469
0.015682	5.97762
0.0170815	6.09796
0.0201492	6.16547
0.0219497	6.21638
0.0232172	6.19839
0.0250177	6.2493
0.0266185	6.24842
0.0276856	6.26513
0.0294866	6.26414
