Adsorption isotherm of Ethane on MCOF-1
DOI: 10.1039/C3cc45217d
Adsorbate Ethane: InChIKey OTMSDBZUPAUEDD-UHFFFAOYSA-N
Temperature: 298 K
Tabular data in the source: 0
pressure (bar)	uptake (cm3(STP)/g)
0.0112524	5.74739
0.02252	9.3812
0.0394214	13.015
0.0591397	16.0573
0.0999848	20.3671
0.195759	26.7896
0.299985	30.846
0.399985	34.1418
0.497168	36.3389
0.598576	38.4516
0.701393	40.1418
0.802802	41.8319
0.897168	42.9305
0.952097	43.4375
