Adsorption isotherm of N-propane on MCOF-1
DOI: 10.1039/C3cc45217d
Adsorbate N-propane: InChIKey ATUOYWHBWRKTHZ-UHFFFAOYSA-N
Temperature: 298 K
Tabular data in the source: 0
pressure (bar)	uptake (cm3(STP)/g)
0.0126608	21.8037
0.0211115	26.7051
0.0295622	29.5784
0.0464636	34.3108
0.078858	38.4516
0.0999848	40.6488
0.147872	43.522
0.249281	47.4094
0.352097	49.8601
0.452097	51.2967
0.550689	52.3953
0.654914	53.4939
0.752097	54.1699
0.850689	54.9305
0.954914	55.2685
