Adsorption isotherm of Argon on MCOF-1
DOI: 10.1039/C3cc45217d
Adsorbate Argon: InChIKey XKRFYHLGVUSROY-UHFFFAOYSA-N
Temperature: 87 K
Tabular data in the source: 0
pressure (bar)	uptake (cm3(STP)/g)
0.00229475	109.854
0.00229475	134.166
0.00372489	71.9549
0.00515504	1.16286
0.00515504	46.9274
0.00801532	193.517
0.0266072	220.69
0.0494895	234.276
0.0981143	250.008
0.15389	259.304
0.246849	267.885
0.399875	281.471
0.545749	290.052
0.647289	298.633
0.75026	305.783
0.85466	319.37
0.911866	334.386
0.95191	357.984
