Adsorption isotherm of Methane on MCOF-1
DOI: 10.1039/C3cc45217d
Adsorbate Methane: InChIKey VNWKTOKETHGBQD-UHFFFAOYSA-N
Temperature: 298 K
Tabular data in the source: 0
pressure (bar)	uptake (cm3(STP)/g)
0.0295622	0.254436
0.0971678	1.015
0.147872	1.77556
0.199985	2.2826
0.302802	3.4657
0.397168	4.6488
0.501393	5.66289
0.601393	6.67697
0.701393	7.52204
0.757731	7.86007
0.853506	8.70514
0.949281	9.4657
