Adsorption isotherm of Ethene on MCOF-1
DOI: 10.1039/C3cc45217d
Adsorbate Ethene: InChIKey VGGSQFUCUMXWEO-UHFFFAOYSA-N
Temperature: 298 K
Tabular data in the source: 0
pressure (bar)	uptake (cm3(STP)/g)
0.00984391	1.015
0.0309707	4.98683
0.0492805	7.60655
0.0802664	10.9868
0.146464	16.0573
0.247872	20.9587
0.349281	24.2544
0.447872	27.1277
0.547872	29.2404
0.647872	31.4375
0.753506	33.2122
0.853506	34.6488
0.952097	35.9164
