Adsorption isotherm of Methane on PAF-301
DOI: 10.1021/Jp402488r
Adsorbate Methane: InChIKey VNWKTOKETHGBQD-UHFFFAOYSA-N
Temperature: 298 K
Tabular data in the source: 0
pressure (bar)	uptake (mg/g)
0.897436	271.783
2.69231	385.486
3.8141	408.473
5.83333	431.75
7.40385	454.882
14.1346	524.93
19.7436	481.494
24.9038	505.787
30.5128	484.975
35.8974	509.34
41.2821	488.456
46.6667	467.572
52.2756	469.384
57.2115	448.355
62.8205	450.168
