Adsorption isotherm of Carbon Dioxide on PAF-302 (.33 mol)
DOI: 10.1021/Jp402488r
Adsorbate Carbon Dioxide: InChIKey CURLTUGMZLYLDI-UHFFFAOYSA-N
Temperature: 298 K
Tabular data in the source: 0
pressure (bar)	uptake (mmol/g)
4.04494	1.02854
6.74157	2.06237
9.66292	3.22586
11.9101	4.00035
15.2809	4.77044
25.1685	8.90926
34.8315	13.8323
44.7191	19.4071
54.8315	25.3727
64.7191	29.5115
74.8315	33.5189
84.7191	35.9606
94.382	37.2283
104.494	38.7552
