Adsorption isotherm of Carbon Dioxide on PAF-302 (.5 mol)
DOI: 10.1021/Jp402488r
Adsorbate Carbon Dioxide: InChIKey CURLTUGMZLYLDI-UHFFFAOYSA-N
Temperature: 298 K
Tabular data in the source: 0
pressure (bar)	uptake (mmol/g)
3.59551	1.5525
6.96629	3.10588
9.66292	4.92299
12.5843	6.73923
15.0562	8.55722
25.3933	17.1329
35.0562	28.1917
44.7191	34.9424
54.8315	39.3414
64.4944	41.3923
74.6067	42.7887
84.2697	44.1869
94.1573	45.3231
104.045	45.5455
