Adsorption isotherm of Carbon Dioxide on PAF-302 (.8 mol)
DOI: 10.1021/Jp402488r
Adsorbate Carbon Dioxide: InChIKey CURLTUGMZLYLDI-UHFFFAOYSA-N
Temperature: 298 K
Tabular data in the source: 0
pressure (bar)	uptake (mmol/g)
1.1236	1.03999
4.04494	2.85622
6.51685	5.45751
9.4382	8.97087
12.3596	13.0064
15.0562	17.5651
25.1685	35.28
34.8315	42.9445
44.7191	45.3862
55.0562	46.3901
64.4944	48.0503
74.6067	48.9245
84.4944	49.0163
94.1573	49.7618
104.719	49.4593
