Adsorption isotherm of Methane on PAF-304
DOI: 10.1021/Jp402488r
Adsorbate Methane: InChIKey VNWKTOKETHGBQD-UHFFFAOYSA-N
Temperature: 298 K
Tabular data in the source: 0
pressure (bar)	uptake (cm3(STP)/cm3)
1.67645	1.80905
4.19535	2.71357
6.71424	3.61809
10.4873	7.23618
12.1616	9.94975
15.5188	11.7588
25.1636	19.8995
35.2308	27.1357
45.3021	32.5628
55.7958	37.0854
64.613	39.799
74.6886	43.4171
84.3503	44.3216
94.8482	47.0352
104.514	46.1307
