Adsorption isotherm of Methane on PAF-304
DOI: 10.1021/Jp402488r
Adsorbate Methane: InChIKey VNWKTOKETHGBQD-UHFFFAOYSA-N
Temperature: 298 K
Tabular data in the source: 0
pressure (bar)	uptake (mg/g)
0.895423	7.03011
3.28287	25.3092
6.55949	42.1973
9.24368	60.4806
12.815	74.5658
14.9036	90.0337
25.3311	146.32
35.1547	188.564
44.9763	228
54.7947	263.225
65.1972	285.827
75.0052	307.018
85.1047	321.194
94.9065	333.964
104.996	334.105
