Adsorption isotherm of Methane on PAF-302
DOI: 10.1021/Jp402488r
Adsorbate Methane: InChIKey VNWKTOKETHGBQD-UHFFFAOYSA-N
Temperature: 298 K
Tabular data in the source: 0
pressure (bar)	uptake (mg/g)
7.17949	356.445
8.97436	467.977
14.359	981.948
19.5192	1495.99
25.1282	1718.41
30.2885	1806.44
35.6731	1827.14
41.2821	1847.76
46.6667	1846.04
52.0513	1799.47
57.6603	1752.83
62.5962	1661.56
