Adsorption isotherm of Nitrogen on PAF-302 (Dreiding)
DOI: 10.1021/Jp402488r
Adsorbate Nitrogen: InChIKey IJGRMHOSHXDMSA-UHFFFAOYSA-N
Temperature: 77 K
Tabular data in the source: 0
pressure (bar)	uptake (cm3(STP)/g)
0.00283509	20.9652
0.00324139	55.8169
0.00389147	111.58
0.00454156	167.342
0.00494786	202.194
0.00592298	285.838
0.0131371	460.205
0.0151686	634.463
0.0231141	871.563
0.0245677	774.033
0.0347795	983.305
0.0403774	1241.26
0.040865	1283.08
0.0412622	1094.94
0.0547154	1360.03
0.0604668	1408.93
0.0825787	1527.86
0.111733	1584.22
0.140563	1612.69
0.166963	1655.06
0.266002	1705.91
0.367469	1742.87
0.468855	1772.87
0.567487	1788.87
0.663446	1797.84
0.767342	1820.92
0.866056	1843.89
0.967685	1894.79
