Adsorption isotherm of Methane on PAF-301
DOI: 10.1021/Jp402488r
Adsorbate Methane: InChIKey VNWKTOKETHGBQD-UHFFFAOYSA-N
Temperature: 298 K
Tabular data in the source: 0
pressure (bar)	uptake (mg/g)
0.0149908	6.57816
0.0420091	21.9098
0.063057	37.2285
0.0930929	55.8395
0.120089	68.9893
0.150125	87.6003
0.255029	130.375
0.347904	164.395
0.449671	191.89
0.548386	212.833
0.64707	230.503
0.742746	245.984
0.853327	259.316
0.951934	269.35
1.03858	277.175
