Adsorption isotherm of Methane on PAF-302
DOI: 10.1021/Jp402488r
Adsorbate Methane: InChIKey VNWKTOKETHGBQD-UHFFFAOYSA-N
Temperature: 298 K
Tabular data in the source: 0
pressure (bar)	uptake (cm3(STP)/cm3)
3.74984	13.5678
7.08585	24.4221
10.4282	32.5628
12.5037	43.4171
15.4259	51.5578
25.8583	82.3116
35.0429	107.638
44.6708	123.015
54.7253	135.678
64.7924	142.915
74.8638	148.342
84.5235	150.151
94.1894	149.246
103.855	148.342
