Adsorption isotherm of Hydrogen on PAF-302
DOI: 10.1021/Jp402488r
Adsorbate Hydrogen: InChIKey UFHFLCQGNIYNRP-UHFFFAOYSA-N
Temperature: 150 K
Tabular data in the source: 0
pressure (bar)	uptake (cm3(STP)/g)
0.858533	0.15311
1.71707	0.306219
3.76475	0.447797
5.64179	0.577577
8.3747	0.813407
10.2524	0.954951
11.9588	1.07293
14.6884	1.24994
18.4358	1.39185
21.5047	1.55716
27.6377	1.80542
32.0703	2.04158
38.5473	2.3605
40.2484	2.38436
44.5057	2.52637
46.8887	2.58566
