Adsorption isotherm of Nitrogen on PAF-302
DOI: 10.1021/Jp402488r
Adsorbate Nitrogen: InChIKey IJGRMHOSHXDMSA-UHFFFAOYSA-N
Temperature: 77 K
Tabular data in the source: 0
pressure (bar)	uptake (cm3(STP)/g)
0.0149248	613.552
0.026834	746.206
0.0301567	808.993
0.0383459	1067
0.0739831	1235
0.111237	1319.4
0.135046	1361.71
0.171893	1411.26
0.193355	1474.43
0.229795	1489.12
0.266724	1545.65
0.326893	1595.68
0.378963	1617.68
0.507724	1773.68
0.546756	1788.43
0.622473	1838.8
0.690172	1868.09
0.773256	1883.76
0.838364	1913
0.887843	1934.94
0.932057	1949.8
