Adsorption isotherm of Methane on PAF-302
DOI: 10.1021/Jp402488r
Adsorbate Methane: InChIKey VNWKTOKETHGBQD-UHFFFAOYSA-N
Temperature: 298 K
Tabular data in the source: 0
pressure (bar)	uptake (cm3(STP)/cm3)
2.96858	16.3043
5.92802	27.1739
8.89204	40.7609
11.4336	52.9891
14.3908	62.5
24.9612	101.902
34.6753	131.793
44.805	158.967
54.921	177.989
65.4526	194.293
74.7191	207.88
85.2416	218.75
94.5013	228.261
104.177	235.054
