Adsorption isotherm of Methane on PAF-302
DOI: 10.1021/Jp402488r
Adsorbate Methane: InChIKey VNWKTOKETHGBQD-UHFFFAOYSA-N
Temperature: 298 K
Tabular data in the source: 0
pressure (bar)	uptake (mg/g)
0.0358542	3.35095
0.0627422	5.59144
0.1493	4.68938
0.25086	11.4564
0.352377	13.8597
0.453893	16.263
0.549461	20.8352
0.648036	27.5957
0.746567	29.9925
0.848105	34.5777
0.949633	38.0719
1.04519	41.5531
