Adsorption isotherm of Hydrogen on PAF-302 (.33 mol)
DOI: 10.1021/Jp402488r
Adsorbate Hydrogen: InChIKey UFHFLCQGNIYNRP-UHFFFAOYSA-N
Temperature: 298 K
Tabular data in the source: 0
pressure (bar)	uptake (mmol/g)
4.3573	0.449413
6.97168	0.6742
9.15033	0.917598
12.4183	1.12382
15.2505	1.34864
24.8366	2.15418
34.8584	2.7168
44.8802	3.05512
54.6841	3.1691
64.7059	3.24574
74.7277	3.17285
84.7495	3.24949
94.3355	3.36343
104.575	3.40272
