Adsorption isotherm of Methane on PAF-301
DOI: 10.1021/Jp402488r
Adsorbate Methane: InChIKey VNWKTOKETHGBQD-UHFFFAOYSA-N
Temperature: 298 K
Tabular data in the source: 0
pressure (bar)	uptake (mg/g)
0.633043	53.3422
3.91904	82.862
6.89059	88.5178
9.56541	94.1693
15.5044	99.8667
25.2999	104.215
35.0933	105.756
44.8867	107.297
54.9758	107.438
64.4725	108.975
74.8584	109.121
84.6508	109.258
95.3344	110.812
105.421	108.146
