Adsorption isotherm of Hydrogen on PAF-302 (.8 mol)
DOI: 10.1021/Jp402488r
Adsorbate Hydrogen: InChIKey UFHFLCQGNIYNRP-UHFFFAOYSA-N
Temperature: 298 K
Tabular data in the source: 0
pressure (bar)	uptake (mmol/g)
1.30719	0.0937023
3.26797	0.11276
5.22876	0.15051
7.40741	0.244375
10.2397	0.319671
12.2004	0.320037
15.2505	0.339299
25.0545	0.378515
34.8584	0.324273
44.8802	0.363529
55.1198	0.458901
64.9237	0.498117
74.7277	0.537332
84.7495	0.632663
94.5534	0.690571
104.139	0.841895
