Adsorption isotherm of Methane on PAF-303
DOI: 10.1021/Jp402488r
Adsorbate Methane: InChIKey VNWKTOKETHGBQD-UHFFFAOYSA-N
Temperature: 298 K
Tabular data in the source: 0
pressure (bar)	uptake (cm3(STP)/cm3)
4.21995	10.8696
5.90747	14.9457
8.44218	23.0978
11.8104	27.1739
14.7607	32.6087
24.8813	54.3478
34.5794	74.7283
44.6977	95.1087
54.8091	111.413
64.9182	126.359
74.6095	142.663
84.2962	156.25
94.4054	171.196
104.09	183.424
