Adsorption isotherm of Hydrogen on PAF-302 (.66 mol)
DOI: 10.1021/Jp402488r
Adsorbate Hydrogen: InChIKey UFHFLCQGNIYNRP-UHFFFAOYSA-N
Temperature: 298 K
Tabular data in the source: 0
pressure (bar)	uptake (mmol/g)
3.92157	0.243724
6.53595	0.356362
9.80392	0.450431
12.4183	0.563069
15.4684	0.638405
25.2723	0.733696
34.4227	0.735406
45.3159	0.756134
54.6841	0.757885
64.7059	0.834524
74.2919	0.873699
84.5316	1.02515
94.3355	1.12044
104.357	1.15969
