Adsorption isotherm of Methane on PAF-303
DOI: 10.1021/Jp402488r
Adsorbate Methane: InChIKey VNWKTOKETHGBQD-UHFFFAOYSA-N
Temperature: 298 K
Tabular data in the source: 0
pressure (bar)	uptake (mg/g)
1.49098	9.84549
4.17725	30.9358
6.5647	49.2149
9.24576	63.2877
12.8202	81.5834
15.5033	98.4632
25.0406	154.737
35.1651	202.599
45.2855	244.846
55.105	281.475
65.2149	309.687
75.3196	330.882
84.8309	352.068
95.2251	363.442
105.02	366.386
