Adsorption isotherm of Methane on PAF-302 (UFF)
DOI: 10.1021/Jp402488r
Adsorbate Methane: InChIKey VNWKTOKETHGBQD-UHFFFAOYSA-N
Temperature: 273 K
Tabular data in the source: 0
pressure (bar)	uptake (cm3(STP)/g)
0.105195	2.73819
0.144156	3.39314
0.171429	4.4335
0.198701	5.21524
0.21039	5.34707
0.303896	7.95343
0.346753	9.25577
0.393506	10.4296
0.498701	13.0385
0.596104	15.6457
0.638961	16.8187
0.693506	18.2529
0.787013	20.4713
0.798701	20.9911
0.896104	23.469
0.923377	24.38
0.997403	26.077
1.07532	27.9042
