Adsorption isotherm of Methane on PAF-303
DOI: 10.1021/Jp402488r
Adsorbate Methane: InChIKey VNWKTOKETHGBQD-UHFFFAOYSA-N
Temperature: 298 K
Tabular data in the source: 0
pressure (bar)	uptake (mg/g)
0.0388285	2.26653
0.0716976	5.61098
0.0985639	5.66959
0.125408	3.54635
0.15526	3.61148
0.253824	9.28107
0.349359	10.5804
0.450886	14.0747
0.552403	16.478
0.653952	22.1541
0.740543	24.5248
0.848008	24.7593
0.949546	29.3445
1.04512	35.0075
