Adsorption isotherm of Methane on PAF-302
DOI: 10.1021/Jp402488r
Adsorbate Methane: InChIKey VNWKTOKETHGBQD-UHFFFAOYSA-N
Temperature: 273 K
Tabular data in the source: 0
pressure (bar)	uptake (cm3(STP)/g)
0.0194805	0.133509
0.190909	3.2739
0.280519	5.10356
0.350649	6.28247
0.416883	7.20191
0.475325	7.99037
0.52987	9.16592
0.592208	10.3431
0.650649	11.1316
0.709091	12.6959
0.771429	13.4852
0.837662	14.534
0.896104	15.8397
0.958442	17.0169
1.00909	17.6744
