Adsorption isotherm of Methane on PAF-301
DOI: 10.1021/Jp402488r
Adsorbate Methane: InChIKey VNWKTOKETHGBQD-UHFFFAOYSA-N
Temperature: 298 K
Tabular data in the source: 0
pressure (bar)	uptake (cm3(STP)/cm3)
0.386386	14.4724
1.14649	48.8442
1.18238	33.4673
1.52443	66.9347
2.32465	84.1206
2.34365	75.9799
3.56615	92.2613
6.47988	104.02
7.73194	107.638
9.82644	110.352
12.3432	112.161
14.86	113.97
24.9314	119.397
35.8473	123.015
44.6666	124.824
55.1666	126.633
64.8305	126.633
74.9166	125.729
84.1624	124.824
94.2486	123.92
103.494	123.015
