Adsorption isotherm of Methane on PAF-304
DOI: 10.1021/Jp402488r
Adsorbate Methane: InChIKey VNWKTOKETHGBQD-UHFFFAOYSA-N
Temperature: 298 K
Tabular data in the source: 0
pressure (bar)	uptake (mg/g)
0.0418028	1.18212
0.0716759	3.42911
0.0925719	3.4747
0.122412	2.4489
0.149279	2.50752
0.250806	6.00176
0.349359	10.5804
0.447923	16.25
0.546454	18.6468
0.647949	18.8683
0.743506	22.3495
0.848008	24.7593
0.949535	28.2535
1.04509	31.7347
