Adsorption isotherm of Carbon Dioxide on PAF-302 (.2 mol)
DOI: 10.1021/Jp402488r
Adsorbate Carbon Dioxide: InChIKey CURLTUGMZLYLDI-UHFFFAOYSA-N
Temperature: 298 K
Tabular data in the source: 0
pressure (bar)	uptake (mmol/g)
4.04494	1.02854
6.96629	1.2782
9.4382	1.66016
12.809	2.16916
15.2809	2.81222
24.4944	5.126
34.8315	7.04374
44.7191	8.96324
54.1573	11.2761
64.7191	13.7152
75.0562	15.7635
85.1685	18.3348
94.1573	20.9106
104.494	23.22
