Adsorption isotherm of Methane on PAF-304
DOI: 10.1021/Jp402488r
Adsorbate Methane: InChIKey VNWKTOKETHGBQD-UHFFFAOYSA-N
Temperature: 298 K
Tabular data in the source: 0
pressure (bar)	uptake (mg/g)
1.12179	66.9053
3.14103	111.102
4.48718	155.513
6.95513	199.566
8.75	288.677
14.359	466.253
19.5192	666.394
25.3526	933.583
30.5128	1200.99
35.6731	1558.08
41.2821	2004.71
46.891	2563.46
52.2756	3548.28
57.2115	4465.98
59.9038	4689.33
62.8205	4710.82
