Adsorption isotherm of Methane on PAF-302 (Dreiding)
DOI: 10.1021/Jp402488r
Adsorbate Methane: InChIKey VNWKTOKETHGBQD-UHFFFAOYSA-N
Temperature: 273 K
Tabular data in the source: 0
pressure (bar)	uptake (cm3(STP)/g)
0.101299	1.70287
0.14026	2.2285
0.171429	3.01108
0.206494	3.27726
0.350649	6.02385
0.490909	8.51097
0.635065	10.7403
0.783117	13.0998
0.931169	15.7179
1.07532	17.9473
