Adsorption isotherm of Hydrogen on PAF-302 (Dreiding)
DOI: 10.1021/Jp402488r
Adsorbate Hydrogen: InChIKey UFHFLCQGNIYNRP-UHFFFAOYSA-N
Temperature: 150 K
Tabular data in the source: 0
pressure (bar)	uptake (cm3(STP)/g)
0.513253	0.0589242
4.09803	0.330215
6.49032	0.554214
9.56251	0.778346
12.6334	0.978948
15.1943	1.17945
24.9135	1.72253
35.1385	2.19513
45.187	2.55004
55.0628	2.85786
