Adsorption isotherm of Methane on PAF-301
DOI: 10.1021/Jp402488r
Adsorbate Methane: InChIKey VNWKTOKETHGBQD-UHFFFAOYSA-N
Temperature: 298 K
Tabular data in the source: 0
pressure (bar)	uptake (cm3(STP)/cm3)
0.44757	16.3043
0.901991	36.6848
0.922543	48.913
0.949945	65.2174
1.39066	77.4457
2.24242	84.2391
2.67629	92.3913
5.6403	105.978
7.74799	110.054
9.43323	112.772
12.379	115.489
14.4867	119.565
25.0069	129.076
35.1046	137.228
44.7799	144.022
54.4506	148.098
64.9639	153.533
74.2168	158.967
84.7278	163.043
94.394	164.402
103.645	168.478
