Adsorption isotherm of Carbon Dioxide on PAF-302 (.66 mol)
DOI: 10.1021/Jp402488r
Adsorbate Carbon Dioxide: InChIKey CURLTUGMZLYLDI-UHFFFAOYSA-N
Temperature: 298 K
Tabular data in the source: 0
pressure (bar)	uptake (mmol/g)
3.82022	1.94326
7.41573	4.54015
9.66292	6.75067
12.1348	9.4825
14.8315	12.7356
24.9438	27.5785
34.8315	37.3309
44.7191	41.4698
55.0562	44.3013
64.4944	45.7004
74.382	46.9672
84.4944	47.3192
94.382	47.8027
104.27	48.4167
