Adsorption isotherm of Carbon Dioxide on PAF-302
DOI: 10.1021/Jp402488r
Adsorbate Carbon Dioxide: InChIKey CURLTUGMZLYLDI-UHFFFAOYSA-N
Temperature: 298 K
Tabular data in the source: 0
pressure (bar)	uptake (cm3(STP)/g)
1.24629	61.7647
3.24036	158.824
5.34125	282.353
7.22849	400
9.18694	508.824
11.2878	623.529
