Adsorption isotherm of Carbon Dioxide on PAF-302 (Dreiding)
DOI: 10.1021/Jp402488r
Adsorbate Carbon Dioxide: InChIKey CURLTUGMZLYLDI-UHFFFAOYSA-N
Temperature: 298 K
Tabular data in the source: 0
pressure (bar)	uptake (cm3(STP)/g)
0.997033	38.2353
1.38872	58.8235
1.85163	70.5882
2.24332	88.2353
2.59941	102.941
3.02671	120.588
4.45104	185.294
5.83976	258.824
7.19288	344.118
8.65282	441.176
10.0772	547.059
11.4659	679.412
