Adsorption isotherm of Hydrogen on PAF-302 (.2 mol)
DOI: 10.1021/Jp402488r
Adsorbate Hydrogen: InChIKey UFHFLCQGNIYNRP-UHFFFAOYSA-N
Temperature: 298 K
Tabular data in the source: 0
pressure (bar)	uptake (mmol/g)
3.92157	0.486714
6.75381	0.805001
10.0218	1.08599
12.4183	1.3855
15.0327	1.70374
25.0545	2.67758
34.6405	3.59526
44.2266	4.3821
55.3377	5.15053
64.9237	5.67569
74.7277	6.18219
84.7495	6.53921
94.1176	6.84002
104.575	7.04758
