Adsorption isotherm of Methane on PAF-304
DOI: 10.1021/Jp402488r
Adsorbate Methane: InChIKey VNWKTOKETHGBQD-UHFFFAOYSA-N
Temperature: 298 K
Tabular data in the source: 0
pressure (bar)	uptake (cm3(STP)/cm3)
1.26279	1.3587
3.79065	5.43478
6.31851	9.51087
8.84636	13.587
11.7944	17.663
14.3245	23.0978
24.4405	42.1196
34.9721	58.4239
45.079	72.0109
54.3501	88.3152
64.8771	101.902
74.5616	114.13
84.6684	127.717
94.3528	139.946
104.453	149.457
