Adsorption isotherm of Hydrogen on PAF-302 (.5 mol)
DOI: 10.1021/Jp402488r
Adsorbate Hydrogen: InChIKey UFHFLCQGNIYNRP-UHFFFAOYSA-N
Temperature: 298 K
Tabular data in the source: 0
pressure (bar)	uptake (mmol/g)
4.3573	0.412029
6.53595	0.505895
9.58606	0.693381
12.4183	0.824751
15.0327	0.993464
25.2723	1.46267
35.0763	1.52058
44.8802	1.46633
54.4662	1.46812
64.7059	1.52611
74.9455	1.60279
84.3137	1.67931
94.5534	1.7373
104.139	1.92601
