Adsorption isotherm of Methane on PAF-302
DOI: 10.1021/Jp402488r
Adsorbate Methane: InChIKey VNWKTOKETHGBQD-UHFFFAOYSA-N
Temperature: 298 K
Tabular data in the source: 0
pressure (bar)	uptake (mg/g)
4.17933	33.7429
6.56991	56.2326
9.25617	77.3229
12.5359	98.4216
14.9265	120.911
25.3603	185.619
35.1932	240.494
45.0158	281.334
55.1268	310.949
64.6339	326.521
75.026	335.088
84.5248	339.432
94.9096	338.174
105.001	341.123
