Adsorption isotherm of Methane on PAF-303
DOI: 10.1021/Jp402488r
Adsorbate Methane: InChIKey VNWKTOKETHGBQD-UHFFFAOYSA-N
Temperature: 298 K
Tabular data in the source: 0
pressure (bar)	uptake (cm3(STP)/cm3)
4.18479	7.23618
7.5398	9.94975
10.8927	13.5678
13.4053	17.1859
15.4955	21.7085
25.5479	35.2764
35.6087	45.2261
45.2494	55.1759
54.4741	63.3166
64.9635	69.6482
74.1966	74.1709
84.268	79.598
93.9255	82.3116
104.01	82.3116
