Adsorption isotherm of Methane on PAF-303
DOI: 10.1021/Jp402488r
Adsorbate Methane: InChIKey VNWKTOKETHGBQD-UHFFFAOYSA-N
Temperature: 298 K
Tabular data in the source: 0
pressure (bar)	uptake (mg/g)
2.24359	133.811
4.03846	200.5
6.05769	244.696
9.42308	310.883
14.5833	533.445
19.7436	778.429
25.1282	1090.61
30.5128	1604.58
36.1218	2230.58
41.5064	3036.03
46.6667	3348.28
52.2756	3436.17
57.6603	3412.02
62.8205	3298.26
