Adsorption isotherm of Lead(II) Ion on PDA-Ms
DOI: 10.1021/acssuschemeng.7b00129
Article source: Figure S4
Adsorbate Lead(II) Ion: InChIKey RVPVRDXYQKGNMQ-UHFFFAOYSA-N
Kind: experiment
Temperature: 333 K
Tabular data in the source: 0
pressure (bar)	uptake (mg/g)
1.01325	18.7151
1.01325	29.0503
1.01325	40.2235
1.01325	44.1341
1.01325	46.648
1.01325	56.9832
1.01325	66.4804
1.01325	87.1508
