Adsorption isotherm of Lead(II) Ion on PDA-Ms
DOI: 10.1021/acssuschemeng.7b00129
Article source: Figure S4
Adsorbate Lead(II) Ion: InChIKey RVPVRDXYQKGNMQ-UHFFFAOYSA-N
Kind: experiment
Temperature: 293 K
Tabular data in the source: 0
pressure (bar)	uptake (mg/g)
1.01325	18.1564
1.01325	33.2402
1.01325	70.1117
1.01325	102.793
1.01325	117.877
1.01325	129.609
1.01325	158.939
1.01325	165.922
