Adsorption isotherm of Lead(II) Ion on PDA-Ms
DOI: 10.1021/acssuschemeng.7b00129
Article source: Figure S4
Adsorbate Lead(II) Ion: InChIKey RVPVRDXYQKGNMQ-UHFFFAOYSA-N
Kind: experiment
Temperature: 313 K
Tabular data in the source: 0
pressure (bar)	uptake (mg/g)
1.01325	14.8045
1.01325	28.2123
1.01325	46.9274
1.01325	63.1285
1.01325	87.9888
1.01325	104.19
1.01325	119.553
1.01325	125.14
