Adsorption isotherm of Nitrogen on ZIF-8 (BULK)
DOI: 10.1021/Jp5081466
Adsorbate Nitrogen: InChIKey IJGRMHOSHXDMSA-UHFFFAOYSA-N
Temperature: 77 K
Tabular data in the source: 0
pressure (bar)	uptake (cm3(STP)/g)
4.04726e-05	12.4405
7.01394e-05	25.905
9.49471e-05	36.6292
0.000132167	51.3454
0.000143728	64.6487
0.000160851	88.5815
0.00016511	77.971
0.000179726	99.2393
0.000200845	111.225
0.00023065	121.892
0.000243961	132.531
0.000258168	147.152
0.000288418	156.483
0.000331316	169.805
0.000360415	185.763
0.000402775	197.749
0.00045003	208.406
0.000546024	220.42
0.000662387	231.106
0.000849106	244.467
0.00105919	259.145
0.00132084	271.168
0.00173909	279.228
0.00262743	291.318
0.00419056	298.116
0.00468524	314.084
0.00482172	324.713
0.00496057	332.688
0.00636197	350.031
0.00654729	360.66
0.0065568	372.607
0.0065642	381.9
0.00675214	388.547
0.00675977	397.839
0.00677176	412.442
0.00716262	423.08
0.0192283	428.732
0.0332753	430.249
0.047514	429.045
0.0799874	429.225
0.124023	429.377
0.167672	429.481
0.290159	430.998
