Adsorption isotherm of Nitrogen on ZIF-8 (BULK)
DOI: 10.1021/Jp5081466
Adsorbate Nitrogen: InChIKey IJGRMHOSHXDMSA-UHFFFAOYSA-N
Temperature: 77 K
Tabular data in the source: 0
pressure (bar)	uptake (cm3(STP)/g)
4.15635e-05	5.81251
7.19618e-05	11.3121
0.00015971	30.1719
0.000255842	72.8128
0.000389665	151.277
0.00048844	205.78
0.00094827	251.142
0.00396444	292.787
0.00499599	391.097
0.00511495	359.247
0.0197152	408.829
0.0756836	425.223
0.392913	444.377
0.894965	451.299
