Adsorption isotherm of Nitrogen on ZIF-8 (BULK)
DOI: 10.1021/Jp5081466
Adsorbate Nitrogen: InChIKey IJGRMHOSHXDMSA-UHFFFAOYSA-N
Temperature: 77 K
Tabular data in the source: 0
pressure (bar)	uptake (cm3(STP)/g)
0.0530288	430.41
0.105231	430.647
0.142266	430.751
0.197648	429.538
0.239535	432.259
0.342034	431.055
0.488547	432.506
0.591894	432.572
0.757516	432.657
0.969323	431.415
