Adsorption isotherm of Nitrogen on ZIF-8
DOI: 10.1021/Jp5081466
Adsorbate Nitrogen: InChIKey IJGRMHOSHXDMSA-UHFFFAOYSA-N
Temperature: 77 K
Tabular data in the source: 0
pressure (bar)	uptake (cm3(STP)/g)
0.0565681	285.742
0.100791	301.871
0.152277	313.961
0.195045	320.684
0.223842	326.041
0.357531	344.787
0.434074	362.111
0.591703	429.917
0.73727	435.303
0.869217	436.687
0.997391	440.717
