Adsorption isotherm of Nitrogen on ZIF-8
DOI: 10.1021/Jp5081466
Adsorbate Nitrogen: InChIKey IJGRMHOSHXDMSA-UHFFFAOYSA-N
Temperature: 77 K
Tabular data in the source: 0
pressure (bar)	uptake (cm3(STP)/g)
1.05667e-05	14.6308
3.25711e-05	29.622
6.29683e-05	40.4695
9.00288e-05	49.8852
0.000125257	60.6189
0.000151999	73.9601
0.000189606	88.6384
0.000217707	97.9782
0.000257047	111.31
0.00030339	121.987
0.000358205	135.319
0.000459253	150.006
0.000604689	158.066
0.000841437	170.127
0.00117091	182.188
0.00181879	196.943
0.00306628	209.07
0.00502958	221.188
0.0084768	230.661
0.0117956	242.722
0.0173337	252.147
0.0254713	261.572
0.0354276	269.651
0.0479503	279.048
0.0581396	285.752
0.0786904	295.148
0.170034	319.309
0.311384	335.447
0.45824	356.82
0.572268	380.79
0.622929	402.059
0.777813	424.702
