Adsorption isotherm of Nitrogen on ZIF-8
DOI: 10.1021/Jp5081466
Adsorbate Nitrogen: InChIKey IJGRMHOSHXDMSA-UHFFFAOYSA-N
Temperature: 77 K
Tabular data in the source: 0
pressure (bar)	uptake (cm3(STP)/g)
9.71675e-06	1.32749
1.27812e-05	1.42231
1.68152e-05	2.84462
2.21183e-05	2.93944
2.90939e-05	3.03426
4.76619e-05	4.53243
6.26934e-05	4.62725
8.24786e-05	6.04956
0.000117867	11.4828
0.000155064	12.9051
0.00023416	21.0123
0.000326056	38.3834
0.00036431	49.0413
0.000406998	58.3716
0.00066944	93.057
0.000790136	103.734
0.000907239	113.074
0.00107064	122.423
0.00161935	143.805
0.00196382	151.836
0.00244738	158.55
0.00296744	165.253
0.00359925	174.612
0.00424758	183.962
0.00529251	189.347
0.00821962	202.774
0.0105279	209.497
0.0203663	225.654
0.0260736	228.395
0.0333912	233.79
0.041619	241.831
0.0611691	252.583
0.076217	257.969
0.0898859	262.009
0.100401	270.011
0.103844	321.793
0.106903	335.077
0.129664	344.436
0.15722	351.14
0.195929	357.853
0.231181	365.875
