Adsorption isotherm of Nitrogen on ZIF-8 (BULK)
DOI: 10.1021/Jp5081466
Adsorbate Nitrogen: InChIKey IJGRMHOSHXDMSA-UHFFFAOYSA-N
Temperature: 77 K
Tabular data in the source: 0
pressure (bar)	uptake (cm3(STP)/g)
9.97479e-06	2.7304
1.29447e-05	4.1249
1.67966e-05	4.15575
2.17942e-05	4.18661
2.82834e-05	5.58111
3.66997e-05	5.61197
4.64025e-05	7.00339
5.71797e-05	11.119
7.42048e-05	12.5135
0.000121877	23.4814
0.000154146	27.6001
0.000180423	37.1642
0.000205713	45.3616
0.000228556	54.9195
0.000247521	68.5653
0.000267979	79.4838
0.000314248	105.412
0.000340167	114.967
0.000349697	128.606
0.000399532	154.531
0.000444745	180.453
0.000468966	188.641
0.000594924	218.669
0.000661092	229.591
0.000753879	239.152
0.000882393	248.716
0.00103246	255.553
0.00145038	266.502
0.00174185	273.342
0.00238403	284.288
0.00309487	288.41
0.00343631	292.513
0.00446017	295.271
0.00485101	345.736
0.00495235	299.375
0.00496411	319.83
0.00499634	375.739
0.00527426	393.473
0.00780174	400.338
0.00986442	401.729
0.015372	408.6
0.019949	409.994
0.028006	415.489
0.0363456	416.884
0.0471674	418.278
0.0645152	423.77
0.0837243	425.164
0.105877	427.919
0.120643	430.662
0.148617	432.05
0.192899	434.809
0.231592	438.921
0.300549	440.316
0.390039	441.71
0.49316	443.102
0.623742	447.22
0.768494	449.972
0.997158	450.003
