Adsorption isotherm of Nitrogen on ZIF-8
DOI: 10.1021/Jp5081466
Adsorbate Nitrogen: InChIKey IJGRMHOSHXDMSA-UHFFFAOYSA-N
Temperature: 77 K
Tabular data in the source: 0
pressure (bar)	uptake (cm3(STP)/g)
0.000330356	31.9613
0.000428146	65.1128
0.000648293	92.8341
0.00108893	119.229
0.00219307	158.096
0.00453285	187.342
0.0127886	215.361
0.0214804	229.37
0.0492495	249.033
0.091766	267.22
0.09665	294.768
0.101794	315.435
0.138949	349.988
0.20501	363.935
0.294736	381.999
