Adsorption isotherm of Nitrogen on ZIF-8
DOI: 10.1021/Jp5081466
Adsorbate Nitrogen: InChIKey IJGRMHOSHXDMSA-UHFFFAOYSA-N
Temperature: 77 K
Tabular data in the source: 0
pressure (bar)	uptake (cm3(STP)/g)
9.97314e-06	1.37401
1.29429e-05	2.80372
1.67939e-05	2.86561
2.17912e-05	2.9275
2.82795e-05	4.35721
3.66946e-05	4.41911
4.63961e-05	5.84263
5.86438e-05	4.53051
7.61047e-05	5.96022
9.87667e-05	7.38993
0.0001249	10.1813
0.000157973	14.3404
0.000205041	17.138
0.000259336	21.2971
0.000311453	28.1795
0.000345821	32.3078
0.000404763	41.9196
0.000473764	51.5315
0.000554616	62.5112
0.000632662	74.8525
0.000703027	85.8198
0.000844582	95.4379
0.000988853	107.785
0.00121911	116.042
0.00146414	122.924
0.0017589	132.542
0.00211277	140.792
0.00260472	149.049
0.00312868	157.299
0.00375683	162.814
0.00463161	171.07
0.00570836	176.591
0.00703755	184.847
0.00867505	191.736
0.0106933	198.625
0.0131793	204.145
0.0166741	211.04
0.0205505	216.561
0.0253315	223.45
0.0616115	251.016
0.0684529	260.616
0.0703707	274.3
0.0704939	289.346
0.0706402	307.128
0.0726293	322.18
0.0943608	333.185
0.136034	342.846
0.2066	352.52
0.305606	359.452
