Adsorption isotherm of Nitrogen on ZIF-8 (BULK)
DOI: 10.1021/Jp5081466
Adsorbate Nitrogen: InChIKey IJGRMHOSHXDMSA-UHFFFAOYSA-N
Temperature: 77 K
Tabular data in the source: 0
pressure (bar)	uptake (cm3(STP)/g)
3.57752e-05	6.15681
6.62661e-05	10.995
0.000128763	20.555
0.000217617	54.8247
0.000297394	96.119
0.000417236	162.157
0.000571099	218.766
0.00122397	258.974
0.00324214	286.268
0.00510225	318.167
0.00524918	362.937
0.0066747	394.792
0.0297366	410.412
0.104551	427.162
0.283123	439.146
0.590449	445.186
1.06808	450.019
