Adsorption isotherm of Nitrogen on ZIF-8
DOI: 10.1021/Jp5081466
Adsorbate Nitrogen: InChIKey IJGRMHOSHXDMSA-UHFFFAOYSA-N
Temperature: 77 K
Tabular data in the source: 0
pressure (bar)	uptake (cm3(STP)/g)
8.59611e-05	7.51422
0.000201837	14.757
0.000384107	51.407
0.000749534	101.02
0.00189776	149.509
0.0054052	190.953
0.0199582	223.027
0.049203	243.238
0.102777	264.593
0.103263	309.358
0.116609	338.833
0.187631	356.601
0.294989	379.075
