Adsorption isotherm of Nitrogen on ZIF-8
DOI: 10.1021/Jp5081466
Adsorbate Nitrogen: InChIKey IJGRMHOSHXDMSA-UHFFFAOYSA-N
Temperature: 77 K
Tabular data in the source: 0
pressure (bar)	uptake (cm3(STP)/g)
1.01836e-05	3.52042
1.2887e-05	3.54438
1.59284e-05	3.56595
2.01568e-05	4.76179
2.55077e-05	4.78576
3.22791e-05	4.80972
4.0848e-05	4.83368
5.16919e-05	4.85765
6.54142e-05	4.88161
8.27793e-05	6.07745
0.000104754	7.27329
0.000109805	4.93434
0.000138955	7.30205
0.000171748	9.66737
0.000217341	10.8632
0.000268641	12.0567
0.000332041	16.7657
0.000410414	21.4748
0.00048394	27.3509
0.000584241	33.2295
0.000688924	40.2775
0.000812347	47.3255
0.000980712	52.0322
0.00118397	61.4264
0.00139608	68.4744
0.00168543	73.1811
0.00198743	80.2291
0.00239934	86.1076
0.00296559	91.9886
0.00358024	97.8671
0.00422174	104.915
0.00497808	110.791
0.00587005	116.667
0.00692168	123.715
0.00835626	129.594
0.0100882	136.644
0.0118955	142.521
0.0143609	148.399
0.0169341	153.103
0.0204438	158.982
0.0258709	161.35
0.0319766	166.059
0.038604	171.937
0.0477157	175.475
0.0589769	179.012
0.0728974	181.377
0.092249	184.917
0.111367	189.623
0.137651	191.989
0.17014	196.698
0.210295	200.235
0.259929	202.6
0.32893	204.968
0.397104	209.675
0.490826	213.212
0.592554	217.918
