Adsorption isotherm of Nitrogen on 3D-Py-COF
DOI: 10.1021/jacs.6b00652
Article source: Figure 3
Adsorbate Nitrogen: InChIKey IJGRMHOSHXDMSA-UHFFFAOYSA-N
Kind: experiment
Isotherm type: excess
Temperature: 273 K
Tabular data in the source: 0
pressure (bar)	uptake (cm3(STP)/g)
0.016787	-0.121581
0.039568	0.243161
0.065947	0.486322
0.093525	0.729483
0.121103	0.972644
0.147482	1.21581
0.172662	1.33739
0.199041	1.70213
0.22542	1.82371
0.2506	2.06687
0.279376	2.31003
0.305755	2.67477
0.333333	2.67477
0.358513	3.03951
0.384892	3.03951
0.41247	3.28268
0.440048	3.40425
0.466427	3.64742
0.491607	3.64742
0.520384	3.769
0.546763	4.13374
0.574341	4.13374
0.600719	4.25532
0.6247	4.49848
0.655875	4.62006
0.683453	4.74164
0.706235	4.86322
0.735012	4.86322
0.760192	5.22796
0.786571	5.22796
0.81295	5.22796
0.840528	5.47113
0.868106	5.47113
0.892086	5.5927
0.919664	5.83587
0.946043	5.95745
0.973621	5.95745
1.0012	5.95745
1.02638	6.20061
1.05276	6.20061
1.07914	6.32219
