Adsorption isotherm of Carbon Dioxide on 3D-Py-COF
DOI: 10.1021/jacs.6b00652
Article source: Figure S11
Adsorbate Carbon Dioxide: InChIKey CURLTUGMZLYLDI-UHFFFAOYSA-N
Kind: experiment
Isotherm type: excess
Temperature: 295 K
Tabular data in the source: 0
pressure (bar)	uptake (cm3(STP)/g)
0.015288	1.03347
0.044475	2.90354
0.066713	4.23228
0.09312	5.75787
0.119527	7.38189
0.14663	9.00591
0.172342	10.4823
0.199444	11.9587
0.226546	13.5827
0.253648	15.0098
0.280056	16.4862
0.306463	17.8642
0.33287	19.3898
0.359972	20.7677
0.387074	22.1949
0.413482	23.5236
0.440584	24.9508
0.466991	26.2303
0.493398	27.6083
0.519805	28.8878
0.546908	30.1673
0.57262	31.3976
0.599722	32.628
0.625434	33.8091
0.653231	34.9902
0.680334	36.122
0.706741	37.2539
0.733148	38.3366
0.759555	39.5177
0.786657	40.6496
0.81376	41.6831
0.839472	42.7657
0.865879	43.75
0.892981	44.7343
0.918694	45.6693
0.947186	46.6043
0.972203	47.5886
0.999305	48.5236
1.02641	49.3602
1.05281	50.1968
1.07992	51.1319
