Adsorption isotherm of Carbon Dioxide on 3D-Py-COF
DOI: 10.1021/jacs.6b00652
Article source: Figure 3
Adsorbate Carbon Dioxide: InChIKey CURLTUGMZLYLDI-UHFFFAOYSA-N
Kind: experiment
Isotherm type: excess
Temperature: 273 K
Tabular data in the source: 0
pressure (bar)	uptake (cm3(STP)/g)
0.014388	1.82371
0.044365	4.86322
0.065947	7.17325
0.093525	9.96961
0.118705	12.6444
0.146283	15.5623
0.173861	18.2371
0.20024	20.7903
0.22542	23.465
0.251799	26.0182
0.280576	28.4498
0.306954	31.1246
0.332134	33.3131
0.359712	35.8663
0.38729	37.9331
0.414868	40.4863
0.440048	42.4316
0.466427	44.7416
0.494005	46.8085
0.520384	48.6322
0.546763	50.5775
0.573141	52.4012
0.601918	54.3465
0.627098	55.9271
0.654676	57.7508
0.681055	59.3313
0.707434	60.9119
0.732614	62.2492
0.758993	63.9514
0.786571	65.2888
0.81295	66.7477
0.840528	68.0851
0.866906	69.1793
0.893285	70.3951
0.919664	71.8541
0.946043	72.9483
0.973621	74.0426
0.998801	75.0152
1.02638	76.231
1.05276	77.3252
1.08034	78.4195
