Adsorption isotherm of Nitrogen on 3D-Py-COF
DOI: 10.1021/jacs.6b00652
Article source: Figure S11
Adsorbate Nitrogen: InChIKey IJGRMHOSHXDMSA-UHFFFAOYSA-N
Kind: experiment
Isotherm type: excess
Temperature: 295 K
Tabular data in the source: 0
pressure (bar)	uptake (cm3(STP)/g)
0.015983	0.098425
0.041696	0.344488
0.066713	0.639764
0.092425	0.885827
0.119527	0.836614
0.14524	1.08268
0.172342	1.23031
0.199444	1.37795
0.225156	1.47638
0.252259	1.72244
0.280751	1.87008
0.305768	2.01772
0.332175	2.06693
0.359277	2.21457
0.386379	2.36221
0.414177	2.50984
0.439194	2.60827
0.467686	2.75591
0.493398	2.85433
0.5205	3.00197
0.546908	3.05118
0.573315	3.19882
0.601112	3.29724
0.626129	3.34646
0.653231	3.49409
0.679639	3.54331
0.706741	3.59252
0.733843	3.78937
0.76025	3.88779
0.785962	3.98622
0.81376	4.03543
0.839472	4.13386
0.866574	4.18307
0.892981	4.2815
0.920083	4.37992
0.946491	4.37992
0.972203	4.42913
0.999305	4.52756
1.02641	4.57677
1.05281	4.6752
1.07922	4.6752
