Adsorption isotherm of Nitrogen on 3D-Py-COF
DOI: 10.1021/jacs.6b00652
Article source: Figure 3
Adsorbate Nitrogen: InChIKey IJGRMHOSHXDMSA-UHFFFAOYSA-N
Kind: experiment
Isotherm type: excess
Temperature: 77 K
Tabular data in the source: 0
pressure (bar)	uptake (cm3(STP)/g)
0.002252	2.11864
0.001126	81.2147
0.002252	111.582
0.002252	125.706
0.001126	139.124
0.002252	144.774
0.002252	151.13
0.002252	157.486
0.003377	230.226
0.003377	235.876
0.003377	245.763
0.004503	251.412
0.005629	256.356
0.007881	264.831
0.012384	280.367
0.016888	284.605
0.023642	289.548
0.029272	295.198
0.039404	302.966
0.049537	307.203
0.059669	311.441
0.070928	315.678
0.077683	317.09
0.095696	321.328
0.110332	324.153
0.122716	326.271
0.136226	329.096
0.150862	331.921
0.165497	331.921
0.180133	334.746
0.200398	336.158
0.291591	341.808
0.380532	348.87
0.468347	353.814
0.556162	358.051
0.647354	361.582
0.736295	366.525
0.825236	372.175
0.911925	379.237
1.00312	461.158
0.003377	225.989
0.002252	240.113
0.004503	246.469
0.004503	254.237
0.005629	259.887
0.010133	268.362
0.014636	281.78
0.021391	290.254
0.025894	300.141
0.037153	305.791
0.041656	307.203
0.052914	312.853
0.061921	313.559
0.070928	317.797
0.079934	320.621
0.088941	322.74
0.099073	324.859
0.10808	326.271
0.12159	329.096
0.128345	329.096
0.1351	331.215
0.142981	332.627
0.154239	332.627
0.158743	334.04
0.170001	334.04
0.181259	335.452
0.276955	343.22
0.368147	348.164
0.45934	353.107
0.548281	358.757
0.641725	362.288
0.731792	366.525
0.819607	372.175
0.913051	379.237
1.00199	458.333
