Adsorption isotherm of Malachite green, Acid Yellow 17, Water on Corn Cob/Chitosan Film
DOI: 10.17344/acsi.2016.2983
Article source: Figures 11 and 12
Adsorbate Malachite green: InChIKey FDZZZRQASAIRJF-UHFFFAOYSA-M
Adsorbate Acid Yellow 17: InChIKey FTZLWXQKVFFWLY-UHFFFAOYSA-L
Adsorbate Water: InChIKey XLYOFNOQVPJJNP-UHFFFAOYSA-N
Kind: experiment
Temperature: 298 K
Tabular data in the source: 0
pressure (bar)	Malachite green fraction	Malachite green uptake (mg/g)	Acid Yellow 17 fraction	Acid Yellow 17 uptake (mg/g)	Water fraction	Water uptake (mg/g)	total uptake (mg/g)
1.01325	0.30943	7.35407	26.26	1.68118			
1.01325	0.4844	10.2073	36.282	1.36862			
1.01325	0.61345	12.9935	44.264	0.584189			
1.01325	0.70571	14.4287	52.504	0.516264			
1.01325	1.16726	17.5433	70.46	0.366254			
