Adsorption isotherm of Cadmium(II) Ion on MKPP
DOI: 10.1039/c6ra25295h
Article source: Figure 13b
Adsorbate Cadmium(II) Ion: InChIKey WLZRMCYVCSSEQC-UHFFFAOYSA-N
Kind: experiment
Temperature: 318 K
Tabular data in the source: 0
pressure (bar)	uptake (mg/g)
1.01325	0.7669
1.01325	1.5238
1.01325	1.6353
1.01325	2.4979
1.01325	2.4758
1.01325	1.922
1.01325	1.8686
