Adsorption isotherm of Cadmium(II) Ion on MKPP
DOI: 10.1039/c6ra25295h
Article source: Figure 13b
Adsorbate Cadmium(II) Ion: InChIKey WLZRMCYVCSSEQC-UHFFFAOYSA-N
Kind: experiment
Temperature: 308 K
Tabular data in the source: 0
pressure (bar)	uptake (mg/g)
1.01325	0.8673
1.01325	1.748
1.01325	2.1771
1.01325	2.643
1.01325	2.3458
1.01325	2.2279
1.01325	2.41
