Adsorption isotherm of Lead(II) Ion on MKPP
DOI: 10.1039/c6ra25295h
Article source: Figure 12b
Adsorbate Lead(II) Ion: InChIKey RVPVRDXYQKGNMQ-UHFFFAOYSA-N
Kind: experiment
Temperature: 298 K
Tabular data in the source: 0
pressure (bar)	uptake (mg/g)
1.01325	0.5347
1.01325	1.9222
1.01325	3.6184
1.01325	4.4079
1.01325	7.8358
1.01325	10.4586
1.01325	11.1072
1.01325	12.645
