Adsorption isotherm of Lead(II) Ion on KPP
DOI: 10.1039/c6ra25295h
Article source: Figure 12a
Adsorbate Lead(II) Ion: InChIKey RVPVRDXYQKGNMQ-UHFFFAOYSA-N
Kind: experiment
Temperature: 308 K
Tabular data in the source: 0
pressure (bar)	uptake (mg/g)
1.01325	8.94
1.01325	16.135
1.01325	19.325
1.01325	27.004
1.01325	32.028
1.01325	23.613
1.01325	18.191
