Adsorption isotherm of Lead(II) Ion on MKPP
DOI: 10.1039/c6ra25295h
Article source: Figure 12b
Adsorbate Lead(II) Ion: InChIKey RVPVRDXYQKGNMQ-UHFFFAOYSA-N
Kind: experiment
Temperature: 318 K
Tabular data in the source: 0
pressure (bar)	uptake (mg/g)
1.01325	0.8957
1.01325	2.2607
1.01325	4.4637
1.01325	8.0419
1.01325	11.5484
1.01325	17.7137
1.01325	20.2869
1.01325	16.9217
