Adsorption isotherm of Cadmium(II) Ion on KPP
DOI: 10.1039/c6ra25295h
Article source: Figure 13a
Adsorbate Cadmium(II) Ion: InChIKey WLZRMCYVCSSEQC-UHFFFAOYSA-N
Kind: experiment
Temperature: 318 K
Tabular data in the source: 0
pressure (bar)	uptake (mg/g)
1.01325	1.6781
1.01325	3.7283
1.01325	5.4062
1.01325	9.1207
1.01325	9.439
1.01325	6.895
1.01325	5.9063
