Adsorption isotherm of Lead(II) Ion on MKPP
DOI: 10.1039/c6ra25295h
Article source: Figure 12b
Adsorbate Lead(II) Ion: InChIKey RVPVRDXYQKGNMQ-UHFFFAOYSA-N
Kind: experiment
Temperature: 308 K
Tabular data in the source: 0
pressure (bar)	uptake (mg/g)
1.01325	4.1398
1.01325	7.9021
1.01325	10.3122
1.01325	14.5543
1.01325	17.302
1.01325	17.0875
