Adsorption isotherm of Lead(II) Ion on KPP
DOI: 10.1039/c6ra25295h
Article source: Figure 12a
Adsorbate Lead(II) Ion: InChIKey RVPVRDXYQKGNMQ-UHFFFAOYSA-N
Kind: experiment
Temperature: 298 K
Tabular data in the source: 0
pressure (bar)	uptake (mg/g)
1.01325	1.758
1.01325	9.206
1.01325	4.615
1.01325	1.245
1.01325	8.478
1.01325	8.907
1.01325	16.4
1.01325	15.952
1.01325	16.023
1.01325	17.263
1.01325	18.133
1.01325	16.267
