Adsorption isotherm of Cadmium(II) Ion on MKPP
DOI: 10.1039/c6ra25295h
Article source: Figure 13b
Adsorbate Cadmium(II) Ion: InChIKey WLZRMCYVCSSEQC-UHFFFAOYSA-N
Kind: experiment
Temperature: 308 K
Tabular data in the source: 0
pressure (bar)	uptake (mg/g)
1.01325	0.7808
1.01325	2.1568
1.01325	3.2552
1.01325	3.3459
1.01325	3.7997
1.01325	5.4564
1.01325	4.7072
1.01325	5.4115
