Adsorption isotherm of Cadmium(II) Ion on KPP
DOI: 10.1039/c6ra25295h
Article source: Figure 13a
Adsorbate Cadmium(II) Ion: InChIKey WLZRMCYVCSSEQC-UHFFFAOYSA-N
Kind: experiment
Temperature: 308 K
Tabular data in the source: 0
pressure (bar)	uptake (mg/g)
1.01325	1.688
1.01325	3.6522
1.01325	5.1704
1.01325	9.072
1.01325	10.4595
1.01325	6.5659
