Adsorption isotherm of Lead(II) Ion on KPP
DOI: 10.1039/c6ra25295h
Article source: Figure 12a
Adsorbate Lead(II) Ion: InChIKey RVPVRDXYQKGNMQ-UHFFFAOYSA-N
Kind: experiment
Temperature: 318 K
Tabular data in the source: 0
pressure (bar)	uptake (mg/g)
1.01325	9.294
1.01325	16.788
1.01325	19.007
1.01325	30.5
1.01325	30.752
1.01325	24.597
1.01325	18.012
