Adsorption isotherm of Cadmium(II) Ion on KPP
DOI: 10.1039/c6ra25295h
Article source: Figure 13a
Adsorbate Cadmium(II) Ion: InChIKey WLZRMCYVCSSEQC-UHFFFAOYSA-N
Kind: experiment
Temperature: 298 K
Tabular data in the source: 0
pressure (bar)	uptake (mg/g)
1.01325	1.6984
1.01325	3.9061
1.01325	5.9168
1.01325	11.1609
1.01325	11.6827
1.01325	9.2291
1.01325	9.4454
1.01325	11.6925
