Adsorption isotherm of Nitrogen on IRMOF-1
DOI: 10.1016/j.seppur.2008.10.022
Adsorbate Nitrogen: InChIKey IJGRMHOSHXDMSA-UHFFFAOYSA-N
Temperature: 77 K
Tabular data in the source: 0
pressure (bar)	uptake (cm3(STP)/g)
0.00611019	0.00611019
0.00916528	657.627
0.0152755	725.424
0.0213857	759.322
0.0305509	789.831
0.0488815	816.949
0.0763774	830.508
0.103873	844.068
0.134424	850.847
0.16192	857.627
0.192471	864.407
0.219967	871.186
0.250518	874.576
0.281069	881.356
0.31162	884.746
0.339115	888.136
0.369666	888.136
0.400217	891.525
0.430768	894.915
0.461319	894.915
0.49187	894.915
0.522421	898.305
0.552972	898.305
0.583523	898.305
0.614074	898.305
0.644625	898.305
0.675176	898.305
0.705727	898.305
0.736278	898.305
0.766829	898.305
0.794325	901.695
0.82182	898.305
0.852371	898.305
0.882922	898.305
0.913473	898.305
