Adsorption isotherm of Hydrogen on IRMOF-1
DOI: 10.1016/j.seppur.2008.10.022
Adsorbate Hydrogen: InChIKey UFHFLCQGNIYNRP-UHFFFAOYSA-N
Temperature: 77 K
Tabular data in the source: 0
pressure (bar)	uptake (wt%)
0.304569	0.528168
1.82741	1.53127
3.95939	2.16429
7.00508	2.90258
9.13706	3.27145
14.6193	4.16715
17.0558	4.48306
19.4924	4.79897
21.9289	5.11487
24.3655	5.37795
26.802	5.64103
31.3706	6.11449
34.1117	6.3246
36.5482	6.64051
39.2893	6.85063
42.0305	7.06074
44.7716	7.32369
47.8173	7.53367
55.1269	8.11158
57.5635	8.32183
60.6091	8.47898
63.6548	8.68896
66.3959	8.89907
69.4416	9.05622
72.1827	9.2135
74.9239	9.42362
77.665	9.5809
80.7107	9.79088
83.7563	9.94803
86.4975	10.1053
89.2386	10.2626
92.2843	10.4197
95.0254	10.577
97.7665	10.7343
100.812	10.8915
103.553	11.0488
106.599	11.2059
109.34	11.3632
112.386	11.4675
115.127	11.6248
117.868	11.7821
