Adsorption isotherm of Hydrogen on IRMOF-1
DOI: 10.1016/j.seppur.2008.10.022
Adsorbate Hydrogen: InChIKey UFHFLCQGNIYNRP-UHFFFAOYSA-N
Temperature: 77 K
Tabular data in the source: 0
pressure (bar)	uptake (wt%)
0.304569	0.0530303
5.17766	2.54545
9.74619	3.44697
30.1523	5.7803
49.9492	7.5303
79.797	9.49242
99.8985	11.7197
120.305	11.7727
