Adsorption isotherm of Hydrogen on IRMOF-1
DOI: 10.1016/j.seppur.2008.10.022
Adsorbate Hydrogen: InChIKey UFHFLCQGNIYNRP-UHFFFAOYSA-N
Temperature: 298 K
Tabular data in the source: 0
pressure (bar)	uptake (wt%)
0.020543	0.00044
0.07298	0.00184359
0.122795	0.00297322
0.167367	0.00382359
0.183098	0.00372861
0.211938	0.00412329
0.2434	0.00444649
0.266997	0.00444649
0.290593	0.00479502
0.332543	0.00491717
0.348274	0.00517087
0.390224	0.00586388
0.432173	0.00601326
0.461014	0.00601326
0.531804	0.00664978
0.586862	0.00717101
0.599972	0.00717101
0.62619	0.00699288
0.662896	0.00793009
0.678627	0.00793009
0.731064	0.00813209
0.780879	0.00876951
0.822829	0.00945689
0.846425	0.00945689
0.859535	0.00945689
0.893619	0.00994483
0.943434	0.0107243
0.974896	0.0109975
1.01947	0.0107243
