Adsorption isotherm of Hydrogen on IRMOF-1
DOI: 10.1016/j.seppur.2008.10.022
Adsorbate Hydrogen: InChIKey UFHFLCQGNIYNRP-UHFFFAOYSA-N
Temperature: 77 K
Tabular data in the source: 0
pressure (bar)	uptake (wt%)
0.913706	0.58073
2.13198	1.1085
2.74112	1.53087
3.95939	1.95297
6.09137	2.90298
7.91878	3.32482
9.44162	3.74679
11.269	4.22145
12.7919	4.59059
14.9239	5.0123
17.3604	5.32821
19.1878	5.64438
21.9289	5.96016
24.3655	6.3289
26.802	6.59197
29.5431	6.74926
31.9797	7.06517
35.0254	7.22232
37.7665	7.43243
41.1168	7.64228
43.5533	7.74686
46.2944	7.90415
48.731	8.06156
51.7766	8.16588
55.1269	8.21724
57.5635	8.37466
63.0457	8.4779
66.0914	8.58222
68.8325	8.63385
71.5736	8.68547
74.0102	8.79006
77.0558	8.89438
80.1015	8.94587
82.8426	8.94466
85.5838	9.04911
88.6294	9.04777
91.3706	9.0994
93.8071	9.15115
96.5482	9.20278
99.2893	9.2544
102.335	9.30589
105.381	9.41021
108.122	9.35617
111.168	9.40766
113.909	9.40646
117.563	9.45768
120.305	9.5093
