Adsorption isotherm of Hydrogen on IRMOF-1
DOI: 10.1016/j.seppur.2008.10.022
Adsorbate Hydrogen: InChIKey UFHFLCQGNIYNRP-UHFFFAOYSA-N
Temperature: 195 K
Tabular data in the source: 0
pressure (bar)	uptake (wt%)
0.0100557	0.00601326
0.0441397	0.0177361
0.0703582	0.0272002
0.14377	0.0536451
0.167367	0.0608348
0.180476	0.0656032
0.230291	0.0843662
0.261753	0.10061
0.332543	0.11998
0.348274	0.126171
0.369249	0.14308
0.403333	0.158226
0.458392	0.174975
0.531804	0.20348
0.594728	0.225019
0.662896	0.242657
0.72582	0.268343
0.746795	0.268343
0.762526	0.282188
0.801854	0.282188
0.854291	0.296748
0.925081	0.328159
0.977518	0.353881
1.0116	0.362896
1.02995	0.362896
1.05355	0.38162
