Adsorption isotherm of Nitrogen on MIL-101(Cr)-SO‚ÇÉAg
DOI: 10.1016/j.apsusc.2015.05.186
Article source: Figure  1b
Adsorbate Nitrogen: InChIKey IJGRMHOSHXDMSA-UHFFFAOYSA-N
Kind: experiment
Temperature: 77 K
Tabular data in the source: 0
pressure (bar)	uptake (cm3(STP)/g)
0.004286	103.64
0.004793	114.41
0.006029	129.32
0.008288	138.64
0.016719	153.44
0.021967	166.79
0.030094	175.8
0.039253	183.04
0.04821	190.39
0.057877	202.5
0.071566	208.81
0.085255	218.54
0.092348	223.92
0.102744	229.93
0.120962	239.24
0.132999	244.41
0.146384	247.62
0.158523	252.79
0.176539	258.79
0.192072	268.93
0.197938	273.28
0.233858	284.24
0.245804	283.83
0.260415	288.79
0.280387	290.34
0.300044	287.95
0.306427	291.37
0.350372	290.73
0.352945	292.18
0.400913	292.48
0.403902	295.68
0.44816	294.74
0.455669	298.57
0.499005	297.42
0.505176	301.04
0.550053	299.88
0.55747	303.3
0.599874	302.67
0.607281	306.29
0.650101	305.76
0.656485	309.17
0.701463	307.81
0.706509	311.12
0.752622	312.14
0.757455	313.18
0.801207	315.13
0.809232	316.79
0.852052	319.78
0.907629	325.56
0.943751	335.8
0.95899	336.21
0.968444	374.82
0.977482	433.84
0.980178	366.22
0.985274	524.12
0.986754	409.5
0.989763	619.89
0.994981	706.65
0.998467	455.37
0.998609	453.44
0.999581	796.52
