Adsorption isotherm of Nitrogen on MIL-101(Cr)-SO‚ÇÉH
DOI: 10.1016/j.apsusc.2015.05.186
Article source: Figure  1b
Adsorbate Nitrogen: InChIKey IJGRMHOSHXDMSA-UHFFFAOYSA-N
Kind: experiment
Temperature: 77 K
Tabular data in the source: 0
pressure (bar)	uptake (cm3(STP)/g)
0.004772	168.71
0.004783	168.25
0.004985	154.89
0.004995	117.86
0.004995	115.97
0.005005	114.82
0.005107	101.47
0.005117	100.61
0.005117	99.58
0.00533	61.4
0.00534	48.04
0.005441	20.18
0.005451	21.02
0.006718	205.62
0.008258	226.75
0.012159	253.87
0.020691	278.93
0.028817	297.46
0.037764	310.91
0.040337	322.09
0.043215	330.07
0.047228	335.45
0.058343	346.42
0.063075	358.22
0.068323	364.64
0.083238	380.99
0.090949	390.1
0.097231	395.49
0.112876	405.11
0.118743	408.73
0.128409	413.28
0.145087	422.39
0.152494	427.26
0.170196	444.33
0.17513	442.88
0.191899	471.04
0.195709	475.49
0.206723	478.7
0.244801	482.1
0.248925	481.59
0.257355	483.96
0.275168	484.78
0.295342	485.71
0.303884	489.64
0.345366	491.29
0.351233	493.15
0.397032	495
0.400639	497.27
0.447056	498.3
0.45271	504.2
0.498215	502.32
0.504183	507.18
0.548644	507.48
0.555332	510.38
0.599084	511.5
0.604941	515.85
0.648895	516.15
0.656414	518.73
0.700976	519.03
0.706945	521.93
0.751305	524.92
0.755327	526.05
0.804419	530.49
0.807094	532.15
0.853623	534.72
0.85496	534.74
0.904153	542.16
0.931116	548.98
0.954897	558.81
0.958808	555.91
0.978151	582.21
0.988952	589.35
1.00653	653.53
