Adsorption isotherm of Benzene, Water on Activated carbon: Shirasagi S
DOI: 10.1252/jcej.11.209
Article source: Table 2
Adsorbate Benzene: InChIKey UHOVQNZJYSORNB-UHFFFAOYSA-N
Adsorbate Water: InChIKey XLYOFNOQVPJJNP-UHFFFAOYSA-N
Kind: experiment
Temperature: 303 K
Tabular data in the source: 0
pressure (bar)	Benzene fraction	Benzene uptake (g/g)	Water fraction	Water uptake (g/g)	total uptake (g/g)
0.030457	0.00197	0.11	0.99803	0.229	
0.030211	0.002648	0.14	0.997352	0.185	
0.0301	0.003411	0.133	0.996589	0.178	
0.03014	0.004733	0.163	0.995267	0.139	
0.031213	0.013326	0.238	0.986674	0.079	
0.030516	0.021364	0.269	0.978636	0.031	
0.037572	0.002874	0.068	0.997126	0.274	
0.037045	0.003095	0.076	0.996905	0.253	
0.037681	0.005767	0.108	0.994233	0.221	
0.037746	0.007488	0.142	0.992512	0.196	
0.038613	0.009046	0.175	0.990954	0.16	
0.037881	0.011016	0.173	0.988984	0.15	
0.037773	0.015248	0.212	0.984752	0.147	
0.037998	0.021087	0.22	0.978913	0.121	
