Adsorption isotherm of Methanol, Water on Activated carbon: HGI-780
DOI: 10.1252/jcej.11.209
Article source: Table 2
Adsorbate Methanol: InChIKey OKKJLVBELUTLKV-UHFFFAOYSA-N
Adsorbate Water: InChIKey XLYOFNOQVPJJNP-UHFFFAOYSA-N
Kind: experiment
Temperature: 303 K
Tabular data in the source: 0
pressure (bar)	Methanol fraction	Methanol uptake (g/g)	Water fraction	Water uptake (g/g)	total uptake (g/g)
0.042879	0.154281	0.053	0.845719	0.193	
0.044427	0.360802	0.109	0.639198	0.117	
0.059346	0.501269	0.122	0.498731	0.126	
0.058526	0.54212	0.13	0.45788	0.096	
0.062514	0.599053	0.142	0.400947	0.079	
0.073301	0.614405	0.153	0.385595	0.105	
