Adsorption isotherm of Acetone, Water on Activated carbon: Shirasagi S
DOI: 10.1252/jcej.11.209
Article source: Table 2
Adsorbate Acetone: InChIKey CSCPPACGZOOCGX-UHFFFAOYSA-N
Adsorbate Water: InChIKey XLYOFNOQVPJJNP-UHFFFAOYSA-N
Kind: experiment
Temperature: 303 K
Tabular data in the source: 0
pressure (bar)	Acetone fraction	Acetone uptake (g/g)	Water fraction	Water uptake (g/g)	total uptake (g/g)
0.034331	0.005825	0.043	0.994175	0.323	
0.035085	0.027208	0.092	0.972792	0.259	
0.033867	0.039446	0.098	0.960554	0.223	
0.03258	0.054712	0.129	0.945288	0.225	
0.036438	0.103582	0.195	0.896418	0.135	
0.039894	0.204625	0.236	0.795375	0.089	
0.041975	0.29488	0.276	0.70512	0.059	
