Adsorption isotherm of Acetone, Water on Activated carbon: HGI-780
DOI: 10.1252/jcej.11.209
Article source: Table 2
Adsorbate Acetone: InChIKey CSCPPACGZOOCGX-UHFFFAOYSA-N
Adsorbate Water: InChIKey XLYOFNOQVPJJNP-UHFFFAOYSA-N
Kind: experiment
Temperature: 303 K
Tabular data in the source: 0
pressure (bar)	Acetone fraction	Acetone uptake (g/g)	Water fraction	Water uptake (g/g)	total uptake (g/g)
0.038314	0.018721	0.076	0.981279	0.181	
0.032795	0.036507	0.101	0.963493	0.161	
0.035918	0.034928	0.079	0.965072	0.184	
0.037853	0.073683	0.098	0.926317	0.137	
0.039903	0.081189	0.108	0.918811	0.133	
0.039838	0.109802	0.133	0.890198	0.116	
0.033427	0.154435	0.159	0.845565	0.05	
0.041065	0.149378	0.149	0.850622	0.081	
0.047468	0.387709	0.165	0.612291	0.046	
