Adsorption isotherm of Methanol, Water on Activated carbon: Shirasagi S
DOI: 10.1252/jcej.11.209
Article source: Table 2
Adsorbate Methanol: InChIKey OKKJLVBELUTLKV-UHFFFAOYSA-N
Adsorbate Water: InChIKey XLYOFNOQVPJJNP-UHFFFAOYSA-N
Kind: experiment
Temperature: 303 K
Tabular data in the source: 0
pressure (bar)	Methanol fraction	Methanol uptake (g/g)	Water fraction	Water uptake (g/g)	total uptake (g/g)
0.044023	0.133858	0.023	0.866142	0.338	
0.039987	0.149802	0.053	0.850198	0.267	
0.038577	0.160187	0.069	0.839813	0.278	
0.043495	0.199975	0.112	0.800025	0.242	
0.040194	0.227146	0.119	0.772854	0.219	
0.065103	0.582233	0.166	0.417767	0.16	
