Adsorption isotherm of Water, Toluene on Activated carbon: Shirasagi S
DOI: 10.1252/jcej.11.209
Article source: Table 2
Adsorbate Water: InChIKey XLYOFNOQVPJJNP-UHFFFAOYSA-N
Adsorbate Toluene: InChIKey YXFVVABEGXRONW-UHFFFAOYSA-N
Kind: experiment
Temperature: 303 K
Tabular data in the source: 0
pressure (bar)	Water fraction	Water uptake (g/g)	Toluene fraction	Toluene uptake (g/g)	total uptake (g/g)
0.03138	0.998428	0.084	0.001572	0.242	
0.031433	0.996734	0.048	0.003266	0.27	
0.032059	0.977294	0.013	0.022706	0.318	
0.027248	0.998141	0.018	0.001859	0.259	
0.027298	0.996337	0.013	0.003663	0.289	
0.027618	0.984794	0.01	0.015206	0.32	
