Adsorption isotherm of Hydrogen on IRMOF-16
DOI: 10.1039/B804343d
Adsorbate Hydrogen: InChIKey UFHFLCQGNIYNRP-UHFFFAOYSA-N
Temperature: 298 K
Tabular data in the source: 0
pressure (bar)	uptake (mmol/g)
3.68505	0.743466
5.98891	1.28396
8.06101	1.62212
10.1344	2.09508
15.2019	3.17632
20.0388	4.19003
25.3362	5.2714
29.9421	6.15018
34.5485	7.09637
40.0752	8.11046
46.0622	9.19222
54.8135	10.8821
60.1103	11.8961
65.8668	12.9103
73.2363	14.3299
80.1441	15.5469
85.9	16.4938
94.1896	17.9812
100.176	18.9956
109.615	20.4837
114.681	21.4301
120.435	22.1747
