Adsorption isotherm of Hydrogen on IRMOF-16
DOI: 10.1039/B804343d
Adsorbate Hydrogen: InChIKey UFHFLCQGNIYNRP-UHFFFAOYSA-N
Temperature: 77 K
Tabular data in the source: 0
pressure (bar)	uptake (mmol/g)
2.53469	15.991
7.63373	32.4922
9.90539	36.9961
11.6051	42.4965
20.1264	58.0131
30.0729	73.5356
40.0233	87.0605
59.9393	106.12
79.5769	121.683
99.7961	131.256
119.731	140.328
