Adsorption isotherm of Hydrogen on IRMOF-16
DOI: 10.1039/B804343d
Adsorbate Hydrogen: InChIKey UFHFLCQGNIYNRP-UHFFFAOYSA-N
Temperature: 77 K
Tabular data in the source: 0
pressure (bar)	uptake (mmol/g)
0.548067	11.4883
3.94934	21.4902
5.93596	25.993
7.92354	29.9964
10.4821	33.5028
12.4726	36.008
15.0312	39.5144
17.3086	41.0221
20.1542	43.5309
22.4296	46.0373
26.1303	48.5496
30.116	51.0632
35.5268	53.5826
40.0835	55.5992
43.7861	57.1127
48.3438	58.6299
54.0406	60.6512
59.7384	62.173
66.0063	63.6973
73.1292	65.2251
79.9672	66.7517
85.9519	67.276
92.2198	68.8003
99.9138	69.8311
108.463	70.8654
115.303	71.3933
119.862	71.9117
