Adsorption isotherm of Hydrogen on IRMOF-10
DOI: 10.1039/B804343d
Adsorbate Hydrogen: InChIKey UFHFLCQGNIYNRP-UHFFFAOYSA-N
Temperature: 298 K
Tabular data in the source: 0
pressure (bar)	uptake (g/l)
8.21516	0.710801
20.2445	1.79791
29.9267	2.67596
59.8533	5.14286
80.0978	6.73171
100.342	8.02787
120	9.5331
