Adsorption isotherm of Hydrogen on IRMOF-16
DOI: 10.1039/B804343d
Adsorbate Hydrogen: InChIKey UFHFLCQGNIYNRP-UHFFFAOYSA-N
Temperature: 298 K
Tabular data in the source: 0
pressure (bar)	uptake (mmol/g)
14.9582	1.69339
17.7187	1.89714
19.7902	2.1679
24.8521	2.64254
29.9139	3.11718
34.0556	3.52391
40.0389	4.20127
46.2521	4.87875
55.4544	5.62532
60.2858	6.03243
69.0283	6.77873
80.3028	7.86346
90.1954	8.67781
100.318	9.49229
107.679	10.0356
115.502	10.714
120.333	11.1211
