Adsorption isotherm of Hydrogen on IRMOF-1
DOI: 10.1039/B804343d
Adsorbate Hydrogen: InChIKey UFHFLCQGNIYNRP-UHFFFAOYSA-N
Temperature: 77 K
Tabular data in the source: 0
pressure (bar)	uptake (mmol/g)
0.571429	13.9853
5.14286	14.0043
6.57143	14.5097
9.71429	14.5228
14.8571	15.0435
20.2857	15.0661
29.7143	15.6048
39.7143	15.6464
60	16.2302
80	16.3134
100.286	16.8972
120	16.9793
