Adsorption isotherm of Hydrogen on IRMOF-10
DOI: 10.1039/B804343d
Adsorbate Hydrogen: InChIKey UFHFLCQGNIYNRP-UHFFFAOYSA-N
Temperature: 77 K
Tabular data in the source: 0
pressure (bar)	uptake (mmol/g)
0.69007	6.09684
0.697941	2.77129
1.14793	11.0852
2.30832	16.9049
4.64682	21.0618
6.52155	22.7246
8.16277	23.8331
10.2736	24.9416
15.2025	26.0501
20.3669	26.8815
25.0616	27.7129
30.2266	28.2672
34.453	28.5443
40.0883	28.8214
45.4889	29.0986
52.7674	29.6528
60.2814	29.93
64.5084	29.93
72.9618	30.2071
80.0068	30.2071
85.1725	30.4842
93.1568	30.4842
99.9663	30.7613
106.306	31.0385
115.23	31.0385
120.161	31.0385
