Adsorption isotherm of Hydrogen on IRMOF-1
DOI: 10.1039/B804343d
Adsorbate Hydrogen: InChIKey UFHFLCQGNIYNRP-UHFFFAOYSA-N
Temperature: 298 K
Tabular data in the source: 0
pressure (bar)	uptake (mmol/g)
2.76923	0.243401
6.46154	0.511012
8.30769	0.632619
10.1538	0.803018
12.4615	0.973324
15.4615	1.14349
17.3077	1.33829
20.0769	1.53289
22.8462	1.7275
27.2308	2.04377
30.2308	2.26272
35.3077	2.62764
40.1538	2.9682
47.7692	3.45458
54.6923	3.91671
60	4.28158
65.0769	4.5977
73.6154	5.13268
79.8462	5.52176
86.0769	5.88644
93.9231	6.32398
100.154	6.68866
105.231	7.00478
111.462	7.34507
120	7.78247
