Adsorption isotherm of Hydrogen on IRMOF-10
DOI: 10.1039/B804343d
Adsorbate Hydrogen: InChIKey UFHFLCQGNIYNRP-UHFFFAOYSA-N
Temperature: 77 K
Tabular data in the source: 0
pressure (bar)	uptake (mmol/g)
2.08595	11.6394
2.77865	16.6278
4.41395	20.2304
8.14571	31.0385
10.0145	35.1954
12.1195	38.7981
14.6922	43.2322
17.7345	47.6662
20.073	51.8232
22.8851	54.3173
27.1023	58.4743
30.1479	61.5227
32.9607	63.7397
36.0076	66.2339
39.9919	69.5594
46.5594	72.885
54.5339	77.0419
60.1646	79.259
66.7354	81.1989
74.2448	83.4159
80.1117	85.0787
83.3968	86.1872
89.2643	87.5728
99.8253	90.3441
109.919	92.284
119.777	94.2239
