Adsorption isotherm of Hydrogen on IRMOF-1
DOI: 10.1039/B804343d
Adsorbate Hydrogen: InChIKey UFHFLCQGNIYNRP-UHFFFAOYSA-N
Temperature: 298 K
Tabular data in the source: 0
pressure (bar)	uptake (mmol/g)
2.76923	0.121419
6.23077	0.267094
8.30769	0.339861
10.3846	0.412628
15.2308	0.631211
20.0769	0.825398
30.2308	1.16488
40.1538	1.45562
60.2308	2.03706
79.8462	2.4966
100.154	2.95601
120	3.34231
