Adsorption isotherm of Hydrogen on IRMOF-16
DOI: 10.1039/B804343d
Adsorbate Hydrogen: InChIKey UFHFLCQGNIYNRP-UHFFFAOYSA-N
Temperature: 298 K
Tabular data in the source: 0
pressure (bar)	uptake (mmol/g)
2.30011	0.136091
3.22216	0.406208
5.7534	0.677228
8.28403	0.880848
10.125	1.08408
14.9582	1.69339
20.0201	2.16803
30.1457	3.31951
40.2707	4.40359
45.1033	4.94551
54.3069	5.82687
60.2889	6.36943
66.5015	6.97951
74.5544	7.72543
80.0766	8.26773
88.3594	9.01378
100.093	10.0314
110.446	10.9134
120.339	11.7951
