Adsorption isotherm of Hydrogen on IRMOF-1
DOI: 10.1039/B804343d
Adsorbate Hydrogen: InChIKey UFHFLCQGNIYNRP-UHFFFAOYSA-N
Temperature: 77 K
Tabular data in the source: 0
pressure (bar)	uptake (mmol/g)
5.42857	16.0031
7.42857	17.0102
10	16.5215
14.5714	17.0399
19.7143	17.5607
29.7143	18.1017
39.7143	18.1433
60	18.7271
80	19.8092
100	19.393
120	19.4762
