Adsorption isotherm of Hydrogen on IRMOF-1
DOI: 10.1039/B804343d
Adsorbate Hydrogen: InChIKey UFHFLCQGNIYNRP-UHFFFAOYSA-N
Temperature: 298 K
Tabular data in the source: 0
pressure (bar)	uptake (mmol/g)
2.76923	0.0970228
5.07692	0.194139
6.46154	0.267047
8.30769	0.388654
10.3846	0.412628
15.2308	0.631211
20.0769	0.801001
30.2308	1.11609
40.1538	1.43123
60.2308	1.96387
79.8462	2.44781
100.154	2.88282
120	3.24473
