Adsorption isotherm of Hydrogen on IRMOF-1
DOI: 10.1039/B804343d
Adsorbate Hydrogen: InChIKey UFHFLCQGNIYNRP-UHFFFAOYSA-N
Temperature: 77 K
Tabular data in the source: 0
pressure (bar)	uptake (mmol/g)
2.81781	16.991
6.22578	23.4973
7.92737	27.9989
10.2029	30.5053
12.1952	32.0117
14.1866	34.0176
16.7491	35.5264
20.1647	38.0376
22.443	39.0459
26.4297	41.06
30.1322	42.5736
34.9759	43.5925
40.1036	45.112
44.0941	45.1287
52.0722	46.66
60.0502	48.1914
66.605	48.7181
72.5888	49.7417
79.9987	50.272
85.1293	50.2933
91.6832	51.3194
99.9482	51.8532
109.638	52.3929
119.898	53.4344
