Adsorption isotherm of Hydrogen on IRMOF-10
DOI: 10.1039/B804343d
Adsorbate Hydrogen: InChIKey UFHFLCQGNIYNRP-UHFFFAOYSA-N
Temperature: 298 K
Tabular data in the source: 0
pressure (bar)	uptake (mmol/g)
3.21141	0.480668
6.42383	0.901051
8.46958	1.08088
10.2206	1.38143
12.557	1.68168
15.4778	2.04192
17.5225	2.28204
20.1496	2.70271
22.486	3.00296
26.2817	3.54362
30.3712	4.02385
33.8773	4.3838
36.7971	4.80433
40.3012	5.28485
44.975	5.82507
54.3216	6.9658
60.1631	7.68628
68.3431	8.58645
75.3543	9.36664
80.3208	9.90671
88.7924	10.867
94.6349	11.5272
99.8931	12.1274
103.692	12.4872
109.243	13.0873
115.671	13.7472
120.054	14.167
