Adsorption isotherm of Hydrogen on IRMOF-10
DOI: 10.1039/B804343d
Adsorbate Hydrogen: InChIKey UFHFLCQGNIYNRP-UHFFFAOYSA-N
Temperature: 77 K
Tabular data in the source: 0
pressure (bar)	uptake (mmol/g)
0.45786	4.98833
0.919656	8.31388
1.61497	12.1937
3.00561	19.9533
6.28016	25.4959
8.15293	27.99
10.027	29.93
12.6069	31.3156
15.1861	32.9784
20.3479	34.9183
25.0413	36.3039
30.2043	37.6896
34.8997	38.2438
40.0641	39.0752
42.8814	39.3523
47.3426	39.6295
54.3856	40.4609
59.7855	41.0151
64.0125	41.0151
69.1775	41.5694
79.9792	41.8465
91.0144	42.6779
100.172	42.955
108.626	43.2322
115.2	43.7864
119.896	43.7864
