Adsorption isotherm of Hydrogen on IRMOF-10
DOI: 10.1039/B804343d
Adsorbate Hydrogen: InChIKey UFHFLCQGNIYNRP-UHFFFAOYSA-N
Temperature: 298 K
Tabular data in the source: 0
pressure (bar)	uptake (mmol/g)
8.18401	0.659026
10.8161	0.778274
15.494	1.07735
20.4626	1.49685
25.7258	1.79563
30.111	2.09486
34.4962	2.39408
40.3438	2.75285
46.4831	3.17176
54.9639	3.5895
60.5188	3.94842
66.6591	4.30705
74.8472	4.72493
80.4021	5.08385
86.8361	5.38205
93.8545	5.74023
100.288	6.03843
107.893	6.33603
116.375	6.69348
119.883	6.93286
