Adsorption isotherm of Hydrogen on IRMOF-16
DOI: 10.1039/B804343d
Adsorbate Hydrogen: InChIKey UFHFLCQGNIYNRP-UHFFFAOYSA-N
Temperature: 77 K
Tabular data in the source: 0
pressure (bar)	uptake (mmol/g)
0.561458	4.49685
1.41082	7.49673
3.38405	18.9909
3.9436	24.4865
5.07704	27.987
6.21048	31.4874
7.90824	37.9866
10.1789	42.9899
15.0092	51.0003
19.8443	56.5137
30.094	62.5491
40.0606	67.5844
60.2893	72.1631
79.6659	75.2401
100.183	77.8225
119.848	79.4025
