Adsorption isotherm of Hydrogen on IRMOF-10
DOI: 10.1039/B804343d
Adsorbate Hydrogen: InChIKey UFHFLCQGNIYNRP-UHFFFAOYSA-N
Temperature: 298 K
Tabular data in the source: 0
pressure (bar)	uptake (g/l)
7.92176	0.836237
9.68215	0.961672
15.2567	1.4216
20.2445	1.92334
30.22	2.80139
40.1956	3.63763
59.8533	5.22648
80.0978	6.73171
100.049	8.02787
120.293	9.28223
