Adsorption isotherm of Hydrogen on IRMOF-10
DOI: 10.1039/B804343d
Adsorbate Hydrogen: InChIKey UFHFLCQGNIYNRP-UHFFFAOYSA-N
Temperature: 298 K
Tabular data in the source: 0
pressure (bar)	uptake (g/l)
2.05379	0.250871
6.16137	0.66899
8.21516	0.919861
9.97555	1.12892
14.9633	1.67247
20.2445	2.21603
24.3521	2.63415
30.22	3.21951
34.9144	3.63763
40.1956	4.18118
45.4768	4.5993
54.2787	5.39373
60.1467	5.93728
64.2543	6.22997
72.176	6.89895
80.0978	7.56794
85.379	7.94425
94.1809	8.61324
100.049	9.07317
106.504	9.49129
113.545	9.99303
120	10.4111
