Adsorption isotherm of Hydrogen on IRMOF-10
DOI: 10.1039/B804343d
Adsorbate Hydrogen: InChIKey UFHFLCQGNIYNRP-UHFFFAOYSA-N
Temperature: 298 K
Tabular data in the source: 0
pressure (bar)	uptake (mmol/g)
2.92177	0.299958
6.13826	0.479198
8.4767	0.658879
10.5214	0.898993
15.1983	1.25835
20.1668	1.67785
26.0144	2.03663
30.3986	2.39614
35.0755	2.7555
40.3377	3.11457
46.478	3.47319
54.9568	4.0115
60.218	4.43085
65.1886	4.72978
74.2527	5.2678
80.0993	5.68686
86.8249	6.04519
94.4276	6.46337
100.276	6.76185
106.418	7.06019
114.605	7.53836
119.869	7.77686
