Adsorption isotherm of Nitrogen on C7H14EuN2O12
DOI: 10.1039/C0ce00135j
Adsorbate Nitrogen: InChIKey IJGRMHOSHXDMSA-UHFFFAOYSA-N
Temperature: 77 K
Tabular data in the source: 0
pressure (bar)	uptake (cm3(STP)/g)
0.00208929	0.00208929
0.00417858	152.714
0.00626787	228.597
0.0104465	256.108
0.0188036	276.983
0.0271608	290.27
0.0396965	297.871
0.0543215	306.422
0.0689466	310.23
0.0856609	313.092
0.102375	315.954
0.121179	319.766
0.139982	320.733
0.160875	321.702
0.181768	321.722
0.200572	323.638
0.219375	323.656
0.240268	324.625
0.261161	324.645
0.282054	325.614
0.302947	325.635
0.32384	325.655
0.342644	326.622
0.363537	325.694
0.384429	326.663
0.405322	326.683
0.426215	326.703
0.447108	327.672
0.468001	327.693
0.488894	328.662
0.509787	328.682
0.52859	329.649
0.549483	329.669
0.570376	330.638
0.591269	330.659
0.612162	331.627
0.630966	331.646
0.651859	331.666
0.672751	332.635
0.693644	332.656
0.714537	332.676
0.73543	332.696
0.756323	332.717
0.777216	332.737
0.798109	333.706
0.819002	334.675
0.837805	334.693
0.858698	335.662
0.879591	335.683
0.900484	335.703
0.919288	336.67
0.940181	336.69
0.958984	337.657
