Adsorption isotherm of N-Nonane on MIL-47(V)
DOI: 10.1016/j.micromeso.2010.09.003
Adsorbate N-Nonane: InChIKey BKIMMITUMNQMOS-UHFFFAOYSA-N
Temperature: 313 K
Tabular data in the source: 0
pressure (bar)	uptake (molecules/unitcell)
0.000233086	0.140934
0.000276653	0.363845
0.000349741	0.559232
0.000460676	0.643673
0.000569385	0.700081
0.000660703	0.784012
0.00109763	0.841609
0.00164022	0.871002
0.00220534	0.89997
0.00329551	0.929363
0.00524677	0.959011
0.00648476	1.01542
0.00836812	1.15533
0.0110258	1.26755
0.0139224	1.35182
0.0221593	1.35369
0.029794	1.38266
0.0352799	1.38334
0.0426677	1.38411
0.0494823	1.41248
0.0598442	1.41324
0.0804865	1.46999
0.0913899	1.49828
0.120273	1.49938
