Adsorption isotherm of N-Nonane on MIL-53(Cr)
DOI: 10.1016/j.micromeso.2010.09.003
Adsorbate N-Nonane: InChIKey BKIMMITUMNQMOS-UHFFFAOYSA-N
Temperature: 313 K
Tabular data in the source: 0
pressure (bar)	uptake (molecules/unitcell)
0.000174137	1.14027
0.000261205	1.36199
0.000304739	1.63122
0.000783615	1.77376
0.00148016	1.80543
0.00239438	1.8371
0.00313446	1.85294
0.00365687	1.86878
0.00430988	1.90045
0.00478876	1.90045
0.00600771	1.90045
0.00718314	1.91629
0.00840209	1.90045
0.00966458	1.91629
0.0108835	1.91629
