Adsorption isotherm of N-Hexane on MIL-53(Cr)
DOI: 10.1016/j.micromeso.2010.09.003
Adsorbate N-Hexane: InChIKey VLKZOEOYAKHREP-UHFFFAOYSA-N
Temperature: 313 K
Tabular data in the source: 0
pressure (bar)	uptake (molecules/unitcell)
0.0779245	0.575342
0.0926706	0.767123
0.107512	0.931507
0.118705	1.06849
0.134349	1.17808
0.155865	1.20548
0.19477	1.20548
0.262153	1.31507
0.352848	1.39726
0.451975	1.45205
0.55098	1.53425
0.779245	1.61644
1.1297	1.69863
1.44707	1.72603
1.80828	1.78082
2.89445	1.80822
3.52848	1.86301
4.86825	1.91781
6.55244	1.94521
7.79243	2.0274
9.26708	2.10959
10.4882	2.21918
16.7882	2.32877
21.5047	2.35616
33.5802	2.49315
41.9617	2.54795
49.9026	2.57534
62.3595	2.63014
74.1605	2.76712
