Adsorption isotherm of N-Nonane on MIL-47(V)
DOI: 10.1016/j.micromeso.2010.09.003
Adsorbate N-Nonane: InChIKey BKIMMITUMNQMOS-UHFFFAOYSA-N
Temperature: 313 K
Tabular data in the source: 0
pressure (bar)	uptake (molecules/unitcell)
0	0.585973
0.00115143	0.411765
0.00690857	0.918552
0.0138171	0.966063
0.0195743	1.06109
0.02418	1.18778
0.0287857	1.23529
0.0333914	1.31448
0.0449057	1.36199
0.0552686	1.36199
0.0656314	1.36199
0.0759943	1.37783
0.0898114	1.39367
0.101326	1.4095
0.110537	1.39367
0.115143	1.39367
0.127809	1.4095
0.134717	1.4095
0.142777	1.42534
0.155443	1.4095
0.168109	1.42534
0.179623	1.42534
0.195743	1.44118
0.206106	1.44118
0.22568	1.44118
0.231437	1.44118
0.242951	1.47285
0.246406	1.45701
0.259071	1.45701
0.262526	1.47285
0.272889	1.47285
0.285554	1.47285
0.291311	1.47285
0.301674	1.47285
0.308583	1.47285
0.321249	1.47285
0.331611	1.50452
0.33852	1.50452
0.351186	1.48869
0.363851	1.48869
