Adsorption isotherm of N-Hexane on MIL-47(V)
DOI: 10.1016/j.micromeso.2010.09.003
Adsorbate N-Hexane: InChIKey VLKZOEOYAKHREP-UHFFFAOYSA-N
Temperature: 313 K
Tabular data in the source: 0
pressure (bar)	uptake (molecules/unitcell)
0.00230286	1.1086
0.00806	1.17195
0.0172714	1.23529
0.0253314	1.25113
0.0345429	1.29864
0.0518143	1.52036
0.0587229	1.59955
0.06448	1.63122
0.07254	1.6629
0.0794486	1.67873
0.0852057	1.69457
0.0978714	1.71041
0.103629	1.72624
0.111689	1.74208
0.125506	1.74208
0.13702	1.74208
0.143929	1.74208
0.164654	1.77376
0.176169	1.80543
0.192289	1.78959
0.206106	1.82127
0.21762	1.82127
0.231437	1.8371
0.2418	1.82127
0.251011	1.85294
0.262526	1.85294
0.27404	1.88462
0.294766	1.86878
0.317794	1.90045
0.324703	1.91629
0.341974	1.90045
