Adsorption isotherm of N-Hexane on MIL-53(Cr)
DOI: 10.1016/j.micromeso.2010.09.003
Adsorbate N-Hexane: InChIKey VLKZOEOYAKHREP-UHFFFAOYSA-N
Temperature: 313 K
Tabular data in the source: 0
pressure (bar)	uptake (molecules/unitcell)
0	0
0.00230286	2.42308
0.00345429	2.48643
0.00460571	2.61312
0.00806	2.69231
0.0103629	2.75566
0.0138171	2.80317
0.0218771	2.83484
0.0253314	2.86652
0.0299371	2.89819
0.0356943	2.97738
0.0437543	3.00905
0.0552686	3.05656
0.0621771	3.08824
0.0656314	3.11991
0.0736914	3.15158
0.0817514	3.15158
0.0863571	3.16742
0.09672	3.23077
0.116294	3.26244
0.126657	3.29412
0.131263	3.27828
0.135869	3.29412
0.147383	3.30995
0.154291	3.32579
0.165806	3.34163
0.17732	3.35747
0.186531	3.35747
0.191137	3.3733
0.202651	3.38914
0.214166	3.38914
0.22568	3.38914
0.236043	3.42081
0.247557	3.42081
0.259071	3.42081
0.270586	3.43665
0.2821	3.43665
0.293614	3.45249
0.297069	3.45249
0.302826	3.46833
0.31434	3.46833
0.325854	3.46833
0.337369	3.48416
0.347731	3.46833
