Adsorption isotherm of Nitrogen on [{Cu2pzdc2-(pyz)}n] 70Micron
DOI: 10.1021/Cm052427g
Adsorbate Nitrogen: InChIKey IJGRMHOSHXDMSA-UHFFFAOYSA-N
Temperature: 77 K
Tabular data in the source: 0
pressure (bar)	uptake (cm3(STP)/g)
0.00192855	47.3952
0.0066978	67.3051
0.0140124	67.7862
0.0305093	67.8023
0.0488566	67.3462
0.0653188	68.3102
0.0781497	68.3227
0.0928136	68.337
0.105627	68.8234
0.120291	68.8377
0.134955	68.852
0.149602	69.3403
0.164248	69.8285
0.182578	69.8464
0.199092	69.3886
0.211923	69.4011
0.230253	69.419
0.243049	70.3793
0.263195	70.8729
0.287041	70.4222
0.33833	71.4201
0.385971	71.9406
0.43911	72.4663
0.488566	73.4625
0.538039	73.9847
0.593012	74.5122
0.647967	75.5137
