Adsorption isotherm of Nitrogen on [{Cu2pzdc2-(pyz)}n] 2Micron
DOI: 10.1021/Cm052427g
Adsorbate Nitrogen: InChIKey IJGRMHOSHXDMSA-UHFFFAOYSA-N
Temperature: 77 K
Tabular data in the source: 0
pressure (bar)	uptake (cm3(STP)/g)
0.00434358	81.5208
0.0153589	81.0576
0.0373548	81.0791
0.0611489	82.0502
0.0868282	81.6013
0.116139	82.1038
0.169295	82.1557
0.218786	82.204
0.27011	82.2541
0.321399	83.252
0.374573	82.8299
0.425914	82.4061
0.479054	82.9318
0.581666	83.9798
0.63299	84.0299
0.682463	84.5521
0.735585	85.5518
0.785076	85.6001
0.836365	86.598
0.887689	86.6481
