Adsorption isotherm of Nitrogen on [{Cu2pzdc2-(pyz)}n] 26Micron
DOI: 10.1021/Cm052427g
Adsorbate Nitrogen: InChIKey IJGRMHOSHXDMSA-UHFFFAOYSA-N
Temperature: 77 K
Tabular data in the source: 0
pressure (bar)	uptake (cm3(STP)/g)
0.00441308	79.6252
0.0172614	79.1638
0.030075	79.6502
0.0447215	80.1384
0.0612358	79.6806
0.0777327	79.6967
0.0905637	79.7092
0.110709	80.2028
0.132705	80.2243
0.143703	80.235
0.152868	80.2439
0.185844	80.75
0.213339	80.7769
0.2445	80.8073
0.275626	81.7855
0.308603	82.2916
0.341614	81.8499
0.372757	82.3542
0.400218	83.3289
0.431361	83.8332
0.466205	83.3932
0.493665	84.3679
0.526659	84.4001
0.555987	84.4287
0.588911	86.3566
0.627404	86.3941
0.671379	86.911
0.71352	87.426
0.753846	87.4654
0.792252	89.8725
0.838094	89.4433
0.8765	91.8504
0.916826	91.8898
0.951531	95.2412
