Adsorption isotherm of Hydrogen on Pt/Activated Carbon-IRMOF-1
DOI: 10.1016/j.ijhydene.2011.03.038
Adsorbate Hydrogen: InChIKey UFHFLCQGNIYNRP-UHFFFAOYSA-N
Temperature: 298 K
Tabular data in the source: 0
pressure (bar)	uptake (wt%)
2.06718	0.0516885
5.68475	0.123977
9.30233	0.227408
13.6951	0.309997
17.5711	0.423782
22.2222	0.506344
25.0646	0.589094
28.6822	0.682144
32.0413	0.76484
35.9173	0.837102
38.7597	0.919852
43.1525	1.01282
47.5452	1.11617
50.3876	1.17816
54.2636	1.2608
57.8811	1.35385
61.4987	1.43652
64.5995	1.52963
69.509	1.6433
73.6434	1.7363
77.261	1.81897
81.137	1.90161
84.7545	1.99466
91.9897	2.14962
93.2817	2.19101
96.8992	2.27368
99.7416	2.32529
