Adsorption isotherm of Hydrogen on Pt/Activated Carbon
DOI: 10.1016/j.ijhydene.2011.03.038
Adsorbate Hydrogen: InChIKey UFHFLCQGNIYNRP-UHFFFAOYSA-N
Temperature: 298 K
Tabular data in the source: 0
pressure (bar)	uptake (wt%)
4.65116	0.0410397
10.8527	0.0819184
21.9638	0.174191
26.0982	0.215284
29.7158	0.23567
34.8837	0.276656
39.0181	0.307368
43.1525	0.348462
47.2868	0.379174
50.9044	0.409941
55.5556	0.45098
59.1731	0.481747
62.7907	0.502132
66.6667	0.532872
71.5762	0.563504
74.9354	0.594297
78.0362	0.635498
82.6873	0.666157
87.3385	0.696816
91.4729	0.727529
95.0904	0.758295
99.7416	0.799335
