Adsorption isotherm of Nitrogen on Activated Carbon
DOI: 10.1016/j.ijhydene.2011.03.038
Adsorbate Nitrogen: InChIKey IJGRMHOSHXDMSA-UHFFFAOYSA-N
Temperature: 77 K
Tabular data in the source: 0
pressure (bar)	uptake (cm3(STP)/g)
0.00797872	190.714
0.0292553	203.571
0.114362	225
0.172872	235.714
0.210106	233.571
0.234043	233.571
0.257979	240
0.289894	240
0.327128	248.571
0.393617	255
0.422872	255
0.449468	259.286
0.465426	263.571
0.513298	276.429
0.56117	278.571
0.603723	287.143
0.630319	289.286
0.659574	295.714
0.702128	302.143
0.731383	310.714
0.755319	315
0.779255	321.429
0.819149	330
0.843085	338.571
0.859043	349.286
0.890957	362.143
0.906915	368.571
0.925532	379.286
0.941489	392.143
0.957447	407.143
0.978723	420
0.994681	435
