Adsorption isotherm of Nitrogen on Pt/Activated Carbon-IRMOF-1
DOI: 10.1016/j.ijhydene.2011.03.038
Adsorbate Nitrogen: InChIKey IJGRMHOSHXDMSA-UHFFFAOYSA-N
Temperature: 77 K
Tabular data in the source: 0
pressure (bar)	uptake (cm3(STP)/g)
0.00797872	199.286
0.0319149	210
0.0664894	220.714
0.117021	225
0.159574	229.286
0.199468	227.143
0.242021	229.286
0.279255	233.571
0.321809	235.714
0.351064	233.571
0.382979	233.571
0.43883	235.714
0.476064	233.571
0.507979	237.857
0.537234	237.857
0.555851	237.857
0.585106	240
0.614362	240
0.638298	240
0.664894	242.143
0.694149	242.143
0.723404	246.429
0.773936	244.286
0.81383	250.714
0.848404	250.714
0.880319	255
0.896277	257.143
0.906915	261.429
0.928191	265.714
0.944149	272.143
0.957447	287.143
0.973404	315
0.986702	370.714
