Adsorption isotherm of Nitrogen on IRMOF-1
DOI: 10.1016/j.ijhydene.2011.03.038
Adsorbate Nitrogen: InChIKey IJGRMHOSHXDMSA-UHFFFAOYSA-N
Temperature: 77 K
Tabular data in the source: 0
pressure (bar)	uptake (cm3(STP)/g)
0.00531915	287.143
0.0106383	372.857
0.0159574	394.286
0.018617	409.286
0.0319149	420
0.0478723	428.571
0.0558511	430.714
0.0744681	439.286
0.106383	445.714
0.132979	450
0.162234	454.286
0.18617	458.571
0.212766	462.857
0.236702	465
0.260638	469.286
0.319149	475.714
0.361702	480
0.406915	484.286
0.460106	492.857
0.510638	495
0.56117	499.286
0.614362	501.429
0.664894	507.857
0.712766	510
0.763298	514.286
0.81383	518.571
0.867021	522.857
0.909574	527.143
0.954787	537.857
0.994681	552.857
