Adsorption isotherm of Hydrogen on IRMOF-1
DOI: 10.1016/j.ijhydene.2011.03.038
Adsorbate Hydrogen: InChIKey UFHFLCQGNIYNRP-UHFFFAOYSA-N
Temperature: 298 K
Tabular data in the source: 0
pressure (bar)	uptake (wt%)
9.04393	0.0613449
14.2119	0.0815697
22.4806	0.142995
26.3566	0.184115
30.7494	0.20442
34.6253	0.224779
38.7597	0.255492
42.6357	0.275851
46.77	0.316944
50.1292	0.326976
53.4884	0.347389
57.6227	0.367721
60.9819	0.388133
66.1499	0.429119
71.0594	0.459752
74.4186	0.490545
77.0026	0.500657
81.9121	0.531289
86.5633	0.561948
91.2145	0.592607
99.7416	0.643625
