Adsorption isotherm of Hydrogen on Activated Carbon
DOI: 10.1016/j.ijhydene.2011.03.038
Adsorbate Hydrogen: InChIKey UFHFLCQGNIYNRP-UHFFFAOYSA-N
Temperature: 298 K
Tabular data in the source: 0
pressure (bar)	uptake (wt%)
9.30233	0.0301762
14.2119	0.0504278
15.7623	0.0606475
19.6382	0.091387
23.2558	0.101392
24.8062	0.111612
28.9406	0.121563
32.2997	0.131595
35.9173	0.1416
39.5349	0.161986
43.1525	0.182372
47.2868	0.202704
51.4212	0.212655
55.814	0.23296
60.2067	0.242885
63.8243	0.263271
67.9587	0.283603
71.3178	0.293635
75.7106	0.31394
79.5866	0.323918
83.7209	0.34425
88.1137	0.374936
93.0233	0.374427
97.416	0.405113
99.4832	0.415279
