Adsorption isotherm of Nitrogen on Pt/Activated Carbon
DOI: 10.1016/j.ijhydene.2011.03.038
Adsorbate Nitrogen: InChIKey IJGRMHOSHXDMSA-UHFFFAOYSA-N
Temperature: 77 K
Tabular data in the source: 0
pressure (bar)	uptake (cm3(STP)/g)
0.0106383	171.429
0.037234	190.714
0.0611702	199.286
0.0957447	207.857
0.114362	214.286
0.138298	216.429
0.164894	216.429
0.204787	222.857
0.234043	227.143
0.260638	231.429
0.292553	233.571
0.324468	233.571
0.367021	237.857
0.417553	244.286
0.468085	252.857
0.510638	255
0.553191	261.429
0.587766	267.857
0.609043	272.143
0.646277	274.286
0.675532	280.714
0.707447	285
0.734043	289.286
0.771277	297.857
0.805851	304.286
0.835106	312.857
0.869681	319.286
0.906915	338.571
0.941489	355.714
0.962766	366.429
0.989362	387.857
