Adsorption isotherm of Carbon Dioxide on Zeolite 13X
DOI: 10.1021/Je0498917
Adsorbate Carbon Dioxide: InChIKey CURLTUGMZLYLDI-UHFFFAOYSA-N
Temperature: 308 K
Tabular data in the source: 0
pressure (bar)	uptake (mmol/g)
0.224742	0.811405
0.337418	2.73817
0.56277	3.39732
1.01347	4.03112
1.68953	4.51281
2.81629	4.95648
3.77404	5.18464
5.68953	5.40014
8.78812	5.72971
12.0557	5.95788
18.4219	6.30014
22.4219	6.52831
25.0698	6.62971
28.6191	6.75648
33.6895	6.92126
36.7318	7.1114
39.605	7.26352
