Adsorption isotherm of Nitrogen on Zeolite 13X
DOI: 10.1021/Je0498917
Adsorbate Nitrogen: InChIKey IJGRMHOSHXDMSA-UHFFFAOYSA-N
Temperature: 323 K
Tabular data in the source: 0
pressure (bar)	uptake (mmol/g)
0.562618	0.112752
2.18234	0.352189
3.52036	0.563457
5.77389	0.838104
8.09783	1.10571
11.6894	1.46486
16.8302	1.87332
21.6894	2.2043
26.2668	2.46486
30.8443	2.71134
34.9288	2.92261
39.3654	3.12684
44.788	3.3381
47.1823	3.45078
