Adsorption isotherm of Methane on Zeolite 13X
DOI: 10.1021/Je0498917
Adsorbate Methane: InChIKey VNWKTOKETHGBQD-UHFFFAOYSA-N
Temperature: 323 K
Tabular data in the source: 0
pressure (bar)	uptake (mmol/g)
0.985153	0.43391
2.3936	0.729684
3.9429	1.17335
6.33727	1.65644
8.66121	2.07053
11.7598	2.53391
15.0697	2.90856
18.5204	3.17475
24.1542	3.58884
30.1401	3.92405
34.295	4.19025
41.6894	4.58461
44.4359	4.71278
47.3232	4.82123
