Adsorption isotherm of Nitrogen on Zeolite 13X
DOI: 10.1021/Je0498917
Adsorbate Nitrogen: InChIKey IJGRMHOSHXDMSA-UHFFFAOYSA-N
Temperature: 308 K
Tabular data in the source: 0
pressure (bar)	uptake (mmol/g)
2.3936	0.464865
3.59079	0.711344
5.70346	1.03529
8.02741	1.34515
10.8443	1.67613
12.464	1.82402
15.5626	2.11979
21.4781	2.57754
26.9711	2.91557
33.0274	3.27472
37.1823	3.46486
40.2809	3.60571
46.9711	3.89444
