Adsorption isotherm of Nitrogen on Zeolite 13X
DOI: 10.1021/Je0498917
Adsorbate Nitrogen: InChIKey IJGRMHOSHXDMSA-UHFFFAOYSA-N
Temperature: 298 K
Tabular data in the source: 0
pressure (bar)	uptake (mmol/g)
0.421773	0.16909
0.985153	0.274724
1.68938	0.464865
2.60487	0.690217
3.9429	0.922611
5.56262	1.22543
7.53445	1.50008
9.92881	1.84515
10.7739	1.97895
12.957	2.17613
15.7739	2.4367
17.7457	2.61275
19.5063	2.72543
22.0415	2.91557
23.5204	3.00712
25.9147	3.19022
31.7598	3.49303
36.8302	3.78177
40.2105	3.92965
44.0837	4.07754
47.3936	4.21839
