Adsorption isotherm of Methane on Zeolite 13X
DOI: 10.1021/Je0498917
Adsorbate Methane: InChIKey VNWKTOKETHGBQD-UHFFFAOYSA-N
Temperature: 298 K
Tabular data in the source: 0
pressure (bar)	uptake (mmol/g)
1.126	0.680388
2.11191	1.15363
3.52036	1.6663
6.26684	2.3663
10.7035	3.09588
14.1542	3.5494
18.9429	4.01278
26.126	4.54518
29.788	4.77194
35.5626	5.09729
37.3936	5.19588
42.6049	5.49166
47.3232	5.68884
