Adsorption isotherm of Carbon Dioxide on Zeolite 13X
DOI: 10.1021/Je0498917
Adsorbate Carbon Dioxide: InChIKey CURLTUGMZLYLDI-UHFFFAOYSA-N
Temperature: 323 K
Tabular data in the source: 0
pressure (bar)	uptake (mmol/g)
0.112066	0.355067
0.168404	1.41986
0.337418	2.06633
0.56277	2.47197
0.844461	2.89028
1.57685	3.39732
2.75995	3.92971
5.46418	4.33535
7.09798	4.56352
8.61911	4.76633
11.7177	4.95648
14.5346	5.22267
17.3515	5.23535
21.2388	5.45084
27.098	5.66633
33.8585	5.78042
