Adsorption isotherm of Carbon Dioxide on Zeolite 13X
DOI: 10.1021/Je0498917
Adsorbate Carbon Dioxide: InChIKey CURLTUGMZLYLDI-UHFFFAOYSA-N
Temperature: 298 K
Tabular data in the source: 0
pressure (bar)	uptake (mmol/g)
0.112066	0.0508414
0.112066	1.15366
0.337418	3.68887
0.900799	4.51281
1.63319	5.09591
3.15432	5.61563
5.18249	6.02126
10.1402	6.51563
14.3656	6.90859
19.3797	6.95929
26.6473	7.23817
32.1121	7.39028
36.9571	7.6438
