Adsorption isotherm of Methane on Zeolite 13X
DOI: 10.1021/Je0498917
Adsorbate Methane: InChIKey VNWKTOKETHGBQD-UHFFFAOYSA-N
Temperature: 298 K
Tabular data in the source: 0
pressure (bar)	uptake (mmol/g)
1.83091	1.02739
2.97502	1.46788
6.04983	2.1286
7.766	2.38889
10.5548	2.63916
14.0586	2.74928
17.2049	2.80935
21.8529	2.83938
26.0718	2.81936
29.9332	2.75929
33.7231	2.71925
37.4415	2.65918
42.6615	2.51903
47.381	2.3989
