Adsorption isotherm of Methane on Zeolite 13X
DOI: 10.1021/Je0498917
Adsorbate Methane: InChIKey VNWKTOKETHGBQD-UHFFFAOYSA-N
Temperature: 298 K
Tabular data in the source: 0
pressure (bar)	uptake (mmol/g)
0.758302	0.366665
1.97392	1.06744
2.97502	1.47789
5.97832	2.23872
7.90902	2.50902
10.6978	2.74928
14.1301	2.99956
17.4195	3.07965
21.7099	3.17976
30.0762	3.27987
33.9376	3.3099
37.7275	3.28988
47.4525	3.26986
