Adsorption isotherm of Methane on Zeolite 13X
DOI: 10.1021/Je0498917
Adsorbate Methane: InChIKey VNWKTOKETHGBQD-UHFFFAOYSA-N
Temperature: 308 K
Tabular data in the source: 0
pressure (bar)	uptake (mmol/g)
1.83022	0.818417
2.74572	1.16349
3.52036	1.37053
4.5767	1.62687
5.91473	1.95222
6.97107	2.15926
8.73163	2.47475
11.126	2.81982
14.788	3.20433
17.0415	3.43109
21.7598	3.8156
25.3514	4.0818
28.5204	4.26912
36.4781	4.70292
40.1401	4.91983
44.8584	5.13673
47.1823	5.25504
