Adsorption isotherm of Methane on Zeolite 13X
DOI: 10.1021/Je0498917
Adsorbate Methane: InChIKey VNWKTOKETHGBQD-UHFFFAOYSA-N
Temperature: 298 K
Tabular data in the source: 0
pressure (bar)	uptake (mmol/g)
0.0282767	0.236522
1.25885	0.857204
2.11694	1.18757
3.26105	1.68812
4.26215	1.93839
6.12134	2.44895
8.05203	2.80935
10.6978	3.15973
13.9156	3.5802
17.348	3.8605
21.7099	4.21089
26.2148	4.55126
29.9332	4.79153
34.0091	5.00176
37.5845	5.25203
42.6615	5.52233
47.2379	5.77261
