Adsorption isotherm of Water on Zeolite Na-ZSM-5
DOI: 10.1021/acs.jpcc.7b04405
Article source: Figure 2a
Adsorbate Water: InChIKey XLYOFNOQVPJJNP-UHFFFAOYSA-N
Kind: experiment
Temperature: 393 K
Tabular data in the source: 0
pressure (bar)	uptake (mmol/g)
1.01325	0.20303
1.01325	0.21472
1.01325	0.22875
1.01325	0.23812
1.01325	0.24989
1.01325	0.27103
1.01325	0.28288
1.01325	0.30409
1.01325	0.31834
1.01325	0.33022
1.01325	0.35834
1.01325	0.3678
1.01325	0.42158
