Adsorption isotherm of Water on Zeolite Na-ZSM-5
DOI: 10.1021/acs.jpcc.7b04405
Article source: Figure 2a
Adsorbate Water: InChIKey XLYOFNOQVPJJNP-UHFFFAOYSA-N
Kind: experiment
Temperature: 308 K
Tabular data in the source: 0
pressure (bar)	uptake (mmol/g)
1.01325	1.10585
1.01325	1.16186
1.01325	1.23655
1.01325	1.28325
1.01325	1.36966
1.01325	1.48178
1.01325	1.55428
1.01325	1.64782
1.01325	1.70639
1.01325	1.77193
1.01325	1.82804
1.01325	1.87483
1.01325	1.92861
