Adsorption isotherm of Carbon Dioxide, Methane, Water on Zeolite Na-ZSM-5
DOI: 10.1021/acs.jpcc.7b04405
Article source: Figure 3a
Adsorbate Carbon Dioxide: InChIKey CURLTUGMZLYLDI-UHFFFAOYSA-N
Adsorbate Methane: InChIKey VNWKTOKETHGBQD-UHFFFAOYSA-N
Adsorbate Water: InChIKey XLYOFNOQVPJJNP-UHFFFAOYSA-N
Kind: experiment
Temperature: 323 K
Tabular data in the source: 0
pressure (bar)	Carbon Dioxide fraction	Carbon Dioxide uptake (mmol/g)	Methane fraction	Methane uptake (mmol/g)	Water fraction	Water uptake (mmol/g)	total uptake (mmol/g)
1.01325	0.165624	0.26158					
1.01325	0.197966	0.29962					
1.01325	0.231438	0.33194					
1.01325	0.264906	0.36617					
1.01325	0.327351	0.44416					
1.01325	0.413248	0.53354					
1.01325	0.499146	0.62291					
1.01325	0.578363	0.69896					
1.01325	0.665397	0.7788					
1.01325	0.732341	0.84345					
1.01325	0.761352	0.87006					
1.01325	0.795949	0.89857					
1.01325	0.829425	0.92898					
