Adsorption isotherm of Methane, Water on Zeolite Na-ZSM-5
DOI: 10.1021/acs.jpcc.7b04405
Article source: Figure 2b
Adsorbate Methane: InChIKey VNWKTOKETHGBQD-UHFFFAOYSA-N
Adsorbate Water: InChIKey XLYOFNOQVPJJNP-UHFFFAOYSA-N
Kind: experiment
Temperature: 323 K
Tabular data in the source: 0
pressure (bar)	Methane fraction	Methane uptake (mmol/g)	Water fraction	Water uptake (mmol/g)	total uptake (mmol/g)
1.01325	0.993673	0.086833			
1.01325	0.994166	0.080235			
1.01325	0.994667	0.071396			
1.01325	0.995113	0.06494			
1.01325	0.995939	0.056652			
1.01325	0.996913	0.046959			
1.01325	0.997718	0.037131			
1.01325	0.998401	0.027306			
1.01325	0.99901	0.020145			
1.01325	0.999361	0.015092			
1.01325	0.99951	0.012146			
1.01325	0.999639	0.008781			
1.01325	0.999747	0.006117			
