Adsorption isotherm of Methane, Water on Zeolite Na-ZSM-5
DOI: 10.1021/acs.jpcc.7b04405
Article source: Figure 2b
Adsorbate Methane: InChIKey VNWKTOKETHGBQD-UHFFFAOYSA-N
Adsorbate Water: InChIKey XLYOFNOQVPJJNP-UHFFFAOYSA-N
Kind: experiment
Temperature: 393 K
Tabular data in the source: 0
pressure (bar)	Methane fraction	Methane uptake (mmol/g)	Water fraction	Water uptake (mmol/g)	total uptake (mmol/g)
1.01325	0.993673	0.029966			
1.01325	0.99416	0.02589			
1.01325	0.994635	0.022922			
1.01325	0.995095	0.021144			
1.01325	0.995945	0.017574			
1.01325	0.996892	0.013904			
1.01325	0.997708	0.011639			
1.01325	0.998418	0.006506			
1.01325	0.998993	0.005088			
1.01325	0.999361	0.004027			
1.01325	0.999504	0.001082			
1.01325	0.999649	0.000587			
1.01325	0.999754	0.000584			
