Adsorption isotherm of Carbon Dioxide, Water on Zeolite Na-ZSM-5
DOI: 10.1021/acs.jpcc.7b04405
Article source: Figure 2c
Adsorbate Carbon Dioxide: InChIKey CURLTUGMZLYLDI-UHFFFAOYSA-N
Adsorbate Water: InChIKey XLYOFNOQVPJJNP-UHFFFAOYSA-N
Kind: experiment
Temperature: 308 K
Tabular data in the source: 0
pressure (bar)	Carbon Dioxide fraction	Carbon Dioxide uptake (mmol/g)	Water fraction	Water uptake (mmol/g)	total uptake (mmol/g)
1.01325	0.993639	0.37839			
1.01325	0.994143	0.43578			
1.01325	0.994629	0.48701			
1.01325	0.995099	0.5403			
1.01325	0.995964	0.65307			
1.01325	0.996887	0.76582			
1.01325	0.997726	0.88066			
1.01325	0.998372	0.98117			
1.01325	0.998993	1.08786			
1.01325	0.999345	1.15353			
1.01325	0.999522	1.19664			
1.01325	0.999639	1.24388			
1.01325	0.999731	1.27469			
