Adsorption isotherm of Carbon Dioxide, Methane on Zeolite Na-ZSM-5
DOI: 10.1021/acs.jpcc.7b04405
Article source: Figure 3a
Adsorbate Carbon Dioxide: InChIKey CURLTUGMZLYLDI-UHFFFAOYSA-N
Adsorbate Methane: InChIKey VNWKTOKETHGBQD-UHFFFAOYSA-N
Kind: experiment
Temperature: 308 K
Tabular data in the source: 0
pressure (bar)	Carbon Dioxide fraction	Carbon Dioxide uptake (mmol/g)	Methane fraction	Methane uptake (mmol/g)	total uptake (mmol/g)
1.01325	0.025094	0.12841			
1.01325	0.100759	0.32274			
1.01325	0.152657	0.42948			
1.01325	0.198239	0.52542			
1.01325	0.350508	0.79761			
1.01325	0.495156	1.00739			
1.01325	0.649046	1.17391			
1.01325	0.793828	1.31765			
1.01325	0.847957	1.36555			
1.01325	0.899997	1.40144			
1.01325	0.968888	1.46251			
