Adsorption isotherm of Carbon Dioxide, Methane, Water on Zeolite Na-ZSM-5
DOI: 10.1021/acs.jpcc.7b04405
Article source: Figure 3a
Adsorbate Carbon Dioxide: InChIKey CURLTUGMZLYLDI-UHFFFAOYSA-N
Adsorbate Methane: InChIKey VNWKTOKETHGBQD-UHFFFAOYSA-N
Adsorbate Water: InChIKey XLYOFNOQVPJJNP-UHFFFAOYSA-N
Kind: experiment
Temperature: 308 K
Tabular data in the source: 0
pressure (bar)	Carbon Dioxide fraction	Carbon Dioxide uptake (mmol/g)	Methane fraction	Methane uptake (mmol/g)	Water fraction	Water uptake (mmol/g)	total uptake (mmol/g)
1.01325	0.165398	0.37403					
1.01325	0.197706	0.42923					
1.01325	0.233359	0.48823					
1.01325	0.262321	0.53962					
1.01325	0.330298	0.64619					
1.01325	0.41502	0.76416					
1.01325	0.503092	0.88402					
1.01325	0.581126	0.99247					
1.01325	0.661438	1.07996					
1.01325	0.733944	1.15793					
1.01325	0.762936	1.19407					
1.01325	0.80086	1.23591					
1.01325	0.827632	1.26444					
