Adsorption isotherm of Carbon Dioxide, Methane, Water on Zeolite Na-ZSM-5
DOI: 10.1021/acs.jpcc.7b04405
Article source: Figure 3a
Adsorbate Carbon Dioxide: InChIKey CURLTUGMZLYLDI-UHFFFAOYSA-N
Adsorbate Methane: InChIKey VNWKTOKETHGBQD-UHFFFAOYSA-N
Adsorbate Water: InChIKey XLYOFNOQVPJJNP-UHFFFAOYSA-N
Kind: experiment
Temperature: 358 K
Tabular data in the source: 0
pressure (bar)	Carbon Dioxide fraction	Carbon Dioxide uptake (mmol/g)	Methane fraction	Methane uptake (mmol/g)	Water fraction	Water uptake (mmol/g)	total uptake (mmol/g)
1.01325	0.165946	0.10148					
1.01325	0.197224	0.11284					
1.01325	0.228491	0.12992					
1.01325	0.265347	0.14698					
1.01325	0.331233	0.18113					
1.01325	0.412771	0.21524					
1.01325	0.498772	0.25316					
1.01325	0.579168	0.29871					
1.01325	0.665169	0.33662					
1.01325	0.731071	0.36314					
1.01325	0.765691	0.38021					
1.01325	0.831578	0.41436					
