Adsorption isotherm of Carbon Dioxide, Methane on Zeolite Na-ZSM-5
DOI: 10.1021/acs.jpcc.7b04405
Article source: Figure 3b
Adsorbate Carbon Dioxide: InChIKey CURLTUGMZLYLDI-UHFFFAOYSA-N
Adsorbate Methane: InChIKey VNWKTOKETHGBQD-UHFFFAOYSA-N
Kind: experiment
Temperature: 393 K
Tabular data in the source: 0
pressure (bar)	Carbon Dioxide fraction	Carbon Dioxide uptake (mmol/g)	Methane fraction	Methane uptake (mmol/g)	total uptake (mmol/g)
1.01325			0.968871	0.036046	
1.01325			0.899173	0.031724	
1.01325			0.849914	0.03126	
1.01325			0.798519	0.027933	
1.01325			0.647167	0.019973	
1.01325			0.49935	0.013864	
1.01325			0.350824	0.007249	
1.01325			0.200902	0.001816	
1.01325			0.151647	0.001857	
1.01325			0.103091	0.001225	
