Adsorption isotherm of Methane, Water on Zeolite Na-ZSM-5
DOI: 10.1021/acs.jpcc.7b04405
Article source: Figure 2b
Adsorbate Methane: InChIKey VNWKTOKETHGBQD-UHFFFAOYSA-N
Adsorbate Water: InChIKey XLYOFNOQVPJJNP-UHFFFAOYSA-N
Kind: experiment
Temperature: 358 K
Tabular data in the source: 0
pressure (bar)	Methane fraction	Methane uptake (mmol/g)	Water fraction	Water uptake (mmol/g)	total uptake (mmol/g)
1.01325	0.993673	0.045654			
1.01325	0.99418	0.043818			
1.01325	0.994633	0.041283			
1.01325	0.995107	0.037488			
1.01325	0.995952	0.033541			
1.01325	0.996886	0.028331			
1.01325	0.997731	0.023544			
1.01325	0.998408	0.017081			
1.01325	0.998989	0.013002			
1.01325	0.999334	0.00935			
1.01325	0.999531	0.007244			
1.01325	0.999625	0.004159			
1.01325	0.999754	0.003035			
