Adsorption isotherm of Carbon Dioxide, Methane on Zeolite Na-ZSM-5
DOI: 10.1021/acs.jpcc.7b04405
Article source: Figure 3b
Adsorbate Carbon Dioxide: InChIKey CURLTUGMZLYLDI-UHFFFAOYSA-N
Adsorbate Methane: InChIKey VNWKTOKETHGBQD-UHFFFAOYSA-N
Kind: experiment
Temperature: 308 K
Tabular data in the source: 0
pressure (bar)	Carbon Dioxide fraction	Carbon Dioxide uptake (mmol/g)	Methane fraction	Methane uptake (mmol/g)	total uptake (mmol/g)
1.01325			0.972533	0.201722	
1.01325			0.902272	0.176304	
1.01325			0.855129	0.158509	
1.01325			0.804479	0.145177	
1.01325			0.64984	0.101996	
1.01325			0.502618	0.065089	
1.01325			0.351801	0.038086	
1.01325			0.205247	0.015799	
1.01325			0.150324	0.011295	
1.01325			0.099613	0.005777	
1.01325			0.03203	0.001959	
