Adsorption isotherm of Carbon Dioxide, Water on Zeolite Na-ZSM-5
DOI: 10.1021/acs.jpcc.7b04405
Article source: Figure 2c
Adsorbate Carbon Dioxide: InChIKey CURLTUGMZLYLDI-UHFFFAOYSA-N
Adsorbate Water: InChIKey XLYOFNOQVPJJNP-UHFFFAOYSA-N
Kind: experiment
Temperature: 323 K
Tabular data in the source: 0
pressure (bar)	Carbon Dioxide fraction	Carbon Dioxide uptake (mmol/g)	Water fraction	Water uptake (mmol/g)	total uptake (mmol/g)
1.01325	0.993664	0.26737			
1.01325	0.994143	0.30421			
1.01325	0.994621	0.33077			
1.01325	0.995108	0.36761			
1.01325	0.995938	0.43928			
1.01325	0.996895	0.53763			
1.01325	0.997717	0.61341			
1.01325	0.998406	0.69746			
1.01325	0.998985	0.7795			
1.01325	0.999354	0.84516			
1.01325	0.999513	0.87183			
1.01325	0.999631	0.90262			
1.01325	0.999757	0.93136			
