Adsorption isotherm of Carbon Dioxide, Methane on Zeolite Na-ZSM-5
DOI: 10.1021/acs.jpcc.7b04405
Article source: Figure 3b
Adsorbate Carbon Dioxide: InChIKey CURLTUGMZLYLDI-UHFFFAOYSA-N
Adsorbate Methane: InChIKey VNWKTOKETHGBQD-UHFFFAOYSA-N
Kind: experiment
Temperature: 323 K
Tabular data in the source: 0
pressure (bar)	Carbon Dioxide fraction	Carbon Dioxide uptake (mmol/g)	Methane fraction	Methane uptake (mmol/g)	total uptake (mmol/g)
1.01325			0.970416	0.130918	
1.01325			0.899938	0.118002	
1.01325			0.848464	0.105744	
1.01325			0.800554	0.098707	
1.01325			0.651837	0.070523	
1.01325			0.500376	0.050262	
1.01325			0.351048	0.032526	
1.01325			0.201005	0.013443	
1.01325			0.152409	0.008429	
1.01325			0.101023	0.006113	
1.01325			0.031325	0.001791	
