Adsorption isotherm of Methane, Water on Zeolite Na-ZSM-5
DOI: 10.1021/acs.jpcc.7b04405
Article source: Figure 2b
Adsorbate Methane: InChIKey VNWKTOKETHGBQD-UHFFFAOYSA-N
Adsorbate Water: InChIKey XLYOFNOQVPJJNP-UHFFFAOYSA-N
Kind: experiment
Temperature: 308 K
Tabular data in the source: 0
pressure (bar)	Methane fraction	Methane uptake (mmol/g)	Water fraction	Water uptake (mmol/g)	total uptake (mmol/g)
1.01325	0.993679	0.108122			
1.01325	0.99418	0.101525			
1.01325	0.994633	0.093668			
1.01325	0.9951	0.086931			
1.01325	0.995959	0.07514			
1.01325	0.996913	0.062086			
1.01325	0.997718	0.050577			
1.01325	0.998421	0.039771			
1.01325	0.998989	0.02953			
1.01325	0.999368	0.022516			
1.01325	0.99951	0.018169			
1.01325	0.999639	0.015364			
1.01325	0.999754	0.011579			
