Adsorption isotherm of Carbon Dioxide, Methane, Water on Zeolite Na-ZSM-5
DOI: 10.1021/acs.jpcc.7b04405
Article source: Figure 3a
Adsorbate Carbon Dioxide: InChIKey CURLTUGMZLYLDI-UHFFFAOYSA-N
Adsorbate Methane: InChIKey VNWKTOKETHGBQD-UHFFFAOYSA-N
Adsorbate Water: InChIKey XLYOFNOQVPJJNP-UHFFFAOYSA-N
Kind: experiment
Temperature: 393 K
Tabular data in the source: 0
pressure (bar)	Carbon Dioxide fraction	Carbon Dioxide uptake (mmol/g)	Methane fraction	Methane uptake (mmol/g)	Water fraction	Water uptake (mmol/g)	total uptake (mmol/g)
1.01325	0.163806	0.052					
1.01325	0.19733	0.05765					
1.01325	0.231977	0.06138					
1.01325	0.263266	0.06703					
1.01325	0.33143	0.08023					
1.01325	0.410768	0.09531					
1.01325	0.580612	0.13117					
1.01325	0.665543	0.14433					
1.01325	0.730381	0.14417					
1.01325	0.76613	0.15554					
1.01325	0.833151	0.18019					
