Adsorption isotherm of Carbon Dioxide, Methane on Zeolite Na-ZSM-5
DOI: 10.1021/acs.jpcc.7b04405
Article source: Figure 3a
Adsorbate Carbon Dioxide: InChIKey CURLTUGMZLYLDI-UHFFFAOYSA-N
Adsorbate Methane: InChIKey VNWKTOKETHGBQD-UHFFFAOYSA-N
Kind: experiment
Temperature: 358 K
Tabular data in the source: 0
pressure (bar)	Carbon Dioxide fraction	Carbon Dioxide uptake (mmol/g)	Methane fraction	Methane uptake (mmol/g)	total uptake (mmol/g)
1.01325	0.029705	0.03128			
1.01325	0.100048	0.07305			
1.01325	0.151418	0.09961			
1.01325	0.198312	0.12808			
1.01325	0.349078	0.20205			
1.01325	0.502091	0.2703			
1.01325	0.648397	0.33856			
1.01325	0.794734	0.39158			
1.01325	0.847209	0.42386			
1.01325	0.896332	0.45614			
1.01325	0.970001	0.51124			
