Adsorption isotherm of Water on Zeolite Na-ZSM-5
DOI: 10.1021/acs.jpcc.7b04405
Article source: Figure 2a
Adsorbate Water: InChIKey XLYOFNOQVPJJNP-UHFFFAOYSA-N
Kind: experiment
Temperature: 323 K
Tabular data in the source: 0
pressure (bar)	uptake (mmol/g)
1.01325	0.63927
1.01325	0.69063
1.01325	0.74898
1.01325	0.76768
1.01325	0.83777
1.01325	0.9009
1.01325	0.94774
1.01325	1.04827
1.01325	1.10451
1.01325	1.14672
1.01325	1.17017
1.01325	1.26361
1.01325	1.31273
