Adsorption isotherm of Carbon Dioxide, Water on Zeolite Na-ZSM-5
DOI: 10.1021/acs.jpcc.7b04405
Article source: Figure 2c
Adsorbate Carbon Dioxide: InChIKey CURLTUGMZLYLDI-UHFFFAOYSA-N
Adsorbate Water: InChIKey XLYOFNOQVPJJNP-UHFFFAOYSA-N
Kind: experiment
Temperature: 393 K
Tabular data in the source: 0
pressure (bar)	Carbon Dioxide fraction	Carbon Dioxide uptake (mmol/g)	Water fraction	Water uptake (mmol/g)	total uptake (mmol/g)
1.01325	0.993656	0.04946			
1.01325	0.994151	0.0534			
1.01325	0.994613	0.05941			
1.01325	0.995099	0.0613			
1.01325	0.995922	0.07746			
1.01325	0.996887	0.09152			
1.01325	0.997717	0.10768			
1.01325	0.998389	0.1239			
1.01325	0.998968	0.1422			
1.01325	0.999337	0.13797			
1.01325	0.999513	0.1523			
1.01325	0.999614	0.16665			
1.01325	0.999731	0.17484			
