Adsorption isotherm of Carbon Dioxide, Methane on Zeolite Na-ZSM-5
DOI: 10.1021/acs.jpcc.7b04405
Article source: Figure 3a
Adsorbate Carbon Dioxide: InChIKey CURLTUGMZLYLDI-UHFFFAOYSA-N
Adsorbate Methane: InChIKey VNWKTOKETHGBQD-UHFFFAOYSA-N
Kind: experiment
Temperature: 323 K
Tabular data in the source: 0
pressure (bar)	Carbon Dioxide fraction	Carbon Dioxide uptake (mmol/g)	Methane fraction	Methane uptake (mmol/g)	total uptake (mmol/g)
1.01325	0.034085	0.07702			
1.01325	0.097586	0.1855			
1.01325	0.148837	0.27115			
1.01325	0.200125	0.33774			
1.01325	0.349559	0.51844			
1.01325	0.501289	0.66865			
1.01325	0.649693	0.80552			
1.01325	0.799268	0.91571			
1.01325	0.848348	0.96896			
1.01325	0.896307	1.02412			
1.01325	0.9666	1.09066			
