Adsorption isotherm of Water on Zeolite Na-ZSM-5
DOI: 10.1021/acs.jpcc.7b04405
Article source: Figure 2a
Adsorbate Water: InChIKey XLYOFNOQVPJJNP-UHFFFAOYSA-N
Kind: experiment
Temperature: 358 K
Tabular data in the source: 0
pressure (bar)	uptake (mmol/g)
1.01325	0.41765
1.01325	0.43634
1.01325	0.44804
1.01325	0.48308
1.01325	0.49717
1.01325	0.56031
1.01325	0.57915
1.01325	0.61902
1.01325	0.64027
1.01325	0.65216
1.01325	0.67794
1.01325	0.67573
1.01325	0.70385
