Adsorption isotherm of Carbon Dioxide, Methane on Zeolite Na-ZSM-5
DOI: 10.1021/acs.jpcc.7b04405
Article source: Figure 3a
Adsorbate Carbon Dioxide: InChIKey CURLTUGMZLYLDI-UHFFFAOYSA-N
Adsorbate Methane: InChIKey VNWKTOKETHGBQD-UHFFFAOYSA-N
Kind: experiment
Temperature: 393 K
Tabular data in the source: 0
pressure (bar)	Carbon Dioxide fraction	Carbon Dioxide uptake (mmol/g)	Methane fraction	Methane uptake (mmol/g)	total uptake (mmol/g)
1.01325	0.029573	0.00233			
1.01325	0.104619	0.02348			
1.01325	0.151536	0.04052			
1.01325	0.202937	0.05183			
1.01325	0.348201	0.08198			
1.01325	0.501284	0.11592			
1.01325	0.647686	0.13653			
1.01325	0.799642	0.17429			
1.01325	0.848826	0.17608			
1.01325	0.899085	0.19883			
1.01325	0.968356	0.21772			
