Adsorption isotherm of Carbon Dioxide, Methane on Zeolite Na-ZSM-5
DOI: 10.1021/acs.jpcc.7b04405
Article source: Figure 3b
Adsorbate Carbon Dioxide: InChIKey CURLTUGMZLYLDI-UHFFFAOYSA-N
Adsorbate Methane: InChIKey VNWKTOKETHGBQD-UHFFFAOYSA-N
Kind: experiment
Temperature: 358 K
Tabular data in the source: 0
pressure (bar)	Carbon Dioxide fraction	Carbon Dioxide uptake (mmol/g)	Methane fraction	Methane uptake (mmol/g)	total uptake (mmol/g)
1.01325			0.970429	0.053064	
1.01325			0.897217	0.049251	
1.01325			0.850742	0.045246	
1.01325			0.804286	0.043432	
1.01325			0.653584	0.029404	
1.01325			0.498014	0.021953	
1.01325			0.352257	0.010113	
1.01325			0.200202	0.002322	
1.01325			0.151643	0.001352	
1.01325			0.101682	0.001057	
