Adsorption isotherm of Carbon Dioxide, Water on Zeolite Na-ZSM-5
DOI: 10.1021/acs.jpcc.7b04405
Article source: Figure 2c
Adsorbate Carbon Dioxide: InChIKey CURLTUGMZLYLDI-UHFFFAOYSA-N
Adsorbate Water: InChIKey XLYOFNOQVPJJNP-UHFFFAOYSA-N
Kind: experiment
Temperature: 358 K
Tabular data in the source: 0
pressure (bar)	Carbon Dioxide fraction	Carbon Dioxide uptake (mmol/g)	Water fraction	Water uptake (mmol/g)	total uptake (mmol/g)
1.01325	0.993673	0.10085			
1.01325	0.994134	0.11713			
1.01325	0.994621	0.13136			
1.01325	0.995099	0.14559			
1.01325	0.995947	0.1823			
1.01325	0.996895	0.22309			
1.01325	0.997709	0.25776			
1.01325	0.998422	0.30069			
1.01325	0.998985	0.33955			
1.01325	0.999354	0.3641			
1.01325	0.999463	0.38051			
1.01325	0.999631	0.40101			
1.01325	0.999757	0.4133			
