Adsorption isotherm of Water on Zeolite A
DOI: 10.1021/Ie071645b
Adsorbate Water: InChIKey XLYOFNOQVPJJNP-UHFFFAOYSA-N
Temperature: 393 K
Tabular data in the source: 0
pressure (bar)	uptake (mmol/g)
0.000410023	0.225531
0.00129841	0.611755
0.00205011	0.998275
0.00246014	1.09443
0.00300683	1.28732
0.00355353	1.48021
0.00403189	1.67325
0.00457859	1.86614
0.0053303	2.25266
0.00587699	2.31617
0.00642369	2.50906
0.00697039	2.66961
0.00765376	2.8622
0.00826879	2.95791
0.00881549	3.11846
0.00943052	3.27886
0.0100456	3.40691
0.0105923	3.56746
0.0112073	3.72785
0.0118223	3.85591
0.0124374	3.98396
0.0127107	4.04806
0.0133257	4.17612
0.0138724	4.30432
0.0145558	4.39988
0.0151708	4.52793
0.0157859	4.62364
0.0164692	4.75155
0.0170843	4.84726
0.0176993	4.94297
0.0183144	5.03868
0.0189977	5.13424
0.0196128	5.22995
0.0202961	5.32551
0.0209112	5.42122
