Adsorption isotherm of Ethanol on Zeolite A
DOI: 10.1021/Ie071645b
Adsorbate Ethanol: InChIKey LFQSCWFLJHTTHZ-UHFFFAOYSA-N
Temperature: 333 K
Tabular data in the source: 0
pressure (bar)	uptake (mmol/g)
0.00107789	0.840701
0.00261583	1.44144
0.00834309	2.45903
0.0132611	2.80224
0.017379	2.95126
0.021296	3.00787
