Adsorption isotherm of Ethanol, Water on Zeolite A
DOI: 10.1021/ie071645b
Article source: Figure 4
Adsorbate Ethanol: InChIKey LFQSCWFLJHTTHZ-UHFFFAOYSA-N
Adsorbate Water: InChIKey XLYOFNOQVPJJNP-UHFFFAOYSA-N
Kind: experiment
Temperature: 423 K
Tabular data in the source: 0
pressure (bar)	Ethanol fraction	Ethanol uptake (mmol/g)	Water fraction	Water uptake (mmol/g)	total uptake (mmol/g)
2.1e-05	0.99911	2.8331	0.00465	-0.0162	
2.1e-05	0.96537	2.6546	0.03835	0.1797	
2.1e-05	0.93861	2.4433	0.0615	1.2873	
2.1e-05	0.86176	1.3862	0.13787	5.2288	
2.1e-05	0.50355	0.6594	0.49687	8.2957	
2.1e-05	0.30119	0.2882	0.69793	9.3248	
2.1e-05	0.00116	0.0163	0.99789	9.7367	
