Adsorption isotherm of Ethanol on Zeolite A
DOI: 10.1021/Ie071645b
Adsorbate Ethanol: InChIKey LFQSCWFLJHTTHZ-UHFFFAOYSA-N
Temperature: 393 K
Tabular data in the source: 0
pressure (bar)	uptake (mmol/g)
0.000333436	0.0832161
0.000866515	0.194198
0.00119978	0.268179
0.00159941	0.342181
0.00206576	0.434673
0.0024654	0.508674
0.00286486	0.573441
0.00333086	0.647463
0.00379669	0.712251
0.00419615	0.777017
0.00466198	0.841804
0.00519418	0.906612
0.00565984	0.962164
0.00619204	1.02697
0.00672407	1.08254
0.0071899	1.14733
0.00772175	1.19367
0.00825378	1.24924
0.00878581	1.30482
0.00931783	1.36039
0.00984969	1.40673
0.0103815	1.45306
0.0113121	1.52723
0.011844	1.57357
0.0123759	1.6199
0.0129741	1.66626
0.0135723	1.71262
0.0141703	1.74974
0.0147684	1.78687
0.0153663	1.81476
0.0159643	1.85188
0.0164958	1.87975
0.0167617	1.8983
0.0173597	1.93542
0.0179576	1.96331
0.0186218	1.99122
0.0192197	2.01911
0.0198176	2.047
0.0204155	2.07489
0.0210795	2.09356
0.0216776	2.13068
0.0223416	2.14936
0.0230059	2.17727
