Adsorption isotherm of Water on Zeolite A
DOI: 10.1021/Ie071645b
Adsorbate Water: InChIKey XLYOFNOQVPJJNP-UHFFFAOYSA-N
Temperature: 423 K
Tabular data in the source: 0
pressure (bar)	uptake (mmol/g)
0.00485194	0.798163
0.0084738	1.56663
0.0112756	1.75466
0.011959	2.43243
0.0143508	2.62135
0.0217312	2.86419
