Adsorption isotherm of Water on Zeolite A
DOI: 10.1021/Ie071645b
Adsorbate Water: InChIKey XLYOFNOQVPJJNP-UHFFFAOYSA-N
Temperature: 423 K
Tabular data in the source: 0
pressure (bar)	uptake (mmol/g)
0.000546697	0.128201
0.00136674	0.255813
0.00198178	0.383867
0.00259681	0.479576
0.00321185	0.575284
0.00389522	0.703191
0.00512528	0.926954
0.00580866	0.99017
0.00642369	1.11822
0.00703872	1.18159
0.0077221	1.27715
0.00833713	1.4052
0.00881549	1.43652
0.00943052	1.53223
0.0100456	1.62793
0.0107289	1.7235
0.011549	1.85111
0.0122323	1.91432
0.0128474	1.97769
0.0134624	2.0734
0.0141458	2.16896
0.0147608	2.19998
0.0153759	2.26334
0.0160592	2.3589
0.0166743	2.45461
0.0173576	2.51783
0.0179727	2.58119
0.0185877	2.64455
0.0192027	2.67557
0.0198178	2.80363
0.0205011	2.8345
0.0211162	2.93021
0.0215262	2.96167
