Adsorption isotherm of Water on Zeolite A
DOI: 10.1021/Ie071645b
Adsorbate Water: InChIKey XLYOFNOQVPJJNP-UHFFFAOYSA-N
Temperature: 333 K
Tabular data in the source: 0
pressure (bar)	uptake (mmol/g)
0.00102506	3.84685
0.00539863	8.10696
0.00943052	9.00392
0.0133941	9.64228
0.0173576	9.98953
0.0213895	9.91614
