Adsorption isotherm of Water on Zeolite A
DOI: 10.1021/Ie071645b
Adsorbate Water: InChIKey XLYOFNOQVPJJNP-UHFFFAOYSA-N
Temperature: 305 K
Tabular data in the source: 0
pressure (bar)	uptake (mmol/g)
0.000136674	0.905366
0.000205011	1.45508
0.000410023	2.81313
0.00047836	3.49223
0.000546697	4.13898
0.000615034	4.46229
0.000683371	4.78559
0.000751708	5.43234
0.000820046	5.75564
0.000888383	6.07895
0.00095672	6.40225
0.00102506	6.72555
0.00109339	7.04886
0.00116173	7.37216
0.00123007	7.85719
0.00136674	8.27738
0.00177677	8.69698
0.00211845	9.05204
0.00232346	9.18097
0.00273349	9.43885
0.00321185	9.66423
0.00375854	9.85712
0.00430524	10.05
0.00485194	10.2106
0.00539863	10.3711
0.00601367	10.4668
0.0066287	10.5625
0.00724374	10.6582
0.00792711	10.7215
0.00854214	10.7525
0.00915718	10.8158
0.00984055	10.8467
0.0105239	10.8452
0.0112073	10.8761
0.0118907	10.907
0.0125057	10.9703
0.0131207	10.9367
0.0138041	10.9999
0.0144875	10.9984
0.0151708	10.9969
0.0158542	10.9955
0.0165376	11.0263
0.017221	11.0249
0.0179043	11.0234
0.0185194	11.0544
0.0192027	11.0529
0.0198861	11.0515
0.0205695	11.05
