Adsorption isotherm of Ethanol on Zeolite A
DOI: 10.1021/Ie071645b
Adsorbate Ethanol: InChIKey LFQSCWFLJHTTHZ-UHFFFAOYSA-N
Temperature: 423 K
Tabular data in the source: 0
pressure (bar)	uptake (mmol/g)
0.00445761	0.564697
0.00825045	1.07378
0.0134327	1.35242
0.0173497	1.40903
0.0215355	1.64119
