Adsorption isotherm of Ethanol on Zeolite A
DOI: 10.1021/Ie071645b
Adsorbate Ethanol: InChIKey LFQSCWFLJHTTHZ-UHFFFAOYSA-N
Temperature: 305 K
Tabular data in the source: 0
pressure (bar)	uptake (mmol/g)
0.000750407	1.07147
0.00209116	1.77373
0.00562341	2.54131
0.0116717	2.98644
0.0179129	3.10842
0.0246862	3.28596
