Adsorption isotherm of Water on Zeolite A
DOI: 10.1021/Ie071645b
Adsorbate Water: InChIKey XLYOFNOQVPJJNP-UHFFFAOYSA-N
Temperature: 393 K
Tabular data in the source: 0
pressure (bar)	uptake (mmol/g)
0.00109339	0.644543
0.00485194	1.60679
0.0129157	3.36838
0.0213212	5.35564
