Adsorption isotherm of Ethanol on Zeolite A
DOI: 10.1021/Ie071645b
Adsorbate Ethanol: InChIKey LFQSCWFLJHTTHZ-UHFFFAOYSA-N
Temperature: 423 K
Tabular data in the source: 0
pressure (bar)	uptake (mmol/g)
0.000266189	0.0370213
0.000931661	0.129574
0.00139749	0.194362
0.00186332	0.259149
0.00232898	0.314701
0.00286118	0.379509
0.00332683	0.435061
0.00385886	0.490634
0.00439106	0.555441
0.00485637	0.592524
0.00538857	0.657332
0.00592042	0.703669
0.00645245	0.759242
0.0069843	0.80558
0.0075827	0.861173
0.00811455	0.907511
0.00864641	0.953849
0.00917808	0.990952
0.00977631	1.03731
0.0103744	1.07443
0.0109062	1.12077
0.0115043	1.15789
0.0121025	1.20425
0.0127005	1.24138
0.0132986	1.2785
0.0138966	1.31562
0.0144949	1.36198
0.0150927	1.38987
0.0156908	1.42699
0.0162887	1.45488
0.0168865	1.48277
0.0174846	1.51989
0.0180824	1.54778
0.0186805	1.58491
0.0193446	1.60358
0.0199426	1.6407
0.0205405	1.66859
0.0212046	1.68727
0.0214039	1.69656
