Adsorption isotherm of Ethanol on Zeolite A
DOI: 10.1021/Ie071645b
Adsorbate Ethanol: InChIKey LFQSCWFLJHTTHZ-UHFFFAOYSA-N
Temperature: 305 K
Tabular data in the source: 0
pressure (bar)	uptake (mmol/g)
0.00020437	0.277108
0.000543235	0.646605
0.000611359	0.738974
0.000814853	0.969908
0.000949523	1.07153
0.00108402	1.16392
0.00121851	1.25631
0.00135283	1.33947
0.00148733	1.43186
0.00162183	1.52425
0.00182252	1.60742
0.00229045	1.78303
0.00249114	1.8662
0.00275821	1.9494
0.00309164	2.03261
0.00335871	2.11581
0.00369214	2.19903
0.00409178	2.27303
0.00449141	2.34703
0.00489087	2.4118
0.0052243	2.49501
0.00548997	2.50433
0.00588908	2.55063
0.00635473	2.60618
0.00688693	2.67099
0.00741879	2.71732
0.00801701	2.76368
0.00854886	2.81002
0.00914691	2.84714
0.00974496	2.88427
0.0103428	2.91215
0.0110071	2.94006
0.0120035	2.98654
0.0126016	3.02367
0.0132655	3.03311
0.0138634	3.061
0.0144609	3.07041
0.0151251	3.09832
0.0157228	3.11698
0.0163867	3.12642
0.0170508	3.14509
0.0183122	3.16395
0.0189761	3.17339
0.01964	3.18283
0.0202375	3.19225
0.0209014	3.20168
0.0215653	3.21112
0.0222292	3.22056
0.0228267	3.22998
0.0234905	3.23019
0.0241544	3.23963
