Adsorption isotherm of Water on Zeolite A
DOI: 10.1021/Ie071645b
Adsorbate Water: InChIKey XLYOFNOQVPJJNP-UHFFFAOYSA-N
Temperature: 393 K
Tabular data in the source: 0
pressure (bar)	uptake (mmol/g)
0.0018451	0.901682
0.00519362	2.09123
0.00744875	2.79795
0.0127107	3.72461
0.0149658	4.46369
0.018041	4.65112
