Adsorption isotherm of Ethanol on Zeolite A
DOI: 10.1021/Ie071645b
Adsorbate Ethanol: InChIKey LFQSCWFLJHTTHZ-UHFFFAOYSA-N
Temperature: 333 K
Tabular data in the source: 0
pressure (bar)	uptake (mmol/g)
0.000202093	0.157054
0.000336939	0.267914
0.000537631	0.351089
0.000672127	0.443479
0.000806622	0.535868
0.000940942	0.619023
0.00120923	0.766863
0.0014101	0.859273
0.00161079	0.942448
0.00181166	1.03486
0.00207907	1.13652
0.00234614	1.21972
0.00267958	1.30294
0.00301319	1.39539
0.00334662	1.4786
0.00367988	1.55258
0.00407934	1.61735
0.00441278	1.70057
0.00481241	1.77457
0.00527824	1.83936
0.00567788	1.91336
0.00614371	1.97814
0.00654334	2.05215
0.007009	2.1077
0.00747483	2.17249
0.00794066	2.23727
0.00840631	2.29283
0.00893851	2.35763
0.00940399	2.40395
0.00993585	2.45029
0.0104679	2.50586
0.0109996	2.54296
0.0115976	2.58009
0.0121956	2.61721
0.0127937	2.65433
0.0133917	2.69146
0.0139896	2.71935
0.0145873	2.738
0.0151852	2.76589
0.0157831	2.79378
0.0163809	2.82167
0.017045	2.84034
0.0177091	2.85901
0.0183068	2.87767
0.0189709	2.89634
0.0196347	2.90578
0.0202324	2.92443
0.0208965	2.94311
0.0214278	2.96174
