Adsorption isotherm of Water on Zeolite A
DOI: 10.1021/Ie071645b
Adsorbate Water: InChIKey XLYOFNOQVPJJNP-UHFFFAOYSA-N
Temperature: 363 K
Tabular data in the source: 0
pressure (bar)	uptake (mmol/g)
0.00205011	2.4538
0.0053303	4.71088
0.00820046	5.90145
0.0105923	6.34913
0.0164009	7.66275
0.0212528	8.33153
