Adsorption isotherm of Ethanol on Zeolite A
DOI: 10.1021/Ie071645b
Adsorbate Ethanol: InChIKey LFQSCWFLJHTTHZ-UHFFFAOYSA-N
Temperature: 393 K
Tabular data in the source: 0
pressure (bar)	uptake (mmol/g)
0.00166666	0.388376
0.010981	1.56407
0.0164949	1.83357
0.0230052	2.14033
