Adsorption isotherm of Water on Zeolite A
DOI: 10.1021/Ie071645b
Adsorbate Water: InChIKey XLYOFNOQVPJJNP-UHFFFAOYSA-N
Temperature: 305 K
Tabular data in the source: 0
pressure (bar)	uptake (mmol/g)
0.00102506	7.82528
0.00205011	9.08453
0.00587699	9.98194
0.00888383	11.2046
0.0133257	10.5157
0.0213212	11.1777
