Adsorption isotherm of Water on Zeolite A
DOI: 10.1021/Ie071645b
Adsorbate Water: InChIKey XLYOFNOQVPJJNP-UHFFFAOYSA-N
Temperature: 363 K
Tabular data in the source: 0
pressure (bar)	uptake (mmol/g)
0.000410023	0.451946
0.000615034	0.742609
0.000888383	1.06547
0.00116173	1.35599
0.00143508	1.6465
0.00177677	1.93687
0.00205011	2.22739
0.0023918	2.5501
0.00273349	2.84047
0.00307517	3.09849
0.00341686	3.38886
0.00382688	3.64673
0.00416856	3.90476
0.00457859	4.16263
0.00498861	4.45285
0.00567198	4.80718
0.006082	5.03271
0.00656036	5.25809
0.00703872	5.48347
0.00751708	5.67651
0.0084738	6.03025
0.00895216	6.19094
0.0095672	6.38368
0.0101139	6.51188
0.0106606	6.67243
0.0112756	6.80048
0.0118907	6.92854
0.0124374	7.02439
0.0130524	7.18479
0.0136674	7.2805
0.0142825	7.40856
0.0148975	7.53661
0.0155125	7.63232
0.0166059	7.82403
0.017221	7.91974
0.017836	7.9831
0.0185194	8.07866
0.0191344	8.17437
0.0197494	8.23774
0.0204328	8.3333
0.0209795	8.36446
