Adsorption isotherm of Water on Zeolite A
DOI: 10.1021/Ie071645b
Adsorbate Water: InChIKey XLYOFNOQVPJJNP-UHFFFAOYSA-N
Temperature: 333 K
Tabular data in the source: 0
pressure (bar)	uptake (mmol/g)
0.000205011	0.387698
0.000273349	1.00211
0.000410023	1.61637
0.000546697	2.23063
0.000888383	3.20024
0.00116173	3.94359
0.00143508	4.68693
0.00205011	5.49423
0.00246014	5.97852
0.00314351	6.55926
0.00375854	7.07545
0.00464692	7.6234
0.00519362	7.97802
0.00567198	8.23575
0.00621868	8.39629
0.0066287	8.58948
0.00765376	8.97541
0.00874715	9.16712
0.00984055	9.42352
0.011139	9.64714
0.0118223	9.67801
0.0128474	9.83753
0.0138724	9.9647
0.0145558	9.96322
0.0154442	10.0907
0.0161276	10.0892
0.0167426	10.1526
0.017836	10.2473
0.018451	10.2459
0.0191344	10.2768
0.0200228	10.3072
0.0211845	10.3694
