Adsorption isotherm of Nitrogen on TAPP-TFPP-COF soaked in 3M NaOH aqueous solution
DOI: 10.1021/acsami.0c06022
Article source: Figure S6
Adsorbate Nitrogen: InChIKey IJGRMHOSHXDMSA-UHFFFAOYSA-N
Kind: experiment
Temperature: 77 K
Tabular data in the source: 0
pressure (bar)	uptake (cm3(STP)/g)
0	8.69565
0	21.7391
0	36.9565
0	51.087
0	64.1304
0	79.3478
0	90.2174
0	103.261
0	116.304
0	125
0	134.783
0	141.304
0.002546	151.087
0.005092	163.043
0.005092	173.913
0.007638	184.783
0.015275	197.826
0.020367	211.957
0.03055	226.087
0.044552	240.217
0.076376	255.435
0.091651	266.304
0.112018	273.913
0.160389	282.609
0.201122	289.13
0.244402	293.478
0.28259	298.913
0.323323	304.348
0.374241	307.609
0.427704	310.87
0.478621	317.391
0.524446	320.652
0.572817	323.913
0.62628	325
0.679743	329.348
0.728114	332.609
0.779031	334.783
0.827403	336.957
0.880866	339.13
0.934329	341.304
0.972516	345.652
0.987791	354.348
0.997975	363.043
1.00816	376.087
1.00816	382.609
0.997975	370.652
0.96997	363.043
0.931783	358.696
0.893595	353.261
0.840132	350
0.789572	347.699
0.740463	345.078
0.688897	342.982
0.637332	342.458
0.588222	338.788
0.539112	335.119
0.486319	331.45
0.437209	329.353
0.384416	325.684
0.335306	322.538
0.282513	319.393
0.244453	315.724
0.201482	312.055
0.160966	304.716
0.122906	297.377
0.092213	288.466
0.068885	279.031
0.040647	264.878
0.027142	248.104
0.016092	229.757
0.011181	217.701
0.008726	206.693
0.001359	197.782
0.001359	189.919
0.001359	178.911
0.001359	166.855
