Adsorption isotherm of Nitrogen on TAPP-TFPP-COF soaked in pristine
DOI: 10.1021/acsami.0c06022
Article source: Figure S6
Adsorbate Nitrogen: InChIKey IJGRMHOSHXDMSA-UHFFFAOYSA-N
Kind: experiment
Temperature: 77 K
Tabular data in the source: 0
pressure (bar)	uptake ()
0.001359	60.9685
0.001359	45.7671
0.001359	15.8884
0.001359	29.5172
0.000132	73.0249
0.001359	85.6054
0.001359	110.242
0.001359	98.1859
0.003815	121.25
0.002587	131.734
0.002587	140.121
0.001359	149.032
0.001359	156.371
-0.001096	167.379
-0.001096	175.766
0.001359	186.249
0.001359	200.403
0.005043	210.886
0.008726	223.991
0.026528	261.733
0.012409	234.999
0.016092	244.959
0.038192	277.72
0.072569	297.902
0.090985	309.958
0.113084	318.869
0.160966	327.78
0.20271	337.216
0.238314	341.409
0.281285	348.748
0.324257	354.514
0.37705	358.707
0.423704	364.473
0.472814	369.191
0.525607	373.385
0.572261	377.578
0.629965	379.675
0.677847	384.917
0.726957	386.489
0.782206	390.683
0.830088	394.352
0.880426	395.401
0.929535	398.022
0.968823	403.263
0.988467	413.223
0.997061	426.328
1.00566	436.811
1.00443	441.005
0.972507	419.513
0.935674	412.699
0.892703	405.36
0.843593	401.167
0.7908	397.497
0.742918	394.876
0.688897	392.255
0.63856	390.159
0.586994	386.489
0.536657	381.247
0.488775	378.627
0.435981	375.481
0.383188	370.24
0.336534	367.619
0.282513	363.425
0.244453	358.183
0.201482	352.941
0.163422	344.554
0.119223	335.119
0.090985	324.635
0.067658	312.055
0.041875	294.756
0.027142	272.216
0.016092	251.773
0.008726	236.572
0.00627	222.418
0.002587	210.362
0.001359	198.306
0	186.774
0	172.621
