Adsorption isotherm of Nitrogen on TAPP-TFPP-COF soaked in hexane
DOI: 10.1021/acsami.0c06022
Article source: Figure S6
Adsorbate Nitrogen: InChIKey IJGRMHOSHXDMSA-UHFFFAOYSA-N
Kind: experiment
Temperature: 77 K
Tabular data in the source: 0
pressure (bar)	uptake (cm3(STP)/g)
0.001973	10.1223
0.001359	25.3237
0.001359	39.4768
0.001359	54.1541
0.001359	64.1137
0.000132	75.6458
0.000132	91.8956
0.000132	102.904
0.001359	113.387
0.001359	123.347
0.000132	135.403
0.000132	146.935
0.001359	157.943
0.001359	170
0.002587	178.911
0.003815	193.064
0.007498	200.403
0.011181	209.314
0.016092	224.515
0.02837	241.813
0.041875	257.539
0.073796	273.789
0.095896	284.273
0.114312	292.135
0.160966	301.571
0.199026	309.434
0.24077	313.627
0.284969	319.917
0.325484	325.684
0.372139	329.091
0.423704	334.595
0.475269	339.837
0.52929	343.506
0.575945	347.175
0.62751	350.32
0.674164	353.466
0.72573	356.611
0.778523	357.659
0.830088	361.853
0.881653	363.425
0.929535	363.949
0.972507	370.764
0.987239	378.627
1.00075	391.731
1.01057	400.118
1.01057	403.788
0.973734	383.868
0.934446	378.627
0.892703	372.336
0.841138	368.667
0.788345	366.046
0.740463	362.901
0.688897	359.756
0.639787	358.183
0.590677	356.086
0.54034	350.32
0.487547	348.224
0.434754	345.603
0.385644	341.409
0.336534	337.74
0.284969	332.498
0.243225	329.353
0.205165	324.111
0.163422	316.248
0.122906	308.385
0.088529	297.902
0.070113	284.797
0.039419	270.644
0.023459	250.2
