Adsorption isotherm of Nitrogen on TAPP-TFPP-COF soaked in 3M HCl aqueous solution
DOI: 10.1021/acsami.0c06022
Article source: Figure S6
Adsorbate Nitrogen: InChIKey IJGRMHOSHXDMSA-UHFFFAOYSA-N
Kind: experiment
Temperature: 77 K
Tabular data in the source: 0
pressure (bar)	uptake (cm3(STP)/g)
0.000132	15.3642
0.000132	28.9931
0.000132	44.7187
0.001359	57.8234
0.000132	71.9765
0.001359	85.0812
0.001359	96.6133
0.003815	109.194
0.001359	119.678
0.003815	130.686
0.002587	145.363
0.001359	156.895
0.002587	164.758
0.00627	175.766
0.011181	189.919
0.013637	203.024
0.021003	217.701
0.02837	231.854
0.04433	245.483
0.073796	262.257
0.089757	273.265
0.113084	280.603
0.162194	288.466
0.196571	295.805
0.234631	299.998
0.284969	306.289
0.321801	311.53
0.373366	314.151
0.42616	318.869
0.471586	322.538
0.525607	326.208
0.575945	329.353
0.62751	331.974
0.677847	335.643
0.726957	338.788
0.778523	340.885
0.830088	343.506
0.879198	346.127
0.930763	347.699
0.967596	352.941
0.989695	360.804
0.997061	369.715
1.01057	378.102
1.00811	393.304
0.999517	381.247
0.973734	374.433
0.934446	369.191
0.891475	362.901
0.841138	360.28
0.788345	356.611
0.735552	353.99
0.690125	350.32
0.639787	350.845
0.58945	347.175
0.537884	342.458
0.486319	339.837
0.435981	337.74
0.384416	333.022
0.337762	329.877
0.283741	325.684
0.244453	322.538
0.20271	318.869
0.160966	311.006
0.124134	303.143
0.090985	292.66
0.068885	280.603
0.040647	268.023
0.023459	247.58
0.021003	232.378
0.011181	217.701
0.003815	206.693
0	187.298
0	174.717
0	163.709
0	155.584
