Adsorption isotherm of Nitrogen on TAPP-TFPP-COF soaked in boiling water
DOI: 10.1021/acsami.0c06022
Article source: Figure S6
Adsorbate Nitrogen: InChIKey IJGRMHOSHXDMSA-UHFFFAOYSA-N
Kind: experiment
Temperature: 77 K
Tabular data in the source: 0
pressure (bar)	uptake (cm3(STP)/g)
0.001359	8.54972
0.001359	22.1786
0.001359	36.3317
0.001973	51.5331
-0.003552	74.0732
0.001359	62.0169
0.001973	88.7505
0.001359	104.476
0.003815	116.008
0.001359	130.686
0.000132	143.266
0.001359	152.701
0.002587	161.351
0.003201	173.145
0.003815	185.201
0.002587	198.83
0.00627	215.08
0.011181	228.185
0.013637	238.668
0.021003	247.055
0.030825	260.16
0.048014	269.595
0.068885	284.797
0.090985	298.95
0.114312	306.289
0.159739	316.248
0.201482	325.159
0.241998	330.401
0.280058	336.167
0.325484	341.409
0.374594	345.603
0.421249	349.796
0.472814	354.514
0.526835	358.707
0.574717	362.377
0.623827	364.998
0.674164	369.191
0.728185	371.812
0.777295	374.957
0.827632	378.102
0.87797	379.675
0.92708	381.772
0.968823	387.538
0.988467	396.449
0.998289	409.029
1.00688	418.465
1.00811	421.61
0.971279	402.739
0.930763	395.925
0.893931	388.062
0.837454	385.441
0.7908	381.772
0.739235	379.675
0.688897	376.53
0.634876	375.481
0.585766	371.288
0.537271	367.619
0.485091	363.425
0.434754	360.28
0.384416	356.611
0.335306	352.417
0.283741	348.748
0.243225	345.603
0.203937	339.837
0.162194	331.974
0.120451	322.538
0.089757	310.482
0.067658	298.95
0.040647	282.7
0.023459	262.257
0.01732	241.289
0.009954	227.136
0.005043	214.031
0.002587	201.451
0.001359	190.967
