Adsorption isotherm of Nitrogen on TAPP-TFPP-COF
DOI: 10.1021/acsami.0c06022
Article source: Figure 4
Adsorbate Nitrogen: InChIKey IJGRMHOSHXDMSA-UHFFFAOYSA-N
Kind: experiment
Temperature: 77 K
Tabular data in the source: 0
pressure (bar)	uptake ()
0	17.094
0	34.188
0	49.1453
0	68.3761
0	83.3333
0	98.2906
0	113.248
0	128.205
0	138.889
0	153.846
0	164.53
0	170.94
0	179.487
0.00433	194.444
0.01299	205.128
0.010825	215.812
0.017321	237.179
0.01299	226.496
0.017321	247.863
0.034641	264.957
0.043301	282.051
0.077942	301.282
0.090933	314.103
0.116913	322.65
0.160215	333.333
0.203516	341.88
0.242487	346.154
0.281458	352.564
0.320429	358.974
0.374556	361.111
0.424353	367.521
0.476314	371.795
0.523946	373.932
0.575907	379.273
0.627869	384.615
0.67983	386.752
0.727462	386.752
0.779423	393.162
0.831385	395.299
0.883346	395.299
0.930978	398.504
0.974279	401.709
0.991599	416.667
1.00459	427.35
1.01325	442.308
0.969949	418.803
0.935308	412.393
0.892006	408.12
0.844375	401.709
0.792413	399.573
0.740452	397.436
0.692821	393.162
0.640859	391.026
0.588897	391.026
0.541266	384.615
0.484974	380.342
0.441673	378.205
0.389712	373.932
0.33342	367.521
0.285788	365.385
0.242487	363.248
0.203516	356.838
0.164545	348.291
0.121244	337.607
0.090933	326.923
0.064952	314.103
0.038971	299.145
0.021651	275.641
0.01299	256.41
0.00433	239.316
0.00433	226.496
0	215.812
0	205.128
0	190.171
0	177.35
0	162.393
