Adsorption isotherm of Nitrogen on Cr-MIL(101)
DOI: 10.1039/C2ce06666a
Adsorbate Nitrogen: InChIKey IJGRMHOSHXDMSA-UHFFFAOYSA-N
Temperature: 77 K
Tabular data in the source: 0
pressure (bar)	uptake (cm3(STP)/g)
0.00515504	388.929
0.00628611	294.54
0.0123058	438.698
0.0280373	497.048
0.05521	574.276
0.100975	678.962
0.145309	831.702
0.228257	932.956
0.25114	1034.21
0.339808	1054.8
0.45708	1071.97
0.548609	1077.11
0.642999	1080.55
0.744539	1083.98
0.804605	1092.56
0.847509	1092.56
0.891844	1092.56
0.963351	1092.56
