Adsorption isotherm of Nitrogen on V(dop)-MIL-101(Cr)
DOI: 10.1039/C2ce06666a
Adsorbate Nitrogen: InChIKey IJGRMHOSHXDMSA-UHFFFAOYSA-N
Temperature: 77 K
Tabular data in the source: 0
pressure (bar)	uptake (cm3(STP)/g)
0.00515504	133.22
0.00658518	186.421
0.00801532	241.339
0.0337579	318.566
0.0537799	366.619
0.102405	423.253
0.189643	505.629
0.222537	538.236
0.295474	545.101
0.395584	553.682
0.501415	562.263
0.597234	562.263
0.703065	563.979
0.800315	570.844
0.888983	565.695
0.95477	581.141
