Adsorption isotherm of Nitrogen on Dop-MIL-101(Cr)
DOI: 10.1039/C2ce06666a
Adsorbate Nitrogen: InChIKey IJGRMHOSHXDMSA-UHFFFAOYSA-N
Temperature: 77 K
Tabular data in the source: 0
pressure (bar)	uptake (cm3(STP)/g)
0.00801532	200.151
0.0108756	304.837
0.0237469	373.484
0.0437689	421.537
0.0923938	521.075
0.145309	567.411
0.188213	594.87
0.208235	634.342
0.302625	651.504
0.404165	654.936
0.501415	660.085
0.598664	661.801
0.701635	665.233
0.797454	675.53
0.877542	678.962
0.949049	690.976
