Adsorption isotherm of Nitrogen on DaTp-CONs
DOI: 10.1002/anie.201607812
Article source: Figure S20
Adsorbate Nitrogen: InChIKey IJGRMHOSHXDMSA-UHFFFAOYSA-N
Kind: experiment
Temperature: 77 K
Tabular data in the source: 0
pressure (bar)	uptake (cm3(STP)/g)
0.002465	1.53374
0.029584	1.53374
0.061633	4.60123
0.081356	4.60123
0.11094	4.60123
0.138058	6.13497
0.187365	6.13497
0.224345	10.7362
0.241602	10.7362
0.268721	12.2699
0.305701	13.8037
0.325423	13.8037
0.350077	15.3374
0.364869	16.8712
0.391987	16.8712
0.426502	21.4724
0.44869	21.4724
0.473343	21.4724
0.497996	23.0061
0.532511	24.5399
0.552234	26.0736
0.574422	29.1411
0.594144	29.1411
0.623728	30.6748
0.650847	30.6748
0.6755	32.2086
0.702619	35.2761
0.732203	36.8098
0.751925	38.3436
0.783974	38.3436
0.811093	41.411
0.833281	42.9448
0.855469	44.4785
0.917102	52.1472
0.944221	53.681
0.961478	61.3497
1.00092	104.294
1.00832	115.031
0.954082	78.2209
0.931894	62.8834
0.885053	52.1472
0.838212	44.4785
0.79137	42.9448
0.761786	39.8773
0.717411	39.8773
0.677965	35.2761
0.636055	35.2761
0.599075	33.7423
0.557164	32.2086
0.52758	29.1411
0.480739	27.6074
0.438828	26.0736
0.394453	23.0061
0.35624	21.4724
0.313097	18.4049
0.273651	16.8712
0.241602	16.8712
0.204622	13.8037
0.160246	10.7362
0.080123	6.90184
0.041911	3.83436
