Adsorption isotherm of Nitrogen on DaTp
DOI: 10.1002/anie.201607812
Article source: Figure S20
Adsorbate Nitrogen: InChIKey IJGRMHOSHXDMSA-UHFFFAOYSA-N
Kind: experiment
Temperature: 77 K
Tabular data in the source: 0
pressure (bar)	uptake (cm3(STP)/g)
0.004931	62.8834
0.004931	75.1534
0.007396	87.4233
0.012327	95.092
0.029584	111.963
0.054237	119.632
0.083821	127.301
0.113405	134.969
0.138058	138.037
0.165177	142.638
0.194761	147.239
0.216949	150.307
0.244068	154.908
0.271186	157.975
0.298305	159.509
0.322958	165.644
0.340215	167.178
0.367334	170.245
0.389522	171.779
0.416641	173.313
0.438828	177.914
0.465947	179.448
0.488135	185.583
0.517719	185.583
0.542372	191.718
0.567026	193.252
0.596609	197.853
0.616332	200.92
0.643451	203.988
0.668104	207.055
0.692757	208.589
0.722341	213.19
0.746995	216.258
0.771648	220.859
0.798766	230.061
0.818489	233.129
0.840677	239.264
0.862865	246.933
0.892449	259.202
0.909706	268.405
0.931894	282.209
0.961478	312.883
0.983666	363.497
1.00339	467.791
1.00339	461.656
0.995993	432.515
0.966409	348.16
0.93929	308.282
0.907241	283.742
0.880122	273.006
0.8604	263.804
0.835746	256.135
0.816024	253.067
0.781509	242.331
0.751925	239.264
0.729737	236.196
0.705084	231.595
0.6755	230.061
0.645916	225.46
0.623728	219.325
0.596609	217.791
0.574422	216.258
0.552234	213.19
0.52265	208.589
0.497996	205.521
0.475808	202.454
0.451155	199.387
0.424036	196.319
0.401849	194.785
0.372265	191.718
0.345146	188.65
0.320493	187.117
0.298305	185.583
0.273651	182.515
0.248998	179.448
0.22188	176.38
0.199692	173.313
0.172573	170.245
0.14792	167.178
0.118336	164.11
0.096148	162.577
0.071495	154.908
0.044376	150.307
0.027119	138.037
