Adsorption isotherm of Nitrogen on PLF-2 BULK
DOI: 10.1016/j.micromeso.2015.03.019
Article source: Figure 3d
Adsorbate Nitrogen: InChIKey IJGRMHOSHXDMSA-UHFFFAOYSA-N
Kind: experiment
Temperature: 77 K
Tabular data in the source: 0
pressure (bar)	uptake (ml/g)
0.016125	4.77941
0.016986	18.3824
0.017149	20.9559
0.01787	32.3529
0.018196	37.5
0.019476	7.72059
0.019592	9.55882
0.019779	12.5
0.019965	15.4412
0.0205	23.8971
0.020639	26.1029
0.020895	30.1471
0.021221	35.2941
0.031273	44.1176
0.056706	45.9559
0.085234	46.6912
0.113761	47.4265
0.151759	47.7941
0.183405	47.7941
0.21505	47.7941
0.316363	48.5294
0.335397	49.2647
0.367042	49.2647
0.395523	49.2647
0.42084	49.2647
0.449321	49.2647
0.477802	49.2647
0.506283	49.2647
0.534787	49.6324
0.550703	51.1029
0.582325	50.7353
0.604477	50.7353
