Adsorption isotherm of Nitrogen on PLF-2 CSA
DOI: 10.1016/j.micromeso.2015.03.019
Article source: Figure 3d
Adsorbate Nitrogen: InChIKey IJGRMHOSHXDMSA-UHFFFAOYSA-N
Kind: experiment
Temperature: 77 K
Tabular data in the source: 0
pressure (bar)	uptake (ml/g)
0.000163	2.57353
0.000396	6.25
0.000814	12.8676
0.003746	9.19118
0.007423	17.2794
0.010797	20.5882
0.010913	22.4265
0.011099	25.3676
0.017661	29.0441
0.01801	34.5588
0.018243	38.2353
0.020989	31.6176
0.024781	41.5441
0.028155	44.8529
0.03467	47.7941
0.038021	50.7353
0.054007	53.3088
0.069969	55.5147
0.089096	57.7206
0.098706	59.5588
0.101941	60.6618
0.120998	61.7647
0.136914	63.2353
0.152806	64.3382
0.17191	66.1765
0.190967	67.2794
0.206836	68.0147
0.232153	68.0147
0.263845	68.75
0.282902	69.8529
0.317759	70.5882
0.343075	70.5882
0.371556	70.5882
0.396989	72.4265
0.428635	72.4265
0.457139	72.7941
0.485713	74.2647
0.514194	74.2647
0.545863	74.6324
0.571203	75
0.593448	76.4706
0.621929	76.4706
0.745393	77.2059
0.862528	77.9412
0.960746	79.7794
1.0309	88.2353
