Adsorption isotherm of Nitrogen on PLF-1 BULK
DOI: 10.1016/j.micromeso.2015.03.019
Article source: Figure 3c
Adsorbate Nitrogen: InChIKey IJGRMHOSHXDMSA-UHFFFAOYSA-N
Kind: experiment
Temperature: 77 K
Tabular data in the source: 0
pressure (bar)	uptake (ml/g)
0	50
0	88.8889
0	97.2222
0.000316	25
0.000516	40.7407
0.000738	58.3333
0.00082	64.8148
0.000914	72.2222
0.001008	79.6296
0.001313	103.704
0.003247	6.48148
0.003387	17.5926
0.003563	31.4815
0.004536	108.333
0.010924	112.963
0.014112	114.815
0.017311	117.593
0.029993	119.444
0.045816	119.444
0.058509	122.222
0.06485	123.148
0.080673	123.148
0.096531	125.926
0.109189	125.926
0.125035	127.778
0.14087	128.704
0.153528	128.704
0.172527	129.63
0.185185	129.63
0.191514	129.63
0.207337	129.63
0.235842	131.481
0.264334	132.407
0.295992	133.333
0.327661	135.185
0.356142	135.185
0.387811	137.037
0.416292	137.037
0.447961	138.889
0.482771	138.889
0.514428	139.815
0.546085	140.741
0.574566	140.741
0.603094	144.444
0.641092	146.296
0.761392	150
0.881728	156.481
0.979946	165.741
1.01851	212.037
