Adsorption isotherm of Nitrogen on PLF-2 GC
DOI: 10.1016/j.micromeso.2015.03.019
Article source: Figure 3d
Adsorbate Nitrogen: InChIKey IJGRMHOSHXDMSA-UHFFFAOYSA-N
Kind: experiment
Temperature: 77 K
Tabular data in the source: 0
pressure (bar)	uptake (ml/g)
0.009563	1.10294
0.012798	2.20588
0.025526	3.30882
0.031855	3.30882
0.041418	4.41176
0.047794	5.14706
0.054147	5.51471
0.060476	5.51471
0.07318	6.25
0.082697	6.61765
0.095379	6.98529
0.108037	6.98529
0.117507	6.61765
0.123883	7.35294
0.146035	7.35294
0.161835	6.98529
0.174586	8.45588
0.184149	9.55882
0.196831	9.92647
0.234782	9.55882
0.272827	10.6618
0.304472	10.6618
0.339469	13.6029
0.37742	13.2353
0.418652	14.7059
0.450321	15.0735
0.485294	17.6471
0.52641	17.2794
0.561243	17.6471
0.596263	20.9559
0.63098	19.4853
0.786253	22.7941
0.928891	26.4706
