Adsorption isotherm of Nitrogen on PLF-1 GC
DOI: 10.1016/j.micromeso.2015.03.019
Article source: Figure 3c
Adsorbate Nitrogen: InChIKey IJGRMHOSHXDMSA-UHFFFAOYSA-N
Kind: experiment
Temperature: 77 K
Tabular data in the source: 0
pressure (bar)	uptake (ml/g)
0.003329	12.963
0.006505	13.8889
0.009716	17.5926
0.022422	21.2963
0.038244	21.2963
0.044573	21.2963
0.050914	22.2222
0.057279	25
0.066807	27.7778
0.076301	27.7778
0.098441	26.8519
0.114311	30.5556
0.117464	29.6296
0.133286	29.6296
0.149086	27.7778
0.158568	26.8519
0.171296	32.4074
0.177625	32.4074
0.196589	30.5556
0.202918	30.5556
0.231528	40.7407
0.260021	41.6667
0.282185	42.5926
0.310666	42.5926
0.342382	48.1481
0.370863	48.1481
0.402508	48.1481
0.427813	47.2222
0.456446	59.2593
0.488104	60.1852
0.516561	58.3333
0.54503	57.4074
0.573511	57.4074
0.602145	69.4444
0.633814	71.2963
0.747855	80.5556
0.852403	89.8148
0.950645	100.926
1.02178	220.37
