Adsorption isotherm of Nitrogen on PLF-1 CSA
DOI: 10.1016/j.micromeso.2015.03.019
Article source: Figure 3c
Adsorbate Nitrogen: InChIKey IJGRMHOSHXDMSA-UHFFFAOYSA-N
Kind: experiment
Temperature: 77 K
Tabular data in the source: 0
pressure (bar)	uptake (ml/g)
0.003258	7.40741
0.003305	11.1111
0.003376	16.6667
0.00661	22.2222
0.006692	28.7037
0.009951	36.1111
0.009998	39.8148
0.010091	47.2222
0.010127	50
0.013373	56.4815
0.013397	58.3333
0.013432	61.1111
0.01349	65.7407
0.013549	70.3704
0.01676	74.0741
0.019972	77.7778
0.02003	82.4074
0.020042	83.3333
0.023242	86.1111
0.026453	89.8148
0.0265	93.5185
0.032911	100
0.039299	104.63
0.042546	111.111
0.045734	112.963
0.052121	117.593
0.055356	123.148
0.055392	125.926
0.061791	131.481
0.064991	134.259
0.065026	137.037
0.068261	142.593
0.071449	144.444
0.071496	148.148
0.081036	151.852
0.087377	152.778
0.100059	154.63
0.11274	156.481
0.128575	157.407
0.141245	158.333
0.153903	158.333
0.166573	159.259
0.172902	159.259
0.185584	161.111
0.188748	161.111
0.195077	161.111
0.207736	161.111
0.233064	162.037
0.261556	162.963
0.286908	165.741
0.318542	164.815
0.343917	169.444
0.372398	169.444
0.404044	169.444
0.432513	168.519
0.457865	171.296
0.486381	174.074
0.518038	175
0.543354	175
0.571835	175
0.603516	177.778
0.62888	181.481
0.746062	188.889
0.853821	201.852
0.933122	216.667
1.01242	231.481
