Adsorption isotherm of Nitrogen on TAPT-PA
DOI: 10.1002/anie.202102965
Article source: Figure 1F
Adsorbate Nitrogen: InChIKey IJGRMHOSHXDMSA-UHFFFAOYSA-N
Kind: experiment
Temperature: 77 K
Tabular data in the source: 0
pressure (bar)	uptake (cm3(STP)/g)
0.049325	1.40189
0.078464	1.62442
0.103629	1.74613
0.124821	1.90797
0.148	2.04975
0.171178	2.21166
0.195681	2.37362
0.221509	2.51549
0.244688	2.65726
0.271177	2.83943
0.297005	3.00143
0.32217	3.2641
0.347998	3.48651
0.372501	3.58806
0.398329	3.91115
0.422501	4.12344
0.448329	4.38612
0.473825	4.59845
0.49899	4.88125
0.523494	5.14389
0.549321	5.40657
0.5725	5.76984
0.592698	5.99205
0.611572	6.3149
0.630778	6.53708
0.65197	6.83987
0.676142	7.24344
0.700314	7.56647
0.718194	7.92956
0.738062	8.2323
0.757267	8.55515
0.777134	8.99885
0.800975	9.48296
0.819518	9.8662
0.838723	10.2797
0.856273	10.6729
0.877796	11.157
0.900974	11.8021
0.918193	12.4068
0.936073	12.9713
0.956603	14.1197
0.975146	15.7312
0.99104	18.9535
1.0023	24.2698
1.0023	24.2899
0.973159	17.8857
0.949981	14.7236
0.923491	13.0916
0.902299	12.2049
0.872498	11.3984
0.849981	10.8539
0.819518	10.1884
0.797664	9.80501
0.778459	9.46202
0.744684	8.87688
0.723492	8.57409
0.704287	8.25123
0.67581	7.7871
0.65197	7.32312
0.628791	6.95986
0.598327	6.53592
0.573824	6.13233
0.553295	5.91011
0.521507	5.56667
0.498328	5.34435
0.46654	5.04118
0.442037	4.79868
0.419521	4.59652
0.391044	4.27333
0.367203	4.1114
0.335415	3.8485
0.284422	3.54465
0.233429	3.22066
0.189721	2.97748
0.164556	2.77522
0.144026	2.69395
0.114887	2.53183
0.090384	2.28933
