Adsorption isotherm of Nitrogen on TAPT-DHNDA
DOI: 10.1002/anie.202102965
Article source: Figure 4
Adsorbate Nitrogen: InChIKey IJGRMHOSHXDMSA-UHFFFAOYSA-N
Kind: experiment
Temperature: 77 K
Tabular data in the source: 0
pressure (bar)	uptake (cm3(STP)/g)
0.006183	212.429
0.041169	297.854
0.083108	341.841
0.117557	373.263
0.147229	401.333
0.186758	451.178
0.222803	524.464
0.269241	548.359
0.302735	554.245
0.345801	560.556
0.362893	562.243
0.397075	566.455
0.431261	569.41
0.468865	572.369
0.503052	574.906
0.538261	578.49
0.574159	580.4
0.610395	583.776
0.6439	585.475
0.680823	587.596
0.716376	590.553
0.750567	591.415
0.785438	593.953
0.822017	596.701
0.857914	599.03
0.892786	600.73
0.927655	604.105
0.960466	609.153
0.994639	616.713
1.00761	623.421
0.961825	612.503
0.920122	607.867
0.880463	605.744
0.847643	603.627
0.829183	601.939
0.793625	601.075
0.757383	599.793
0.722512	597.674
0.687639	595.973
0.651399	594.272
0.615844	591.734
0.581657	589.616
0.544732	587.914
0.50986	586.214
0.474992	582.839
0.439438	580.301
0.402518	576.924
0.368335	573.131
0.334151	569.757
0.299972	564.29
0.263746	557.146
0.230263	547.493
0.189451	466.669
0.15812	420.179
0.122652	386.035
0.083774	348.121
0.048989	314.186
