Adsorption isotherm of Nitrogen on TAPT-DHTA
DOI: 10.1002/anie.202102965
Article source: Figure 1G
Adsorbate Nitrogen: InChIKey IJGRMHOSHXDMSA-UHFFFAOYSA-N
Kind: experiment
Temperature: 77 K
Tabular data in the source: 0
pressure (bar)	uptake (cm3(STP)/g)
-0.000391	23.4744
0.003061	45.9424
0.007895	65.7781
0.025159	80.0008
0.038279	86.8503
0.066592	94.582
0.078331	97.3941
0.096285	101.963
0.124598	107.764
0.141862	112.158
0.154291	114.794
0.168793	118.309
0.1902	122.178
0.204011	124.815
0.219894	127.803
0.242451	131.428
0.257317	133.139
0.273622	134.363
0.294722	136.076
0.319659	138.034
0.335004	139.38
0.34939	140.603
0.369531	142.438
0.386795	143.296
0.402141	145.008
0.420843	146.232
0.437627	146.847
0.453452	148.802
0.474073	150.393
0.486061	151.86
0.502846	152.352
0.521548	154.308
0.535934	155.532
0.553678	156.634
0.57286	157.494
0.586766	159.57
0.605948	161.161
0.623692	162.385
0.640955	164.097
0.652464	165.319
0.672605	167.398
0.687951	168.499
0.700899	169.966
0.723917	171.68
0.737344	173.147
0.751251	174.614
0.77331	176.936
0.786738	178.038
0.801604	179.749
0.825101	181.706
0.839967	182.93
0.853395	184.031
0.872577	185.865
0.888881	187.211
0.905186	188.801
0.924847	191.367
0.938754	193.199
0.957457	196.13
0.973282	201.377
0.992943	210.281
1.00541	224.79
1.00541	224.79
0.956977	207.466
0.923409	200.874
0.897993	198.306
0.876893	196.715
0.844283	194.145
0.824142	192.798
0.785779	190.958
0.756526	189.12
0.733508	187.163
0.698981	185.811
0.676442	184.22
0.654383	182.994
0.626569	180.426
0.600194	178.223
0.570941	174.923
0.547923	173.454
0.525864	171.862
0.492296	169.536
0.469277	167.944
0.448177	165.865
0.414609	164.148
0.389193	162.312
0.369052	161.087
0.33884	159.127
0.313424	157.535
0.293283	155.457
0.262592	153.741
0.240054	151.539
0.210801	148.117
0.187783	144.21
0.168601	140.303
0.139828	135.419
0.117769	130.414
0.086599	122.604
