Adsorption isotherm of Carbon Dioxide on A35/4 activated carbon
DOI: 10.1021/la9904298
Article source: Figure 2
Adsorbate Carbon Dioxide: InChIKey CURLTUGMZLYLDI-UHFFFAOYSA-N
Kind: experiment
Temperature: 293 K
Tabular data in the source: 0
pressure (bar)	uptake (mmol/g)
4.974	2.088
6.984	3.781
8.612	5.869
9.986	8.091
10.86	9.709
