Adsorption isotherm of Methane on A35/4 activated carbon
DOI: 10.1021/la9904298
Article source: Figure 2
Adsorbate Methane: InChIKey VNWKTOKETHGBQD-UHFFFAOYSA-N
Kind: experiment
Temperature: 293 K
Tabular data in the source: 0
pressure (bar)	uptake (mmol/g)
4.974	0.9212
6.984	1.76
8.007	2.384
8.503	2.722
8.622	2.831
9.511	3.548
10	4.025
10.88	4.944
