Adsorption isotherm of Carbon Dioxide, Methane on A35/4 activated carbon
DOI: 10.1021/la9904298
Article source: Figure 3
Adsorbate Carbon Dioxide: InChIKey CURLTUGMZLYLDI-UHFFFAOYSA-N
Adsorbate Methane: InChIKey VNWKTOKETHGBQD-UHFFFAOYSA-N
Kind: experiment
Temperature: 293 K
Tabular data in the source: 0
pressure (bar)	Carbon Dioxide fraction	Carbon Dioxide uptake (mmol/g)	Methane fraction	Methane uptake (mmol/g)	total uptake (mmol/g)
5.3	0.207	1.43	0.793	1.89	
5.3	0.514	3.45	0.486	0.875	
5.3	0.92	5.42	0.08	0.0924	
