Adsorption isotherm of Nitrogen on ZnO-C(SANS)
DOI: 10.1021/acs.langmuir.7b02492
Article source: Figure 4
Adsorbate Nitrogen: InChIKey IJGRMHOSHXDMSA-UHFFFAOYSA-N
Kind: experiment
Temperature: 77 K
Tabular data in the source: 0
pressure (bar)	uptake (cm3(STP)/g)
0.00533	2.83
0.005563	0.466
0.008136	4.807
0.010679	6.396
0.014732	7.675
0.018522	8.567
0.026618	9.422
0.040519	10.471
0.047845	11.131
0.048524	2.917
0.058463	11.676
0.073368	12.067
0.074797	4.086
0.087006	12.38
0.094078	12.537
0.096611	12.615
0.131375	4.874
0.138032	13.477
0.185178	5.622
0.186526	13.643
0.234178	6.098
0.236285	14.662
0.280239	15.292
0.280908	7.31
0.329999	16.388
0.331428	8.135
0.379161	7.759
0.381015	16.439
0.425222	17.379
0.425891	8.428
0.475641	8.517
0.475985	17.584
0.520598	8.915
0.524985	18.138
0.564795	8.809
0.572982	18.575
0.62187	8.706
0.623491	18.703
0.670616	8.911
0.672987	18.908
0.718198	19.267
0.718603	9.115
0.768363	9.863
0.768961	18.504
0.812398	19.095
0.817099	9.913
0.8608	10.466
0.863171	19.494
0.908888	20.008
0.909566	12.375
0.936093	13.428
0.937927	20.17
0.954027	14.09
0.958141	20.407
0.972539	20.604
0.974251	15.8
0.98491	21.033
0.987139	16.5
0.998558	21.501
1.0008	18.441
1.00865	21
