Adsorption isotherm of Nitrogen on ZnO-C(SANS-S)
DOI: 10.1021/acs.langmuir.7b02492
Article source: Figure 4
Adsorbate Nitrogen: InChIKey IJGRMHOSHXDMSA-UHFFFAOYSA-N
Kind: experiment
Temperature: 77 K
Tabular data in the source: 0
pressure (bar)	uptake (cm3(STP)/g)
0.002432	14.841
0.006292	22.165
0.007012	18.794
0.008856	25.381
0.011399	27.668
0.015715	29.258
0.024318	30.5
0.031896	31.393
0.038979	32.285
0.048088	33.605
0.057947	34.653
0.064786	36.243
0.071088	35.664
0.078181	37.564
0.087269	37.372
0.100675	39.158
0.142632	42.732
0.187377	46.423
0.236154	50.116
0.280128	52.76
0.327405	57.77
0.380245	62.78
0.381491	60.959
0.426296	65.685
0.426347	70.274
0.476613	69.407
0.47863	110.122
0.523455	75.569
0.525461	114.917
0.572526	82.122
0.57288	116.197
0.621606	89.26
0.62571	117.137
0.669735	97.473
0.674396	117.343
0.718522	107.15
0.722453	118.233
0.766691	118.633
0.767289	114.777
0.813776	118.058
0.859928	119.094
0.910185	119.046
0.934928	119.285
0.957664	119.406
0.969783	119.176
0.983927	118.87
0.998315	118.95
1.0092	120.464
