Adsorption isotherm of Nitrogen on Pure ZnO
DOI: 10.1021/acs.langmuir.7b02492
Article source: Figure 4
Adsorbate Nitrogen: InChIKey IJGRMHOSHXDMSA-UHFFFAOYSA-N
Kind: experiment
Temperature: 77 K
Tabular data in the source: 0
pressure (bar)	uptake (cm3(STP)/g)
0.035615	0.744
0.078313	1.723
0.081585	0.832
0.141194	1.931
0.14169	0.652
0.187914	1.903
0.188157	0.508
0.233631	2.03
0.235637	0.674
0.283633	2.002
0.285133	0.414
0.331113	2.285
0.331853	0.619
0.37757	1.017
0.377844	2.295
0.428809	1.294
0.430096	2.613
0.474323	2.476
0.474941	1.354
0.522675	1.413
0.523323	2.439
0.572637	2.304
0.573265	1.279
0.62418	1.681
0.625467	2.853
0.668408	1.544
0.66938	3.058
0.717418	2.532
0.717428	3.167
0.766427	3.422
0.766742	2.299
0.812752	4.1
0.815762	2.822
0.861995	4.189
0.862238	3.104
0.908219	4.587
0.909475	3.89
0.935748	5.329
0.957735	6.187
0.958526	9.093
0.968364	8.165
0.969418	12.544
0.97952	36.802
0.983309	12.702
0.985528	31.495
0.993431	38.859
0.998406	31.731
1.00784	40.218
