Adsorption isotherm of Methylene blue, Water on Pure ZnO
DOI: 10.1021/acs.langmuir.7b02492
Article source: Figure 5
Adsorbate Methylene blue: InChIKey CXKWCBBOMKCUKX-UHFFFAOYSA-M
Adsorbate Water: InChIKey XLYOFNOQVPJJNP-UHFFFAOYSA-N
Kind: experiment
Temperature: 298 K
Tabular data in the source: 0
pressure (bar)	Methylene blue fraction	Methylene blue uptake (mg/g)	Water fraction	Water uptake (mg/g)	total uptake (mg/g)
0.182385	1	24.865			
4.69135	1	34.141			
8.29852	1	42.505			
13.8815	1	48.969			
18.0257	1	56.193			
23.6087	1	62.201			
31.1676	1	65.702			
39.4458	1	68.594			
45.7482	1	73.007			
65.3648	1	80.694			
85.1637	1	87.926			
130.507	1	96.158			
221.557	1	109.582			
311.088	1	124.793			
