Adsorption isotherm of Nitrogen on ZnO-C(LSAN)
DOI: 10.1021/acs.langmuir.7b02492
Article source: Figure 4
Adsorbate Nitrogen: InChIKey IJGRMHOSHXDMSA-UHFFFAOYSA-N
Kind: experiment
Temperature: 77 K
Tabular data in the source: 0
pressure (bar)	uptake (cm3(STP)/g)
0.004306	1.086
0.013932	3.955
0.021784	5.817
0.033153	6.827
0.047054	7.605
0.063226	8.229
0.080653	8.659
0.085962	8.932
0.099357	9.71
0.131436	10.802
0.187508	10.815
0.230702	12.22
0.278952	12.928
0.330739	13.947
0.369201	16.725
0.384815	14.515
0.419731	18.336
0.428515	15.017
0.473827	16.319
0.47711	22.962
0.52156	17.929
0.525623	23.158
0.570874	18.74
0.576933	23.108
0.626622	20.536
0.637879	23.676
0.669127	21.469
0.6916	23.627
0.719241	22.218
0.7429	22.9
0.767755	22.537
0.789012	23.218
0.811455	22.916
0.847547	23.293
0.865602	23.851
0.893284	23.564
0.914602	23.227
0.950248	23.87
1.00815	23.688
