Adsorption isotherm of Nitrogen on HKUST-1@y-Al2O3
DOI: 10.1021/acs.iecr.6b01001
Article source: Figure 8
Adsorbate Nitrogen: InChIKey IJGRMHOSHXDMSA-UHFFFAOYSA-N
Kind: experiment
Temperature: 77 K
Tabular data in the source: 0
pressure (bar)	uptake (cm3(STP)/g)
0.058224	74.9279
0.098069	81.9996
0.148684	89.0678
0.203067	94.5246
0.253143	98.6946
0.303219	104.153
0.352756	108.323
0.402832	113.459
0.452369	117.307
0.502445	124.053
0.554675	130.799
0.606366	137.867
0.658595	145.579
0.706517	152.326
0.753901	163.259
0.80613	174.514
0.876129	192.847
0.913282	209.902
0.967127	235.326
0.995665	259.147
0.948281	257.231
0.91059	250.48
0.856745	237.938
0.811515	224.428
0.763054	206.41
0.713517	182.112
0.654826	165.546
0.60475	151.715
0.551982	143.037
0.502983	134.681
0.452908	124.714
0.397986	115.715
0.341449	110.259
0.301065	106.408
0.256912	102.558
0.189606	96.7833
0.154068	92.9305
0.087839	83.9352
0.05284	77.184
