Adsorption isotherm of Nitrogen on y-Al2O3
DOI: 10.1021/acs.iecr.6b01001
Article source: Figure 8
Adsorbate Nitrogen: InChIKey IJGRMHOSHXDMSA-UHFFFAOYSA-N
Kind: experiment
Temperature: 77 K
Tabular data in the source: 0
pressure (bar)	uptake (cm3(STP)/g)
0.056609	43.0466
0.150299	51.3888
0.255297	59.4051
0.300526	63.8988
0.350602	69.0349
0.399601	72.8832
0.450215	78.0191
0.505137	84.7639
0.553598	91.1887
0.606366	99.8663
0.653211	108.868
0.705979	121.088
0.756593	136.529
0.805054	159.378
0.860514	189.953
0.912205	233.734
0.964435	333.871
0.998357	428.861
0.961742	422.754
0.911128	368.346
0.858898	286.566
0.815284	203.816
0.759285	153.918
0.70921	131.392
0.663441	119.17
0.606366	106.629
0.552521	95.6976
0.498137	87.6645
0.4486	82.8503
0.399063	76.4258
0.352217	70.9666
0.307526	66.4728
0.24022	60.6982
0.204144	57.1677
0.136838	51.7152
0.102915	47.5399
0.054455	42.4033
