Adsorption isotherm of Nitrogen on TPTF-COF
DOI: 10.1039/d1cc04103g
Article source: Figure 3
Adsorbate Nitrogen: InChIKey IJGRMHOSHXDMSA-UHFFFAOYSA-N
Kind: experiment
Temperature: 77 K
Tabular data in the source: 0
pressure (bar)	uptake (cm3(STP)/g)
0	111.364
0.001613	117.614
0.001613	123.295
0.003227	129.545
0.006454	135.227
0.009681	139.205
0.024202	146.591
0.032269	149.432
0.038723	151.136
0.054857	153.409
0.069379	156.25
0.0839	157.955
0.101648	159.659
0.143598	163.068
0.156505	164.205
0.167799	165.341
0.187161	166.477
0.204909	167.614
0.229111	169.318
0.254926	171.023
0.279128	171.591
0.304943	172.727
0.337212	173.864
0.363027	175
0.387229	176.705
0.414658	178.409
0.43886	178.977
0.466289	180.682
0.488877	181.818
0.516306	182.955
0.538894	184.659
0.564709	185.795
0.590525	186.932
0.613113	188.068
0.640542	190.341
0.666357	191.477
0.692172	193.182
0.716374	194.886
0.750257	197.159
0.774459	198.864
0.800274	201.705
0.826089	204.545
0.848678	206.818
0.874493	210.227
0.898695	213.636
0.921283	218.75
0.945485	223.295
0.96646	231.25
0.979367	240.341
0.998729	264.773
1.00841	302.841
0.998729	284.659
0.989048	266.477
0.972914	251.136
0.955166	238.068
0.926123	229.545
0.909989	225.568
0.869652	219.886
0.845451	218.182
0.826089	215.909
0.803501	214.773
0.779299	213.068
0.755097	211.364
0.732509	209.659
0.706693	209.091
0.684105	207.955
0.65829	206.25
0.632475	205.114
0.6115	203.409
0.572777	201.136
0.548575	200.568
0.524373	199.432
0.503398	197.159
0.479196	192.045
0.450154	186.932
0.425952	185.795
0.40175	184.659
0.375935	183.523
0.35012	182.386
0.325918	181.25
0.300103	180.114
0.279128	179.545
0.251699	178.409
0.227497	177.273
0.203295	176.705
0.190388	176.136
0.17264	174.432
0.154892	172.727
0.140371	172.159
0.100034	168.75
0.08874	167.614
0.067765	164.773
0.053244	163.068
0.038723	159.659
