Adsorption isotherm of Nitrogen on PCP-COF
DOI: 10.1039/d1cc04103g
Article source: Figure 3
Adsorbate Nitrogen: InChIKey IJGRMHOSHXDMSA-UHFFFAOYSA-N
Kind: experiment
Temperature: 77 K
Tabular data in the source: 0
pressure (bar)	uptake (cm3(STP)/g)
0	202.936
0	215.026
0.003232	227.116
0.006464	235.751
0.012928	246.114
0.022624	254.75
0.035553	265.112
0.054945	272.021
0.074337	277.202
0.090498	282.383
0.103426	286.701
0.135746	294.473
0.145443	296.2
0.156755	298.791
0.172915	301.382
0.189075	303.109
0.202004	305.699
0.22786	309.154
0.2521	311.744
0.281189	314.335
0.305429	316.926
0.332902	318.653
0.358758	320.38
0.384615	322.971
0.408855	324.698
0.434712	325.561
0.460568	328.152
0.484809	329.016
0.510665	330.743
0.536522	332.47
0.562378	332.47
0.588234	334.197
0.615707	336.788
0.639947	338.515
0.665804	339.378
0.688428	341.105
0.715901	341.969
0.746605	342.832
0.774078	344.56
0.798318	346.287
0.824175	348.877
0.850031	350.604
0.872656	352.332
0.898512	355.786
0.921136	360.104
0.942145	365.285
0.961537	374.784
0.976081	384.283
0.985778	398.1
0.99709	422.28
1.00517	461.14
0.995474	449.914
0.980929	427.461
0.969617	408.463
0.959921	398.1
0.935681	383.42
0.904976	371.33
0.883968	367.876
0.846799	362.694
0.822559	360.104
0.798318	356.649
0.774078	355.786
0.748221	354.059
0.722365	352.332
0.696508	351.468
0.6755	349.741
0.649644	349.741
0.625403	348.014
0.597931	347.15
0.572074	346.287
0.54945	345.423
0.523593	343.696
0.500969	342.832
0.478344	340.242
0.452488	337.651
0.426632	335.924
0.399159	335.06
0.373303	333.333
0.347446	332.47
0.323206	330.743
0.297349	329.879
0.276341	329.016
0.2521	327.288
0.226244	325.561
0.200388	323.834
