Adsorption isotherm of Carbon Dioxide, Methane on Basolite A100
DOI: 10.1016/j.micromeso.2011.10.020
Article source: Figure 3
Adsorbate Carbon Dioxide: InChIKey CURLTUGMZLYLDI-UHFFFAOYSA-N
Adsorbate Methane: InChIKey VNWKTOKETHGBQD-UHFFFAOYSA-N
Kind: experiment
Temperature: 303 K
Tabular data in the source: 0
pressure (bar)	Carbon Dioxide fraction	Carbon Dioxide uptake (mmol/g)	Methane fraction	Methane uptake (mmol/g)	total uptake (mmol/g)
4	0	0	1	1.77	
4	0.101	0.94	0.899	1.29	
4	0.254	1.78	0.746	0.88	
4	0.373	2.38	0.627	0.685	
4	0.504	2.89	0.496	0.471	
4	0.616	3.28	0.384	0.373	
4	0.746	3.68	0.254	0.178	
4	0.902	4.04	0.098	0.0596	
4	1	4.27	0	0	
