Adsorption isotherm of Carbon Dioxide, Methane on Basolite A100
DOI: 10.1016/j.micromeso.2011.10.020
Article source: Figure 3
Adsorbate Carbon Dioxide: InChIKey CURLTUGMZLYLDI-UHFFFAOYSA-N
Adsorbate Methane: InChIKey VNWKTOKETHGBQD-UHFFFAOYSA-N
Kind: experiment
Temperature: 303 K
Tabular data in the source: 0
pressure (bar)	Carbon Dioxide fraction	Carbon Dioxide uptake (mmol/g)	Methane fraction	Methane uptake (mmol/g)	total uptake (mmol/g)
1	0	0	1	0.654	
1	0.105	0.517	0.895	0.517	
1	0.254	0.899	0.746	0.399	
1	0.5	1.41	0.5	0.24	
1	0.757	1.83	0.243	0.139	
1	0.899	2.06	0.101	0.0212	
1	1	2.15	0	0	
