Adsorption isotherm of Methane on Basolite A100
DOI: 10.1016/j.micromeso.2011.10.020
Article source: Figure 2
Adsorbate Methane: InChIKey VNWKTOKETHGBQD-UHFFFAOYSA-N
Kind: experiment
Temperature: 303 K
Tabular data in the source: 0
pressure (bar)	uptake (mmol/g)
1.26	0.637
1.48	0.779
1.64	0.881
2.58	1.23
3.18	1.45
4.72	1.74
5.76	1.94
7.08	2.19
13.5	2.85
19.6	3.2
25.1	3.42
29.9	3.56
34.8	3.68
40.7	3.79
44	3.85
47.2	3.88
51.9	3.94
56	3.96
61.8	4
65.8	4.03
69	4.05
73.7	4.06
76.8	4.07
80	4.1
