Adsorption isotherm of Carbon Dioxide on Basolite A100
DOI: 10.1016/j.micromeso.2011.10.020
Article source: Figure 2
Adsorbate Carbon Dioxide: InChIKey CURLTUGMZLYLDI-UHFFFAOYSA-N
Kind: experiment
Temperature: 303 K
Tabular data in the source: 0
pressure (bar)	uptake (mmol/g)
0.16	0.535
0.162	0.315
0.213	0.771
0.321	0.967
0.647	1.49
0.919	1.8
1.19	2.16
2.07	2.87
3.22	3.47
4.2	3.87
4.92	4.1
8.71	4.94
16.1	5.74
23.6	6.18
30.5	6.48
49.6	7.02
