Adsorption isotherm of Carbon Dioxide on Ni-DBM-BPY
DOI: 10.1021/Jp908202s
Adsorbate Carbon Dioxide: InChIKey CURLTUGMZLYLDI-UHFFFAOYSA-N
Temperature: 298 K
Tabular data in the source: 0
pressure (bar)	uptake (mmol/g)
0.224015	0.0447887
2.1904	0.190083
4.18956	0.350671
5.7299	0.396553
8.71225	0.5342
8.90889	0.671847
9.26939	1.39832
9.46603	1.73479
10.3509	2.07891
12.3173	2.23949
13.6282	2.21655
15.8568	2.40008
