Adsorption isotherm of Methane on Ni-DBM-BPY
DOI: 10.1021/Jp908202s
Adsorbate Methane: InChIKey VNWKTOKETHGBQD-UHFFFAOYSA-N
Temperature: 221 K
Tabular data in the source: 0
pressure (bar)	uptake (mmol/g)
2.05764	0.346458
6.53663	0.674189
7.73831	1.38864
8.28453	1.84091
12.1081	2.0441
20.1921	2.18175
29.5871	2.32595
36.4694	2.45049
43.6795	2.52259
50.0156	2.57503
