Adsorption isotherm of Carbon Dioxide on Ni-DBM-BPY
DOI: 10.1021/Jp908202s
Adsorbate Carbon Dioxide: InChIKey CURLTUGMZLYLDI-UHFFFAOYSA-N
Temperature: 273 K
Tabular data in the source: 0
pressure (bar)	uptake (mmol/g)
3.0425	0.396553
3.27191	0.947142
3.37023	1.49008
3.63242	1.8342
4.12401	2.06361
5.99208	2.27008
9.1383	2.42302
11.5635	2.58361
15.0047	2.6142
17.8559	2.66773
