Adsorption isotherm of Methane on Ni-DBM-BPY
DOI: 10.1021/Jp908202s
Adsorbate Methane: InChIKey VNWKTOKETHGBQD-UHFFFAOYSA-N
Temperature: 237 K
Tabular data in the source: 0
pressure (bar)	uptake (mmol/g)
1.29294	0.130155
2.60386	0.313684
8.06604	0.510323
12.982	0.674189
14.6207	1.52629
16.1501	1.72948
17.2425	1.82125
21.94	2.06377
31.335	2.16209
40.6207	2.31284
50.2341	2.3194
