Adsorption isotherm of Nitrogen on CAU-13
DOI: 10.1021/Ic500288w
Adsorbate Nitrogen: InChIKey IJGRMHOSHXDMSA-UHFFFAOYSA-N
Temperature: 303 K
Tabular data in the source: 0
pressure (bar)	uptake (mol/mol)
1.20223	0.0231676
1.80566	0.0463642
2.40794	0.0637545
3.00944	0.0772737
3.37103	0.0888691
3.85316	0.10433
4.33451	0.115919
7.09864	0.164173
9.97943	0.196936
12.8587	0.221958
16.217	0.246957
19.2152	0.268102
23.0514	0.287272
25.9287	0.302616
28.687	0.321838
31.924	0.3391
35.5214	0.362152
38.639	0.381356
