Adsorption isotherm of Carbon monoxide on CAU-13
DOI: 10.1021/Ic500288w
Adsorbate Carbon monoxide: InChIKey UGFAIRIUMAVXCW-UHFFFAOYSA-N
Temperature: 303 K
Tabular data in the source: 0
pressure (bar)	uptake (mol/mol)
0.723192	0.0231908
1.20764	0.0502641
1.33049	0.0657421
2.41528	0.100528
2.77648	0.110188
3.73958	0.135303
3.98258	0.152711
4.34533	0.170112
6.38742	0.200981
7.9497	0.228002
9.39029	0.245352
