Adsorption isotherm of Carbon Dioxide on CAU-13
DOI: 10.1021/Ic500288w
Adsorbate Carbon Dioxide: InChIKey CURLTUGMZLYLDI-UHFFFAOYSA-N
Temperature: 303 K
Tabular data in the source: 0
pressure (bar)	uptake (mol/mol)
0.136371	0.0832192
0.149892	0.15096
0.247631	0.0406332
0.395592	0.181916
0.518442	0.197394
0.642837	0.220614
0.767232	0.243834
1.1296	0.2593
1.50163	0.323153
2.34806	0.363757
3.67352	0.404338
4.87575	0.427506
6.5574	0.452586
8.11775	0.46993
9.55834	0.487279
10.9982	0.500758
12.5573	0.512296
14.1165	0.523833
16.0354	0.537289
17.4748	0.548832
19.2731	0.558422
20.8327	0.571895
22.2721	0.583438
24.0712	0.5969
