Adsorption isotherm of Methane on CAU-13
DOI: 10.1021/Ic500288w
Adsorbate Methane: InChIKey VNWKTOKETHGBQD-UHFFFAOYSA-N
Temperature: 303 K
Tabular data in the source: 0
pressure (bar)	uptake (mol/mol)
0.120918	0.0058006
0.374344	0.0754658
0.985503	0.137372
1.1126	0.17414
1.59859	0.208955
1.96289	0.234099
2.32604	0.253436
2.92908	0.274697
3.29261	0.29597
3.8945	0.311424
4.13595	0.32109
6.90084	0.373214
9.78163	0.405978
12.4202	0.425205
15.418	0.444415
18.6539	0.455872
