Adsorption isotherm of Water on CAU-13
DOI: 10.1021/Ic500288w
Adsorbate Water: InChIKey XLYOFNOQVPJJNP-UHFFFAOYSA-N
Temperature: 298 K
Tabular data in the source: 0
pressure (bar)	uptake (cm3(STP)/g)
0.00109018	8.18771
0.00208125	10.3876
0.00386517	14.797
0.00475716	19.2488
0.00564912	27.446
0.00624375	39.4026
0.00654108	55.8679
0.00673929	91.8135
0.0069375	101.542
0.00733392	119.5
0.00891966	132.159
0.0115955	140.271
0.0144697	144.628
0.0163527	146.786
0.0191277	151.897
0.0211098	155.548
0.0225965	158.473
0.0235875	160.673
0.024975	166.599
0.0262634	171.781
0.0284438	186.659
