Adsorption isotherm of Water on CAU-13
DOI: 10.1021/Ic500288w
Adsorbate Water: InChIKey XLYOFNOQVPJJNP-UHFFFAOYSA-N
Temperature: 298 K
Tabular data in the source: 0
pressure (bar)	uptake (cm3(STP)/g)
0.00492169	36.6065
0.00521698	38.848
0.00580307	52.3538
0.00618082	87.6741
0.00618714	74.8918
0.0061927	63.6134
0.00637322	98.1912
0.00656562	108.708
0.00665883	119.982
0.00704847	131.242
0.00773446	142.487
0.00950911	149.921
0.0108904	153.614
0.0120749	155.813
0.0131609	157.265
0.0153315	163.176
0.0186884	167.527
0.0237223	177.06
0.0260905	182.962
