Adsorption isotherm of Ethane on Silicalite MFI
DOI: 10.1002/aic.690390605
Article source: Figure 6
Adsorbate Ethane: InChIKey OTMSDBZUPAUEDD-UHFFFAOYSA-N
Kind: experiment
Temperature: 298 K
Tabular data in the source: 0
pressure (bar)	uptake (mmol/g)
0.00152	0.0819
0.00465	0.125
0.00618	0.188
0.0141	0.217
0.0188	0.284
0.025	0.357
0.0329	0.458
0.047	0.564
0.0612	0.651
0.0754	0.723
0.0864	0.796
0.102	0.878
0.121	0.96
0.143	1.03
0.167	1.1
0.191	1.17
0.219	1.23
0.251	1.27
0.289	1.32
0.326	1.35
0.368	1.38
0.413	1.41
0.459	1.43
0.513	1.45
0.576	1.48
0.641	1.51
0.708	1.53
0.773	1.56
0.825	1.57
0.863	1.58
