Adsorption isotherm of Methane on Silicalite MFI
DOI: 10.1002/aic.690390605
Article source: Figure 6
Adsorbate Methane: InChIKey VNWKTOKETHGBQD-UHFFFAOYSA-N
Kind: experiment
Temperature: 298 K
Tabular data in the source: 0
pressure (bar)	uptake (mmol/g)
0.0126	0.0242
0.0379	0.0339
0.0601	0.0581
0.101	0.0921
0.149	0.126
0.199	0.155
0.256	0.194
0.321	0.233
0.395	0.277
0.471	0.316
0.554	0.354
0.633	0.389
0.713	0.437
