Adsorption isotherm of Ethane, Methane on Silicalite MFI
DOI: 10.1002/aic.690390605
Article source: Figure 7
Adsorbate Ethane: InChIKey OTMSDBZUPAUEDD-UHFFFAOYSA-N
Adsorbate Methane: InChIKey VNWKTOKETHGBQD-UHFFFAOYSA-N
Kind: experiment
Temperature: 298 K
Tabular data in the source: 0
pressure (bar)	Ethane fraction	Ethane uptake (mmol/g)	Methane fraction	Methane uptake (mmol/g)	total uptake (mmol/g)
1.07	0	0	1	0.556	
1.07	0.2	1.09	0.8	0.156	
1.07	0.404	1.43	0.596	0.0958	
1.07	0.608	1.49	0.392	0.05	
1.07	0.811	1.56	0.189	0.0136	
1.07	1	1.53	0	0	
