Adsorption isotherm of Water on C11H15BrN2O4Zn
DOI: 10.1021/Ja2078637
Adsorbate Water: InChIKey XLYOFNOQVPJJNP-UHFFFAOYSA-N
Temperature: 298 K
Tabular data in the source: 0
pressure (bar)	uptake (wt%)
0.0100405	0.229299
0.020081	0.458599
0.0401619	0.917197
0.0601487	1.26115
0.0703147	1.64331
0.100185	2.02548
0.10508	1.98726
0.134856	2.25478
0.174422	2.44586
0.20903	2.59873
0.248596	2.78981
0.268363	2.86624
0.30294	2.98089
0.342412	3.05732
0.381946	3.21019
0.426469	3.43949
0.461203	3.74522
0.496094	4.24204
0.530796	4.50955
0.57033	4.66242
0.585171	4.73885
0.629632	4.89172
0.66424	5.04459
0.708669	5.15924
0.797528	5.38854
0.871639	5.65605
0.896332	5.73248
0.940793	5.88535
0.96056	5.96178
