Adsorption isotherm of Carbon Dioxide on C11H15ClN2O4Zn
DOI: 10.1021/Ja2078637
Adsorbate Carbon Dioxide: InChIKey CURLTUGMZLYLDI-UHFFFAOYSA-N
Temperature: 298 K
Tabular data in the source: 0
pressure (bar)	uptake (cm3(STP)/g)
0.0167224	0.196078
0.0468227	0.588235
0.0702341	0.882353
0.090301	1.27451
0.103679	1.56863
0.133779	2.2549
0.157191	2.54902
0.190635	3.52941
0.210702	4.11765
0.227425	4.41176
0.244147	4.90196
0.267559	5.4902
0.287625	5.98039
0.314381	6.47059
0.331104	6.86275
0.347826	7.35294
0.371237	7.94118
0.397993	8.43137
0.414716	9.11765
0.431438	9.5098
0.454849	10.098
0.478261	10.5882
0.491639	11.1765
0.518395	11.6667
0.531773	12.2549
0.555184	12.7451
0.571906	13.3333
0.595318	13.9216
0.61204	14.7059
0.64214	15.1961
0.655518	15.8824
0.675585	16.2745
0.695652	17.0588
0.712375	17.6471
0.732441	18.2353
0.755853	18.7255
0.769231	19.2157
0.789298	20.1961
0.816054	20.6863
0.832776	21.3725
0.856187	21.9608
0.879599	22.6471
0.892977	23.1373
0.916388	23.8235
0.946488	24.6078
0.959866	25.098
0.983278	26.0784
