Adsorption isotherm of Carbon Dioxide on C11H15BrN2O4Zn
DOI: 10.1021/Ja2078637
Adsorbate Carbon Dioxide: InChIKey CURLTUGMZLYLDI-UHFFFAOYSA-N
Temperature: 298 K
Tabular data in the source: 0
pressure (bar)	uptake (cm3(STP)/g)
0.0201776	0.330882
0.0437734	0.882353
0.0639878	1.32353
0.0774395	1.54412
0.0976539	1.98529
0.124557	2.42647
0.144882	3.19853
0.168404	3.52941
0.188619	3.97059
0.205452	4.30147
0.222322	4.74265
0.252644	5.40441
0.266132	5.73529
0.289802	6.50735
0.309942	6.72794
0.330268	7.5
0.353937	8.27206
0.374115	8.60294
0.394403	9.26471
0.418072	10.0368
0.434869	10.2574
0.451812	10.9191
0.475482	11.6912
0.492315	12.0221
0.512566	12.5735
0.52951	13.2353
0.556377	13.5662
0.57332	14.2279
0.597027	15.1103
0.617204	15.4412
0.63753	16.2132
0.657892	17.0956
0.674725	17.4265
0.701812	18.4191
0.718793	19.1912
0.738971	19.5221
0.756025	20.5147
0.779805	21.6176
0.799872	21.6176
0.81689	22.5
0.843941	23.3824
0.861032	24.4853
0.881173	24.7059
0.901498	25.4779
0.921933	26.5809
0.935422	26.9118
0.972654	28.2353
0.999852	29.5588
