Adsorption isotherm of Water on C11H15ClN2O4Zn
DOI: 10.1021/Ja2078637
Adsorbate Water: InChIKey XLYOFNOQVPJJNP-UHFFFAOYSA-N
Temperature: 298 K
Tabular data in the source: 0
pressure (bar)	uptake (wt%)
0.0147783	0.155844
0.044335	0.545455
0.0738916	0.779221
0.08867	0.935065
0.123153	1.01299
0.152709	1.24675
0.172414	1.4026
0.20197	1.71429
0.236453	2.18182
0.256158	2.49351
0.285714	2.72727
0.295567	3.19481
0.320197	3.35065
0.334975	3.66234
0.374384	4.44156
0.399015	5.06494
0.423645	5.84416
0.428571	6.38961
0.433498	6.77922
0.438424	7.71429
0.44335	9.42857
0.448276	9.97403
0.517241	10.2078
0.581281	10.6753
0.635468	10.9091
0.694581	11.1429
0.719212	11.2208
0.778325	11.4545
0.82266	11.6883
0.896552	12
0.931034	12.0779
0.955665	12.1558
