Adsorption isotherm of Nitrogen on Co3[(Co4Cl)3(BTT)8(H2O)12]2
DOI: 10.1039/C3ce27063g
Adsorbate Nitrogen: InChIKey IJGRMHOSHXDMSA-UHFFFAOYSA-N
Temperature: 77 K
Tabular data in the source: 0
pressure (bar)	uptake (cm3(STP)/g)
0.00372489	37.5419
0.00372489	232.041
0.00372489	271.513
0.00515504	175.408
0.00801532	291.535
0.0208866	304.693
0.0494895	309.841
0.0780923	312.129
0.15246	315.562
0.25686	316.706
0.308345	318.422
0.398444	317.278
0.501415	317.278
0.598664	317.85
0.703065	317.278
0.807465	317.278
0.907575	317.85
0.946189	320.71
0.967641	326.431
0.987663	341.876
