Adsorption isotherm of Hydrogen on Cd3[(Cd4Cl)3(BTT)8(H2O)12]2*19DMF*129H2O
DOI: 10.1039/C3ce27063g
Adsorbate Hydrogen: InChIKey UFHFLCQGNIYNRP-UHFFFAOYSA-N
Temperature: 77 K
Tabular data in the source: 0
pressure (bar)	uptake (wt%)
0.00801532	0.125176
0.0237469	0.3028
0.0580703	0.482998
0.119566	0.673493
0.178202	0.802206
0.248279	0.920622
0.324077	1.01072
0.422757	1.11884
0.524297	1.19864
0.622977	1.26557
0.731668	1.33508
0.826057	1.37369
0.878972	1.39943
0.933318	1.42003
0.979082	1.4432
