Adsorption isotherm of Nitrogen on Cd3[(Cd4Cl)3(BTT)8(H2O)12]2*19DMF*129H2O
DOI: 10.1039/C3ce27063g
Adsorbate Nitrogen: InChIKey IJGRMHOSHXDMSA-UHFFFAOYSA-N
Temperature: 77 K
Tabular data in the source: 0
pressure (bar)	uptake (cm3(STP)/g)
0.00372489	2.0744
0.00372489	102.756
0.00372489	201.15
0.00372489	262.932
0.00658518	305.265
0.0165962	320.138
0.0509196	332.151
0.0780923	336.156
0.161041	343.021
0.261151	346.453
0.314066	347.597
0.405595	349.313
0.508565	349.313
0.612966	351.029
0.707355	351.029
0.804605	351.601
0.85752	351.601
0.904715	357.322
0.944759	362.47
0.976222	365.331
0.994814	367.619
