Adsorption isotherm of Hydrogen on Co3[(Co4Cl)3(BTT)8(H2O)12]2
DOI: 10.1039/C3ce27063g
Adsorbate Hydrogen: InChIKey UFHFLCQGNIYNRP-UHFFFAOYSA-N
Temperature: 77 K
Tabular data in the source: 0
pressure (bar)	uptake (wt%)
0.000865	0.0350774
0.000865	0.215275
0.00229475	0.359434
0.00944547	0.521612
0.035188	0.712107
0.0809526	0.918048
0.139588	1.06993
0.196794	1.18834
0.269731	1.29904
0.364121	1.41231
0.422757	1.47151
0.521437	1.56161
0.624407	1.63112
0.730238	1.69805
0.824627	1.74181
0.877542	1.77013
0.927597	1.79072
0.979082	1.81904
