Adsorption isotherm of Nitrogen on Cd3[(Cd4Cl)3(BTT)8(H2O)12]2*19DMF*129H2O
DOI: 10.1039/C3ce27063g
Adsorbate Nitrogen: InChIKey IJGRMHOSHXDMSA-UHFFFAOYSA-N
Temperature: 77 K
Tabular data in the source: 0
pressure (bar)	uptake (cm3(STP)/g)
0.00372489	166.255
0.0108756	186.277
0.0237469	200.578
0.0466292	205.727
0.0981143	210.303
0.182493	215.452
0.306915	218.884
0.35554	219.456
0.45136	220.6
0.55433	220.6
0.65158	223.461
0.748829	225.177
0.803175	226.893
0.847509	229.753
0.900425	232.613
0.95048	234.33
0.971932	237.19
0.990524	241.766
