Adsorption isotherm of Hydrogen on Cd3[(Cd4Cl)3(BTT)8(H2O)12]2*19DMF*129H2O
DOI: 10.1039/C3ce27063g
Adsorbate Hydrogen: InChIKey UFHFLCQGNIYNRP-UHFFFAOYSA-N
Temperature: 77 K
Tabular data in the source: 0
pressure (bar)	uptake (wt%)
0.00944547	0.104582
0.0394785	0.313097
0.0823828	0.470127
0.116706	0.549929
0.178202	0.66577
0.25257	0.768741
0.372702	0.874285
0.484253	0.956662
0.590084	1.01844
0.690194	1.06993
0.793164	1.10854
0.841789	1.12914
0.934748	1.1626
0.991954	1.18062
