Adsorption isotherm of Hydrogen on Ni3[(Co4Cl)3(BTT)8(H2O)12]2
DOI: 10.1039/C3ce27063g
Adsorbate Hydrogen: InChIKey UFHFLCQGNIYNRP-UHFFFAOYSA-N
Temperature: 77 K
Tabular data in the source: 0
pressure (bar)	uptake (wt%)
0.00229475	0.0144833
0.00944547	0.269335
0.0237469	0.426365
0.0509196	0.58082
0.115276	0.807355
0.172482	0.92577
0.226827	1.01844
0.308345	1.12656
0.412746	1.22953
0.522867	1.31191
0.630128	1.38141
0.733098	1.4329
0.834638	1.47924
0.888983	1.49726
0.939038	1.51528
0.990524	1.52815
