Adsorption isotherm of Nitrogen on Ni3[(Co4Cl)3(BTT)8(H2O)12]2
DOI: 10.1039/C3ce27063g
Adsorbate Nitrogen: InChIKey IJGRMHOSHXDMSA-UHFFFAOYSA-N
Temperature: 77 K
Tabular data in the source: 0
pressure (bar)	uptake (cm3(STP)/g)
0.00229475	142.228
0.00372489	212.591
0.00658518	2.64646
0.00944547	230.897
0.0180263	241.194
0.0494895	247.487
0.108125	250.919
0.15818	252.063
0.211096	253.78
0.261151	254.924
0.315496	255.496
0.404165	255.496
0.505705	256.64
0.605815	256.64
0.707355	255.496
0.75741	256.068
0.808895	256.068
0.861811	257.212
0.95334	258.356
0.989093	267.509
