Adsorption isotherm of Nitrogen on [Zn2(BME-bdc)2(dabco)]
DOI: 10.1039/C1ce05446e
Adsorbate Nitrogen: InChIKey IJGRMHOSHXDMSA-UHFFFAOYSA-N
Temperature: 195 K
Tabular data in the source: 0
pressure (bar)	uptake (cm3(STP)/g)
0.0223168	0.0895568
0.0609306	0.232571
0.102405	0.375585
0.15532	0.661614
0.299764	1.09066
0.402735	1.23367
0.501415	1.23367
0.601525	1.66271
0.647289	1.94874
0.745969	1.66271
0.848939	1.37669
0.949049	1.23367
0.997674	1.09066
