Adsorption isotherm of Methane on [Zn2(BME-bdc)2(dabco)]
DOI: 10.1039/C1ce05446e
Adsorbate Methane: InChIKey VNWKTOKETHGBQD-UHFFFAOYSA-N
Temperature: 195 K
Tabular data in the source: 0
pressure (bar)	uptake (cm3(STP)/g)
0.0223168	0.5186
0.0609306	0.804628
0.110986	0.947643
0.15675	1.23367
0.25543	1.37669
0.35554	1.94874
0.45708	1.80573
0.548609	2.66381
0.65301	2.37779
0.75169	2.66381
0.844649	2.66381
0.903285	2.37779
0.991954	2.37779
