Adsorption isotherm of Carbon Dioxide on [Zn2(BME-bdc)2(dabco)]
DOI: 10.1039/C1ce05446e
Adsorbate Carbon Dioxide: InChIKey CURLTUGMZLYLDI-UHFFFAOYSA-N
Temperature: 195 K
Tabular data in the source: 0
pressure (bar)	uptake (cm3(STP)/g)
0.00658518	8.5274
0.0223168	10.3866
0.045199	11.8167
0.100975	13.5329
0.15389	14.677
0.201085	16.9652
0.229687	33.1259
0.248279	43.9949
0.295474	71.7397
0.335518	87.4713
0.35268	88.6154
0.405595	92.7628
0.498554	96.1952
0.598664	98.7694
0.75312	101.201
0.848939	102.631
0.991954	104.347
