Adsorption isotherm of Nitrogen on {[Zn2(OH)(AZPY)(BDC)1.5]*H2O}n
DOI: 10.1016/j.micromeso.2009.11.002
Adsorbate Nitrogen: InChIKey IJGRMHOSHXDMSA-UHFFFAOYSA-N
Temperature: 77 K
Tabular data in the source: 0
pressure (bar)	uptake (mmol/g)
0.00961901	0.0103823
0.0168333	0.0416065
0.028857	0.0658691
0.048095	0.107467
0.0673331	0.131704
0.105809	0.169761
0.14669	0.211281
0.185166	0.245866
0.223642	0.283923
0.283761	0.342736
0.34388	0.398077
0.360713	0.408433
0.401594	0.449954
0.44007	0.491483
0.48095	0.519114
0.500189	0.536407
0.519427	0.553699
0.538665	0.564047
0.560307	0.577859
0.579545	0.591679
0.618021	0.601958
0.658902	0.612228
0.67814	0.61216
0.699783	0.622499
0.719021	0.62243
0.776735	0.632641
0.815211	0.632503
0.834449	0.635907
0.87533	0.63576
0.913806	0.639095
0.935449	0.639018
0.954687	0.645893
0.973925	0.656241
