Adsorption isotherm of Carbon Dioxide on {[Zn2(OH)(AZPY)(BDC)1.5]*H2O}n
DOI: 10.1016/j.micromeso.2009.11.002
Adsorbate Carbon Dioxide: InChIKey CURLTUGMZLYLDI-UHFFFAOYSA-N
Temperature: 273 K
Tabular data in the source: 0
pressure (bar)	uptake (mmol/g)
0.343694	0.0381601
0.687388	0.058959
1.03108	0.0901746
1.28885	0.10751
1.80439	0.159542
2.14809	0.180341
2.57771	0.208075
3.09325	0.239274
3.43694	0.260073
3.95248	0.291271
4.63987	0.325925
5.32726	0.353634
6.61611	0.40906
7.3035	0.443714
8.67827	0.488715
10.0531	0.537189
10.8264	0.564889
12.8885	0.634127
15.6381	0.713714
17.8721	0.782935
19.2469	0.841825
20.6216	0.879882
21.395	0.890221
22.7697	0.907445
24.8319	0.928072
26.2926	0.941814
29.214	0.972772
29.7295	0.983137
31.2762	1.00034
32.565	1.0141
34.6272	1.03473
