Adsorption isotherm of O-Xylene on MIL-53(Al)
DOI: 10.1039/C3cs60475f
Adsorbate O-Xylene: InChIKey CTQNGGLPUBDAKN-UHFFFAOYSA-N
Temperature: 383 K
Tabular data in the source: 0
pressure (bar)	uptake (wt%)
0	0
0.000191388	16.8421
0.000382775	18.5965
0.000956938	18.9474
0.0015311	19.6491
0.00287081	36.4912
0.00401914	37.193
0.00535885	38.5965
0.00708134	39.2982
0.0091866	40
0.0151196	41.0526
0.0241148	42.1053
