Adsorption isotherm of Water on [Ni8(L5-CH3)6]
DOI: 10.1039/C3cs60475f
Adsorbate Water: InChIKey XLYOFNOQVPJJNP-UHFFFAOYSA-N
Temperature: 298 K
Tabular data in the source: 0
pressure (bar)	uptake (mmol/g)
0.00263322	1.08527
0.00326881	0.813953
0.00408603	1.35659
0.00535723	1.35659
0.00690084	1.62791
0.00862604	1.89922
0.0107145	2.44186
0.0118041	2.44186
0.0128029	2.71318
0.0133477	2.71318
0.0139833	2.9845
0.0148913	3.25581
0.0157993	3.25581
0.0166165	3.52713
0.0179785	4.34109
0.0187957	4.34109
0.0195221	4.88372
0.0204301	5.69767
0.0209749	6.78295
0.0217922	13.5659
0.0227001	27.9457
0.0234266	31.2016
0.024607	32.0155
0.0251518	32.8295
0.0261506	32.8295
0.0266046	33.1008
0.0274218	33.1008
0.0281482	33.6434
0.0288746	33.9147
0.0296918	35.2713
0.030509	39.0698
