Adsorption isotherm of Water on [Ni8(L5-CF3)6]
DOI: 10.1039/C3cs60475f
Adsorbate Water: InChIKey XLYOFNOQVPJJNP-UHFFFAOYSA-N
Temperature: 298 K
Tabular data in the source: 0
pressure (bar)	uptake (mmol/g)
0.000181601	0.271318
0.00499405	1.35659
0.00808124	1.62791
0.0108053	1.89922
0.0145281	1.89922
0.0174337	2.17054
0.0187049	2.71318
0.0203393	2.71318
0.0220645	2.9845
0.0234266	3.25581
0.0249702	6.78295
0.0257874	17.093
0.026423	27.9457
0.0272402	39.3411
0.0281482	45.0388
0.0290562	46.6667
0.029601	47.2093
0.0305998	47.7519
