Adsorption isotherm of Water on [Ni8(L5)6]
DOI: 10.1039/C3cs60475f
Adsorbate Water: InChIKey XLYOFNOQVPJJNP-UHFFFAOYSA-N
Temperature: 298 K
Tabular data in the source: 0
pressure (bar)	uptake (mmol/g)
0	0
0.00172521	1.08527
0.00281482	1.35659
0.00490322	1.89922
0.00626524	2.44186
0.00762726	2.9845
0.00944326	2.9845
0.0129845	3.79845
0.0142557	4.06977
0.0157085	4.6124
0.0173429	5.42636
0.0187957	5.96899
0.0202485	10.0388
0.0217013	27.6744
0.0233358	44.4961
0.0249702	50.4651
0.0265138	52.093
0.0281482	53.1783
0.029601	54.8062
0.0305998	59.6899
