Adsorption isotherm of P-Xylene on MIL-53(Al)
DOI: 10.1039/C3cs60475f
Adsorbate P-Xylene: InChIKey URLKBWYHVLBVBO-UHFFFAOYSA-N
Temperature: 383 K
Tabular data in the source: 0
pressure (bar)	uptake (wt%)
0.000190476	15.0894
0.000571429	15.7945
0.00133333	16.5029
0.00228571	16.8622
0.00419048	17.5806
0.0072381	19.7126
0.008	21.1228
0.00895238	21.8329
0.00990476	24.9992
0.0110476	30.2723
0.012	32.0351
0.0154286	33.4687
0.019619	34.5581
0.0306667	36.4094
