Adsorption isotherm of Water on Blucher-101408
DOI: 10.1039/C3cs60475f
Adsorbate Water: InChIKey XLYOFNOQVPJJNP-UHFFFAOYSA-N
Temperature: 298 K
Tabular data in the source: 0
pressure (bar)	uptake (mmol/g)
0.00072851	0.534273
0.00109276	0.53114
0.00191234	0.524089
0.00364255	0.509205
0.00464425	0.500588
0.0065566	0.484136
0.0080136	0.471602
0.0095617	0.188014
0.0111098	0.444967
0.0125668	0.162162
0.0140238	0.419898
0.0162093	0.671367
0.0173932	0.661183
0.0186681	1.19076
0.0203072	2.52801
0.0217643	6.02899
0.0234034	12.2311
0.0250425	22.7575
0.0257711	32.2107
0.0265906	37.0685
0.0274102	38.4128
0.0282298	39.2166
0.0288672	39.7517
0.0297778	40.5546
0.0304153	41.6302
