Adsorption isotherm of Water on DMOF-Br
DOI: 10.1021/La304151r
Adsorbate Water: InChIKey XLYOFNOQVPJJNP-UHFFFAOYSA-N
Temperature: 298 K
Tabular data in the source: 0
pressure (bar)	uptake (mmol/g)
0.000333903	0.164666
0.00333618	1.21762
0.00640699	2.56753
0.0126011	3.15508
0.0188614	3.67656
0.0215945	4.30075
0.0250614	5.15519
0.0267279	5.51648
0.0281942	5.81197
