Adsorption isotherm of Water on DMOF
DOI: 10.1021/La304151r
Adsorbate Water: InChIKey XLYOFNOQVPJJNP-UHFFFAOYSA-N
Temperature: 298 K
Tabular data in the source: 0
pressure (bar)	uptake (mmol/cm3)
0.000162355	0.0612745
0.00329878	0.122549
0.00638126	0.245098
0.00952683	4.53431
0.0126668	6.25
0.0187707	3.24755
0.0249893	3.30882
0.0280718	3.43137
