Adsorption isotherm of Nitrogen on DMOF-TM2
DOI: 10.1021/La304151r
Adsorbate Nitrogen: InChIKey IJGRMHOSHXDMSA-UHFFFAOYSA-N
Temperature: 77 K
Tabular data in the source: 0
pressure (bar)	uptake (cm3(STP)/g)
0.00797963	228.909
0.0179542	235.988
0.0279287	244.248
0.0359083	246.608
0.0498727	252.507
0.10174	269.027
0.141638	277.286
0.189516	284.366
0.251358	291.445
0.295246	296.165
0.343124	299.705
0.389007	304.425
0.43489	307.965
0.484763	310.324
0.53264	313.864
0.582513	316.224
0.632386	318.584
0.680263	322.124
0.728141	324.484
0.817912	329.204
0.843846	331.563
0.883744	333.923
0.927632	336.283
0.96354	351.622
