Adsorption isotherm of Water on DMOF-Br
DOI: 10.1021/La304151r
Adsorbate Water: InChIKey XLYOFNOQVPJJNP-UHFFFAOYSA-N
Temperature: 298 K
Tabular data in the source: 0
pressure (bar)	uptake (mmol/cm3)
0.000162355	0.0612745
0.00335524	1.22549
0.00643971	2.26716
0.00957799	3.18627
0.012608	4.04412
0.0157459	4.77941
0.0188286	5.02451
0.0220203	5.63725
0.0250486	5.69853
0.0280782	6.37255
