Adsorption isotherm of Water on DMOF-NO2
DOI: 10.1021/La304151r
Adsorbate Water: InChIKey XLYOFNOQVPJJNP-UHFFFAOYSA-N
Temperature: 298 K
Tabular data in the source: 0
pressure (bar)	uptake (mmol/g)
0.000267562	0.197739
0.0018714	1.15315
0.00334145	2.00969
0.00527216	2.07367
0.00647025	2.07241
0.0081345	2.10367
0.00946616	2.16827
0.0111972	2.23246
0.0126622	2.32993
0.0136024	3.58307
0.0138706	3.87982
0.0143411	4.57239
0.014878	5.2319
0.0151462	5.52864
0.0154848	6.38637
0.016084	6.41875
0.0182821	6.64746
0.0189479	6.67977
0.0202807	6.90939
0.0214135	7.10622
0.022013	7.17159
0.0226788	7.2039
0.0233444	7.2032
0.0240103	7.2355
0.0246759	7.2348
0.0260741	7.29934
0.0267397	7.29864
0.0281379	7.36318
