Adsorption isotherm of Water on DMOF-OH
DOI: 10.1021/La304151r
Adsorbate Water: InChIKey XLYOFNOQVPJJNP-UHFFFAOYSA-N
Temperature: 298 K
Tabular data in the source: 0
pressure (bar)	uptake (mmol/cm3)
0.00016262	0.183824
0.00330329	2.20588
0.00639081	4.65686
0.012612	5.88235
0.0188325	6.80147
0.0250029	9.55882
0.0281417	10.723
