Adsorption isotherm of Water on DMOF-Cl2
DOI: 10.1021/La304151r
Adsorbate Water: InChIKey XLYOFNOQVPJJNP-UHFFFAOYSA-N
Temperature: 298 K
Tabular data in the source: 0
pressure (bar)	uptake (cm3(STP)/g)
0.000160701	0.03861
0.00329437	0.212355
0.00642803	0.46332
0.00851714	0.405405
0.00948135	0.598456
0.0126954	3.16602
0.0141417	3.57143
0.0157487	3.76448
0.018802	3.80309
0.0218553	3.99614
0.0249086	4.05405
0.0277209	4.26641
