Adsorption isotherm of Water on DMOF-NO2
DOI: 10.1021/La304151r
Adsorbate Water: InChIKey XLYOFNOQVPJJNP-UHFFFAOYSA-N
Temperature: 298 K
Tabular data in the source: 0
pressure (bar)	uptake (mmol/cm3)
0.00016262	0.183824
0.00330673	3.79902
0.00638908	3.86029
0.00957971	3.98284
0.0126087	4.35049
0.0157615	12.0098
0.0188451	12.6225
0.0219293	13.5417
0.0250657	13.6029
0.0281486	13.9093
