Adsorption isotherm of Water on DMOF-Cl2
DOI: 10.1021/La304151r
Adsorbate Water: InChIKey XLYOFNOQVPJJNP-UHFFFAOYSA-N
Temperature: 298 K
Tabular data in the source: 0
pressure (bar)	uptake (mmol/g)
0.000532927	0.0654468
0.00326303	0.227595
0.00645927	0.422257
0.00958873	0.583987
0.0126013	3.18808
0.0156664	3.67991
0.0187955	3.77564
0.0219915	3.93729
0.0249874	4.03316
0.0281839	4.26082
