Adsorption isotherm of Nitrogen on DMOF-A
DOI: 10.1021/La304151r
Adsorbate Nitrogen: InChIKey IJGRMHOSHXDMSA-UHFFFAOYSA-N
Temperature: 77 K
Tabular data in the source: 0
pressure (bar)	uptake (cm3(STP)/g)
0.0134388	177.216
0.021469	179.428
0.0334997	180.908
0.0495307	181.655
0.0996388	185.37
0.145729	187.61
0.191819	189.851
0.245927	192.833
0.288011	195.071
0.338108	197.315
0.390207	199.56
0.4383	201.802
0.4904	204.048
0.538487	205.555
0.590581	207.065
0.632664	209.302
0.678748	210.808
0.730836	211.583
0.782936	213.828
0.82902	215.333
0.881113	216.843
0.931192	216.881
0.963272	220.582
