Adsorption isotherm of Nitrogen on DMOF-TM1
DOI: 10.1021/La304151r
Adsorbate Nitrogen: InChIKey IJGRMHOSHXDMSA-UHFFFAOYSA-N
Temperature: 77 K
Tabular data in the source: 0
pressure (bar)	uptake (cm3(STP)/g)
0.00801254	274.108
0.0160251	279.981
0.030047	285.846
0.0460721	291.709
0.0961504	296.354
0.142223	299.828
0.190298	305.652
0.242379	307.942
0.294461	310.232
0.33853	313.708
0.390611	315.998
0.442693	319.464
0.488765	321.761
0.538843	326.406
0.582912	329.882
0.63299	330.998
0.679062	334.472
0.731144	336.762
0.779219	341.409
0.83731	343.692
0.877373	347.173
0.955495	356.49
0.967514	365.887
