Adsorption isotherm of Nitrogen on DMOF-OH
DOI: 10.1021/La304151r
Adsorbate Nitrogen: InChIKey IJGRMHOSHXDMSA-UHFFFAOYSA-N
Temperature: 77 K
Tabular data in the source: 0
pressure (bar)	uptake (cm3(STP)/g)
0.00799605	407.647
0.0299852	416.471
0.0399802	418.235
0.0519743	420
0.0999506	425.294
0.145928	425.294
0.193904	427.059
0.239881	428.824
0.293855	430.588
0.339832	430.588
0.389807	430.588
0.433786	434.118
0.483761	435.882
0.533736	439.412
0.585711	439.412
0.633687	442.941
0.675666	446.471
0.72764	453.529
0.777616	460.588
0.82959	467.647
0.875567	472.941
0.925543	476.471
0.965523	478.235
