Adsorption isotherm of Water on DMOF
DOI: 10.1021/La304151r
Adsorbate Water: InChIKey XLYOFNOQVPJJNP-UHFFFAOYSA-N
Temperature: 298 K
Tabular data in the source: 0
pressure (bar)	uptake (mmol/g)
0.000199262	0.032794
0.00338746	0.0954514
0.00644281	0.191252
0.00956458	3.4223
0.0126199	4.70621
0.0187971	2.4225
0.0249742	2.51502
0.028096	2.57775
