Adsorption isotherm of Water on DMOF-OH
DOI: 10.1021/La304151r
Adsorbate Water: InChIKey XLYOFNOQVPJJNP-UHFFFAOYSA-N
Temperature: 298 K
Tabular data in the source: 0
pressure (bar)	uptake (mmol/g)
0.000464945	0.0985215
0.00338746	0.656508
0.00644281	1.24736
0.00956458	1.73913
0.0126199	2.19796
0.0158081	2.52465
0.0188635	2.71946
0.0219188	2.98027
0.0250406	3.01
0.028096	3.36983
