Adsorption isotherm of Water on DMOF-Cl2
DOI: 10.1021/La304151r
Adsorbate Water: InChIKey XLYOFNOQVPJJNP-UHFFFAOYSA-N
Temperature: 298 K
Tabular data in the source: 0
pressure (bar)	uptake (mmol/cm3)
0.00016262	0.183824
0.00335338	0.367647
0.00649074	0.857843
0.00957375	1.22549
0.0126684	6.98529
0.0157533	8.21078
0.01889	8.39461
0.0219189	8.76225
0.0249475	8.94608
0.0281389	9.43627
