Adsorption isotherm of Nitrogen on DMOF-Br
DOI: 10.1021/La304151r
Adsorbate Nitrogen: InChIKey IJGRMHOSHXDMSA-UHFFFAOYSA-N
Temperature: 77 K
Tabular data in the source: 0
pressure (bar)	uptake (cm3(STP)/g)
0.00598472	300
0.0179542	307.059
0.0299236	308.235
0.0398982	311.765
0.10174	318.824
0.147623	321.176
0.187521	322.353
0.255348	325.882
0.293251	325.882
0.335144	327.059
0.387012	328.235
0.4309	337.647
0.478778	337.647
0.530645	340
0.578523	341.176
0.63837	343.529
0.682258	344.706
0.728141	345.882
0.776019	347.059
0.831876	348.235
0.925637	350.588
0.969525	354.118
