Adsorption isotherm of Nitrogen on DMOF-NO2
DOI: 10.1021/La304151r
Adsorbate Nitrogen: InChIKey IJGRMHOSHXDMSA-UHFFFAOYSA-N
Temperature: 77 K
Tabular data in the source: 0
pressure (bar)	uptake (cm3(STP)/g)
0.00799605	302.639
0.0159921	304.985
0.0319842	312.023
0.0479763	314.37
0.0939536	319.062
0.14193	322.581
0.193904	324.927
0.24388	327.273
0.293855	329.619
0.337833	330.792
0.389807	331.965
0.437784	333.138
0.48576	334.311
0.529738	335.484
0.581713	336.657
0.631688	337.83
0.679664	337.83
0.72964	340.176
0.773618	341.349
0.827591	342.522
0.873568	343.695
0.923544	347.214
0.963524	354.252
