Adsorption isotherm of Nitrogen on DMOF-Cl2
DOI: 10.1021/La304151r
Adsorbate Nitrogen: InChIKey IJGRMHOSHXDMSA-UHFFFAOYSA-N
Temperature: 77 K
Tabular data in the source: 0
pressure (bar)	uptake (cm3(STP)/g)
0.00801254	280.826
0.0220345	280.826
0.0360564	280.826
0.0520815	281.858
0.100157	282.891
0.146229	283.923
0.192301	284.956
0.244382	283.923
0.294461	287.021
0.342536	287.021
0.390611	287.021
0.436683	288.053
0.480752	288.053
0.534837	289.086
0.582912	291.15
0.628984	291.15
0.679062	292.183
0.727138	293.215
0.777216	293.215
0.835307	294.248
0.879376	295.28
0.921442	296.313
0.963507	302.507
