Adsorption isotherm of Water on DMOF-Cl2
DOI: 10.1021/La304151r
Adsorbate Water: InChIKey XLYOFNOQVPJJNP-UHFFFAOYSA-N
Temperature: 298 K
Tabular data in the source: 0
pressure (bar)	uptake (cm3(STP)/g)
0.000160701	0.03861
0.00337472	0.15444
0.00634768	0.30888
0.00835644	0.34749
0.00948135	0.521236
0.0113294	2.22008
0.012615	3.18533
0.0140613	3.57143
0.0156683	3.62934
0.018802	3.74517
0.021775	3.95753
0.0248283	3.97683
0.0279619	4.16988
