Adsorption isotherm of Nitrogen on DMOF-N
DOI: 10.1021/La304151r
Adsorbate Nitrogen: InChIKey IJGRMHOSHXDMSA-UHFFFAOYSA-N
Temperature: 77 K
Tabular data in the source: 0
pressure (bar)	uptake (cm3(STP)/g)
0.00599704	289.729
0.0119941	297.933
0.0219891	331.938
0.0319842	334.272
0.0439783	333.085
0.0919546	336.546
0.14193	338.832
0.199901	341.108
0.24388	342.228
0.289857	344.518
0.339832	346.804
0.385809	347.921
0.433786	349.036
0.487759	352.49
0.535735	354.778
0.583712	355.893
0.62769	358.186
0.673667	360.477
0.725641	362.76
0.771619	365.051
0.823593	367.334
0.897557	371.937
0.935538	374.237
