Adsorption isotherm of Nitrogen on Alumina
DOI: 10.1016/j.colsurfa.2015.09.020
Article source: Figure 2
Adsorbate Nitrogen: InChIKey IJGRMHOSHXDMSA-UHFFFAOYSA-N
Kind: experiment
Temperature: 77 K
Tabular data in the source: 0
pressure (bar)	uptake (cm3(STP)/g)
0.031018	46.3848
0.052755	49.0962
0.071383	54.5404
0.09933	57.2465
0.124172	59.9552
0.149016	59.9339
0.180066	65.3674
0.198699	65.3514
0.226648	65.3274
0.254595	68.0335
0.276334	68.0148
0.298068	73.4563
0.326019	70.7023
0.350858	76.1411
0.381911	78.8445
0.400544	78.8285
0.425388	78.8072
0.450229	81.5159
0.456442	78.7805
0.475067	89.6849
0.481284	81.4893
0.499913	86.9335
0.50302	84.2007
0.524752	92.3723
0.534073	86.9041
0.549598	89.6209
0.57444	92.3296
0.577547	89.5969
0.599281	95.0384
0.602387	95.0357
0.624121	100.477
0.624123	97.7471
0.645853	108.649
0.648964	100.456
0.667589	111.36
0.673806	103.165
0.695536	114.066
0.707958	114.056
0.726586	119.5
0.74832	124.941
0.757637	124.933
0.770052	133.113
0.779369	133.105
0.791788	135.824
0.810413	146.729
0.825934	154.906
0.832117	190.391
0.83214	160.36
0.841446	174.003
0.853776	291.386
0.860073	182.177
0.872482	198.547
0.875199	695.42
0.881781	220.38
0.891057	272.243
0.903129	719.966
0.906492	389.624
0.912443	722.688
0.915687	545.23
0.937287	722.667
0.93731	692.636
0.943513	703.551
0.959025	722.649
0.993185	722.619
1.01182	722.603
