Adsorption isotherm of Nitrogen on AlK-5
DOI: 10.1016/j.colsurfa.2015.09.020
Article source: Figure 2
Adsorbate Nitrogen: InChIKey IJGRMHOSHXDMSA-UHFFFAOYSA-N
Kind: experiment
Temperature: 77 K
Tabular data in the source: 0
pressure (bar)	uptake (cm3(STP)/g)
0.012398	30.0203
0.031025	38.1945
0.055869	38.1732
0.071394	40.8899
0.108659	40.858
0.127292	40.842
0.152134	43.5507
0.183189	43.524
0.201821	43.5081
0.226663	46.2168
0.260823	46.1875
0.279456	46.1715
0.291878	46.1608
0.326036	48.8616
0.353985	48.8376
0.375724	48.8189
0.403671	51.525
0.428514	51.5037
0.450251	54.2151
0.481305	54.1884
0.496833	54.1751
0.524778	59.6113
0.546516	59.5926
0.583779	62.2907
0.605516	65.0021
0.627254	64.9835
0.645887	64.9675
0.670728	67.6762
0.701779	73.1097
0.729726	75.8158
0.748357	78.5299
0.776299	86.6962
0.807348	94.8598
0.825966	113.954
0.825978	97.5739
0.844605	105.748
0.853874	165.802
0.860124	116.655
0.875643	127.562
0.881717	302.282
0.884948	141.205
0.89425	160.307
0.912637	474.251
0.912842	212.163
0.922094	294.057
0.934446	384.139
0.940582	479.687
0.97474	482.388
0.996479	482.369
