Adsorption isotherm of Carbon Dioxide on AlK-10
DOI: 10.1016/j.colsurfa.2015.09.020
Article source: Figure 9
Adsorbate Carbon Dioxide: InChIKey CURLTUGMZLYLDI-UHFFFAOYSA-N
Kind: experiment
Temperature: 318 K
Tabular data in the source: 0
pressure (bar)	uptake (mmol/g)
0.000323	0.497778
0.010323	0.802667
0.100323	1.30044
