Adsorption isotherm of Carbon Dioxide on AlK-10
DOI: 10.1016/j.colsurfa.2015.09.020
Article source: Figure 9
Adsorbate Carbon Dioxide: InChIKey CURLTUGMZLYLDI-UHFFFAOYSA-N
Kind: experiment
Temperature: 358 K
Tabular data in the source: 0
pressure (bar)	uptake (mmol/g)
0	0.105778
0.01	0.174222
0.100323	0.261333
