Adsorption isotherm of Carbon Dioxide on AlK-10
DOI: 10.1016/j.colsurfa.2015.09.020
Article source: Figure 9
Adsorbate Carbon Dioxide: InChIKey CURLTUGMZLYLDI-UHFFFAOYSA-N
Kind: experiment
Temperature: 338 K
Tabular data in the source: 0
pressure (bar)	uptake (mmol/g)
0.000645	0.392
0.01	0.659556
0.1	0.914667
