Adsorption isotherm of Hydrogen on FIR-4a-ht
DOI: 10.1021/Cg3013574
Adsorbate Hydrogen: InChIKey UFHFLCQGNIYNRP-UHFFFAOYSA-N
Temperature: 77 K
Tabular data in the source: 0
pressure (bar)	uptake (cm3(STP)/g)
0.00307692	0.41629
0.00923077	2.49454
0.0184615	5.40431
0.0338462	8.73143
0.0523077	10.8139
0.0646154	13.3096
0.0769231	15.3899
0.0892308	17.8855
0.104615	19.967
0.12	22.4637
0.132308	24.5441
0.16	27.8754
0.184615	31.2057
0.209231	34.1208
0.243077	37.8696
0.267692	40.7847
0.332308	47.0354
0.396923	52.8709
0.464615	58.2923
0.532308	63.2984
0.596923	67.473
0.664615	72.0639
0.729231	76.2385
0.827692	81.2553
0.861538	84.1735
0.96	88.3599
1.04308	92.9561
