Adsorption isotherm of Carbon Dioxide on FIR-4a-ht
DOI: 10.1021/Cg3013574
Adsorbate Carbon Dioxide: InChIKey CURLTUGMZLYLDI-UHFFFAOYSA-N
Temperature: 273 K
Tabular data in the source: 0
pressure (bar)	uptake (cm3(STP)/g)
0.0107996	0.597633
0.0270092	1.34427
0.0405189	1.9415
0.0594385	2.68772
0.0675484	2.98614
0.0810682	3.43355
0.105388	4.47859
0.129717	5.37383
0.156747	6.41846
0.183776	7.4631
0.210806	8.50774
0.235125	9.55279
0.264875	10.4472
0.313524	12.3875
0.367613	14.0273
0.418972	15.9672
0.475762	17.7564
0.527121	19.6963
0.59201	21.9338
0.659609	24.1708
0.724498	26.4083
0.786697	28.3466
0.857007	30.5832
0.921865	33.2701
