Adsorption isotherm of Carbon Dioxide on FIR-5a-ht
DOI: 10.1021/Cg3013574
Adsorbate Carbon Dioxide: InChIKey CURLTUGMZLYLDI-UHFFFAOYSA-N
Temperature: 273 K
Tabular data in the source: 0
pressure (bar)	uptake (cm3(STP)/g)
0.0133113	1.49613
0.0266632	2.69263
0.048103	4.03774
0.0614346	5.38405
0.0667996	5.68288
0.0828542	6.87897
0.093564	7.62643
0.106936	8.67312
0.133741	10.317
0.160546	11.961
0.187371	13.4551
0.206108	14.8006
0.238359	16.1441
0.265225	17.3385
0.31355	19.7283
0.364599	21.9679
0.421073	24.0568
0.474886	25.8465
0.523272	27.7868
0.590558	29.8741
0.660526	32.1108
0.722426	34.0491
0.781623	35.9878
0.848929	37.9253
0.918958	39.7125
0.997054	41.7982
