Adsorption isotherm of Hydrogen on FIR-5a-ht
DOI: 10.1021/Cg3013574
Adsorbate Hydrogen: InChIKey UFHFLCQGNIYNRP-UHFFFAOYSA-N
Temperature: 77 K
Tabular data in the source: 0
pressure (bar)	uptake (cm3(STP)/g)
0	2.07612
0.00307692	6.22944
0.00615385	8.72185
0.00923077	11.2143
0.0123077	14.5371
0.0153846	18.6904
0.0276923	22.0165
0.0307692	25.3394
0.0523077	31.9904
0.08	39.8893
0.0953846	42.8012
0.107692	45.2968
0.113846	47.7903
0.138462	51.951
0.16	54.4498
0.184615	58.1954
0.209231	61.5257
0.233846	64.4408
0.261538	67.7722
0.329231	73.1935
0.396923	79.0301
0.464615	83.621
0.526154	87.7945
0.596923	91.556
0.664615	95.3165
0.732308	98.2465
0.796923	101.175
0.889231	104.944
0.938462	107.453
