Adsorption isotherm of Nitrogen on FIR-4-ht
DOI: 10.1021/Cg3013574
Adsorbate Nitrogen: InChIKey IJGRMHOSHXDMSA-UHFFFAOYSA-N
Temperature: 77 K
Tabular data in the source: 0
pressure (bar)	uptake (cm3(STP)/g)
0.00272449	6.57233
0.0110403	10.961
0.0165503	17.5364
0.0331514	29.5983
0.0665264	35.1093
0.0832291	36.2225
0.102717	37.3387
0.122226	36.2652
0.141704	38.4763
0.161202	38.4977
0.183476	39.6169
0.200189	39.6352
0.250328	39.6901
0.300467	39.745
0.350585	41.9897
0.400734	40.9497
0.450863	42.0995
0.503777	43.2523
0.55113	43.3042
0.601259	44.4539
0.654173	45.6068
0.701526	45.6586
0.751644	47.9033
0.801783	47.9582
0.821271	49.0744
0.849126	49.1049
0.876971	50.2303
0.90203	51.3526
0.924314	51.377
0.949363	53.5942
0.963291	53.6094
0.982789	53.6308
