Adsorption isotherm of Nitrogen on FIR-5-ht
DOI: 10.1021/Cg3013574
Adsorbate Nitrogen: InChIKey IJGRMHOSHXDMSA-UHFFFAOYSA-N
Temperature: 77 K
Tabular data in the source: 0
pressure (bar)	uptake (cm3(STP)/g)
0.0027933	0.0027933
0.00558659	91.9769
0.00837989	118.257
0.0111732	123.735
0.0307263	145.654
0.0614525	166.491
0.0782123	174.173
0.100559	190.621
0.114525	216.914
0.128492	242.111
0.153631	248.708
0.184358	252.027
0.203911	253.143
0.251397	259.764
0.304469	263.107
0.351955	267.539
0.399441	268.686
0.452514	273.123
0.502793	275.368
0.553073	278.708
0.600559	280.95
0.653631	284.292
0.698324	285.436
0.75419	288.782
0.804469	288.837
0.821229	289.95
0.851955	293.269
0.877095	295.486
0.902235	297.703
0.930168	298.829
0.949721	299.945
0.963687	303.245
