Adsorption isotherm of Methanol on CuBTC
DOI: 10.1021/Ja205082p
Adsorbate Methanol: InChIKey OKKJLVBELUTLKV-UHFFFAOYSA-N
Temperature: 298 K
Tabular data in the source: 0
pressure (bar)	uptake (mmol/g)
0.000236243	1.77345
0.000371941	3.18177
0.000474433	4.64225
0.00054372	6.1549
0.000579615	7.61538
0.000614861	8.71075
0.000816785	9.91043
0.00098439	10.5364
0.00121896	11.3709
0.00148711	12.362
0.00162188	13.2487
0.00182362	14.344
0.00232486	15.3351
0.00265831	15.5959
0.00339171	16.0653
0.00459138	16.5869
0.00565776	17.0564
0.00682376	17.3693
0.00875572	17.7345
0.0101546	17.9431
0.0119197	18.0996
0.0136847	18.2039
0.0153501	18.4647
0.0168493	18.882
