Adsorption isotherm of N-Hexane on CuBTC
DOI: 10.1021/Ja205082p
Adsorbate N-Hexane: InChIKey VLKZOEOYAKHREP-UHFFFAOYSA-N
Temperature: 298 K
Tabular data in the source: 0
pressure (bar)	uptake (mmol/g)
0.000837099	0.77577
0.000865812	1.28002
0.000893421	1.76488
0.000970726	3.12248
0.00133847	2.61823
0.00181003	3.93704
0.00182439	4.18916
0.00184758	4.59644
0.0117779	4.92614
0.0347783	5.02311
0.0550023	5.10069
0.0708597	5.0813
0.080377	5.12009
0.0906861	5.13948
0.100599	5.15887
0.113287	5.17827
0.12439	5.21706
0.133113	5.23645
0.139853	5.23645
0.14382	5.27524
0.153731	5.27524
0.161661	5.27524
0.172765	5.33342
0.181886	5.37221
0.191403	5.411
