Adsorption isotherm of Nitrogen on NTU-101-Cu
DOI: 10.1039/c2cc34921c
Adsorbate Nitrogen: InChIKey IJGRMHOSHXDMSA-UHFFFAOYSA-N
Temperature: 273 K
Tabular data in the source: 0
pressure (bar)	uptake (cm3(STP)/g)
0.0695595	0.611046
0.100475	1.18292
0.152644	1.2358
0.202882	1.82726
0.255051	2.42068
0.307221	2.47356
0.355526	2.79279
0.405764	3.38425
0.456001	3.70544
0.506239	4.29691
0.56034	4.62201
0.606713	4.66902
0.660815	5.53467
0.711053	5.85586
0.763222	6.17901
0.811527	6.76851
0.861765	7.35997
0.912002	7.41089
0.966104	8.00627
1.01054	8.05131
