Adsorption isotherm of Carbon Dioxide on NTU-101-Cu
DOI: 10.1039/c2cc34921c
Adsorbate Carbon Dioxide: InChIKey CURLTUGMZLYLDI-UHFFFAOYSA-N
Temperature: 273 K
Tabular data in the source: 0
pressure (bar)	uptake (cm3(STP)/g)
0.0212543	3.26479
0.0347797	5.17039
0.0541018	6.27105
0.0676273	7.36584
0.0850172	9.8159
0.104339	11.9976
0.154577	17.7242
0.202882	22.6381
0.253119	28.3647
0.303357	33.2805
0.355526	38.1982
0.403832	43.6526
0.457933	48.5723
0.508171	53.4881
0.56034	59.4869
0.608646	64.671
0.662747	69.3204
0.707188	74.2303
0.76129	78.6095
0.809595	84.0638
0.865629	89.2558
0.91007	93.6251
0.964172	98.2746
1.00861	102.914
