Adsorption isotherm of Methane on NTU-101-Cu
DOI: 10.1039/c2cc34921c
Adsorbate Methane: InChIKey VNWKTOKETHGBQD-UHFFFAOYSA-N
Temperature: 273 K
Tabular data in the source: 0
pressure (bar)	uptake (cm3(STP)/g)
0.0714917	2.23463
0.152644	3.9385
0.253119	5.93224
0.353594	8.19624
0.457933	10.4642
0.558408	12.7282
0.658883	14.7219
0.757426	16.9839
0.811527	17.8496
0.861765	18.9816
0.966104	20.9792
1.00861	21.8331
