Adsorption isotherm of Nitrogen on NTU-101-Zn
DOI: 10.1039/c2cc34921c
Adsorbate Nitrogen: InChIKey IJGRMHOSHXDMSA-UHFFFAOYSA-N
Temperature: 77 K
Tabular data in the source: 0
pressure (bar)	uptake (cm3(STP)/g)
0.0481945	1.47195
0.100034	0.265393
0.148289	4.42567
0.200128	3.21912
0.250235	7.38431
0.302105	7.52192
0.352152	8.99878
0.402169	9.13148
0.455921	10.6182
0.504115	12.0901
0.556015	13.5719
0.606062	15.0488
0.657931	15.1864
0.706126	16.6583
0.758055	19.4843
0.809984	22.3102
0.859972	21.0987
0.911931	25.2688
0.962038	29.434
