Adsorption isotherm of Nitrogen on NTU-101-Cu
DOI: 10.1039/c2cc34921c
Adsorbate Nitrogen: InChIKey IJGRMHOSHXDMSA-UHFFFAOYSA-N
Temperature: 77 K
Tabular data in the source: 0
pressure (bar)	uptake (cm3(STP)/g)
-0.00305693	34.6707
-0.000788886	57.3344
-0.00027118	85.3337
0.00115868	162.665
0.00197221	306.664
0.00221874	119.997
0.00391978	211.995
0.00448679	242.661
0.00520172	281.326
0.00584269	315.992
0.00611387	330.659
0.0087024	370.655
0.00909684	391.988
0.0111677	403.985
0.0132631	417.316
0.0153093	427.98
0.0174048	441.31
0.0270193	461.298
0.0383103	471.95
0.0458047	477.273
0.10894	491.857
0.205283	502.397
0.266348	504.983
0.364465	511.52
0.614172	516.525
0.667792	516.455
0.817606	518.924
1.00258	522.681
