Adsorption isotherm of Methane on {Ag3[Ag5(mu3-3,5-Ph2tz)6](NO3)2}n
DOI: 10.1016/j.micromeso.2013.09.006
Adsorbate Methane: InChIKey VNWKTOKETHGBQD-UHFFFAOYSA-N
Temperature: 298 K
Tabular data in the source: 0
pressure (bar)	uptake (mmol/g)
0.0925342	0.0123092
0.134175	0.0153581
0.164248	0.0184247
0.196635	0.018375
0.224395	0.0214452
0.272976	0.0260398
0.321557	0.0275216
0.370137	0.0321163
0.423344	0.033591
0.471924	0.0381856
0.525132	0.0412167
0.576026	0.0473642
0.624606	0.0519589
0.6755	0.0565499
0.726394	0.0595846
0.768034	0.0626335
0.830495	0.0687632
0.872136	0.0702557
0.932282	0.0748325
0.966983	0.0763357
0.99937	0.0825116
