Adsorption isotherm of Oxygen on {Ag3[Ag5(mu3-3,5-Ph2tz)6](NO3)2}n
DOI: 10.1016/j.micromeso.2013.09.006
Adsorbate Oxygen: InChIKey MYMOFIZGZYHOMD-UHFFFAOYSA-N
Temperature: 298 K
Tabular data in the source: 0
pressure (bar)	uptake (mmol/g)
0.0555205	0.00769682
0.0578339	0.00924968
0.0786541	0.013887
0.101788	0.0154078
0.122608	0.0169323
0.138801	0.0200203
0.161935	0.0230976
0.180442	0.0277384
0.201262	0.0277064
0.252155	0.0338539
0.305363	0.0384414
0.353943	0.0445925
0.402524	0.0507436
0.455731	0.0584439
0.504312	0.0599257
0.555205	0.0645168
0.6061	0.0706643
0.659307	0.0752519
0.705574	0.0782936
0.749527	0.0828954
0.809675	0.0874722
0.849002	0.0889682
0.911462	0.0935416
0.93691	0.0966153
0.948476	0.098154
0.973923	0.0996713
0.990116	0.0996464
0.99937	0.101189
