Adsorption isotherm of Carbon Dioxide on {Ag3[Ag5(mu3-3,5-Ph2tz)6](NO3)2}n
DOI: 10.1016/j.micromeso.2013.09.006
Adsorbate Carbon Dioxide: InChIKey CURLTUGMZLYLDI-UHFFFAOYSA-N
Temperature: 298 K
Tabular data in the source: 0
pressure (bar)	uptake (mmol/g)
0.0879075	0.0372191
0.101788	0.0465363
0.122608	0.05273
0.136488	0.0573779
0.161935	0.0666773
0.178128	0.075991
0.201262	0.0837375
0.252155	0.10078
0.30305	0.119379
0.35163	0.136425
0.402524	0.153467
0.453418	0.17051
0.508938	0.187545
0.557519	0.204591
0.6061	0.220081
0.656993	0.235567
0.705574	0.251056
0.749527	0.264997
0.807362	0.282028
0.846688	0.297532
0.904522	0.311451
0.934595	0.320743
0.953102	0.330053
0.971609	0.336251
1.004	0.356434
