Adsorption isotherm of Oxygen on {Ag3[Ag5(mu3-3,5-tBu2tz)6](BF4)2}n
DOI: 10.1016/j.micromeso.2013.09.006
Adsorbate Oxygen: InChIKey MYMOFIZGZYHOMD-UHFFFAOYSA-N
Temperature: 298 K
Tabular data in the source: 0
pressure (bar)	uptake (mmol/g)
0.120056	0.00613027
0.161619	0.0091954
0.182401	0.010728
0.203165	0.0091954
0.249353	0.0137931
0.304747	0.0137931
0.353243	0.0183908
0.406329	0.0183908
0.450201	0.0214559
0.500978	0.0214559
0.558698	0.0245211
0.607177	0.0260536
0.655647	0.0260536
0.704126	0.0275862
0.750296	0.0291188
0.812633	0.0321839
0.84958	0.035249
0.911898	0.035249
0.93267	0.035249
0.95576	0.0367816
0.97885	0.0383142
1.01116	0.0383142
