Adsorption isotherm of Carbon Dioxide on {Ag3[Ag5(mu3-3,5-Ph2tz)6](NO3)2}n
DOI: 10.1016/j.micromeso.2013.09.006
Adsorbate Carbon Dioxide: InChIKey CURLTUGMZLYLDI-UHFFFAOYSA-N
Temperature: 298 K
Tabular data in the source: 0
pressure (bar)	uptake (mmol/g)
0.256303	0.11465
0.512531	0.216561
0.76876	0.318471
1.02484	0.394904
1.32748	0.484076
1.51391	0.573248
1.7933	0.66242
2.00305	0.764331
2.32937	0.929936
2.56236	1.03185
2.86499	1.12102
3.09791	1.21019
3.35399	1.28662
3.58683	1.36306
3.88976	1.50318
4.09944	1.59236
4.35544	1.65605
4.61137	1.70701
4.86723	1.74522
5.19289	1.79618
5.35615	1.89809
5.65886	2
5.91473	2.03822
6.14771	2.14013
6.40379	2.21656
6.63641	2.25478
6.93941	2.40764
7.19534	2.4586
7.40443	2.44586
7.6833	2.44586
7.9627	2.53503
8.19576	2.64968
8.52126	2.67516
8.73146	2.8535
9.03365	2.86624
9.24362	3.00637
9.49926	3.00637
9.8024	3.18471
10.0113	3.13376
