Adsorption isotherm of Nitrogen on {Ag3[Ag5(mu3-3,5-tBu2tz)6](BF4)2}n
DOI: 10.1016/j.micromeso.2013.09.006
Adsorbate Nitrogen: InChIKey IJGRMHOSHXDMSA-UHFFFAOYSA-N
Temperature: 298 K
Tabular data in the source: 0
pressure (bar)	uptake (mmol/g)
0.138503	0.00306513
0.177749	0.0045977
0.207755	0.0045977
0.253924	0.00613027
0.302413	0.0091954
0.353199	0.010728
0.406311	0.0153257
0.457089	0.0153257
0.510175	0.0153257
0.558663	0.0183908
0.609441	0.0183908
0.660228	0.0199234
0.71334	0.0245211
0.747962	0.0245211
0.814905	0.0260536
0.851843	0.0275862
0.909572	0.0321839
0.941885	0.0321839
0.955734	0.0321839
0.997288	0.0337165
1.00421	0.0337165
