Adsorption isotherm of Carbon Dioxide on {Ag3[Ag5(mu3-3,5-tBu2tz)6](BF4)2}n
DOI: 10.1016/j.micromeso.2013.09.006
Adsorbate Carbon Dioxide: InChIKey CURLTUGMZLYLDI-UHFFFAOYSA-N
Temperature: 298 K
Tabular data in the source: 0
pressure (bar)	uptake (mmol/g)
0.129615	0.0628352
0.141173	0.0659004
0.159709	0.0781609
0.182834	0.0858238
0.205968	0.0950192
0.252235	0.11341
0.305428	0.131801
0.356303	0.148659
0.404888	0.168582
0.455754	0.183908
0.504321	0.200766
0.557496	0.216092
0.610671	0.231418
0.659238	0.248276
0.710086	0.260536
0.754019	0.27433
0.807184	0.288123
0.851127	0.303448
0.915841	0.318774
0.941284	0.327969
0.955177	0.335632
0.982926	0.344828
0.992186	0.349425
0.996819	0.35249
1.00379	0.360153
