Adsorption isotherm of Methane on {Ag3[Ag5(mu3-3,5-tBu2tz)6](BF4)2}n
DOI: 10.1016/j.micromeso.2013.09.006
Adsorbate Methane: InChIKey VNWKTOKETHGBQD-UHFFFAOYSA-N
Temperature: 298 K
Tabular data in the source: 0
pressure (bar)	uptake (mmol/g)
0.138565	0.0137931
0.18011	0.0137931
0.221683	0.0183908
0.27246	0.0183908
0.320948	0.0214559
0.371726	0.0214559
0.424839	0.0260536
0.473326	0.0291188
0.524104	0.0291188
0.577207	0.0321839
0.625695	0.035249
0.681107	0.0383142
0.729594	0.0413793
0.773465	0.0444444
0.828868	0.045977
0.870422	0.0475096
0.935067	0.0505747
0.967397	0.0536398
0.99972	0.0551724
