Adsorption isotherm of Nitrogen on {Ag3[Ag5(mu3-3,5-Ph2tz)6](NO3)2}n
DOI: 10.1016/j.micromeso.2013.09.006
Adsorbate Nitrogen: InChIKey IJGRMHOSHXDMSA-UHFFFAOYSA-N
Temperature: 298 K
Tabular data in the source: 0
pressure (bar)	uptake (mmol/g)
0.0925342	0.0029707
0.108728	0.00294583
0.117981	0.00448803
0.143429	0.00756179
0.178128	0.00595206
0.224395	0.00899383
0.272976	0.0104756
0.32387	0.0135103
0.370137	0.0165521
0.404837	0.0164988
0.453418	0.0179806
0.501998	0.0210188
0.552892	0.0256099
0.6061	0.0255281
0.659307	0.0285592
0.7102	0.0284811
0.749527	0.0284207
0.807362	0.0330011
0.849002	0.0344935
0.927656	0.0359291
0.953102	0.0390029
0.973923	0.0405273
1.00631	0.0404776
