Adsorption isotherm of Carbon Dioxide on {Ag3[Ag5(mu3-3,5-tBu2tz)6](BF4)2}n
DOI: 10.1016/j.micromeso.2013.09.006
Adsorbate Carbon Dioxide: InChIKey CURLTUGMZLYLDI-UHFFFAOYSA-N
Temperature: 298 K
Tabular data in the source: 0
pressure (bar)	uptake (mmol/g)
0.0232397	0
0.256155	0.089172
0.512087	0.140127
0.768019	0.191083
1.04711	0.229299
1.30283	0.242038
1.55868	0.280255
1.83778	0.318471
2.02386	0.343949
2.27963	0.369427
2.5819	0.394904
2.83761	0.407643
3.09339	0.433121
3.34925	0.471338
3.5818	0.496815
3.86082	0.522293
4.1166	0.547771
4.37232	0.56051
4.62817	0.598726
4.88389	0.611465
5.11651	0.649682
5.39545	0.66242
5.65131	0.700637
5.9071	0.726115
6.13965	0.751592
6.41859	0.764331
6.67438	0.789809
6.93016	0.815287
7.18609	0.866242
7.4418	0.878981
7.67443	0.917197
7.95344	0.942675
8.20923	0.968153
8.46494	0.980892
8.74404	1.01911
8.99983	1.04459
9.23237	1.07006
9.48822	1.10828
9.76755	1.18471
10.0472	1.32484
