Adsorption isotherm of Nitrogen on DUT-13
DOI: 10.1039/C4cc00524d
Adsorbate Nitrogen: InChIKey IJGRMHOSHXDMSA-UHFFFAOYSA-N
Temperature: 77 K
Tabular data in the source: 0
pressure (bar)	uptake (cm3(STP)/g)
0.00224888	0.00231481
0.00899556	420.523
0.0157422	437.767
0.0224888	460.772
0.0292356	495.3
0.04048	541.324
0.0539734	616.141
0.0674666	742.81
0.0742133	1002.03
0.0899556	1082.59
0.0967022	1111.36
0.146178	1162.92
0.168667	1174.31
0.195653	1185.67
0.238382	1202.7
0.26312	1208.32
0.285608	1213.94
0.310346	1219.56
0.337333	1225.16
0.359822	1225.03
0.382312	1230.65
0.407048	1230.51
0.454276	1241.75
0.479014	1241.6
0.52624	1247.09
0.575716	1252.55
0.620693	1252.29
0.670169	1257.75
0.719645	1257.46
0.766871	1262.94
0.816347	1268.41
0.863573	1268.13
0.913049	1267.84
0.962525	1273.3
