Adsorption isotherm of Nitrogen on DUT-13
DOI: 10.1039/C4cc00524d
Adsorbate Nitrogen: InChIKey IJGRMHOSHXDMSA-UHFFFAOYSA-N
Temperature: 77 K
Tabular data in the source: 0
pressure (bar)	uptake (cm3(STP)/g)
0.1012	604.338
0.125938	702.134
0.148427	725.046
0.170916	736.435
0.195653	753.572
0.215893	764.975
0.249626	782.059
0.274364	781.912
0.294605	793.315
0.319343	798.929
0.34408	804.544
0.371066	810.145
0.393556	810.012
0.416045	809.878
0.436284	815.52
0.463271	826.882
0.488009	826.736
0.512747	826.589
0.535236	826.456
0.562222	826.296
0.584711	826.162
0.609449	831.777
0.634187	837.391
0.656676	837.258
0.676915	831.377
0.701653	831.23
0.726391	842.606
0.744383	842.499
0.771368	842.339
0.800604	836.405
0.823093	836.271
0.85008	841.872
0.877067	841.712
0.897307	841.592
0.919795	835.698
0.937787	835.591
