Adsorption isotherm of Nitrogen on DUT-13
DOI: 10.1039/C4cc00524d
Adsorbate Nitrogen: InChIKey IJGRMHOSHXDMSA-UHFFFAOYSA-N
Temperature: 77 K
Tabular data in the source: 0
pressure (bar)	uptake (cm3(STP)/g)
0.0112445	391.703
0.0472267	466.387
0.0742133	506.556
0.0967022	517.945
0.125938	523.533
0.155173	523.36
0.177662	523.226
0.200152	534.616
0.229387	534.442
0.251875	540.07
0.278862	545.671
0.294605	545.578
0.321592	545.418
0.348577	545.258
0.373315	545.111
0.393556	550.753
0.418294	550.606
0.443032	550.459
0.46552	556.087
0.488009	561.715
0.512747	561.568
0.537485	567.183
0.559973	578.572
0.589208	589.922
0.611698	601.311
0.636436	601.164
0.656676	612.567
0.683663	618.168
0.7084	635.305
0.726391	646.721
0.755627	646.548
0.773618	657.964
0.807352	675.048
0.827591	686.45
0.845582	692.105
0.874818	709.215
0.897307	720.605
0.924293	737.729
