Adsorption isotherm of Nitrogen on DUT-13
DOI: 10.1039/C4cc00524d
Adsorbate Nitrogen: InChIKey IJGRMHOSHXDMSA-UHFFFAOYSA-N
Temperature: 77 K
Tabular data in the source: 0
pressure (bar)	uptake (cm3(STP)/g)
0.00899556	374.432
0.0224888	460.772
0.04048	466.427
0.0764622	541.11
0.130435	540.79
0.152924	540.657
0.179911	540.497
0.204649	546.111
0.229387	551.726
0.256373	551.566
0.274364	551.459
0.296854	551.326
0.326089	556.914
0.353076	568.277
0.371066	568.17
0.393556	579.559
0.416045	579.426
0.438533	585.054
0.463271	607.952
0.48576	619.342
0.510498	630.717
0.530738	653.643
0.557724	676.528
0.582462	682.143
0.6072	687.757
0.625192	704.934
0.649928	722.072
0.676915	733.434
0.701653	750.572
0.726391	756.186
0.746632	767.589
0.775867	784.699
0.793858	790.354
0.811849	796.009
0.85008	818.827
0.874818	824.442
0.897307	818.547
0.917546	841.472
