Adsorption isotherm of Nitrogen on DUT-13
DOI: 10.1039/C4cc00524d
Adsorbate Nitrogen: InChIKey IJGRMHOSHXDMSA-UHFFFAOYSA-N
Temperature: 77 K
Tabular data in the source: 0
pressure (bar)	uptake (cm3(STP)/g)
0.00224888	0.00231481
0.00449778	201.619
0.00674666	259.219
0.00899556	311.058
0.0224888	466.533
0.0337333	506.796
0.0517244	535.496
0.0674666	546.925
0.0877067	558.328
0.107947	569.73
0.123689	575.398
0.14168	592.575
0.175414	603.898
0.191155	626.85
0.213644	690.091
0.24288	799.383
0.265369	885.669
0.290107	960.42
0.319343	1023.62
0.341831	1063.82
0.366569	1098.24
0.389058	1126.91
0.409297	1144.07
0.438533	1161.19
0.463271	1166.8
0.48576	1178.19
0.537485	1200.93
0.580213	1217.96
0.629689	1223.43
0.676915	1234.67
0.730889	1245.87
0.778116	1245.59
0.82984	1251.05
0.877067	1262.29
0.924293	1267.77
0.95128	1273.37
