Adsorption isotherm of Nitrogen on DUT-13
DOI: 10.1039/C4cc00524d
Adsorbate Nitrogen: InChIKey IJGRMHOSHXDMSA-UHFFFAOYSA-N
Temperature: 77 K
Tabular data in the source: 0
pressure (bar)	uptake (cm3(STP)/g)
0.0247378	431.952
0.0742133	512.317
0.0989513	540.977
0.125938	586.907
0.146178	615.594
0.173165	644.241
0.195653	644.107
0.218142	661.258
0.240631	672.647
0.269867	683.996
0.292356	689.624
0.321592	689.451
0.34408	695.079
0.36432	694.959
0.386809	706.348
0.413796	706.188
0.436284	706.055
0.458773	705.921
0.488009	711.509
0.512747	717.124
0.535236	711.229
0.559973	716.844
0.580213	722.485
0.609449	716.55
0.631938	722.178
0.652178	722.058
0.676915	727.673
0.699404	727.54
0.726391	727.38
0.751129	732.994
0.773618	732.861
0.798355	732.714
0.818596	732.594
0.847831	738.182
0.872569	738.035
0.897307	737.889
0.919795	731.994
0.944533	731.847
