Adsorption isotherm of Nitrogen on DS-RF-F127
DOI: 10.1246/cl.150297
Article source: Figure 1a
Adsorbate Nitrogen: InChIKey IJGRMHOSHXDMSA-UHFFFAOYSA-N
Kind: experiment
Temperature: 77 K
Tabular data in the source: 0
pressure (bar)	uptake (cm3(STP)/g)
0.022476	590.906
0.048883	646.451
0.075336	677.381
0.098798	732.908
0.125228	776.145
0.157559	813.265
0.172208	856.43
0.198649	893.514
0.228035	930.616
0.251542	961.528
0.280917	1004.78
0.301479	1035.68
0.324998	1060.44
0.351428	1103.67
0.374935	1134.58
0.401398	1159.36
0.42784	1196.44
0.451234	1288.89
0.451369	1215.05
0.477607	1362.9
0.480779	1239.84
0.501147	1375.35
0.50134	1270.74
0.5247	1381.65
0.533695	1295.55
0.551176	1400.27
0.574874	1326.57
0.58063	1400.45
0.610197	1339.09
0.613029	1400.65
0.636594	1400.79
0.642552	1363.9
0.677796	1419.5
0.680821	1376.44
0.72498	1389.02
0.769139	1401.59
0.798583	1407.93
0.842753	1414.35
0.869251	1420.66
0.89576	1420.82
0.916378	1420.95
0.93404	1427.21
0.954658	1427.34
0.975253	1439.77
1.0047	1446.1
