Adsorption isotherm of Carbon monoxide on DS-RF-F127
DOI: 10.1246/cl.150297
Article source: Figure 3
Adsorbate Carbon monoxide: InChIKey UGFAIRIUMAVXCW-UHFFFAOYSA-N
Kind: experiment
Temperature: 293 K
Tabular data in the source: 0
pressure (bar)	uptake (mmol/g)
0	0
0.036278	0.20567
0.065301	0.365602
0.111253	0.570854
0.159624	0.776003
0.21525	0.934785
0.263621	1.09388
0.31683	1.27579
0.365201	1.41186
0.389385	1.52595
0.442594	1.63878
0.466779	1.72985
0.490965	1.79788
0.515151	1.86591
0.56594	2.00188
0.616729	2.13784
0.669937	2.29673
0.694123	2.34174
0.720727	2.40967
0.744912	2.43165
0.793283	2.59075
0.841655	2.70379
0.870676	2.79464
0.894862	2.83965
0.919047	2.93071
0.945652	2.97562
0.967419	3.04376
0.996441	3.06553
