Adsorption isotherm of Carbon Dioxide on DS-RF-F127
DOI: 10.1246/cl.150297
Article source: Figure 3
Adsorbate Carbon Dioxide: InChIKey CURLTUGMZLYLDI-UHFFFAOYSA-N
Kind: experiment
Temperature: 293 K
Tabular data in the source: 0
pressure (bar)	uptake (mmol/g)
0	0
0.05831	0.277228
0.11419	0.577558
0.160351	0.808581
0.182217	0.993399
0.235667	1.20132
0.259964	1.31683
0.289118	1.40924
0.342569	1.61716
0.359576	1.68647
0.3863	1.80198
0.437321	2.0099
0.490772	2.24092
0.539364	2.42574
0.592814	2.58746
0.643835	2.81848
0.694856	2.9571
0.721581	3.07261
0.743447	3.16502
0.770173	3.28053
0.794468	3.37294
0.821192	3.46535
0.845489	3.53465
0.869784	3.65017
0.901369	3.74257
0.923235	3.83498
0.949959	3.9505
0.976685	4.0429
0.998551	4.13531
