Adsorption isotherm of Nitrogen on DS-RF
DOI: 10.1246/cl.150297
Article source: Figure 1a
Adsorbate Nitrogen: InChIKey IJGRMHOSHXDMSA-UHFFFAOYSA-N
Kind: experiment
Temperature: 77 K
Tabular data in the source: 0
pressure (bar)	uptake (cm3(STP)/g)
0.023702	494.353
0.050366	543.936
0.071105	574.951
0.09777	612.179
0.127397	643.248
0.154062	674.298
0.174801	705.313
0.198502	723.99
0.222204	736.49
0.260719	761.435
0.278496	773.899
0.302198	786.398
0.322936	798.88
0.352563	823.771
0.379228	823.934
0.408855	830.292
0.432557	836.614
0.456258	855.291
0.474035	855.4
0.503662	867.936
0.542178	868.17
0.571804	874.529
0.613283	880.959
0.645873	893.513
0.693277	893.802
0.731791	894.037
0.758456	894.199
0.794009	894.416
0.844375	894.723
0.897704	907.404
0.930294	913.78
0.956958	913.943
0.986585	920.301
1.00436	945.12
