Adsorption isotherm of Nitrogen on COU-2
DOI: 10.1246/cl.150297
Article source: Figure 1a
Adsorbate Nitrogen: InChIKey IJGRMHOSHXDMSA-UHFFFAOYSA-N
Kind: experiment
Temperature: 77 K
Tabular data in the source: 0
pressure (bar)	uptake (cm3(STP)/g)
0.026348	129.391
0.049969	135.688
0.082429	154.347
0.100165	148.301
0.132649	154.652
0.150384	148.606
0.179902	161.093
0.197603	173.508
0.221235	173.651
0.250787	167.677
0.280317	174.01
0.312811	174.208
0.351214	174.441
0.371881	180.72
0.40141	187.053
0.433882	199.558
0.466399	187.448
0.469285	224.389
0.481158	193.691
0.486941	261.419
0.504654	267.68
0.507756	187.699
0.528275	273.978
0.531377	193.996
0.551873	292.583
0.560895	206.483
0.593184	317.449
0.593389	206.681
0.614021	231.421
0.625849	225.339
0.628621	323.818
0.6493	323.943
0.655356	243.98
0.664196	256.342
0.669978	324.069
0.684839	274.929
0.690657	324.195
0.720208	318.22
0.743841	318.364
0.779312	306.272
0.820646	318.83
0.861991	325.235
0.915164	325.558
0.926992	319.476
0.953567	325.791
0.983108	325.971
1.01265	326.15
