Adsorption isotherm of Nitrogen on K-COU-2
DOI: 10.1246/cl.150297
Article source: Figure 1a
Adsorbate Nitrogen: InChIKey IJGRMHOSHXDMSA-UHFFFAOYSA-N
Kind: experiment
Temperature: 77 K
Tabular data in the source: 0
pressure (bar)	uptake (cm3(STP)/g)
0.032495	406.549
0.050219	449.841
0.073852	468.589
0.097485	481.184
0.121118	506.087
0.150658	512.599
0.171337	519.004
0.200878	525.517
0.218602	525.732
0.254051	544.624
0.277683	551.065
0.321995	557.757
0.35449	564.306
0.375168	570.711
0.398801	577.152
0.422434	589.747
0.449021	602.377
0.481516	602.772
0.484469	701.269
0.505148	609.213
0.511056	707.746
0.525826	707.926
0.534689	615.725
0.549459	714.366
0.555367	628.284
0.576046	634.689
0.599679	714.976
0.602632	647.32
0.629219	653.797
0.632174	721.525
0.649898	672.51
0.667622	721.956
0.679439	691.33
0.700117	722.35
0.72375	734.945
0.771015	729.365
0.806464	723.642
0.859638	730.442
0.900995	730.944
0.912812	731.088
0.936444	731.375
0.965985	725.58
0.986663	731.985
1.0103	738.426
