Adsorption isotherm of Carbon Dioxide on DS-RF-127
DOI: 10.1246/cl.150297
Article source: Figure 3
Adsorbate Carbon Dioxide: InChIKey CURLTUGMZLYLDI-UHFFFAOYSA-N
Kind: experiment
Temperature: 273 K
Tabular data in the source: 0
pressure (bar)	uptake (mmol/g)
0	0
0.053489	0.463205
0.077826	0.74096
0.106987	0.949512
0.136155	1.18117
0.155605	1.3433
0.182341	1.5518
0.209077	1.7603
0.23339	1.96875
0.262534	2.1311
0.289255	2.29339
0.31112	2.43248
0.337848	2.61788
0.362137	2.75702
0.388857	2.91931
0.41073	3.0815
0.439866	3.22075
0.461723	3.33673
0.490877	3.52218
0.512732	3.63817
0.537029	3.80041
0.566159	3.91655
0.590463	4.1019
0.614752	4.24104
0.639033	4.35708
0.665753	4.51937
0.690034	4.63541
0.719178	4.79776
0.743475	4.96
0.772595	5.05304
0.796892	5.21528
0.818757	5.35437
0.845461	5.47046
0.869758	5.6327
0.894038	5.74874
0.920759	5.91103
0.949897	6.05028
0.971752	6.16626
0.996041	6.3054
