Adsorption isotherm of Sodium Ion, Hydrogen Ion, Chloride, Adenosine monophosphate, Water on resin NH-1
DOI: 10.1002/jctb.5164
Article source: Table 4
Adsorbate Sodium Ion: InChIKey FKNQFGJONOIPTF-UHFFFAOYSA-N
Adsorbate Hydrogen Ion: InChIKey GPRLSGONYQIRFK-FTGQXOHASA-N
Adsorbate Chloride: InChIKey SCJSKMYJIYDUHN-UHFFFAOYSA-N
Adsorbate Adenosine monophosphate: InChIKey UDMBCSSLTHHNCD-KQYNXXCUSA-N
Adsorbate Water: InChIKey XLYOFNOQVPJJNP-UHFFFAOYSA-N
Kind: experiment
Temperature: 304 K
Tabular data in the source: 0
pressure (bar)	Sodium Ion fraction	Sodium Ion uptake (mmol/g)	Hydrogen Ion fraction	Hydrogen Ion uptake (mmol/g)	Chloride fraction	Chloride uptake (mmol/g)	Adenosine monophosphate fraction	Adenosine monophosphate uptake (mmol/g)	Water fraction	Water uptake (mmol/g)	total uptake (mmol/g)
1.01325	0.00487	0.617					0.0106	0.216			
1.01325	0.00387	0.492					0.00858	0.195			
1.01325	0.0033	0.41					0.00725	0.175			
1.01325	0.00269	0.352					0.00618	0.157			
1.01325	0.00224	0.291					0.0048	0.139			
1.01325	0.00182	0.247					0.00407	0.122			
