Adsorption isotherm of Sodium Ion, Hydrogen Ion, Guanosine 5'-Monophosphate, Chloride, Water on resin NH-1
DOI: 10.1002/jctb.5164
Article source: Table 6
Adsorbate Sodium Ion: InChIKey FKNQFGJONOIPTF-UHFFFAOYSA-N
Adsorbate Hydrogen Ion: InChIKey GPRLSGONYQIRFK-FTGQXOHASA-N
Adsorbate Guanosine 5'-Monophosphate: InChIKey RQFCJASXJCIDSX-UUOKFMHZSA-N
Adsorbate Chloride: InChIKey SCJSKMYJIYDUHN-UHFFFAOYSA-N
Adsorbate Water: InChIKey XLYOFNOQVPJJNP-UHFFFAOYSA-N
Kind: experiment
Temperature: 304 K
Tabular data in the source: 0
pressure (bar)	Sodium Ion fraction	Sodium Ion uptake (mmol/g)	Hydrogen Ion fraction	Hydrogen Ion uptake (mmol/g)	Guanosine 5'-Monophosphate fraction	Guanosine 5'-Monophosphate uptake (mmol/g)	Chloride fraction	Chloride uptake (mmol/g)	Water fraction	Water uptake (mmol/g)	total uptake (mmol/g)
1.01325	0.0522	2.049			0.0245	0.065					
1.01325	0.05	1.886			0.0245	0.071					
1.01325	0.0441	1.835			0.0238	0.077					
1.01325	0.0378	1.599			0.0235	0.091					
1.01325	0.0297	1.305			0.023	0.101					
1.01325	0.022	1.111			0.0226	0.104					
1.01325	0.0205	0.93			0.0221	0.101					
1.01325	0.0174	0.825			0.0209	0.1					
1.01325	0.0142	0.69			0.0189	0.093					
1.01325	0.0114	0.598			0.017	0.088					
