Adsorption isotherm of Adenosine monophosphate, Water on resin NH-1
DOI: 10.1002/jctb.5164
Article source: Figure 3
Adsorbate Adenosine monophosphate: InChIKey UDMBCSSLTHHNCD-KQYNXXCUSA-N
Adsorbate Water: InChIKey XLYOFNOQVPJJNP-UHFFFAOYSA-N
Kind: experiment
Temperature: 304 K
Tabular data in the source: 0
pressure (bar)	Adenosine monophosphate fraction	Adenosine monophosphate uptake (mmol/g)	Water fraction	Water uptake (mmol/g)	total uptake (mmol/g)
1.01325	0.002106	0.004797			
1.01325	0.004406	0.010775			
1.01325	0.00488	0.012775			
1.01325	0.00508	0.01203			
1.01325	0.005285	0.012434			
