Adsorption isotherm of Chloride, Adenosine monophosphate, Water on resin NH-1
DOI: 10.1002/jctb.5164
Article source: Figure 4
Adsorbate Chloride: InChIKey SCJSKMYJIYDUHN-UHFFFAOYSA-N
Adsorbate Adenosine monophosphate: InChIKey UDMBCSSLTHHNCD-KQYNXXCUSA-N
Adsorbate Water: InChIKey XLYOFNOQVPJJNP-UHFFFAOYSA-N
Kind: experiment
Temperature: 304 K
Tabular data in the source: 0
pressure (bar)	Chloride fraction	Chloride uptake (mmol/g)	Adenosine monophosphate fraction	Adenosine monophosphate uptake (mmol/g)	Water fraction	Water uptake (mmol/g)	total uptake (mmol/g)
1.01325			0.000623	0.02869			
1.01325			0.000774	0.035246			
1.01325			0.000902	0.040226			
1.01325			0.000998	0.04571			
1.01325			0.001227	0.054535			
1.01325			0.001435	0.066638			
1.01325			0.001714	0.075274			
1.01325			0.002012	0.083279			
1.01325			0.002128	0.090654			
1.01325			0.002371	0.098156			
1.01325			0.002585	0.105216			
1.01325			0.00281	0.11423			
1.01325			0.003201	0.123622			
1.01325			0.003531	0.137238			
1.01325			0.004062	0.152177			
