Adsorption isotherm of Chloride, Adenosine monophosphate, Water on resin NH-1
DOI: 10.1002/jctb.5164
Article source: Figure 4
Adsorbate Chloride: InChIKey SCJSKMYJIYDUHN-UHFFFAOYSA-N
Adsorbate Adenosine monophosphate: InChIKey UDMBCSSLTHHNCD-KQYNXXCUSA-N
Adsorbate Water: InChIKey XLYOFNOQVPJJNP-UHFFFAOYSA-N
Kind: experiment
Temperature: 304 K
Tabular data in the source: 0
pressure (bar)	Chloride fraction	Chloride uptake (mmol/g)	Adenosine monophosphate fraction	Adenosine monophosphate uptake (mmol/g)	Water fraction	Water uptake (mmol/g)	total uptake (mmol/g)
1.01325			0.001146	0.034087			
1.01325			0.001267	0.036946			
1.01325			0.001392	0.041394			
1.01325			0.001607	0.046159			
1.01325			0.001765	0.066014			
1.01325			0.002242	0.077768			
1.01325			0.002476	0.085551			
1.01325			0.002986	0.09667			
1.01325			0.003152	0.101435			
1.01325			0.003401	0.112077			
1.01325			0.003583	0.115889			
1.01325			0.003979	0.128914			
1.01325			0.004323	0.137968			
1.01325			0.005373	0.1664			
