Adsorption isotherm of Hydrogen Ion, Cytidine 5'-Monophosphate, Chloride, Water on resin NH-1
DOI: 10.1002/jctb.5164
Article source: Figure 4
Adsorbate Hydrogen Ion: InChIKey GPRLSGONYQIRFK-FTGQXOHASA-N
Adsorbate Cytidine 5'-Monophosphate: InChIKey IERHLVCPSMICTF-XVFCMESISA-N
Adsorbate Chloride: InChIKey SCJSKMYJIYDUHN-UHFFFAOYSA-N
Adsorbate Water: InChIKey XLYOFNOQVPJJNP-UHFFFAOYSA-N
Kind: experiment
Temperature: 304 K
Tabular data in the source: 0
pressure (bar)	Hydrogen Ion fraction	Hydrogen Ion uptake (mmol/g)	Cytidine 5'-Monophosphate fraction	Cytidine 5'-Monophosphate uptake (mmol/g)	Chloride fraction	Chloride uptake (mmol/g)	Water fraction	Water uptake (mmol/g)	total uptake (mmol/g)
1.01325			0.009189	0.108922					
1.01325			0.010334	0.12066					
1.01325			0.011652	0.136134					
1.01325			0.012808	0.146093					
1.01325			0.014138	0.160321					
1.01325			0.015849	0.178818					
1.01325			0.017664	0.197136					
1.01325			0.019063	0.209407					
1.01325			0.019687	0.222571					
1.01325			0.020439	0.22577					
1.01325			0.021029	0.231462					
1.01325			0.022648	0.246222					
1.01325			0.023654	0.250845					
