Adsorption isotherm of Hydrogen Ion, Cytidine 5'-Monophosphate, Chloride, Water on resin NH-1
DOI: 10.1002/jctb.5164
Article source: Figure 4
Adsorbate Hydrogen Ion: InChIKey GPRLSGONYQIRFK-FTGQXOHASA-N
Adsorbate Cytidine 5'-Monophosphate: InChIKey IERHLVCPSMICTF-XVFCMESISA-N
Adsorbate Chloride: InChIKey SCJSKMYJIYDUHN-UHFFFAOYSA-N
Adsorbate Water: InChIKey XLYOFNOQVPJJNP-UHFFFAOYSA-N
Kind: experiment
Temperature: 304 K
Tabular data in the source: 0
pressure (bar)	Hydrogen Ion fraction	Hydrogen Ion uptake (mmol/g)	Cytidine 5'-Monophosphate fraction	Cytidine 5'-Monophosphate uptake (mmol/g)	Chloride fraction	Chloride uptake (mmol/g)	Water fraction	Water uptake (mmol/g)	total uptake (mmol/g)
1.01325			0.009999	0.102514					
1.01325			0.01104	0.113007					
1.01325			0.012404	0.12599					
1.01325			0.013514	0.135415					
1.01325			0.014763	0.148932					
1.01325			0.016289	0.163516					
1.01325			0.017758	0.176142					
1.01325			0.019376	0.18948					
1.01325			0.020059	0.194993					
1.01325			0.020625	0.201217					
1.01325			0.021296	0.208154					
1.01325			0.022637	0.223805					
1.01325			0.023701	0.22985					
