Adsorption isotherm of Hydrogen Ion, Cytidine 5'-Monophosphate, Chloride, Water on resin NH-1
DOI: 10.1002/jctb.5164
Article source: Figure 4
Adsorbate Hydrogen Ion: InChIKey GPRLSGONYQIRFK-FTGQXOHASA-N
Adsorbate Cytidine 5'-Monophosphate: InChIKey IERHLVCPSMICTF-XVFCMESISA-N
Adsorbate Chloride: InChIKey SCJSKMYJIYDUHN-UHFFFAOYSA-N
Adsorbate Water: InChIKey XLYOFNOQVPJJNP-UHFFFAOYSA-N
Kind: experiment
Temperature: 304 K
Tabular data in the source: 0
pressure (bar)	Hydrogen Ion fraction	Hydrogen Ion uptake (mmol/g)	Cytidine 5'-Monophosphate fraction	Cytidine 5'-Monophosphate uptake (mmol/g)	Chloride fraction	Chloride uptake (mmol/g)	Water fraction	Water uptake (mmol/g)	total uptake (mmol/g)
1.01325			0.009143	0.110346					
1.01325			0.010195	0.122974					
1.01325			0.011235	0.140583					
1.01325			0.012669	0.149118					
1.01325			0.013918	0.163702					
1.01325			0.015606	0.182021					
1.01325			0.017548	0.20372					
1.01325			0.018832	0.216169					
1.01325			0.01956	0.2304					
1.01325			0.020161	0.231821					
1.01325			0.021768	0.25014					
1.01325			0.022566	0.259922					
1.01325			0.023549	0.264366					
