Adsorption isotherm of Sodium Ion, Hydrogen Ion, Chloride, Adenosine monophosphate, Water on resin NH-1
DOI: 10.1002/jctb.5164
Article source: Table 4
Adsorbate Sodium Ion: InChIKey FKNQFGJONOIPTF-UHFFFAOYSA-N
Adsorbate Hydrogen Ion: InChIKey GPRLSGONYQIRFK-FTGQXOHASA-N
Adsorbate Chloride: InChIKey SCJSKMYJIYDUHN-UHFFFAOYSA-N
Adsorbate Adenosine monophosphate: InChIKey UDMBCSSLTHHNCD-KQYNXXCUSA-N
Adsorbate Water: InChIKey XLYOFNOQVPJJNP-UHFFFAOYSA-N
Kind: experiment
Temperature: 304 K
Tabular data in the source: 0
pressure (bar)	Sodium Ion fraction	Sodium Ion uptake (mmol/g)	Hydrogen Ion fraction	Hydrogen Ion uptake (mmol/g)	Chloride fraction	Chloride uptake (mmol/g)	Adenosine monophosphate fraction	Adenosine monophosphate uptake (mmol/g)	Water fraction	Water uptake (mmol/g)	total uptake (mmol/g)
1.01325	0.0151	0.831					0.00982	0.173			
1.01325	0.0127	0.692					0.0081	0.157			
1.01325	0.0111	0.604					0.00694	0.145			
1.01325	0.00922	0.508					0.00567	0.128			
1.01325	0.00765	0.436					0.00477	0.113			
