Adsorption isotherm of Chloride, Adenosine monophosphate, Water on resin NH-1
DOI: 10.1002/jctb.5164
Article source: Figure 4
Adsorbate Chloride: InChIKey SCJSKMYJIYDUHN-UHFFFAOYSA-N
Adsorbate Adenosine monophosphate: InChIKey UDMBCSSLTHHNCD-KQYNXXCUSA-N
Adsorbate Water: InChIKey XLYOFNOQVPJJNP-UHFFFAOYSA-N
Kind: experiment
Temperature: 304 K
Tabular data in the source: 0
pressure (bar)	Chloride fraction	Chloride uptake (mmol/g)	Adenosine monophosphate fraction	Adenosine monophosphate uptake (mmol/g)	Water fraction	Water uptake (mmol/g)	total uptake (mmol/g)
1.01325			0.000362	0.016777			
1.01325			0.00042	0.019235			
1.01325			0.000497	0.022702			
1.01325			0.000584	0.025791			
1.01325			0.000689	0.029951			
1.01325			0.000842	0.03594			
1.01325			0.001037	0.043819			
1.01325			0.001219	0.052644			
1.01325			0.001408	0.058002			
1.01325			0.001683	0.073067			
1.01325			0.001915	0.077669			
1.01325			0.002168	0.089205			
