Adsorption isotherm of Hydrogen Ion, Guanosine 5'-Monophosphate, Chloride, Water on resin NH-1
DOI: 10.1002/jctb.5164
Article source: Figure 4
Adsorbate Hydrogen Ion: InChIKey GPRLSGONYQIRFK-FTGQXOHASA-N
Adsorbate Guanosine 5'-Monophosphate: InChIKey RQFCJASXJCIDSX-UUOKFMHZSA-N
Adsorbate Chloride: InChIKey SCJSKMYJIYDUHN-UHFFFAOYSA-N
Adsorbate Water: InChIKey XLYOFNOQVPJJNP-UHFFFAOYSA-N
Kind: experiment
Temperature: 304 K
Tabular data in the source: 0
pressure (bar)	Hydrogen Ion fraction	Hydrogen Ion uptake (mmol/g)	Guanosine 5'-Monophosphate fraction	Guanosine 5'-Monophosphate uptake (mmol/g)	Chloride fraction	Chloride uptake (mmol/g)	Water fraction	Water uptake (mmol/g)	total uptake (mmol/g)
1.01325			0.00995	0.077563					
1.01325			0.01084	0.084084					
1.01325			0.012079	0.093069					
1.01325			0.013064	0.098575					
1.01325			0.014006	0.106837					
1.01325			0.015669	0.10697					
1.01325			0.016304	0.126694					
1.01325			0.0175	0.135679					
1.01325			0.017924	0.137562					
1.01325			0.018316	0.143362					
1.01325			0.018951	0.138715					
1.01325			0.020487	0.15205					
