Adsorption isotherm of Uridine 5'-monophosphate, Sodium Ion, Hydrogen Ion, Cytidine 5'-Monophosphate, Guanosine 5'-Monophosphate, Chloride, Adenosine monophosphate, Water on resin NH-1
DOI: 10.1002/jctb.5164
Article source: Table 7
Adsorbate Uridine 5'-monophosphate: InChIKey DJJCXFVJDGTHFX-XVFCMESISA-N
Adsorbate Sodium Ion: InChIKey FKNQFGJONOIPTF-UHFFFAOYSA-N
Adsorbate Hydrogen Ion: InChIKey GPRLSGONYQIRFK-FTGQXOHASA-N
Adsorbate Cytidine 5'-Monophosphate: InChIKey IERHLVCPSMICTF-XVFCMESISA-N
Adsorbate Guanosine 5'-Monophosphate: InChIKey RQFCJASXJCIDSX-UUOKFMHZSA-N
Adsorbate Chloride: InChIKey SCJSKMYJIYDUHN-UHFFFAOYSA-N
Adsorbate Adenosine monophosphate: InChIKey UDMBCSSLTHHNCD-KQYNXXCUSA-N
Adsorbate Water: InChIKey XLYOFNOQVPJJNP-UHFFFAOYSA-N
Kind: experiment
Temperature: 304 K
Tabular data in the source: 0
pressure (bar)	Uridine 5'-monophosphate fraction	Uridine 5'-monophosphate uptake (mmol/g)	Sodium Ion fraction	Sodium Ion uptake (mmol/g)	Hydrogen Ion fraction	Hydrogen Ion uptake (mmol/g)	Cytidine 5'-Monophosphate fraction	Cytidine 5'-Monophosphate uptake (mmol/g)	Guanosine 5'-Monophosphate fraction	Guanosine 5'-Monophosphate uptake (mmol/g)	Chloride fraction	Chloride uptake (mmol/g)	Adenosine monophosphate fraction	Adenosine monophosphate uptake (mmol/g)	Water fraction	Water uptake (mmol/g)	total uptake (mmol/g)
1.01325			0.0821	2.2			0.0203	0.0091	0.028	0.0253			0.0209	0.0674			
1.01325			0.0761	2.08			0.0202	0.0113	0.0274	0.0417			0.0202	0.0808			
1.01325			0.069	2.11			0.0199	0.0201	0.0272	0.0448			0.0198	0.0844			
1.01325			0.0549	1.84			0.0187	0.0415	0.0258	0.0656			0.0173	0.1188			
1.01325			0.045	1.59			0.0174	0.0559	0.0242	0.0773			0.0148	0.1353			
1.01325			0.0361	1.36			0.0158	0.0651	0.0223	0.087			0.0123	0.1405			
1.01325			0.0302	1.18			0.0144	0.0695	0.0199	0.0987			0.0105	0.1355			
1.01325			0.026	1.05			0.0132	0.0704	0.0185	0.0975			0.0092	0.1274			
1.01325			0.0182	0.77			0.0103	0.0673	0.0144	0.0933			0.0065	0.1049			
