Adsorption isotherm of Hydrogen Ion, Guanosine 5'-Monophosphate, Chloride, Water on resin NH-1
DOI: 10.1002/jctb.5164
Article source: Figure 4
Adsorbate Hydrogen Ion: InChIKey GPRLSGONYQIRFK-FTGQXOHASA-N
Adsorbate Guanosine 5'-Monophosphate: InChIKey RQFCJASXJCIDSX-UUOKFMHZSA-N
Adsorbate Chloride: InChIKey SCJSKMYJIYDUHN-UHFFFAOYSA-N
Adsorbate Water: InChIKey XLYOFNOQVPJJNP-UHFFFAOYSA-N
Kind: experiment
Temperature: 304 K
Tabular data in the source: 0
pressure (bar)	Hydrogen Ion fraction	Hydrogen Ion uptake (mmol/g)	Guanosine 5'-Monophosphate fraction	Guanosine 5'-Monophosphate uptake (mmol/g)	Chloride fraction	Chloride uptake (mmol/g)	Water fraction	Water uptake (mmol/g)	total uptake (mmol/g)
1.01325			0.009029	0.081921					
1.01325			0.010003	0.089893					
1.01325			0.011062	0.099169					
1.01325			0.013127	0.116562					
1.01325			0.014366	0.124967					
1.01325			0.015742	0.139609					
1.01325			0.016653	0.148451					
1.01325			0.017108	0.155266					
1.01325			0.017638	0.155262					
1.01325			0.018316	0.157143					
1.01325			0.018835	0.163812					
1.01325			0.019353	0.166855					
1.01325			0.020052	0.169606					
