Adsorption isotherm of Hydrogen Ion, Guanosine 5'-Monophosphate, Chloride, Water on resin NH-1
DOI: 10.1002/jctb.5164
Article source: Figure 4
Adsorbate Hydrogen Ion: InChIKey GPRLSGONYQIRFK-FTGQXOHASA-N
Adsorbate Guanosine 5'-Monophosphate: InChIKey RQFCJASXJCIDSX-UUOKFMHZSA-N
Adsorbate Chloride: InChIKey SCJSKMYJIYDUHN-UHFFFAOYSA-N
Adsorbate Water: InChIKey XLYOFNOQVPJJNP-UHFFFAOYSA-N
Kind: experiment
Temperature: 304 K
Tabular data in the source: 0
pressure (bar)	Hydrogen Ion fraction	Hydrogen Ion uptake (mmol/g)	Guanosine 5'-Monophosphate fraction	Guanosine 5'-Monophosphate uptake (mmol/g)	Chloride fraction	Chloride uptake (mmol/g)	Water fraction	Water uptake (mmol/g)	total uptake (mmol/g)
1.01325			0.006297	0.061632					
1.01325			0.006879	0.068446					
1.01325			0.007801	0.076128					
1.01325			0.0085	0.08178					
1.01325			0.009294	0.088012					
1.01325			0.010141	0.098161					
1.01325			0.011115	0.108453					
1.01325			0.011952	0.11483					
1.01325			0.01229	0.115988					
1.01325			0.012767	0.122077					
1.01325			0.013063	0.126717					
1.01325			0.013487	0.132227					
1.01325			0.013932	0.13672					
1.01325			0.014504	0.138892					
