Adsorption isotherm of Carbon Dioxide on AlPO-18(AEI)
DOI: 10.1039/c7cp03841k
Article source: Figure 1
Adsorbate Carbon Dioxide: InChIKey CURLTUGMZLYLDI-UHFFFAOYSA-N
Kind: experiment
Temperature: 293 K
Tabular data in the source: 0
pressure (bar)	uptake (mmol/g)
0.04058	0.0658
0.10144	0.1706
0.16609	0.2755
0.22283	0.3701
0.28404	0.4708
0.34388	0.5551
0.40561	0.6476
0.46785	0.7247
0.52648	0.8131
0.59044	0.8984
0.64735	0.9735
0.7077	1.0485
0.76805	1.1153
0.83012	1.1739
0.88876	1.2449
0.95031	1.3014
1.01032	1.359
