Adsorption isotherm of Carbon Dioxide on AlPO-18(AEI)
DOI: 10.1039/c7cp03841k
Article source: Figure 1
Adsorbate Carbon Dioxide: InChIKey CURLTUGMZLYLDI-UHFFFAOYSA-N
Kind: experiment
Temperature: 273 K
Tabular data in the source: 0
pressure (bar)	uptake (mmol/g)
0.16695	0.5263
0.22472	0.7052
0.28748	0.8779
0.34955	1.0424
0.41042	1.2212
0.46974	1.3363
0.53043	1.4628
0.5913	1.5759
0.64993	1.6776
0.71286	1.7558
0.77338	1.8411
0.83477	1.9192
0.89546	1.9901
0.95272	2.0631
1.01633	2.1145
