Adsorption isotherm of Carbon Dioxide on AlPO-18(AEI)
DOI: 10.1039/c7cp03841k
Article source: Figure 1
Adsorbate Carbon Dioxide: InChIKey CURLTUGMZLYLDI-UHFFFAOYSA-N
Kind: experiment
Temperature: 273 K
Tabular data in the source: 0
pressure (bar)	uptake (mmol/g)
0.02957	0.1812
0.05686	0.3236
0.07593	0.435
0.09586	0.5373
0.11015	0.6176
0.21002	1.159
0.30967	1.6602
0.4104	2.0941
0.51439	2.4632
0.61447	2.787
0.71737	3.059
0.80705	3.261
0.90822	3.4747
