Adsorption isotherm of Nitrogen on AlPO-17(ERI)
DOI: 10.1039/c7cp03841k
Article source: Figure 1
Adsorbate Nitrogen: InChIKey IJGRMHOSHXDMSA-UHFFFAOYSA-N
Kind: experiment
Temperature: 273 K
Tabular data in the source: 0
pressure (bar)	uptake (mmol/g)
0.04936	0.018688
0.09063	0.030839
0.1295	0.043853
0.16767	0.05551
0.2086	0.067352
0.24626	0.078639
0.28444	0.09116
0.32279	0.101398
0.36045	0.11324
0.40035	0.123972
0.4399	0.135382
0.47842	0.145744
0.51642	0.157031
0.5546	0.167887
0.59261	0.179729
0.63302	0.189104
0.67119	0.199959
0.71126	0.210136
0.74892	0.220621
0.78693	0.230119
0.82734	0.240666
0.86483	0.249548
0.90283	0.259416
0.94324	0.269593
0.97936	0.278906
