Adsorption isotherm of Carbon Dioxide on AlPO-53(AEN)
DOI: 10.1039/c7cp03841k
Article source: Figure 1
Adsorbate Carbon Dioxide: InChIKey CURLTUGMZLYLDI-UHFFFAOYSA-N
Kind: experiment
Temperature: 273 K
Tabular data in the source: 0
pressure (bar)	uptake (mmol/g)
0.04944	0.37611
0.08923	0.5847
0.12815	0.75269
0.16879	0.90065
0.2456	1.10612
0.28314	1.18522
0.32206	1.25661
0.36011	1.32132
0.40092	1.37369
0.43966	1.42606
0.47875	1.46302
0.51784	1.50872
0.55606	1.54002
0.59412	1.57493
0.63355	1.60675
0.67246	1.63137
0.71086	1.65138
0.74977	1.67857
0.78696	1.69755
0.82932	1.7232
0.86651	1.7468
0.90663	1.75909
0.94348	1.77087
0.98101	1.79139
