Adsorption isotherm of Carbon Dioxide on AlPO-53(AEN)
DOI: 10.1039/c7cp03841k
Article source: Figure 1
Adsorbate Carbon Dioxide: InChIKey CURLTUGMZLYLDI-UHFFFAOYSA-N
Kind: experiment
Temperature: 293 K
Tabular data in the source: 0
pressure (bar)	uptake (mmol/g)
0.03926	0.12226
0.1004	0.29486
0.16084	0.43098
0.22025	0.56401
0.28155	0.67803
0.34578	0.772
0.40347	0.86033
0.46425	0.93272
0.52676	1.00819
0.58685	1.06363
0.64471	1.12729
0.70738	1.17759
0.76885	1.23302
0.82653	1.26791
0.88663	1.30022
0.94603	1.32791
1.01146	1.36946
