Adsorption isotherm of Carbon Dioxide on AlPO-17(ERI)
DOI: 10.1039/c7cp03841k
Article source: Figure 1
Adsorbate Carbon Dioxide: InChIKey CURLTUGMZLYLDI-UHFFFAOYSA-N
Kind: experiment
Temperature: 293 K
Tabular data in the source: 0
pressure (bar)	uptake (mmol/g)
0.04061	0.10012
0.10221	0.22291
0.16123	0.35002
0.2194	0.46544
0.2841	0.57897
0.34416	0.6833
0.40387	0.76977
0.46221	0.8778
0.52536	0.95995
0.58267	1.03843
0.64514	1.11565
0.70486	1.18858
0.76818	1.26827
0.82515	1.33136
0.8859	1.39136
0.94923	1.45503
1.00637	1.51197
