Adsorption isotherm of Nitrogen on AlPO-53(AEN)
DOI: 10.1039/c7cp03841k
Article source: Figure 1
Adsorbate Nitrogen: InChIKey IJGRMHOSHXDMSA-UHFFFAOYSA-N
Kind: experiment
Temperature: 273 K
Tabular data in the source: 0
pressure (bar)	uptake (mmol/g)
0.05158	0.003392
0.09096	0.007956
0.12982	0.010732
0.16765	0.013754
0.2084	0.016961
0.24606	0.01838
0.28371	0.020662
0.32171	0.023252
0.36109	0.025164
0.40046	0.027138
0.43967	0.02942
0.47853	0.030715
0.51635	0.032504
0.55556	0.035465
0.59235	0.038117
0.63293	0.040584
0.66956	0.043421
0.711	0.044161
0.74814	0.047122
0.78648	0.048417
0.8274	0.049404
0.8642	0.051809
0.90271	0.054831
0.94243	0.056743
0.98043	0.058594
