Adsorption isotherm of Carbon Dioxide on AlPO-17(ERI)
DOI: 10.1039/c7cp03841k
Article source: Figure 1
Adsorbate Carbon Dioxide: InChIKey CURLTUGMZLYLDI-UHFFFAOYSA-N
Kind: experiment
Temperature: 273 K
Tabular data in the source: 0
pressure (bar)	uptake (mmol/g)
0.10114	0.43913
0.15893	0.66605
0.22224	0.87509
0.2821	1.06384
0.34266	1.23041
0.40218	1.38653
0.46171	1.52664
0.52485	1.64518
0.58352	1.76375
0.64683	1.8669
0.70465	1.95777
0.76762	2.03876
0.82698	2.12531
0.88737	2.19893
0.94829	2.26515
1.00903	2.31845
