Adsorption isotherm of Carbon Dioxide on AlPO-53(AEN)
DOI: 10.1039/c7cp03841k
Article source: Figure 1
Adsorbate Carbon Dioxide: InChIKey CURLTUGMZLYLDI-UHFFFAOYSA-N
Kind: experiment
Temperature: 273 K
Tabular data in the source: 0
pressure (bar)	uptake (mmol/g)
0.04443	0.30698
0.10456	0.66536
0.16466	0.92069
0.22632	1.09483
0.28555	1.2366
0.34875	1.3573
0.40695	1.45333
0.46877	1.53343
0.5268	1.60789
0.59016	1.66281
0.6537	1.70591
0.71414	1.75415
0.77113	1.80188
0.83174	1.83265
0.89303	1.8665
0.9533	1.88956
1.01528	1.91931
