Adsorption isotherm of Carbon Dioxide on AlPO-18(AEI)
DOI: 10.1039/c7cp03841k
Article source: Figure 1
Adsorbate Carbon Dioxide: InChIKey CURLTUGMZLYLDI-UHFFFAOYSA-N
Kind: experiment
Temperature: 293 K
Tabular data in the source: 0
pressure (bar)	uptake (mmol/g)
0.05829	0.1634
0.08167	0.2447
0.10265	0.3032
0.11245	0.3392
0.20375	0.6075
0.30416	0.8645
0.40561	1.14
0.50413	1.3744
0.60643	1.6118
0.70891	1.8318
0.81138	2.0282
0.91145	2.2101
