Adsorption isotherm of Carbon Dioxide on AlPO-17(ERI)
DOI: 10.1039/c7cp03841k
Article source: Figure 1
Adsorbate Carbon Dioxide: InChIKey CURLTUGMZLYLDI-UHFFFAOYSA-N
Kind: experiment
Temperature: 273 K
Tabular data in the source: 0
pressure (bar)	uptake (mmol/g)
0.01341	0.08367
0.02236	0.12488
0.03096	0.16609
0.03835	0.21038
0.04919	0.26205
0.06432	0.3414
0.08101	0.41459
0.09889	0.49578
0.12693	0.64156
0.1916	0.91524
0.25679	1.16922
0.38701	1.59345
0.45118	1.77909
0.51707	1.94749
0.5809	2.0962
0.64817	2.23259
0.71011	2.34991
0.77446	2.46044
0.83915	2.55867
0.90264	2.65689
0.98006	2.76368
