Adsorption isotherm of Nitrogen on Fe2(dobdc)
DOI: 10.1021/Ja205976v
Adsorbate Nitrogen: InChIKey IJGRMHOSHXDMSA-UHFFFAOYSA-N
Temperature: 298 K
Tabular data in the source: 0
pressure (bar)	uptake (wt%)
0.021489	0.0811453
0.0542621	0.16854
0.104514	0.387028
0.18317	0.387028
0.26401	0.605515
0.327371	0.649212
0.406027	0.824002
0.475943	0.780305
0.552413	1.04249
0.631069	1.12988
0.738128	1.43577
0.840817	1.56686
0.915102	1.56686
0.993758	1.65425
1.07023	1.69795
