Adsorption isotherm of Oxygen on Fe2(dobdc)
DOI: 10.1021/Ja205976v
Adsorbate Oxygen: InChIKey MYMOFIZGZYHOMD-UHFFFAOYSA-N
Temperature: 298 K
Tabular data in the source: 0
pressure (bar)	uptake (wt%)
0.00400996	0.561818
0.00400996	3.35846
0.00400996	7.64081
0.0127495	9.08283
0.0586318	9.17022
0.143842	9.25762
0.257455	9.43241
0.371069	9.4761
0.506531	9.73829
0.659472	9.95678
0.803674	10.0879
0.926027	10.219
0.989388	10.3938
1.06804	10.4811
