Adsorption isotherm of Oxygen on Fe2(dobdc)
DOI: 10.1021/Ja205976v
Adsorbate Oxygen: InChIKey MYMOFIZGZYHOMD-UHFFFAOYSA-N
Temperature: 226 K
Tabular data in the source: 0
pressure (bar)	uptake (wt%)
0.00400996	0.16854
0.0127495	2.00383
0.021489	4.2761
0.0324133	6.59207
0.0630016	9.5198
0.100144	11.6173
0.132918	12.8408
0.202833	14.3702
0.270565	15.0694
0.401657	15.7248
0.543674	16.2055
0.687876	16.5988
0.952245	17.0358
1.08552	17.2543
