Adsorption isotherm of Oxygen on Fe2(dobdc)
DOI: 10.1021/Ja205976v
Adsorbate Oxygen: InChIKey MYMOFIZGZYHOMD-UHFFFAOYSA-N
Temperature: 211 K
Tabular data in the source: 0
pressure (bar)	uptake (wt%)
0.00619484	3.44585
0.0105646	7.7719
0.0193041	10.6996
0.0258587	13.103
0.0695562	16.1181
0.154766	17.7349
0.279304	18.6963
0.419136	19.1769
0.670397	19.8761
0.803674	20.2694
0.932581	20.4879
1.07023	20.9685
