Adsorption isotherm of Nitrogen on NMC-7-8
DOI: 10.1016/j.nanoen.2015.03.006
Article source: Figure  6
Adsorbate Nitrogen: InChIKey IJGRMHOSHXDMSA-UHFFFAOYSA-N
Kind: experiment
Temperature: 77 K
Tabular data in the source: 0
pressure (bar)	uptake (cm3(STP)/g)
0.009747	281.21
0.010528	185.61
0.010619	222.32
0.01067	161.25
0.011267	312.33
0.011409	208.49
0.011693	159.75
0.012544	94.14
0.012564	98.33
0.012757	255.73
0.012868	60.78
0.01302	356.58
0.013243	189.16
0.013324	234.36
0.014104	379.83
0.014206	419.19
0.014368	29.43
0.014429	29.67
0.01603	488.93
0.016171	526.57
0.016313	439.07
0.018765	515.18
0.02293	539.57
0.026456	556.45
0.036396	593.6
0.047562	628.13
0.056631	649.9
0.068617	684.43
0.077899	705.08
0.086765	724.61
0.095651	750.88
0.11009	786.55
0.128429	820.35
0.139991	852.63
0.162677	902.57
0.189853	946.15
0.212286	978.46
0.234517	1013.78
0.255927	1044.59
0.2921	1080.7
0.321676	1101.42
0.353746	1133.77
0.376331	1144.34
0.44962	1180.58
0.472387	1185.53
0.542362	1209.75
0.581727	1209.89
0.659332	1249.13
0.672626	1235.31
0.750656	1282.05
0.773424	1284.75
0.787133	1273.18
0.842781	1308.23
0.858121	1292.54
0.876593	1314.46
0.879916	1316.98
0.93676	1336.66
0.961564	1334.49
0.987047	1357.07
1.00309	1375.87
