Adsorption isotherm of Nitrogen on NMC-10
DOI: 10.1016/j.nanoen.2015.03.006
Article source: Figure  3
Adsorbate Nitrogen: InChIKey IJGRMHOSHXDMSA-UHFFFAOYSA-N
Kind: experiment
Temperature: 77 K
Tabular data in the source: 0
pressure (bar)	uptake (cm3(STP)/g)
0.004874	125.12
0.004995	44.53
0.005056	106.06
0.005168	24.1
0.005715	116.62
0.006009	65.89
0.007012	85.63
0.008785	137.05
0.014743	144.17
0.023649	150.81
0.034613	156.31
0.050602	162.5
0.078699	165.92
0.105641	175.99
0.130496	180.33
0.156537	187.43
0.184645	192.68
0.205659	198.4
0.229613	201.6
0.259189	207.31
0.285807	211.65
0.312132	214.84
0.357991	225.36
0.407114	236.56
0.454463	248.23
0.510384	261.72
0.562506	280.5
0.606613	292.86
0.609034	303.19
0.638986	321.99
0.662017	319.21
0.662483	347.91
0.674723	368.56
0.68668	392.19
0.692121	412.16
0.696427	440.86
0.706529	500.08
0.7104	354.98
0.711585	583.79
0.714432	586.86
0.740899	615.3
0.762501	421.97
0.763474	436.06
0.772988	445.61
0.795016	523.88
0.8045	577.82
0.815038	660.23
0.826346	623.49
0.860877	667.31
0.914073	667.72
0.970856	675.7
0.989499	681.43
1.0061	689.9
