Adsorption isotherm of Nitrogen on NMC-7-6
DOI: 10.1016/j.nanoen.2015.03.006
Article source: Figure  6
Adsorbate Nitrogen: InChIKey IJGRMHOSHXDMSA-UHFFFAOYSA-N
Kind: experiment
Temperature: 77 K
Tabular data in the source: 0
pressure (bar)	uptake (cm3(STP)/g)
0.009646	239.22
0.010811	136.13
0.011034	65.65
0.011105	92.64
0.011115	18.03
0.011166	97.76
0.011176	40.9
0.011693	161.25
0.01224	212.24
0.013203	189
0.017104	269.99
0.034572	286.17
0.047917	293.34
0.06044	299.38
0.092033	305.86
0.111731	310.79
0.134296	315.74
0.153984	319.56
0.166284	318.85
0.177967	316.64
0.187624	326.04
0.213056	328.38
0.226978	320.18
0.237252	329.96
0.250982	327.75
0.260841	331.54
0.287297	337.62
0.301016	328.67
0.314979	335.47
0.326844	327.63
0.362551	340.12
0.37546	335.67
0.412788	342.54
0.424055	337.33
0.460167	348.7
0.473471	337.49
0.514103	353.37
0.523293	340.66
0.563114	354.66
0.571088	347.19
0.614577	357.08
0.625834	348.12
0.664408	360.25
0.675655	350.54
0.715061	365.29
0.761832	373.69
0.772036	354.61
0.811471	382.11
0.823286	354.4
0.865397	385.29
0.912756	384.32
0.956427	383.71
0.986581	387.19
1.00488	407.87
