Adsorption isotherm of Nitrogen on NMC-7
DOI: 10.1016/j.nanoen.2015.03.006
Article source: Figure  6
Adsorbate Nitrogen: InChIKey IJGRMHOSHXDMSA-UHFFFAOYSA-N
Kind: experiment
Temperature: 77 K
Tabular data in the source: 0
pressure (bar)	uptake (cm3(STP)/g)
0.008988	65.26
0.010953	32.65
0.015422	97.9
0.028381	112.19
0.05586	114.16
0.076369	118.35
0.1055	122.95
0.121904	124.5
0.135228	124.92
0.149191	129.46
0.173995	129.17
0.188353	132.22
0.214404	135.31
0.226705	136.47
0.252745	137.68
0.269362	141.11
0.294177	142.32
0.30894	143.12
0.333754	144.33
0.34872	145.5
0.374973	149.34
0.389129	150.88
0.414966	152.09
0.429324	154.39
0.454949	155.98
0.468699	157.9
0.484293	163.57
0.500718	174.5
0.510111	157.28
0.535604	184.36
0.547641	163.03
0.556538	193.06
0.578069	196.13
0.58805	170.67
0.60106	206.33
0.624466	218.4
0.625591	176.04
0.64693	182.86
0.668411	244.79
0.68366	260.96
0.684653	262.46
0.704381	199.55
0.707309	302.66
0.723673	205.61
0.727493	337.21
0.740473	358.63
0.745012	212.8
0.762268	225.23
0.776788	368.12
0.780142	241.79
0.798644	257.97
0.814288	369.44
0.814724	370.5
0.83815	313.59
0.851941	334.25
0.855528	375.13
0.872905	353.82
0.895926	376.02
0.935098	381.39
0.969741	378.89
0.997849	386.48
