Adsorption isotherm of Nitrogen on NMC-7-7
DOI: 10.1016/j.nanoen.2015.03.006
Article source: Figure  6
Adsorbate Nitrogen: InChIKey IJGRMHOSHXDMSA-UHFFFAOYSA-N
Kind: experiment
Temperature: 77 K
Tabular data in the source: 0
pressure (bar)	uptake (cm3(STP)/g)
0.00993	36.02
0.010477	245.97
0.011338	261.72
0.011865	69.02
0.012666	141.01
0.012726	146.33
0.012878	301.47
0.012959	94.14
0.013081	222.36
0.013243	364.08
0.013375	332.59
0.014034	115.89
0.014479	442.06
0.014581	402.32
0.015026	182.25
0.016627	479.94
0.020204	515.56
0.02827	541.83
0.034521	580.47
0.048717	600.01
0.055962	627.03
0.078426	670.97
0.116463	713.83
0.14299	744.67
0.169689	760.87
0.194321	772.2
0.216076	778.65
0.238225	784.35
0.260993	784.42
0.28294	788.62
0.304471	792.82
0.331758	798.16
0.352479	801.6
0.374619	801.3
0.400669	807.38
0.441899	813.14
0.450917	811.3
0.484962	817.04
0.504234	817.1
0.541359	820.22
0.548948	822.5
0.586682	824.87
0.599388	824.17
0.641215	825.8
0.661946	833.75
0.688595	831.21
0.714878	847.79
0.741304	837.01
0.761447	857.7
0.784367	839.78
0.811076	862.74
0.829902	848.55
0.852944	876.75
0.874425	861.45
0.901742	878.78
0.927762	873.25
0.956701	882.72
0.985001	886.93
1.00681	912.13
