Adsorption isotherm of Carbon Dioxide on Polysulfone
DOI: 10.1016/j.jcis.2012.10.050
Adsorbate Carbon Dioxide: InChIKey CURLTUGMZLYLDI-UHFFFAOYSA-N
Temperature: 278 K
Tabular data in the source: 0
pressure (bar)	uptake (mg/g)
0.23308	7.14286
0.40789	10.7143
0.611835	14.7321
0.99059	16.0714
1.28194	20.0893
1.54415	21.4286
1.80637	20.0893
1.95205	20.5357
2.21426	23.2143
2.44734	22.3214
2.65128	24.1071
2.9135	25.4464
3.0883	26.3393
3.32139	27.2321
3.671	29.0179
3.9915	29.0179
4.22457	31.25
4.42852	33.4821
4.6616	39.2857
4.86555	42.8571
5.06948	44.6429
5.2443	46.4286
5.44825	50.4464
5.68132	53.125
5.88527	53.125
6.06008	53.5714
6.4097	54.0179
6.70105	54.9107
6.90499	56.25
7.10893	57.1429
7.34202	57.5893
7.54596	57.5893
7.63337	58.0357
7.77904	58.0357
