Adsorption isotherm of Carbon Dioxide on Ni(Bpy)(DBM)2
DOI: 10.1016/j.jcis.2012.10.050
Adsorbate Carbon Dioxide: InChIKey CURLTUGMZLYLDI-UHFFFAOYSA-N
Temperature: 293 K
Tabular data in the source: 0
pressure (bar)	uptake (mg/g)
0.310683	3.06773
0.543733	5.25896
0.737967	7.01195
0.893542	7.88845
1.04912	8.76494
1.32192	8.76494
1.63353	9.20319
1.8672	9.64143
2.10087	10.0797
2.37445	7.88845
2.60781	9.20319
2.88045	9.64143
3.27	10.0797
3.77679	9.64143
4.28263	11.8327
4.67142	14.4622
5.06112	14.4622
5.33377	14.9004
5.56791	14.0239
6.15186	15.7769
6.61905	17.0916
6.96885	19.7211
7.16308	21.4741
7.38961	42.0717
7.50001	60.4781
7.65108	74.0637
7.80494	79.761
7.99809	84.5817
8.50378	87.2112
9.08696	91.1554
9.55398	92.9084
9.82663	93.3466
10.0993	93.7849
