Adsorption isotherm of Carbon Dioxide on Ni(Bpy)(DBM)2
DOI: 10.1016/j.jcis.2012.10.050
Adsorbate Carbon Dioxide: InChIKey CURLTUGMZLYLDI-UHFFFAOYSA-N
Temperature: 285 K
Tabular data in the source: 0
pressure (bar)	uptake (mg/g)
0.349808	2.62948
0.582394	6.13546
0.893076	9.20319
1.67142	12.2709
2.29448	13.5857
2.91756	14.9004
3.30695	15.7769
3.5796	16.2151
3.93035	16.2151
4.20268	17.5299
4.43619	18.4064
4.82528	20.1594
5.1355	24.5418
5.31762	60.4781
5.42941	74.9402
5.65904	86.7729
5.89194	89.4024
6.16443	90.2789
6.39671	94.6614
6.70894	93.3466
6.98065	96.4143
7.2536	95.9761
