Adsorption isotherm of Carbon Dioxide on Ni(Bpy)(DBM)2+polystyrene
DOI: 10.1016/j.jcis.2012.10.050
Adsorbate Carbon Dioxide: InChIKey CURLTUGMZLYLDI-UHFFFAOYSA-N
Temperature: 293 K
Tabular data in the source: 0
pressure (bar)	uptake (mg/g)
2.33377	12.7092
3.96822	19.2829
4.27922	21.4741
4.74687	21.4741
5.09792	20.5976
5.44851	21.0359
5.72084	22.3506
6.07204	21.0359
6.30587	21.0359
6.57758	24.1036
6.85085	22.7888
7.12148	28.9243
7.62546	36.3745
8.05243	41.1952
8.36327	43.8247
8.71261	47.7689
8.94629	48.2072
9.17965	49.5219
9.49095	50.8367
9.76375	50.8367
