Adsorption isotherm of Carbon Dioxide on Polystyrene
DOI: 10.1016/j.jcis.2012.10.050
Adsorbate Carbon Dioxide: InChIKey CURLTUGMZLYLDI-UHFFFAOYSA-N
Temperature: 278 K
Tabular data in the source: 0
pressure (bar)	uptake (mg/g)
0.23308	3.125
0.495295	8.03571
0.69924	11.6071
1.10713	14.2857
1.45675	15.1786
1.7481	15.1786
1.98118	17.4107
2.21426	17.8571
2.47647	18.3036
2.73869	18.75
2.94263	18.3036
3.20485	20.9821
3.43793	21.875
3.671	22.7679
3.87495	25.8929
4.1663	31.25
4.42852	41.0714
4.69073	45.0893
4.92381	45.9821
5.21516	48.2143
5.4191	49.1071
5.71045	48.2143
5.94353	50
6.14748	51.7857
6.64278	54.0179
7.02153	54.9107
7.37115	55.3571
7.86645	55.8036
8.1578	57.1429
