Adsorption isotherm of Carbon Dioxide on Ni(Bpy)(DBM)2
DOI: 10.1016/j.jcis.2012.10.050
Adsorbate Carbon Dioxide: InChIKey CURLTUGMZLYLDI-UHFFFAOYSA-N
Temperature: 278 K
Tabular data in the source: 0
pressure (bar)	uptake (mg/g)
0.232429	3.94422
0.620743	7.88845
0.893232	8.76494
1.12644	10.5179
1.28232	10.5179
1.47686	11.3944
1.63228	12.7092
1.82746	11.8327
2.02169	13.5857
2.37196	14.9004
2.52863	12.7092
2.68342	15.7769
2.9955	14.9004
3.34547	17.0916
3.54001	17.9681
3.7344	19.2829
3.88935	21.9124
3.96357	32.4303
4.03809	42.0717
4.0724	55.2191
4.14445	71.8725
4.33481	84.5817
4.56692	89.4024
4.83848	92.9084
5.03333	92.9084
5.18953	92.0319
5.38361	94.2231
5.53872	96.4143
5.73341	96.8526
5.88899	97.7291
