Adsorption isotherm of Carbon Dioxide on Ni(Bpy)(DBM)2
DOI: 10.1016/j.jcis.2012.10.050
Adsorbate Carbon Dioxide: InChIKey CURLTUGMZLYLDI-UHFFFAOYSA-N
Temperature: 278 K
Tabular data in the source: 0
pressure (bar)	uptake (mg/g)
0.087405	9.82143
0.203945	14.2857
0.320485	17.4107
0.553565	24.1071
0.786645	27.6786
0.961455	30.3571
1.10713	30.8036
1.28194	33.9286
1.45675	36.1607
1.60242	37.5
1.77723	37.9464
1.92291	39.2857
2.06858	42.4107
2.21426	43.3036
2.38907	42.4107
2.50561	44.6429
2.73869	46.4286
2.94263	46.875
3.14658	48.6607
3.26312	48.6607
3.4088	49.5536
3.5836	51.3393
3.75842	51.3393
3.87495	51.3393
4.02063	54.9107
4.1663	55.8036
4.37025	66.0714
4.5742	69.1964
4.749	72.7679
4.98208	74.5536
5.06948	74.5536
5.2443	77.6786
5.4191	79.4643
5.62305	77.6786
5.73959	80.8036
5.9144	81.25
6.06008	83.0357
6.35143	83.4821
6.4097	86.1607
6.64278	86.1607
6.84672	87.0536
6.96326	89.2857
7.1672	87.9464
7.34202	89.2857
7.48769	88.8393
7.5751	90.625
7.72077	89.7321
7.89558	91.9643
8.1578	92.4107
