Adsorption isotherm of Carbon Dioxide on Ni(Bpy)(DBM)2+polystyrene
DOI: 10.1016/j.jcis.2012.10.050
Adsorbate Carbon Dioxide: InChIKey CURLTUGMZLYLDI-UHFFFAOYSA-N
Temperature: 278 K
Tabular data in the source: 0
pressure (bar)	uptake (mg/g)
0.348722	5.69721
0.464238	9.64143
0.697133	12.2709
1.12504	14.4622
1.43634	15.7769
1.74827	15.3386
2.02014	17.9681
2.21515	17.5299
2.44866	18.4064
2.95529	18.4064
3.42169	21.9124
3.65506	23.2271
3.85007	22.7888
3.8878	26.2948
4.15858	31.992
4.42812	41.1952
4.66054	45.1394
4.89406	46.0159
5.16624	47.7689
5.3996	49.0837
5.67209	49.9602
5.90561	50.8367
6.13912	51.7131
6.4113	53.4661
6.60599	53.9044
7.03437	54.7809
