Adsorption isotherm of Carbon Dioxide on Ni(Bpy)(DBM)2
DOI: 10.1016/j.jcis.2012.10.050
Adsorbate Carbon Dioxide: InChIKey CURLTUGMZLYLDI-UHFFFAOYSA-N
Temperature: 278 K
Tabular data in the source: 0
pressure (bar)	uptake (mg/g)
0.17481	3.99148
0.34962	3.98296
0.52443	6.19666
0.64097	8.41321
0.93232	8.39901
1.10713	10.6127
1.28194	10.1597
1.45675	11.4846
1.63156	12.3649
1.86464	12.3536
1.95205	12.7938
2.15599	14.1171
2.30167	14.5545
2.53475	12.7654
2.65128	15.4263
2.94263	15.4121
3.17572	16.2897
3.35052	17.6145
3.4962	17.6074
3.70015	18.9308
3.90409	21.5875
3.96235	32.6958
4.02063	42.0263
4.19544	71.7955
4.39938	84.6745
4.63246	89.552
4.86555	93.5406
5.06948	92.6418
5.21516	91.3014
5.44825	93.9567
5.56478	96.1732
5.73959	95.7203
5.88527	97.0465
