Adsorption isotherm of Carbon Dioxide on Ni(Bpy)(DBM)2+polystyrene
DOI: 10.1016/j.jcis.2012.10.050
Adsorbate Carbon Dioxide: InChIKey CURLTUGMZLYLDI-UHFFFAOYSA-N
Temperature: 285 K
Tabular data in the source: 0
pressure (bar)	uptake (mg/g)
0.309595	6.13546
0.581307	9.20319
0.814512	10.9562
1.3199	14.4622
1.70867	17.0916
2.0206	16.6534
2.3319	17.9681
2.56495	20.1594
2.9157	20.1594
3.18787	21.9124
3.49933	22.7888
4.66754	25.4183
5.09513	28.4861
5.36498	36.8127
5.63607	41.6335
5.90731	46.0159
6.21799	49.0837
6.45105	51.2749
6.72385	51.2749
6.99618	52.5896
