Adsorption isotherm of Hydrogen on Be-BTB
DOI: 10.1557/Jmr.2013.357
Adsorbate Hydrogen: InChIKey UFHFLCQGNIYNRP-UHFFFAOYSA-N
Temperature: 77 K
Tabular data in the source: 0
pressure (bar)	uptake (wt%)
18.5713	-0.0486363
41.4761	0.262874
64.8959	0.892511
74.1627	1.06123
82.0722	1.14948
