Adsorption isotherm of Hydrogen on MOF-505
DOI: 10.1557/Jmr.2013.357
Adsorbate Hydrogen: InChIKey UFHFLCQGNIYNRP-UHFFFAOYSA-N
Temperature: 77 K
Tabular data in the source: 0
pressure (bar)	uptake (wt%)
8.19824	-0.0729907
21.2947	0.023196
42.4383	0.194893
57.1585	0.439392
65.4714	0.591238
71.8795	0.675407
79.3753	0.806127
