Adsorption isotherm of Hydrogen on MOF-505
DOI: 10.1557/Jmr.2013.357
Adsorbate Hydrogen: InChIKey UFHFLCQGNIYNRP-UHFFFAOYSA-N
Temperature: 77 K
Tabular data in the source: 0
pressure (bar)	uptake (wt%)
18.2809	0.129576
40.7885	0.313856
63.5555	0.638108
79.3757	0.801884
