Adsorption isotherm of Hydrogen on Be-BTB
DOI: 10.1557/Jmr.2013.357
Adsorbate Hydrogen: InChIKey UFHFLCQGNIYNRP-UHFFFAOYSA-N
Temperature: 77 K
Tabular data in the source: 0
pressure (bar)	uptake (wt%)
10.2585	-0.200482
20.4909	-0.133688
32.4893	0.0220087
50.1976	0.423161
64.3535	0.854387
74.0274	1.04851
82.0722	1.14948
