Adsorption isotherm of Hydrogen on MIL-53(Al)
DOI: 10.1021/Ja803669w
Adsorbate Hydrogen: InChIKey UFHFLCQGNIYNRP-UHFFFAOYSA-N
Temperature: 77 K
Tabular data in the source: 0
pressure (bar)	uptake (wt%)
0.0761421	0.0145455
0.456853	0.276364
0.685279	0.392727
1.21827	0.48
1.90355	0.625455
2.13198	0.858182
2.51269	1.16364
2.74112	1.42545
2.96954	1.76
3.19797	2.00727
3.4264	2.28364
3.88325	2.50182
4.18782	2.63273
4.79695	2.77818
5.32995	2.86545
5.93909	2.90909
7.15736	2.98182
7.84264	3.02545
8.60406	3.05455
9.74619	3.09818
10.5076	3.09818
11.8782	3.12727
13.1726	3.15636
15	3.14182
16.4467	3.15636
17.5127	3.15636
18.9594	3.17091
20.2538	3.17091
21.6244	3.17091
22.9949	3.15636
24.1371	3.15636
25.4315	3.15636
26.5736	3.15636
27.868	3.15636
29.0102	3.15636
