Adsorption isotherm of Nitrogen on MIL-100(Fe)
DOI: 10.1016/j.chroma.2012.12.015
Adsorbate Nitrogen: InChIKey IJGRMHOSHXDMSA-UHFFFAOYSA-N
Temperature: 77 K
Tabular data in the source: 0
pressure (bar)	uptake (cm3(STP)/g)
0.000865	217.332
0.0180263	313.938
0.0380483	349.978
0.0580703	388.52
0.075232	414.549
0.0981143	436.573
0.120997	451.089
0.199654	499.642
0.279743	509.653
0.35268	513.658
0.428477	517.162
0.515716	519.664
0.590084	521.667
0.674462	524.169
0.910436	529.175
