Adsorption isotherm of Nitrogen on ZIF-8
DOI: 10.1039/C3ta11483j
Adsorbate Nitrogen: InChIKey IJGRMHOSHXDMSA-UHFFFAOYSA-N
Temperature: 77 K
Tabular data in the source: 0
pressure (bar)	uptake (cm3(STP)/g)
0.00139321	54.9372
0.00139321	118.317
0.00139321	150.712
0.00139321	252.825
0.00984391	291.557
0.118295	292.965
0.192943	293.67
0.276041	292.965
0.35914	293.67
0.405619	293.67
0.463365	293.67
0.54083	293.67
0.65914	292.261
0.776041	290.853
0.852097	289.444
0.949281	291.557
0.990126	352.825
