Adsorption isotherm of Nitrogen on ZIF-8
DOI: 10.1039/C3ta11483j
Adsorbate Nitrogen: InChIKey IJGRMHOSHXDMSA-UHFFFAOYSA-N
Temperature: 77 K
Tabular data in the source: 0
pressure (bar)	uptake (cm3(STP)/g)
0.00421011	4.23297
0.00421011	104.233
0.00421011	262.684
0.00843546	353.529
0.0112524	369.726
0.0408298	373.247
0.0901256	372.543
0.149281	373.951
0.197168	372.543
0.280266	371.839
0.363365	371.134
0.463365	372.543
0.542238	373.247
0.619703	373.247
0.698576	371.839
0.773224	373.247
0.856323	371.839
0.899985	372.543
0.947872	375.36
0.991534	419.022
