Adsorption isotherm of Nitrogen on ZIF-8
DOI: 10.1039/C3ta11483j
Adsorbate Nitrogen: InChIKey IJGRMHOSHXDMSA-UHFFFAOYSA-N
Temperature: 77 K
Tabular data in the source: 0
pressure (bar)	uptake (cm3(STP)/g)
0.00944547	370.184
0.0308976	378.443
0.0666512	382.197
0.119566	384.2
0.201085	386.202
0.248279	386.452
0.346959	386.953
0.501415	386.953
0.648719	387.954
0.743109	389.956
0.803175	391.958
0.85895	394.711
0.913296	399.717
0.949049	406.975
0.973362	415.734
0.986233	430.501
