Adsorption isotherm of Hydrogen on ZIF-8
DOI: 10.1039/C3ta11483j
Adsorbate Hydrogen: InChIKey UFHFLCQGNIYNRP-UHFFFAOYSA-N
Temperature: 277 K
Tabular data in the source: 0
pressure (bar)	uptake (cm3(STP)/g)
0.0354747	4.34016
0.0658972	8.48101
0.10477	14.3965
0.152094	20.7064
0.202799	26.819
0.268714	35.1007
0.326179	41.6078
0.393785	49.2979
0.449559	54.819
0.527306	62.9035
0.630404	71.3824
0.686179	76.5092
0.765616	82.0303
0.843362	87.9458
0.94477	94.0585
1.0259	98.7909
1.13238	103.523
1.18815	106.284
