Adsorption isotherm of Carbon Dioxide on ZIF-8
DOI: 10.1039/C3ta11483j
Adsorbate Carbon Dioxide: InChIKey CURLTUGMZLYLDI-UHFFFAOYSA-N
Temperature: 277 K
Tabular data in the source: 0
pressure (bar)	uptake (cm3(STP)/g)
0.0168831	0.338486
0.0591366	1.22581
0.114911	2.40891
0.174066	3.63426
0.261954	5.23989
0.346461	6.71877
0.446179	8.49341
0.58139	10.6483
0.762235	12.9723
0.877165	14.1976
1.00393	15.3807
1.13914	16.4371
1.18646	17.1131
