Adsorption isotherm of Hydrogen on ZIF-8
DOI: 10.1039/C3ta11483j
Adsorbate Hydrogen: InChIKey UFHFLCQGNIYNRP-UHFFFAOYSA-N
Temperature: 77 K
Tabular data in the source: 0
pressure (bar)	uptake (cm3(STP)/g)
0.00167185	0.593684
0.0371648	6.31199
0.0794183	14.3965
0.119982	20.7064
0.170686	28.9881
0.228151	39.6359
0.304207	49.4951
0.376883	60.3402
0.451249	69.805
0.513785	77.8895
0.588151	86.7627
0.684489	97.2134
0.767306	104.115
0.843362	111.411
0.93801	120.284
1.02421	126.791
1.14421	134.284
1.18815	136.847
