Adsorption isotherm of Methane on ZIF-8
DOI: 10.1039/C3ta11483j
Adsorbate Methane: InChIKey VNWKTOKETHGBQD-UHFFFAOYSA-N
Temperature: 277 K
Tabular data in the source: 0
pressure (bar)	uptake (cm3(STP)/g)
0.0118127	0.0846595
0.10139	0.732547
0.150404	1.11283
0.201108	1.4086
0.261954	1.78888
0.34477	2.31001
0.449559	2.97198
0.589841	3.81705
0.670968	4.26776
0.768996	4.76072
0.873785	5.23959
1.00055	5.69029
1.1459	6.05649
