Adsorption isotherm of Carbon Dioxide on ZIF-8
DOI: 10.1039/C3ta11483j
Adsorbate Carbon Dioxide: InChIKey CURLTUGMZLYLDI-UHFFFAOYSA-N
Temperature: 277 K
Tabular data in the source: 0
pressure (bar)	uptake (cm3(STP)/g)
0.00336199	0.0427109
0.0794183	2.15539
0.131813	3.63426
0.202799	5.45116
0.300827	8.28215
0.390404	10.5216
0.507024	13.6061
0.667587	17.5779
0.763925	19.8596
0.870404	22.3103
0.993785	25.1836
1.14421	28.0145
1.1797	29.1131
