Adsorption isotherm of Methane on ZIF-8
DOI: 10.1039/C3ta11483j
Adsorbate Methane: InChIKey VNWKTOKETHGBQD-UHFFFAOYSA-N
Temperature: 277 K
Tabular data in the source: 0
pressure (bar)	uptake (cm3(STP)/g)
0.0304042	0.267758
0.076038	0.605786
0.130123	1.08466
0.175756	1.42269
0.228151	1.83114
0.299137	2.35227
0.393785	3.02832
0.517165	3.91565
0.670968	4.91565
0.763925	5.43677
0.877165	6.21142
0.998855	6.97198
1.1459	7.70438
