Adsorption isotherm of Nitrogen on ZIF-8
DOI: 10.1039/C3ta11483j
Adsorbate Nitrogen: InChIKey IJGRMHOSHXDMSA-UHFFFAOYSA-N
Temperature: 77 K
Tabular data in the source: 0
pressure (bar)	uptake (cm3(STP)/g)
0.0108756	442.514
0.035188	459.032
0.065221	464.037
0.0981143	469.543
0.161041	478.053
0.245419	485.06
0.344099	490.567
0.398444	491.568
0.517146	491.818
0.665881	491.317
0.768851	491.818
0.817476	493.069
0.85895	494.321
0.890414	495.822
0.943329	499.576
0.977652	506.084
0.990524	517.096
