Adsorption isotherm of Methylene blue, Water on SiO2-PDA-CSH
DOI: 10.1016/j.apsusc.2017.05.226
Article source: Figure 6
Adsorbate Methylene blue: InChIKey CXKWCBBOMKCUKX-UHFFFAOYSA-M
Adsorbate Water: InChIKey XLYOFNOQVPJJNP-UHFFFAOYSA-N
Kind: experiment
Temperature: 298 K
Tabular data in the source: 0
pressure (bar)	Methylene blue fraction	Methylene blue uptake (mg/g)	Water fraction	Water uptake (mg/g)	total uptake (mg/g)
1.01325	7.652	11.16			
1.01325	14.577	27.09			
1.01325	21.144	41.41			
1.01325	29.024	54.25			
1.01325	37.382	63.2			
1.01325	77.26	111.82			
1.01325	246.087	270.84			
