Adsorption isotherm of Hydrogen on NJU-Bai10
DOI: 10.1021/Cg400449c
Adsorbate Hydrogen: InChIKey UFHFLCQGNIYNRP-UHFFFAOYSA-N
Temperature: 77 K
Tabular data in the source: 0
pressure (bar)	uptake (wt%)
0.400996	0.0491795
0.400996	1.07935
1.27495	2.43615
3.24133	3.66733
4.77074	4.24523
10.6699	5.09952
15.2581	5.92868
24.6531	6.93372
35.5775	7.58699
49.9976	8.24027
60.2665	8.56691
70.317	8.8433
99.5943	9.5217
