Adsorption isotherm of Hydrogen on NJU-Bai10
DOI: 10.1021/Cg400449c
Adsorbate Hydrogen: InChIKey UFHFLCQGNIYNRP-UHFFFAOYSA-N
Temperature: 77 K
Tabular data in the source: 0
pressure (bar)	uptake (wt%)
3.02285	3.56683
5.20772	4.09447
10.4514	4.74775
15.2581	5.42615
20.9388	5.90355
30.3338	6.35582
40.6027	6.60708
50.6531	6.68246
60.485	6.65733
70.317	6.68246
89.7623	6.6322
99.8128	6.5317
