Adsorption isotherm of Hydrogen on NJU-Bai10
DOI: 10.1021/Cg400449c
Adsorbate Hydrogen: InChIKey UFHFLCQGNIYNRP-UHFFFAOYSA-N
Temperature: 87 K
Tabular data in the source: 0
pressure (bar)	uptake (wt%)
0.011621	0.0112474
0.0837219	0.286542
0.165436	0.476626
0.249554	0.6536
0.321655	0.817466
0.456243	1.02721
0.506714	1.08621
0.595638	1.19763
0.662932	1.28284
0.742243	1.38116
0.835974	1.47948
0.917688	1.54503
1.01623	1.63679
1.05949	1.67612
