Adsorption isotherm of Methane on NJU-Bai10
DOI: 10.1021/Cg400449c
Adsorbate Methane: InChIKey VNWKTOKETHGBQD-UHFFFAOYSA-N
Temperature: 290 K
Tabular data in the source: 0
pressure (bar)	uptake (cm3(STP)/g)
0.0912545	0.0613776
0.85596	19.4386
3.91478	77.9386
7.08285	119.724
10.2509	156.867
14.0744	194.939
17.461	217.224
20.3013	233.01
25.1081	259.939
30.3518	281.296
35.1585	297.081
39.856	310.081
44.8812	322.153
49.6879	335.153
