Adsorption isotherm of Hydrogen on NJU-Bai10
DOI: 10.1021/Cg400449c
Adsorbate Hydrogen: InChIKey UFHFLCQGNIYNRP-UHFFFAOYSA-N
Temperature: 77 K
Tabular data in the source: 0
pressure (bar)	uptake (wt%)
0.011621	0.0767936
0.0308479	0.299651
0.0548816	0.48318
0.0837219	0.6536
0.143806	0.896121
0.21831	1.16486
0.297621	1.41394
0.405772	1.65646
0.557184	1.9252
0.703789	2.13494
0.900865	2.37091
