Adsorption isotherm of Methane on NJU-Bai10
DOI: 10.1021/Cg400449c
Adsorbate Methane: InChIKey VNWKTOKETHGBQD-UHFFFAOYSA-N
Temperature: 290 K
Tabular data in the source: 0
pressure (bar)	uptake (cm3(STP)/g)
0.528229	4.58148
1.18369	21.2958
4.13327	73.2958
7.19209	112.296
10.0324	144.796
14.0744	179.153
17.2425	198.653
20.3013	211.653
25.2173	233.01
30.024	246.939
34.6123	257.153
40.0744	266.439
44.8812	273.867
49.6879	276.653
