Adsorption isotherm of Water on 1-LiCl
DOI: 10.1039/C4cs00078a
Adsorbate Water: InChIKey XLYOFNOQVPJJNP-UHFFFAOYSA-N
Temperature: 298 K
Tabular data in the source: 0
pressure (bar)	uptake (ml/g)
0.0467614	-1.02041
0.199296	38.7755
0.437438	67.3469
0.449913	127.551
0.468993	95.9184
0.641296	157.143
0.832585	179.592
1.00827	201.02
1.2073	219.388
1.28542	231.633
1.43769	251.02
