Adsorption isotherm of Water on Me-FeCr
DOI: 10.1039/C4cs00078a
Adsorbate Water: InChIKey XLYOFNOQVPJJNP-UHFFFAOYSA-N
Temperature: 298 K
Tabular data in the source: 0
pressure (bar)	uptake (cm3(STP)/g)
0.0486263	4.05246
0.109413	8.91478
0.194604	11.3318
0.249368	12.9436
0.358898	16.1673
0.498852	20.1961
0.590084	25.0506
0.650951	25.8478
0.760433	31.5105
0.857816	33.1113
0.942975	37.1544
0.997722	39.5792
1.05854	42.8155
1.10715	47.681
1.13715	69.6244
1.13738	58.2423
1.16739	79.3727
1.19165	84.2445
1.24026	89.1099
1.33146	95.5904
1.36182	99.6476
1.41048	102.074
1.47125	107.749
1.49552	111.808
1.5319	119.116
1.57436	127.235
1.59236	140.238
1.62263	148.361
1.65286	158.922
1.66479	171.114
1.68281	183.304
1.70088	193.056
1.71895	202.807
1.73094	211.747
1.76728	221.494
1.78521	237.749
1.82764	247.495
1.86407	252.363
1.9005	257.232
1.97955	262.089
2.09511	268.564
