Adsorption isotherm of Water on CID-5/6 (X = .43)
DOI: 10.1039/C4cs00078a
Adsorbate Water: InChIKey XLYOFNOQVPJJNP-UHFFFAOYSA-N
Temperature: 298 K
Tabular data in the source: 0
pressure (bar)	uptake (molecules/unitcell)
0.00108615	0.0534204
0.00189989	0.0530549
0.00276816	0.0661419
0.00363702	0.106183
0.00450647	0.173178
0.00483196	0.173031
0.00575595	0.253479
0.00624478	0.280213
0.00667936	0.306972
0.00738635	0.387517
0.00787547	0.427729
0.00879916	0.494699
0.00945307	0.629177
0.0098334	0.65596
0.0104322	0.75003
0.0107597	0.844223
0.01125	0.938342
0.0117946	1.03244
0.0122312	1.15353
0.012776	1.26111
0.0130484	1.31489
0.0134845	1.40904
0.0138117	1.48975
0.0144117	1.63773
0.0148483	1.75883
0.0152843	1.85297
0.0158846	2.01443
0.0167033	2.24317
0.0171939	2.35077
0.0182293	2.56593
0.0185562	2.63317
0.0191022	2.79465
0.0198107	2.94258
0.0206825	3.11739
0.0215003	3.30571
0.022263	3.45361
0.023243	3.6149
0.023896	3.70894
0.0251481	3.91054
0.0256918	3.9642
0.0271052	4.09834
0.0286274	4.2459
0.0303135	4.4473
