Adsorption isotherm of Water on Zn(NDI-SEt)
DOI: 10.1039/C4cs00078a
Adsorbate Water: InChIKey XLYOFNOQVPJJNP-UHFFFAOYSA-N
Temperature: 293 K
Tabular data in the source: 0
pressure (bar)	uptake (g/g)
0.00388808	0.0191489
0.00398906	0.0191489
0.00469598	0.0237082
0.00525144	0.0264438
0.00575638	0.0282675
0.00621083	0.031003
0.00676627	0.0355623
0.00742269	0.0364742
0.00782666	0.0419453
0.00853359	0.0483283
0.00893754	0.056535
0.00944247	0.0820669
0.00989693	0.140426
0.0109068	0.180547
0.0111593	0.184195
0.0116137	0.189666
0.0120177	0.187842
0.0129771	0.194225
0.0131791	0.195137
0.0157038	0.210638
0.0172691	0.222492
0.0191879	0.23617
