Adsorption isotherm of Water on CID-5
DOI: 10.1039/C4cs00078a
Adsorbate Water: InChIKey XLYOFNOQVPJJNP-UHFFFAOYSA-N
Temperature: 298 K
Tabular data in the source: 0
pressure (bar)	uptake (molecules/unitcell)
0.00186253	0.0293255
0.00372506	0.0293255
0.00445676	0.0293255
0.00545455	0.058651
0.00691796	0.0733138
0.00891353	0.0879765
0.0107761	0.117302
0.0121729	0.117302
0.0141685	0.146628
0.0161641	0.131965
0.0178271	0.16129
0.0195565	0.175953
0.021153	0.205279
0.0232816	0.322581
0.024612	0.366569
0.0260089	0.469208
0.0264745	0.601173
0.0266741	0.777126
0.0267406	1.01173
0.0268071	1.30499
0.0268736	1.15836
0.0269401	1.4956
0.0270067	1.83284
0.0271397	2.37537
0.0272062	2.88856
0.0272727	2.56598
0.0274058	3.03519
0.0276053	3.56305
0.0277384	3.75367
0.0278714	3.92962
0.028204	4.17889
0.0284701	4.2522
0.0304656	4.80938
