Adsorption isotherm of Water on Zn(NDI-SO2Et)
DOI: 10.1039/C4cs00078a
Adsorbate Water: InChIKey XLYOFNOQVPJJNP-UHFFFAOYSA-N
Temperature: 293 K
Tabular data in the source: 0
pressure (bar)	uptake (g/g)
0.00287819	0.0191489
0.00368609	0.0255319
0.00398906	0.0291793
0.004595	0.0346505
0.00515044	0.0382979
0.0056554	0.043769
0.00621083	0.0537994
0.00671577	0.0683891
0.0072712	0.0838906
0.00797815	0.107599
0.0083821	0.12766
0.00903852	0.160486
0.00959396	0.169605
0.00994743	0.174164
0.0101999	0.175076
0.0106038	0.177812
0.0110078	0.178723
0.0113108	0.178723
0.013583	0.191489
0.0155523	0.20152
0.0176731	0.214286
0.0201978	0.225228
