Adsorption isotherm of Water on Cr-MIL(101)
DOI: 10.1039/C4cs00078a
Adsorbate Water: InChIKey XLYOFNOQVPJJNP-UHFFFAOYSA-N
Temperature: 298 K
Tabular data in the source: 0
pressure (bar)	uptake (g/g)
0.00149605	0.00434783
0.00190406	0.0130435
0.00238008	0.0217391
0.00278809	0.026087
0.00333212	0.0434783
0.00421613	0.0652174
0.00462414	0.073913
0.00550819	0.0869565
0.00612019	0.0913043
0.00741224	0.1
0.00836427	0.117391
0.00890829	0.126087
0.00972432	0.130435
0.0104723	0.143478
0.0108803	0.152174
0.0116284	0.169565
0.0119004	0.178261
0.0126484	0.213043
0.0132604	0.23913
0.0133964	0.26087
0.0136684	0.282609
0.0138724	0.3
0.0140764	0.33913
0.0142125	0.36087
0.0142804	0.386957
0.0144164	0.421739
0.0144845	0.456522
0.0146885	0.5
0.0147565	0.530435
0.0148245	0.565217
0.0150285	0.608696
0.0151645	0.643478
0.0153005	0.682609
0.0155045	0.717391
0.0158445	0.756522
0.0161845	0.782609
0.0165925	0.808696
0.0169325	0.843478
0.0171366	0.878261
0.0173406	0.913043
0.0174086	0.956522
0.0175446	1
0.0176126	1.02174
0.0177486	1.05652
0.0178166	1.07826
0.0180206	1.12174
0.0182246	1.16957
0.0184286	1.20435
0.0185646	1.23043
0.0188366	1.26087
0.0193806	1.27826
0.0199246	1.3
0.0205367	1.3
0.0216927	1.30435
0.0225087	1.31739
0.0233928	1.31739
0.0242088	1.32609
0.0254328	1.33478
0.0270649	1.33913
