Adsorption isotherm of Water on MIL-125-NH2
DOI: 10.1039/C4cs00078a
Adsorbate Water: InChIKey XLYOFNOQVPJJNP-UHFFFAOYSA-N
Temperature: 298 K
Tabular data in the source: 0
pressure (bar)	uptake (g/g)
0.000904188	0.0109772
0.00188321	0.0256048
0.002486	0.032923
0.00331465	0.0438973
0.00391723	0.0524312
0.0045921	0.0779893
0.00541274	0.131516
0.00615302	0.210572
0.00666515	0.29813
0.00771922	0.315192
0.00862431	0.321306
0.00930333	0.32498
0.0110385	0.334774
0.0125482	0.33848
0.0141328	0.345836
0.0159443	0.350769
0.0186617	0.358169
0.0224364	0.36561
0.0250783	0.373007
