Adsorption isotherm of Water on UiO-66
DOI: 10.1039/C4cs00078a
Adsorbate Water: InChIKey XLYOFNOQVPJJNP-UHFFFAOYSA-N
Temperature: 353 K
Tabular data in the source: 0
pressure (bar)	uptake (g/g)
2.51649	0.0120762
7.09191	0.025406
12.1249	0.0531619
16.4716	0.269489
21.2758	0.318861
25.9656	0.339401
30.7698	0.351535
35.4596	0.358862
39.9207	0.366183
44.6105	0.372308
