Adsorption isotherm of Water on CID-6
DOI: 10.1039/C4cs00078a
Adsorbate Water: InChIKey XLYOFNOQVPJJNP-UHFFFAOYSA-N
Temperature: 298 K
Tabular data in the source: 0
pressure (bar)	uptake (molecules/unitcell)
0.00184447	-0.000828601
0.00336461	0.0523969
0.00472142	0.0787415
0.00586065	0.0782297
0.00700017	0.0911949
0.00770629	0.131309
0.00814057	0.144591
0.00895518	0.184656
0.00971525	0.211269
0.0103674	0.264884
0.0114008	0.385714
0.0122166	0.479687
0.0125435	0.546926
0.0130338	0.641045
0.0139598	0.815831
0.0143956	0.896498
0.0147228	0.977213
0.0149961	1.07143
0.0157577	1.16543
0.0161931	1.23262
0.016901	1.35359
0.0174995	1.43419
0.0180431	1.48785
0.0191859	1.64906
0.0204377	1.83718
0.0208723	1.86394
0.0221775	2.0116
0.0236457	2.17267
0.0242439	2.23978
0.0254406	2.38749
0.026854	2.52163
0.0285938	2.69605
0.030552	2.93776
