Adsorption isotherm of Water on Zn(NDI-SOEt)
DOI: 10.1039/C4cs00078a
Adsorbate Water: InChIKey XLYOFNOQVPJJNP-UHFFFAOYSA-N
Temperature: 293 K
Tabular data in the source: 0
pressure (bar)	uptake (g/g)
0.000252472	0.00911854
0.000504946	0.0173252
0.000858407	0.0218845
0.00126236	0.0300912
0.00171682	0.0328267
0.00232275	0.0419453
0.00277721	0.0510638
0.00338312	0.0601824
0.00388808	0.0683891
0.00449402	0.0848024
0.00515044	0.102128
0.00555439	0.124012
0.00605935	0.141337
0.00666529	0.154103
0.00737221	0.161398
0.00782666	0.165046
0.0083316	0.171429
0.00908902	0.1769
0.00964446	0.182371
0.00989693	0.186018
0.0107553	0.192401
0.0111088	0.19696
0.0115633	0.199696
0.0120682	0.202432
0.0128761	0.209726
0.0132296	0.213374
0.0152999	0.232523
0.0172691	0.256231
0.0200463	0.292705
