Adsorption isotherm of Water on Cr-MIL-101-NO2
DOI: 10.1039/C4cs00078a
Adsorbate Water: InChIKey XLYOFNOQVPJJNP-UHFFFAOYSA-N
Temperature: 298 K
Tabular data in the source: 0
pressure (bar)	uptake (g/g)
0.000992334	0.0185287
0.00146737	0.022218
0.0017265	0.0240614
0.00207206	0.0258997
0.00259064	0.025869
0.00289282	0.0295686
0.00336787	0.033258
0.00384305	0.0350886
0.00440438	0.0406316
0.00474994	0.0424699
0.00552732	0.0480001
0.00600234	0.0516895
0.00660706	0.0553712
0.00703888	0.0590631
0.00742764	0.0608988
0.00777304	0.0645959
0.00816151	0.0701491
0.00850706	0.0719874
0.00885262	0.0738257
0.00924137	0.0756614
0.00980286	0.0793457
0.010062	0.0811891
0.0104937	0.0867398
0.0108391	0.0904368
0.0114002	0.0978385
0.0119181	0.105243
0.0122634	0.110799
0.0128671	0.125633
0.0132119	0.136765
0.0134268	0.149763
0.0136834	0.181347
0.0137155	0.309597
0.0138112	0.201785
0.0138535	0.212935
0.0138914	0.274271
0.0139715	0.346757
0.0141833	0.39693
0.0146125	0.430362
0.0152131	0.482371
0.0159868	0.530653
0.0161549	0.584546
0.0162004	0.558521
0.0162385	0.617998
0.0165386	0.645862
0.0170978	0.675568
0.0183481	0.708952
0.0193411	0.720045
0.0216302	0.73478
0.0227965	0.740287
0.023833	0.747661
0.0256466	0.764282
0.0271572	0.786497
