Adsorption isotherm of Water on MCM-41
DOI: 10.1039/C4cs00078a
Adsorbate Water: InChIKey XLYOFNOQVPJJNP-UHFFFAOYSA-N
Temperature: 298 K
Tabular data in the source: 0
pressure (bar)	uptake (g/g)
0.00258414	0.00967948
0.00351189	0.0120541
0.00417428	0.016995
0.00503633	0.0118092
0.0054336	0.0167927
0.00622899	0.0166649
0.00682512	0.0216164
0.00748793	0.02151
0.00801774	0.0264722
0.00868058	0.0263657
0.00940927	0.0312959
0.0101381	0.0337025
0.0105358	0.0336386
0.0111987	0.0335321
0.0120599	0.0384411
0.0124576	0.0383772
0.0133853	0.0407518
0.0139153	0.0431903
0.0145117	0.0456181
0.015108	0.048046
0.0157706	0.0504632
0.0163669	0.0528911
0.0170295	0.0553083
0.0176258	0.0577361
0.0182885	0.0601533
0.0188842	0.0701523
0.0194138	0.0776382
0.0198098	0.0977638
0.0202671	0.178447
0.0206558	0.286902
0.0211735	0.438239
