Adsorption isotherm of Water on CAU-10-NH2
DOI: 10.1039/C4cs00078a
Adsorbate Water: InChIKey XLYOFNOQVPJJNP-UHFFFAOYSA-N
Temperature: 298 K
Tabular data in the source: 0
pressure (bar)	uptake (cm3(STP)/g)
0.000255357	28.965
0.000319508	33.7948
0.00070671	45.0884
0.000835428	51.5324
0.00109308	62.8128
0.00154485	75.7208
0.00173876	78.9561
0.00212575	91.8574
0.00257814	99.9423
0.00283579	111.223
0.00309407	117.68
0.00367579	127.386
0.00451497	149.98
0.00470828	158.038
0.00516024	169.338
0.00593508	188.71
0.00612917	190.338
0.0067107	201.651
0.00761529	219.429
0.00800332	224.292
0.00897392	232.43
0.00936176	238.9
0.0108502	250.307
0.0124036	260.112
0.0140223	265.101
0.0157051	276.527
0.0185546	281.642
0.0219222	288.417
