Adsorption isotherm of Water on CAU-10-NO2
DOI: 10.1039/C4cs00078a
Adsorbate Water: InChIKey XLYOFNOQVPJJNP-UHFFFAOYSA-N
Temperature: 298 K
Tabular data in the source: 0
pressure (bar)	uptake (cm3(STP)/g)
0.000906453	3.30821
0.00259043	5.08827
0.00369162	5.20098
0.00524563	10.1832
0.00634517	23.1574
0.00763904	36.1516
0.00854508	42.6752
0.00893248	52.3612
0.00931948	65.2625
0.00957713	76.5429
0.00996453	86.2288
0.0101576	95.8949
0.0104153	107.175
0.0106079	120.057
0.0107366	126.501
0.0110587	141.003
0.0113167	149.068
0.0117041	158.754
0.0122203	174.884
0.0126725	184.577
0.0135781	194.316
0.0144185	207.263
0.015648	217.036
