Adsorption isotherm of Water on CID-5/6 (X = .61)
DOI: 10.1039/C4cs00078a
Adsorbate Water: InChIKey XLYOFNOQVPJJNP-UHFFFAOYSA-N
Temperature: 298 K
Tabular data in the source: 0
pressure (bar)	uptake (molecules/unitcell)
0.00179285	0.120488
0.00239047	0.160651
0.00320449	0.173763
0.00385665	0.227378
0.00505042	0.240319
0.00570317	0.320888
0.00630049	0.347574
0.00738752	0.441425
0.00863758	0.54868
0.00950791	0.656106
0.0105952	0.763434
0.0115204	0.89779
0.0122283	1.01877
0.0124467	1.08605
0.013264	1.24741
0.0135906	1.30117
0.0138088	1.35498
0.0142448	1.44913
0.0145718	1.51636
0.0151706	1.61044
0.0154978	1.69115
0.0159339	1.78529
0.0163693	1.85248
0.0169675	1.9196
0.0177851	2.09444
0.0183841	2.20198
0.0191465	2.33641
0.0200723	2.49772
0.0207804	2.63217
0.0217604	2.79346
0.0224138	2.90098
0.0233395	3.06229
0.0239928	3.16981
0.0249186	3.33112
0.0257352	3.46553
0.0266607	3.61336
0.0273683	3.72086
0.0286738	3.882
0.0305223	4.06985
