Adsorption isotherm of Water on UiO-66
DOI: 10.1039/C4cs00078a
Adsorbate Water: InChIKey XLYOFNOQVPJJNP-UHFFFAOYSA-N
Temperature: 298 K
Tabular data in the source: 0
pressure (bar)	uptake (mmol/g)
0.00538886	-0.000118841
0.355455	1.16999
0.672999	3.38008
0.955909	18.4085
1.26825	19.5794
1.56989	20.3349
1.87159	20.7439
2.18405	21.2913
2.48039	21.5619
2.7869	25.1579
