Adsorption isotherm of Water on CAU-10-OCH3
DOI: 10.1039/C4cs00078a
Adsorbate Water: InChIKey XLYOFNOQVPJJNP-UHFFFAOYSA-N
Temperature: 298 K
Tabular data in the source: 0
pressure (bar)	uptake (cm3(STP)/g)
0.00123013	4.94905
0.0018781	3.40765
0.00395012	10.0506
0.00511588	11.7776
0.00705855	16.7996
0.00790065	16.8858
0.0081562	44.2431
0.00828325	63.5487
0.00828473	52.2949
0.00834618	78.0246
0.00853905	89.2984
0.00944508	95.822
0.0109993	99.1965
0.012942	104.218
0.0152089	106.058
0.0166334	111.027
