Adsorption isotherm of Water on NBu4
DOI: 10.1039/C4cs00078a
Adsorbate Water: InChIKey XLYOFNOQVPJJNP-UHFFFAOYSA-N
Temperature: 298 K
Tabular data in the source: 0
pressure (bar)	uptake (cm3(STP)/g)
0.00607209	0.811437
0.146093	1.58821
0.365267	2.3445
0.596599	3.91065
0.815774	4.66694
1.0228	3.80036
1.2176	5.37597
1.38198	6.14644
1.6194	7.71101
1.83858	8.4673
2.03339	9.2299
2.27085	9.16845
2.47783	10.7409
2.65437	12.3212
2.85529	12.2692
3.0257	15.4772
