Adsorption isotherm of Water on CID-5/6 (X = .13)
DOI: 10.1039/C4cs00078a
Adsorbate Water: InChIKey XLYOFNOQVPJJNP-UHFFFAOYSA-N
Temperature: 298 K
Tabular data in the source: 0
pressure (bar)	uptake (molecules/unitcell)
0.00059867	0.0293255
0.0010643	0.0293255
0.0024612	0.0733138
0.00332594	0.0733138
0.00392461	0.0879765
0.00445676	0.102639
0.00545455	0.131965
0.00605322	0.131965
0.00678492	0.146628
0.00738359	0.146628
0.00838137	0.190616
0.00891353	0.219941
0.00977827	0.249267
0.0107095	0.278592
0.0111752	0.293255
0.0122395	0.351906
0.0125721	0.381232
0.0133703	0.439883
0.0143681	0.498534
0.0152328	0.58651
0.015765	0.615836
0.0168958	0.791789
0.017694	0.909091
0.0182262	1.04106
0.0187583	1.15836
0.0190244	1.27566
0.0196231	1.43695
0.0198891	1.56891
0.0203548	1.74487
0.0207539	1.92082
0.02102	2.08211
0.0213525	2.25806
0.0216186	2.41935
0.0220843	2.60997
0.0222838	2.77126
0.0226164	2.94721
0.022949	3.12317
0.0232151	3.28446
0.0234146	3.43109
0.0239468	3.57771
0.0243459	3.76833
0.024745	3.94428
0.0252106	4.10557
0.0256098	4.22287
0.0262084	4.35484
0.0269401	4.56012
0.0284701	4.70674
0.0292683	4.82405
0.0305322	4.97067
