Adsorption isotherm of Water on CAU-10-OH
DOI: 10.1039/C4cs00078a
Adsorbate Water: InChIKey XLYOFNOQVPJJNP-UHFFFAOYSA-N
Temperature: 298 K
Tabular data in the source: 0
pressure (bar)	uptake (cm3(STP)/g)
0.000321591	17.7178
0.000968105	27.4303
0.00167961	35.5417
0.00297347	48.5358
0.00329693	51.7844
0.00368455	59.8626
0.00387742	71.1364
0.0039374	108.12
0.00393888	96.8662
0.00394032	85.6123
0.00399697	148.319
0.00399926	130.634
0.00400052	120.988
0.00418861	169.239
0.00419005	157.985
0.00444645	178.912
0.00464017	183.755
0.00522147	196.676
0.00541164	228.85
0.00541312	217.596
0.00541478	204.734
0.00547498	240.11
0.00560244	256.2
0.00579615	261.043
0.00618356	270.729
0.0074774	283.723
0.00799541	285.384
0.00941904	296.784
0.0110374	304.988
0.0127203	314.807
0.014598	321.43
0.0163462	328.04
0.0190651	341.18
0.0206187	349.377
0.0230781	365.706
0.0261212	377.271
0.0285804	395.208
