Adsorption isotherm of Water on MOF-74-Ni
DOI: 10.1039/C4cs00078a
Adsorbate Water: InChIKey XLYOFNOQVPJJNP-UHFFFAOYSA-N
Temperature: 298 K
Tabular data in the source: 0
pressure (bar)	uptake (mmol/g)
0.00063807	19.3452
0.0013783	23.8095
0.00312889	25.5952
0.00458251	25.2976
0.00632877	25.5952
0.0124376	25.5952
0.0156392	26.1905
0.01884	26.4881
0.0220433	27.6786
0.0252458	28.5714
0.0283028	29.4643
0.0315087	31.5476
