Adsorption isotherm of Water on ZIF-8
DOI: 10.1039/C4cs00078a
Adsorbate Water: InChIKey XLYOFNOQVPJJNP-UHFFFAOYSA-N
Temperature: 298 K
Tabular data in the source: 0
pressure (bar)	uptake (g/g)
0.000533784	0.00264652
0.00129633	0.00263039
0.00175386	0.00262071
0.00228764	0.00194497
0.00320271	0.00259007
0.00488032	0.0038835
0.00640539	0.00451569
0.00739672	0.00648808
0.00785425	0.00581395
0.00899808	0.00645421
0.00930311	0.00644776
0.0105994	0.00774925
0.0118195	0.00705899
0.0126583	0.00770571
0.0137259	0.00834758
0.0149459	0.00832178
0.0163948	0.00895558
0.0171574	0.00827501
0.0183774	0.0102426
0.0198263	0.0115408
0.0209701	0.0121811
0.0223427	0.0128165
0.0234103	0.0134584
0.0243253	0.0154324
0.0250116	0.0154179
0.0263079	0.0180483
0.0271467	0.0206883
