Adsorption isotherm of Water on Mg-MOF-74
DOI: 10.1039/C4cs00078a
Adsorbate Water: InChIKey XLYOFNOQVPJJNP-UHFFFAOYSA-N
Temperature: 298 K
Tabular data in the source: 0
pressure (bar)	uptake (mmol/g)
3.51361e-05	0.173908
0.199855	29.1897
0.353611	30.2119
0.507297	30.8863
0.652899	31.5618
0.80655	32.0623
0.960201	32.5628
1.26754	33.7376
1.5748	34.5647
1.89015	35.3906
2.18115	35.6981
2.49642	36.1763
2.8117	36.6544
