Adsorption isotherm of Water on Bu-FeCr
DOI: 10.1039/C4cs00078a
Adsorbate Water: InChIKey XLYOFNOQVPJJNP-UHFFFAOYSA-N
Temperature: 298 K
Tabular data in the source: 0
pressure (bar)	uptake (cm3(STP)/g)
0.0486426	3.23944
0.115584	4.84814
0.182543	5.64382
0.279943	6.43162
0.468607	10.4478
0.578202	10.4195
0.821646	15.2345
1.07727	20.0464
1.27816	21.6205
1.50946	24.8126
1.78945	28.8052
2.04509	32.8041
2.22158	36.8235
2.47723	40.0093
2.69019	47.2713
2.89089	57.7885
