Adsorption isotherm of Water on Et-MnCr
DOI: 10.1039/C4cs00078a
Adsorbate Water: InChIKey XLYOFNOQVPJJNP-UHFFFAOYSA-N
Temperature: 298 K
Tabular data in the source: 0
pressure (bar)	uptake (cm3(STP)/g)
0.11565	1.59609
0.18868	3.20321
0.261727	3.99731
0.340796	8.04189
0.450243	15.3306
0.504975	18.5685
0.59015	21.7985
0.681394	25.8399
0.754376	29.8861
0.802852	41.2557
0.826993	51.8185
0.851134	62.3814
0.917895	72.9332
1.02125	80.2235
1.08814	84.2713
1.1368	86.6977
1.20978	90.7438
1.41059	96.3829
1.48362	97.9901
1.56266	103.661
1.6296	105.269
1.72088	107.685
1.80607	110.102
1.87301	111.71
1.92778	113.322
2.03725	118.985
2.1042	120.594
2.20765	123.006
2.35366	128.659
2.43877	135.141
