Adsorption isotherm of Water on SIM-1
DOI: 10.1039/C4cs00078a
Adsorbate Water: InChIKey XLYOFNOQVPJJNP-UHFFFAOYSA-N
Temperature: 298 K
Tabular data in the source: 0
pressure (bar)	uptake (g/g)
0.000915058	0.00396736
0.00167761	0.00528013
0.00327896	0.00856853
0.00465154	0.0165129
0.00564287	0.0264587
0.00594787	0.0311034
0.00678667	0.0423814
0.00754922	0.0529965
0.00831178	0.0622827
0.00884555	0.0682515
0.00907433	0.0709044
0.0104469	0.0795133
0.0107519	0.0815002
0.0128108	0.0900945
0.0137259	0.0940619
0.0151747	0.0973535
0.0175386	0.103284
0.0192925	0.108562
0.0208938	0.113179
0.0244778	0.119748
0.027528	0.127657
0.0295869	0.144225
0.0296631	0.139572
