Adsorption isotherm of Water on CID-5/6 (X = .22)
DOI: 10.1039/C4cs00078a
Adsorbate Water: InChIKey XLYOFNOQVPJJNP-UHFFFAOYSA-N
Temperature: 298 K
Tabular data in the source: 0
pressure (bar)	uptake (molecules/unitcell)
0.000997783	-0.0146628
0.00152993	-0.0146628
0.00359202	0.102639
0.00445676	0.16129
0.00498891	0.175953
0.00545455	0.190616
0.00625277	0.219941
0.00731707	0.26393
0.00818182	0.337243
0.00884701	0.395894
0.00964523	0.469208
0.0102439	0.557185
0.0107761	0.630499
0.0111086	0.68915
0.0115078	0.791789
0.0119069	0.85044
0.0121729	0.894428
0.0126386	0.997067
0.0131042	1.09971
0.0134368	1.15836
0.0137694	1.23167
0.013969	1.29032
0.0143016	1.3783
0.0145011	1.43695
0.0150333	1.55425
0.0154324	1.64223
0.015898	1.71554
0.0162306	1.90616
0.0166297	1.97947
0.0172284	2.17009
0.017694	2.34604
0.0181596	2.50733
0.0186253	2.6393
0.0190909	2.80059
0.0195565	2.94721
0.0201552	3.12317
0.0206208	3.24047
0.0214856	3.46041
0.0222173	3.65103
0.022816	3.82698
0.0236142	3.95894
0.0238137	4.0176
0.024878	4.26686
0.0253437	4.31085
0.0269401	4.64809
0.028204	4.82405
