Adsorption isotherm of Water on UiO-66-NH2
DOI: 10.1039/C4cs00078a
Adsorbate Water: InChIKey XLYOFNOQVPJJNP-UHFFFAOYSA-N
Temperature: 298 K
Tabular data in the source: 0
pressure (bar)	uptake (mmol/g)
0.00538886	0.171527
0.204105	3.73684
0.359872	6.57405
0.504588	10.9358
0.659883	16.4058
0.810458	18.1346
0.955821	18.8935
1.26285	19.6488
1.5699	20.2656
1.8716	20.6747
2.17865	21.3607
2.48038	21.6312
2.7875	21.8323
