Adsorption isotherm of Water on CAU-10-CH3
DOI: 10.1039/C4cs00078a
Adsorbate Water: InChIKey XLYOFNOQVPJJNP-UHFFFAOYSA-N
Temperature: 298 K
Tabular data in the source: 0
pressure (bar)	uptake (cm3(STP)/g)
0.00103496	11.3599
0.00194163	13.0605
0.0033013	18.0228
0.00524397	23.0447
0.0067982	26.4192
0.00809311	31.3749
0.009453	34.7295
0.0114598	44.5812
0.0124306	51.1115
0.0136593	67.3144
0.0136599	62.4913
0.0138519	80.1958
0.0140448	91.4696
0.0141717	112.383
0.0141725	105.952
0.0144291	125.271
0.0150106	136.585
0.0152041	143.035
0.0166271	159.258
0.0174034	167.376
0.0188912	183.605
0.0202496	198.214
0.0219969	211.255
0.0241325	227.55
