Adsorption isotherm of Water on Cr-MIL-101-NH2
DOI: 10.1039/C4cs00078a
Adsorbate Water: InChIKey XLYOFNOQVPJJNP-UHFFFAOYSA-N
Temperature: 298 K
Tabular data in the source: 0
pressure (bar)	uptake (g/g)
0.000560875	0.0390335
0.000906745	0.0464684
0.00129597	0.0520446
0.00168528	0.0557621
0.00224768	0.0594796
0.00311276	0.0687732
0.00376171	0.0724907
0.00458336	0.0855019
0.00553498	0.0947955
0.00631359	0.10223
0.00713515	0.1171
0.00838953	0.130112
0.00912482	0.139405
0.00990308	0.154275
0.0102489	0.163569
0.0104215	0.174721
0.0105941	0.185874
0.0107234	0.197026
0.0108086	0.228625
0.0108093	0.213755
0.0109377	0.245353
0.0110667	0.265799
0.0111088	0.291822
0.0111096	0.275093
0.0111514	0.30855
0.0111921	0.366171
0.0111928	0.351301
0.0111933	0.33829
0.011194	0.32342
0.0112347	0.3829
0.0112773	0.39777
0.0113188	0.438662
0.0113197	0.418216
0.0113599	0.490706
0.0114046	0.457249
0.0114465	0.488848
0.0117914	0.518587
0.0122236	0.52974
0.0127856	0.54461
0.0131726	0.60223
0.0131733	0.583643
0.013174	0.568773
0.0132584	0.6171
0.0132984	0.693309
0.0132993	0.672862
0.013301	0.633829
0.0133432	0.657993
0.0133439	0.643123
0.0133838	0.72119
0.0134696	0.737918
0.0137283	0.758364
0.0151129	0.763941
0.0168431	0.780669
0.0180542	0.795539
0.0200873	0.812268
0.0211689	0.817844
0.0229424	0.836431
0.0245862	0.849442
0.0259703	0.866171
0.028695	0.901487
