Adsorption isotherm of Water on CID-5/6 (X = .82)
DOI: 10.1039/C4cs00078a
Adsorbate Water: InChIKey XLYOFNOQVPJJNP-UHFFFAOYSA-N
Temperature: 298 K
Tabular data in the source: 0
pressure (bar)	uptake (molecules/unitcell)
0.000651573	0.0266615
0.00162864	0.0531767
0.00276845	0.0796188
0.00352823	0.0927546
0.00466893	0.159628
0.00586416	0.239953
0.00662598	0.347428
0.00754939	0.400921
0.00863612	0.481296
0.00912524	0.521507
0.00999556	0.628933
0.0106483	0.709502
0.0113013	0.803548
0.011791	0.870714
0.0121177	0.924475
0.0125532	0.991665
0.013152	1.08574
0.0135874	1.15293
0.0140229	1.22012
0.0145131	1.31423
0.0150029	1.3814
0.0156013	1.46199
0.0158186	1.47537
0.0169074	1.65009
0.0176147	1.74411
0.0187026	1.87839
0.0191923	1.94556
0.0203356	2.13372
0.0210966	2.20077
0.0222396	2.37545
0.0236533	2.52307
0.0241973	2.59021
0.0255567	2.73785
0.0270798	2.92584
0.0286028	3.11384
0.0305071	3.36904
