Adsorption isotherm of Water on CAU-10-H
DOI: 10.1039/C4cs00078a
Adsorbate Water: InChIKey XLYOFNOQVPJJNP-UHFFFAOYSA-N
Temperature: 298 K
Tabular data in the source: 0
pressure (bar)	uptake (cm3(STP)/g)
0.00168769	3.38816
0.00350519	10.005
0.00493325	16.5821
0.00525779	331.728
0.0053227	309.226
0.00551745	56.8348
0.00558236	42.372
0.00564727	125.98
0.00571218	249.781
0.00610165	376.83
0.00811388	385.075
0.0110998	395.027
0.0125278	401.604
0.0139559	408.181
0.0153839	411.542
0.0185646	429.553
0.0200576	436.136
0.0221347	442.78
0.0257048	457.615
0.0278469	465.873
0.0302486	472.549
