Adsorption isotherm of Water on CID-5/6 (X = .06)
DOI: 10.1039/C4cs00078a
Adsorbate Water: InChIKey XLYOFNOQVPJJNP-UHFFFAOYSA-N
Temperature: 298 K
Tabular data in the source: 0
pressure (bar)	uptake (molecules/unitcell)
0.0031929	-0.0293255
0.00592018	0.0146628
0.00804878	0.0293255
0.0100443	0.0439883
0.0114412	0.0293255
0.0128381	0.058651
0.0140355	0.0733138
0.0149002	0.117302
0.0154989	0.117302
0.0164302	0.175953
0.0172949	0.234604
0.0178936	0.26393
0.0188914	0.366569
0.0197561	0.410557
0.021153	0.513196
0.0221508	0.674487
0.0226829	0.865103
0.0232151	1.04106
0.0236142	1.21701
0.0238137	1.40762
0.0239468	1.56891
0.0241463	1.68622
0.0243459	1.8915
0.024612	2.05279
0.0246785	2.27273
0.024878	2.47801
0.0249446	2.60997
0.0252106	2.97654
0.0254102	3.16716
0.0254767	3.29912
0.0256763	3.46041
0.0258093	3.63636
0.0260754	3.81232
0.0262084	4.00293
0.0264745	4.17889
0.0269401	4.38416
0.0272727	4.51613
0.0281375	4.7654
0.0288692	4.83871
0.0303326	5.04399
