Adsorption isotherm of Oxygen on Zeolite 5A
DOI: 10.8888/0009-2509(83)80087-6
Adsorbate Oxygen: InChIKey MYMOFIZGZYHOMD-UHFFFAOYSA-N
Temperature: 303 K
Tabular data in the source: 0
pressure (bar)	uptake (mmol/g)
0.307657	0.0306842
0.640004	0.0608975
1.00256	0.093528
1.27449	0.115282
1.57662	0.139452
1.90897	0.169666
2.17081	0.192628
2.65423	0.231301
3.13764	0.271183
3.60091	0.318315
4.1649	0.356989
4.75909	0.399287
5.41372	0.450046
6.06834	0.49597
6.8841	0.55398
7.80057	0.613198
8.66669	0.659122
