Adsorption isotherm of Nitrogen on Zeolite 5A
DOI: 10.8888/0009-2509(83)80087-6
Adsorbate Nitrogen: InChIKey IJGRMHOSHXDMSA-UHFFFAOYSA-N
Temperature: 293 K
Tabular data in the source: 0
pressure (bar)	uptake (mmol/g)
0.676474	0.238226
1.04538	0.316927
1.3979	0.418582
1.83239	0.503841
2.31607	0.585821
2.75876	0.656323
3.34902	0.761257
3.98846	0.833399
4.47214	0.91046
5.17716	0.984242
5.91498	1.06294
6.70199	1.11869
7.53818	1.19083
8.2924	1.23838
