Adsorption isotherm of Nitrogen on Zeolite 5A
DOI: 10.8888/0009-2509(83)80087-6
Adsorbate Nitrogen: InChIKey IJGRMHOSHXDMSA-UHFFFAOYSA-N
Temperature: 278 K
Tabular data in the source: 0
pressure (bar)	uptake (mmol/g)
0.200992	0.113617
0.373149	0.22511
0.69287	0.333323
1.02899	0.46613
1.48807	0.58746
1.91437	0.703871
2.57021	0.854714
3.25064	0.984242
3.84909	1.14
4.89843	1.28429
5.99696	1.40398
6.88234	1.49088
7.71854	1.5663
8.62032	1.62532
