Adsorption isotherm of Nitrogen on DAPO-TFB-COF
DOI: 10.1039/d0ta10785a
Article source: Figure 1A
Adsorbate Nitrogen: InChIKey IJGRMHOSHXDMSA-UHFFFAOYSA-N
Kind: experiment
Temperature: 77 K
Tabular data in the source: 0
pressure (bar)	uptake (cm3(STP)/g)
-3e-05	-1.79665
-3e-05	9.68196
-3e-05	23.8095
0.000453	36.6126
0.000936	45.0008
0.001419	57.8038
0.001419	69.2825
0.000936	82.9685
0.000936	94.8886
0.001419	106.809
0.001419	116.963
0.002385	131.532
0.002385	147.425
0.0048	160.67
0.007698	171.266
0.012527	183.186
0.02605	212.324
0.02605	212.324
0.051648	239.254
0.077245	261.77
0.100911	282.078
0.12844	291.349
0.152106	296.206
0.174805	299.296
0.201852	303.27
0.227932	305.918
0.252564	309.45
0.278644	310.333
0.301827	312.982
0.328873	314.307
0.354471	316.956
0.380551	317.397
0.405183	318.722
0.431263	320.929
0.457343	323.578
0.481009	324.902
0.505641	326.227
0.533653	327.551
0.556835	330.2
0.582916	330.642
0.60803	333.732
0.635077	334.615
0.665262	333.511
0.683857	335.056
0.708488	335.498
0.734086	338.147
0.7592	339.471
0.785764	341.237
0.80798	343.445
0.83889	346.535
0.860624	350.067
0.885739	353.157
0.910853	357.572
0.9379	359.78
0.965912	371.7
0.989094	388.035
1.00407	426.002
1.00696	457.348
1.00648	455.14
0.99489	421.588
0.989094	403.045
0.963014	373.024
0.936451	365.077
0.911336	359.78
0.885256	358.014
0.86159	356.248
0.83551	354.04
0.808946	353.157
0.785764	353.599
0.761132	351.391
0.735052	350.067
0.711386	349.184
0.68434	348.301
0.659225	347.639
0.633628	346.535
0.609479	345.211
0.580984	343.445
0.557801	342.562
0.532687	341.679
0.507572	337.264
0.481492	331.083
0.455895	327.993
0.429331	325.344
0.405183	324.019
0.379585	323.136
0.354471	321.37
0.328873	320.487
0.303276	318.722
0.278161	316.514
0.251598	315.19
0.228415	313.424
0.203301	312.099
0.178186	308.126
0.151623	304.153
0.127957	299.738
0.101394	291.791
0.075313	270.6
0.048267	249.408
0.024602	220.27
