Adsorption isotherm of Nitrogen on DAPO-TpOMe-COF
DOI: 10.1039/d0ta10785a
Article source: Figure 1A
Adsorbate Nitrogen: InChIKey IJGRMHOSHXDMSA-UHFFFAOYSA-N
Kind: experiment
Temperature: 77 K
Tabular data in the source: 0
pressure (bar)	uptake (cm3(STP)/g)
0.000936	-2.67962
-0.000996	7.91602
-0.000996	23.368
-0.000513	33.9636
-3e-05	46.7667
0.001419	59.1283
0.000453	73.6973
0.000453	82.9685
0.001177	96.4338
-3e-05	113.872
-3e-05	123.585
-3e-05	133.739
0.000936	138.596
0.002385	171.707
0.003834	195.547
0.006249	209.675
0.007698	222.478
0.010112	228.217
0.021221	262.653
0.048267	309.892
0.070967	351.833
0.073865	358.014
0.101877	385.827
0.125059	393.774
0.152106	401.721
0.176737	405.694
0.204267	410.55
0.228898	412.758
0.252564	415.407
0.278644	417.173
0.304242	421.588
0.328873	422.912
0.355437	426.444
0.380068	428.21
0.407597	429.093
0.434161	431.742
0.455412	432.183
0.482458	433.949
0.507572	435.274
0.530272	437.481
0.559733	438.805
0.582433	441.013
0.610445	441.896
0.632662	444.103
0.658259	445.428
0.685306	447.194
0.708005	448.96
0.734086	450.726
0.7592	451.167
0.785764	452.492
0.809429	455.582
0.835993	458.231
0.861107	459.555
0.885739	463.97
0.912785	469.709
0.938383	476.773
0.961565	489.576
0.986197	517.831
1.0002	558.889
1.00407	598.182
1.00696	631.293
1.006	661.314
1.00455	661.755
0.99972	620.697
0.993924	584.937
0.988129	556.682
0.973156	516.065
0.962531	504.145
0.938865	489.135
0.910853	480.305
0.887671	476.773
0.859175	472.8
0.834544	469.268
0.809912	467.943
0.783832	466.619
0.758717	463.97
0.736018	463.529
0.707522	462.204
0.683374	460.438
0.659708	459.114
0.63073	456.906
0.608996	456.465
0.584365	454.699
0.55925	456.023
0.531721	452.05
0.507089	448.077
0.480043	440.13
0.455412	435.715
0.429814	434.391
0.405183	432.625
0.378619	430.859
0.355437	428.651
0.327907	426.002
0.30231	425.119
0.277678	422.029
0.254013	418.939
0.227449	417.614
0.204267	415.407
0.175288	411.433
0.151623	405.694
0.129406	399.955
0.101877	389.359
0.075796	365.519
0.056961	330.2
0.051648	320.929
0.025084	271.924
