Adsorption isotherm of Methane on [Zn(glu)(mu-bpe)]
DOI: 10.1039/C3dt51729b
Adsorbate Methane: InChIKey VNWKTOKETHGBQD-UHFFFAOYSA-N
Temperature: 196 K
Tabular data in the source: 0
pressure (bar)	uptake (cm3(STP)/g)
0.00978986	-0.328895
0.0440544	-0.317664
0.102793	-0.298412
0.156637	-0.280764
0.205587	-0.26472
0.259432	-0.247072
0.303486	-0.564736
0.37691	-0.208567
0.430754	-0.523023
0.479703	-0.506979
0.543337	-0.486122
0.592286	-0.470079
0.63634	-0.455639
0.68529	-0.439596
0.739134	-0.421948
0.783189	-0.739612
0.837033	-0.721964
0.885982	-0.70592
0.944721	-1.01877
0.998565	-1.33323
