Adsorption isotherm of Hydrogen on [Zn(glu)(mu-bpe)]
DOI: 10.1039/C3dt51729b
Adsorbate Hydrogen: InChIKey UFHFLCQGNIYNRP-UHFFFAOYSA-N
Temperature: 77 K
Tabular data in the source: 0
pressure (bar)	uptake (cm3(STP)/g)
0.0783189	-0.306433
0.132163	0.0433178
0.176217	0.0577571
0.225166	0.405904
0.264327	0.418739
0.288801	0.0946575
0.33775	0.110701
0.484598	0.823039
0.543337	1.17439
0.582496	1.85144
0.63634	1.53698
0.695079	1.55623
0.744029	1.90438
0.788084	1.58672
0.827243	1.59955
0.876192	1.9477
0.934931	2.29905
0.988775	2.6488
