Adsorption isotherm of Carbon Dioxide on [Zn(glu)(mu-bpe)]*2H2O
DOI: 10.1039/C3dt51729b
Adsorbate Carbon Dioxide: InChIKey CURLTUGMZLYLDI-UHFFFAOYSA-N
Temperature: 243 K
Tabular data in the source: 0
pressure (bar)	uptake (cm3(STP)/g)
0.0173349	0.298175
0.0519905	0.601361
0.112669	1.79156
0.160344	2.68483
0.255707	4.76454
0.312041	5.66031
0.385725	7.14743
0.437744	8.33512
0.489762	9.52281
0.541782	10.7105
0.589483	12.1901
0.641503	13.3778
0.689206	14.8574
0.741224	16.0451
0.79327	17.8191
0.840959	19.0055
0.888662	20.4851
0.949341	21.6753
0.997043	23.1549
