Adsorption isotherm of Carbon Dioxide on [Zn(glu)(mu-bpe)]
DOI: 10.1039/C3dt51729b
Adsorbate Carbon Dioxide: InChIKey CURLTUGMZLYLDI-UHFFFAOYSA-N
Temperature: 196 K
Tabular data in the source: 0
pressure (bar)	uptake (cm3(STP)/g)
0.0195797	7.31269
0.0244746	13.6243
0.0342645	20.2695
0.0440544	26.2506
0.0783189	39.2139
0.107688	44.205
0.141953	47.2052
0.166427	48.8737
0.220271	50.5519
0.274116	50.9017
0.323066	51.5819
0.381805	52.5975
0.435649	52.9472
0.484598	53.2954
0.528652	53.3098
0.587391	53.6612
0.63634	54.3414
0.68529	54.3575
0.719554	69.3133
0.778294	72.9857
0.827243	74.3302
0.876192	75.3425
0.939826	76.0276
0.988775	76.3757
