Adsorption isotherm of Carbon Dioxide on [Zn(glu)(mu-bpe)]*2H2O
DOI: 10.1039/C3dt51729b
Adsorbate Carbon Dioxide: InChIKey CURLTUGMZLYLDI-UHFFFAOYSA-N
Temperature: 196 K
Tabular data in the source: 0
pressure (bar)	uptake (cm3(STP)/g)
0.0311009	7.72532
0.0373211	13.9056
0.0497614	20.0858
0.0559816	27.0386
0.0933027	39.0129
0.124404	44.0343
0.161724	47.1245
0.199046	48.6695
0.248808	50.6009
0.311009	51.3734
0.366991	52.1459
0.416752	52.5322
0.478954	52.9185
0.528715	53.3047
0.590917	53.3047
0.640679	53.3047
0.69666	54.0773
0.752642	54.4635
0.789963	69.5279
0.845945	72.618
0.908146	74.1631
0.970348	74.9356
1.02011	75.7082
1.08231	76.0944
