Adsorption isotherm of Carbon Dioxide on [Zn(glu)(mu-bpe)]*2H2O
DOI: 10.1039/C3dt51729b
Adsorbate Carbon Dioxide: InChIKey CURLTUGMZLYLDI-UHFFFAOYSA-N
Temperature: 196 K
Tabular data in the source: 0
pressure (bar)	uptake (cm3(STP)/g)
0.00442893	2.0534
0.0220176	7.62852
0.0309602	13.4943
0.0356147	20.2383
0.0489297	26.9848
0.0798335	39.3065
0.106026	43.7115
0.140837	47.2394
0.171233	49.0072
0.22328	50.7812
0.2796	51.3838
0.322945	52.2758
0.383581	52.5866
0.435558	52.8947
0.483204	53.2017
0.53518	53.5099
0.58717	54.1113
0.634803	54.125
0.686793	54.7264
0.717824	69.6865
0.774272	72.9276
0.830621	74.1165
0.882625	75.0111
0.93463	75.9056
0.986606	76.2138
