Adsorption isotherm of Nitrogen on [Zn(glu)(mu-bpe)]
DOI: 10.1039/C3dt51729b
Adsorbate Nitrogen: InChIKey IJGRMHOSHXDMSA-UHFFFAOYSA-N
Temperature: 77 K
Tabular data in the source: 0
pressure (bar)	uptake (cm3(STP)/g)
0.391594	1.12466
0.440544	1.1407
0.479703	1.48564
0.538442	1.50489
0.587391	1.85304
0.631445	2.19958
0.68529	2.54933
0.744029	2.90069
0.792979	3.58094
0.841928	3.59698
0.890877	4.94144
0.939826	6.2859
0.978986	10.6161
1.00346	16.602
