Adsorption isotherm of Carbon Dioxide on [Zn(glu)(mu-bpe)]*2H2O
DOI: 10.1039/C3dt51729b
Adsorbate Carbon Dioxide: InChIKey CURLTUGMZLYLDI-UHFFFAOYSA-N
Temperature: 298 K
Tabular data in the source: 0
pressure (bar)	uptake (cm3(STP)/g)
0.112104	0.618754
0.163845	0.633724
0.211274	0.647446
0.263013	0.369256
0.310443	0.676138
0.388053	0.698593
0.435482	1.00548
0.487222	0.727285
0.538963	0.742255
0.586391	0.755978
0.638132	0.477788
0.689872	0.492758
0.741613	0.800887
0.789041	0.814609
0.83647	0.535172
0.892522	0.55139
0.944263	0.566359
0.991691	0.580082
