Adsorption isotherm of Carbon Dioxide on [Zn(glu)(mu-bpe)]*2H2O
DOI: 10.1039/C3dt51729b
Adsorbate Carbon Dioxide: InChIKey CURLTUGMZLYLDI-UHFFFAOYSA-N
Temperature: 273 K
Tabular data in the source: 0
pressure (bar)	uptake (cm3(STP)/g)
0.0517404	0.308129
0.107793	0.617506
0.159533	0.632476
0.211274	0.647446
0.258702	0.954328
0.310443	0.969298
0.388053	1.28491
0.435482	1.59179
0.482911	1.31236
0.534652	1.32733
0.586391	1.63546
0.63382	1.64918
0.685561	1.95731
0.737301	1.67912
0.78473	1.986
0.83647	2.00097
0.883898	2.01469
0.939951	1.73775
0.98738	1.75147
