Adsorption isotherm of Nitrogen on Ni3(HCOO)6
DOI: 10.1016/j.cej.2017.06.141
Article source: Figure 4
Adsorbate Nitrogen: InChIKey IJGRMHOSHXDMSA-UHFFFAOYSA-N
Kind: experiment
Temperature: 298 K
Tabular data in the source: 0
pressure (bar)	uptake (mmol/g)
0.108	0.0238
0.159	0.0318
0.21	0.0378
0.263	0.0477
0.315	0.0576
0.367	0.0646
0.419	0.0735
0.471	0.0835
0.523	0.0924
0.575	0.1
0.627	0.109
0.682	0.118
0.731	0.125
0.782	0.133
0.834	0.143
0.886	0.151
0.938	0.159
0.958	0.162
0.97	0.164
0.989	0.167
1	0.169
1.02	0.172
1.04	0.174
