Adsorption isotherm of Methane on Ni3(HCOO)6
DOI: 10.1016/j.cej.2017.06.141
Article source: Figure 4
Adsorbate Methane: InChIKey VNWKTOKETHGBQD-UHFFFAOYSA-N
Kind: experiment
Temperature: 298 K
Tabular data in the source: 0
pressure (bar)	uptake (mmol/g)
0.0219	0.0278
0.0319	0.0397
0.042	0.0507
0.0526	0.0586
0.104	0.111
0.156	0.164
0.209	0.216
0.26	0.266
0.312	0.313
0.365	0.357
0.416	0.398
0.468	0.444
0.52	0.486
0.572	0.525
0.624	0.56
0.675	0.598
0.729	0.633
0.781	0.666
0.833	0.7
0.884	0.731
0.937	0.763
0.957	0.773
0.968	0.778
0.988	0.791
1	0.798
1.02	0.808
1.04	0.817
