Adsorption isotherm of Water on Na-ZSM-5
DOI: 10.1021/acs.jpcc.5b06660
Article source: Figure 4a
Adsorbate Water: InChIKey XLYOFNOQVPJJNP-UHFFFAOYSA-N
Kind: experiment
Temperature: 298 K
Tabular data in the source: 0
pressure (bar)	uptake (mmol/g)
0	1
0.000168	4.97
0.000253	5.51
0.00059	6.37
0.001095	6.85
0.0016	6.99
0.003201	7.52
0.006317	8
0.009434	8.25
0.012634	8.51
0.015751	8.69
0.018951	8.78
0.021983	8.87
0.025184	9.06
0.028301	9.06
0.031501	9.06
