Adsorption isotherm of Nitrogen on MIL-100
DOI: 10.1021/acs.jpcc.5b06660
Article source: Figure 3
Adsorbate Nitrogen: InChIKey IJGRMHOSHXDMSA-UHFFFAOYSA-N
Kind: experiment
Temperature: 77 K
Tabular data in the source: 0
pressure (bar)	uptake (mmol/g)
0	0
0.002807	12.2222
0.005614	17.0833
0.00842	17.9167
0.011227	18.75
0.019648	20.8333
0.042102	23.1944
0.058942	24.4444
0.081397	25.5556
0.101044	26.6667
0.202089	28.6111
0.303133	28.8889
0.406984	29.1667
0.513642	29.0278
0.609073	29.3056
0.712924	29.3056
0.811161	29.4444
0.915012	29.5833
1.01606	29.5833
