Adsorption isotherm of Water on MIL-100(Cr)
DOI: 10.1021/acs.jpcc.5b06660
Article source: Figure 4c
Adsorbate Water: InChIKey XLYOFNOQVPJJNP-UHFFFAOYSA-N
Kind: experiment
Temperature: 298 K
Tabular data in the source: 0
pressure (bar)	uptake (mmol/g)
0	0
0.000504	1.35135
0.000924	2.02703
0.001512	2.7027
0.003108	3.6036
0.006384	5.40541
0.009408	6.53153
0.012684	8.78378
0.015709	11.2613
0.018817	19.5946
0.022009	27.4775
0.025117	29.5045
0.028225	38.7387
0.031417	42.7928
