Adsorption isotherm of Nitrogen on ZSM-5
DOI: 10.1021/acs.jpcc.5b06660
Article source: Figure 3
Adsorbate Nitrogen: InChIKey IJGRMHOSHXDMSA-UHFFFAOYSA-N
Kind: experiment
Temperature: 77 K
Tabular data in the source: 0
pressure (bar)	uptake (mmol/g)
0	0
0.002488	3.33333
0.007982	4.44444
0.052715	5
0.07512	4.86111
0.10591	4.86111
0.206661	5
0.304629	5
0.40538	5.13889
0.508944	5.13889
0.606924	5
0.707689	5
0.808441	5.13889
0.912018	5
1.01277	5.13889
