Adsorption isotherm of Nitrogen on MCM-41
DOI: 10.1021/acs.jpcc.5b06660
Article source: Figure 3
Adsorbate Nitrogen: InChIKey IJGRMHOSHXDMSA-UHFFFAOYSA-N
Kind: experiment
Temperature: 77 K
Tabular data in the source: 0
pressure (bar)	uptake (mmol/g)
0	0
0.013995	8.88889
0.050383	9.72222
0.083971	10.4167
0.103564	11.1111
0.204329	12.7778
0.254712	17.3611
0.302296	18.1944
0.307893	14.7222
0.324688	19.0278
0.405859	20.5556
0.503826	21.3889
0.601792	22.2222
0.710954	23.0556
0.808921	23.3333
0.912484	23.4722
1.01325	23.75
