Adsorption isotherm of Water on MCM-41
DOI: 10.1021/acs.jpcc.5b06660
Article source: Figure 4b
Adsorbate Water: InChIKey XLYOFNOQVPJJNP-UHFFFAOYSA-N
Kind: experiment
Temperature: 298 K
Tabular data in the source: 0
pressure (bar)	uptake (mmol/g)
0	0
0.002346	1.06284
0.003267	1.05758
0.006283	1.75785
0.009467	2.63653
0.012567	3.15695
0.015499	4.39581
0.018934	6.70804
0.022034	10.4572
0.023626	22.1073
0.02505	25.6866
0.028233	30.6908
0.031333	32.1081
