Adsorption isotherm of Nitrogen on CuBTC
DOI: 10.5012/bkcs.2009.30.12.2921
Adsorbate Nitrogen: InChIKey IJGRMHOSHXDMSA-UHFFFAOYSA-N
Temperature: 77 K
Tabular data in the source: 0
pressure (bar)	uptake (cm3(STP)/g)
0.00837971	251.104
0.0280436	258.751
0.0782957	268.583
0.148212	272.953
0.233422	276.23
0.325186	276.23
0.410397	275.138
0.495607	276.23
0.611405	275.138
0.722834	272.953
0.836447	272.953
0.943506	270.768
0.985018	271.861
