Adsorption isotherm of Nitrogen on CuBTC
DOI: 10.5012/bkcs.2009.30.12.2921
Adsorbate Nitrogen: InChIKey IJGRMHOSHXDMSA-UHFFFAOYSA-N
Temperature: 77 K
Tabular data in the source: 0
pressure (bar)	uptake (cm3(STP)/g)
0.00837971	210.684
0.0651864	218.331
0.121993	224.886
0.187539	227.071
0.320817	229.256
0.390733	230.348
0.504346	227.071
0.607035	228.163
0.746867	225.978
0.832077	225.978
0.906363	228.163
0.932581	231.44
0.9588	239.087
0.995943	243.457
