Adsorption isotherm of Nitrogen on CuBTC
DOI: 10.5012/bkcs.2009.30.12.2921
Adsorbate Nitrogen: InChIKey IJGRMHOSHXDMSA-UHFFFAOYSA-N
Temperature: 77 K
Tabular data in the source: 0
pressure (bar)	uptake (cm3(STP)/g)
0.00837971	258.751
0.0149343	270.768
0.0608167	282.785
0.104514	288.247
0.172245	293.709
0.261825	298.079
0.325186	298.079
0.458464	301.356
0.569892	303.541
0.679136	304.634
0.792749	307.911
0.904178	310.096
0.95006	314.466
0.971909	329.76
0.989388	373.457
