Adsorption isotherm of Carbon Dioxide on Cd-PBM
DOI: 10.1039/C3dt53133c
Adsorbate Carbon Dioxide: InChIKey CURLTUGMZLYLDI-UHFFFAOYSA-N
Temperature: 195 K
Tabular data in the source: 0
pressure (bar)	uptake (cm3(STP)/g)
0.00244835	0.720461
0.0171385	1.72911
0.0220351	2.88184
0.0269318	4.03458
0.0342769	5.4755
0.0367252	6.62824
0.0416219	7.92507
0.0514153	9.65418
0.0538637	11.0951
0.056312	12.3919
0.0612088	13.6888
0.063657	14.9856
0.0685538	15.8501
0.0710021	16.8588
0.0783471	17.8674
0.0856922	19.0202
0.0954856	20.0288
0.102831	21.4697
0.119969	23.0548
0.139556	23.7752
0.149349	24.3516
0.176281	25.9366
0.220351	27.2334
0.259525	27.9539
0.320734	29.5389
0.374597	30.4035
0.426013	31.4121
0.479876	32.4207
0.523946	33.5735
0.587604	34.7262
0.624329	35.879
0.685538	36.8876
0.722263	37.7522
0.795714	39.049
0.832439	39.9135
0.876509	40.4899
0.94996	41.7867
0.991581	42.6513
