Adsorption isotherm of Carbon Dioxide on BFG@Cd-PBM
DOI: 10.1039/C3dt53133c
Adsorbate Carbon Dioxide: InChIKey CURLTUGMZLYLDI-UHFFFAOYSA-N
Temperature: 195 K
Tabular data in the source: 0
pressure (bar)	uptake (cm3(STP)/g)
0.0387017	0.958904
0.0668953	2.19178
0.0951371	3.9726
0.105814	5.61644
0.130436	6.16438
0.183168	6.9863
0.242995	8.63014
0.281684	9.45205
0.344961	10.411
0.397693	11.2329
0.460993	12.4658
0.527865	14.3836
0.570174	16.4384
0.612518	18.9041
0.651327	21.0959
0.693624	23.0137
0.746453	24.9315
0.802804	26.9863
0.841578	28.7671
0.93312	31.7808
0.999967	33.4247
