Adsorption isotherm of Methanol on Cd-PBM
DOI: 10.1039/C3dt53133c
Adsorbate Methanol: InChIKey OKKJLVBELUTLKV-UHFFFAOYSA-N
Temperature: 293 K
Tabular data in the source: 0
pressure (bar)	uptake (cm3(STP)/g)
0.00165026	4.10256
0.00275043	8.20513
0.00330051	13.8462
0.00385059	36.4103
0.00495077	42.0513
0.00605094	45.641
0.00880136	48.7179
0.0115518	49.7436
0.0159524	51.2821
0.0187029	51.7949
0.0220034	52.8205
0.025304	53.3333
0.0280543	54.359
0.031905	54.8718
0.0346553	55.3846
0.0374058	55.3846
0.0412564	56.9231
0.045107	57.4359
0.0484075	57.9487
0.051708	58.9744
0.0550085	59.4872
0.0588591	60
0.0627097	61.5385
0.0654601	62.0513
0.0693107	62.0513
0.071511	63.0769
0.0759117	63.5897
0.0786622	64.1026
0.0830628	64.6154
0.0852631	65.1282
0.0902139	66.6667
0.0935144	68.7179
0.0951647	70.2564
0.096815	75.3846
0.0990153	80.5128
0.102316	83.5897
0.104516	86.1538
0.107817	89.7436
0.111117	92.3077
0.114968	94.8718
0.118818	96.9231
