Adsorption isotherm of Carbon Dioxide on GO@Cd-PBM
DOI: 10.1039/C3dt53133c
Adsorbate Carbon Dioxide: InChIKey CURLTUGMZLYLDI-UHFFFAOYSA-N
Temperature: 195 K
Tabular data in the source: 0
pressure (bar)	uptake (cm3(STP)/g)
0.0141149	0.821918
0.024707	1.50685
0.0423205	2.19178
0.0634567	3.0137
0.0846171	4.10959
0.0987199	4.79452
0.158498	5.89041
0.218264	6.84932
0.274543	8.08219
0.351885	9.31507
0.387004	9.45205
0.436262	10.6849
0.478463	11.5068
0.545262	12.6027
0.622761	15.6164
0.668569	17.5342
0.707319	19.0411
0.742558	20.5479
0.795386	22.4658
0.851713	24.2466
0.890463	25.7534
0.943303	27.8082
0.985576	29.4521
