Adsorption isotherm of Methanol on GO@Cd-PBM
DOI: 10.1039/C3dt53133c
Adsorbate Methanol: InChIKey OKKJLVBELUTLKV-UHFFFAOYSA-N
Temperature: 293 K
Tabular data in the source: 0
pressure (bar)	uptake (cm3(STP)/g)
0.00155146	9.64467
0.00260188	19.2893
0.00465694	29.4416
0.00770136	37.0558
0.0112265	40.6091
0.0162522	43.6548
0.0212804	47.2081
0.0247954	48.731
0.0283104	50.2538
0.032329	52.2843
0.0353404	53.2995
0.0418667	55.8376
0.0483955	58.8832
0.0579383	63.4518
0.0699991	70.5584
0.0760243	73.0964
0.0840639	77.665
0.0966257	84.7716
0.101651	87.8173
0.107679	90.8629
0.115711	93.9086
