Adsorption isotherm of Methanol on BFG@Cd-PBM
DOI: 10.1039/C3dt53133c
Adsorbate Methanol: InChIKey OKKJLVBELUTLKV-UHFFFAOYSA-N
Temperature: 293 K
Tabular data in the source: 0
pressure (bar)	uptake (cm3(STP)/g)
0.00206268	11.6751
0.00311056	20.8122
0.00366501	31.4721
0.00822276	41.1168
0.0112443	44.1624
0.0147695	47.7157
0.0167812	49.2386
0.0213009	51.269
0.0248183	53.2995
0.0273287	54.3147
0.0323493	56.3452
0.0358617	57.3604
0.041887	59.8985
0.0474086	61.9289
0.0559417	64.9746
0.0629691	67.5127
0.078026	72.5888
0.0890871	80.203
0.0956389	87.8173
0.101173	92.3858
0.107214	97.9695
