Adsorption isotherm of Carbon Tetrafluoride on CuBTC
DOI: 10.1016/j.micromeso.2012.08.002
Adsorbate Carbon Tetrafluoride: InChIKey TXEYQDLBPFQVAA-UHFFFAOYSA-N
Temperature: 118 K
Tabular data in the source: 0
pressure (bar)	uptake (mmol/g)
5.91e-06	0.33815
1.47e-05	0.473361
2.63e-05	0.698713
3.54e-05	0.90153
5.16e-05	1.23956
7.04e-05	1.57759
8.34e-05	1.91561
9.37e-05	2.29871
0.000105	2.83956
0.000128	3.74097
0.000137	4.01139
0.000159	4.55223
0.000242	5.10435
0.00038	5.43111
0.000554	5.63392
0.000919	5.80294
0.00363498	5.91562
0.00536434	6.06209
0.00901298	6.21984
