Adsorption isotherm of Argon on CuBTC
DOI: 10.1016/j.micromeso.2012.08.002
Adsorbate Argon: InChIKey XKRFYHLGVUSROY-UHFFFAOYSA-N
Temperature: 300 K
Tabular data in the source: 0
pressure (bar)	uptake (mmol/g)
0.966278	0.237779
1.85469	0.437999
2.54428	0.623917
3.38834	0.981453
4.7409	1.15307
7.25019	1.81094
8.57604	2.13987
19.2798	3.92755
28.6233	5.38629
39.6555	6.65912
49.7718	7.68882
57.7218	8.57551
68.2774	9.33349
79.9694	9.99135
90.0345	10.4204
97.4389	11.1069
