Adsorption isotherm of Argon on CuBTC
DOI: 10.1016/j.micromeso.2012.08.002
Adsorbate Argon: InChIKey XKRFYHLGVUSROY-UHFFFAOYSA-N
Temperature: 300 K
Tabular data in the source: 0
pressure (bar)	uptake (mmol/g)
0.104654	0.00534575
0.513469	0.15197
1.02529	0.380793
5.23318	1.33899
10.0446	2.22568
20.256	3.79883
30.0726	4.95725
39.6555	5.90114
50.765	6.54471
70.3312	7.4457
80.7633	7.71743
95.5326	8.03206
