Adsorption isotherm of Argon on CuBTC
DOI: 10.1016/j.micromeso.2012.08.002
Adsorbate Argon: InChIKey XKRFYHLGVUSROY-UHFFFAOYSA-N
Temperature: 300 K
Tabular data in the source: 0
pressure (bar)	uptake (mmol/g)
3.8148	0.909946
7.92435	1.66792
12.3604	2.34009
15.9803	3.01226
19.4712	3.4413
23.4915	3.85604
26.9759	4.29938
30.0726	4.58541
34.8761	4.82854
40.8484	5.30048
46.4462	5.64372
53.3355	5.90114
58.2948	6.11567
