Adsorption isotherm of Carbon Tetrafluoride on CuBTC
DOI: 10.1016/j.micromeso.2012.08.002
Adsorbate Carbon Tetrafluoride: InChIKey TXEYQDLBPFQVAA-UHFFFAOYSA-N
Temperature: 300 K
Tabular data in the source: 0
pressure (bar)	uptake (mmol/g)
0.104654	0.15197
0.518567	0.538109
0.704382	0.709726
1.03546	0.981453
2.04727	1.66792
3.0696	2.21138
4.04776	2.58321
5.08036	2.92645
7.17892	3.39839
10.0446	3.87034
51.269	3.99905
