Adsorption isotherm of Carbon Tetrafluoride on CuBTC
DOI: 10.1016/j.micromeso.2012.08.002
Adsorbate Carbon Tetrafluoride: InChIKey TXEYQDLBPFQVAA-UHFFFAOYSA-N
Temperature: 118 K
Tabular data in the source: 0
pressure (bar)	uptake (mmol/g)
2.32e-06	0.0113896
9.93e-06	0.0677276
1.9e-05	0.191671
8.45e-05	1.40857
0.000159	3.08745
0.000664	6.5466
0.00120678	7.01984
0.00536434	7.56069
0.00986973	7.74097
