Adsorption isotherm of Deuterium on CuBOTf
DOI: 10.1021/Ja077469f
Adsorbate Deuterium: InChIKey UFHFLCQGNIYNRP-VVKOMZTBSA-N
Temperature: 77 K
Tabular data in the source: 0
pressure (bar)	uptake (mmol/g)
7.17993e-05	0.0157729
0.000181547	8.88e-16
0.000226423	0.0157729
0.000420243	8.88e-16
0.00097277	0.0315457
0.00201632	0.0788644
0.00521231	0.189274
0.00905378	0.299685
0.0214259	0.583596
0.0464162	1.00946
0.0754571	1.4511
0.105095	1.75079
0.136991	2.01893
0.182554	2.33438
0.277744	2.80757
0.40431	3.21767
0.527015	3.56467
0.615133	3.70662
0.671952	3.81703
0.80182	3.97476
0.856749	4.11672
0.956787	4.19558
