Adsorption isotherm of Hydrogen on CuBOTf
DOI: 10.1021/Ja077469f
Adsorbate Hydrogen: InChIKey UFHFLCQGNIYNRP-UHFFFAOYSA-N
Temperature: 40 K
Tabular data in the source: 0
pressure (bar)	uptake (mmol/g)
0.00622468	1.54136
0.00658899	0.226928
0.00797086	3.24115
0.0386294	4.62498
0.193587	5.53852
0.395214	6.0689
0.525926	6.4601
0.670023	6.55728
0.785277	6.72115
0.902767	6.81712
1.00252	6.9123
