Adsorption isotherm of Nitrogen on CuBOTf
DOI: 10.1021/Ja077469f
Adsorbate Nitrogen: InChIKey IJGRMHOSHXDMSA-UHFFFAOYSA-N
Temperature: 77 K
Tabular data in the source: 0
pressure (bar)	uptake (mmol/g)
1.30624e-08	0.203562
1.63125e-08	0.284987
2.19387e-08	0.366412
2.84316e-08	0.447837
3.5506e-08	0.529262
4.43355e-08	0.651399
5.96104e-08	0.854962
7.44358e-08	0.977099
1.0006e-07	1.26209
1.29653e-07	1.42494
1.67912e-07	1.79135
2.09634e-07	1.99491
2.71551e-07	2.2799
3.38986e-07	2.52417
4.39028e-07	2.89059
5.08946e-07	3.09415
7.09793e-07	3.50127
8.22833e-07	3.70483
1.14776e-06	4.03053
1.43308e-06	4.19338
1.85653e-06	4.43766
2.31804e-06	4.60051
3.00381e-06	4.72265
3.89208e-06	4.8855
5.04257e-06	5.08906
6.7805e-06	5.25191
9.11742e-06	5.41476
1.09696e-05	5.57761
1.42148e-05	5.69975
1.77501e-05	5.82188
2.47663e-05	6.02545
2.98004e-05	6.14758
4.15807e-05	6.35115
4.82161e-05	6.43257
8.09658e-05	6.67684
0.000117247	6.83969
0.000189737	7.04326
0.000307045	7.24682
0.000668454	7.40967
0.00145523	7.57252
0.00294172	7.73537
0.00458862	7.81679
0.00715817	7.85751
0.0120257	7.89822
0.0225794	7.93893
0.0423947	7.97964
0.0857239	8.02036
0.138778	8.06107
0.241974	8.06107
0.391689	8.14249
0.633979	8.26463
0.852399	8.46819
