Adsorption isotherm of Hydrogen on CuBOTf
DOI: 10.1021/Ja077469f
Adsorbate Hydrogen: InChIKey UFHFLCQGNIYNRP-UHFFFAOYSA-N
Temperature: 40 K
Tabular data in the source: 0
pressure (bar)	uptake (mmol/g)
0.00853616	1.20152
0.0126755	2.26686
0.032298	3.46889
0.17382	4.85774
0.379963	5.09371
0.508527	5.23551
0.657052	5.35556
0.781194	5.45184
0.898684	5.54782
0.998442	5.62033
