Adsorption isotherm of Hydrogen on CuBOTf
DOI: 10.1021/Ja077469f
Adsorbate Hydrogen: InChIKey UFHFLCQGNIYNRP-UHFFFAOYSA-N
Temperature: 40 K
Tabular data in the source: 0
pressure (bar)	uptake (mmol/g)
0.00410111	1.5641
0.00673805	0.282051
0.0127258	3.20513
0.0373325	4.58974
0.191616	5.51282
0.393735	6.05128
0.525452	6.41026
0.668604	6.51282
0.78447	6.66667
0.895819	6.71795
0.998048	6.87179
