Adsorption isotherm of Hydrogen on CuBOTf
DOI: 10.1021/Ja077469f
Adsorbate Hydrogen: InChIKey UFHFLCQGNIYNRP-UHFFFAOYSA-N
Temperature: 40 K
Tabular data in the source: 0
pressure (bar)	uptake (mmol/g)
0.00346737	3.79487
0.00413753	1.4359
0.00763403	5.12821
0.00985577	5.30769
0.0166084	5.53846
0.0301865	5.74359
0.0483173	5.92308
0.0687354	6.05128
0.0891608	6.15385
0.109586	6.25641
0.13911	6.33333
0.159543	6.41026
0.182263	6.4359
0.204975	6.48718
0.22315	6.51282
0.245862	6.5641
0.26859	6.5641
0.28903	6.61538
0.311757	6.61538
0.334477	6.64103
0.364015	6.66667
0.386742	6.66667
0.40947	6.66667
0.43219	6.69231
0.45491	6.71795
0.477637	6.71795
0.500364	6.71795
0.520811	6.74359
0.543539	6.74359
0.566266	6.74359
0.588986	6.76923
0.611713	6.76923
0.634433	6.79487
0.657153	6.82051
0.679881	6.82051
0.700328	6.84615
0.723055	6.84615
0.745782	6.84615
0.76851	6.84615
0.79351	6.84615
0.816237	6.84615
0.838964	6.84615
0.861691	6.84615
0.882146	6.84615
0.913964	6.84615
0.936691	6.84615
0.959419	6.84615
0.982146	6.84615
