Adsorption isotherm of Deuterium on CuBOTf
DOI: 10.1021/Ja077469f
Adsorbate Deuterium: InChIKey UFHFLCQGNIYNRP-VVKOMZTBSA-N
Temperature: 40 K
Tabular data in the source: 0
pressure (bar)	uptake (mmol/g)
0.0022779	0.692308
0.047836	6.23077
0.198178	6.79487
0.3918	7.17949
0.517084	7.30769
0.656036	7.61538
0.781321	7.79487
0.883827	7.94872
1	8
