Adsorption isotherm of Hydrogen on CuBOTf
DOI: 10.1021/Ja077469f
Adsorbate Hydrogen: InChIKey UFHFLCQGNIYNRP-UHFFFAOYSA-N
Temperature: 77 K
Tabular data in the source: 0
pressure (bar)	uptake (mmol/g)
0.00165284	0.0157729
0.00251466	0.0315457
0.00427268	0.0946372
0.0171795	0.44164
0.0273181	0.630915
0.0372169	0.835962
0.0529932	1.07256
0.0646472	1.24606
0.086149	1.49842
0.105095	1.65615
0.119988	1.81388
0.14005	2.00315
0.17085	2.16088
0.208423	2.39748
0.243271	2.57098
0.310175	2.82334
0.354129	2.98107
0.41334	3.15457
0.471912	3.29653
0.575694	3.53312
0.702301	3.75394
0.838034	3.92744
0.978155	4.08517
