Adsorption isotherm of Deuterium on CuBOTf
DOI: 10.1021/Ja077469f
Adsorbate Deuterium: InChIKey UFHFLCQGNIYNRP-VVKOMZTBSA-N
Temperature: 77 K
Tabular data in the source: 0
pressure (bar)	uptake (mmol/g)
0.000189749	8.88e-16
0.00129631	0.0157729
0.00240597	0.0630915
0.00408799	0.126183
0.00694592	0.205047
0.00967409	0.315457
0.0112917	0.378549
0.0140825	0.457413
0.0183565	0.583596
0.0228934	0.694006
0.0305077	0.835962
0.0388982	0.993691
0.0518358	1.19874
0.0632354	1.40379
0.0771418	1.56151
0.086149	1.6877
0.0983581	1.82965
0.109842	1.95584
0.128208	2.12934
0.146375	2.25552
0.17085	2.46057
0.19506	2.58675
0.217836	2.71293
0.248704	2.88644
0.277744	3.01262
0.310175	3.1388
0.378389	3.40694
0.504241	3.76972
0.588551	3.92744
0.671952	4.0694
0.80182	4.25868
0.956787	4.46372
