Adsorption isotherm of Deuterium on CuBOTf
DOI: 10.1021/Ja077469f
Adsorbate Deuterium: InChIKey UFHFLCQGNIYNRP-VVKOMZTBSA-N
Temperature: 40 K
Tabular data in the source: 0
pressure (bar)	uptake (mmol/g)
0.00318328	4.79487
0.00364219	3.17949
0.003919	2.20513
0.00415938	1.35897
0.0043852	0.564103
0.00745921	5.74359
0.00758304	5.30769
0.0141608	6.15385
0.0254735	6.33333
0.0390443	6.5641
0.0594478	6.74359
0.082146	6.84615
0.104844	6.94872
0.13436	7.05128
0.163891	7.10256
0.211597	7.17949
0.254779	7.17949
0.297931	7.28205
0.359295	7.28205
0.418378	7.30769
0.491098	7.33333
0.550182	7.35897
0.627462	7.33333
0.688818	7.35897
0.761538	7.38462
0.818364	7.35897
0.861538	7.38462
0.916084	7.38462
0.95472	7.38462
0.995629	7.38462
