Adsorption isotherm of Hydrogen/Deuterium Mixture on CuBOTf
DOI: 10.1021/Ja077469f
Adsorbate Hydrogen/Deuterium Mixture: InChIKey NIST-ISODB-FD90E2D29941002F3BA4
Temperature: 77 K
Tabular data in the source: 0
pressure (bar)	uptake (mmol/g)
0.000625403	8.88e-16
0.000833412	0.0157729
0.00138513	0.0473186
0.00206134	0.0788644
0.00300068	0.11041
0.00399871	0.157729
0.00569377	0.22082
0.00828839	0.315457
0.0108036	0.425868
0.0128917	0.504732
0.0153833	0.599369
0.0183565	0.694006
0.0219043	0.788644
0.0255664	0.899054
0.0298415	1.00946
0.035609	1.11987
0.0406546	1.24606
0.0474526	1.35647
0.0541764	1.48265
0.0618543	1.60883
0.0706187	1.73502
0.0788642	1.87697
0.0880724	2.00315
0.0983581	2.14511
0.112295	2.27129
0.125407	2.41325
0.14005	2.53943
0.156403	2.68139
0.174665	2.82334
0.190799	2.9653
0.217836	3.09148
0.243271	3.23344
0.271677	3.35962
0.296771	3.50158
0.331424	3.64353
0.370122	3.78549
0.41334	3.92744
0.461603	4.05363
0.515502	4.19558
0.575694	4.32177
0.642914	4.46372
0.717984	4.58991
0.819727	4.73186
0.935886	4.85804
