Adsorption isotherm of Hydrogen on CuBOTf
DOI: 10.1021/Ja077469f
Adsorbate Hydrogen: InChIKey UFHFLCQGNIYNRP-UHFFFAOYSA-N
Temperature: 77 K
Tabular data in the source: 0
pressure (bar)	uptake (mmol/g)
8.19728e-05	0.0157729
0.000231478	0.0157729
0.000547785	0.0157729
0.00116078	0.0315457
0.00251466	0.0788644
0.00650055	0.173502
0.0108036	0.268139
0.0250081	0.55205
0.0529932	0.946372
0.086149	1.30915
0.114803	1.57729
0.156403	1.79811
0.19506	2.05047
0.296771	2.47634
0.42257	2.82334
0.538784	3.07571
0.62887	3.26498
0.784303	3.43849
0.875883	3.58044
0.978155	3.67508
