Adsorption isotherm of Argon on {[Cd4(azpy)2-(pyrdc)4(H2O)2]}
DOI: 10.1039/C1cc11416f
Adsorbate Argon: InChIKey XKRFYHLGVUSROY-UHFFFAOYSA-N
Temperature: 195 K
Tabular data in the source: 0
pressure (bar)	uptake (cm3(STP)/g)
0.0337579	0.0187101
0.0909636	0.0313449
0.203945	0.18151
0.35268	0.131455
0.45279	0.231565
0.497124	0.18151
0.548609	0.18151
0.597234	0.231565
0.641569	0.231565
0.691624	0.18151
0.786013	0.0313449
0.877542	0.0687651
0.931888	0.11882
0.979082	0.268985
