Adsorption isotherm of Oxygen on {[Cd4(azpy)2-(pyrdc)4(H2O)2]}
DOI: 10.1039/C1cc11416f
Adsorbate Oxygen: InChIKey MYMOFIZGZYHOMD-UHFFFAOYSA-N
Temperature: 195 K
Tabular data in the source: 0
pressure (bar)	uptake (cm3(STP)/g)
0.0180263	0.531895
0.0809526	0.732115
0.0995445	0.78217
0.15389	0.78217
0.198224	0.98239
0.261151	0.98239
0.312636	1.28272
0.419897	1.48294
0.524297	1.63311
0.571492	1.98349
0.615826	2.0836
0.718796	2.28382
0.813186	2.48404
0.906145	2.68426
0.946189	2.88448
0.997674	2.98459
