Adsorption isotherm of Ethanol on {[Cd4(azpy)2-(pyrdc)4(H2O)2]}
DOI: 10.1039/C1cc11416f
Adsorbate Ethanol: InChIKey LFQSCWFLJHTTHZ-UHFFFAOYSA-N
Temperature: 298 K
Tabular data in the source: 0
pressure (bar)	uptake (cm3(STP)/g)
0.0509196	3.95094
0.0637909	11.9597
0.0738019	23.6869
0.0838129	28.4064
0.148169	35.4141
0.178202	39.4185
0.229687	42.9938
0.311206	45.2821
0.418466	46.9982
0.531448	49.5725
0.665881	53.0048
0.810326	56.8662
