Adsorption isotherm of Carbon Dioxide on {[Cd4(azpy)2-(pyrdc)4(H2O)2]}
DOI: 10.1039/C1cc11416f
Adsorbate Carbon Dioxide: InChIKey CURLTUGMZLYLDI-UHFFFAOYSA-N
Temperature: 195 K
Tabular data in the source: 0
pressure (bar)	uptake (cm3(STP)/g)
0.000865	0.18151
0.00372489	2.13366
0.00515504	7.94004
0.00658518	14.1969
0.0165962	16.5996
0.0323278	20.7541
0.0537799	23.7074
0.100975	27.4114
0.126717	28.1623
0.203945	29.5638
0.306915	30.5148
0.412746	31.4659
0.522867	32.0665
0.620117	32.0165
0.728807	32.2668
0.836068	32.5671
0.939038	32.8174
0.999104	32.9675
