Adsorption isotherm of Hydrogen on {[Cd4(azpy)2-(pyrdc)4(H2O)2]}
DOI: 10.1039/C1cc11416f
Adsorbate Hydrogen: InChIKey UFHFLCQGNIYNRP-UHFFFAOYSA-N
Temperature: 195 K
Tabular data in the source: 0
pressure (bar)	uptake (cm3(STP)/g)
0.0123058	0.0313449
0.0223168	0.0313449
0.0494895	0.0313449
0.145309	0.131455
0.245419	0.28162
0.346959	0.48184
0.434198	0.832225
0.537168	0.932335
0.590084	1.13256
0.683043	1.38283
0.737388	1.48294
0.840359	1.78327
0.926167	2.03355
0.980513	2.18371
