Adsorption isotherm of Methanol on {[Cd4(azpy)2-(pyrdc)4(H2O)2]}
DOI: 10.1039/C1cc11416f
Adsorbate Methanol: InChIKey OKKJLVBELUTLKV-UHFFFAOYSA-N
Temperature: 293 K
Tabular data in the source: 0
pressure (bar)	uptake (cm3(STP)/g)
0.00372489	5.09506
0.0180263	8.95644
0.0223168	20.6836
0.0237469	31.8387
0.0323278	42.2788
0.0466292	46.4262
0.0609306	48.5714
0.141019	51.8607
0.243989	55.1501
0.34982	57.7243
0.45136	60.5846
0.55576	63.0159
0.660161	65.8761
0.704495	68.1644
0.725947	70.0236
0.731668	75.4581
0.767421	81.1787
0.828917	89.7595
0.917586	96.7672
