Adsorption isotherm of Nitrogen on {[Cd4(azpy)2-(pyrdc)4(H2O)2]}
DOI: 10.1039/C1cc11416f
Adsorbate Nitrogen: InChIKey IJGRMHOSHXDMSA-UHFFFAOYSA-N
Temperature: 77 K
Tabular data in the source: 0
pressure (bar)	uptake (cm3(STP)/g)
0.00229475	0.632005
0.0137359	1.13256
0.102405	1.43289
0.15818	1.63311
0.261151	1.58305
0.299764	1.58305
0.362691	1.53299
0.404165	1.58305
0.481393	1.48294
0.542889	1.53299
0.608675	1.53299
0.704495	1.43289
0.803175	1.48294
0.901855	1.38283
0.95191	1.43289
0.979082	1.48294
