Adsorption isotherm of Methane on {[Cd4(azpy)2-(pyrdc)4(H2O)2]}
DOI: 10.1039/C1cc11416f
Adsorbate Methane: InChIKey VNWKTOKETHGBQD-UHFFFAOYSA-N
Temperature: 195 K
Tabular data in the source: 0
pressure (bar)	uptake (cm3(STP)/g)
0.0709416	0.131455
0.15818	0.28162
0.225397	0.18151
0.299764	0.18151
0.384143	0.18151
0.527157	0.131455
0.661591	0.18151
0.728807	0.231565
0.808895	0.18151
0.924737	0.131455
0.974792	0.131455
