Adsorption isotherm of Nitrogen on MIL-53(Ga)
DOI: 10.1039/B817563b
Adsorbate Nitrogen: InChIKey IJGRMHOSHXDMSA-UHFFFAOYSA-N
Temperature: 77 K
Tabular data in the source: 0
pressure (bar)	uptake (cm3(STP)/g)
0.00480808	13.503
0.0064756	34.364
0.00972312	54
0.0129512	68.728
0.0130144	84.679
0.0146965	109.221
0.016364	130.082
0.0180364	152.17
0.0196893	169.35
0.0229271	186.532
0.0229806	200.029
0.0246919	231.933
0.0279345	250.342
0.0327669	269.98
0.0423102	278.581
0.0550183	285.959
0.0693064	292.112
0.0804248	298.261
0.0931232	303.185
0.105826	309.336
0.11853	315.487
0.132803	317.959
0.148662	320.433
0.162926	320.451
0.178779	321.698
0.194633	322.945
0.210481	322.965
0.226335	324.212
0.240604	325.457
0.256452	325.477
0.272306	326.724
0.288155	326.744
0.302418	326.762
0.318267	326.782
0.334121	328.029
0.349969	328.049
0.365818	328.069
0.381667	328.089
0.397515	328.109
0.413364	328.129
0.427633	329.374
0.443481	329.394
0.45933	329.414
0.475179	329.434
0.487858	329.451
0.503706	329.471
0.519555	329.491
0.535404	329.511
0.551253	329.531
0.567106	330.778
0.58296	332.025
0.598808	332.045
0.614657	332.065
0.630506	332.085
0.646354	332.105
0.662203	332.125
0.678052	332.145
0.6939	332.165
0.709749	332.185
0.725598	332.205
0.741447	332.225
0.757295	332.245
0.771564	333.49
0.787413	333.51
0.803261	333.53
0.81911	333.55
0.834959	333.57
0.850812	334.817
0.866656	333.61
0.882505	333.63
0.898353	333.65
0.914202	333.67
0.930056	334.917
0.944324	336.162
0.958598	338.634
