Adsorption isotherm of Carbon monoxide on CuBTC
DOI: 10.1016/j.seppur.2007.07.050
Adsorbate Carbon monoxide: InChIKey UGFAIRIUMAVXCW-UHFFFAOYSA-N
Temperature: 295 K
Tabular data in the source: 0
pressure (bar)	uptake (mmol/g)
0.041769	0.168675
0.14742	0.240964
0.31941	0.337349
0.545455	0.481928
0.82801	0.674699
0.995086	0.819277
