Adsorption isotherm of Ethene on CuBTC
DOI: 10.1016/j.seppur.2007.07.050
Adsorbate Ethene: InChIKey VGGSQFUCUMXWEO-UHFFFAOYSA-N
Temperature: 295 K
Tabular data in the source: 0
pressure (bar)	uptake (mmol/g)
0.017199	0.86747
0.0712531	2.62651
0.184275	4
0.528256	5.3253
0.761671	5.85542
0.87715	6.04819
