Adsorption isotherm of Carbon monoxide on CuBTC
DOI: 10.1016/j.seppur.2007.07.050
Adsorbate Carbon monoxide: InChIKey UGFAIRIUMAVXCW-UHFFFAOYSA-N
Temperature: 295 K
Tabular data in the source: 0
pressure (bar)	uptake (mmol/g)
0.039312	0.192771
0.0835381	0.216867
0.140049	0.289157
0.194103	0.313253
0.253071	0.361446
0.321867	0.409639
0.363636	0.433735
0.444717	0.506024
0.547912	0.53012
0.624079	0.626506
0.734644	0.674699
0.825553	0.746988
0.909091	0.795181
0.997543	0.843373
