Adsorption isotherm of Ethene on CuBTC
DOI: 10.1016/j.seppur.2007.07.050
Adsorbate Ethene: InChIKey VGGSQFUCUMXWEO-UHFFFAOYSA-N
Temperature: 295 K
Tabular data in the source: 0
pressure (bar)	uptake (mmol/g)
0.00737101	0.409639
0.017199	0.771084
0.044226	1.51807
0.0712531	2.21687
0.130221	2.89157
0.189189	3.54217
0.289926	4.0241
0.383292	4.43373
0.46683	4.81928
0.528256	5.10843
0.579853	5.37349
0.670762	5.80723
0.761671	6.24096
0.823096	6.55422
0.874693	6.77108
