Adsorption isotherm of Hydrogen on Cr-MHz
DOI: 10.1021/Ja2021944
Adsorbate Hydrogen: InChIKey UFHFLCQGNIYNRP-UHFFFAOYSA-N
Temperature: 77 K
Tabular data in the source: 0
pressure (bar)	uptake (wt%)
0.640793	0.084568
2.56734	0.174709
5.39295	0.208512
9.24605	0.231047
11.8148	0.276117
13.7413	0.360624
16.8238	0.405695
21.1907	0.445131
22.9888	0.512737
26.4566	0.518371
30.1812	0.557807
33.649	0.636681
36.4746	0.659216
38.658	0.631047
41.8689	0.647948
46.6211	0.704286
49.7036	0.749357
53.6851	0.777526
57.5382	0.82823
60.6207	0.833864
66.2719	0.985976
71.1525	1.05922
76.6753	1.20569
80.2715	1.324
83.6108	1.39724
