Adsorption isotherm of Hydrogen on Cr-MHz
DOI: 10.1021/Ja2021944
Adsorbate Hydrogen: InChIKey UFHFLCQGNIYNRP-UHFFFAOYSA-N
Temperature: 298 K
Tabular data in the source: 0
pressure (bar)	uptake (wt%)
5.68668	0.0285334
8.81663	0.0113717
11.4249	0.0422628
14.2941	0.0336819
15.9894	0.0577083
20.1627	0.0628569
21.9885	0.0885994
25.5097	0.107477
36.0733	0.195002
44.9415	0.268797
53.1576	0.325431
62.2867	0.383781
69.4595	0.424969
80.0231	0.473022
84.8484	0.486751
