Adsorption isotherm of Hydrogen on Cr-MHz
DOI: 10.1021/Ja2021944
Adsorbate Hydrogen: InChIKey UFHFLCQGNIYNRP-UHFFFAOYSA-N
Temperature: 198 K
Tabular data in the source: 0
pressure (bar)	uptake (wt%)
1.26486	0.00991251
10.3916	0.216955
20.786	0.483152
32.955	0.729631
45.6311	0.936673
63.3775	1.17822
82.6451	1.53315
93.293	1.79935
105.969	2.06062
120.42	2.36132
138.166	2.6916
149.321	2.84935
161.997	3.0416
170.11	3.16977
