Adsorption isotherm of Hydrogen on Cr-MHz
DOI: 10.1021/Ja2021944
Adsorbate Hydrogen: InChIKey UFHFLCQGNIYNRP-UHFFFAOYSA-N
Temperature: 298 K
Tabular data in the source: 0
pressure (bar)	uptake (wt%)
6.73	0.0422628
11.5553	0.0165202
15.207	0.0628569
17.5544	0.0525598
20.2931	0.0577083
23.8143	0.0817347
33.2042	0.13322
36.7254	0.138368
43.2461	0.165827
49.1148	0.215596
55.1139	0.285959
59.9392	0.340877
68.2858	0.378632
76.2411	0.406091
81.7185	0.424969
84.718	0.457576
