Adsorption isotherm of Hydrogen on H2-Cr-MHz
DOI: 10.1021/Ja2021944
Adsorbate Hydrogen: InChIKey UFHFLCQGNIYNRP-UHFFFAOYSA-N
Temperature: 298 K
Tabular data in the source: 0
pressure (bar)	uptake (wt%)
1.38299	0.0685427
3.86087	0.0788397
6.59958	0.0762655
11.4249	0.127751
15.5982	0.225572
27.3355	0.410919
35.4212	0.555077
48.4627	0.786761
56.2876	0.946365
62.1563	1.06735
68.9378	1.17547
72.7199	1.26815
78.1973	1.30933
83.6747	1.4226
