Adsorption isotherm of Hydrogen on H2-Cr-MHz
DOI: 10.1021/Ja2021944
Adsorbate Hydrogen: InChIKey UFHFLCQGNIYNRP-UHFFFAOYSA-N
Temperature: 77 K
Tabular data in the source: 0
pressure (bar)	uptake (wt%)
1.0261	0.13032
3.59484	0.239475
5.39295	0.306376
7.70481	0.302855
10.1451	0.345109
16.9522	0.408489
26.3281	0.485954
35.5756	0.581024
40.8415	0.686658
49.1898	0.764123
55.2264	0.904968
60.4923	0.922573
64.9875	1.04581
71.2809	1.08455
84.7668	1.26412
