Adsorption isotherm of Hydrogen on Cr-MHz
DOI: 10.1021/Ja2021944
Adsorbate Hydrogen: InChIKey UFHFLCQGNIYNRP-UHFFFAOYSA-N
Temperature: 77 K
Tabular data in the source: 0
pressure (bar)	uptake (wt%)
0.76923	0.0902018
4.62233	0.208512
12.5854	0.400061
16.0532	0.563441
20.9338	0.642314
24.2731	0.794427
28.2547	0.8733
31.4656	1.00851
40.0708	1.26203
48.1623	1.37471
57.6667	1.63386
63.061	1.78598
69.9966	2.06767
77.4459	2.28175
82.4549	2.524
83.8677	2.59724
