Adsorption isotherm of Hydrogen on H2-Cr-MHz
DOI: 10.1021/Ja2021944
Adsorbate Hydrogen: InChIKey UFHFLCQGNIYNRP-UHFFFAOYSA-N
Temperature: 77 K
Tabular data in the source: 0
pressure (bar)	uptake (wt%)
0.897666	0.0775029
4.62233	0.147925
11.301	0.228911
16.4385	0.281728
18.8788	0.306376
25.3006	0.471869
27.7409	0.482432
29.7959	0.545813
33.5206	0.609193
36.2177	0.711306
40.0708	0.806376
48.2908	0.904968
52.2723	0.947221
55.8685	1.06694
62.2904	1.15145
68.5838	1.36976
81.299	1.70074
84.3815	1.86976
