Adsorption isotherm of Hydrogen on H2-Cr-MHz
DOI: 10.1021/Ja2021944
Adsorbate Hydrogen: InChIKey UFHFLCQGNIYNRP-UHFFFAOYSA-N
Temperature: 298 K
Tabular data in the source: 0
pressure (bar)	uptake (wt%)
6.59958	0.0659685
14.9461	0.166364
20.0323	0.228147
23.5535	0.331117
27.3355	0.403196
31.9	0.495869
43.3765	0.66577
54.3314	0.900028
60.8521	1.05963
68.2858	1.14973
72.7199	1.25785
79.6318	1.35825
82.7618	1.38399
85.5005	1.46379
