Adsorption isotherm of Hydrogen on H2-Cr-MHz
DOI: 10.1021/Ja2021944
Adsorbate Hydrogen: InChIKey UFHFLCQGNIYNRP-UHFFFAOYSA-N
Temperature: 77 K
Tabular data in the source: 0
pressure (bar)	uptake (wt%)
2.56734	0.126799
7.44793	0.179616
14.6404	0.285249
23.1172	0.422573
26.3281	0.4437
30.695	0.588066
32.2362	0.570461
37.3737	0.66201
41.0983	0.823982
50.8595	1.09511
55.2264	1.20426
59.3363	1.41553
72.5653	1.77116
81.1706	1.93314
82.198	2.04229
