Adsorption isotherm of Hydrogen on Cr-MHz
DOI: 10.1021/Ja2021944
Adsorbate Hydrogen: InChIKey UFHFLCQGNIYNRP-UHFFFAOYSA-N
Temperature: 77 K
Tabular data in the source: 0
pressure (bar)	uptake (wt%)
1.15454	0.101469
4.36545	0.247948
8.47543	0.371892
13.4845	0.614146
17.9797	0.816962
23.3741	0.980343
30.1812	1.17189
36.2177	1.38034
40.1993	1.56062
42.6396	1.57189
47.6486	1.70147
52.9145	1.95499
62.8041	2.38879
68.9691	2.73246
74.6203	3.08738
83.6108	3.47612
