Adsorption isotherm of Hydrogen on H2-Cr-MHz
DOI: 10.1021/Ja2021944
Adsorbate Hydrogen: InChIKey UFHFLCQGNIYNRP-UHFFFAOYSA-N
Temperature: 298 K
Tabular data in the source: 0
pressure (bar)	uptake (wt%)
1.51341	0.0479487
4.51294	0.0891368
9.46871	0.107157
14.8157	0.248741
17.9457	0.310523
23.0318	0.431513
28.5093	0.575671
33.9867	0.712107
39.5945	0.812503
44.8111	0.956662
51.3318	1.11112
63.0692	1.34795
70.3724	1.45864
76.3715	1.51528
81.1968	1.58735
83.0226	1.65429
