Adsorption isotherm of Hydrogen on H2-Cr-MHz
DOI: 10.1021/Ja2021944
Adsorbate Hydrogen: InChIKey UFHFLCQGNIYNRP-UHFFFAOYSA-N
Temperature: 77 K
Tabular data in the source: 0
pressure (bar)	uptake (wt%)
2.82422	0.133841
6.93419	0.105672
10.5304	0.140883
17.0807	0.228911
22.2181	0.302855
28.3831	0.390883
31.3371	0.464827
38.658	0.542292
47.3917	0.802855
58.1804	1.02821
67.5563	1.29581
71.9231	1.48947
74.8772	1.65849
80.1431	1.86624
82.3265	2.10919
85.2805	2.26412
