Adsorption isotherm of Hydrogen on H2-Cr-MHz
DOI: 10.1021/Ja2021944
Adsorbate Hydrogen: InChIKey UFHFLCQGNIYNRP-UHFFFAOYSA-N
Temperature: 298 K
Tabular data in the source: 0
pressure (bar)	uptake (wt%)
1.25258	0.0633942
6.07792	0.120028
13.7724	0.210127
19.1194	0.300226
22.771	0.392899
33.5954	0.609137
44.6807	0.794483
52.3752	0.96181
64.6341	1.16775
70.8941	1.30676
78.1973	1.4226
84.1964	1.55131
