Adsorption isotherm of Hydrogen on Cr-MHz
DOI: 10.1021/Ja2021944
Adsorbate Hydrogen: InChIKey UFHFLCQGNIYNRP-UHFFFAOYSA-N
Temperature: 77 K
Tabular data in the source: 0
pressure (bar)	uptake (wt%)
1.28298	0.0676666
6.42044	0.163441
10.402	0.242315
15.5394	0.321188
21.4475	0.422596
27.484	0.518371
29.4106	0.495836
34.6765	0.608512
37.5021	0.597244
43.5386	0.788793
45.722	0.839498
51.7586	0.952174
57.4098	1.03105
63.4463	1.17189
70.125	1.43105
75.7762	1.62823
77.5743	1.75217
80.6568	1.81978
82.5834	1.87048
84.3815	2.06203
