Adsorption isotherm of Hydrogen on Cr-MHz
DOI: 10.1021/Ja2021944
Adsorbate Hydrogen: InChIKey UFHFLCQGNIYNRP-UHFFFAOYSA-N
Temperature: 298 K
Tabular data in the source: 0
pressure (bar)	uptake (wt%)
1.25258	0.0319658
6.46917	0.0251011
10.512	0.0233849
12.8595	0.0748701
22.771	0.193286
29.0309	0.261933
38.5512	0.378632
45.3328	0.509061
52.5056	0.596586
60.4609	0.699557
71.0245	0.828269
74.8065	0.869458
79.7623	0.955266
84.5876	1.01018
