Adsorption isotherm of Hydrogen on Cr-MHz
DOI: 10.1021/Ja2021944
Adsorbate Hydrogen: InChIKey UFHFLCQGNIYNRP-UHFFFAOYSA-N
Temperature: 298 K
Tabular data in the source: 0
pressure (bar)	uptake (wt%)
4.77377	0.043979
12.4682	0.0148041
16.5111	0.0199526
19.6411	0.0268173
26.1618	0.0491275
35.9429	0.0920318
40.1162	0.112626
47.0281	0.141801
53.4185	0.17784
59.1567	0.195002
62.1563	0.220745
67.112	0.23619
73.1111	0.24992
78.8493	0.260217
84.5876	0.275662
