Adsorption isotherm of Hydrogen on NAHA-0.5
DOI: 10.1039/c5ta08436a
Article source: Figure 5
Adsorbate Hydrogen: InChIKey UFHFLCQGNIYNRP-UHFFFAOYSA-N
Kind: experiment
Temperature: 273 K
Tabular data in the source: 0
pressure (bar)	uptake (mmol/g)
0.003	0.000489
0.01869	0.001965
0.0378	0.004303
0.07716	0.008261
0.0983	0.010816
0.1331	0.014504
0.20081	0.01992
0.26624	0.024887
0.3333	0.028505
0.4001	0.035045
0.46703	0.03982
0.53344	0.044956
0.60159	0.0493
0.66698	0.053557
0.73337	0.057985
0.79775	0.062427
0.86585	0.066856
0.93496	0.071427
1.01451	0.076598
