Adsorption isotherm of Carbon Dioxide on NAHA-1
DOI: 10.1039/c5ta08436a
Article source: Figure 6
Adsorbate Carbon Dioxide: InChIKey CURLTUGMZLYLDI-UHFFFAOYSA-N
Kind: experiment
Temperature: 273 K
Tabular data in the source: 0
pressure (bar)	uptake (mmol/g)
0.000206	0.14724
0.0004	0.16753
0.002749	0.28608
0.004412	0.41436
0.008033	0.53289
0.014494	0.68931
0.022117	0.88356
0.027555	1.0293
0.03478	1.17888
0.04356	1.35699
0.050708	1.4626
0.06042	1.63452
0.068345	1.73704
0.077514	1.8542
0.087537	1.98061
0.09554	2.07618
0.105201	2.17798
0.120793	2.32894
0.140374	2.50539
0.156925	2.64331
0.174952	2.76809
0.206966	2.99301
0.244356	3.2013
0.278622	3.37492
0.314029	3.53141
0.34795	3.67556
0.383352	3.80744
0.41826	3.93321
0.453061	4.03652
0.487252	4.13954
0.522531	4.23021
0.558121	4.32858
0.592934	4.41154
0.626659	4.48834
0.662094	4.5682
0.696381	4.64093
0.731431	4.71152
