Adsorption isotherm of Carbon Dioxide on NAHA-4
DOI: 10.1039/c5ta08436a
Article source: Figure 6
Adsorbate Carbon Dioxide: InChIKey CURLTUGMZLYLDI-UHFFFAOYSA-N
Kind: experiment
Temperature: 273 K
Tabular data in the source: 0
pressure (bar)	uptake (mmol/g)
0.002414	0.15272
0.004641	0.28148
0.008037	0.38478
0.011672	0.45954
0.014764	0.53277
0.018087	0.61602
0.023507	0.70234
0.026523	0.76632
0.03403	0.89966
0.045577	1.02681
0.051853	1.09693
0.062161	1.20635
0.070607	1.30499
0.079288	1.39437
0.087818	1.45985
0.096255	1.56935
0.106321	1.63631
0.120488	1.74599
0.139834	1.89157
0.156936	2.00317
0.174427	2.12643
0.208568	2.33145
0.243431	2.53444
0.277987	2.7115
0.313573	2.88028
0.34792	3.04177
0.383383	3.19728
0.417761	3.34353
0.452143	3.47966
0.487376	3.62262
0.522119	3.74599
0.555011	3.87795
0.592285	4.00036
0.62475	4.11088
0.661716	4.22817
0.695454	4.34062
0.729975	4.45016
