Adsorption isotherm of Carbon Dioxide on PHA
DOI: 10.1039/c5ta08436a
Article source: Figure 6
Adsorbate Carbon Dioxide: InChIKey CURLTUGMZLYLDI-UHFFFAOYSA-N
Kind: experiment
Temperature: 273 K
Tabular data in the source: 0
pressure (bar)	uptake (mmol/g)
0.000547	0.00705
0.005046	0.11555
0.00993	0.24766
0.016685	0.33621
0.024419	0.43644
0.033133	0.51721
0.0441	0.61257
0.05164	0.66317
0.060943	0.72447
0.069266	0.77994
0.07906	0.82956
0.086796	0.87724
0.09561	0.91421
0.104914	0.95313
0.120105	1.02469
0.140005	1.09574
0.156641	1.15443
0.17452	1.20694
0.208725	1.29651
0.243863	1.37527
0.278691	1.44477
0.313364	1.50499
0.347571	1.56676
0.383488	1.61462
0.417851	1.65785
0.45268	1.70571
0.48782	1.75049
0.52258	1.78024
0.557011	1.81822
0.592431	1.8513
0.626616	1.8758
0.662282	1.90888
0.696021	1.93572
0.732406	1.96041
