Adsorption isotherm of Ethane on NAHA-2
DOI: 10.1039/c5ta08436a
Article source: Figure 7
Adsorbate Ethane: InChIKey OTMSDBZUPAUEDD-UHFFFAOYSA-N
Kind: experiment
Temperature: 273 K
Tabular data in the source: 0
pressure (bar)	uptake (mmol/g)
0.00096	0.07577
0.00272	0.30923
0.00582	0.5935
0.00824	0.93971
0.00933	1.14299
0.01156	1.25258
0.01489	1.38123
0.01733	1.53194
0.01733	1.5321
0.02022	1.71316
0.02267	1.79416
0.02355	1.87198
0.026	1.95139
0.03246	2.14358
0.065	2.83932
0.09512	3.26666
0.13975	3.67503
0.17413	3.90706
0.19735	4.03582
0.23174	4.21068
0.26501	4.33472
0.33066	4.57164
0.39904	4.74007
0.46545	4.87447
0.53088	4.98285
0.59859	5.07829
0.66508	5.1656
0.7328	5.23276
0.79787	5.31125
0.86536	5.36076
0.93135	5.42413
1.01283	5.47557
