Adsorption isotherm of Nitrogen on NAHA-4
DOI: 10.1039/c5ta08436a
Article source: Figure 2
Adsorbate Nitrogen: InChIKey IJGRMHOSHXDMSA-UHFFFAOYSA-N
Kind: experiment
Temperature: 77 K
Tabular data in the source: 0
pressure (bar)	uptake (cm3(STP)/g)
0.000253	7.568
0.000567	16.462
0.000821	24.855
0.000942	47.773
0.001003	54.623
0.001064	62.262
0.001074	31.203
0.001125	77.828
0.001135	39.667
0.001186	69.938
0.001368	85.933
0.001429	94.003
0.00156	101.858
0.001611	117.06
0.001611	117.244
0.001733	107.966
0.001743	107.992
0.001743	109.282
0.001854	147.603
0.001864	147.658
0.002047	162.094
0.002047	162.04
0.002422	178.681
0.002482	185.912
0.002482	185.424
0.002543	201.707
0.002736	209.526
0.002797	217.129
0.002918	234.046
0.002918	234.145
0.003101	239.868
0.005836	279.642
0.009281	298.077
0.011764	300.874
0.026324	328.203
0.04893	355.211
0.050207	355.889
0.081232	375.841
0.099775	386.013
0.102389	387.985
0.127943	397.021
0.153426	405.161
0.15447	405.118
0.181027	411.035
0.203086	415.959
0.208071	415.959
0.231903	419.346
0.254761	422.418
0.257092	422.417
0.280832	424.585
0.303772	426.888
0.354486	430.138
0.404307	432.619
0.455425	434.378
0.506534	436.317
0.556517	438.121
0.607555	439.473
0.658025	440.916
0.708971	441.816
0.759765	442.987
0.809263	444.068
0.839538	444.533
0.85952	444.532
0.889633	445.498
0.910324	445.952
0.941664	446.69
0.961128	447.087
1.00312	449.19
