Adsorption isotherm of Hydrogen on NAHA-1
DOI: 10.1039/c5ta08436a
Article source: Figure 5
Adsorbate Hydrogen: InChIKey UFHFLCQGNIYNRP-UHFFFAOYSA-N
Kind: experiment
Temperature: 273 K
Tabular data in the source: 0
pressure (bar)	uptake (mmol/g)
0.0055	0.000604
0.01498	0.001271
0.02611	0.002009
0.06428	0.004998
0.09967	0.007735
0.1343	0.010094
0.19927	0.014524
0.26752	0.01917
0.33324	0.02378
0.39953	0.028101
0.46755	0.032732
0.53275	0.037049
0.60057	0.041395
0.6659	0.045639
0.73262	0.04986
0.79861	0.054202
0.86562	0.058491
0.93344	0.062808
1.0139	0.068068
