Adsorption isotherm of Ethane on NAHA-1
DOI: 10.1039/c5ta08436a
Article source: Figure 5
Adsorbate Ethane: InChIKey OTMSDBZUPAUEDD-UHFFFAOYSA-N
Kind: experiment
Temperature: 273 K
Tabular data in the source: 0
pressure (bar)	uptake (mmol/g)
0.00017	0.05622
0.000268	0.17258
0.000367	0.28939
0.000466	0.40575
0.000512	0.60197
0.000558	0.63847
0.001712	0.86283
0.005621	1.18637
0.009852	1.44733
0.012922	1.59986
0.017264	1.80528
0.018639	1.88816
0.020229	1.93929
0.020967	2.02304
0.023724	2.08477
0.03242	2.2673
0.049607	2.54157
0.064994	2.71357
0.080277	2.85913
0.098959	2.99148
0.133375	3.1818
0.164217	3.30515
0.196745	3.41312
0.231465	3.50151
0.266187	3.5731
0.33344	3.70649
0.39944	3.8036
0.464426	3.88514
0.532812	3.94906
0.599498	4.00593
0.665761	4.05926
0.733298	4.10202
0.799987	4.12715
0.8654	4.16637
0.932512	4.21618
1.01152	4.24492
