Adsorption isotherm of Methane on NAHA-1
DOI: 10.1039/c5ta08436a
Article source: Figure 5
Adsorbate Methane: InChIKey VNWKTOKETHGBQD-UHFFFAOYSA-N
Kind: experiment
Temperature: 273 K
Tabular data in the source: 0
pressure (bar)	uptake (mmol/g)
0.002857	0.02234
0.006876	0.0628
0.01323	0.09964
0.01937	0.14373
0.028059	0.17816
0.033563	0.21862
0.06979	0.39801
0.100726	0.53452
0.134213	0.65775
0.200028	0.87917
0.267128	1.06015
0.333153	1.21342
0.398608	1.34954
0.467091	1.47781
0.533259	1.59026
0.598581	1.69305
0.665178	1.78981
0.7339	1.87571
0.800075	1.96281
0.866257	2.03301
0.933284	2.11045
1.01304	2.19155
