Adsorption isotherm of Hydrogen on NAHA-2
DOI: 10.1039/c5ta08436a
Article source: Figure 7
Adsorbate Hydrogen: InChIKey UFHFLCQGNIYNRP-UHFFFAOYSA-N
Kind: experiment
Temperature: 77 K
Tabular data in the source: 0
pressure (bar)	uptake (mmol/g)
0.00044	0.0477
0.00189	0.295
0.00278	0.5685
0.00366	0.8406
0.00533	1.4109
0.00778	1.846
0.00844	2.0598
0.01112	2.2766
0.01413	2.5283
0.01525	2.6403
0.02596	3.4115
0.04806	4.3413
0.06493	4.8185
0.09542	5.4821
0.13228	6.0482
0.16358	6.4539
0.19849	6.8206
0.26746	7.4002
0.3339	7.8074
0.39808	8.1303
0.46903	8.4496
0.53343	8.691
0.59966	8.9131
0.66885	9.1104
0.73487	9.2757
0.80027	9.4322
0.86518	9.5722
0.93072	9.6972
1.00955	9.8408
