Adsorption isotherm of Ethane on NAHA-2
DOI: 10.1039/c5ta08436a
Article source: Figure 7
Adsorbate Ethane: InChIKey OTMSDBZUPAUEDD-UHFFFAOYSA-N
Kind: experiment
Temperature: 298 K
Tabular data in the source: 0
pressure (bar)	uptake (mmol/g)
0.00332	0.11142
0.00557	0.25996
0.00976	0.45508
0.0143	0.60867
0.01516	0.69553
0.01619	0.78868
0.01917	0.86925
0.02356	0.96871
0.02724	1.06692
0.03391	1.24191
0.05273	1.58691
0.06629	1.79971
0.08374	2.01379
0.10014	2.18507
0.13474	2.48484
0.16794	2.70656
0.19973	2.90687
0.23331	3.07196
0.2667	3.2215
0.33376	3.47003
0.39994	3.65437
0.46478	3.81808
0.53342	3.96437
0.59895	4.09003
0.6656	4.203
0.73227	4.2907
0.79915	4.36786
0.86657	4.45258
0.93081	4.52091
1.01133	4.59437
