Adsorption isotherm of Methane on NAHA-2
DOI: 10.1039/c5ta08436a
Article source: Figure 7
Adsorbate Methane: InChIKey VNWKTOKETHGBQD-UHFFFAOYSA-N
Kind: experiment
Temperature: 298 K
Tabular data in the source: 0
pressure (bar)	uptake (mmol/g)
0.00304	0.01005
0.01048	0.0416
0.0234	0.06594
0.03394	0.0855
0.06681	0.16053
0.10025	0.23158
0.13425	0.30381
0.19804	0.42272
0.26788	0.54241
0.33449	0.64932
0.39998	0.74824
0.46632	0.83997
0.5349	0.93168
0.59992	1.01663
0.6658	1.09699
0.73275	1.17232
0.79969	1.24514
0.86567	1.31585
0.93228	1.38702
1.01317	1.46766
