Adsorption isotherm of Ethane on NAHA-2
DOI: 10.1039/c5ta08436a
Article source: Figure 7
Adsorbate Ethane: InChIKey OTMSDBZUPAUEDD-UHFFFAOYSA-N
Kind: experiment
Temperature: 323 K
Tabular data in the source: 0
pressure (bar)	uptake (mmol/g)
0.00309	0.05296
0.00435	0.10493
0.00758	0.19986
0.01305	0.27781
0.0153	0.34876
0.02274	0.46368
0.02821	0.55362
0.03621	0.68453
0.05215	0.89905
0.06702	1.05518
0.08436	1.20879
0.10205	1.35989
0.13568	1.59662
0.16753	1.78047
0.20081	1.95425
0.23373	2.09781
0.26683	2.2313
0.33356	2.46429
0.40011	2.66077
0.46642	2.82234
0.53244	2.96835
0.60002	3.0985
0.66603	3.20961
0.73238	3.31205
0.79983	3.41159
0.86586	3.4998
0.93225	3.58045
1.01333	3.66238
