Adsorption isotherm of Methane on NAHA-2
DOI: 10.1039/c5ta08436a
Article source: Figure 7
Adsorbate Methane: InChIKey VNWKTOKETHGBQD-UHFFFAOYSA-N
Kind: experiment
Temperature: 273 K
Tabular data in the source: 0
pressure (bar)	uptake (mmol/g)
0.0031	0.01887
0.00646	0.04203
0.01195	0.0687
0.01761	0.10544
0.02239	0.12809
0.02629	0.1457
0.03443	0.17589
0.06896	0.32434
0.10208	0.45014
0.1336	0.56285
0.20013	0.7677
0.26802	0.95456
0.33373	1.11275
0.39989	1.26796
0.46752	1.40393
0.53403	1.5278
0.59987	1.64469
0.66723	1.75789
0.73291	1.86275
0.80003	1.96279
0.86666	2.0583
0.93212	2.14576
1.01423	2.24853
