Adsorption isotherm of Hydrogen on PHA
DOI: 10.1039/c5ta08436a
Article source: Figure 5
Adsorbate Hydrogen: InChIKey UFHFLCQGNIYNRP-UHFFFAOYSA-N
Kind: experiment
Temperature: 273 K
Tabular data in the source: 0
pressure (bar)	uptake (mmol/g)
0.00217	0.000303
0.03049	0.001643
0.06744	0.003155
0.13291	0.005906
0.20026	0.008461
0.26656	0.011012
0.33361	0.013563
0.3999	0.015934
0.46644	0.018844
0.53349	0.021359
0.60079	0.023838
0.66734	0.02603
0.73413	0.028293
0.80035	0.030568
0.86538	0.032831
0.9336	0.035366
1.01329	0.038195
