Adsorption isotherm of Nitrogen on NAHA-0.5
DOI: 10.1039/c5ta08436a
Article source: Figure 2
Adsorbate Nitrogen: InChIKey IJGRMHOSHXDMSA-UHFFFAOYSA-N
Kind: experiment
Temperature: 77 K
Tabular data in the source: 0
pressure (bar)	uptake (cm3(STP)/g)
0.000912	6.893
0.001145	12.859
0.001459	18.824
0.001773	26.552
0.002168	33.874
0.002391	41.015
0.002705	48.427
0.003019	56.019
0.003334	63.657
0.003405	71.566
0.003708	80.018
0.003779	87.565
0.00385	95.338
0.004002	103.067
0.004073	110.343
0.004225	117.755
0.004458	125.528
0.004691	132.533
0.004843	139.584
0.004995	147.086
0.005299	154.769
0.005694	167.781
0.00609	170.587
0.01074	177.819
0.020539	180.759
0.033072	183.699
0.043276	185.78
0.049305	187.544
0.062315	187.773
0.076217	188.951
0.084171	189.992
0.095985	190.446
0.106462	191.536
0.116544	192.04
0.125471	192.401
0.132999	192.761
0.144348	192.835
0.156213	193.914
0.165393	194.274
0.172921	194.419
0.184533	194.781
0.19576	194.998
0.205062	195.789
0.228285	195.938
0.254437	196.374
0.281349	196.595
0.305708	197.819
0.339145	197.865
0.354658	197.687
0.398136	198.645
0.406648	198.828
0.456256	199.899
0.463035	200.242
0.505855	199.858
0.506676	199.852
0.557257	200.61
0.558676	200.169
0.60715	201.04
0.608538	207.282
0.657275	207.436
0.657913	207.303
0.709326	202.64
0.710339	208.451
0.759026	203.739
0.763687	209.344
0.797428	210.345
0.809009	204.472
0.852397	212.707
0.860442	205.658
0.902704	214.706
0.908652	208.651
0.955414	213.633
0.964725	223.216
1.00023	234.07
