Adsorption isotherm of Nitrogen on PHA
DOI: 10.1039/c5ta08436a
Article source: Figure 2
Adsorbate Nitrogen: InChIKey IJGRMHOSHXDMSA-UHFFFAOYSA-N
Kind: experiment
Temperature: 77 K
Tabular data in the source: 0
pressure (bar)	uptake (cm3(STP)/g)
0.000415	7.573
0.000821	16.057
0.001135	24.485
0.001844	32.229
0.00226	40.144
0.002462	48.058
0.002776	55.689
0.00309	63.262
0.00461	71.746
0.012716	76.076
0.0275	79.439
0.056671	83.716
0.07875	85.658
0.101335	87.713
0.156537	90.972
0.21108	93.133
0.262168	94.244
0.312699	94.37
0.362531	95.236
0.407377	95.757
0.457371	96.13
0.506321	97.995
0.56203	98.732
0.627779	99.787
0.658734	100.171
0.70965	101.224
0.760535	100.913
0.81057	102.463
0.860847	103.269
0.911125	104.647
0.960652	107.339
0.012037	87.131
0.027074	89.96
0.052061	92.107
0.078132	93.537
0.107323	95.009
0.153335	95.996
0.20417	97.389
0.25385	98.215
0.304846	98.663
0.355732	99.623
0.405411	99.958
0.457118	100.463
0.505885	101.309
0.557581	101.9
0.608163	101.849
0.658896	102.918
0.708738	103.054
0.760373	103.907
0.787903	104.19
0.842902	104.846
0.899523	106.367
0.964411	109.096
1.00268	117.134
