Adsorption isotherm of Carbon Dioxide on NAHA-1
DOI: 10.1039/c5ta08436a
Article source: Figure 5
Adsorbate Carbon Dioxide: InChIKey CURLTUGMZLYLDI-UHFFFAOYSA-N
Kind: experiment
Temperature: 273 K
Tabular data in the source: 0
pressure (bar)	uptake (mmol/g)
0.00072	0.02513
0.00185	0.19739
0.00514	0.36658
0.01218	0.61057
0.01962	0.85087
0.02714	1.01517
0.03441	1.18314
0.04543	1.32538
0.05621	1.44003
0.06349	1.59268
0.07052	1.70732
0.07986	1.83729
0.08921	1.95868
0.09647	2.05003
0.10574	2.16591
0.12147	2.32654
0.14095	2.48412
0.15747	2.62759
0.17516	2.75992
0.20674	2.977
0.24535	3.18715
0.27863	3.35403
0.31383	3.53879
0.3491	3.66881
0.38485	3.80986
0.41839	3.92426
0.45438	4.03477
0.48816	4.13447
0.52384	4.23879
0.55772	4.32536
0.59262	4.40669
0.62773	4.48338
0.66268	4.56681
0.69802	4.63369
0.73353	4.71896
0.76815	4.78033
0.80262	4.83924
0.83772	4.8957
0.87187	4.94235
0.90666	5.00494
0.94096	5.0522
0.97623	5.10621
1.01157	5.15593
