Adsorption isotherm of Carbon Dioxide on NAHA-0.5
DOI: 10.1039/c5ta08436a
Article source: Figure 5
Adsorbate Carbon Dioxide: InChIKey CURLTUGMZLYLDI-UHFFFAOYSA-N
Kind: experiment
Temperature: 273 K
Tabular data in the source: 0
pressure (bar)	uptake (mmol/g)
0.00099	0.02538
0.00161	0.15301
0.00461	0.29415
0.0092	0.45616
0.01379	0.65498
0.023	0.83174
0.03173	1.00113
0.0411	1.18402
0.05573	1.38902
0.0617	1.52678
0.07205	1.65636
0.08531	1.81226
0.09552	1.97789
0.10637	2.12793
0.12228	2.28092
0.13744	2.40663
0.15551	2.52456
0.17371	2.6439
0.20801	2.852
0.24556	3.01768
0.27797	3.16323
0.31235	3.28982
0.34762	3.40587
0.382	3.51121
0.41702	3.62044
0.45182	3.70636
0.48783	3.78751
0.5216	3.86496
0.55633	3.93873
0.59106	4.00882
0.6226	4.0789
0.66068	4.1306
0.69557	4.18965
0.7311	4.2487
0.76424	4.29792
0.79945	4.34961
0.83498	4.39761
0.87003	4.43948
0.90477	4.47889
0.93966	4.52812
0.97392	4.56017
1.00962	4.58732
