Adsorption isotherm of Nitrogen on NAHA-2
DOI: 10.1039/c5ta08436a
Article source: Figure 2
Adsorbate Nitrogen: InChIKey IJGRMHOSHXDMSA-UHFFFAOYSA-N
Kind: experiment
Temperature: 77 K
Tabular data in the source: 0
pressure (bar)	uptake (cm3(STP)/g)
0.000466	7.627
0.000628	15.809
0.001034	23.629
0.001277	31.856
0.001611	39.224
0.002097	47.542
0.002178	56.266
0.002503	62.64
0.002756	86.959
0.002827	71.093
0.002989	79.365
0.00309	105.99
0.003161	96.362
0.003253	113.132
0.003334	122.218
0.003425	130.943
0.003587	138.311
0.003749	147.035
0.004154	155.172
0.00456	162.043
0.004651	173.223
0.004732	169.682
0.005299	185.594
0.005299	185.825
0.005786	201.235
0.005877	210.275
0.00612	218.457
0.006525	225.509
0.007012	234.776
0.007174	242.235
0.007346	266.194
0.00767	269.221
0.013466	280.658
0.022717	287.393
0.033579	292.23
0.043793	295.394
0.052557	297.654
0.064858	299.237
0.07644	300.502
0.087048	302.13
0.102166	304.073
0.116686	305.181
0.125501	306.042
0.140943	306.903
0.153072	307.836
0.168382	308.769
0.182426	309.127
0.191231	309.486
0.203359	310.491
0.213441	310.921
0.223776	311.065
0.23476	311.424
0.244842	311.495
0.254153	312.428
0.264884	312.644
0.274682	313.146
0.285017	313.317
0.295859	313.943
0.305687	314.911
0.354212	315.823
0.402098	317.951
0.407154	316.685
0.456733	317.19
0.460887	319.923
0.505065	321.746
0.508601	317.702
0.557196	318.765
0.558969	322.652
0.587756	323.466
0.608497	320.302
0.646129	324.46
0.659312	321.206
0.69663	325.997
0.709488	322.381
0.726054	329.252
0.759015	323.195
0.793436	325.184
0.810803	323.737
0.848921	326.54
0.861455	325.274
0.910831	327.444
0.914529	330.518
0.959882	332.235
0.970501	338.202
1.00701	348.147
