Adsorption isotherm of Ethane on NAHA-2
DOI: 10.1039/c5ta08436a
Article source: Figure 5
Adsorbate Ethane: InChIKey OTMSDBZUPAUEDD-UHFFFAOYSA-N
Kind: experiment
Temperature: 273 K
Tabular data in the source: 0
pressure (bar)	uptake (mmol/g)
0.000403	0.05869
0.000658	0.29151
0.00165	0.48543
0.004649	0.68657
0.006375	0.92328
0.007499	1.15498
0.012169	1.37501
0.01898	1.58338
0.021985	1.68673
0.025789	1.84064
0.028594	1.92065
0.034601	2.15513
0.06524	2.84505
0.097241	3.27348
0.140537	3.67949
0.17426	3.91409
0.196234	4.03227
0.232113	4.21042
0.265872	4.34888
0.332556	4.56216
0.399548	4.72104
0.465562	4.8592
0.532581	4.97029
0.599199	5.07138
0.66466	5.16192
0.73237	5.22854
0.798255	5.29074
0.86648	5.35293
0.932164	5.41618
1.01196	5.47567
