Adsorption isotherm of Carbon Dioxide on NAHA-2
DOI: 10.1039/c5ta08436a
Article source: Figure 5
Adsorbate Carbon Dioxide: InChIKey CURLTUGMZLYLDI-UHFFFAOYSA-N
Kind: experiment
Temperature: 273 K
Tabular data in the source: 0
pressure (bar)	uptake (mmol/g)
0.00112	0.02798
0.00225	0.20451
0.00731	0.4595
0.01276	0.70039
0.0237	0.87753
0.03425	1.06938
0.04926	1.23364
0.0622	1.43591
0.07769	1.64983
0.08807	1.74086
0.09517	1.82745
0.10531	1.93351
0.12115	2.09502
0.13921	2.28047
0.15711	2.43878
0.1733	2.5886
0.20618	2.84112
0.24288	3.10985
0.27826	3.33612
0.31325	3.53689
0.34923	3.72917
0.38411	3.90447
0.41909	4.08594
0.45331	4.22961
0.48873	4.39693
0.52329	4.5264
0.55761	4.65579
0.59319	4.78519
0.62852	4.90486
0.6627	5.02355
0.69648	5.14307
0.73185	5.25426
0.76602	5.35465
0.8018	5.45812
0.83636	5.54305
0.87113	5.63726
0.907	5.72503
0.94066	5.80532
0.97759	5.89909
1.0114	5.97201
