Adsorption isotherm of Carbon Dioxide on NAHA-2
DOI: 10.1039/c5ta08436a
Article source: Figure 7
Adsorbate Carbon Dioxide: InChIKey CURLTUGMZLYLDI-UHFFFAOYSA-N
Kind: experiment
Temperature: 298 K
Tabular data in the source: 0
pressure (bar)	uptake (mmol/g)
0.00336	0.05953
0.01093	0.17858
0.01821	0.28465
0.02719	0.37774
0.03617	0.44918
0.06871	0.73276
0.10211	0.97306
0.13383	1.17656
0.20092	1.55543
0.26747	1.86719
0.3343	2.14
0.40058	2.39765
0.46657	2.625
0.53384	2.84261
0.59985	3.03424
0.66647	3.21594
0.73313	3.38953
0.7998	3.54595
0.86557	3.69377
0.93289	3.83491
1.01279	3.99999
