Adsorption isotherm of Ethane on PHA
DOI: 10.1039/c5ta08436a
Article source: Figure 5
Adsorbate Ethane: InChIKey OTMSDBZUPAUEDD-UHFFFAOYSA-N
Kind: experiment
Temperature: 273 K
Tabular data in the source: 0
pressure (bar)	uptake (mmol/g)
0.001167	0.05738
0.002121	0.17213
0.00541	0.32485
0.007637	0.50051
0.013583	0.61617
0.019635	0.71507
0.02452	0.79541
0.035141	0.86167
0.050328	0.96855
0.065517	1.0419
0.082724	1.08965
0.099932	1.13299
0.134772	1.19673
0.166635	1.25075
0.198621	1.29206
0.233952	1.32895
0.26808	1.35804
0.332854	1.41844
0.398735	1.4594
0.466293	1.48623
0.532789	1.5166
0.600772	1.5452
0.666418	1.57027
0.732347	1.58292
0.800155	1.59657
0.865377	1.61104
0.932829	1.6317
1.01483	1.6542
