Adsorption isotherm of Carbon Dioxide on NAHA-2
DOI: 10.1039/c5ta08436a
Article source: Figure 7
Adsorbate Carbon Dioxide: InChIKey CURLTUGMZLYLDI-UHFFFAOYSA-N
Kind: experiment
Temperature: 323 K
Tabular data in the source: 0
pressure (bar)	uptake (mmol/g)
0.00562	0.04837
0.0142	0.1069
0.02367	0.15793
0.03349	0.21441
0.06924	0.3777
0.10145	0.51104
0.1338	0.63399
0.20039	0.86042
0.26864	1.05406
0.33388	1.2388
0.40072	1.3911
0.4685	1.55267
0.53352	1.70429
0.60044	1.83756
0.66705	1.96703
0.734	2.08721
0.80004	2.20683
0.86644	2.30329
0.93372	2.41338
1.01393	2.53567
