Adsorption isotherm of Methane on PHA
DOI: 10.1039/c5ta08436a
Article source: Figure 5
Adsorbate Methane: InChIKey VNWKTOKETHGBQD-UHFFFAOYSA-N
Kind: experiment
Temperature: 273 K
Tabular data in the source: 0
pressure (bar)	uptake (mmol/g)
0.002652	0.01089
0.008537	0.02725
0.01616	0.05083
0.023248	0.0706
0.032475	0.09266
0.067379	0.17557
0.101613	0.24174
0.133305	0.29726
0.200388	0.38998
0.266614	0.47328
0.331565	0.53847
0.399487	0.59762
0.465484	0.65333
0.533881	0.70219
0.600929	0.74626
0.667641	0.78745
0.731656	0.8229
0.798704	0.86122
0.866762	0.89187
0.932883	0.92037
1.01332	0.95389
