Adsorption isotherm of Nitrogen on HA
DOI: 10.1039/c5ta08436a
Article source: Figure 2
Adsorbate Nitrogen: InChIKey IJGRMHOSHXDMSA-UHFFFAOYSA-N
Kind: experiment
Temperature: 77 K
Tabular data in the source: 0
pressure (bar)	uptake (cm3(STP)/g)
0.003182	0.892
0.009818	1.323
0.013648	1.754
0.051169	1.682
0.100687	2.185
0.106432	2.4
0.153143	2.759
0.203552	2.687
0.254701	2.442
0.305343	2.804
0.355519	2.623
0.405037	2.533
0.409546	2.985
0.456814	2.714
0.46035	2.805
0.505237	2.97
0.508885	3.312
0.556487	3.312
0.562161	3.654
0.60795	3.882
0.61403	4.11
0.656971	4.11
0.664266	4.224
0.707421	3.426
0.71269	3.768
0.761711	3.768
0.765561	4.11
0.793314	3.996
0.810945	4.338
0.84194	4.566
0.865234	4.794
0.897648	5.364
0.906362	5.097
0.913455	5.022
0.956397	6.275
0.962476	6.617
0.99185	8.895
