Adsorption isotherm of Methane on NAHA-4
DOI: 10.1039/c5ta08436a
Article source: Figure 5
Adsorbate Methane: InChIKey VNWKTOKETHGBQD-UHFFFAOYSA-N
Kind: experiment
Temperature: 273 K
Tabular data in the source: 0
pressure (bar)	uptake (mmol/g)
0.000845	0.0079
0.006164	0.02945
0.013931	0.05723
0.017891	0.08516
0.025395	0.10644
0.032632	0.13761
0.066022	0.2586
0.100462	0.35774
0.134144	0.4465
0.200794	0.60038
0.266327	0.74124
0.333637	0.86885
0.399581	0.98555
0.466659	1.10023
0.533008	1.20038
0.600633	1.30054
0.666129	1.38741
0.732476	1.47188
0.800097	1.55393
0.866868	1.63478
0.934914	1.71441
1.01572	1.80732
