Adsorption isotherm of Methane on NAHA-2
DOI: 10.1039/c5ta08436a
Article source: Figure 7
Adsorbate Methane: InChIKey VNWKTOKETHGBQD-UHFFFAOYSA-N
Kind: experiment
Temperature: 323 K
Tabular data in the source: 0
pressure (bar)	uptake (mmol/g)
0.00342	0.00761
0.01103	0.01766
0.02324	0.03324
0.03368	0.04479
0.06535	0.07994
0.09932	0.12214
0.13418	0.16383
0.19876	0.23314
0.26761	0.30037
0.33489	0.36773
0.40008	0.43233
0.4663	0.49369
0.53386	0.55195
0.60023	0.60791
0.66683	0.66136
0.733	0.71353
0.79959	0.76211
0.86458	0.81172
0.9316	0.86007
1.01256	0.91219
