Adsorption isotherm of Carbon Dioxide on PHA
DOI: 10.1039/c5ta08436a
Article source: Figure 5
Adsorbate Carbon Dioxide: InChIKey CURLTUGMZLYLDI-UHFFFAOYSA-N
Kind: experiment
Temperature: 273 K
Tabular data in the source: 0
pressure (bar)	uptake (mmol/g)
0.0007	0.01392
0.0058	0.11985
0.01261	0.22734
0.01721	0.30003
0.02422	0.40906
0.03003	0.47403
0.03504	0.53512
0.04286	0.59623
0.05489	0.68441
0.06342	0.74242
0.07445	0.81359
0.0907	0.88478
0.10454	0.94669
0.12125	1.01857
0.13995	1.08878
0.15576	1.14242
0.17472	1.19899
0.2086	1.28582
0.24401	1.3668
0.2789	1.43902
0.3133	1.49955
0.34795	1.55424
0.38336	1.60309
0.41851	1.65778
0.45291	1.70272
0.48857	1.74378
0.52272	1.78288
0.55712	1.81614
0.59272	1.85264
0.62746	1.88591
0.66156	1.91551
0.69613	1.93896
0.73135	1.96611
0.76641	1.99079
0.79994	2.01193
0.83612	2.0413
0.87102	2.06677
0.90543	2.08639
0.94084	2.10212
0.97499	2.12563
1.0104	2.13941
