Adsorption isotherm of Carbon Dioxide on NAHA-0.5
DOI: 10.1039/c5ta08436a
Article source: Figure 6
Adsorbate Carbon Dioxide: InChIKey CURLTUGMZLYLDI-UHFFFAOYSA-N
Kind: experiment
Temperature: 273 K
Tabular data in the source: 0
pressure (bar)	uptake (mmol/g)
0.001278	0.03128
0.001636	0.10664
0.002421	0.2157
0.004432	0.36337
0.009717	0.47856
0.013825	0.63051
0.018429	0.75612
0.023465	0.88602
0.029733	1.02143
0.037112	1.15071
0.044054	1.3137
0.049524	1.42705
0.053212	1.5018
0.060592	1.62251
0.069024	1.75365
0.078251	1.86086
0.087665	1.9828
0.095915	2.06123
0.10435	2.13966
0.119592	2.28376
0.140436	2.42888
0.156635	2.53979
0.174588	2.65423
0.206876	2.83875
0.243825	3.02173
0.277523	3.16213
0.313325	3.2954
0.347465	3.41019
0.381998	3.51818
0.417805	3.61935
0.451656	3.70205
0.486926	3.79155
0.522187	3.8734
0.556666	3.95293
0.591519	4.01873
0.62601	4.08586
0.660559	4.13685
0.695756	4.19385
0.730584	4.24963
