Adsorption isotherm of Hydrogen on NAHA-4
DOI: 10.1039/c5ta08436a
Article source: Figure 5
Adsorbate Hydrogen: InChIKey UFHFLCQGNIYNRP-UHFFFAOYSA-N
Kind: experiment
Temperature: 273 K
Tabular data in the source: 0
pressure (bar)	uptake (mmol/g)
0.00391	0.000413
0.01192	0.001838
0.02063	0.004646
0.03606	0.007595
0.06752	0.012439
0.13438	0.020887
0.20091	0.028602
0.26739	0.035418
0.33425	0.042611
0.40091	0.048931
0.46775	0.055533
0.53331	0.061683
0.59983	0.067562
0.66596	0.07406
0.73417	0.079874
0.79833	0.086299
0.86603	0.092185
0.93247	0.098718
1.01229	0.106111
