Adsorption isotherm of Carbon Dioxide on NAHA-4
DOI: 10.1039/c5ta08436a
Article source: Figure 5
Adsorbate Carbon Dioxide: InChIKey CURLTUGMZLYLDI-UHFFFAOYSA-N
Kind: experiment
Temperature: 273 K
Tabular data in the source: 0
pressure (bar)	uptake (mmol/g)
0.00177	0.12638
0.0064	0.25645
0.00913	0.40124
0.01521	0.5853
0.01952	0.67488
0.02687	0.74606
0.03294	0.86509
0.0438	0.98904
0.05131	1.07494
0.05978	1.18661
0.06792	1.28847
0.07527	1.36824
0.08533	1.44187
0.09571	1.55969
0.10625	1.61737
0.12174	1.75114
0.1409	1.88983
0.15607	2.00274
0.17459	2.1267
0.20995	2.32615
0.24388	2.52683
0.27883	2.71954
0.31407	2.88824
0.34752	3.04217
0.38375	3.18637
0.41741	3.33942
0.45316	3.47936
0.48748	3.61071
0.5218	3.73593
0.55596	3.87955
0.59407	4.00675
0.62604	4.11404
0.66323	4.23558
0.69739	4.34116
0.73171	4.4627
0.76776	4.57191
0.80171	4.66742
0.83503	4.77168
0.87152	4.87873
0.90781	4.98855
0.9418	5.09297
0.97649	5.18424
1.01138	5.26856
