Adsorption isotherm of Methane on NAHA-2
DOI: 10.1039/c5ta08436a
Article source: Figure 5
Adsorbate Methane: InChIKey VNWKTOKETHGBQD-UHFFFAOYSA-N
Kind: experiment
Temperature: 273 K
Tabular data in the source: 0
pressure (bar)	uptake (mmol/g)
0.001937	0.01119
0.007147	0.04345
0.010485	0.0704
0.018503	0.10569
0.02251	0.13187
0.031328	0.18045
0.069286	0.32197
0.101094	0.44794
0.134643	0.56556
0.199341	0.76701
0.267519	0.95251
0.333186	1.11459
0.399877	1.26164
0.468333	1.40121
0.533582	1.52712
0.599902	1.64847
0.667295	1.75615
0.734689	1.86231
0.800478	1.96089
0.867875	2.05186
0.933132	2.14133
1.0139	2.24291
