Adsorption isotherm of Nitrogen on NAHA-1
DOI: 10.1039/c5ta08436a
Article source: Figure 2
Adsorbate Nitrogen: InChIKey IJGRMHOSHXDMSA-UHFFFAOYSA-N
Kind: experiment
Temperature: 77 K
Tabular data in the source: 0
pressure (bar)	uptake (cm3(STP)/g)
0.000426	10.267
0.000527	16.287
0.000932	24.429
0.001034	33.424
0.001236	40.939
0.001337	48.454
0.001641	56.026
0.001743	63.997
0.001844	71.854
0.002057	79.426
0.002158	87.055
0.00226	94.911
0.002564	102.54
0.002665	110.169
0.002766	117.741
0.00307	125.313
0.003171	132.942
0.003374	140.458
0.003475	147.973
0.003577	155.545
0.003678	163.117
0.003779	170.632
0.003881	178.147
0.004083	201.243
0.004185	201.546
0.011176	210.598
0.021005	215.608
0.030124	218.056
0.039355	221.016
0.050602	223.293
0.0581	223.862
0.067432	225
0.079185	225.74
0.091952	226.878
0.103514	228.187
0.119938	228.757
0.138126	229.751
0.154531	230.654
0.173357	230.653
0.186225	231.195
0.202802	232.821
0.21487	233.092
0.225002	233.453
0.233534	233.814
0.245277	233.904
0.255572	234.446
0.267002	234.175
0.276009	234.536
0.28598	234.987
0.294511	235.258
0.305292	235.8
0.339722	236.702
0.352915	237.425
0.40376	237.604
0.454767	238.777
0.463613	239.59
0.50701	241.124
0.507051	241.125
0.558372	240.489
0.558909	240.469
0.60796	240.923
0.608568	240.979
0.657022	241.49
0.661277	244.564
0.708515	242.399
0.711352	245.815
0.75939	244.105
0.764862	247.407
0.804804	247.975
0.810681	245.242
0.859732	251.275
0.901296	255.373
0.908794	250.477
0.966367	259.812
0.967178	260.086
0.99718	277.915
