Adsorption isotherm of Ethane on NAHA-4
DOI: 10.1039/c5ta08436a
Article source: Figure 5
Adsorbate Ethane: InChIKey OTMSDBZUPAUEDD-UHFFFAOYSA-N
Kind: experiment
Temperature: 273 K
Tabular data in the source: 0
pressure (bar)	uptake (mmol/g)
0.000574	0.03511
0.002444	0.1835
0.004647	0.38803
0.008257	0.55254
0.010593	0.78318
0.016411	0.97048
0.022566	1.10554
0.024437	1.19558
0.03795	1.46737
0.066244	2.00627
0.100444	2.45098
0.132311	2.74217
0.166089	3.02985
0.198807	3.26458
0.232376	3.47992
0.266158	3.64584
0.33266	3.97946
0.399376	4.26368
0.465668	4.50026
0.532598	4.7139
0.597741	4.89093
0.666007	5.0667
0.732131	5.22468
0.798791	5.36487
0.865184	5.50729
0.930238	5.63192
1.01296	5.78549
