Adsorption isotherm of Ethane on NAHA-0.5
DOI: 10.1039/c5ta08436a
Article source: Figure 5
Adsorbate Ethane: InChIKey OTMSDBZUPAUEDD-UHFFFAOYSA-N
Kind: experiment
Temperature: 273 K
Tabular data in the source: 0
pressure (bar)	uptake (mmol/g)
0.000276	0.05361
0.0006	0.20096
0.000991	0.34831
0.001516	0.49567
0.002108	0.75465
0.002232	0.79092
0.003623	0.98054
0.003943	1.20073
0.00513	1.44428
0.011271	1.63561
0.022758	1.89818
0.035051	2.09848
0.048089	2.2908
0.062153	2.43456
0.081023	2.54965
0.098125	2.636
0.129349	2.77195
0.166292	2.88443
0.197397	2.97038
0.231476	3.03694
0.265482	3.09842
0.332632	3.19811
0.399533	3.26548
0.465517	3.31732
0.532427	3.37407
0.597821	3.4168
0.665239	3.45394
0.732993	3.49109
0.798725	3.52261
0.864484	3.54497
0.932437	3.56864
1.01111	3.60125
