Adsorption isotherm of Hydrogen on NAHA-2
DOI: 10.1039/c5ta08436a
Article source: Figure 7
Adsorbate Hydrogen: InChIKey UFHFLCQGNIYNRP-UHFFFAOYSA-N
Kind: experiment
Temperature: 87 K
Tabular data in the source: 0
pressure (bar)	uptake (mmol/g)
0.0018	0.0671
0.00373	0.2448
0.00531	0.5355
0.00883	0.8446
0.01342	1.1029
0.01748	1.2321
0.01871	1.4305
0.02135	1.5919
0.02736	1.7788
0.03001	1.9033
0.04733	2.4453
0.06802	2.9249
0.0988	3.4529
0.13206	3.9002
0.20003	4.5939
0.2657	5.1053
0.33103	5.513
0.3999	5.8721
0.46699	6.1604
0.53403	6.4197
0.60022	6.6515
0.66868	6.8549
0.7345	7.0315
0.79826	7.1969
0.86769	7.3591
0.93572	7.5103
1.01528	7.6651
