Adsorption isotherm of Carbon Dioxide on NAHA-2
DOI: 10.1039/c5ta08436a
Article source: Figure 7
Adsorbate Carbon Dioxide: InChIKey CURLTUGMZLYLDI-UHFFFAOYSA-N
Kind: experiment
Temperature: 273 K
Tabular data in the source: 0
pressure (bar)	uptake (mmol/g)
0.00592	0.2232
0.00658	0.25326
0.01239	0.37175
0.01462	0.53142
0.02311	0.70657
0.02802	0.81819
0.0345	0.94354
0.04344	1.10839
0.05282	1.25435
0.0622	1.38143
0.06913	1.50336
0.07851	1.61327
0.08834	1.73348
0.09594	1.82965
0.1051	1.93956
0.12074	2.09928
0.14012	2.28181
0.15786	2.43994
0.17418	2.58716
0.20767	2.8507
0.24421	3.11264
0.27807	3.33251
0.31427	3.54552
0.35003	3.74137
0.38333	3.92003
0.41909	4.07982
0.45351	4.23788
0.4886	4.38736
0.52369	4.52998
0.55698	4.66378
0.59263	4.79199
0.6274	4.9202
0.66271	5.03478
0.6957	5.15617
0.7326	5.26258
0.76709	5.36689
0.8014	5.4683
0.83683	5.55941
0.87063	5.64117
0.9062	5.73122
0.94052	5.8165
0.97618	5.90315
1.01237	5.9823
