Adsorption isotherm of Hydrogen on NAHA-2
DOI: 10.1039/c5ta08436a
Article source: Figure 5
Adsorbate Hydrogen: InChIKey UFHFLCQGNIYNRP-UHFFFAOYSA-N
Kind: experiment
Temperature: 273 K
Tabular data in the source: 0
pressure (bar)	uptake (mmol/g)
0.00605	0.000763
0.02171	0.002189
0.03676	0.004
0.06777	0.006438
0.10187	0.009564
0.13485	0.012258
0.20144	0.017669
0.26734	0.022704
0.3341	0.027771
0.4001	0.032766
0.46864	0.03769
0.53363	0.042793
0.60017	0.047996
0.66731	0.052988
0.73445	0.058107
0.80099	0.0628
0.86706	0.067823
0.93307	0.071999
1.01386	0.077917
