Adsorption isotherm of Methane on NAHA-0.5
DOI: 10.1039/c5ta08436a
Article source: Figure 5
Adsorbate Methane: InChIKey VNWKTOKETHGBQD-UHFFFAOYSA-N
Kind: experiment
Temperature: 273 K
Tabular data in the source: 0
pressure (bar)	uptake (mmol/g)
0.001813	0.00638
0.006763	0.05159
0.014387	0.09909
0.02054	0.14355
0.024821	0.17888
0.029101	0.20776
0.03472	0.2545
0.068693	0.43004
0.101328	0.57329
0.132759	0.7002
0.201372	0.9124
0.266335	1.08851
0.330873	1.22964
0.40008	1.36715
0.467348	1.48233
0.531376	1.58285
0.599447	1.669
0.664821	1.75516
0.732892	1.83461
0.79894	1.90353
0.865999	1.97437
0.93272	2.03563
1.01326	2.10072
