Adsorption isotherm of Carbon Dioxide on NAHA-2
DOI: 10.1039/c5ta08436a
Article source: Figure 6
Adsorbate Carbon Dioxide: InChIKey CURLTUGMZLYLDI-UHFFFAOYSA-N
Kind: experiment
Temperature: 273 K
Tabular data in the source: 0
pressure (bar)	uptake (mmol/g)
0.00224	0.12622
0.00502	0.28661
0.010911	0.43465
0.015715	0.56418
0.020366	0.67675
0.028898	0.82477
0.034169	0.94813
0.044098	1.12081
0.053564	1.2642
0.062099	1.38754
0.071255	1.5155
0.07886	1.61108
0.088328	1.72979
0.097176	1.83308
0.105869	1.93636
0.120773	2.0936
0.14018	2.28165
0.157727	2.43424
0.174806	2.59455
0.207216	2.84567
0.244198	3.10973
0.278247	3.32717
0.313863	3.5446
0.349286	3.73482
0.383731	3.91339
0.419351	4.08613
0.453016	4.23944
0.487464	4.3908
0.522892	4.52953
0.557048	4.66632
0.592477	4.79338
0.62732	4.91754
0.661478	5.03101
0.696321	5.14933
0.731752	5.26085
