Adsorption isotherm of Methane on PAF-26-COOK
DOI: 10.1039/c3py00647f
Article source: Figure 5c- COOK
Adsorbate Methane: InChIKey VNWKTOKETHGBQD-UHFFFAOYSA-N
Kind: experiment
Temperature: 273 K
Tabular data in the source: 0
pressure (bar)	uptake (cm3(STP)/g)
0.01262	0.3116
0.02791	0.6159
0.0322	0.7754
0.04328	1.0417
0.08125	1.7591
0.10229	2.2572
0.15236	3.3025
0.20312	4.2971
0.25328	5.2283
0.30447	6.1232
0.35455	6.9891
0.4042	7.8967
0.45497	8.596
0.50677	9.4076
0.55763	10.1419
0.55771	10.1431
0.60823	10.8062
0.6084	10.8315
0.65805	11.5
0.65806	11.5
0.70848	12.1739
0.70849	12.1739
0.75909	12.8229
0.7596	12.8297
0.81038	13.4692
0.86107	14.0435
0.91098	14.6504
0.91099	14.6504
0.96211	15.2083
1.0067	15.7446
1.00773	15.7571
