Adsorption isotherm of Carbon Dioxide on PAF-26-COOMg
DOI: 10.1039/c3py00647f
Article source: Figure 5a- COOMg
Adsorbate Carbon Dioxide: InChIKey CURLTUGMZLYLDI-UHFFFAOYSA-N
Kind: experiment
Temperature: 273 K
Tabular data in the source: 0
pressure (bar)	uptake (cm3(STP)/g)
0.0091	2.612
0.01091	2.453
0.01864	5.293
0.01976	4.228
0.03076	7.189
0.04012	8.691
0.04966	10.105
0.07948	12.907
0.07991	12.913
0.09977	16.004
0.09993	16.019
0.15081	20.846
0.15236	21.027
0.20272	25.204
0.25309	28.417
0.25378	28.456
0.30363	32.234
0.30371	32.24
0.35339	35.372
0.40341	38.135
0.40427	38.389
0.45421	40.734
0.45533	40.804
0.50458	43.714
0.50673	43.707
0.55563	46.376
0.55847	46.524
0.6091	48.524
0.65904	50.458
0.70975	52.454
0.7578	54.566
0.75943	54.622
0.80817	56.536
0.81066	56.657
0.86051	58.349
0.86103	58.364
0.91097	60.054
0.91217	60.075
0.96099	61.62
0.96108	61.624
1.00603	63.052
1.00758	63.098
