Adsorption isotherm of Carbon Dioxide on PAF-26-COOLi
DOI: 10.1039/c3py00647f
Article source: Figure 5a- COOLi
Adsorbate Carbon Dioxide: InChIKey CURLTUGMZLYLDI-UHFFFAOYSA-N
Kind: experiment
Temperature: 273 K
Tabular data in the source: 0
pressure (bar)	uptake (cm3(STP)/g)
0.06871	12.717
0.15163	19.559
0.20393	23.62
0.25365	27.225
0.30449	30.621
0.35241	33.643
0.40402	36.443
0.45624	38.97
0.50622	41.023
0.50785	42.67
0.55611	43.28
0.55758	43.341
0.60816	45.378
0.60911	45.406
0.65789	48.675
0.65927	47.332
0.70796	50.354
0.70925	50.411
0.75854	51.982
0.75992	52.062
0.80973	52.861
0.81016	52.875
0.85997	54.476
0.86221	54.496
0.91064	56.479
0.91193	56.016
0.96338	57.828
0.96398	57.848
1.00166	58.708
1.00226	58.727
