Adsorption isotherm of Methane on PAF-26-COOH
DOI: 10.1039/c3py00647f
Article source: Figure 5c- COOH
Adsorbate Methane: InChIKey VNWKTOKETHGBQD-UHFFFAOYSA-N
Kind: experiment
Temperature: 273 K
Tabular data in the source: 0
pressure (bar)	uptake (cm3(STP)/g)
0.01876	0.4812
0.03013	0.7324
0.08007	1.7202
0.10239	2.1993
0.15276	3.2442
0.20217	4.2389
0.2533	5.1926
0.30432	6.0869
0.356	6.9903
0.40594	7.8344
0.45577	8.6557
0.50734	9.4109
0.55804	10.2344
0.60939	10.9051
0.65958	11.6757
0.70936	12.3095
0.75889	13.0501
0.81005	13.682
0.91263	14.906
0.96206	15.5397
0.96327	15.5397
1.00153	16.0014
1.00291	16.0178
