Adsorption isotherm of Nitrogen on PAF-26-COOLi
DOI: 10.1039/c3py00647f
Article source: Figure 4- COOLi
Adsorbate Nitrogen: InChIKey IJGRMHOSHXDMSA-UHFFFAOYSA-N
Kind: experiment
Temperature: 77 K
Tabular data in the source: 0
pressure (bar)	uptake (cm3(STP)/g)
0.000101	106.024
0.000142	106.51
0.006302	124.429
0.011196	130.706
0.020539	134.861
0.031735	138.65
0.048697	153.122
0.051949	142.644
0.075903	146.821
0.101031	150.318
0.101872	150.107
0.152575	164.425
0.152737	164.419
0.201566	158.346
0.202974	158.577
0.253353	170.025
0.253748	170.192
0.304836	172.45
0.305535	172.264
0.354678	173.956
0.404601	176.504
0.404682	176.534
0.455304	177.72
0.455912	177.523
0.505784	172.214
0.506848	172.217
0.5567	180.251
0.558321	180.189
0.608173	181.734
0.609571	181.738
0.659494	182.714
0.710349	183.444
0.759097	184.424
0.811897	185.587
0.863998	187.709
0.910881	188.918
0.913678	185.174
0.962354	189.533
1.00824	202.223
