Adsorption isotherm of Methane on PAF-26-COOMg
DOI: 10.1039/c3py00647f
Article source: Figure 5c- COOMg
Adsorbate Methane: InChIKey VNWKTOKETHGBQD-UHFFFAOYSA-N
Kind: experiment
Temperature: 273 K
Tabular data in the source: 0
pressure (bar)	uptake (cm3(STP)/g)
0.00869	0.2915
0.01995	0.5504
0.02959	0.8473
0.03999	1.1334
0.05031	1.3742
0.05169	1.4158
0.07999	2.1454
0.10097	2.6288
0.15051	3.7983
0.15146	3.8216
0.2016	4.8914
0.20237	4.9081
0.25269	5.9816
0.25329	5.9939
0.303	6.9421
0.30386	6.9591
0.35409	7.9801
0.35469	7.9916
0.40466	8.8659
0.40535	8.878
0.45515	9.8302
0.45627	9.8504
0.50563	10.6561
0.50761	10.6845
0.55629	11.5317
0.55741	11.55
0.60686	12.2828
0.60858	12.3082
0.6583	13.1318
0.65898	13.142
0.70801	13.8689
0.70852	13.8757
0.75918	14.625
0.76064	14.6459
0.81001	15.3614
0.81061	15.3689
0.86101	16.0386
0.8623	16.0542
0.91193	16.7122
0.91219	16.7155
0.96199	17.3761
0.96302	17.3888
1.00662	17.9896
1.00817	18.0111
