Adsorption isotherm of Carbon Dioxide on PAF-26-COOK
DOI: 10.1039/c3py00647f
Article source: Figure 5a- COOK
Adsorbate Carbon Dioxide: InChIKey CURLTUGMZLYLDI-UHFFFAOYSA-N
Kind: experiment
Temperature: 273 K
Tabular data in the source: 0
pressure (bar)	uptake (cm3(STP)/g)
0.01634	6.168
0.02812	8.152
0.0393	9.628
0.05117	11.169
0.08212	15.257
0.10164	17.419
0.15237	21.957
0.20223	25.982
0.25244	29.335
0.25313	29.309
0.30229	32.37
0.30471	32.487
0.35449	33.486
0.40496	35.932
0.45508	39.928
0.45646	40.065
0.50581	41.833
0.50633	41.822
0.55696	42.264
0.55697	42.264
0.60717	44.249
0.60743	44.26
0.65798	46.07
0.65807	46.073
0.70802	48.824
0.70879	48.849
0.75831	49.35
0.75978	49.369
0.80921	50.855
0.81059	50.877
0.86019	53.07
0.86225	52.423
0.91281	54.001
0.91307	54.014
0.96224	55.166
0.96336	55.18
1.0066	56.492
1.00841	56.548
