Adsorption isotherm of Methane on PAF-26-COONa
DOI: 10.1039/c3py00647f
Article source: Figure 5c- COONa
Adsorbate Methane: InChIKey VNWKTOKETHGBQD-UHFFFAOYSA-N
Kind: experiment
Temperature: 273 K
Tabular data in the source: 0
pressure (bar)	uptake (cm3(STP)/g)
0.01023	0.1541
0.02312	0.3136
0.0318	0.6399
0.03996	0.8901
0.05164	1.1384
0.05439	1.2707
0.08043	1.8055
0.10097	2.3149
0.15175	3.3463
0.20202	4.4177
0.25212	5.4654
0.25315	5.4855
0.30265	6.3974
0.30411	6.4207
0.35387	7.3253
0.35481	7.3424
0.405	8.2194
0.40509	8.2208
0.45544	9.0311
0.50623	9.8631
0.50649	9.8776
0.55719	10.6626
0.55737	10.6651
0.60773	11.4003
0.60781	11.4017
0.65852	12.1267
0.65869	12.1291
0.70879	12.8469
0.70922	12.8533
0.75915	13.5464
0.7607	13.5684
0.80977	14.2119
0.86065	14.8687
0.86108	14.8736
0.91144	15.4645
0.91204	15.4681
0.96154	16.0754
0.96249	16.0875
1.00623	16.6011
1.00855	16.6284
