Adsorption isotherm of Nitrogen on PAF-26-COOMg
DOI: 10.1039/c3py00647f
Article source: Figure 4- COOMg
Adsorbate Nitrogen: InChIKey IJGRMHOSHXDMSA-UHFFFAOYSA-N
Kind: experiment
Temperature: 77 K
Tabular data in the source: 0
pressure (bar)	uptake (cm3(STP)/g)
5.1e-05	45.741
0.000122	61.878
0.000122	50.1
0.000152	8.788
0.000152	6.203
0.000152	0.571
0.000213	38.049
0.000253	96.96
0.000334	88.857
0.000345	69.758
0.000345	71.738
0.000405	93.627
0.000578	68.2
0.000719	100.863
0.001641	107.345
0.004124	111.522
0.006221	115.585
0.00762	118.347
0.010497	122.127
0.011744	121.793
0.031715	132.019
0.032404	142.062
0.051068	137.04
0.051757	147.22
0.070958	150.256
0.101122	154.966
0.102602	155.186
0.153051	159.814
0.153203	159.888
0.20264	163.471
0.203967	154.912
0.25232	166.53
0.253019	166.526
0.301989	168.835
0.302698	168.858
0.3533	171.209
0.353614	171.225
0.404135	173.149
0.404297	173.159
0.454118	175.135
0.455132	175.141
0.505196	170.595
0.505895	170.593
0.555332	172.299
0.556345	172.282
0.606177	174.236
0.607423	174.176
0.656008	176.308
0.657326	176.002
0.708404	182.498
0.708941	182.598
0.759552	183.762
0.759634	183.751
0.808837	185.406
0.809151	185.424
0.860067	182.849
0.860533	182.938
0.909037	185.337
0.910284	185.382
0.959102	187.848
0.963145	190.77
1.00481	198.644
