Adsorption isotherm of Methane on PAF-26-COOLi
DOI: 10.1039/c3py00647f
Article source: Figure 5c- COOLi
Adsorbate Methane: InChIKey VNWKTOKETHGBQD-UHFFFAOYSA-N
Kind: experiment
Temperature: 273 K
Tabular data in the source: 0
pressure (bar)	uptake (cm3(STP)/g)
0.55708	10.4139
0.60758	11.1856
0.65895	11.9265
0.70885	12.6148
0.75969	13.3031
0.81002	13.9643
0.86061	14.5947
0.91266	15.2178
0.96153	15.841
1.00145	16.292
1.00532	16.3284
