Adsorption isotherm of Nitrogen on PAF-26-COOH
DOI: 10.1039/c3py00647f
Article source: Figure 4- COOH
Adsorbate Nitrogen: InChIKey IJGRMHOSHXDMSA-UHFFFAOYSA-N
Kind: experiment
Temperature: 77 K
Tabular data in the source: 0
pressure (bar)	uptake (cm3(STP)/g)
0.002604	133.967
0.002928	137.497
0.005421	143.089
0.007528	148.315
0.010872	151.967
0.020447	160.138
0.030246	164.908
0.041371	168.469
0.049629	173.289
0.050551	171.23
0.075436	176.936
0.101659	181.923
0.102105	181.706
0.152504	189.1
0.152677	189.272
0.202194	194.234
0.203917	211.558
0.253829	214.974
0.254235	215.027
0.304137	203.065
0.304228	203.069
0.354526	206.807
0.354779	206.783
0.405482	223.72
0.405695	210.595
0.456023	213.695
0.456317	213.698
0.506726	216.678
0.508033	216.55
0.557419	229.856
0.55827	229.886
0.607808	222.353
0.608264	222.345
0.659747	224.854
0.659818	224.855
0.709832	234.965
0.710136	234.985
0.759593	236.242
0.759978	236.263
0.810529	231.832
0.811846	231.768
0.861617	239.39
0.861921	239.425
0.912695	236.855
0.91309	236.949
0.962466	240.415
0.96278	240.415
1.00719	253.287
