Adsorption isotherm of Nitrogen on PAF-26-COOK
DOI: 10.1039/c3py00647f
Article source: Figure 4- COOK
Adsorbate Nitrogen: InChIKey IJGRMHOSHXDMSA-UHFFFAOYSA-N
Kind: experiment
Temperature: 77 K
Tabular data in the source: 0
pressure (bar)	uptake (cm3(STP)/g)
0	29.495
8.1e-05	53.415
0.000233	69.58
0.000385	81.013
0.004357	92.54
0.010649	96.261
0.0199	98.864
0.030631	101.238
0.039182	102.996
0.049295	117.211
0.049994	117.514
0.075882	107.95
0.101234	122.251
0.102014	122.24
0.151775	125.199
0.152241	125.232
0.202772	115.942
0.203785	116.029
0.253161	118.089
0.255258	127.996
0.30432	129.086
0.304938	129.139
0.35485	121.926
0.355397	130.418
0.404074	122.338
0.405472	122.281
0.455466	131.676
0.457878	124.873
0.505693	125.659
0.507324	125.514
0.556386	132.819
0.556467	132.827
0.607079	127.251
0.607626	127.374
0.65917	133.506
0.660649	133.255
0.707684	129.079
0.710795	133.576
0.758924	130.085
0.761336	133.646
0.809698	130.497
0.81063	134.286
0.860705	134.287
0.86109	134.249
0.912097	134.696
0.914043	135.11
0.959213	136.001
0.962405	135.439
1.00906	143.581
