Adsorption isotherm of Carbon Dioxide on PAF-26-COONa
DOI: 10.1039/c3py00647f
Article source: Figure 5a- COONa
Adsorbate Carbon Dioxide: InChIKey CURLTUGMZLYLDI-UHFFFAOYSA-N
Kind: experiment
Temperature: 273 K
Tabular data in the source: 0
pressure (bar)	uptake (cm3(STP)/g)
0.02081	6.844
0.03216	8.954
0.03964	10.538
0.0516	12.408
0.0805	16.304
0.10045	18.573
0.1524	23.8
0.20281	27.816
0.20349	27.917
0.25381	29.671
0.2539	29.678
0.30404	34.816
0.30413	34.823
0.35402	35.943
0.35488	37.717
0.4052	40.341
0.40546	40.377
0.45517	42.873
0.50627	45.21
0.55693	47.344
0.60682	49.225
0.60923	47.938
0.65774	51.264
0.66067	49.996
0.7066	52.967
0.71108	51.82
0.76148	53.682
0.81103	55.462
0.8112	55.467
0.86143	57.716
0.86238	57.747
0.9121	58.646
0.91262	59.102
0.96233	60.391
0.96276	60.406
1.00681	61.488
