Adsorption isotherm of Nitrogen on PAF-26-COONa
DOI: 10.1039/c3py00647f
Article source: Figure 4- COONa
Adsorbate Nitrogen: InChIKey IJGRMHOSHXDMSA-UHFFFAOYSA-N
Kind: experiment
Temperature: 77 K
Tabular data in the source: 0
pressure (bar)	uptake (cm3(STP)/g)
8e-06	88.457
1e-05	88.498
0.000101	89.101
0.008815	105.402
0.01527	111.269
0.032373	113.575
0.042019	114.922
0.049558	117.251
0.051433	126.999
0.076308	120.767
0.102348	132.388
0.102359	132.387
0.151643	126.43
0.153122	126.745
0.202488	129.285
0.203582	129.389
0.25388	139.948
0.254265	139.97
0.303874	134.173
0.304107	134.163
0.354719	143.374
0.354871	143.344
0.403618	137.736
0.405563	144.859
0.456175	139.57
0.456327	139.541
0.50546	146.948
0.506402	146.939
0.556781	142.237
0.557166	142.251
0.606683	148.75
0.607079	148.767
0.658238	149.701
0.658309	149.704
0.709386	146.236
0.709549	146.235
0.759927	147.561
0.760545	147.539
0.811471	148.717
0.811704	148.726
0.861769	152.129
0.861931	152.136
0.913313	151.788
0.962527	155.281
0.962689	155.276
1.00763	162.999
