Adsorption isotherm of Carbon Dioxide on PAF-26-COOH
DOI: 10.1039/c3py00647f
Article source: Figure 5a- COOH
Adsorbate Carbon Dioxide: InChIKey CURLTUGMZLYLDI-UHFFFAOYSA-N
Kind: experiment
Temperature: 273 K
Tabular data in the source: 0
pressure (bar)	uptake (cm3(STP)/g)
0.00954	2.289
0.00963	2.314
0.01693	3.627
0.02278	3.392
0.03095	4.629
0.03155	4.521
0.04083	5.802
0.04118	5.931
0.0502	6.861
0.05192	7.038
0.07994	10.195
0.08063	10.221
0.1004	12.169
0.10212	12.244
0.15258	17.646
0.20158	21.319
0.20313	21.431
0.25213	23.549
0.2535	23.657
0.30319	27.725
0.30353	27.759
0.35408	29.427
0.35442	29.433
0.40437	33.161
0.45483	35.488
0.4556	34.448
0.50546	37.707
0.50744	37.761
0.55626	38.758
0.55815	38.792
0.60732	41.721
0.60767	41.736
0.65718	43.547
0.65942	42.697
0.70695	44.605
0.70936	44.625
0.75845	46.92
0.7612	46.274
0.81088	48.498
0.81148	48.524
0.86143	49.401
0.86229	49.425
0.91283	51.321
0.91344	51.34
0.96123	52.468
0.96243	52.652
1.00086	53.546
1.00129	53.546
