Adsorption isotherm of Carbon Dioxide on [Fe(btzx)3](ClO4)2
DOI: 10.1021/Ja407135k
Adsorbate Carbon Dioxide: InChIKey CURLTUGMZLYLDI-UHFFFAOYSA-N
Temperature: 273 K
Tabular data in the source: 0
pressure (bar)	uptake (mmol/g)
0.00515504	1.23e-05
0.0180263	7.81e-05
0.0280373	0.000131
0.045199	0.000215
0.0595005	0.000293
0.075232	0.000363
0.108125	0.000444
0.15103	0.000524
0.201085	0.000596
0.25686	0.000652
0.332658	0.000709
0.415606	0.000755
0.537168	0.000806
0.670172	0.000843
0.806035	0.000878
0.937608	0.000902
1.00053	0.000909
