Adsorption isotherm of Carbon Dioxide on [Fe(btzx)3](ClO4)2
DOI: 10.1021/Ja407135k
Adsorbate Carbon Dioxide: InChIKey CURLTUGMZLYLDI-UHFFFAOYSA-N
Temperature: 313 K
Tabular data in the source: 0
pressure (bar)	uptake (mmol/g)
0.0137359	1.95e-05
0.0480593	6.95e-05
0.0809526	0.000117
0.133868	0.000188
0.191074	0.00025
0.259721	0.000314
0.335518	0.000376
0.418466	0.00043
0.537168	0.000491
0.600095	0.000517
0.671602	0.000544
0.735958	0.000567
0.801745	0.000586
0.870392	0.000604
0.940469	0.00062
