Adsorption isotherm of Carbon Dioxide on [Fe(btzx)3](ClO4)2
DOI: 10.1021/Ja407135k
Adsorbate Carbon Dioxide: InChIKey CURLTUGMZLYLDI-UHFFFAOYSA-N
Temperature: 333 K
Tabular data in the source: 0
pressure (bar)	uptake (mmol/g)
0.0137359	8.05e-06
0.0566402	4.52e-05
0.133868	0.000112
0.188213	0.000152
0.25686	0.000197
0.338378	0.000248
0.415606	0.000287
0.540029	0.000337
0.607245	0.000361
0.671602	0.000384
0.735958	0.000404
0.804605	0.000426
0.867531	0.000443
0.937608	0.00046
