Adsorption isotherm of Carbon Dioxide on [Fe(btzx)3](ClO4)2
DOI: 10.1021/Ja407135k
Adsorbate Carbon Dioxide: InChIKey CURLTUGMZLYLDI-UHFFFAOYSA-N
Temperature: 283 K
Tabular data in the source: 0
pressure (bar)	uptake (mmol/g)
0.00801532	1.52e-05
0.0180263	6.38e-05
0.0423388	0.000152
0.0609306	0.00022
0.0895335	0.000297
0.122427	0.000373
0.165331	0.00044
0.216816	0.00051
0.308345	0.000596
0.417036	0.000664
0.535738	0.000722
0.670172	0.000767
0.803175	0.000799
0.870392	0.000815
0.936178	0.00083
