Adsorption isotherm of Carbon Dioxide on [Fe(btzx)3](ClO4)2
DOI: 10.1021/Ja407135k
Adsorbate Carbon Dioxide: InChIKey CURLTUGMZLYLDI-UHFFFAOYSA-N
Temperature: 298 K
Tabular data in the source: 0
pressure (bar)	uptake (wt%)
0.0515504	0.031116
0.0658518	0.391512
0.180263	1.28392
0.294675	2.00471
0.494895	2.74267
0.666512	3.25752
1.06695	3.74663
1.5818	4.06412
2.09665	4.2958
3.09775	4.51032
4.12746	4.68194
5.12856	4.81065
6.10106	4.9222
7.11646	4.99943
8.10326	5.08524
9.19016	5.15389
