Adsorption isotherm of Carbon Dioxide on [Fe(btzx)3](ClO4)2
DOI: 10.1021/Ja407135k
Adsorbate Carbon Dioxide: InChIKey CURLTUGMZLYLDI-UHFFFAOYSA-N
Temperature: 298 K
Tabular data in the source: 0
pressure (bar)	uptake (mmol/g)
0.00944547	9.48e-06
0.035188	6.95e-05
0.0637909	0.000135
0.100975	0.000214
0.141019	0.000278
0.188213	0.000348
0.232548	0.000393
0.311206	0.000466
0.415606	0.00054
0.537168	0.000603
0.670172	0.00065
0.804605	0.000692
0.937608	0.000725
