Adsorption isotherm of Nitrogen on [Fe(btzx)3](ClO4)2
DOI: 10.1021/Ja407135k
Adsorbate Nitrogen: InChIKey IJGRMHOSHXDMSA-UHFFFAOYSA-N
Temperature: 298 K
Tabular data in the source: 0
pressure (bar)	uptake (wt%)
0.108756	0.0225351
0.223168	0.0225351
0.466292	0.0654394
0.709416	0.108344
1.06695	0.176991
1.61041	0.27138
2.11096	0.348608
3.12636	0.494482
4.05595	0.666099
5.05705	0.820555
6.08675	0.96643
7.05925	1.12947
8.11756	1.26676
9.17586	1.36973
