Adsorption isotherm of Nitrogen on MIL-53(Al)
DOI: 10.1016/j.ijhydene.2013.07.054
Adsorbate Nitrogen: InChIKey IJGRMHOSHXDMSA-UHFFFAOYSA-N
Temperature: 323 K
Tabular data in the source: 0
pressure (bar)	uptake (ml/g)
0.441096	280.6
1.64278	313.373
7.89152	328.667
15.8226	331.945
34.3285	331.945
51.152	331.945
63.8898	331.945
77.589	331.945
88.8848	331.945
96.8159	331.945
105.468	341.777
108.112	357.071
109.313	390.936
