Adsorption isotherm of Nitrogen on MIL-53(Al)
DOI: 10.1016/j.ijhydene.2013.07.054
Adsorbate Nitrogen: InChIKey IJGRMHOSHXDMSA-UHFFFAOYSA-N
Temperature: 323 K
Tabular data in the source: 0
pressure (bar)	uptake (ml/g)
0.921768	276.23
3.8058	289.34
9.33353	296.987
15.8226	300.264
21.831	302.449
39.1352	307.911
54.0361	307.911
75.426	307.911
84.7991	307.911
93.9319	314.466
99.2192	324.298
104.747	337.407
108.592	359.256
109.313	389.844
