Adsorption isotherm of Nitrogen on MIL-53(Al)
DOI: 10.1016/j.ijhydene.2013.07.054
Adsorbate Nitrogen: InChIKey IJGRMHOSHXDMSA-UHFFFAOYSA-N
Temperature: 298 K
Tabular data in the source: 0
pressure (bar)	uptake (ml/g)
0.441096	47.911
0.681432	319.928
2.12345	342.869
5.96883	358.163
16.5436	363.625
29.7621	365.81
49.2293	366.903
65.5722	364.718
79.9924	364.718
93.4512	369.087
98.2579	370.18
100.181	378.919
