Adsorption isotherm of Nitrogen on MIL-53(Al)
DOI: 10.1016/j.ijhydene.2013.07.054
Adsorbate Nitrogen: InChIKey IJGRMHOSHXDMSA-UHFFFAOYSA-N
Temperature: 298 K
Tabular data in the source: 0
pressure (bar)	uptake (ml/g)
0.441096	47.911
0.681432	319.928
1.64278	335.222
5.96883	343.961
11.0159	347.239
18.7066	351.608
45.6243	351.608
71.8209	350.516
92.9705	350.516
98.2579	353.793
99.6999	360.348
