Adsorption isotherm of Nitrogen on MIL-53(Al)
DOI: 10.1016/j.ijhydene.2013.07.054
Adsorbate Nitrogen: InChIKey IJGRMHOSHXDMSA-UHFFFAOYSA-N
Temperature: 373 K
Tabular data in the source: 0
pressure (bar)	uptake (ml/g)
0.20076	114.55
0.441096	338.499
0.681432	365.81
2.36379	376.735
7.17051	384.382
13.8999	386.566
20.6293	389.844
27.5991	390.936
33.8478	390.936
51.6327	386.566
73.7436	384.382
84.3184	382.197
95.3739	382.197
100.902	385.474
104.747	393.121
108.112	405.138
108.833	414.97
109.554	455.39
