Adsorption isotherm of Nitrogen on MIL-53(Al)
DOI: 10.1016/j.ijhydene.2013.07.054
Adsorbate Nitrogen: InChIKey IJGRMHOSHXDMSA-UHFFFAOYSA-N
Temperature: 373 K
Tabular data in the source: 0
pressure (bar)	uptake (ml/g)
0.441096	21.6925
0.681432	280.6
1.88311	291.524
5.00748	300.264
9.57387	304.634
17.0243	306.819
20.6293	306.819
31.4445	309.003
42.2596	307.911
50.9117	310.096
64.1302	307.911
78.5503	304.634
87.2024	304.634
99.2192	304.634
103.545	312.281
106.189	322.113
107.631	336.314
108.352	342.869
