Adsorption isotherm of Nitrogen on MIL-53(Al)
DOI: 10.1016/j.ijhydene.2013.07.054
Adsorbate Nitrogen: InChIKey IJGRMHOSHXDMSA-UHFFFAOYSA-N
Temperature: 323 K
Tabular data in the source: 0
pressure (bar)	uptake (ml/g)
0.681432	4.21351
0.681432	280.6
1.64278	309.003
3.56547	317.743
8.85286	323.205
16.0629	327.575
52.3537	329.76
65.3319	334.129
88.4041	334.129
99.2192	331.945
105.228	337.407
108.592	337.407
109.794	382.197
