Adsorption isotherm of Nitrogen on MIL-53(Al)
DOI: 10.1016/j.ijhydene.2013.07.054
Adsorbate Nitrogen: InChIKey IJGRMHOSHXDMSA-UHFFFAOYSA-N
Temperature: 373 K
Tabular data in the source: 0
pressure (bar)	uptake (ml/g)
0.921768	274.045
3.08479	293.709
11.2562	300.264
19.668	303.541
27.3587	304.634
40.3369	305.726
53.315	305.726
65.3319	307.911
78.31	302.449
91.7688	303.541
101.142	312.281
107.15	330.852
108.352	360.348
109.313	399.676
