Adsorption isotherm of Nitrogen on MIL-53(Al)
DOI: 10.1016/j.ijhydene.2013.07.054
Adsorbate Nitrogen: InChIKey IJGRMHOSHXDMSA-UHFFFAOYSA-N
Temperature: 373 K
Tabular data in the source: 0
pressure (bar)	uptake (ml/g)
0.441096	0.936194
0.921768	292.617
4.52681	306.819
10.5352	314.466
18.4663	316.65
41.5386	313.373
63.6495	311.188
85.5201	310.096
95.6142	310.096
104.747	317.743
109.554	378.919
