Adsorption isotherm of Nitrogen on MIL-53(Al)
DOI: 10.1016/j.ijhydene.2013.07.054
Adsorbate Nitrogen: InChIKey IJGRMHOSHXDMSA-UHFFFAOYSA-N
Temperature: 298 K
Tabular data in the source: 0
pressure (bar)	uptake (ml/g)
0.441096	338.499
1.40244	366.903
4.04614	383.289
10.5352	387.659
16.5436	388.751
34.0882	388.751
54.5167	387.659
72.0613	385.474
87.2024	382.197
92.7302	384.382
97.0562	395.306
99.4596	416.062
100.421	458.667
