Adsorption isotherm of Nitrogen on MIL-53(Al)
DOI: 10.1016/j.ijhydene.2013.07.054
Adsorbate Nitrogen: InChIKey IJGRMHOSHXDMSA-UHFFFAOYSA-N
Temperature: 298 K
Tabular data in the source: 0
pressure (bar)	uptake (ml/g)
0.441096	47.911
0.681432	319.928
1.64278	342.869
9.57387	354.886
19.4277	355.978
68.4562	357.071
83.1167	357.071
88.8848	358.163
97.0562	362.533
100.181	382.197
