Adsorption isotherm of Nitrogen on MIL-53(Al)
DOI: 10.1016/j.ijhydene.2013.07.054
Adsorbate Nitrogen: InChIKey IJGRMHOSHXDMSA-UHFFFAOYSA-N
Temperature: 373 K
Tabular data in the source: 0
pressure (bar)	uptake (ml/g)
0.20076	359.256
0.441096	335.222
0.921768	371.272
5.24782	384.382
11.0159	388.751
23.7537	390.936
41.7789	387.659
59.0831	386.566
79.9924	383.289
100.421	383.289
105.228	388.751
106.429	399.676
108.592	413.877
109.073	459.76
