Adsorption isotherm of Nitrogen on opt-UiO-66(Zr)-(OH)2
DOI: 10.1002/aic.15837
Article source: Figure 2A
Adsorbate Nitrogen: InChIKey IJGRMHOSHXDMSA-UHFFFAOYSA-N
Kind: experiment
Temperature: 77 K
Tabular data in the source: 0
pressure (bar)	uptake (cm3(STP)/g)
0.000957	3.75186
0.000957	9.62726
0.000957	14.9151
0.000957	19.6154
0.000957	24.9033
0.000957	29.6036
0.000957	36.0666
0.000957	41.3544
0.000957	46.0548
0.000957	50.7551
0.000957	56.0429
0.000957	60.1557
0.000957	64.856
0.000957	71.319
0.000957	76.0193
0.000957	81.3072
0.000957	85.42
0.000957	90.7078
0.000957	95.9957
0.000957	100.108
0.000957	104.809
0.002155	110.684
0.000957	115.385
0.002155	120.085
0.000957	125.373
0.000957	131.248
0.000957	135.948
0.000957	141.824
0.002155	147.699
0.000957	152.4
0.002155	156.512
0.000957	161.8
0.000957	165.325
0.002155	170.613
0.002155	175.314
0.000957	180.601
0.000957	186.477
0.000957	191.177
0.002155	196.465
0.002155	201.165
0.000957	206.453
0.000957	210.566
0.000957	214.679
0.000957	219.379
0.000957	224.667
0.000957	229.367
0.000957	235.83
0.002155	241.118
0.002155	245.818
0.000957	250.519
0.002155	254.044
0.002155	259.919
0.002155	264.032
0.000957	269.32
0.002155	274.02
0.003354	279.308
0.009345	286.359
0.018931	292.528
0.030913	297.522
0.038102	299.285
0.050084	301.047
0.05967	302.222
0.069256	302.222
0.078841	303.397
0.088427	304.573
0.099211	305.748
0.111193	306.923
0.124973	306.923
0.133959	308.098
0.145942	308.098
0.156726	309.273
0.168708	309.86
0.175897	309.273
0.186681	311.035
0.192672	311.623
0.203456	311.623
0.213042	311.623
0.226222	312.211
0.237006	312.211
0.246592	313.973
0.25498	313.973
0.264565	315.148
0.275349	315.148
0.281939	315.442
0.294521	315.736
0.304106	315.736
0.316089	315.148
0.323278	316.323
0.330467	316.323
0.340053	316.911
0.347242	317.498
0.354432	317.498
0.361621	317.498
0.36881	317.498
0.377198	317.498
0.381991	318.673
0.393973	318.086
0.404757	318.673
0.414343	318.673
0.425126	319.849
0.434712	319.849
0.445496	319.849
0.453884	319.849
0.463469	319.849
0.470659	321.024
0.481443	321.024
0.492227	321.024
0.505407	322.199
0.514993	322.199
0.522182	322.786
0.53057	322.786
0.544948	322.786
0.554534	323.961
0.56412	323.961
0.575503	325.136
0.585688	325.136
0.596472	325.724
0.604859	326.311
0.615643	325.724
0.625229	326.899
0.636013	328.074
0.6444	328.074
0.656383	329.249
0.667766	329.249
0.677951	329.837
0.687536	329.837
0.694726	329.837
0.704311	330.424
0.713897	330.424
0.725879	331.599
0.735465	331.012
0.745051	332.187
0.754636	332.187
0.760628	332.187
0.767817	332.187
0.780997	332.187
0.791781	333.362
0.800169	333.95
0.810953	335.125
0.81934	335.125
0.82653	335.712
0.837314	336.887
0.850494	336.3
0.86008	335.712
0.87326	336.887
0.882846	337.475
0.891233	338.65
0.904414	340.412
0.916396	342.175
0.929576	343.35
0.941559	344.525
0.948748	345.994
0.958334	347.463
0.966721	349.226
0.97391	352.163
0.9811	354.513
0.989487	357.451
1.00027	363.327
0.999073	365.089
0.984095	364.502
0.970316	361.564
0.96073	357.451
0.949946	354.513
0.941559	350.988
0.931973	348.638
0.922387	346.288
0.913999	344.525
0.900819	342.175
0.891233	342.175
0.884044	341.588
0.874458	339.825
0.86008	339.825
0.85289	338.062
0.843305	337.475
0.831322	337.475
0.820538	336.3
0.810953	335.125
0.798971	335.125
0.790583	334.831
0.778601	333.95
0.770213	333.95
0.760628	332.774
0.751042	332.774
0.740258	332.774
0.729474	332.187
0.719888	331.599
0.709104	331.012
0.700717	331.012
0.691131	331.012
0.679149	330.424
0.668365	329.837
0.658779	329.249
0.649193	329.249
0.638409	329.249
0.630022	328.662
0.616841	328.662
0.608454	328.074
0.598868	328.074
0.586886	327.487
0.5773	326.899
0.567714	326.899
0.558129	326.311
0.546147	326.311
0.536561	325.724
0.524579	325.136
0.514993	325.136
0.504209	325.136
0.498817	324.843
0.486236	323.668
0.479046	323.374
0.465866	321.611
0.458677	321.611
0.447893	321.024
0.438307	321.024
0.426325	320.436
0.417937	318.673
0.40955	319.261
0.396369	319.261
0.386784	319.261
0.377198	318.673
0.36881	317.498
0.35563	316.911
0.348441	316.323
0.33526	316.323
0.323278	315.148
0.313692	316.323
0.304106	315.148
0.295719	315.148
0.284935	313.973
0.274151	313.973
0.265763	313.386
0.253781	312.211
0.245394	312.211
0.237006	312.211
0.226222	312.211
0.216637	312.211
0.208249	312.211
0.195069	311.623
0.185483	311.035
0.174699	311.035
0.165113	309.86
0.155527	309.273
0.145942	309.273
0.133959	309.273
0.12677	307.51
0.116585	306.923
0.104004	306.923
0.094418	305.748
0.086031	305.16
0.074049	303.985
0.062066	302.81
0.054877	302.81
0.040498	299.872
0.033309	297.522
0.021327	292.234
0.011741	286.359
