Adsorption isotherm of Carbon Dioxide, Nitrogen on opt-UiO-66(Zr)-(OH)2
DOI: 10.1002/aic.15837
Article source: Table S5
Adsorbate Carbon Dioxide: InChIKey CURLTUGMZLYLDI-UHFFFAOYSA-N
Adsorbate Nitrogen: InChIKey IJGRMHOSHXDMSA-UHFFFAOYSA-N
Kind: experiment
Temperature: 298 K
Tabular data in the source: 0
pressure (bar)	Carbon Dioxide fraction	Carbon Dioxide uptake (mmol/g)	Nitrogen fraction	Nitrogen uptake (mmol/g)	total uptake (mmol/g)
1.5	0.15	2.52	0.85	0.33	
1.5	0.15	2.65	0.85	0.37	
1.5	0.15	2.74	0.85	0.38	
1.5	0.15	2.55	0.85	0.37	
1.5	0.15	2.54	0.85	0.36	
