Adsorption isotherm of Carbon Dioxide on opt-UiO-66(Zr)-(OH)2
DOI: 10.1002/aic.15837
Article source: Figure 2C
Adsorbate Carbon Dioxide: InChIKey CURLTUGMZLYLDI-UHFFFAOYSA-N
Kind: experiment
Temperature: 273 K
Tabular data in the source: 0
pressure (bar)	uptake ()
0.005005	0.352509
0.009009	0.744186
0.011011	1.02815
0.017017	1.31212
0.027027	1.78213
0.039261	2.24072
0.050384	2.53992
0.065677	2.89351
0.078189	3.16551
0.092092	3.38311
0.104605	3.61431
0.117117	3.81831
0.12963	3.9815
0.146313	4.1583
0.158825	4.3487
0.172728	4.4711
0.183851	4.6071
0.201229	4.7431
0.214437	4.8791
0.226949	4.9879
0.238071	5.0831
0.253364	5.1783
0.265877	5.28709
0.277694	5.37549
0.289512	5.45029
0.306195	5.51829
0.317317	5.61349
0.32983	5.68149
0.345123	5.74949
0.359026	5.83109
0.372928	5.89909
0.385441	5.95349
0.397954	6.02149
0.412551	6.08269
0.425759	6.13029
0.436881	6.17109
0.452174	6.23909
0.464687	6.29349
0.47859	6.32068
0.492492	6.37508
0.506395	6.44308
0.520298	6.48388
0.532811	6.53828
0.545323	6.56548
0.560616	6.59268
0.573129	6.63348
0.584251	6.68788
0.599544	6.71508
0.612057	6.74228
0.625959	6.78308
0.639862	6.83748
0.65446	6.86468
0.669058	6.89868
0.68018	6.91908
0.691302	6.95308
0.707986	6.98708
0.720498	7.02788
0.733011	7.06868
0.744133	7.08228
0.758036	7.10948
0.773329	7.15028
0.785841	7.17748
0.801134	7.20468
0.812257	7.24548
0.824769	7.24548
0.840062	7.27268
0.851185	7.29988
0.867868	7.32708
0.87899	7.35428
0.891503	7.39508
0.905405	7.40868
0.917918	7.40868
0.931821	7.43588
0.945724	7.46308
0.958931	7.48348
0.973529	7.50388
0.984651	7.51748
0.997859	7.55828
1.01385	7.57188
1.02914	7.58547
1.04165	7.61268
1.05417	7.63987
1.06668	7.63987
1.05695	7.63987
1.04165	7.62628
1.02775	7.61268
1.01246	7.59907
1.00134	7.58547
0.986042	7.55828
0.973529	7.54468
0.960321	7.53108
0.947114	7.49028
0.934601	7.47668
0.920698	7.44948
0.906796	7.42228
0.892893	7.40188
0.87899	7.37468
0.867868	7.35428
0.852575	7.32708
0.840062	7.31348
0.82894	7.28628
0.812257	7.25908
0.801134	7.24548
0.785841	7.20468
0.773329	7.19108
0.759426	7.15028
0.745523	7.12308
0.734401	7.09588
0.719108	7.06868
0.706595	7.04148
0.694083	7.01428
0.67879	6.97348
0.666277	6.94628
0.656545	6.91908
0.641252	6.86468
0.62735	6.85108
0.614837	6.82388
0.600934	6.76948
0.589812	6.72868
0.573129	6.68788
0.563397	6.66068
0.545323	6.60628
0.534201	6.57228
0.520298	6.53828
0.507786	6.49748
0.495273	6.45668
0.47998	6.41588
0.467467	6.33428
0.454955	6.29349
0.442442	6.26629
0.42854	6.19829
0.414637	6.15749
0.400734	6.08949
0.388222	6.02149
0.374319	5.96709
0.360416	5.88549
0.347208	5.82429
0.33261	5.73589
0.322878	5.69509
0.307585	5.62709
0.295073	5.53189
0.28117	5.46389
0.265877	5.35509
0.254755	5.23269
0.242242	5.15109
0.228339	5.0559
0.213046	4.9471
0.200534	4.8111
0.188021	4.7023
0.174119	4.5391
0.158825	4.4099
0.147703	4.2671
0.1338	4.0903
0.119898	3.9067
0.105995	3.69591
0.094873	3.49191
0.07958	3.24711
0.067067	2.96151
0.053164	2.66231
