Adsorption isotherm of Carbon Dioxide on opt-UiO-66(Zr)-(OH)2
DOI: 10.1002/aic.15837
Article source: Figure 2C
Adsorbate Carbon Dioxide: InChIKey CURLTUGMZLYLDI-UHFFFAOYSA-N
Kind: experiment
Temperature: 298 K
Tabular data in the source: 0
pressure (bar)	uptake ()
0.010066	0.295934
0.015627	0.486332
0.026749	0.78553
0.039261	1.11193
0.053164	1.32952
0.067067	1.56072
0.078189	1.71032
0.093482	1.88712
0.105995	2.06392
0.117117	2.19992
0.1338	2.33592
0.147703	2.44472
0.158825	2.58071
0.171338	2.67592
0.183851	2.78471
0.200534	2.90711
0.210266	3.01591
0.224169	3.10431
0.236681	3.17911
0.250584	3.28791
0.263096	3.38311
0.276999	3.42391
0.289512	3.50551
0.303415	3.60071
0.317317	3.66871
0.33261	3.73671
0.343733	3.81831
0.360416	3.88631
0.371538	3.9271
0.385441	3.9951
0.400734	4.0495
0.411856	4.1039
0.427149	4.1583
0.439662	4.2127
0.452174	4.2671
0.466077	4.3079
0.47859	4.3759
0.491102	4.4303
0.506395	4.4575
0.520298	4.5255
0.535591	4.5527
0.546713	4.6207
0.562006	4.6479
0.574519	4.7159
0.587031	4.7295
0.598154	4.7703
0.611361	4.8111
0.623179	4.8519
0.638472	4.9063
0.652375	4.9335
0.664887	4.9607
0.6774	4.9879
0.693388	5.0423
0.706595	5.0627
0.721889	5.09669
0.733011	5.1375
0.745523	5.16469
0.756646	5.19189
0.771939	5.22589
0.785841	5.25989
0.801134	5.27349
0.812257	5.31429
0.824769	5.35509
0.840062	5.38229
0.855355	5.38229
0.866478	5.43669
0.88038	5.46389
0.895673	5.47749
0.905405	5.50469
0.919308	5.51829
0.934601	5.54549
0.947114	5.57269
0.959626	5.58629
0.972139	5.59989
0.984651	5.64069
0.998554	5.65429
1.01246	5.64069
1.02636	5.68149
1.04026	5.70869
1.05278	5.73589
1.06807	5.72229
1.05695	5.72229
1.04165	5.70869
1.02775	5.69509
1.01385	5.69509
1.00134	5.66789
0.987432	5.64069
0.973529	5.62709
0.961017	5.59989
0.945724	5.57269
0.933211	5.55909
0.920698	5.51829
0.906796	5.49109
0.895673	5.47749
0.881771	5.47749
0.868563	5.43669
0.855355	5.40949
0.840062	5.38229
0.82755	5.38229
0.815037	5.35509
0.802525	5.31429
0.788622	5.27349
0.774719	5.24629
0.762207	5.21909
0.746914	5.19869
0.734401	5.16469
0.721889	5.15109
0.706595	5.11029
0.695473	5.0831
0.68018	5.0695
0.667668	5.0287
0.656545	4.9879
0.642643	4.9471
0.62735	4.9199
0.612057	4.8791
0.600934	4.8519
0.589812	4.8111
0.575909	4.7703
0.560616	4.7431
0.545323	4.6887
0.534201	4.6479
0.520298	4.5935
0.507786	4.5527
0.492492	4.4983
0.48137	4.4575
0.468858	4.4167
0.453565	4.3419
0.439662	4.3215
0.42854	4.2535
0.414637	4.1991
0.402124	4.1447
0.386831	4.0631
0.374319	4.0223
0.361806	3.9679
0.347903	3.88631
0.335391	3.8319
0.322878	3.77751
0.308976	3.70951
0.295073	3.64151
0.27839	3.54631
0.265877	3.46471
0.254755	3.38311
0.240852	3.28791
0.228339	3.20631
0.213046	3.12471
0.200534	3.00231
0.185241	2.89351
0.174119	2.81191
0.161606	2.68951
0.147703	2.58071
0.1338	2.44472
0.118507	2.29512
0.107385	2.14552
0.094873	2.00952
0.08236	1.83272
0.067067	1.64912
0.053164	1.39752
0.040652	1.13913
0.026749	0.853529
0.012846	0.472732
