Adsorption isotherm of Carbon Dioxide, Nitrogen on opt-UiO-66(Zr)-(OH)2
DOI: 10.1002/aic.15837
Article source: Table S5
Adsorbate Carbon Dioxide: InChIKey CURLTUGMZLYLDI-UHFFFAOYSA-N
Adsorbate Nitrogen: InChIKey IJGRMHOSHXDMSA-UHFFFAOYSA-N
Kind: experiment
Temperature: 298 K
Tabular data in the source: 0
pressure (bar)	Carbon Dioxide fraction	Carbon Dioxide uptake (mmol/g)	Nitrogen fraction	Nitrogen uptake (mmol/g)	total uptake (mmol/g)
1.3	0.15	3.3	0.85	0.45	
1.3	0.15	3.38	0.85	0.75	
1.3	0.15	3.34	0.85	0.46	
1.3	0.15	3.44	0.85	0.64	
1.3	0.15	3.41	0.85	0.5	
