Adsorption isotherm of Methane on opt-UiO-66(Zr)-(OH)2
DOI: 10.1002/aic.15837
Article source: Figure 2C
Adsorbate Methane: InChIKey VNWKTOKETHGBQD-UHFFFAOYSA-N
Kind: experiment
Temperature: 298 K
Tabular data in the source: 0
pressure (bar)	uptake (mmol/g)
0.017017	0.051136
0.03092	0.078335
0.039261	0.091935
0.055945	0.105535
0.067067	0.132735
0.08097	0.146335
0.094873	0.187135
0.111556	0.214334
0.121288	0.241534
0.13241	0.255134
0.146313	0.255134
0.161606	0.282334
0.172728	0.309534
0.188021	0.323133
0.200534	0.336733
0.214437	0.350333
0.228339	0.391133
0.240157	0.397933
0.250584	0.404733
0.265877	0.445532
0.27978	0.445532
0.293683	0.472732
0.307585	0.472732
0.320098	0.499932
0.33261	0.513532
0.345123	0.554332
0.360416	0.567931
0.374319	0.581531
0.385441	0.595131
0.400734	0.608731
0.413247	0.622331
0.42854	0.635931
0.442442	0.663131
0.456345	0.69033
0.467467	0.69033
0.47859	0.70393
0.493883	0.70393
0.507786	0.73113
0.520298	0.73113
0.534201	0.77193
0.549494	0.78553
0.562006	0.812729
0.571738	0.826329
0.587031	0.839929
0.600934	0.839929
0.614837	0.853529
0.62735	0.853529
0.639862	0.873929
0.652375	0.880729
0.667668	0.894329
0.68157	0.921529
0.694083	0.921529
0.707986	0.935129
0.719108	0.948728
0.734401	0.948728
0.748304	0.982728
0.759426	0.989528
0.774719	0.989528
0.785841	1.00313
0.799744	1.01673
0.812257	1.03033
0.82755	1.03033
0.840062	1.05753
0.851185	1.05753
0.867868	1.08473
0.88038	1.09833
0.892893	1.11193
0.905405	1.11193
0.917918	1.11193
0.933211	1.13913
0.945724	1.15273
0.959626	1.16633
0.973529	1.16633
0.987432	1.16633
0.999944	1.19353
1.01524	1.20713
1.02775	1.22073
1.04443	1.23433
1.06807	1.22073
1.05695	1.22073
1.03748	1.20713
1.02706	1.20033
1.01524	1.20713
0.999944	1.19353
0.987432	1.16633
0.973529	1.16633
0.959626	1.16633
0.945724	1.15273
0.933211	1.13913
0.917918	1.11193
0.905405	1.11193
0.892893	1.11193
0.88038	1.09833
0.867868	1.08473
0.851185	1.05753
0.840062	1.05753
0.82755	1.03033
0.812257	1.03033
0.799744	1.01673
0.785841	1.00313
0.774719	0.989528
0.759426	0.989528
0.748304	0.982728
0.734401	0.948728
0.719108	0.948728
0.707986	0.935129
0.694083	0.921529
0.68157	0.921529
0.667668	0.894329
0.652375	0.880729
0.639862	0.873929
0.62735	0.853529
0.614837	0.853529
0.600934	0.839929
0.587031	0.839929
0.571738	0.826329
0.562006	0.812729
0.549494	0.78553
0.534201	0.77193
0.520298	0.73113
0.507786	0.73113
0.493883	0.70393
0.47859	0.70393
0.467467	0.69033
0.456345	0.69033
0.442442	0.663131
0.42854	0.635931
0.413247	0.622331
0.400734	0.608731
0.385441	0.595131
0.374319	0.581531
0.360416	0.567931
0.345123	0.554332
0.33261	0.513532
0.320098	0.499932
0.307585	0.472732
0.293683	0.472732
0.27978	0.445532
0.265877	0.445532
0.250584	0.404733
0.240157	0.397933
0.228339	0.391133
0.214437	0.350333
0.200534	0.336733
0.188021	0.323133
0.172728	0.309534
0.161606	0.282334
0.146313	0.255134
0.13241	0.255134
0.121288	0.241534
0.111556	0.214334
0.094873	0.187135
0.08097	0.146335
0.067067	0.132735
0.055945	0.105535
0.039261	0.091935
0.03092	0.078335
0.017017	0.051136
