Adsorption isotherm of Carbon Dioxide on CuBTC
DOI: 10.1002/aic.15837
Article source: Figure S10d
Adsorbate Carbon Dioxide: InChIKey CURLTUGMZLYLDI-UHFFFAOYSA-N
Kind: experiment
Temperature: 298 K
Tabular data in the source: 0
pressure (bar)	uptake (mmol/g)
0.0137	0.12
0.0285	0.2
0.04	0.25
0.0525	0.34
0.0662	0.42
0.0799	0.5
0.0925	0.57
0.106	0.65
0.119	0.73
0.133	0.8
0.147	0.88
0.159	0.95
0.174	1.03
0.186	1.1
0.2	1.17
0.212	1.24
0.226	1.31
0.24	1.39
0.253	1.45
0.265	1.53
0.28	1.59
0.292	1.66
0.305	1.73
0.319	1.79
0.332	1.86
0.345	1.92
0.36	1.99
0.373	2.06
0.386	2.12
0.4	2.18
0.412	2.25
0.426	2.31
0.439	2.37
0.453	2.43
0.465	2.49
0.479	2.55
0.492	2.62
0.505	2.67
0.518	2.75
0.532	2.8
0.546	2.85
0.558	2.92
0.573	2.97
0.586	3.02
0.599	3.08
0.612	3.13
0.626	3.2
0.64	3.25
0.653	3.3
0.666	3.36
0.679	3.41
0.693	3.46
0.706	3.51
0.719	3.56
0.732	3.62
0.746	3.67
0.759	3.72
0.772	3.77
0.785	3.82
0.799	3.86
0.812	3.92
0.825	3.96
0.838	4.01
0.852	4.06
0.866	4.1
0.879	4.15
0.892	4.19
0.905	4.24
0.918	4.28
0.931	4.33
0.945	4.36
0.959	4.41
0.972	4.45
0.986	4.5
0.998	4.53
1.01	4.56
1.03	4.61
1.04	4.66
1.05	4.69
