Adsorption isotherm of Nitrogen on opt-UiO-66(Zr)-(OH)2
DOI: 10.1002/aic.15837
Article source: Figure 2C
Adsorbate Nitrogen: InChIKey IJGRMHOSHXDMSA-UHFFFAOYSA-N
Kind: experiment
Temperature: 298 K
Tabular data in the source: 0
pressure (bar)	uptake (mmol/g)
0.021188	0.037536
0.03231	0.044336
0.039261	0.051136
0.051774	0.044336
0.067067	0.037536
0.076799	0.037536
0.093482	0.064735
0.105995	0.078335
0.118507	0.091935
0.1338	0.078335
0.147703	0.078335
0.160911	0.098735
0.175509	0.105535
0.189412	0.105535
0.203314	0.105535
0.215827	0.119135
0.228339	0.132735
0.239462	0.132735
0.256145	0.173535
0.265877	0.173535
0.28117	0.187135
0.295073	0.187135
0.308976	0.200734
0.318708	0.187135
0.334001	0.221134
0.347903	0.227934
0.361806	0.227934
0.374319	0.241534
0.389612	0.241534
0.400734	0.255134
0.414637	0.241534
0.425759	0.255134
0.441052	0.255134
0.454955	0.255134
0.467467	0.255134
0.47859	0.268734
0.495273	0.282334
0.506395	0.282334
0.520298	0.295934
0.532811	0.295934
0.546713	0.323133
0.562006	0.295934
0.573129	0.323133
0.588422	0.336733
0.600934	0.336733
0.612057	0.336733
0.62735	0.350333
0.639862	0.350333
0.655155	0.350333
0.667668	0.363933
0.679485	0.377533
0.694083	0.384333
0.706595	0.377533
0.721889	0.404733
0.732316	0.404733
0.746914	0.404733
0.762207	0.404733
0.773329	0.404733
0.785841	0.418333
0.801134	0.431933
0.812257	0.445532
0.826159	0.445532
0.840062	0.459132
0.852575	0.452332
0.867868	0.472732
0.88038	0.486332
0.894283	0.472732
0.906796	0.486332
0.922089	0.472732
0.934601	0.472732
0.945724	0.486332
0.959626	0.499932
0.973529	0.499932
0.984651	0.499932
1.00134	0.513532
1.01246	0.513532
1.02636	0.513532
1.05278	0.540732
1.06668	0.540732
1.05695	0.554332
1.03748	0.540732
1.02914	0.540732
1.01246	0.513532
1.00134	0.513532
0.984651	0.499932
0.973529	0.499932
0.959626	0.499932
0.945724	0.486332
0.934601	0.472732
0.922089	0.472732
0.906796	0.486332
0.894283	0.472732
0.88038	0.486332
0.867868	0.472732
0.852575	0.452332
0.840062	0.459132
0.826159	0.445532
0.812257	0.445532
0.801134	0.431933
0.785841	0.418333
0.773329	0.404733
0.762207	0.404733
0.746914	0.404733
0.732316	0.404733
0.721889	0.404733
0.706595	0.377533
0.694083	0.384333
0.679485	0.377533
0.667668	0.363933
0.655155	0.350333
0.639862	0.350333
0.62735	0.350333
0.612057	0.336733
0.600934	0.336733
0.588422	0.336733
0.573129	0.323133
0.562006	0.295934
0.546713	0.323133
0.532811	0.295934
0.520298	0.295934
0.506395	0.282334
0.495273	0.282334
0.47859	0.268734
0.467467	0.255134
0.454955	0.255134
0.441052	0.255134
0.425759	0.255134
0.414637	0.241534
0.400734	0.255134
0.389612	0.241534
0.374319	0.241534
0.361806	0.227934
0.347903	0.227934
0.334001	0.221134
0.318708	0.187135
0.308976	0.200734
0.295073	0.187135
0.28117	0.187135
0.265877	0.173535
0.256145	0.173535
0.239462	0.132735
0.228339	0.132735
0.215827	0.119135
0.203314	0.105535
0.189412	0.105535
0.175509	0.105535
0.160911	0.098735
