Adsorption isotherm of Nitrogen on opt-UiO-66(Zr)-(OH)2
DOI: 10.1002/aic.15837
Article source: Figure S4c
Adsorbate Nitrogen: InChIKey IJGRMHOSHXDMSA-UHFFFAOYSA-N
Kind: experiment
Temperature: 298 K
Tabular data in the source: 0
pressure (bar)	uptake (mmol/g)
0.0169	0.0126
0.03	0.022
0.0398	0.028
0.0529	0.0366
0.066	0.0446
0.079	0.0532
0.0932	0.0612
0.106	0.0699
0.119	0.0772
0.133	0.0852
0.147	0.0932
0.159	0.101
0.173	0.108
0.186	0.116
0.199	0.124
0.213	0.131
0.226	0.138
0.239	0.146
0.252	0.153
0.266	0.16
0.279	0.168
0.292	0.174
0.306	0.182
0.319	0.189
0.332	0.196
0.346	0.204
0.359	0.21
0.372	0.218
0.385	0.224
0.399	0.231
0.413	0.237
0.426	0.244
0.439	0.251
0.453	0.257
0.467	0.266
0.479	0.271
0.493	0.277
0.506	0.284
0.519	0.289
0.531	0.296
0.546	0.302
0.559	0.309
0.572	0.317
0.587	0.323
0.599	0.329
0.613	0.334
0.625	0.339
0.638	0.347
0.652	0.353
0.665	0.359
0.679	0.365
0.693	0.373
0.705	0.381
0.718	0.387
0.732	0.393
0.746	0.399
0.759	0.405
0.772	0.409
0.786	0.416
0.798	0.423
0.813	0.428
0.825	0.434
0.839	0.44
0.851	0.444
0.866	0.451
0.879	0.456
0.892	0.463
0.906	0.468
0.919	0.474
0.931	0.479
0.945	0.486
0.958	0.491
0.971	0.496
0.986	0.504
0.998	0.51
1.01	0.513
1.03	0.518
1.04	0.525
1.05	0.53
1.06	0.536
