Adsorption isotherm of Nitrogen on CuBTC
DOI: 10.1002/aic.15837
Article source: Figure S10d
Adsorbate Nitrogen: InChIKey IJGRMHOSHXDMSA-UHFFFAOYSA-N
Kind: experiment
Temperature: 298 K
Tabular data in the source: 0
pressure (bar)	uptake (mmol/g)
0.0131	0.027
0.0263	0.038
0.0394	0.044
0.0537	0.049
0.0662	0.049
0.0793	0.054
0.093	0.059
0.106	0.065
0.12	0.076
0.133	0.087
0.146	0.086
0.159	0.086
0.174	0.086
0.187	0.097
0.2	0.097
0.213	0.103
0.227	0.108
0.239	0.113
0.253	0.113
0.266	0.124
0.28	0.129
0.293	0.129
0.305	0.14
0.319	0.145
0.332	0.145
0.36	0.162
0.346	0.151
0.373	0.167
0.386	0.167
0.399	0.172
0.413	0.177
0.426	0.183
0.439	0.188
0.452	0.194
0.465	0.199
0.479	0.204
0.493	0.21
0.506	0.215
0.519	0.215
0.533	0.22
0.546	0.225
0.559	0.236
0.572	0.236
0.586	0.242
0.599	0.241
0.612	0.247
0.625	0.252
0.639	0.252
0.652	0.257
0.666	0.268
0.679	0.274
0.692	0.279
0.705	0.279
0.719	0.278
0.732	0.289
0.746	0.295
0.759	0.3
0.773	0.305
0.785	0.311
0.799	0.311
0.812	0.31
0.825	0.327
0.839	0.327
0.852	0.332
0.865	0.343
0.878	0.348
0.892	0.354
0.905	0.348
0.919	0.353
0.932	0.364
0.946	0.37
0.959	0.364
0.972	0.375
0.986	0.38
0.999	0.38
1.01	0.385
1.03	0.391
1.04	0.396
1.06	0.396
1.07	0.396
