Adsorption isotherm of Carbon Dioxide on opt-UiO-66(Zr)-(OH)2
DOI: 10.1002/aic.15837
Article source: Figure S4a
Adsorbate Carbon Dioxide: InChIKey CURLTUGMZLYLDI-UHFFFAOYSA-N
Kind: experiment
Temperature: 298 K
Tabular data in the source: 0
pressure (bar)	uptake (mmol/g)
0.00716	0.274
0.016	0.504
0.0264	0.789
0.0402	1.08
0.0523	1.33
0.0666	1.55
0.0793	1.73
0.0931	1.9
0.107	2.07
0.12	2.21
0.133	2.34
0.146	2.47
0.159	2.59
0.173	2.69
0.186	2.8
0.199	2.9
0.212	2.99
0.225	3.09
0.24	3.18
0.253	3.27
0.266	3.36
0.279	3.43
0.292	3.5
0.307	3.57
0.32	3.64
0.333	3.71
0.346	3.79
0.358	3.83
0.372	3.9
0.385	3.97
0.399	4.03
0.412	4.1
0.425	4.14
0.438	4.19
0.452	4.26
0.467	4.3
0.479	4.35
0.493	4.41
0.507	4.45
0.519	4.49
0.532	4.53
0.547	4.57
0.559	4.61
0.572	4.67
0.585	4.71
0.598	4.75
0.625	4.82
0.64	4.85
0.653	4.89
0.666	4.94
0.679	4.97
0.613	4.79
0.693	5
0.707	5.02
0.719	5.06
0.732	5.09
0.746	5.13
0.758	5.16
0.773	5.18
0.786	5.22
0.8	5.23
0.813	5.26
0.827	5.29
0.839	5.32
0.853	5.35
0.866	5.37
0.879	5.39
0.893	5.41
0.906	5.45
0.92	5.47
0.932	5.5
0.947	5.52
0.959	5.54
0.973	5.56
0.986	5.57
1	5.59
1.01	5.62
1.03	5.64
1.04	5.67
1.05	5.7
