Adsorption isotherm of Methanol on [Cu2(bdc)2(bpy)]n
DOI: 10.1126/science.1231451
Adsorbate Methanol: InChIKey OKKJLVBELUTLKV-UHFFFAOYSA-N
Temperature: 303 K
Tabular data in the source: 0
pressure (bar)	uptake (cm3(STP)/g)
0.00318249	6.7845
0.0119864	17.7251
0.016929	22.23
0.0221805	27.8076
0.0283587	36.8175
0.0305211	46.2564
0.0336102	56.9825
0.0357726	67.4941
0.0390161	82.5106
0.0424142	93.2366
0.0516815	109.326
0.0549251	113.402
0.065428	119.837
0.0760855	126.058
0.0873607	130.778
0.0977092	135.926
0.108058	140.217
