Adsorption isotherm of Methanol on [Cu2(bdc)2(bpy)]n
DOI: 10.1126/science.1231451
Adsorbate Methanol: InChIKey OKKJLVBELUTLKV-UHFFFAOYSA-N
Temperature: 303 K
Tabular data in the source: 0
pressure (bar)	uptake (cm3(STP)/g)
0.00256466	0.992421
0.0109053	3.56668
0.0166201	4.63929
0.0218716	8.28615
0.0232617	31.8835
0.0251152	54.8373
0.0261963	65.7779
0.0272775	71.3555
0.0297488	82.0815
0.0326835	87.0155
0.0387072	93.6657
0.0549251	103.105
0.0652736	107.395
0.0760855	110.613
0.086434	113.402
0.0981726	117.478
0.108212	120.695
