Adsorption isotherm of Methanol on [Cu2(bdc)2(bpy)]n
DOI: 10.1126/science.1231451
Adsorbate Methanol: InChIKey OKKJLVBELUTLKV-UHFFFAOYSA-N
Temperature: 303 K
Tabular data in the source: 0
pressure (bar)	uptake (cm3(STP)/g)
0.000557	0.134335
0.00148348	4.21024
0.00580823	11.0749
0.0112142	19.0122
0.0217171	29.7383
0.0271231	38.9627
0.032529	51.6195
0.0360815	62.9891
0.037935	70.2829
0.0411785	80.3654
0.0436498	86.372
0.0492102	99.0287
0.0543072	106.322
0.0640379	117.049
0.0760855	126.058
0.0868973	131.421
0.0974003	136.57
0.107903	142.148
