Adsorption isotherm of Methanol on [Cu2(bdc)2(bpy)]n
DOI: 10.1126/science.1231451
Adsorbate Methanol: InChIKey OKKJLVBELUTLKV-UHFFFAOYSA-N
Temperature: 298 K
Tabular data in the source: 0
pressure (bar)	uptake (cm3(STP)/g)
0.000473	1.69243
0.00154041	9.7206
0.00403083	23.2417
0.00687703	38.2417
0.00877449	47.115
0.0119765	58.7347
0.0135182	64.2276
0.017906	73.3121
0.0227683	82.6079
0.0256145	88.7347
0.0307139	98.8755
0.0372365	107.115
0.0425731	112.185
0.0533649	119.791
0.0598875	124.439
0.0710351	130.566
0.0775576	134.58
