Adsorption isotherm of Methanol on [Cu2(bdc)2(bpy)]n
DOI: 10.1126/science.1231451
Adsorbate Methanol: InChIKey OKKJLVBELUTLKV-UHFFFAOYSA-N
Temperature: 303 K
Tabular data in the source: 0
pressure (bar)	uptake (cm3(STP)/g)
0.000557	2.92311
0.00580823	8.07163
0.0112142	13.2201
0.0221805	22.4446
0.0271231	32.098
0.0295944	43.2531
0.0311389	53.7647
0.032529	60.4149
0.0343825	73.9297
0.0368538	84.0122
0.0380894	87.8736
0.0433409	97.5271
0.0543072	108.468
0.0652736	114.903
0.075931	119.623
0.0862795	123.913
0.0974003	127.775
0.107594	130.778
