Adsorption isotherm of Methanol on [Cu2(bdc)2(bpy)]n
DOI: 10.1126/science.1231451
Adsorbate Methanol: InChIKey OKKJLVBELUTLKV-UHFFFAOYSA-N
Temperature: 298 K
Tabular data in the source: 0
pressure (bar)	uptake (cm3(STP)/g)
0.000472	1.05862
0.000945	6.34031
0.00153675	10.5657
0.00390294	23.0305
0.00686069	40.7769
0.00887196	51.9741
0.0115931	62.96
0.0128945	67.8192
0.0191649	81.3403
0.0229508	88.3121
0.0291029	98.6643
0.0320607	102.256
0.0377396	110.073
0.0457846	117.89
0.0551311	125.284
0.0670804	132.89
0.0795029	140.073
