Adsorption isotherm of Methanol on [Cu2(bdc)2(bpy)]n
DOI: 10.1126/science.1231451
Adsorbate Methanol: InChIKey OKKJLVBELUTLKV-UHFFFAOYSA-N
Temperature: 303 K
Tabular data in the source: 0
pressure (bar)	uptake (cm3(STP)/g)
0.00271912	3.7812
0.00642605	7.64259
0.0116775	12.1475
0.0166201	15.5799
0.0221805	20.5139
0.0278954	29.5238
0.0292855	40.6789
0.0302122	52.263
0.0319112	61.702
0.0329924	70.2829
0.0351548	81.0089
0.037935	91.306
0.0438043	102.032
0.0544617	110.184
0.0658914	115.976
0.0873607	125.415
0.0975548	129.062
0.107903	132.709
