Adsorption isotherm of Methanol on [Cu2(bdc)2(bpy)]n
DOI: 10.1126/science.1231451
Adsorbate Methanol: InChIKey OKKJLVBELUTLKV-UHFFFAOYSA-N
Temperature: 298 K
Tabular data in the source: 0
pressure (bar)	uptake (cm3(STP)/g)
0.000473	2.11496
0.00130322	8.03046
0.00426801	14.3685
0.0101976	23.8755
0.0142297	28.7347
0.0175503	33.1713
0.0225311	42.4671
0.026919	54.7206
0.0317813	75.2136
0.0356948	87.4671
0.0409128	101.411
0.0453007	108.805
0.0539579	118.735
0.0627336	126.34
0.071628	132.256
0.0827756	140.495
