Adsorption isotherm of Methanol on [Cu2(bdc)2(bpy)]n
DOI: 10.1126/science.1231451
Adsorbate Methanol: InChIKey OKKJLVBELUTLKV-UHFFFAOYSA-N
Temperature: 303 K
Tabular data in the source: 0
pressure (bar)	uptake (cm3(STP)/g)
0.00596269	6.14094
0.0115231	10.2168
0.0218716	17.0815
0.027432	25.0188
0.0288221	36.603
0.0292855	47.3291
0.0299033	58.2696
0.0314478	68.1376
0.0331468	78.4347
0.0356181	89.8043
0.0382439	94.7383
0.0438043	104.177
0.0652736	116.19
0.108367	133.138
