Adsorption isotherm of Nitrogen on TP-Por COF powder
DOI: 10.1021/ja509551m
Article source: Figure 2(e)
Adsorbate Nitrogen: InChIKey IJGRMHOSHXDMSA-UHFFFAOYSA-N
Kind: experiment
Temperature: 77 K
Tabular data in the source: 0
pressure (bar)	uptake (cm3(STP)/g)
0.00477	69.6679
0.007108	94.2523
0.034317	160.58
0.056838	175.279
0.074858	187.531
0.092849	192.405
0.115344	199.727
0.133344	207.061
0.155848	216.842
0.176104	226.629
0.198599	233.952
0.216609	243.744
0.236856	251.072
0.25936	260.853
0.279607	268.181
0.295361	275.52
0.311125	285.318
0.331391	297.564
0.360652	312.247
0.380927	326.952
0.410198	344.094
0.432748	366.17
0.457848	469.388
0.484918	498.83
0.511933	513.519
0.536683	523.295
0.561424	530.612
0.586146	533.011
0.610878	537.869
0.637856	542.722
0.662588	547.58
0.68731	549.979
0.714289	554.831
0.736783	562.154
0.761514	567.012
0.788502	574.323
0.810987	579.187
0.837974	586.498
0.864971	596.269
0.887483	608.509
0.914517	628.116
0.939331	655.105
0.948419	682.132
0.966503	711.596
0.993951	841.857
0.003731	127.772
0.007815	154.821
0.049497	183.959
0.099567	204.037
0.126688	215.194
0.151711	228.617
0.176758	235.272
0.203871	248.685
0.230991	259.843
0.245576	271.056
0.268518	282.232
0.289379	291.162
0.322751	306.803
0.345662	327.001
0.376953	340.396
0.403963	383.133
0.426795	425.888
0.449549	491.201
0.472381	533.956
0.491176	536.128
0.520401	542.765
0.551739	542.625
0.570526	547.053
0.606035	549.15
0.637358	553.522
0.660315	560.187
0.679126	557.848
0.702084	564.512
0.727162	562.145
0.754298	568.791
0.77307	577.73
0.808578	579.828
0.831505	595.515
0.856536	606.682
0.881567	617.849
0.914877	651.535
0.939845	680.747
0.966855	723.484
0.97482	836.23
