Adsorption isotherm of Krypton on TP-Por COF thin film
DOI: 10.1021/ja509551m
Article source: Figure S3
Adsorbate Krypton: InChIKey DNNSSWSSYDEUBZ-UHFFFAOYSA-N
Kind: experiment
Temperature: 77 K
Tabular data in the source: 0
pressure (bar)	uptake (cm3/cm2)
0	0
0.013695	0
0.020532	0.005652
0.027209	0.021739
0.036274	0.032609
0.045479	0.034348
0.057006	0.035217
0.06854	0.035652
0.080067	0.036522
0.093909	0.036957
0.105443	0.037391
0.114668	0.037826
0.135428	0.038696
0.156194	0.03913
0.172344	0.039565
0.19311	0.04
0.211555	0.041304
0.234622	0.042174
0.257676	0.043913
0.28073	0.045652
0.306106	0.046522
0.32914	0.049565
0.354335	0.062174
0.415937	0.108696
0.429759	0.110435
0.455081	0.114783
0.480363	0.121739
0.505672	0.126957
0.554095	0.13
0.60714	0.132609
0.657885	0.134783
0.708636	0.136522
0.76401	0.137826
0.807837	0.139565
0.863211	0.14087
0.913955	0.143043
0.934708	0.144348
0.950851	0.145217
0.964693	0.145652
0.092511	0.032589
0.117412	0.041071
0.130918	0.048214
0.144519	0.052232
0.162762	0.054018
0.185539	0.057143
0.24479	0.064286
0.281086	0.074107
0.339098	0.121875
0.357219	0.127679
0.39376	0.129464
0.40973	0.130804
0.434876	0.13125
0.478252	0.133929
0.521683	0.134821
0.578877	0.134375
0.613132	0.136161
0.670272	0.1375
0.722838	0.138839
0.770843	0.139732
0.805111	0.141071
0.859977	0.141964
0.919391	0.14375
0.949112	0.144196
0.953686	0.144196
0.958261	0.144196
