Adsorption isotherm of Nitrogen on CuBTC
DOI: 10.1016/j.jcis.2012.06.040
Adsorbate Nitrogen: InChIKey IJGRMHOSHXDMSA-UHFFFAOYSA-N
Temperature: 77 K
Tabular data in the source: 0
pressure (bar)	uptake (mmol/g)
0.00814123	12.5781
0.0217099	12.7363
0.0461336	12.9736
0.0732711	13.3691
0.105836	13.3691
0.143828	13.5274
0.187248	13.7647
0.244237	13.7647
0.295798	13.8438
0.344645	13.9229
0.396206	14.002
0.44234	14.002
0.493901	14.002
0.586168	14.0811
0.683863	14.1602
0.776131	14.2393
0.879253	14.3184
0.960665	14.7931
