Adsorption isotherm of Nitrogen on CuBTC/Silica
DOI: 10.1016/j.jcis.2012.06.040
Adsorbate Nitrogen: InChIKey IJGRMHOSHXDMSA-UHFFFAOYSA-N
Temperature: 77 K
Tabular data in the source: 0
pressure (bar)	uptake (mmol/g)
0.00612104	6.68511
0.0126092	8.63223
0.0302531	9.41108
0.0634284	9.6707
0.0855386	9.93031
0.116516	9.99522
0.162959	10.3846
0.2072	10.6443
0.258095	10.7092
0.421803	11.4231
0.556753	12.0072
0.640818	12.3967
0.691672	12.9808
0.709326	13.6298
0.720311	14.6683
0.733509	15.7068
0.757842	15.8366
0.822005	16.0313
0.875107	16.1611
0.934829	16.5505
