Adsorption isotherm of Nitrogen on CuBTC/Silica
DOI: 10.1016/j.jcis.2012.06.040
Adsorbate Nitrogen: InChIKey IJGRMHOSHXDMSA-UHFFFAOYSA-N
Temperature: 77 K
Tabular data in the source: 0
pressure (bar)	uptake (mmol/g)
0.00588968	9.6707
0.0146563	10.7741
0.0300922	11.488
0.0742874	12.3318
0.111849	13.1106
0.167149	13.4351
0.253407	14.0842
0.339675	14.6034
0.386118	14.9928
0.430364	15.1875
0.51883	15.9015
0.602875	16.5505
0.644872	17.1996
0.675844	17.3294
0.693513	17.7837
0.706716	18.7573
0.733001	22.2621
0.750629	23.2356
0.774938	23.69
0.832451	24.0145
0.892173	24.4039
0.947448	25.0529
