Adsorption isotherm of Nitrogen on CuBTC/Silica
DOI: 10.1016/j.jcis.2012.06.040
Adsorbate Nitrogen: InChIKey IJGRMHOSHXDMSA-UHFFFAOYSA-N
Temperature: 77 K
Tabular data in the source: 0
pressure (bar)	uptake (mmol/g)
0.00337487	13.5649
0.032099	14.1491
0.0652391	14.863
0.0961913	15.2524
0.127154	15.5121
0.169186	15.7068
0.217848	16.0313
0.257657	16.3558
0.304105	16.6803
0.350564	16.875
0.390388	17.0048
0.434629	17.2645
0.481087	17.4592
0.531962	17.7837
0.565147	17.9135
0.616012	18.3678
0.664673	18.6924
0.69122	18.8222
0.706691	19.0818
0.717655	20.3799
0.735264	21.613
0.757359	22.0674
0.781692	22.1972
0.843647	22.327
0.903389	22.4568
0.956431	23.3654
