Adsorption isotherm of Nitrogen on CuBTC/Silica
DOI: 10.1016/j.jcis.2012.06.040
Adsorbate Nitrogen: InChIKey IJGRMHOSHXDMSA-UHFFFAOYSA-N
Temperature: 77 K
Tabular data in the source: 0
pressure (bar)	uptake (mmol/g)
0.00194646	3.43991
0.0064882	1.94712
0.0238806	5.97117
0.070314	6.4904
0.101276	6.75002
0.185341	7.13944
0.273837	7.46396
0.366759	7.78848
0.397737	7.85338
0.437551	8.113
0.479558	8.63223
0.541513	8.76204
0.605676	8.95675
0.672012	9.6707
0.702964	10.0601
0.820234	10.3197
0.877763	10.4495
0.924216	10.7092
0.952971	10.9039
