Adsorption isotherm of Nitrogen on Silica
DOI: 10.1016/j.jcis.2012.06.040
Adsorbate Nitrogen: InChIKey IJGRMHOSHXDMSA-UHFFFAOYSA-N
Temperature: 77 K
Tabular data in the source: 0
pressure (bar)	uptake (mmol/g)
0.00814123	5.30019
0.0162825	6.24948
0.0298512	6.80323
0.0461336	7.27788
0.0569886	7.67342
0.103122	8.46449
0.146542	8.86003
0.192676	9.25556
0.225241	9.73021
0.274088	10.0466
0.320222	10.3631
0.363642	10.7586
0.401634	10.9959
0.445054	11.4706
0.491187	11.7079
0.531894	12.1825
0.578027	12.6572
0.61602	13.0527
0.656726	13.6856
0.697432	14.5558
0.713714	15.9797
0.721856	17.5618
0.729997	19.6977
0.740852	21.5172
0.770703	23.4949
0.816837	23.7322
0.857543	24.0486
0.898249	24.2069
0.944383	24.6815
