Adsorption isotherm of Oxygen on Zeolite Li-LSX
DOI: 10.1021/Ie990763z
Adsorbate Oxygen: InChIKey MYMOFIZGZYHOMD-UHFFFAOYSA-N
Temperature: 298 K
Tabular data in the source: 0
pressure (bar)	uptake (molecules/unitcell)
0.0101226	0.0296232
0.119982	0.338074
0.199418	0.545116
0.309277	0.790187
0.403925	1.07329
0.501954	1.29723
0.606742	1.56343
0.718292	1.80427
0.797728	1.97751
0.904207	2.23948
0.998855	2.47188
