Adsorption isotherm of Argon on Zeolite Li-LSX
DOI: 10.1021/Ie990763z
Adsorbate Argon: InChIKey XKRFYHLGVUSROY-UHFFFAOYSA-N
Temperature: 298 K
Tabular data in the source: 0
pressure (bar)	uptake (molecules/unitcell)
0.0216316	0.0284293
0.122886	0.242951
0.21041	0.405987
0.292787	0.594766
0.416351	0.856482
0.521038	1.04955
0.613711	1.24691
0.709816	1.42282
0.812787	1.59873
0.917473	1.78321
1.01015	1.96341
