Adsorption isotherm of Nitrogen on Zeolite Li-LSX
DOI: 10.1021/Ie990763z
Adsorbate Nitrogen: InChIKey IJGRMHOSHXDMSA-UHFFFAOYSA-N
Temperature: 298 K
Tabular data in the source: 0
pressure (bar)	uptake (molecules/unitcell)
-0.0092595	0.160926
0.0937108	2.79239
0.217275	5.59547
0.294503	7.08282
0.409486	8.8562
0.503876	10.3721
0.611995	11.6879
0.706384	12.9178
0.805922	13.8617
0.90546	14.8628
1.00671	15.7781
