Adsorption isotherm of Oxygen on Zeolite Li-LSX
DOI: 10.1021/Ie990763z
Adsorbate Oxygen: InChIKey MYMOFIZGZYHOMD-UHFFFAOYSA-N
Temperature: 298 K
Tabular data in the source: 0
pressure (bar)	uptake (molecules/unitcell)
0.00505213	0.0253978
0.0963197	0.270468
0.405616	1.07329
0.589841	1.53385
1.00731	2.48033
