Adsorption isotherm of Nitrogen on Zeolite Li-LSX
DOI: 10.1021/Ie990763z
Adsorbate Nitrogen: InChIKey IJGRMHOSHXDMSA-UHFFFAOYSA-N
Temperature: 298 K
Tabular data in the source: 0
pressure (bar)	uptake (molecules/unitcell)
0.00103753	0.189529
0.095427	2.10592
0.392325	8.62737
0.593117	12.2313
0.994701	15.9497
