Adsorption isotherm of Argon on Zeolite Li-LSX
DOI: 10.1021/Ie990763z
Adsorbate Argon: InChIKey XKRFYHLGVUSROY-UHFFFAOYSA-N
Temperature: 298 K
Tabular data in the source: 0
pressure (bar)	uptake (molecules/unitcell)
0.0168831	0.0211725
0.111531	0.228215
0.412376	0.819764
0.611813	1.20427
0.990404	1.96483
