Adsorption isotherm of Nitrogen on TH-COF-1
DOI: 10.1016/j.micromeso.2015.11.030
Article source: Figure S10
Adsorbate Nitrogen: InChIKey IJGRMHOSHXDMSA-UHFFFAOYSA-N
Kind: experiment
Temperature: 298 K
Tabular data in the source: 0
pressure (bar)	uptake (mmol/g)
0.106814	0.013334
0.149216	0.023394
0.203232	0.02653
0.253367	0.034043
0.303517	0.038513
0.355596	0.042983
0.405756	0.045527
0.455909	0.049524
0.506071	0.051744
0.556236	0.053158
0.606395	0.055944
0.658487	0.058086
0.706734	0.05748
0.758822	0.060322
0.810913	0.062571
0.861067	0.066325
0.911232	0.06782
0.96417	0.072258
1.00189	0.075436
