Adsorption isotherm of Nitrogen on COF-LZU-1
DOI: 10.1016/j.micromeso.2015.11.030
Article source: Figure S10
Adsorbate Nitrogen: InChIKey IJGRMHOSHXDMSA-UHFFFAOYSA-N
Kind: experiment
Temperature: 273 K
Tabular data in the source: 0
pressure (bar)	uptake (mmol/g)
1.00208	0.17463
0.988286	0.171604
0.967871	0.170783
0.939065	0.166741
0.910248	0.164707
0.88745	0.160268
0.861034	0.158638
0.837019	0.157011
0.810609	0.154175
0.785409	0.149734
0.7626	0.147303
0.734982	0.145673
0.709775	0.142437
0.68216	0.140405
0.656953	0.137169
0.634153	0.133131
0.607755	0.127884
0.581357	0.122638
0.559762	0.117797
0.530952	0.114558
0.510539	0.113336
0.481741	0.107685
0.456549	0.101636
0.43374	0.099206
0.403735	0.09476
0.379727	0.091927
0.354545	0.083869
0.329353	0.07782
0.302958	0.072171
0.277755	0.068131
0.253751	0.064495
0.230963	0.058046
0.205773	0.051594
0.178183	0.04474
0.154196	0.037888
0.129005	0.031437
0.102608	0.02619
0.08942	0.021357
0.072634	0.015716
0.04384	0.009262
0.029448	0.005232
