Adsorption isotherm of Carbon Dioxide on TH-COF-1
DOI: 10.1016/j.micromeso.2015.11.030
Article source: Figure S9a
Adsorbate Carbon Dioxide: InChIKey CURLTUGMZLYLDI-UHFFFAOYSA-N
Kind: experiment
Temperature: 298 K
Tabular data in the source: 0
pressure (bar)	uptake (mmol/g)
0.09661	0.089937
0.115869	0.147956
0.163158	0.283604
0.181737	0.344655
0.207273	0.408335
0.229115	0.469184
0.254513	0.532864
0.278271	0.595128
0.30564	0.658808
0.332843	0.722083
0.358494	0.787582
0.382185	0.851261
0.41269	0.914941
0.440671	0.980743
0.47072	1.05499
0.509474	1.12934
0.705026	1.51971
0.729533	1.58817
0.757976	1.64707
0.791807	1.71075
0.826436	1.77602
0.869969	1.84848
0.906134	1.89272
0.959809	1.97969
1.03762	2.1095
1.07096	2.17425
1.00465	2.03155
0.664637	1.44592
0.63006	1.37667
0.612083	1.30545
0.57514	1.25203
0.543326	1.19663
0.142913	0.219266
