Adsorption isotherm of Nitrogen on THF-COF-1 25C H2O
DOI: 10.1016/j.micromeso.2015.11.030
Article source: Figure S7a
Adsorbate Nitrogen: InChIKey IJGRMHOSHXDMSA-UHFFFAOYSA-N
Kind: experiment
Temperature: 77 K
Tabular data in the source: 0
pressure (bar)	uptake (cm3(STP)/g)
0.101451	111.149
0.129162	117.343
0.148785	122.436
0.176116	125.9
0.201929	128.564
0.229261	134.159
0.255074	137.888
0.27974	142.319
0.306591	145.516
0.347916	149.681
0.376766	153.944
0.403338	157.607
0.431429	159.805
0.45095	163.197
0.476763	165.861
0.505158	170.087
0.530667	176.105
0.556177	176.8
0.583053	180.781
0.610384	184.777
0.634708	187.454
0.66175	192.128
0.683996	194.891
0.708755	199.163
0.736238	202.6
0.778929	207.155
0.803983	210.512
0.833137	216.362
0.858191	226.577
0.885219	235.128
0.913765	244.32
0.940641	255.909
0.960477	271.717
0.987343	295.96
1.00461	623.232
0.758871	205.443
0.329754	150.73
0.077881	107.239
0.049895	104.433
0.024574	94.6128
0.013913	81.9865
0.011248	63.7486
0.011248	46.9136
0.009915	27.2727
0.009915	4.82604
0.021152	119.32
0.048322	128.668
0.072694	138.021
0.099359	144.203
0.126691	147.4
0.148025	151.209
0.175357	157.07
0.202689	160
0.23002	163.064
0.253354	167.327
0.280685	170.923
0.325341	175.719
0.352673	178.782
0.377339	180.647
0.404671	183.311
0.432002	185.176
0.448673	187.907
0.47698	190.486
0.503661	195.167
0.530342	197.153
0.557999	205.424
0.585331	208.887
0.612662	211.684
0.633997	215.148
0.661328	217.679
0.706651	223.078
0.733316	228.006
0.760648	234
0.776652	236.461
0.803983	240.99
0.831315	245.119
0.858646	251.047
0.8837	256.148
0.982777	340.927
0.303101	174.579
0.68291	219.473
