Adsorption isotherm of Carbon Dioxide on COF-LZU-1
DOI: 10.1016/j.micromeso.2015.11.030
Article source: Figure 4a
Adsorbate Carbon Dioxide: InChIKey CURLTUGMZLYLDI-UHFFFAOYSA-N
Kind: experiment
Temperature: 273 K
Tabular data in the source: 0
pressure (bar)	uptake (mmol/g)
0.020673	0.016482
0.355849	0.47738
0.380244	0.499879
0.405701	0.531836
0.430097	0.554345
0.455553	0.586626
0.48207	0.614491
0.506466	0.641307
0.532983	0.6702
0.557378	0.689234
0.582835	0.718657
0.607231	0.744318
0.632687	0.762052
0.658143	0.788654
0.68466	0.813741
0.710117	0.833393
0.734512	0.862772
0.759969	0.880507
0.785425	0.903927
0.809821	0.930529
0.835277	0.943265
0.861794	0.974865
0.88619	0.987763
0.911646	1.00993
0.937103	1.03693
0.962559	1.05776
1.00605	1.08127
0.330105	0.456084
0.303198	0.413239
0.276292	0.391817
0.255791	0.370394
0.228885	0.343616
0.204541	0.311482
0.178916	0.279349
0.152009	0.236504
0.127665	0.209726
0.100759	0.177592
0.09179	0.161525
0.080258	0.140103
0.068727	0.124036
0.063602	0.102614
0.048227	0.102614
0.04182	0.075835
0.03157	0.07048
0.022601	0.032991
0.012351	0.016924
0.986111	1.07198
