Adsorption isotherm of Carbon Dioxide on COF-LZU-1
DOI: 10.1016/j.micromeso.2015.11.030
Article source: Figure 4a
Adsorbate Carbon Dioxide: InChIKey CURLTUGMZLYLDI-UHFFFAOYSA-N
Kind: experiment
Temperature: 298 K
Tabular data in the source: 0
pressure (bar)	uptake (mmol/g)
0.179733	0.152805
0.20806	0.157901
0.2319	0.178084
0.255862	0.206818
0.279763	0.236641
0.303478	0.26342
0.32615	0.293434
0.352684	0.320153
0.38101	0.338148
0.43538	0.402459
0.458715	0.41996
0.481807	0.445796
0.510958	0.467913
0.535811	0.490371
0.558837	0.50361
0.582835	0.528549
0.608291	0.554412
0.632289	0.588274
0.655315	0.614389
0.680842	0.624118
0.7084	0.661343
0.731572	0.677031
0.758517	0.702392
0.838624	0.777858
0.864976	0.807866
0.888311	0.805095
0.911929	0.841364
0.93583	0.859848
0.95867	0.89644
0.982288	0.922337
1.00365	0.93836
0.788797	0.739931
0.813141	0.772065
0.404418	0.370394
0.150728	0.124036
0.127665	0.107969
0.099477	0.081191
0.093071	0.07048
0.082821	0.07048
0.068727	0.054413
0.058477	0.049057
0.045664	0.022279
0.037977	0.027635
0.026445	0.022279
