Adsorption isotherm of Carbon Dioxide on COF-LZU1
DOI: 10.1016/j.micromeso.2015.11.030
Article source: Figure S9a
Adsorbate Carbon Dioxide: InChIKey CURLTUGMZLYLDI-UHFFFAOYSA-N
Kind: experiment
Temperature: 298 K
Tabular data in the source: 0
pressure (bar)	uptake (mmol/g)
0.082523	0.038985
0.128735	0.090756
0.151407	0.114916
0.169584	0.139076
0.196462	0.166688
0.220735	0.191926
0.243542	0.217596
0.269909	0.244345
0.292459	0.271956
0.319992	0.29351
0.341037	0.314958
0.364694	0.338912
0.397482	0.365044
0.415235	0.386674
0.449985	0.414285
0.476066	0.439484
0.49644	0.466704
0.52722	0.490217
0.556477	0.512199
0.583815	0.540303
0.611477	0.562244
0.643539	0.590595
0.690452	0.632631
0.730656	0.658516
0.753005	0.682183
0.786487	0.705934
0.968027	0.840579
1.00987	0.865602
1.03505	0.891488
1.08025	0.917374
1.1062	0.943259
0.092619	0.05294
0.099051	0.057766
0.108255	0.067417
0.671158	0.611089
0.835248	0.72851
0.843746	0.752637
0.861043	0.775156
0.906106	0.796067
0.934449	0.812152
