Adsorption isotherm of Nitrogen on TH-COF-1
DOI: 10.1016/j.micromeso.2015.11.030
Article source: Figure 3
Adsorbate Nitrogen: InChIKey IJGRMHOSHXDMSA-UHFFFAOYSA-N
Kind: experiment
Temperature: 77 K
Tabular data in the source: 0
pressure (bar)	uptake (cm3(STP)/g)
0.027122	145.342
0.049084	156.396
0.075989	165.176
0.101473	170.503
0.126958	174.929
0.152442	179.111
0.177926	182.652
0.203411	185.926
0.228895	188.963
0.25438	191.665
0.279864	194.076
0.305348	196.999
0.330833	199.761
0.356317	202.997
0.381802	206.194
0.407286	209.3
0.43277	212.536
0.458255	216.077
0.483739	220.167
0.509224	223.205
0.534708	226.349
0.560192	229.477
0.585677	232.184
0.611161	234.775
0.636646	236.995
0.66213	238.261
0.687615	240.283
0.713099	242.825
0.738583	244.938
0.764068	247.121
0.789552	249.548
0.815037	252.676
0.840521	256.645
0.866005	261.33
0.89149	266.863
0.916974	273.342
0.942735	278.782
0.966365	289.391
0.986656	313.207
0.013156	128.684
0.008135	116.711
0.005624	105.659
0.008135	91.8435
0.00688	71.5812
0.008135	65.1341
0.00688	54.0819
0.003113	31.9776
0.003113	28.2935
0.004369	15.3994
0.004369	0.66313
0.004369	40.2667
0.004369	82.6334
0.024719	186.943
0.049005	193.748
0.074736	202.808
0.099525	207.19
0.124738	208.539
0.150222	211.373
0.175784	213.486
0.200366	219.169
0.226141	222.822
0.251831	222.436
0.277539	224.251
0.303164	227.596
0.328507	229.461
0.354011	232.748
0.379509	233.898
0.405223	236.778
0.430518	239.499
0.455888	240.422
0.4817	242.277
0.507373	243.669
0.532524	246.578
0.558342	248.093
0.583929	250.413
0.609301	253.182
0.634825	255.599
0.660128	257.993
0.685807	259.556
0.711157	263.669
0.736666	264.482
0.761641	265.762
0.787368	268.452
0.812852	271.491
0.838337	274.258
0.863821	278.985
0.889305	281.399
0.91479	287.246
0.940578	296.932
0.963574	309.691
0.983573	358.938
