Adsorption isotherm of Nitrogen on TH-COF-1
DOI: 10.1016/j.micromeso.2015.11.030
Article source: Figure S10
Adsorbate Nitrogen: InChIKey IJGRMHOSHXDMSA-UHFFFAOYSA-N
Kind: experiment
Temperature: 273 K
Tabular data in the source: 0
pressure (bar)	uptake (mmol/g)
0.50285	0.114613
0.530807	0.119225
0.557811	0.121645
0.5848	0.126833
0.613081	0.131007
0.636213	0.131681
0.730822	0.15122
0.757826	0.153499
0.777627	0.155218
0.804621	0.159545
0.831611	0.164487
0.858605	0.168937
0.885607	0.171542
0.912599	0.176398
0.93958	0.183117
0.966568	0.188673
0.990198	0.193842
1.00853	0.1941
0.711574	0.143041
0.688159	0.141615
0.654551	0.137167
0.486552	0.106484
0.406121	0.097977
0.431334	0.100008
0.457736	0.10445
0.380935	0.090723
0.354545	0.083869
0.328154	0.077417
0.302953	0.072975
0.277755	0.068131
0.254969	0.061281
0.229772	0.056035
0.199776	0.049982
0.175799	0.041121
0.152999	0.037083
0.126609	0.030229
0.100222	0.022973
0.071431	0.016117
0.055847	0.010076
0.036654	0.005238
0.030661	0.002821
