Adsorption isotherm of Carbon Dioxide on TH-COF-1
DOI: 10.1016/j.micromeso.2015.11.030
Article source: Figure S9a
Adsorbate Carbon Dioxide: InChIKey CURLTUGMZLYLDI-UHFFFAOYSA-N
Kind: experiment
Temperature: 273 K
Tabular data in the source: 0
pressure (bar)	uptake (mmol/g)
0.048005	0.138051
0.061751	0.20456
0.06864	0.23266
0.075265	0.270868
0.093089	0.357391
0.097836	0.394976
0.109299	0.449171
0.11867	0.497486
0.13662	0.575317
0.157577	0.677735
0.171794	0.739468
0.184692	0.803148
0.197957	0.863997
0.212038	0.927677
0.228223	0.991356
0.244972	1.05221
0.264185	1.11872
0.281042	1.18239
0.311842	1.26074
0.337694	1.36866
0.356249	1.43428
0.377063	1.50362
0.396142	1.56589
0.409711	1.62532
0.442096	1.71441
0.454622	1.77332
0.501832	1.94655
0.517231	2.0074
0.536696	2.07674
0.574122	2.18996
0.590226	2.26212
0.61931	2.33146
0.727172	2.64702
0.749568	2.70434
0.143967	0.611003
0.481181	1.85744
0.639279	2.41537
0.651815	2.47077
0.691171	2.54991
