Adsorption isotherm of Nitrogen on THF-COF-1 100C H2O
DOI: 10.1016/j.micromeso.2015.11.030
Article source: Figure S7b
Adsorbate Nitrogen: InChIKey IJGRMHOSHXDMSA-UHFFFAOYSA-N
Kind: experiment
Temperature: 77 K
Tabular data in the source: 0
pressure (bar)	uptake (cm3(STP)/g)
0.032003	82.3597
0.052044	90.0182
0.075294	94.4509
0.101529	98.7083
0.127413	104.448
0.15129	107.78
0.17485	111.213
0.201055	115.948
0.224161	119.233
0.254645	122.86
0.276787	127.197
0.306581	127.744
0.329442	132.479
0.354017	134.283
0.38057	139.099
0.40413	143.383
0.427236	145.799
0.449661	149.621
0.505398	156.364
0.536144	158.634
0.559767	161.34
0.582628	166.21
0.606143	167.137
0.630065	170.133
0.655602	175.098
0.678708	179.801
0.735782	192.906
0.764864	196.513
0.787725	200.121
0.811239	205.081
0.835117	210.342
0.858676	216.806
0.881537	224.472
0.96498	265.959
1.00499	430.554
0.991848	308.707
0.908915	233.773
0.935668	247.493
0.710947	183.641
0.479538	152.507
0.01672	75.4617
0.010032	69.1293
0.004682	54.3536
0.006019	37.467
0.006019	21.6359
0.006019	4.74934
0.986498	343.536
0.959745	301.319
0.93433	275.989
0.908915	262.269
0.884838	251.715
0.860761	245.383
0.834008	236.939
0.808594	233.773
0.781841	227.441
0.761777	224.274
0.732349	218.997
0.706934	213.72
0.680182	209.499
0.656104	203.166
0.63069	201.055
0.609288	197.889
0.58521	193.668
0.555783	185.224
0.535718	187.335
0.504953	181.003
0.479538	171.504
0.458136	168.338
0.431384	163.061
0.405969	157.784
0.379216	154.617
0.352464	153.562
0.329724	152.507
0.302972	150.396
0.278895	146.174
0.25348	143.008
0.23074	137.731
0.201312	134.565
0.175898	130.343
0.153158	126.121
0.125068	120.844
0.103666	118.734
0.074238	112.401
0.051499	105.013
0.026084	99.7361
1.00389	434.301
