Adsorption isotherm of Carbon Dioxide on TH-COF-1
DOI: 10.1016/j.micromeso.2015.11.030
Article source: Figure 4a
Adsorbate Carbon Dioxide: InChIKey CURLTUGMZLYLDI-UHFFFAOYSA-N
Kind: experiment
Temperature: 273 K
Tabular data in the source: 0
pressure (bar)	uptake (mmol/g)
0.127802	0.442833
0.153258	0.522638
0.178715	0.602295
0.20205	0.680917
0.227506	0.748751
0.254023	0.824123
0.28054	0.898607
0.304936	0.965998
0.329332	1.03693
0.354788	1.11718
0.380244	1.18768
0.405701	1.25862
0.431157	1.32069
0.456614	1.40049
0.48207	1.463
0.507526	1.5437
0.532983	1.61375
0.558439	1.69311
0.581774	1.75518
0.607231	1.82612
0.633748	1.90149
0.659204	1.96799
0.6836	2.02119
0.709056	2.08326
0.734512	2.14533
0.759969	2.22514
0.785425	2.29209
0.810882	2.36746
0.836338	2.43795
0.859673	2.49958
0.88619	2.5629
0.912707	2.65121
0.938163	2.70441
0.961498	2.77491
0.989158	2.84891
1.00711	2.89588
0.105884	0.365039
0.087946	0.322194
0.076415	0.29006
0.072571	0.252571
0.066164	0.225793
0.054633	0.188303
0.04182	0.140103
0.034133	0.107969
0.016195	0.059769
