Adsorption isotherm of Nitrogen on COF-LZU-1
DOI: 10.1016/j.micromeso.2015.11.030
Article source: Figure S10
Adsorbate Nitrogen: InChIKey IJGRMHOSHXDMSA-UHFFFAOYSA-N
Kind: experiment
Temperature: 298 K
Tabular data in the source: 0
pressure (bar)	uptake (mmol/g)
1.00298	0.117363
0.992165	0.11856
0.964553	0.115723
0.933341	0.112482
0.911731	0.110455
0.887725	0.10722
0.862527	0.102376
0.838523	0.09874
0.814517	0.095505
0.788097	0.094679
0.760492	0.090637
0.735272	0.089812
0.712453	0.089391
0.686049	0.085351
0.657226	0.084523
0.632013	0.082492
0.610412	0.078857
0.585186	0.079238
0.562363	0.079621
0.533565	0.073971
0.504742	0.073143
0.481944	0.068703
0.460332	0.067078
0.432712	0.065849
0.40631	0.061407
0.379898	0.058973
0.349889	0.055331
0.331891	0.0517
0.305493	0.046453
0.279087	0.042814
0.261081	0.04079
0.228667	0.037548
0.203475	0.031499
0.178268	0.028263
0.153061	0.025027
0.130254	0.022194
0.105052	0.018155
0.097859	0.015336
0.083461	0.01251
0.07626	0.011299
0.063067	0.007671
0.052273	0.004447
0.040276	0.001624
0.033078	1e-05
