Adsorption isotherm of Carbon Dioxide on TH-COF-1
DOI: 10.1016/j.micromeso.2015.11.030
Article source: Figure 4a
Adsorbate Carbon Dioxide: InChIKey CURLTUGMZLYLDI-UHFFFAOYSA-N
Kind: experiment
Temperature: 298 K
Tabular data in the source: 0
pressure (bar)	uptake (mmol/g)
0.181897	0.38311
0.205468	0.432981
0.229628	0.485691
0.254023	0.539486
0.27948	0.594241
0.305383	0.655413
0.330392	0.713061
0.355849	0.762717
0.380244	0.819689
0.405701	0.876587
0.431157	0.937672
0.456	0.991199
0.508823	1.09827
0.53248	1.14311
0.558439	1.20246
0.583281	1.26492
0.608738	1.31765
0.633748	1.36901
0.659204	1.41823
0.68466	1.47364
0.710117	1.52419
0.735126	1.57737
0.759355	1.62147
0.786486	1.68269
0.811942	1.7523
0.836338	1.8037
0.86118	1.85925
0.885408	1.89495
0.912353	1.97871
0.937549	2.01023
0.962113	2.08
0.988521	2.13246
1.00662	2.16477
1.04847	2.12317
0.482575	1.03985
0.154572	0.316838
0.123821	0.257926
0.107165	0.220437
0.084102	0.161525
0.061039	0.11868
0.044383	0.081191
0.023883	0.049057
