Adsorption isotherm of Carbon Dioxide on COF-LZU1
DOI: 10.1016/j.micromeso.2015.11.030
Article source: Figure S9a
Adsorbate Carbon Dioxide: InChIKey CURLTUGMZLYLDI-UHFFFAOYSA-N
Kind: experiment
Temperature: 273 K
Tabular data in the source: 0
pressure (bar)	uptake (mmol/g)
0.03455	0.027645
0.045566	0.057968
0.055938	0.085579
0.063866	0.110386
0.07277	0.131095
0.081004	0.155594
0.090258	0.176179
0.100071	0.202928
0.109822	0.228814
0.129856	0.272172
0.1536	0.316825
0.172646	0.363419
0.223246	0.441076
0.242781	0.490629
0.268464	0.518734
0.286243	0.55427
0.662412	1.06233
0.703314	1.08822
0.196564	0.403593
0.316466	0.598221
0.348115	0.633608
0.363728	0.675429
0.397499	0.710816
0.415761	0.742986
0.447071	0.784807
0.476755	0.821803
0.490178	0.850755
0.533181	0.886142
0.548483	0.919921
0.597557	0.961742
0.609145	0.989086
0.651815	1.02769
