Adsorption isotherm of Hydrogen on COF-102
DOI: 10.1002/chem.201201340
Adsorbate Hydrogen: InChIKey UFHFLCQGNIYNRP-UHFFFAOYSA-N
Temperature: 298 K
Tabular data in the source: 0
pressure (bar)	uptake (wt%)
0.0926224	0.0021203
6.69262	0.241557
12.363	0.310571
16.1123	0.349303
19.087	0.373951
21.0391	0.385219
