Adsorption isotherm of Hydrogen on COF-102
DOI: 10.1002/chem.201201340
Adsorbate Hydrogen: InChIKey UFHFLCQGNIYNRP-UHFFFAOYSA-N
Temperature: 77 K
Tabular data in the source: 0
pressure (bar)	uptake (wt%)
0.0168099	0.155265
0.194275	4.49329
0.523852	7.7778
0.85343	10.4736
1.28442	12.4877
1.70695	13.944
2.12104	15.0905
2.56047	16.0201
2.98301	16.7947
3.35484	17.3524
3.74357	17.7863
4.0647	18.1271
4.34357	18.344
4.60554	18.5299
4.84216	18.8398
5.07878	19.0257
5.2985	19.2426
5.50977	19.3046
