Adsorption isotherm of Hydrogen on COF-102
DOI: 10.1002/chem.201201340
Adsorbate Hydrogen: InChIKey UFHFLCQGNIYNRP-UHFFFAOYSA-N
Temperature: 298 K
Tabular data in the source: 0
pressure (bar)	uptake (wt%)
0	0
1.76586	0.158458
2.81938	0.233106
3.99685	0.25705
5.11234	0.277472
6.28981	0.292261
7.52924	0.30705
8.73769	0.319726
9.97713	0.331698
11.0307	0.342261
12.2701	0.352825
13.5405	0.363388
14.8419	0.376064
16.1123	0.384515
18.1574	0.403529
20.2335	0.416909
