Adsorption isotherm of Hydrogen on SNU-3
DOI: 10.1002/chem.201201340
Adsorbate Hydrogen: InChIKey UFHFLCQGNIYNRP-UHFFFAOYSA-N
Temperature: 298 K
Tabular data in the source: 0
pressure (bar)	uptake (wt%)
0.0926224	0.00423298
2.38558	0.0288809
4.89544	0.0457823
10.9377	0.0626837
19.9546	0.0929654
