Adsorption isotherm of Nitrogen on COF-102
DOI: 10.1002/chem.201201340
Adsorbate Nitrogen: InChIKey IJGRMHOSHXDMSA-UHFFFAOYSA-N
Temperature: 77 K
Tabular data in the source: 0
pressure (bar)	uptake (cm3(STP)/g)
0.00658518	251.636
0.00658518	445.563
0.00658518	603.451
0.00801532	670.382
0.0308976	739.029
0.065221	766.487
0.116706	790.514
0.161041	797.378
0.203945	805.959
0.245419	814.54
0.348389	824.837
0.445639	833.418
0.548609	841.999
0.645859	845.431
0.741679	847.147
0.800315	852.296
0.893274	855.728
0.936178	857.444
0.987663	864.309
1.00196	884.903
