Adsorption isotherm of Hydrogen on COF-102
DOI: 10.1002/chem.201201340
Adsorbate Hydrogen: InChIKey UFHFLCQGNIYNRP-UHFFFAOYSA-N
Temperature: 77 K
Tabular data in the source: 0
pressure (bar)	uptake (wt%)
0.0168099	0.155265
0.236528	4.15245
0.599909	7.06512
0.988641	9.3271
1.42808	11.0933
1.85906	12.3637
2.3154	13.3243
2.72104	14.0989
3.13512	14.6567
3.52385	15.1834
3.87878	15.5243
4.19991	15.8341
4.46188	16.051
4.6985	16.237
4.93512	16.4539
5.18019	16.6398
5.41681	16.7947
5.60273	16.8877
