Adsorption isotherm of Hydrogen on COF-102
DOI: 10.1002/chem.201201340
Adsorbate Hydrogen: InChIKey UFHFLCQGNIYNRP-UHFFFAOYSA-N
Temperature: 298 K
Tabular data in the source: 0
pressure (bar)	uptake (wt%)
0.0306505	0.0021203
1.73488	0.0295851
3.47009	0.0500076
5.26727	0.0690217
7.12643	0.082402
8.86164	0.0957823
10.6278	0.106346
12.518	0.116909
14.3152	0.126768
16.0504	0.138036
17.8476	0.148599
19.6447	0.158458
21.4419	0.169726
