Adsorption isotherm of Hydrogen on COF-102
DOI: 10.1002/chem.201201340
Adsorbate Hydrogen: InChIKey UFHFLCQGNIYNRP-UHFFFAOYSA-N
Temperature: 77 K
Tabular data in the source: 0
pressure (bar)	uptake (wt%)
0.0168099	0.155265
0.270331	4.0285
0.608359	6.84822
1.00554	8.89329
1.45343	10.6285
1.94357	11.837
2.38301	12.7665
2.79709	13.4482
3.17737	13.913
3.55766	14.4088
3.91258	14.7496
4.24216	15.0285
4.52104	15.3074
4.77456	15.5553
5.03653	15.7722
5.23089	15.8961
5.38301	15.9581
5.58582	16.113
