Adsorption isotherm of Hydrogen on COF-102
DOI: 10.1002/chem.201201340
Adsorbate Hydrogen: InChIKey UFHFLCQGNIYNRP-UHFFFAOYSA-N
Temperature: 298 K
Tabular data in the source: 0
pressure (bar)	uptake (wt%)
0.0616364	0.00282452
6.56868	0.238036
12.1771	0.309163
16.1743	0.347895
18.9011	0.37043
21.1011	0.38381
