Adsorption isotherm of Nitrogen on COF-102
DOI: 10.1002/chem.201201340
Adsorbate Nitrogen: InChIKey IJGRMHOSHXDMSA-UHFFFAOYSA-N
Temperature: 77 K
Tabular data in the source: 0
pressure (bar)	uptake (cm3(STP)/g)
0.00515504	251.636
0.00944547	311.702
0.0280373	344.309
0.0580703	359.755
0.100975	366.619
0.199654	380.349
0.298334	383.781
0.397014	388.929
0.495694	387.213
0.595804	394.078
0.694484	395.794
0.764561	399.227
0.914726	402.659
0.961921	404.375
0.991954	411.24
