Adsorption isotherm of Nitrogen on COF-102
DOI: 10.1002/chem.201201340
Adsorbate Nitrogen: InChIKey IJGRMHOSHXDMSA-UHFFFAOYSA-N
Temperature: 77 K
Tabular data in the source: 0
pressure (bar)	uptake (cm3(STP)/g)
0.00372489	71.4377
0.00372489	165.827
0.00515504	622.329
0.0108756	744.177
0.0123058	795.662
0.0294675	876.322
0.0609306	910.646
0.141019	950.118
0.249709	982.725
0.399875	1015.33
0.501415	1029.06
0.700205	1044.51
0.85895	1058.24
0.914726	1059.95
0.944759	1063.38
0.974792	1070.25
0.994814	1080.55
