Adsorption isotherm of Hydrogen on COF-102
DOI: 10.1002/chem.201201340
Adsorbate Hydrogen: InChIKey UFHFLCQGNIYNRP-UHFFFAOYSA-N
Temperature: 298 K
Tabular data in the source: 0
pressure (bar)	uptake (wt%)
0.0616364	0.00282452
1.76586	0.157754
2.85037	0.231698
4.02783	0.255641
5.2053	0.276768
7.49826	0.303529
9.94614	0.328881
12.2081	0.35212
14.749	0.374656
16.825	0.390853
18.0645	0.400712
18.994	0.407754
20.2335	0.414796
