Adsorption isotherm of Hydrogen on MIL-100(Al)
DOI: 10.1002/chem.201201340
Adsorbate Hydrogen: InChIKey UFHFLCQGNIYNRP-UHFFFAOYSA-N
Temperature: 298 K
Tabular data in the source: 0
pressure (bar)	uptake (wt%)
0.0926224	0.00423298
2.66445	0.0957823
4.95741	0.134515
11.9912	0.200008
19.9856	0.228177
