Adsorption isotherm of Nitrogen on [Co(bpy)2(OTf)2]
DOI: 10.1021/Ic100753g
Adsorbate Nitrogen: InChIKey IJGRMHOSHXDMSA-UHFFFAOYSA-N
Temperature: 77 K
Tabular data in the source: 0
pressure (bar)	uptake (mg/g)
0	75.3
0.00182509	23.9555
0.00400996	85.6782
0.00619484	96.0563
0.0193041	103.703
0.0498923	111.897
0.0651864	127.191
0.0673713	178.535
0.0761108	186.182
0.08922	197.107
0.117623	204.208
0.187539	209.124
0.303338	210.762
0.403842	212.947
0.508716	212.401
0.652918	216.224
0.705355	217.317
0.753422	220.594
0.858296	222.233
0.901993	223.871
0.982834	234.796
