Adsorption isotherm of 2-Methyl Pentane, N-Hexane on Silicalite MFI
DOI: 10.1021/jp010158l
Article source: Figure 6
Adsorbate 2-Methyl Pentane: InChIKey AFABGHUZZDYHJO-UHFFFAOYSA-N
Adsorbate N-Hexane: InChIKey VLKZOEOYAKHREP-UHFFFAOYSA-N
Kind: experiment
Temperature: 433 K
Tabular data in the source: 0
pressure (bar)	2-Methyl Pentane fraction	2-Methyl Pentane uptake (mmol/g)	N-Hexane fraction	N-Hexane uptake (mmol/g)	total uptake (mmol/g)
0.066	0.16714	0.063211	0.83286	0.5852	
0.066	0.25032	0.10324	0.74968	0.51137	
0.066	0.49987	0.23614	0.50013	0.38769	
0.066	0.7503	0.43399	0.2497	0.22471	
0.066	0.83347	0.46439	0.16653	0.15008	
