Adsorption isotherm of Nitrogen on RIWMUH
DOI: 10.1039/c3ce41428k
Article source: Figure 6
Adsorbate Nitrogen: InChIKey IJGRMHOSHXDMSA-UHFFFAOYSA-N
Kind: experiment
Temperature: 77 K
Tabular data in the source: 0
pressure (bar)	uptake (cm3(STP)/g)
0.001287	4.96
0.002422	19.458
0.002513	23.624
0.002584	10.223
0.002969	14.877
0.003962	31.933
0.004195	27.474
0.005299	36.27
0.007994	44.652
0.010872	37.537
0.015198	38.536
0.044825	40.411
0.045737	47.063
0.081676	47.963
0.095446	41.993
0.120463	48.254
0.122955	42.503
0.157041	42.989
0.159878	48.642
0.196465	48.982
0.197701	43.402
0.231158	43.791
0.232779	48.81
0.248738	48.883
0.26808	43.936
0.28723	48.784
0.308731	44.397
0.323828	48.953
0.344083	44.59
0.358268	48.781
0.380063	44.687
0.398321	48.755
0.416985	44.856
0.4534	48.631
0.453897	45.025
0.472489	48.582
0.489876	45.145
0.505967	48.751
0.528045	45.388
0.545087	48.652
0.563731	45.094
0.582324	48.626
0.600967	45.287
0.618628	48.649
0.639449	45.408
0.655246	48.477
0.675743	45.552
0.692806	48.281
0.713598	45.624
0.728492	48.109
0.753661	45.428
0.76509	48.327
0.786824	45.719
0.80265	48.13
0.820919	45.937
0.839876	48.397
0.859999	46.593
0.877741	48.542
0.898776	47.03
0.915281	48.687
0.933793	47.662
0.956844	49.733
0.971576	49.318
1.00733	53.629
