Adsorption isotherm of Carbon Dioxide on RIWMUH
DOI: 10.1039/c3ce41428k
Article source: Figure 7
Adsorbate Carbon Dioxide: InChIKey CURLTUGMZLYLDI-UHFFFAOYSA-N
Kind: experiment
Temperature: 298 K
Tabular data in the source: 0
pressure (bar)	uptake (cm3(STP)/g)
0.00412	0.4946
0.0124	0.8681
0.01813	0.9992
0.03434	1.3875
0.06043	2.0767
0.07981	2.6203
0.10162	3.2075
0.12405	3.756
0.14245	4.3092
0.16367	4.8286
0.18317	5.3673
0.20242	5.8963
0.22192	6.4254
0.25251	7.3086
0.30152	8.5366
0.35406	9.8133
0.40086	11.0412
0.45084	12.3372
0.50265	13.6331
0.5525	14.8951
0.60077	16.1813
0.65306	17.4967
0.70023	18.7925
0.77435	20.6564
0.85005	22.4913
0.92673	24.3649
0.9895	26.0782
