Adsorption isotherm of Methane on RIWMUH
DOI: 10.1039/c3ce41428k
Article source: Figure 7
Adsorbate Methane: InChIKey VNWKTOKETHGBQD-UHFFFAOYSA-N
Kind: experiment
Temperature: 298 K
Tabular data in the source: 0
pressure (bar)	uptake (cm3(STP)/g)
0.01972	2.8751
0.03825	3.3993
0.05825	3.7102
0.08021	3.9242
0.10071	4.2157
0.12169	4.4491
0.14268	4.6631
0.16269	4.8189
0.18269	5.091
0.20515	5.2857
0.30277	5.9482
0.40137	6.7271
0.50144	7.4867
0.60102	8.1299
0.70352	8.8896
0.80164	9.5909
0.90171	10.1954
1.00031	10.8774
