Adsorption isotherm of Ethane on Pillared Layered Materials
DOI: 10.1016/j.jcis.2007.04.014
Adsorbate Ethane: InChIKey OTMSDBZUPAUEDD-UHFFFAOYSA-N
Temperature: 300 K
Tabular data in the source: 0
pressure (bar)	uptake (mmol/g)
0.10167	0.00283075
0.487226	0.00664786
1.00421	0.010465
5.42888	0.0982586
9.91872	0.155515
45.6607	0.541044
94.1102	0.70518
508.771	0.934207
967.647	1.05254
5445.69	1.24339
9949.42	1.27775
53787.8	1.56403
110861	1.63274
510346	1.71671
1139880	1.61747
5247410	1.71671
