Adsorption isotherm of Ethane on Pillared Layered Materials
DOI: 10.1016/j.jcis.2007.04.014
Adsorbate Ethane: InChIKey OTMSDBZUPAUEDD-UHFFFAOYSA-N
Temperature: 300 K
Tabular data in the source: 0
pressure (bar)	uptake (mmol/g)
0.0406337	0.00327668
0.0713826	0.00327668
0.454596	0.00710021
0.767101	0.0300414
4.50742	0.129453
7.91834	0.259453
42.9291	0.584453
85.0932	0.687688
500.001	0.936218
878.368	1.07004
4762.05	1.31857
9826.88	1.44475
47216.8	1.53269
101437	1.72004
528246	1.47534
1005770	1.55181
3795830	1.66651
