Adsorption isotherm of Methane on Pillared Layered Materials
DOI: 10.1016/j.jcis.2007.04.014
Adsorbate Methane: InChIKey VNWKTOKETHGBQD-UHFFFAOYSA-N
Temperature: 300 K
Tabular data in the source: 0
pressure (bar)	uptake (mmol/g)
0.0126359	0.000425
0.040573	-0.00133414
0.103838	0.00394326
0.52482	0.00394326
0.940428	0.00746153
5.41092	0.0866226
11.0377	0.127083
52.2861	0.179857
106.658	0.215039
489.134	0.310033
965.968	0.378639
5380.66	0.591494
9641.64	0.744539
22389.8	0.899342
36403.8	0.992577
