Adsorption isotherm of Methane on Pillared Layered Materials
DOI: 10.1016/j.jcis.2007.04.014
Adsorbate Methane: InChIKey VNWKTOKETHGBQD-UHFFFAOYSA-N
Temperature: 300 K
Tabular data in the source: 0
pressure (bar)	uptake (mmol/g)
0.0173544	0.00202196
0.398549	0.00202196
0.92667	0.00747498
4.26592	0.023834
8.11348	0.0783642
42.135	0.239228
90.4039	0.299212
551.343	0.430084
1007.32	0.492794
4279.12	0.757265
9181.18	0.822702
49634.6	1.28621
