Adsorption isotherm of Methane on Pillared Layered Materials
DOI: 10.1016/j.jcis.2007.04.014
Adsorbate Methane: InChIKey VNWKTOKETHGBQD-UHFFFAOYSA-N
Temperature: 300 K
Tabular data in the source: 0
pressure (bar)	uptake (mmol/g)
0.0406337	0.00374478
0.473266	0.0124843
0.901091	0.0299633
4.69253	0.187274
8.93452	0.209123
48.4383	0.313997
92.2259	0.379543
461.331	0.619879
1074.17	0.698535
5161.22	1.04811
17263.2	1.38895
47216.8	1.66862
101437	1.75601
151701	1.98761
