Adsorption isotherm of N-Butane on Pillared Layered Materials
DOI: 10.1016/j.jcis.2007.04.014
Adsorbate N-Butane: InChIKey IJDNQMDRQITEOD-UHFFFAOYSA-N
Temperature: 300 K
Tabular data in the source: 0
pressure (bar)	uptake (mmol/g)
0.0117317	0.0131277
0.0518656	0.0108863
0.103782	0.0108863
0.541205	0.0243346
1.15689	0.073645
2.09652	0.398645
5.28634	0.820024
10.933	0.898473
55.1617	0.938817
99.9643	0.999335
556.898	0.826748
1043.1	0.714679
5091.89	0.681059
9537.42	0.490541
51406.4	0.564507
87203.6	0.571231
536414	0.479335
940507	0.486059
4904600	0.571231
