Adsorption isotherm of Ethane on Pillared Layered Materials
DOI: 10.1016/j.jcis.2007.04.014
Adsorbate Ethane: InChIKey OTMSDBZUPAUEDD-UHFFFAOYSA-N
Temperature: 300 K
Tabular data in the source: 0
pressure (bar)	uptake (mmol/g)
0.012233	0.00218413
0.0477093	0.00922067
0.0854905	0.0109798
0.52482	0.0232937
1.14226	0.0356077
5.07137	0.190411
10.6858	0.255499
49.005	0.369843
106.658	0.424376
489.134	0.524647
997.782	0.566866
5043	0.760371
10976	0.876474
48730.9	0.830736
106062	0.936284
502418	0.895824
1058630	0.830736
4550240	0.830736
