Adsorption isotherm of N-propane on Pillared Layered Materials
DOI: 10.1016/j.jcis.2007.04.014
Adsorbate N-propane: InChIKey ATUOYWHBWRKTHZ-UHFFFAOYSA-N
Temperature: 300 K
Tabular data in the source: 0
pressure (bar)	uptake (mmol/g)
0.047386	0.00283075
0.0901249	0.00283075
0.431898	0.00664786
0.855118	0.00283075
4.8124	0.0982586
9.15284	0.216589
20.4432	0.441799
45.6607	0.716631
97.9685	0.938024
488.734	1.24339
892.931	1.2014
5445.69	1.33882
10357.3	1.16705
60678.2	1.29683
125062	1.23576
470940	1.10598
1094990	0.972378
