Adsorption isotherm of N-Butane on Pillared Layered Materials
DOI: 10.1016/j.jcis.2007.04.014
Adsorbate N-Butane: InChIKey IJDNQMDRQITEOD-UHFFFAOYSA-N
Temperature: 300 K
Tabular data in the source: 0
pressure (bar)	uptake (mmol/g)
0.0126359	0.00218413
0.0561007	0.00218413
0.100527	0.00394326
0.542105	0.00922067
1.10584	0.0444033
5.23839	0.565107
10.3451	0.728706
52.2861	0.809627
106.658	0.779721
539.073	0.811386
721.614	0.788517
997.782	0.786758
5043	0.575662
9959.19	0.556311
50335.9	0.563348
102680	0.440208
455876	0.496501
929938	0.55807
4405160	0.584457
