Adsorption isotherm of Ethane on Pillared Layered Materials
DOI: 10.1016/j.jcis.2007.04.014
Adsorbate Ethane: InChIKey OTMSDBZUPAUEDD-UHFFFAOYSA-N
Temperature: 300 K
Tabular data in the source: 0
pressure (bar)	uptake (mmol/g)
0.0148563	0.00374478
0.436664	0.016854
0.938097	0.0255935
4.69253	0.178535
8.93452	0.449459
46.5275	0.689795
96.0134	0.77719
500.001	1.04811
951.994	1.13114
5161.22	1.48072
10650.6	1.83467
57742	1.84778
105603	1.6424
507408	1.5987
1181450	1.51568
5452770	1.66425
