Adsorption isotherm of Methane on Pillared Layered Materials
DOI: 10.1016/j.jcis.2007.04.014
Adsorbate Methane: InChIKey VNWKTOKETHGBQD-UHFFFAOYSA-N
Temperature: 300 K
Tabular data in the source: 0
pressure (bar)	uptake (mmol/g)
0.0147834	0.00864495
0.04855	0.0108863
0.200917	0.0108863
0.541205	0.00192081
0.859389	0.00416219
4.94841	0.105024
10.2341	0.122955
51.6355	0.187955
99.9643	0.223817
538.804	0.338128
976.423	0.414335
4766.39	0.589162
9857.7	0.701231
46556.8	1.04416
84370.3	1.09571
143122	1.23692
