Adsorption isotherm of N-propane on Pillared Layered Materials
DOI: 10.1016/j.jcis.2007.04.014
Adsorbate N-propane: InChIKey ATUOYWHBWRKTHZ-UHFFFAOYSA-N
Temperature: 300 K
Tabular data in the source: 0
pressure (bar)	uptake (mmol/g)
0.140737	0.00566149
0.465089	0.0132957
1.00796	0.0438326
4.90369	0.158346
9.90585	0.402641
23.0322	1.68519
48.1917	2.73872
104.443	2.97538
490.558	2.99828
891.773	2.99064
4654.49	2.67764
10087.4	2.6013
50830.8	2.3112
106357	2.18142
499547	2.19669
