Adsorption isotherm of Methane on Pillared Layered Materials
DOI: 10.1016/j.jcis.2007.04.014
Adsorbate Methane: InChIKey VNWKTOKETHGBQD-UHFFFAOYSA-N
Temperature: 300 K
Tabular data in the source: 0
pressure (bar)	uptake (mmol/g)
0.140737	0.00566149
0.449022	0.0132957
0.907062	-0.00960696
4.57073	0.0820038
9.90585	0.227054
44.9196	0.822524
100.835	0.975208
473.611	1.38746
956.734	1.63175
4654.49	2.27303
8764.03	2.50205
44162.4	3.70063
