Adsorption isotherm of N-Butane on Pillared Layered Materials
DOI: 10.1016/j.jcis.2007.04.014
Adsorbate N-Butane: InChIKey IJDNQMDRQITEOD-UHFFFAOYSA-N
Temperature: 300 K
Tabular data in the source: 0
pressure (bar)	uptake (mmol/g)
0.382853	0.00202196
0.758013	0.023834
4.09791	0.0838173
8.79238	0.201057
19.6381	0.435537
43.8625	0.686376
90.4039	0.803616
416.173	0.819975
967.647	0.798163
5025.2	0.735453
10781.9	0.781804
53787.8	0.680923
110861	0.648205
470940	0.858146
1186610	0.746359
5040760	0.645478
