Adsorption isotherm of N-Butane on Pillared Layered Materials
DOI: 10.1016/j.jcis.2007.04.014
Adsorbate N-Butane: InChIKey IJDNQMDRQITEOD-UHFFFAOYSA-N
Temperature: 300 K
Tabular data in the source: 0
pressure (bar)	uptake (mmol/g)
0.855118	0.00283075
5.21508	0.0906244
10.3254	0.216589
49.4814	0.827327
106.166	1.04109
508.771	1.11361
892.931	1.1327
5231.22	1.05635
11684.1	1.16323
55992.9	0.896035
125062	0.880767
531269	0.831145
1186610	0.991463
5040760	0.999098
