Adsorption isotherm of N-propane on Pillared Layered Materials
DOI: 10.1016/j.jcis.2007.04.014
Adsorbate N-propane: InChIKey ATUOYWHBWRKTHZ-UHFFFAOYSA-N
Temperature: 300 K
Tabular data in the source: 0
pressure (bar)	uptake (mmol/g)
0.0121257	0.00864495
0.0591914	0.0108863
0.114592	0.0108863
0.506608	0.0153691
1.1193	0.0624381
5.11458	0.447955
10.2341	0.521921
53.3695	0.636231
99.9643	0.607093
504.361	0.743817
1043.1	0.860369
4611.53	0.768473
10188.7	0.82899
51406.4	0.678817
93158.8	0.739335
502123	0.580197
972091	0.8133
4297580	0.676576
