Adsorption isotherm of Methane on Pillared Layered Materials
DOI: 10.1016/j.jcis.2007.04.014
Adsorbate Methane: InChIKey VNWKTOKETHGBQD-UHFFFAOYSA-N
Temperature: 300 K
Tabular data in the source: 0
pressure (bar)	uptake (mmol/g)
4.15882	0.0682767
8.58208	0.148571
41.2357	0.309159
96.0134	0.38563
480.277	0.607394
914.44	0.691512
4574.2	0.962983
9066.88	1.34151
47216.8	1.74298
