Adsorption isotherm of Ethane on Pillared Layered Materials
DOI: 10.1016/j.jcis.2007.04.014
Adsorbate Ethane: InChIKey OTMSDBZUPAUEDD-UHFFFAOYSA-N
Temperature: 300 K
Tabular data in the source: 0
pressure (bar)	uptake (mmol/g)
1.79207	0.0138099
5.48836	0.0738642
10.5209	0.137451
54.2282	0.289353
98.6792	0.324679
508.627	0.42006
1110.53	0.398864
5433.69	0.46775
9386.12	0.496011
53688.1	0.504842
97696.2	0.626718
558816	0.693837
1043690	0.773321
4847630	0.734462
