Adsorption isotherm of Methane on Pillared Layered Materials
DOI: 10.1016/j.jcis.2007.04.014
Adsorbate Methane: InChIKey VNWKTOKETHGBQD-UHFFFAOYSA-N
Temperature: 300 K
Tabular data in the source: 0
pressure (bar)	uptake (mmol/g)
0.0627766	0.016445
0.10167	0.0224433
0.527995	0.0344399
1.22765	0.0404382
5.00969	0.100421
9.52809	0.280371
51.51	0.472317
101.985	0.592284
469.487	0.862208
1007.32	0.958182
5231.22	1.54002
9949.42	1.80394
49634.6	2.45776
98271.7	2.6797
