Adsorption isotherm of Methane on Pillared Layered Materials
DOI: 10.1016/j.jcis.2007.04.014
Adsorbate Methane: InChIKey VNWKTOKETHGBQD-UHFFFAOYSA-N
Temperature: 300 K
Tabular data in the source: 0
pressure (bar)	uptake (mmol/g)
0.0120882	0.00404392
0.047386	-0.0014091
0.119397	0.00404392
0.449605	0.00949694
0.964661	0.025856
4.44081	0.0694802
8.11348	0.140369
47.5327	0.445739
97.9685	0.554799
469.487	0.832903
929.539	0.974681
5025.2	1.48181
10357.3	1.71629
22222.4	2.20706
43998.2	2.56151
