Adsorption isotherm of Nitrogen on Pillared Layered Materials
DOI: 10.1016/j.jcis.2007.04.014
Adsorbate Nitrogen: InChIKey IJGRMHOSHXDMSA-UHFFFAOYSA-N
Temperature: 77 K
Tabular data in the source: 0
pressure (bar)	uptake (mmol/g)
0.00325203	0.0938967
0.0487805	3.75587
0.097561	4.20188
0.149593	4.29577
0.195122	4.34272
0.302439	4.46009
0.4	4.50704
0.497561	4.55399
0.601626	4.60094
0.702439	4.64789
0.8	4.67136
