Adsorption isotherm of N-propane on Pillared Layered Materials
DOI: 10.1016/j.jcis.2007.04.014
Adsorbate N-propane: InChIKey ATUOYWHBWRKTHZ-UHFFFAOYSA-N
Temperature: 300 K
Tabular data in the source: 0
pressure (bar)	uptake (mmol/g)
0.0406337	0.0185708
0.0872946	0.0109237
0.419438	0.0223943
0.831402	0.0376884
4.15882	0.194453
8.58208	0.427688
42.9291	0.90563
92.2259	0.951512
461.331	1.06239
991.091	1.12357
5373.17	1.32239
9066.88	1.11592
47216.8	1.21916
93592.1	0.9821
528246	1.21534
1005770	0.8521
4832600	0.855924
