Adsorption isotherm of N-Butane on Pillared Layered Materials
DOI: 10.1016/j.jcis.2007.04.014
Adsorbate N-Butane: InChIKey IJDNQMDRQITEOD-UHFFFAOYSA-N
Temperature: 300 K
Tabular data in the source: 0
pressure (bar)	uptake (mmol/g)
1.08824	0.020403
5.00969	0.1949
10.3254	0.527534
47.5327	1.84171
83.4234	1.83626
399.783	1.79263
857.765	1.80354
4279.12	1.51998
11224	1.39456
47679.8	1.20371
102301	1.06193
510346	1.31822
1010440	1.13282
4651540	1.16554
