Adsorption isotherm of N-propane on Pillared Layered Materials
DOI: 10.1016/j.jcis.2007.04.014
Adsorbate N-propane: InChIKey ATUOYWHBWRKTHZ-UHFFFAOYSA-N
Temperature: 300 K
Tabular data in the source: 0
pressure (bar)	uptake (mmol/g)
0.2146	-0.00169092
0.418534	0.00485271
0.907062	0.0244836
4.41283	0.0833762
9.23326	0.181531
44.9196	0.54143
93.9881	0.659215
473.611	0.999484
990.968	1.14999
4993.54	1.52952
10087.4	1.82398
47379.4	2.25586
106357	2.54378
284630	2.98875
