Adsorption isotherm of Methane on Pillared Layered Materials
DOI: 10.1016/j.jcis.2007.04.014
Adsorbate Methane: InChIKey VNWKTOKETHGBQD-UHFFFAOYSA-N
Temperature: 300 K
Tabular data in the source: 0
pressure (bar)	uptake (mmol/g)
0.0990202	0.0113963
0.449022	0.0244836
0.973136	0.0310272
4.73428	0.0768326
9.23326	0.135725
44.9196	0.547974
97.3512	0.68539
457.25	0.973309
956.734	1.16307
4821.03	1.5426
10087.4	1.83052
50830.8	2.26895
102682	2.52415
305364	3.00183
