Adsorption isotherm of N-propane on Pillared Layered Materials
DOI: 10.1016/j.jcis.2007.04.014
Adsorbate N-propane: InChIKey ATUOYWHBWRKTHZ-UHFFFAOYSA-N
Temperature: 300 K
Tabular data in the source: 0
pressure (bar)	uptake (mmol/g)
0.0160143	0.00404392
0.047386	0.00404392
0.0901249	0.00949694
0.487226	0.01495
0.855118	0.020403
4.8124	0.167635
9.91872	0.418473
47.5327	1.22007
90.4039	1.38911
416.173	1.53634
857.765	1.5418
5025.2	1.71084
9557.58	1.78718
47679.8	1.38911
98271.7	1.69448
490247	1.31822
1010440	1.54725
5040760	1.53634
