Adsorption isotherm of Ethane on Pillared Layered Materials
DOI: 10.1016/j.jcis.2007.04.014
Adsorbate Ethane: InChIKey OTMSDBZUPAUEDD-UHFFFAOYSA-N
Temperature: 300 K
Tabular data in the source: 0
pressure (bar)	uptake (mmol/g)
0.140737	0.00566149
0.449022	0.0132957
0.907062	-0.00960696
4.73428	0.158346
9.56364	0.311031
21.4683	0.967574
46.5269	1.70046
100.835	1.96002
473.611	2.38754
860.965	2.50969
4654.49	2.94484
9077.63	3.07462
45742.6	3.07462
95710.4	3.13569
499547	3.13569
