Adsorption isotherm of N-propane on Pillared Layered Materials
DOI: 10.1016/j.jcis.2007.04.014
Adsorbate N-propane: InChIKey ATUOYWHBWRKTHZ-UHFFFAOYSA-N
Temperature: 300 K
Tabular data in the source: 0
pressure (bar)	uptake (mmol/g)
0.404075	0.0113963
0.875726	0.0244836
5.26089	0.148812
9.56364	0.364752
22.2365	1.01911
48.1917	1.69311
104.443	1.87633
490.558	1.93522
990.968	2.00066
4821.03	1.76509
10448.3	1.68656
47379.4	1.71274
102682	1.43791
482290	1.40519
940608	1.42482
