Adsorption isotherm of N-propane on Pillared Layered Materials
DOI: 10.1016/j.jcis.2007.04.014
Adsorbate N-propane: InChIKey ATUOYWHBWRKTHZ-UHFFFAOYSA-N
Temperature: 300 K
Tabular data in the source: 0
pressure (bar)	uptake (mmol/g)
0.78909	0.0102015
4.09791	0.0838173
8.79238	0.154707
43.8625	0.604581
90.4039	0.686376
508.771	0.863599
1007.32	0.899044
4827.29	0.942668
9949.42	0.969933
47679.8	1.01356
102301	0.852693
510346	0.680923
1186610	0.721821
5686500	0.849967
