Adsorption isotherm of Ethane on Pillared Layered Materials
DOI: 10.1016/j.jcis.2007.04.014
Adsorbate Ethane: InChIKey OTMSDBZUPAUEDD-UHFFFAOYSA-N
Temperature: 300 K
Tabular data in the source: 0
pressure (bar)	uptake (mmol/g)
0.0901249	0.00202196
0.414889	0.00202196
0.890175	0.0156545
3.93653	0.0729112
9.52809	0.146527
45.6607	0.424631
94.1102	0.500973
469.487	0.645478
967.647	0.724547
4827.29	0.912676
9557.58	0.918129
53787.8	1.02446
94401.5	1.21259
531269	1.01628
1051860	1.2344
5247410	1.2644
