Adsorption isotherm of Ethane on Pillared Layered Materials
DOI: 10.1016/j.jcis.2007.04.014
Adsorbate Ethane: InChIKey OTMSDBZUPAUEDD-UHFFFAOYSA-N
Temperature: 300 K
Tabular data in the source: 0
pressure (bar)	uptake (mmol/g)
0.0125838	0.00404392
0.0976661	0.00949694
0.449605	0.00949694
0.821441	0.031309
5.00969	0.140369
9.91872	0.254883
49.4814	0.843809
101.985	0.980135
508.771	1.30186
967.647	1.46
5025.2	1.87443
10357.3	1.9126
51669.5	2.40337
98271.7	2.3652
490247	2.1798
1094990	2.22888
5040760	2.03802
