Adsorption isotherm of Nitrogen on Pillared Layered Materials
DOI: 10.1016/j.jcis.2007.04.014
Adsorbate Nitrogen: InChIKey IJGRMHOSHXDMSA-UHFFFAOYSA-N
Temperature: 77 K
Tabular data in the source: 0
pressure (bar)	uptake (mmol/g)
0.00325203	0.0234742
0.0487805	3.68545
0.097561	4.08451
0.149593	4.2723
0.198374	4.29577
0.302439	4.34272
0.396748	4.38967
0.494309	4.43662
0.598374	4.46009
0.699187	4.53052
0.796748	4.55399
0.878049	4.55399
