Adsorption isotherm of N-propane on Pillared Layered Materials
DOI: 10.1016/j.jcis.2007.04.014
Adsorbate N-propane: InChIKey ATUOYWHBWRKTHZ-UHFFFAOYSA-N
Temperature: 300 K
Tabular data in the source: 0
pressure (bar)	uptake (mmol/g)
0.0477093	0.00218413
0.0912146	0.00218413
0.461018	0.0109798
1.03644	0.0426442
2.92336	0.222076
5.07137	0.320587
10.3451	0.43669
50.619	0.554552
99.9649	0.623158
521.884	0.647786
1030.64	0.679451
5043	0.793794
9959.19	0.68121
48730.9	0.714633
102680	0.728706
536058	0.684728
1024880	0.674173
5014800	0.621399
