Adsorption isotherm of Methane on Pillared Layered Materials
DOI: 10.1016/j.jcis.2007.04.014
Adsorbate Methane: InChIKey VNWKTOKETHGBQD-UHFFFAOYSA-N
Temperature: 300 K
Tabular data in the source: 0
pressure (bar)	uptake (mmol/g)
0.140737	0.00485271
0.43351	0.0113963
0.939518	0.0244836
4.73428	0.0768326
9.90585	0.1619
51.7022	0.580692
100.835	0.672302
473.611	0.947135
1026.43	1.11073
4654.49	1.52297
10087.4	1.77817
47379.4	2.20351
106357	2.49143
339331	3.00183
