Adsorption isotherm of Ethane on Pillared Layered Materials
DOI: 10.1016/j.jcis.2007.04.014
Adsorbate Ethane: InChIKey OTMSDBZUPAUEDD-UHFFFAOYSA-N
Temperature: 300 K
Tabular data in the source: 0
pressure (bar)	uptake (mmol/g)
0.449022	0.01794
0.845473	0.0244836
4.73428	0.129182
10.2603	0.273141
24.7099	0.672302
51.7022	1.05183
97.3512	1.2416
441.454	1.61458
956.734	1.59495
4821.03	1.9614
9077.63	2.04646
45742.6	1.96794
99135.1	2.2166
482290	2.07918
974265	1.97448
