Adsorption isotherm of Ethane on Pillared Layered Materials
DOI: 10.1016/j.jcis.2007.04.014
Adsorbate Ethane: InChIKey OTMSDBZUPAUEDD-UHFFFAOYSA-N
Temperature: 300 K
Tabular data in the source: 0
pressure (bar)	uptake (mmol/g)
0.0534563	0.0224433
0.110178	0.0344399
0.449605	0.0284416
0.821441	0.0464366
6.12434	0.286369
10.7487	0.592284
47.5327	0.934188
101.985	1.05415
469.487	1.47404
929.539	1.50403
4637.18	2.06187
8819.6	2.18784
45802.1	2.47576
87112.3	2.40978
510346	2.40978
1051860	2.19384
4842240	2.08587
