Adsorption isotherm of N-Butane on Pillared Layered Materials
DOI: 10.1016/j.jcis.2007.04.014
Adsorbate N-Butane: InChIKey IJDNQMDRQITEOD-UHFFFAOYSA-N
Temperature: 300 K
Tabular data in the source: 0
pressure (bar)	uptake (mmol/g)
0.820778	0.00144575
5.0761	0.121554
10.7983	0.27169
51.4774	0.497777
109.507	0.473049
549.936	0.457152
1000.72	0.53487
5158.06	0.499544
10690.7	0.416527
49655.2	0.485413
114210	0.414761
530469	0.365304
965295	0.344109
5106680	0.344109
