Adsorption isotherm of N-propane on Pillared Layered Materials
DOI: 10.1016/j.jcis.2007.04.014
Adsorbate N-propane: InChIKey ATUOYWHBWRKTHZ-UHFFFAOYSA-N
Temperature: 300 K
Tabular data in the source: 0
pressure (bar)	uptake (mmol/g)
0.0493287	0.0104466
0.0976661	0.0284416
0.527995	0.016445
1.04538	0.0344399
5.21508	0.292368
9.52809	0.916193
51.51	1.45004
97.9685	1.618
551.343	1.65999
929.539	1.81594
5025.2	1.89992
9557.58	1.92991
51669.5	1.85193
94401.5	1.79195
470940	1.612
826534	1.66598
5040760	1.88192
