Adsorption isotherm of N-propane on Pillared Layered Materials
DOI: 10.1016/j.jcis.2007.04.014
Adsorbate N-propane: InChIKey ATUOYWHBWRKTHZ-UHFFFAOYSA-N
Temperature: 300 K
Tabular data in the source: 0
pressure (bar)	uptake (mmol/g)
0.984818	0.00674466
1.53296	0.0244077
5.34735	0.118022
10.7983	0.202804
48.8661	0.441256
109.507	0.526038
508.627	0.591391
1000.72	0.571962
5025.53	0.589625
9386.12	0.589625
55103.9	0.503076
95186	0.483647
516840	0.506609
1158220	0.446554
4368300	0.465984
