Adsorption isotherm of N-Butane on Pillared Layered Materials
DOI: 10.1016/j.jcis.2007.04.014
Adsorbate N-Butane: InChIKey IJDNQMDRQITEOD-UHFFFAOYSA-N
Temperature: 300 K
Tabular data in the source: 0
pressure (bar)	uptake (mmol/g)
0.0653503	0.0104466
0.218141	0.016445
0.964661	0.0524349
4.8124	0.274373
8.79238	1.37207
8.79238	1.58201
26.0164	2.01389
45.6607	2.28381
97.9685	2.21783
469.487	2.10986
823.983	2.04988
5231.22	1.52802
10781.9	1.48004
47679.8	1.28809
94401.5	1.37806
470940	1.31208
970643	1.2641
4292370	1.35407
