Adsorption isotherm of Methane on Pillared Layered Materials
DOI: 10.1016/j.jcis.2007.04.014
Adsorbate Methane: InChIKey VNWKTOKETHGBQD-UHFFFAOYSA-N
Temperature: 300 K
Tabular data in the source: 0
pressure (bar)	uptake (mmol/g)
0.0437271	0.00283075
0.0901249	0.00283075
0.821441	0.010465
4.8124	0.044819
9.91872	0.0944415
49.4814	0.346371
97.9685	0.430348
508.771	0.632655
1007.32	0.724265
5025.2	1.03727
10781.9	1.35027
29440.1	1.78542
