Adsorption isotherm of N-Butane on Pillared Layered Materials
DOI: 10.1016/j.jcis.2007.04.014
Adsorbate N-Butane: InChIKey IJDNQMDRQITEOD-UHFFFAOYSA-N
Temperature: 300 K
Tabular data in the source: 0
pressure (bar)	uptake (mmol/g)
0.473266	0.00374478
0.938097	0.0299633
4.69253	0.313997
9.30144	1.40643
44.6921	1.62929
96.0134	1.55501
520.534	1.48946
951.994	1.47635
5161.22	1.13551
10230.5	0.943241
49155.9	0.882064
105603	1.05248
487392	0.864585
1005770	0.890804
5452770	0.886434
