Adsorption isotherm of N-Butane on Pillared Layered Materials
DOI: 10.1016/j.jcis.2007.04.014
Adsorbate N-Butane: InChIKey IJDNQMDRQITEOD-UHFFFAOYSA-N
Temperature: 300 K
Tabular data in the source: 0
pressure (bar)	uptake (mmol/g)
0.767101	0.0147473
4.50742	0.205924
8.58208	0.660924
42.9291	1.3071
96.0134	1.35298
461.331	1.3071
843.718	1.21151
4762.05	1.02416
8709.21	0.959159
49155.9	0.798571
93592.1	0.928571
487392	0.771806
966097	0.962983
4641960	0.802394
