Adsorption isotherm of Methane on Pillared Layered Materials
DOI: 10.1016/j.jcis.2007.04.014
Adsorbate Methane: InChIKey VNWKTOKETHGBQD-UHFFFAOYSA-N
Temperature: 300 K
Tabular data in the source: 0
pressure (bar)	uptake (mmol/g)
4.8186	0.0297066
10.2506	0.066799
48.8661	0.133919
96.1438	0.165712
495.559	0.213402
1000.72	0.222234
5025.53	0.301717
47136.3	0.670875
100273	0.82631
192217	0.995875
