Adsorption isotherm of Ethane on Pillared Layered Materials
DOI: 10.1016/j.jcis.2007.04.014
Adsorbate Ethane: InChIKey OTMSDBZUPAUEDD-UHFFFAOYSA-N
Temperature: 300 K
Tabular data in the source: 0
pressure (bar)	uptake (mmol/g)
0.0129538	0.00864495
0.0518656	0.0108863
0.093991	0.0108863
0.490148	0.0153691
0.980774	0.0153691
2.7306	0.154335
5.11458	0.241748
9.57992	0.291059
25.8052	0.347093
53.3695	0.400886
106.791	0.430024
487.974	0.575714
1043.1	0.636231
4926.45	0.898473
9857.7	1.11364
46556.8	1.1383
99520.8	1.06433
485809	1.17192
909949	0.8783
4904600	1.02399
