Adsorption isotherm of Ethane on Pillared Layered Materials
DOI: 10.1016/j.jcis.2007.04.014
Adsorbate Ethane: InChIKey OTMSDBZUPAUEDD-UHFFFAOYSA-N
Temperature: 300 K
Tabular data in the source: 0
pressure (bar)	uptake (mmol/g)
0.135875	0.00485271
0.404075	0.00485271
0.907062	0.01794
4.26039	0.116094
9.56364	0.266598
46.5269	1.01257
93.9881	1.22851
457.25	1.52952
956.734	1.6473
4821.03	1.92868
10448.3	2.02029
54533.5	2.09881
99135.1	2.17079
555113	1.9025
974265	2.04646
