Adsorption isotherm of N-propane on Pillared Layered Materials
DOI: 10.1016/j.jcis.2007.04.014
Adsorbate N-propane: InChIKey ATUOYWHBWRKTHZ-UHFFFAOYSA-N
Temperature: 300 K
Tabular data in the source: 0
pressure (bar)	uptake (mmol/g)
0.0423024	0.016854
0.083851	0.016854
0.976623	0.0255935
4.69253	0.222232
8.93452	0.838367
48.4383	1.03501
92.2259	1.1661
500.001	1.20106
951.994	1.20543
5161.22	1.35837
10230.5	1.22727
49155.9	1.3103
105603	1.31904
487392	1.17921
1005770	1.2098
5452770	1.08744
