Adsorption isotherm of Nitrogen on Desolvated C76H56Cl4Hg4N20O8S4
DOI: 10.1016/j.poly.2006.09.008
Adsorbate Nitrogen: InChIKey IJGRMHOSHXDMSA-UHFFFAOYSA-N
Temperature: 77 K
Tabular data in the source: 0
pressure (bar)	uptake (cm3(STP)/g)
0.00293873	0.0944525
0.00319671	0.366103
0.00328644	0.46059
0.00591111	0.224338
0.00620274	0.531421
0.00914147	0.625873
0.00923121	0.72036
0.0150077	0.802967
0.032169	0.873625
0.0435987	0.908919
0.0693182	0.991283
0.0864458	1.02651
0.106422	1.0617
0.12641	1.1087
0.157783	1.14375
0.200563	1.19048
0.246225	1.2726
0.320378	1.35437
0.411647	1.45956
0.462996	1.5298
0.537171	1.6352
0.611357	1.75241
0.685498	1.82237
0.739798	1.99888
0.799739	2.11626
0.842698	2.35196
0.877189	2.67044
