Adsorption isotherm of Nitrogen on Carbon Black (Regenerated)
DOI: 10.1007/s10973-013-3293-y
Article source: Figure 3
Adsorbate Nitrogen: InChIKey IJGRMHOSHXDMSA-UHFFFAOYSA-N
Kind: experiment
Temperature: 77 K
Tabular data in the source: 0
pressure (bar)	uptake (cm3(STP)/g)
0.023026	144.703
0.044622	153.795
0.06406	161.75
0.085674	167.424
0.102966	171.962
0.126751	176.494
0.154865	181.02
0.204599	190.08
0.301959	197.946
0.401496	203.531
0.50321	206.834
0.602759	210.139
0.702302	214.584
0.801851	217.89
0.853787	220.11
0.9014	221.195
0.951166	224.557
0.994419	231.345
