Adsorption isotherm of Nitrogen on Carbon Black
DOI: 10.1007/s10973-013-3293-y
Article source: Figure 3
Adsorbate Nitrogen: InChIKey IJGRMHOSHXDMSA-UHFFFAOYSA-N
Kind: experiment
Temperature: 77 K
Tabular data in the source: 0
pressure (bar)	uptake (cm3(STP)/g)
0.005976	95.7197
0.010046	143.578
0.022656	213.08
0.042038	231.291
0.061451	243.805
0.080883	252.899
0.098156	260.857
0.124087	268.804
0.152182	276.75
0.19974	288.091
0.299215	305.072
0.398721	316.355
0.50041	324.216
0.599935	332.08
0.699472	337.664
0.799008	343.249
0.848774	346.611
0.896368	351.115
0.948298	354.475
0.991515	368.101
