Adsorption isotherm of Nitrogen on Carbon Black (Spent)
DOI: 10.1007/s10973-013-3293-y
Article source: Figure 3
Adsorbate Nitrogen: InChIKey IJGRMHOSHXDMSA-UHFFFAOYSA-N
Kind: experiment
Temperature: 77 K
Tabular data in the source: 0
pressure (bar)	uptake (cm3(STP)/g)
0.004317	2.27428
0.00864	3.40896
0.015127	4.54117
0.019444	6.81545
0.041052	13.6284
0.060526	14.7458
0.082171	14.7212
0.10164	16.9782
0.125443	18.0907
0.151411	19.2007
0.203353	20.2811
0.300744	22.4493
0.40247	23.473
0.502026	25.6387
0.601587	26.6649
0.701149	27.691
0.802875	28.7147
0.852646	30.9372
0.90026	32.0225
0.950037	33.1054
0.991108	43.315
