Adsorption isotherm of Carbon Dioxide, Ethene on ZSM-5 zeolite (Si/Al=60)
DOI: 10.1021/je9702100
Article source: Table 6
Adsorbate Carbon Dioxide: InChIKey CURLTUGMZLYLDI-UHFFFAOYSA-N
Adsorbate Ethene: InChIKey VGGSQFUCUMXWEO-UHFFFAOYSA-N
Kind: experiment
Temperature: 293 K
Tabular data in the source: 0
pressure (bar)	Carbon Dioxide fraction	Carbon Dioxide uptake (mmol/g)	Ethene fraction	Ethene uptake (mmol/g)	total uptake (mmol/g)
0.0295	0.701695	0.182	0.298305	0.208	
0.0781	0.650448	0.268	0.349552	0.319	
0.1449	0.638371	0.33	0.361629	0.416	
0.3014	0.605508	0.438	0.394492	0.575	
0.4467	0.585852	0.495	0.414148	0.66	
0.6183	0.572538	0.529	0.427462	0.722	
0.8556	0.573633	0.535	0.426367	0.806	
