Adsorption isotherm of Ethene on ZSM-5 zeolite (Si/Al=60)
DOI: 10.1021/je9702100
Article source: Table 4
Adsorbate Ethene: InChIKey VGGSQFUCUMXWEO-UHFFFAOYSA-N
Kind: experiment
Temperature: 293 K
Tabular data in the source: 0
pressure (bar)	uptake (mmol/g)
0.0023	0.228
0.0195	0.421
0.0453	0.597
0.0832	0.743
0.0986	0.795
0.1486	0.908
0.1915	0.982
0.2299	1.036
0.3916	1.146
0.5105	1.213
0.587	1.258
0.7745	1.334
0.8272	1.352
