Adsorption isotherm of N-propane, Ethene on ZSM-5 zeolite (Si/Al=60)
DOI: 10.1021/je9702100
Article source: Table 6
Adsorbate N-propane: InChIKey ATUOYWHBWRKTHZ-UHFFFAOYSA-N
Adsorbate Ethene: InChIKey VGGSQFUCUMXWEO-UHFFFAOYSA-N
Kind: experiment
Temperature: 293 K
Tabular data in the source: 0
pressure (bar)	N-propane fraction	N-propane uptake (mmol/g)	Ethene fraction	Ethene uptake (mmol/g)	total uptake (mmol/g)
0.0045	0.666667	0.445	0.333333	0.11	
0.0211	0.554502	0.728	0.445498	0.168	
0.0836	0.624402	0.94	0.375598	0.196	
0.2169	0.680037	1.034	0.319963	0.19	
0.452	0.725	1.097	0.275	0.184	
0.6173	0.740159	1.123	0.259841	0.183	
0.7817	0.749648	1.149	0.250352	0.184	
