Adsorption isotherm of N-propane, Carbon Dioxide on ZSM-5 zeolite (Si/Al=15)
DOI: 10.1021/je9702100
Article source: Table 5
Adsorbate N-propane: InChIKey ATUOYWHBWRKTHZ-UHFFFAOYSA-N
Adsorbate Carbon Dioxide: InChIKey CURLTUGMZLYLDI-UHFFFAOYSA-N
Kind: experiment
Temperature: 293 K
Tabular data in the source: 0
pressure (bar)	N-propane fraction	N-propane uptake (mmol/g)	Carbon Dioxide fraction	Carbon Dioxide uptake (mmol/g)	total uptake (mmol/g)
0.0159	0.45283	0.747	0.54717	0.365	
0.075	0.529333	0.961	0.470667	0.452	
0.2374	0.601938	1.111	0.398062	0.511	
0.429	0.63986	1.128	0.36014	0.532	
0.6229	0.655803	1.148	0.344197	0.555	
0.9288	0.673342	1.143	0.326658	0.586	
