Adsorption isotherm of N-propane, Carbon Dioxide on ZSM-5 zeolite (Si/Al=29)
DOI: 10.1021/je9702100
Article source: Table 6
Adsorbate N-propane: InChIKey ATUOYWHBWRKTHZ-UHFFFAOYSA-N
Adsorbate Carbon Dioxide: InChIKey CURLTUGMZLYLDI-UHFFFAOYSA-N
Kind: experiment
Temperature: 293 K
Tabular data in the source: 0
pressure (bar)	N-propane fraction	N-propane uptake (mmol/g)	Carbon Dioxide fraction	Carbon Dioxide uptake (mmol/g)	total uptake (mmol/g)
0.0418	0.043062	0.38	0.956938	0.662	
0.1354	0.067947	0.552	0.932053	0.819	
0.2793	0.084855	0.704	0.915145	0.857	
0.4601	0.116062	0.817	0.883938	0.841	
0.6579	0.151999	0.883	0.848001	0.82	
0.8568	0.180089	0.932	0.819911	0.822	
