Adsorption isotherm of N-propane, Ethene on ZSM-5 zeolite (Si/Al=60)
DOI: 10.1021/je9702100
Article source: Table 6
Adsorbate N-propane: InChIKey ATUOYWHBWRKTHZ-UHFFFAOYSA-N
Adsorbate Ethene: InChIKey VGGSQFUCUMXWEO-UHFFFAOYSA-N
Kind: experiment
Temperature: 293 K
Tabular data in the source: 0
pressure (bar)	N-propane fraction	N-propane uptake (mmol/g)	Ethene fraction	Ethene uptake (mmol/g)	total uptake (mmol/g)
0.0057	0.842105	0.595	0.157895	0.074	
0.0486	0.796296	0.98	0.203704	0.112	
0.1811	0.837107	1.113	0.162893	0.117	
0.3557	0.8614	1.16	0.1386	0.121	
0.5025	0.866866	1.184	0.133134	0.121	
0.8001	0.873016	1.226	0.126984	0.123	
