Adsorption isotherm of N-propane, Carbon Dioxide on ZSM-5 zeolite (Si/Al=15)
DOI: 10.1021/je9702100
Article source: Table 5
Adsorbate N-propane: InChIKey ATUOYWHBWRKTHZ-UHFFFAOYSA-N
Adsorbate Carbon Dioxide: InChIKey CURLTUGMZLYLDI-UHFFFAOYSA-N
Kind: experiment
Temperature: 293 K
Tabular data in the source: 0
pressure (bar)	N-propane fraction	N-propane uptake (mmol/g)	Carbon Dioxide fraction	Carbon Dioxide uptake (mmol/g)	total uptake (mmol/g)
0.0145	0.034483	0.114	0.965517	0.898	
0.0761	0.031537	0.174	0.968463	1.287	
0.2081	0.037482	0.209	0.962518	1.416	
0.3826	0.044694	0.241	0.955306	1.51	
0.6794	0.05917	0.284	0.94083	1.659	
0.889	0.061417	0.31	0.938583	1.71	
