Adsorption isotherm of Carbon Dioxide, Ethene on ZSM-5 zeolite (Si/Al=15)
DOI: 10.1021/je9702100
Article source: Table 5
Adsorbate Carbon Dioxide: InChIKey CURLTUGMZLYLDI-UHFFFAOYSA-N
Adsorbate Ethene: InChIKey VGGSQFUCUMXWEO-UHFFFAOYSA-N
Kind: experiment
Temperature: 293 K
Tabular data in the source: 0
pressure (bar)	Carbon Dioxide fraction	Carbon Dioxide uptake (mmol/g)	Ethene fraction	Ethene uptake (mmol/g)	total uptake (mmol/g)
0.0373	0.520107	0.377	0.479893	0.792	
0.0975	0.473846	0.43	0.526154	0.936	
0.1883	0.443972	0.472	0.556028	1.061	
0.3393	0.417919	0.534	0.582081	1.241	
0.6032	0.39622	0.563	0.60378	1.352	
0.877	0.38016	0.594	0.61984	1.431	
