Adsorption isotherm of N-propane, Ethene on ZSM-5 zeolite (Si/Al=29)
DOI: 10.1021/je9702100
Article source: Table 6
Adsorbate N-propane: InChIKey ATUOYWHBWRKTHZ-UHFFFAOYSA-N
Adsorbate Ethene: InChIKey VGGSQFUCUMXWEO-UHFFFAOYSA-N
Kind: experiment
Temperature: 293 K
Tabular data in the source: 0
pressure (bar)	N-propane fraction	N-propane uptake (mmol/g)	Ethene fraction	Ethene uptake (mmol/g)	total uptake (mmol/g)
0.004	0.475	0.584	0.525	0.289	
0.0486	0.450617	0.923	0.549383	0.419	
0.1607	0.525202	1.051	0.474798	0.434	
0.3481	0.577708	1.132	0.422292	0.441	
0.5341	0.603632	1.17	0.396368	0.464	
0.8351	0.626392	1.249	0.373608	0.489	
