Adsorption isotherm of N-propane on ZSM-5 zeolite (Si/Al=60)
DOI: 10.1021/je9702100
Article source: Table 4
Adsorbate N-propane: InChIKey ATUOYWHBWRKTHZ-UHFFFAOYSA-N
Kind: experiment
Temperature: 293 K
Tabular data in the source: 0
pressure (bar)	uptake (mmol/g)
0.001	0.387
0.0037	0.614
0.0076	0.753
0.0135	0.904
0.0283	1.012
0.0625	1.106
0.0773	1.135
0.1577	1.208
0.4018	1.294
0.6944	1.349
0.8603	1.369
