Adsorption isotherm of N-propane, Carbon Dioxide on ZSM-5 zeolite (Si/Al=15)
DOI: 10.1021/je9702100
Article source: Table 5
Adsorbate N-propane: InChIKey ATUOYWHBWRKTHZ-UHFFFAOYSA-N
Adsorbate Carbon Dioxide: InChIKey CURLTUGMZLYLDI-UHFFFAOYSA-N
Kind: experiment
Temperature: 293 K
Tabular data in the source: 0
pressure (bar)	N-propane fraction	N-propane uptake (mmol/g)	Carbon Dioxide fraction	Carbon Dioxide uptake (mmol/g)	total uptake (mmol/g)
0.0104	0.076923	0.205	0.923077	0.801	
0.0416	0.098558	0.254	0.901442	0.988	
0.1123	0.073909	0.321	0.926091	1.157	
0.364	0.112363	0.411	0.887637	1.35	
0.6839	0.1354	0.56	0.8646	1.424	
0.9235	0.137737	0.588	0.862263	1.442	
