Adsorption isotherm of Carbon Dioxide, Ethene on ZSM-5 zeolite (Si/Al=60)
DOI: 10.1021/je9702100
Article source: Table 6
Adsorbate Carbon Dioxide: InChIKey CURLTUGMZLYLDI-UHFFFAOYSA-N
Adsorbate Ethene: InChIKey VGGSQFUCUMXWEO-UHFFFAOYSA-N
Kind: experiment
Temperature: 293 K
Tabular data in the source: 0
pressure (bar)	Carbon Dioxide fraction	Carbon Dioxide uptake (mmol/g)	Ethene fraction	Ethene uptake (mmol/g)	total uptake (mmol/g)
0.0385	0.335065	0.087	0.664935	0.402	
0.1003	0.306082	0.124	0.693918	0.611	
0.1892	0.280127	0.152	0.719873	0.772	
0.3614	0.2601	0.178	0.7399	0.945	
0.4921	0.250965	0.19	0.749035	1.029	
0.6343	0.243891	0.198	0.756109	1.092	
0.8205	0.236563	0.207	0.763437	1.152	
