Adsorption isotherm of N-propane, Carbon Dioxide on ZSM-5 zeolite (Si/Al=60)
DOI: 10.1021/je9702100
Article source: Table 6
Adsorbate N-propane: InChIKey ATUOYWHBWRKTHZ-UHFFFAOYSA-N
Adsorbate Carbon Dioxide: InChIKey CURLTUGMZLYLDI-UHFFFAOYSA-N
Kind: experiment
Temperature: 293 K
Tabular data in the source: 0
pressure (bar)	N-propane fraction	N-propane uptake (mmol/g)	Carbon Dioxide fraction	Carbon Dioxide uptake (mmol/g)	total uptake (mmol/g)
0.0116	0.543103	0.603	0.456897	0.066	
0.0629	0.63752	0.99	0.36248	0.085	
0.1942	0.763646	1.138	0.236354	0.083	
0.401	0.824688	1.205	0.175312	0.082	
0.5877	0.839034	1.232	0.160966	0.083	
0.8076	0.852031	1.269	0.147969	0.086	
