Adsorption isotherm of N-propane, Carbon Dioxide on ZSM-5 zeolite (Si/Al=60)
DOI: 10.1021/je9702100
Article source: Table 6
Adsorbate N-propane: InChIKey ATUOYWHBWRKTHZ-UHFFFAOYSA-N
Adsorbate Carbon Dioxide: InChIKey CURLTUGMZLYLDI-UHFFFAOYSA-N
Kind: experiment
Temperature: 293 K
Tabular data in the source: 0
pressure (bar)	N-propane fraction	N-propane uptake (mmol/g)	Carbon Dioxide fraction	Carbon Dioxide uptake (mmol/g)	total uptake (mmol/g)
0.0185	0.189189	0.436	0.810811	0.19	
0.07	0.212857	0.71	0.787143	0.255	
0.1874	0.319637	0.91	0.680363	0.251	
0.3552	0.425394	1.014	0.574606	0.239	
0.5432	0.493189	1.065	0.506811	0.238	
0.8323	0.546438	1.118	0.453562	0.246	
