Adsorption isotherm of Carbon Dioxide, Ethene on ZSM-5 zeolite (Si/Al=29)
DOI: 10.1021/je9702100
Article source: Table 6
Adsorbate Carbon Dioxide: InChIKey CURLTUGMZLYLDI-UHFFFAOYSA-N
Adsorbate Ethene: InChIKey VGGSQFUCUMXWEO-UHFFFAOYSA-N
Kind: experiment
Temperature: 293 K
Tabular data in the source: 0
pressure (bar)	Carbon Dioxide fraction	Carbon Dioxide uptake (mmol/g)	Ethene fraction	Ethene uptake (mmol/g)	total uptake (mmol/g)
0.0429	0.519814	0.281	0.480186	0.592	
0.0926	0.474082	0.338	0.525918	0.735	
0.2	0.444	0.407	0.556	0.915	
0.3604	0.420089	0.458	0.579911	1.062	
0.5332	0.400975	0.479	0.599025	1.161	
0.8626	0.386506	0.498	0.613494	1.327	
