Adsorption isotherm of N-propane on ZSM-5 zeolite (Si/Al=15)
DOI: 10.1021/je9702100
Article source: Table 2
Adsorbate N-propane: InChIKey ATUOYWHBWRKTHZ-UHFFFAOYSA-N
Kind: experiment
Temperature: 293 K
Tabular data in the source: 0
pressure (bar)	uptake (mmol/g)
0.0027	0.964
0.0348	1.298
0.0806	1.49
0.1896	1.556
0.3377	1.587
0.547	1.611
0.7151	1.626
0.8806	1.651
