Adsorption isotherm of Carbon Dioxide on ZSM-5 zeolite (Si/Al=29)
DOI: 10.1021/je9702100
Article source: Table 3
Adsorbate Carbon Dioxide: InChIKey CURLTUGMZLYLDI-UHFFFAOYSA-N
Kind: experiment
Temperature: 293 K
Tabular data in the source: 0
pressure (bar)	uptake (mmol/g)
0.012	0.624
0.0829	1.007
0.181	1.23
0.3218	1.439
0.5228	1.589
0.7291	1.73
0.9494	1.832
