Adsorption isotherm of Carbon Dioxide, Ethene on ZSM-5 zeolite (Si/Al=29)
DOI: 10.1021/je9702100
Article source: Table 6
Adsorbate Carbon Dioxide: InChIKey CURLTUGMZLYLDI-UHFFFAOYSA-N
Adsorbate Ethene: InChIKey VGGSQFUCUMXWEO-UHFFFAOYSA-N
Kind: experiment
Temperature: 293 K
Tabular data in the source: 0
pressure (bar)	Carbon Dioxide fraction	Carbon Dioxide uptake (mmol/g)	Ethene fraction	Ethene uptake (mmol/g)	total uptake (mmol/g)
0.0406	0.889163	0.544	0.110837	0.293	
0.1029	0.794947	0.675	0.205053	0.395	
0.2004	0.780439	0.808	0.219561	0.483	
0.3606	0.750139	0.923	0.249861	0.563	
0.6344	0.732503	1.026	0.267497	0.671	
0.9335	0.724264	1.096	0.275736	0.735	
