Adsorption isotherm of N-propane, Ethene on ZSM-5 zeolite (Si/Al=15)
DOI: 10.1021/je9702100
Article source: Table 5
Adsorbate N-propane: InChIKey ATUOYWHBWRKTHZ-UHFFFAOYSA-N
Adsorbate Ethene: InChIKey VGGSQFUCUMXWEO-UHFFFAOYSA-N
Kind: experiment
Temperature: 293 K
Tabular data in the source: 0
pressure (bar)	N-propane fraction	N-propane uptake (mmol/g)	Ethene fraction	Ethene uptake (mmol/g)	total uptake (mmol/g)
0.0106	0.103774	0.206	0.896226	0.814	
0.0838	0.076372	0.3	0.923628	1.104	
0.1986	0.101208	0.344	0.898792	1.223	
0.3413	0.101963	0.386	0.898037	1.284	
0.5892	0.138153	0.402	0.861847	1.391	
0.8406	0.148703	0.424	0.851297	1.433	
