Adsorption isotherm of Carbon Dioxide, Ethene on ZSM-5 zeolite (Si/Al=60)
DOI: 10.1021/je9702100
Article source: Table 6
Adsorbate Carbon Dioxide: InChIKey CURLTUGMZLYLDI-UHFFFAOYSA-N
Adsorbate Ethene: InChIKey VGGSQFUCUMXWEO-UHFFFAOYSA-N
Kind: experiment
Temperature: 293 K
Tabular data in the source: 0
pressure (bar)	Carbon Dioxide fraction	Carbon Dioxide uptake (mmol/g)	Ethene fraction	Ethene uptake (mmol/g)	total uptake (mmol/g)
0.0603	0.489221	0.165	0.510779	0.391	
0.1504	0.450798	0.234	0.549202	0.583	
0.2755	0.430127	0.277	0.569873	0.728	
0.4203	0.413038	0.311	0.586962	0.838	
0.5836	0.399075	0.334	0.600925	0.917	
0.8306	0.385143	0.363	0.614857	1.001	
