Adsorption isotherm of N-propane, Ethene on ZSM-5 zeolite (Si/Al=15)
DOI: 10.1021/je9702100
Article source: Table 5
Adsorbate N-propane: InChIKey ATUOYWHBWRKTHZ-UHFFFAOYSA-N
Adsorbate Ethene: InChIKey VGGSQFUCUMXWEO-UHFFFAOYSA-N
Kind: experiment
Temperature: 293 K
Tabular data in the source: 0
pressure (bar)	N-propane fraction	N-propane uptake (mmol/g)	Ethene fraction	Ethene uptake (mmol/g)	total uptake (mmol/g)
0.023	0.204348	0.409	0.795652	0.801	
0.0772	0.199482	0.493	0.800518	0.928	
0.1952	0.238217	0.539	0.761783	1.004	
0.3797	0.267053	0.582	0.732947	1.083	
0.578	0.291176	0.592	0.708824	1.145	
0.8797	0.303967	0.615	0.696033	1.188	
