Adsorption isotherm of N-propane, Carbon Dioxide on ZSM-5 zeolite (Si/Al=60)
DOI: 10.1021/je9702100
Article source: Table 6
Adsorbate N-propane: InChIKey ATUOYWHBWRKTHZ-UHFFFAOYSA-N
Adsorbate Carbon Dioxide: InChIKey CURLTUGMZLYLDI-UHFFFAOYSA-N
Kind: experiment
Temperature: 293 K
Tabular data in the source: 0
pressure (bar)	N-propane fraction	N-propane uptake (mmol/g)	Carbon Dioxide fraction	Carbon Dioxide uptake (mmol/g)	total uptake (mmol/g)
0.0539	0.087199	0.432	0.912801	0.34	
0.1063	0.097836	0.568	0.902164	0.39	
0.2262	0.141026	0.744	0.858974	0.406	
0.3885	0.208237	0.862	0.791763	0.39	
0.5746	0.266968	0.93	0.733032	0.373	
0.7976	0.316199	0.978	0.683801	0.37	
