Adsorption isotherm of Carbon Dioxide on ZSM-5 zeolite (Si/Al=60)
DOI: 10.1021/je9702100
Article source: Table 4
Adsorbate Carbon Dioxide: InChIKey CURLTUGMZLYLDI-UHFFFAOYSA-N
Kind: experiment
Temperature: 293 K
Tabular data in the source: 0
pressure (bar)	uptake (mmol/g)
0.0018	0.15
0.0067	0.225
0.0196	0.34
0.0429	0.443
0.0869	0.58
0.1607	0.731
0.2204	0.835
0.261	0.898
0.3299	0.984
0.3767	1.03
0.5033	1.139
0.5795	1.2
0.6316	1.241
0.7897	1.63
0.8144	1.377
