Adsorption isotherm of N-propane, Carbon Dioxide on ZSM-5 zeolite (Si/Al=29)
DOI: 10.1021/je9702100
Article source: Table 6
Adsorbate N-propane: InChIKey ATUOYWHBWRKTHZ-UHFFFAOYSA-N
Adsorbate Carbon Dioxide: InChIKey CURLTUGMZLYLDI-UHFFFAOYSA-N
Kind: experiment
Temperature: 293 K
Tabular data in the source: 0
pressure (bar)	N-propane fraction	N-propane uptake (mmol/g)	Carbon Dioxide fraction	Carbon Dioxide uptake (mmol/g)	total uptake (mmol/g)
0.0022	0.318182	0.483	0.681818	0.48	
0.0815	0.136196	0.746	0.863804	0.587	
0.2272	0.213908	0.936	0.786092	0.59	
0.4028	0.265392	1.069	0.734608	0.569	
0.61	0.32459	1.118	0.67541	0.551	
0.9382	0.374973	1.192	0.625027	0.572	
