Adsorption isotherm of N-propane, Carbon Dioxide on ZSM-5 zeolite (Si/Al=15)
DOI: 10.1021/je9702100
Article source: Table 5
Adsorbate N-propane: InChIKey ATUOYWHBWRKTHZ-UHFFFAOYSA-N
Adsorbate Carbon Dioxide: InChIKey CURLTUGMZLYLDI-UHFFFAOYSA-N
Kind: experiment
Temperature: 293 K
Tabular data in the source: 0
pressure (bar)	N-propane fraction	N-propane uptake (mmol/g)	Carbon Dioxide fraction	Carbon Dioxide uptake (mmol/g)	total uptake (mmol/g)
0.021	0.809524	1.078	0.190476	0.131	
0.1109	0.865645	1.348	0.134355	0.163	
0.2476	0.886511	1.405	0.113489	0.175	
0.4684	0.896883	1.443	0.103117	0.189	
0.6948	0.900259	1.459	0.099741	0.201	
0.9183	0.902102	1.469	0.097898	0.221	
