Adsorption isotherm of N-propane, Ethene on ZSM-5 zeolite (Si/Al=60)
DOI: 10.1021/je9702100
Article source: Table 6
Adsorbate N-propane: InChIKey ATUOYWHBWRKTHZ-UHFFFAOYSA-N
Adsorbate Ethene: InChIKey VGGSQFUCUMXWEO-UHFFFAOYSA-N
Kind: experiment
Temperature: 293 K
Tabular data in the source: 0
pressure (bar)	N-propane fraction	N-propane uptake (mmol/g)	Ethene fraction	Ethene uptake (mmol/g)	total uptake (mmol/g)
0.0115	0.321739	0.433	0.678261	0.204	
0.038	0.294737	0.64	0.705263	0.276	
0.1003	0.351944	0.809	0.648056	0.306	
0.2632	0.450988	0.929	0.549012	0.288	
0.5463	0.530661	1.014	0.469339	0.276	
0.8423	0.568681	1.061	0.431319	0.274	
