Adsorption isotherm of Ethene on ZSM-5 zeolite (Si/Al=15)
DOI: 10.1021/je9702100
Article source: Table 2
Adsorbate Ethene: InChIKey VGGSQFUCUMXWEO-UHFFFAOYSA-N
Kind: experiment
Temperature: 293 K
Tabular data in the source: 0
pressure (bar)	uptake (mmol/g)
0.0018	0.738
0.0346	1.149
0.0856	1.323
0.1406	1.423
0.4106	1.73
0.5363	1.808
0.6987	1.883
0.923	1.99
