Adsorption isotherm of N-propane, Carbon Dioxide on ZSM-5 zeolite (Si/Al=15)
DOI: 10.1021/je9702100
Article source: Table 5
Adsorbate N-propane: InChIKey ATUOYWHBWRKTHZ-UHFFFAOYSA-N
Adsorbate Carbon Dioxide: InChIKey CURLTUGMZLYLDI-UHFFFAOYSA-N
Kind: experiment
Temperature: 293 K
Tabular data in the source: 0
pressure (bar)	N-propane fraction	N-propane uptake (mmol/g)	Carbon Dioxide fraction	Carbon Dioxide uptake (mmol/g)	total uptake (mmol/g)
0.006	0.616667	0.826	0.383333	0.204	
0.047	0.706383	1.049	0.293617	0.252	
0.1738	0.767549	1.231	0.232451	0.294	
0.4115	0.796112	1.342	0.203888	0.332	
0.6458	0.809229	1.372	0.190771	0.359	
0.9304	0.813521	1.385	0.186479	0.377	
