Adsorption isotherm of Carbon Dioxide, Ethene on ZSM-5 zeolite (Si/Al=15)
DOI: 10.1021/je9702100
Article source: Table 5
Adsorbate Carbon Dioxide: InChIKey CURLTUGMZLYLDI-UHFFFAOYSA-N
Adsorbate Ethene: InChIKey VGGSQFUCUMXWEO-UHFFFAOYSA-N
Kind: experiment
Temperature: 293 K
Tabular data in the source: 0
pressure (bar)	Carbon Dioxide fraction	Carbon Dioxide uptake (mmol/g)	Ethene fraction	Ethene uptake (mmol/g)	total uptake (mmol/g)
0.0195	0.717949	0.522	0.282051	0.538	
0.0883	0.660249	0.645	0.339751	0.698	
0.1614	0.633829	0.7	0.366171	0.781	
0.3058	0.602354	0.802	0.397646	0.926	
0.5349	0.575435	0.863	0.424565	1.025	
0.997	0.4999	0.917	0.5001	1.132	
