Adsorption isotherm of Ethene on ZSM-5 zeolite (Si/Al=29)
DOI: 10.1021/je9702100
Article source: Table 3
Adsorbate Ethene: InChIKey VGGSQFUCUMXWEO-UHFFFAOYSA-N
Kind: experiment
Temperature: 293 K
Tabular data in the source: 0
pressure (bar)	uptake (mmol/g)
0.0207	0.727
0.0517	0.936
0.1123	1.165
0.2131	1.382
0.4281	1.587
0.6277	1.733
0.8431	1.838
