Adsorption isotherm of N-propane, Carbon Dioxide on ZSM-5 zeolite (Si/Al=60)
DOI: 10.1021/je9702100
Article source: Table 6
Adsorbate N-propane: InChIKey ATUOYWHBWRKTHZ-UHFFFAOYSA-N
Adsorbate Carbon Dioxide: InChIKey CURLTUGMZLYLDI-UHFFFAOYSA-N
Kind: experiment
Temperature: 293 K
Tabular data in the source: 0
pressure (bar)	N-propane fraction	N-propane uptake (mmol/g)	Carbon Dioxide fraction	Carbon Dioxide uptake (mmol/g)	total uptake (mmol/g)
0.041	0.043902	0.218	0.956098	0.363	
0.0912	0.041667	0.324	0.958333	0.483	
0.1707	0.04628	0.426	0.95372	0.548	
0.2985	0.059631	0.551	0.940369	0.596	
0.4649	0.083889	0.655	0.916111	0.591	
0.6449	0.111955	0.73	0.888045	0.577	
0.8294	0.138534	0.788	0.861466	0.578	
