Adsorption isotherm of Carbon Dioxide on ZSM-5 zeolite (Si/Al=15)
DOI: 10.1021/je9702100
Article source: Table 2
Adsorbate Carbon Dioxide: InChIKey CURLTUGMZLYLDI-UHFFFAOYSA-N
Kind: experiment
Temperature: 293 K
Tabular data in the source: 0
pressure (bar)	uptake (mmol/g)
0.0137	1.005
0.0668	1.319
0.1315	1.474
0.2632	1.732
0.3912	1.859
0.6657	2.019
0.9102	2.114
