Adsorption isotherm of N-propane, Ethene on ZSM-5 zeolite (Si/Al=60)
DOI: 10.1021/je9702100
Article source: Table 6
Adsorbate N-propane: InChIKey ATUOYWHBWRKTHZ-UHFFFAOYSA-N
Adsorbate Ethene: InChIKey VGGSQFUCUMXWEO-UHFFFAOYSA-N
Kind: experiment
Temperature: 293 K
Tabular data in the source: 0
pressure (bar)	N-propane fraction	N-propane uptake (mmol/g)	Ethene fraction	Ethene uptake (mmol/g)	total uptake (mmol/g)
0.0387	0.031008	0.144	0.968992	0.509	
0.0993	0.02719	0.214	0.97281	0.678	
0.1932	0.030021	0.28	0.969979	0.781	
0.3911	0.041422	0.368	0.958578	0.831	
0.6167	0.055294	0.441	0.944706	0.839	
0.8102	0.066403	0.49	0.933597	0.842	
