Adsorption isotherm of N-propane, Carbon Dioxide on ZSM-5 zeolite (Si/Al=29)
DOI: 10.1021/je9702100
Article source: Table 6
Adsorbate N-propane: InChIKey ATUOYWHBWRKTHZ-UHFFFAOYSA-N
Adsorbate Carbon Dioxide: InChIKey CURLTUGMZLYLDI-UHFFFAOYSA-N
Kind: experiment
Temperature: 293 K
Tabular data in the source: 0
pressure (bar)	N-propane fraction	N-propane uptake (mmol/g)	Carbon Dioxide fraction	Carbon Dioxide uptake (mmol/g)	total uptake (mmol/g)
0.0212	0.589623	1.119	0.410377	0.121	
0.1087	0.74793	1.322	0.25207	0.119	
0.242	0.795455	1.417	0.204545	0.11	
0.3918	0.825421	1.452	0.174579	0.107	
0.6157	0.845379	1.506	0.154621	0.108	
0.8317	0.855958	1.575	0.144042	0.115	
