Adsorption isotherm of Carbon Dioxide, Ethene on ZSM-5 zeolite (Si/Al=29)
DOI: 10.1021/je9702100
Article source: Table 6
Adsorbate Carbon Dioxide: InChIKey CURLTUGMZLYLDI-UHFFFAOYSA-N
Adsorbate Ethene: InChIKey VGGSQFUCUMXWEO-UHFFFAOYSA-N
Kind: experiment
Temperature: 293 K
Tabular data in the source: 0
pressure (bar)	Carbon Dioxide fraction	Carbon Dioxide uptake (mmol/g)	Ethene fraction	Ethene uptake (mmol/g)	total uptake (mmol/g)
0.0179	0.374302	0.14	0.625698	0.581	
0.0662	0.312689	0.187	0.687311	0.803	
0.1311	0.289855	0.208	0.710145	0.987	
0.2988	0.26004	0.262	0.73996	1.217	
0.6021	0.239993	0.294	0.760007	1.404	
0.8673	0.230024	0.317	0.769976	1.513	
