Adsorption isotherm of N-propane, Ethene on ZSM-5 zeolite (Si/Al=60)
DOI: 10.1021/je9702100
Article source: Table 6
Adsorbate N-propane: InChIKey ATUOYWHBWRKTHZ-UHFFFAOYSA-N
Adsorbate Ethene: InChIKey VGGSQFUCUMXWEO-UHFFFAOYSA-N
Kind: experiment
Temperature: 293 K
Tabular data in the source: 0
pressure (bar)	N-propane fraction	N-propane uptake (mmol/g)	Ethene fraction	Ethene uptake (mmol/g)	total uptake (mmol/g)
0.0247	0.1417	0.368	0.8583	0.331	
0.0583	0.140652	0.507	0.859348	0.419	
0.1289	0.163693	0.628	0.836307	0.446	
0.2233	0.201075	0.725	0.798925	0.445	
0.4015	0.264508	0.819	0.735492	0.423	
0.5932	0.311194	0.878	0.688806	0.409	
0.8208	0.348806	0.924	0.651194	0.406	
