Adsorption isotherm of Carbon Dioxide, Ethene on ZSM-5 zeolite (Si/Al=29)
DOI: 10.1021/je9702100
Article source: Table 6
Adsorbate Carbon Dioxide: InChIKey CURLTUGMZLYLDI-UHFFFAOYSA-N
Adsorbate Ethene: InChIKey VGGSQFUCUMXWEO-UHFFFAOYSA-N
Kind: experiment
Temperature: 293 K
Tabular data in the source: 0
pressure (bar)	Carbon Dioxide fraction	Carbon Dioxide uptake (mmol/g)	Ethene fraction	Ethene uptake (mmol/g)	total uptake (mmol/g)
0.0472	0.190678	0.095	0.809322	0.806	
0.0965	0.165803	0.112	0.834197	0.988	
0.2042	0.150343	0.135	0.849657	1.217	
0.3672	0.144063	0.151	0.855937	1.396	
0.6282	0.137854	0.166	0.862146	1.565	
0.8455	0.130928	0.174	0.869072	1.66	
