Adsorption isotherm of Carbon Dioxide, Ethene on ZSM-5 zeolite (Si/Al=15)
DOI: 10.1021/je9702100
Article source: Table 5
Adsorbate Carbon Dioxide: InChIKey CURLTUGMZLYLDI-UHFFFAOYSA-N
Adsorbate Ethene: InChIKey VGGSQFUCUMXWEO-UHFFFAOYSA-N
Kind: experiment
Temperature: 293 K
Tabular data in the source: 0
pressure (bar)	Carbon Dioxide fraction	Carbon Dioxide uptake (mmol/g)	Ethene fraction	Ethene uptake (mmol/g)	total uptake (mmol/g)
0.0406	0.894089	0.798	0.105911	0.418	
0.1046	0.800191	0.92	0.199809	0.499	
0.2	0.7805	1.014	0.2195	0.566	
0.3622	0.756212	1.136	0.243788	0.664	
0.6305	0.732593	1.225	0.267407	0.736	
0.9603	0.724253	1.281	0.275747	0.807	
