Adsorption isotherm of N-propane, Ethene on ZSM-5 zeolite (Si/Al=29)
DOI: 10.1021/je9702100
Article source: Table 6
Adsorbate N-propane: InChIKey ATUOYWHBWRKTHZ-UHFFFAOYSA-N
Adsorbate Ethene: InChIKey VGGSQFUCUMXWEO-UHFFFAOYSA-N
Kind: experiment
Temperature: 293 K
Tabular data in the source: 0
pressure (bar)	N-propane fraction	N-propane uptake (mmol/g)	Ethene fraction	Ethene uptake (mmol/g)	total uptake (mmol/g)
0.0216	0.865741	1.118	0.134259	0.138	
0.1171	0.884714	1.282	0.115286	0.158	
0.2608	0.894172	1.336	0.105828	0.17	
0.4052	0.894126	1.381	0.105874	0.178	
0.6224	0.89412	1.451	0.10588	0.19	
1.0203	0.90493	1.52	0.09507	0.205	
