Adsorption isotherm of N-propane on ZSM-5 zeolite (Si/Al=29)
DOI: 10.1021/je9702100
Article source: Table 3
Adsorbate N-propane: InChIKey ATUOYWHBWRKTHZ-UHFFFAOYSA-N
Kind: experiment
Temperature: 293 K
Tabular data in the source: 0
pressure (bar)	uptake (mmol/g)
0.0018	0.923
0.0763	1.476
0.1616	1.538
0.2918	1.577
0.5344	1.607
0.744	1.631
0.912	1.665
