Adsorption isotherm of N-propane, Carbon Dioxide on ZSM-5 zeolite (Si/Al=60)
DOI: 10.1021/je9702100
Article source: Table 6
Adsorbate N-propane: InChIKey ATUOYWHBWRKTHZ-UHFFFAOYSA-N
Adsorbate Carbon Dioxide: InChIKey CURLTUGMZLYLDI-UHFFFAOYSA-N
Kind: experiment
Temperature: 293 K
Tabular data in the source: 0
pressure (bar)	N-propane fraction	N-propane uptake (mmol/g)	Carbon Dioxide fraction	Carbon Dioxide uptake (mmol/g)	total uptake (mmol/g)
0.0718	0.016713	0.145	0.983287	0.444	
0.153	0.018301	0.215	0.981699	0.573	
0.2711	0.01955	0.302	0.98045	0.7	
0.4248	0.025188	0.383	0.974812	0.761	
0.5973	0.032814	0.456	0.967186	0.787	
0.7779	0.041908	0.519	0.958092	0.804	
