Adsorption isotherm of Carbon Dioxide, Ethene on ZSM-5 zeolite (Si/Al=15)
DOI: 10.1021/je9702100
Article source: Table 5
Adsorbate Carbon Dioxide: InChIKey CURLTUGMZLYLDI-UHFFFAOYSA-N
Adsorbate Ethene: InChIKey VGGSQFUCUMXWEO-UHFFFAOYSA-N
Kind: experiment
Temperature: 293 K
Tabular data in the source: 0
pressure (bar)	Carbon Dioxide fraction	Carbon Dioxide uptake (mmol/g)	Ethene fraction	Ethene uptake (mmol/g)	total uptake (mmol/g)
0.0187	0.374332	0.19	0.625668	0.791	
0.1003	0.295115	0.25	0.704885	1.091	
0.199	0.271859	0.281	0.728141	1.266	
0.324	0.259877	0.306	0.740123	1.419	
0.5978	0.235196	0.323	0.764804	1.547	
0.8715	0.229948	0.346	0.770052	1.645	
