Adsorption isotherm of N-propane, Ethene on ZSM-5 zeolite (Si/Al=15)
DOI: 10.1021/je9702100
Article source: Table 5
Adsorbate N-propane: InChIKey ATUOYWHBWRKTHZ-UHFFFAOYSA-N
Adsorbate Ethene: InChIKey VGGSQFUCUMXWEO-UHFFFAOYSA-N
Kind: experiment
Temperature: 293 K
Tabular data in the source: 0
pressure (bar)	N-propane fraction	N-propane uptake (mmol/g)	Ethene fraction	Ethene uptake (mmol/g)	total uptake (mmol/g)
0.0175	0.702857	0.81	0.297143	0.407	
0.0883	0.781427	0.942	0.218573	0.487	
0.2294	0.743243	1.307	0.256757	0.573	
0.4239	0.737202	1.049	0.262798	0.616	
0.6198	0.727815	1.067	0.272185	0.65	
0.8707	0.725853	1.068	0.274147	0.683	
