Adsorption isotherm of Carbon Dioxide, Ethene on ZSM-5 zeolite (Si/Al=15)
DOI: 10.1021/je9702100
Article source: Table 5
Adsorbate Carbon Dioxide: InChIKey CURLTUGMZLYLDI-UHFFFAOYSA-N
Adsorbate Ethene: InChIKey VGGSQFUCUMXWEO-UHFFFAOYSA-N
Kind: experiment
Temperature: 293 K
Tabular data in the source: 0
pressure (bar)	Carbon Dioxide fraction	Carbon Dioxide uptake (mmol/g)	Ethene fraction	Ethene uptake (mmol/g)	total uptake (mmol/g)
0.0425	0.190588	0.121	0.809412	1.025	
0.1025	0.165854	0.139	0.834146	1.203	
0.1916	0.153445	0.155	0.846555	1.382	
0.3634	0.143368	0.171	0.856632	1.579	
0.6251	0.134378	0.18	0.865622	1.698	
0.8394	0.129378	0.186	0.870622	1.763	
