Adsorption isotherm of N-propane, Ethene on ZSM-5 zeolite (Si/Al=29)
DOI: 10.1021/je9702100
Article source: Table 6
Adsorbate N-propane: InChIKey ATUOYWHBWRKTHZ-UHFFFAOYSA-N
Adsorbate Ethene: InChIKey VGGSQFUCUMXWEO-UHFFFAOYSA-N
Kind: experiment
Temperature: 293 K
Tabular data in the source: 0
pressure (bar)	N-propane fraction	N-propane uptake (mmol/g)	Ethene fraction	Ethene uptake (mmol/g)	total uptake (mmol/g)
0.0088	0.022727	0.145	0.977273	0.562	
0.1324	0.032477	0.33	0.967523	1.025	
0.2563	0.041748	0.411	0.958252	1.102	
0.4028	0.052383	0.474	0.947617	1.128	
0.6345	0.070764	0.562	0.929236	1.158	
0.8789	0.08943	0.618	0.91057	1.182	
