Adsorption isotherm of N-propane, Carbon Dioxide on ZSM-5 zeolite (Si/Al=60)
DOI: 10.1021/je9702100
Article source: Table 6
Adsorbate N-propane: InChIKey ATUOYWHBWRKTHZ-UHFFFAOYSA-N
Adsorbate Carbon Dioxide: InChIKey CURLTUGMZLYLDI-UHFFFAOYSA-N
Kind: experiment
Temperature: 293 K
Tabular data in the source: 0
pressure (bar)	N-propane fraction	N-propane uptake (mmol/g)	Carbon Dioxide fraction	Carbon Dioxide uptake (mmol/g)	total uptake (mmol/g)
0.0193	0.326425	0.602	0.673575	0.126	
0.0633	0.394945	0.867	0.605055	0.148	
0.1622	0.531443	1.045	0.468557	0.143	
0.3054	0.619843	1.127	0.380157	0.133	
0.4657	0.671462	1.164	0.328538	0.129	
0.6288	0.701495	1.191	0.298505	0.131	
0.8323	0.724018	1.225	0.275982	0.136	
