Adsorption isotherm of N-propane, Carbon Dioxide on ZSM-5 zeolite (Si/Al=29)
DOI: 10.1021/je9702100
Article source: Table 6
Adsorbate N-propane: InChIKey ATUOYWHBWRKTHZ-UHFFFAOYSA-N
Adsorbate Carbon Dioxide: InChIKey CURLTUGMZLYLDI-UHFFFAOYSA-N
Kind: experiment
Temperature: 293 K
Tabular data in the source: 0
pressure (bar)	N-propane fraction	N-propane uptake (mmol/g)	Carbon Dioxide fraction	Carbon Dioxide uptake (mmol/g)	total uptake (mmol/g)
0.0953	0.018888	0.284	0.981112	0.908	
0.14	0.025	0.328	0.975	0.986	
0.3149	0.036837	0.449	0.963163	1.121	
0.5391	0.046188	0.6	0.953812	1.143	
0.8651	0.066004	0.667	0.933996	1.131	
