Adsorption isotherm of Carbon Dioxide, Ethene on ZSM-5 zeolite (Si/Al=29)
DOI: 10.1021/je9702100
Article source: Table 6
Adsorbate Carbon Dioxide: InChIKey CURLTUGMZLYLDI-UHFFFAOYSA-N
Adsorbate Ethene: InChIKey VGGSQFUCUMXWEO-UHFFFAOYSA-N
Kind: experiment
Temperature: 293 K
Tabular data in the source: 0
pressure (bar)	Carbon Dioxide fraction	Carbon Dioxide uptake (mmol/g)	Ethene fraction	Ethene uptake (mmol/g)	total uptake (mmol/g)
0.0268	0.914179	0.584	0.085821	0.156	
0.1096	0.892336	0.833	0.107664	0.235	
0.2155	0.87703	1.002	0.12297	0.298	
0.3316	0.867008	1.112	0.132992	0.343	
0.5886	0.85542	1.239	0.14458	0.413	
0.9332	0.844621	1.349	0.155379	0.477	
