Adsorption isotherm of N-propane, Carbon Dioxide on ZSM-5 zeolite (Si/Al=29)
DOI: 10.1021/je9702100
Article source: Table 6
Adsorbate N-propane: InChIKey ATUOYWHBWRKTHZ-UHFFFAOYSA-N
Adsorbate Carbon Dioxide: InChIKey CURLTUGMZLYLDI-UHFFFAOYSA-N
Kind: experiment
Temperature: 293 K
Tabular data in the source: 0
pressure (bar)	N-propane fraction	N-propane uptake (mmol/g)	Carbon Dioxide fraction	Carbon Dioxide uptake (mmol/g)	total uptake (mmol/g)
0.0187	0.358289	0.953	0.641711	0.211	
0.1712	0.59521	1.285	0.40479	0.206	
0.2477	0.636254	1.33	0.363746	0.199	
0.5039	0.708672	1.384	0.291328	0.194	
0.6637	0.72578	1.444	0.27422	0.199	
0.9134	0.745785	1.501	0.254215	0.211	
