Adsorption isotherm of N-propane, Carbon Dioxide on ZSM-5 zeolite (Si/Al=15)
DOI: 10.1021/je9702100
Article source: Table 5
Adsorbate N-propane: InChIKey ATUOYWHBWRKTHZ-UHFFFAOYSA-N
Adsorbate Carbon Dioxide: InChIKey CURLTUGMZLYLDI-UHFFFAOYSA-N
Kind: experiment
Temperature: 293 K
Tabular data in the source: 0
pressure (bar)	N-propane fraction	N-propane uptake (mmol/g)	Carbon Dioxide fraction	Carbon Dioxide uptake (mmol/g)	total uptake (mmol/g)
0.0189	0.253968	0.584	0.746032	0.567	
0.06	0.298333	0.682	0.701667	0.639	
0.2007	0.372696	0.829	0.627304	0.733	
0.3791	0.420206	0.907	0.579794	0.791	
0.6304	0.461453	0.93	0.538547	0.837	
0.8975	0.471421	0.953	0.528579	0.856	
