Adsorption isotherm of N-propane, Ethene on ZSM-5 zeolite (Si/Al=15)
DOI: 10.1021/je9702100
Article source: Table 5
Adsorbate N-propane: InChIKey ATUOYWHBWRKTHZ-UHFFFAOYSA-N
Adsorbate Ethene: InChIKey VGGSQFUCUMXWEO-UHFFFAOYSA-N
Kind: experiment
Temperature: 293 K
Tabular data in the source: 0
pressure (bar)	N-propane fraction	N-propane uptake (mmol/g)	Ethene fraction	Ethene uptake (mmol/g)	total uptake (mmol/g)
0.0231	0.952381	1.062	0.047619	0.136	
0.118	0.955085	1.327	0.044915	0.184	
0.2522	0.953608	1.376	0.046392	0.21	
0.4641	0.948287	1.391	0.051713	0.247	
0.6884	0.946252	1.391	0.053748	0.265	
0.9102	0.941991	1.395	0.058009	0.281	
