Adsorption isotherm of N-propane, Ethene on ZSM-5 zeolite (Si/Al=60)
DOI: 10.1021/je9702100
Article source: Table 6
Adsorbate N-propane: InChIKey ATUOYWHBWRKTHZ-UHFFFAOYSA-N
Adsorbate Ethene: InChIKey VGGSQFUCUMXWEO-UHFFFAOYSA-N
Kind: experiment
Temperature: 293 K
Tabular data in the source: 0
pressure (bar)	N-propane fraction	N-propane uptake (mmol/g)	Ethene fraction	Ethene uptake (mmol/g)	total uptake (mmol/g)
0.029	0.062069	0.222	0.937931	0.394	
0.0539	0.059369	0.294	0.940631	0.495	
0.1448	0.064917	0.43	0.935083	0.613	
0.2943	0.088345	0.545	0.911655	0.632	
0.4704	0.117347	0.632	0.882653	0.62	
0.6602	0.146925	0.693	0.853075	0.607	
0.8	0.162875	0.734	0.837125	0.606	
