Adsorption isotherm of Carbon Dioxide, Ethene on ZSM-5 zeolite (Si/Al=15)
DOI: 10.1021/je9702100
Article source: Table 5
Adsorbate Carbon Dioxide: InChIKey CURLTUGMZLYLDI-UHFFFAOYSA-N
Adsorbate Ethene: InChIKey VGGSQFUCUMXWEO-UHFFFAOYSA-N
Kind: experiment
Temperature: 293 K
Tabular data in the source: 0
pressure (bar)	Carbon Dioxide fraction	Carbon Dioxide uptake (mmol/g)	Ethene fraction	Ethene uptake (mmol/g)	total uptake (mmol/g)
0.0199	0.924623	0.843	0.075377	0.217	
0.1091	0.892759	1.134	0.107241	0.307	
0.2168	0.877306	1.289	0.122694	0.363	
0.3486	0.866896	1.395	0.133104	0.406	
0.5749	0.851278	1.504	0.148722	0.449	
0.8739	0.836137	1.603	0.163863	0.504	
