Adsorption isotherm of Carbon Dioxide, Ethene on ZSM-5 zeolite (Si/Al=60)
DOI: 10.1021/je9702100
Article source: Table 6
Adsorbate Carbon Dioxide: InChIKey CURLTUGMZLYLDI-UHFFFAOYSA-N
Adsorbate Ethene: InChIKey VGGSQFUCUMXWEO-UHFFFAOYSA-N
Kind: experiment
Temperature: 293 K
Tabular data in the source: 0
pressure (bar)	Carbon Dioxide fraction	Carbon Dioxide uptake (mmol/g)	Ethene fraction	Ethene uptake (mmol/g)	total uptake (mmol/g)
0.031	0.83871	0.25	0.16129	0.142	
0.0905	0.794475	0.38	0.205525	0.228	
0.1693	0.786178	0.478	0.213822	0.304	
0.2922	0.763176	0.591	0.236824	0.387	
0.4334	0.746193	0.679	0.253807	0.451	
0.5985	0.747368	0.717	0.252632	0.515	
0.8127	0.736434	0.773	0.263566	0.57	
