Adsorption isotherm of N-propane, Ethene on ZSM-5 zeolite (Si/Al=29)
DOI: 10.1021/je9702100
Article source: Table 6
Adsorbate N-propane: InChIKey ATUOYWHBWRKTHZ-UHFFFAOYSA-N
Adsorbate Ethene: InChIKey VGGSQFUCUMXWEO-UHFFFAOYSA-N
Kind: experiment
Temperature: 293 K
Tabular data in the source: 0
pressure (bar)	N-propane fraction	N-propane uptake (mmol/g)	Ethene fraction	Ethene uptake (mmol/g)	total uptake (mmol/g)
0.0147	0.70068	0.953	0.29932	0.233	
0.0456	0.714912	1.093	0.285088	0.26	
0.139	0.748921	1.197	0.251079	0.275	
0.3045	0.776355	1.235	0.223645	0.285	
0.5427	0.784411	1.317	0.215589	0.3	
0.7893	0.791334	1.373	0.208666	0.32	
