Adsorption isotherm of N-propane, Ethene on ZSM-5 zeolite (Si/Al=15)
DOI: 10.1021/je9702100
Article source: Table 5
Adsorbate N-propane: InChIKey ATUOYWHBWRKTHZ-UHFFFAOYSA-N
Adsorbate Ethene: InChIKey VGGSQFUCUMXWEO-UHFFFAOYSA-N
Kind: experiment
Temperature: 293 K
Tabular data in the source: 0
pressure (bar)	N-propane fraction	N-propane uptake (mmol/g)	Ethene fraction	Ethene uptake (mmol/g)	total uptake (mmol/g)
0.0052	0.865385	0.82	0.134615	0.206	
0.1033	0.882865	1.15	0.117135	0.309	
0.2531	0.885816	1.228	0.114184	0.363	
0.4117	0.881467	1.246	0.118533	0.397	
0.5693	0.874232	1.242	0.125768	0.416	
0.8695	0.86636	1.257	0.13364	0.447	
