Adsorption isotherm of N-propane, Ethene on ZSM-5 zeolite (Si/Al=29)
DOI: 10.1021/je9702100
Article source: Table 6
Adsorbate N-propane: InChIKey ATUOYWHBWRKTHZ-UHFFFAOYSA-N
Adsorbate Ethene: InChIKey VGGSQFUCUMXWEO-UHFFFAOYSA-N
Kind: experiment
Temperature: 293 K
Tabular data in the source: 0
pressure (bar)	N-propane fraction	N-propane uptake (mmol/g)	Ethene fraction	Ethene uptake (mmol/g)	total uptake (mmol/g)
0.0043	0.162791	0.388	0.837209	0.38	
0.0795	0.244025	0.728	0.755975	0.62	
0.1734	0.254902	0.857	0.745098	0.63	
0.3577	0.32681	0.955	0.67319	0.624	
0.5595	0.382127	0.989	0.617873	0.636	
0.8204	0.406387	1.058	0.593613	0.648	
