Adsorption isotherm of Carbon Dioxide, Ethene on ZSM-5 zeolite (Si/Al=60)
DOI: 10.1021/je9702100
Article source: Table 6
Adsorbate Carbon Dioxide: InChIKey CURLTUGMZLYLDI-UHFFFAOYSA-N
Adsorbate Ethene: InChIKey VGGSQFUCUMXWEO-UHFFFAOYSA-N
Kind: experiment
Temperature: 293 K
Tabular data in the source: 0
pressure (bar)	Carbon Dioxide fraction	Carbon Dioxide uptake (mmol/g)	Ethene fraction	Ethene uptake (mmol/g)	total uptake (mmol/g)
0.0522	0.900383	0.357	0.099617	0.103	
0.1323	0.882086	0.51	0.117914	0.157	
0.2258	0.870682	0.642	0.129318	0.204	
0.3886	0.862069	0.801	0.137931	0.265	
0.5841	0.86201	0.893	0.13799	0.321	
0.7913	0.853027	0.98	0.146973	0.358	
