Adsorption isotherm of N-propane, Ethene on ZSM-5 zeolite (Si/Al=15)
DOI: 10.1021/je9702100
Article source: Table 5
Adsorbate N-propane: InChIKey ATUOYWHBWRKTHZ-UHFFFAOYSA-N
Adsorbate Ethene: InChIKey VGGSQFUCUMXWEO-UHFFFAOYSA-N
Kind: experiment
Temperature: 293 K
Tabular data in the source: 0
pressure (bar)	N-propane fraction	N-propane uptake (mmol/g)	Ethene fraction	Ethene uptake (mmol/g)	total uptake (mmol/g)
0.0082	0.45122	0.544	0.54878	0.542	
0.112	0.465179	0.727	0.534821	0.713	
0.2263	0.495802	0.756	0.504198	0.784	
0.4067	0.509466	0.786	0.490534	0.858	
0.6025	0.514523	0.799	0.485477	0.893	
0.8816	0.516674	0.807	0.483326	0.935	
