Adsorption isotherm of Carbon Dioxide, Ethene on ZSM-5 zeolite (Si/Al=60)
DOI: 10.1021/je9702100
Article source: Table 6
Adsorbate Carbon Dioxide: InChIKey CURLTUGMZLYLDI-UHFFFAOYSA-N
Adsorbate Ethene: InChIKey VGGSQFUCUMXWEO-UHFFFAOYSA-N
Kind: experiment
Temperature: 293 K
Tabular data in the source: 0
pressure (bar)	Carbon Dioxide fraction	Carbon Dioxide uptake (mmol/g)	Ethene fraction	Ethene uptake (mmol/g)	total uptake (mmol/g)
0.0516	0.195736	0.055	0.804264	0.526	
0.1136	0.171655	0.073	0.828345	0.721	
0.2078	0.166987	0.085	0.833013	0.905	
0.3548	0.151635	0.097	0.848365	1.039	
0.5341	0.143793	0.102	0.856207	1.136	
0.6651	0.139528	0.106	0.860472	1.2	
0.825	0.135636	0.111	0.864364	1.258	
