Adsorption isotherm of Carbon Dioxide, Ethene on ZSM-5 zeolite (Si/Al=29)
DOI: 10.1021/je9702100
Article source: Table 6
Adsorbate Carbon Dioxide: InChIKey CURLTUGMZLYLDI-UHFFFAOYSA-N
Adsorbate Ethene: InChIKey VGGSQFUCUMXWEO-UHFFFAOYSA-N
Kind: experiment
Temperature: 293 K
Tabular data in the source: 0
pressure (bar)	Carbon Dioxide fraction	Carbon Dioxide uptake (mmol/g)	Ethene fraction	Ethene uptake (mmol/g)	total uptake (mmol/g)
0.0205	0.717073	0.345	0.282927	0.355	
0.0725	0.668966	0.467	0.331034	0.522	
0.1484	0.636119	0.545	0.363881	0.656	
0.3367	0.602317	0.673	0.397683	0.809	
0.541	0.575046	0.711	0.424954	0.927	
0.8808	0.558583	0.779	0.441417	1.046	
