Adsorption isotherm of N-propane, Carbon Dioxide on ZSM-5 zeolite (Si/Al=29)
DOI: 10.1021/je9702100
Article source: Table 6
Adsorbate N-propane: InChIKey ATUOYWHBWRKTHZ-UHFFFAOYSA-N
Adsorbate Carbon Dioxide: InChIKey CURLTUGMZLYLDI-UHFFFAOYSA-N
Kind: experiment
Temperature: 293 K
Tabular data in the source: 0
pressure (bar)	N-propane fraction	N-propane uptake (mmol/g)	Carbon Dioxide fraction	Carbon Dioxide uptake (mmol/g)	total uptake (mmol/g)
0.0192	0.088542	0.773	0.911458	0.343	
0.0787	0.282084	1.01	0.717916	0.385	
0.2425	0.42268	1.188	0.57732	0.361	
0.4405	0.506697	1.257	0.493303	0.351	
0.6414	0.549111	1.305	0.450889	0.355	
0.827	0.568077	1.379	0.431923	0.368	
