Adsorption isotherm of N-propane, Ethene on ZSM-5 zeolite (Si/Al=29)
DOI: 10.1021/je9702100
Article source: Table 6
Adsorbate N-propane: InChIKey ATUOYWHBWRKTHZ-UHFFFAOYSA-N
Adsorbate Ethene: InChIKey VGGSQFUCUMXWEO-UHFFFAOYSA-N
Kind: experiment
Temperature: 293 K
Tabular data in the source: 0
pressure (bar)	N-propane fraction	N-propane uptake (mmol/g)	Ethene fraction	Ethene uptake (mmol/g)	total uptake (mmol/g)
0.035	0.054286	0.386	0.945714	0.693	
0.1337	0.085266	0.556	0.914734	0.845	
0.2957	0.121407	0.686	0.878593	0.869	
0.4818	0.160648	0.771	0.839352	0.872	
0.671	0.193145	0.827	0.806855	0.896	
0.8542	0.217631	0.873	0.782369	0.948	
