Adsorption isotherm of Carbon Dioxide on PDVBTT-1
DOI: 10.1002/cctc.201600840
Article source: Figure 7
Adsorbate Carbon Dioxide: InChIKey CURLTUGMZLYLDI-UHFFFAOYSA-N
Kind: experiment
Temperature: 298 K
Tabular data in the source: 0
pressure (bar)	uptake (mmol/g)
0.07114	0.1288
0.1012	0.1582
0.13476	0.2604
0.16458	0.2617
0.20391	0.3009
0.23973	0.3289
0.27706	0.3779
0.33518	0.4171
0.36148	0.4577
0.43514	0.5248
0.47622	0.5598
0.60339	0.6787
0.63083	0.6942
0.76883	0.8164
0.79746	0.8631
0.96249	0.9941
0.98953	1.023
1.17008	1.1874
1.21263	1.2363
1.37176	1.381
1.42195	1.4445
1.58418	1.5855
1.70254	1.7019
1.97052	1.9346
2.0993	2.0404
2.4667	2.3013
2.58033	2.3754
2.94049	2.5216
2.94081	2.5128
