Adsorption isotherm of Nitrogen on PDVBTT-1
DOI: 10.1002/cctc.201600840
Article source: Figure 1
Adsorbate Nitrogen: InChIKey IJGRMHOSHXDMSA-UHFFFAOYSA-N
Kind: experiment
Temperature: 77 K
Tabular data in the source: 0
pressure (bar)	uptake (cm3(STP)/g)
0.034521	106.296
0.048646	132.623
0.058201	123.604
0.084343	137.49
0.090392	149.169
0.111002	148.747
0.136434	157.762
0.139535	160.15
0.161522	165.46
0.187978	171.371
0.190552	172.247
0.212691	176.917
0.239279	182.62
0.241366	183.159
0.264053	186.887
0.289607	191.759
0.290782	191.894
0.313895	194.679
0.339733	197.884
0.342448	198.252
0.365074	200.996
0.391023	203.28
0.393678	203.494
0.414885	205.527
0.441625	207.381
0.444391	207.595
0.466825	209.094
0.491244	210.735
0.494669	211.091
0.517051	211.727
0.542494	213.765
0.545118	213.765
0.568271	214.7
0.593795	216.484
0.596602	216.597
0.619136	216.458
0.645187	217.309
0.64694	217.507
0.670174	218.781
0.696488	220.226
0.698068	220.396
0.719377	221.613
0.74639	223.51
0.748579	223.567
0.770415	225.181
0.796425	227.506
0.798522	227.934
0.821391	229.254
0.848019	231.18
0.850563	231.394
0.871446	234.033
0.896422	237.455
0.901397	238.204
0.921358	241.527
0.945717	245.569
0.951148	246.916
0.9712	250.195
0.996957	256.975
1.01213	263.036
