Adsorption isotherm of Carbon Dioxide on PDVBTT-1
DOI: 10.1002/cctc.201600840
Article source: Figure 7
Adsorbate Carbon Dioxide: InChIKey CURLTUGMZLYLDI-UHFFFAOYSA-N
Kind: experiment
Temperature: 273 K
Tabular data in the source: 0
pressure (bar)	uptake (mmol/g)
0.06144	0.3473
0.08726	0.3948
0.1324	0.6287
0.18179	0.8065
0.19985	0.9731
0.26304	1.3284
0.26355	1.3316
0.35507	1.7628
0.40272	1.9952
0.48398	2.547
0.52887	2.8424
0.61514	3.3297
0.6525	3.5734
0.72284	4.0509
0.76987	4.2847
0.85639	4.7902
0.88623	4.9456
1.02616	5.7382
1.1197	6.2618
1.32433	7.368
1.48808	8.2039
1.66185	9.058
1.84666	9.9765
1.98406	10.4287
2.29043	11.3736
2.41451	11.5078
2.83967	12.192
