Adsorption isotherm of Hydrogen on [Zn(phen)(SDC)]n
DOI: 10.1039/C0nj00217h
Adsorbate Hydrogen: InChIKey UFHFLCQGNIYNRP-UHFFFAOYSA-N
Temperature: 87 K
Tabular data in the source: 0
pressure (bar)	uptake (wt%)
0.0528859	0.00243436
0.0667817	0.043073
0.0853094	0.0889554
0.122365	0.141392
0.198792	0.212182
0.298378	0.275107
0.386385	0.306569
0.483656	0.332787
0.585558	0.355073
0.680513	0.368182
0.775467	0.387846
0.872738	0.402266
0.963061	0.408821
