Adsorption isotherm of Hydrogen on [Zn(phen)(SDC)]n
DOI: 10.1039/C0nj00217h
Adsorbate Hydrogen: InChIKey UFHFLCQGNIYNRP-UHFFFAOYSA-N
Temperature: 77 K
Tabular data in the source: 0
pressure (bar)	uptake (wt%)
0.0505699	0.0142327
0.0575178	0.0640478
0.0667817	0.108619
0.0806774	0.170233
0.0968892	0.218737
0.129313	0.268552
0.150156	0.292149
0.198792	0.332787
0.296062	0.373426
0.437336	0.412754
0.57861	0.438972
0.724516	0.458636
0.868106	0.480922
0.967693	0.491409
