Adsorption isotherm of Methane on COF-JLU2
DOI: 10.1002/chem.201501206
Article source: Figure S7a
Adsorbate Methane: InChIKey VNWKTOKETHGBQD-UHFFFAOYSA-N
Kind: experiment
Temperature: 273 K
Tabular data in the source: 0
pressure (bar)	uptake (mmol/g)
0.206622	0.701229
0.461331	1.28715
0.524347	1.42761
0.585868	1.55809
0.650005	1.70079
0.717255	1.85621
0.781074	1.99033
0.846898	2.12919
0.912279	2.27749
0.978341	2.40366
0.389993	1.12903
0.326936	0.983103
0.262509	0.837174
0.236463	0.77573
0.183002	0.6298
0.154215	0.552995
0.130912	0.47619
0.102125	0.399386
0.078821	0.3149
0.037697	0.16129
0.013023	0.084485
