Adsorption isotherm of Nitrogen on COF-JLU2 methanol/THF (72h)
DOI: 10.1002/chem.201501206
Article source: Figure S3g
Adsorbate Nitrogen: InChIKey IJGRMHOSHXDMSA-UHFFFAOYSA-N
Kind: experiment
Temperature: 77 K
Tabular data in the source: 0
pressure (bar)	uptake (cm3(STP)/g)
0.009418	2.90456
0.017267	5.39419
0.031394	6.639
0.047091	7.46888
0.064451	9.02133
0.081625	10.3734
0.101303	11.7793
0.145175	14.3771
0.185538	18.3974
0.185538	19.4073
0.227655	21.5093
0.268017	25.0464
0.311889	29.2794
0.217125	32.9325
0.352251	34.1253
0.394368	39.5594
0.434731	44.3557
0.476848	50.1542
0.252223	54.0392
0.5137	55.9942
0.29083	58.91
0.557572	62.4472
0.315399	64.9405
0.346987	69.1155
0.59618	69.7533
0.382084	76.5377
0.636542	76.6039
0.675149	83.9598
0.407238	83.9598
0.443505	91.6912
0.717266	92.3097
0.508436	95.325
0.536514	98.8041
0.757629	101.877
0.569856	106.999
0.799746	110.807
0.599689	113.648
0.631277	118.751
0.836598	121.071
0.669885	125.246
0.694453	131.74
0.878715	132.403
0.728966	138.08
0.761138	143.105
0.917323	145.193
0.796236	148.672
0.824314	152.383
0.859412	157.949
0.88749	161.892
0.95476	162.037
0.919078	162.82
0.95145	163.06
0.971724	172.175
0.971653	172.199
0.983594	182.673
0.990489	187.552
1.00757	208.126
