Adsorption isotherm of Nitrogen on COF-JLU2 mesitylene (120h)
DOI: 10.1002/chem.201501206
Article source: Figure S3a
Adsorbate Nitrogen: InChIKey IJGRMHOSHXDMSA-UHFFFAOYSA-N
Kind: experiment
Temperature: 77 K
Tabular data in the source: 0
pressure (bar)	uptake (cm3(STP)/g)
0.000758	6.20496
0.014537	7.97475
0.032612	8.60689
0.053516	11.588
0.075084	12.6101
0.092495	14.8612
0.108454	15.8126
0.140333	19.1688
0.185137	22.6067
0.197948	24.6197
0.229175	27.2071
0.23282	48.5965
0.264357	30.6251
0.266129	56.6437
0.298021	69.273
0.303336	35.8466
0.327899	76.193
0.345859	40.2888
0.363577	83.6198
0.38661	45.6039
0.390153	95.6129
0.421797	105.287
0.42736	51.3554
0.452675	108.892
0.468111	57.2939
0.483554	120.135
0.50709	63.3727
0.515949	126.784
0.547841	69.8256
0.549613	138.818
0.579733	146.185
0.585048	77.1202
0.625045	83.9216
0.641745	168.178
0.663006	91.6158
0.674424	179.348
0.703757	100.064
0.709072	187.327
0.739192	197.072
0.744508	109.572
0.775337	208.235
0.785259	119.703
0.804761	212.418
0.824238	130.458
0.834993	218.123
0.863217	143.395
0.867531	219.959
0.900424	158.67
0.941175	179.244
0.959657	219.867
0.974838	207.768
0.989529	227.173
0.993766	234.329
