Adsorption isotherm of Nitrogen on COF-JLU2
DOI: 10.1002/chem.201501206
Article source: Figure S7a
Adsorbate Nitrogen: InChIKey IJGRMHOSHXDMSA-UHFFFAOYSA-N
Kind: experiment
Temperature: 273 K
Tabular data in the source: 0
pressure (bar)	uptake (mmol/g)
0.013023	0.015361
0.028101	0.015361
0.039068	0.015361
0.047293	0.015361
0.061001	0.015361
0.070596	0.015361
0.081563	0.046083
0.091158	0.053763
0.096642	0.053763
0.100754	0.061444
0.150103	0.099846
0.195339	0.15361
0.232351	0.176651
0.273475	0.238095
0.317341	0.253456
0.369431	0.3149
0.421522	0.330261
0.480466	0.391705
0.532557	0.430108
0.581905	0.47619
0.636737	0.529954
0.694311	0.568356
0.74366	0.62212
0.793009	0.645161
0.843729	0.721966
0.893077	0.745008
0.946539	0.806452
0.998629	0.852535
