Adsorption isotherm of Carbon Dioxide on COF-JLU2
DOI: 10.1002/chem.201501206
Article source: Figure 4c
Adsorbate Carbon Dioxide: InChIKey CURLTUGMZLYLDI-UHFFFAOYSA-N
Kind: experiment
Temperature: 298 K
Tabular data in the source: 0
pressure (bar)	uptake (mg/g)
0.01848	4.15348
0.034908	8.4731
0.04449	12.4604
0.073238	17.7769
0.093771	22.4288
0.111567	26.4161
0.156742	34.3908
0.192334	43.0301
0.23614	49.0111
0.27447	55.9889
0.314168	62.9668
0.353867	69.2801
0.390828	76.2579
0.431896	81.9066
0.468857	87.8877
0.508556	94.201
0.561944	103.505
0.611225	111.147
0.659138	118.457
0.715264	127.429
0.765914	136.733
0.820671	144.043
0.875428	153.014
0.92334	160.989
0.972621	168.299
1	173.616
