Adsorption isotherm of Nitrogen on COF-JLU2 methanol/THF (168h)
DOI: 10.1002/chem.201501206
Article source: Figure S3i
Adsorbate Nitrogen: InChIKey IJGRMHOSHXDMSA-UHFFFAOYSA-N
Kind: experiment
Temperature: 77 K
Tabular data in the source: 0
pressure (bar)	uptake (cm3(STP)/g)
0.001522	70.8384
0.010388	84.7956
0.02765	93.0863
0.051042	99.2818
0.077083	104.119
0.100034	106.919
0.142405	111.515
0.18301	115.01
0.181244	118.646
0.223615	118.95
0.262455	123.005
0.304826	126.655
0.216357	129.931
0.345431	130.304
0.384271	134.36
0.424877	138.28
0.246566	141.891
0.463717	142.74
0.502556	147.336
0.28011	150.581
0.541396	151.662
0.308357	156.562
0.582002	157.069
0.620842	162.584
0.340135	165.773
0.657916	167.477
0.696756	173.29
0.371913	173.29
0.739127	179.913
0.401926	181.169
0.776201	186.753
0.431938	188.888
0.816807	195.729
0.463717	196.405
0.491964	199.663
0.523742	202.183
0.852116	203.975
0.55552	212.119
0.887425	214.788
0.585533	219.674
0.617311	226.703
0.926265	228.441
0.649089	233.385
0.679101	241.012
0.712645	249.181
0.959808	249.528
0.742658	254.8
0.77267	262.158
0.979228	264.398
0.804448	267.835
0.834461	272.44
0.864474	275.598
0.898017	279.436
0.926265	280.45
0.954512	283.491
0.993352	284.674
0.985038	289.845
1.00783	305.908
