Adsorption isotherm of Nitrogen on COF-JLU2@250
DOI: 10.1002/chem.201501206
Article source: Figure S6b
Adsorbate Nitrogen: InChIKey IJGRMHOSHXDMSA-UHFFFAOYSA-N
Kind: experiment
Temperature: 77 K
Tabular data in the source: 0
pressure (bar)	uptake (cm3(STP)/g)
0.476433	73.2645
0.519725	79.9466
0.557224	86.0522
0.594688	92.9768
0.634557	100.2
0.759771	128.497
0.800156	139.987
0.833289	150.213
0.874634	164.632
0.915366	183.978
0.950909	208.435
0.987457	249.747
0.435446	68.4049
0.392181	62.8834
0.351707	58.589
0.311232	53.0675
0.27355	50
0.23168	45.092
0.143753	39.5706
0.099092	35.8896
0.085135	34.0491
0.069783	30.9816
0.051639	30.3681
0.033496	28.5276
0.022059	26.6871
0.004613	24.5569
0.000233	20.7226
0.013336	26.2611
0.002171	1.12474
0.188763	41.1725
0.678214	109.339
0.715044	118.286
0.190634	43.4299
0.223892	69.2144
0.255162	78.6918
0.285392	87.9944
0.317129	100.908
0.346892	109.918
0.378144	119.985
0.411572	130.63
0.443308	140.278
0.474076	151.588
0.502438	160.767
0.53658	170.842
0.566378	184.245
0.601416	194.072
0.634935	207.634
0.667157	219.036
0.699378	227.298
0.728692	236.766
0.762604	248.116
0.796279	256.03
0.825126	263.82
0.853937	268.015
0.976866	266.487
1.0029	288.701
