Adsorption isotherm of Carbon Dioxide on COF-JLU2
DOI: 10.1002/chem.201501206
Article source: Figure 4c
Adsorbate Carbon Dioxide: InChIKey CURLTUGMZLYLDI-UHFFFAOYSA-N
Kind: experiment
Temperature: 273 K
Tabular data in the source: 0
pressure (bar)	uptake (mg/g)
0.017112	10.4668
0.03217	18.7737
0.045859	25.7516
0.067762	34.7231
0.08282	39.375
0.107461	45.6883
0.145791	57.9826
0.181383	66.6218
0.22245	74.2642
0.266256	82.5712
0.308693	91.2104
0.344285	99.1851
0.382615	105.166
0.425051	114.47
0.457906	120.783
0.496235	128.093
0.545517	137.065
0.596167	145.372
0.649555	153.347
0.697467	161.986
0.744011	170.293
0.798768	178.267
0.84668	186.574
0.895962	194.881
0.954825	203.188
0.980835	208.505
1	213.157
