Adsorption isotherm of Nitrogen on COF-JLU2 DMF (120h)
DOI: 10.1002/chem.201501206
Article source: Figure S3b
Adsorbate Nitrogen: InChIKey IJGRMHOSHXDMSA-UHFFFAOYSA-N
Kind: experiment
Temperature: 77 K
Tabular data in the source: 0
pressure (bar)	uptake (cm3(STP)/g)
0.004572	6.61941
0.026603	7.63201
0.032862	8.04455
0.043268	9.35941
0.064159	10.1073
0.071984	11.7574
0.081963	12.9846
0.100151	14.2327
0.146763	19.5235
0.187497	25.4387
0.189256	23.2749
0.220916	44.3471
0.226193	27.7469
0.256094	62.0833
0.266647	32.7548
0.289513	66.9134
0.312378	38.2418
0.319414	75.2985
0.351074	79.9354
0.352833	43.8834
0.382734	88.5717
0.393287	49.9114
0.414394	93.3245
0.435501	55.9394
0.446054	102.077
0.474196	62.3538
0.477714	108.337
0.509374	112.973
0.51641	69.2319
0.542793	121.784
0.555105	76.2645
0.572694	127.87
0.609631	136.931
0.637773	92.2001
0.639532	142.186
0.671192	149.895
0.679987	101.474
0.702852	156.387
0.720441	111.428
0.734512	163.168
0.759137	120.161
0.766172	169.428
0.796073	130.223
0.797832	175.63
0.829492	182.643
0.836528	141.104
0.861152	187.28
0.878741	153.547
0.917437	167.535
0.953591	184.125
0.956132	192.451
0.97548	197.18
0.992124	210.19
0.994531	215.474
1.01066	244.282
