Adsorption isotherm of Nitrogen on COF-JLU2@200
DOI: 10.1002/chem.201501206
Article source: Figure S6a
Adsorbate Nitrogen: InChIKey IJGRMHOSHXDMSA-UHFFFAOYSA-N
Kind: experiment
Temperature: 77 K
Tabular data in the source: 0
pressure (bar)	uptake (cm3(STP)/g)
0.001767	54.1486
0.000713	1.5674
0.000152	29.0094
0.002139	63.6364
0.007825	73.4088
0.019252	78.6834
0.024957	83.6991
0.0366	87.4649
0.059183	91.8495
0.071131	95.5236
0.090558	97.4922
0.104017	100.115
0.138912	104.051
0.168796	107.974
0.17755	108.15
0.200203	120.067
0.218908	113.166
0.237205	138.388
0.257413	118.182
0.26872	145.832
0.29877	123.197
0.299414	153.809
0.330107	163.297
0.345738	129.106
0.360801	171.098
0.385739	133.729
0.391494	180.34
0.422188	188.387
0.422904	139.368
0.451511	197.343
0.462202	145.725
0.482205	204.411
0.505118	151.91
0.512898	211.118
0.543044	218.507
0.548035	158.343
0.573737	226.459
0.586402	164.12
0.604431	234.089
0.636757	173.354
0.637043	240.711
0.667736	249.461
0.673836	180.251
0.700348	256.74
0.716619	187.774
0.731042	264.611
0.756302	197.751
0.761735	270.354
0.792429	277.502
0.799622	208.171
0.82504	284.39
0.833673	217.342
0.857652	289.671
0.871522	229.765
0.910823	244.625
0.949733	290.072
0.950501	264.263
0.970467	280.564
0.984728	296.238
0.986154	300.627
1.00686	329.041
