Adsorption isotherm of Methane on COF-JLU2
DOI: 10.1002/chem.201501206
Article source: Figure S7b
Adsorbate Methane: InChIKey VNWKTOKETHGBQD-UHFFFAOYSA-N
Kind: experiment
Temperature: 298 K
Tabular data in the source: 0
pressure (bar)	uptake (mmol/g)
0.01268	0.081805
0.03668	0.100697
0.060679	0.124686
0.078679	0.156113
0.102679	0.21105
0.126679	0.248954
0.155061	0.298268
0.183887	0.338571
0.209178	0.379178
0.234678	0.423359
0.260178	0.460344
0.327677	0.546427
0.393677	0.644545
0.459677	0.717234
0.525676	0.788404
0.591676	0.877966
0.722175	1.05901
0.786674	1.14761
0.849674	1.23901
0.918954	1.33199
0.992173	1.41054
0.65806	0.949219
