Adsorption isotherm of Nitrogen on COF-JLU2
DOI: 10.1002/chem.201501206
Article source: Figure S7b
Adsorbate Nitrogen: InChIKey IJGRMHOSHXDMSA-UHFFFAOYSA-N
Kind: experiment
Temperature: 298 K
Tabular data in the source: 0
pressure (bar)	uptake (mmol/g)
0.974878	0.394531
0.919051	0.347656
0.856246	0.355469
0.810188	0.308594
0.75157	0.324219
0.698535	0.308594
0.646895	0.269531
0.591068	0.253906
0.533845	0.230469
0.486392	0.207031
0.430565	0.175781
0.37753	0.152344
0.321703	0.128906
0.281228	0.121094
0.233775	0.082031
0.198883	0.066406
0.150035	0.074219
0.108165	0.027344
0.094208	0.042969
0.073273	0.035156
0.064899	0.035156
0.050942	0.035156
0.041172	0.035156
0.028611	0.035156
0.014655	0.035156
0.002094	0.035156
