Adsorption isotherm of Carbon Dioxide on COF-JLU2
DOI: 10.1002/chem.201501206
Article source: Figure S7a
Adsorbate Carbon Dioxide: InChIKey CURLTUGMZLYLDI-UHFFFAOYSA-N
Kind: experiment
Temperature: 273 K
Tabular data in the source: 0
pressure (bar)	uptake (mmol/g)
0.011442	0.235287
0.030496	0.449686
0.045067	0.612839
0.066363	0.814689
0.085417	0.949185
0.10223	1.07615
0.141459	1.31816
0.177325	1.51646
0.219917	1.71098
0.26475	1.90551
0.302859	2.08247
0.342088	2.25587
0.376833	2.41798
0.416063	2.60623
0.45305	2.76018
0.490518	2.91401
0.538607	3.10615
0.643592	3.49939
0.690666	3.67635
0.743346	3.86439
0.793783	4.05056
0.8431	4.23985
0.895779	4.4438
0.948458	4.62138
0.974237	4.72722
0.995533	4.84017
0.593557	3.30775
