Adsorption isotherm of Nitrogen on COF-JLU2 methanol/THF (120h)
DOI: 10.1002/chem.201501206
Article source: Figure S3h
Adsorbate Nitrogen: InChIKey IJGRMHOSHXDMSA-UHFFFAOYSA-N
Kind: experiment
Temperature: 77 K
Tabular data in the source: 0
pressure (bar)	uptake (cm3(STP)/g)
0.000576	29.6773
0.002331	57.1639
0	65.0667
0.007741	72.1778
0.016365	79.0995
0.026318	83.5556
0.037416	90.515
0.058467	96.0213
0.079518	100.319
0.100569	103.945
0.143976	109.156
0.167198	110.578
0.190037	112.943
0.232139	117.993
0.272487	123.15
0.202317	127.783
0.318098	128.387
0.356692	132.954
0.395286	138.326
0.435634	143.617
0.479491	151.084
0.237402	151.756
0.519839	156.993
0.272487	162.634
0.560187	164.245
0.304064	170.49
0.600535	172.303
0.335641	177.843
0.640883	180.227
0.686494	189.628
0.367218	189.628
0.725088	198.223
0.398794	198.794
0.768944	209.37
0.43388	210.679
0.809293	220.651
0.463702	222.263
0.497033	230.522
0.851395	233.678
0.52861	237.069
0.560187	248.048
0.888234	249.015
0.595272	259.329
0.626849	269.906
0.930337	270.127
0.658426	280.381
0.693511	290.353
0.967176	298.008
0.725088	300.324
0.756665	309.188
0.79175	316.843
0.986473	323.471
0.823327	324.196
0.854903	329.635
0.98121	331.549
0.884726	334.269
1.00402	357.193
