Adsorption isotherm of Hydrogen on COF-JLU2
DOI: 10.1002/chem.201501206
Article source: Figure 4d
Adsorbate Hydrogen: InChIKey UFHFLCQGNIYNRP-UHFFFAOYSA-N
Kind: experiment
Temperature: 87 K
Tabular data in the source: 0
pressure (bar)	uptake (mg/g)
0.007384	0.974604
0.005872	0.262079
0.013555	1.57085
0.039679	3.2622
0.078609	4.94231
0.10422	5.74951
0.131881	6.4387
0.157492	7.02
0.184128	7.52434
0.20974	7.97795
0.236376	8.37196
0.263012	8.73329
0.328578	9.4723
0.394144	10.1337
0.459709	10.6808
0.526299	11.1714
0.590841	11.6281
0.658455	12.0445
0.724021	12.4365
0.789587	12.808
0.855153	13.153
0.920718	13.4735
0.987308	13.773
0.013316	1.28955
0.006658	0.644776
0.006658	0.429851
