Adsorption isotherm of Hydrogen on COF-JLU2
DOI: 10.1002/chem.201501206
Article source: Figure 4d
Adsorbate Hydrogen: InChIKey UFHFLCQGNIYNRP-UHFFFAOYSA-N
Kind: experiment
Temperature: 77 K
Tabular data in the source: 0
pressure (bar)	uptake (mg/g)
0.00728	2.29238
0.013525	3.4386
0.010994	2.86703
0.038654	6.01867
0.088853	8.34746
0.10422	8.89406
0.13393	9.59158
0.157492	10.171
0.184128	10.6831
0.210764	11.108
0.236376	11.524
0.263012	11.8363
0.328578	12.4814
0.395168	13.0349
0.460734	13.4919
0.525275	13.8737
0.591865	14.2429
0.657431	14.5576
0.722997	14.8492
0.788562	15.1294
0.854128	15.366
0.919694	15.6048
0.986684	15.8567
0.015979	3.70149
0.011984	3.15224
0.009321	2.53134
0.007989	1.91045
