Adsorption isotherm of Nitrogen on COF-JLU2 dioxane (120h)
DOI: 10.1002/chem.201501206
Article source: Figure S3d
Adsorbate Nitrogen: InChIKey IJGRMHOSHXDMSA-UHFFFAOYSA-N
Kind: experiment
Temperature: 77 K
Tabular data in the source: 0
pressure (bar)	uptake (cm3(STP)/g)
0.005239	29.8513
0.025375	36.5256
0.046216	41.1985
0.069052	46.8693
0.090147	49.7018
0.10676	52.1404
0.138139	57.4841
0.180593	64.7221
0.197776	66.267
0.223047	70.0375
0.235353	95.2576
0.263655	76.1446
0.269193	109.324
0.300572	123.602
0.30611	82.6758
0.331951	137.385
0.346718	88.4719
0.361485	147.422
0.388249	165.164
0.389172	95.4837
0.422397	182.057
0.427935	103.316
0.453776	198.88
0.466697	110.582
0.487001	212.805
0.507306	118.385
0.516535	220.934
0.546068	127.065
0.547914	234.929
0.581139	246.168
0.586676	136.961
0.611903	259.244
0.629131	146.207
0.645128	272.25
0.667893	158.025
0.677122	285.822
0.705733	296.424
0.708501	169.617
0.73742	307.875
0.74911	183.047
0.769414	320.598
0.789718	197.608
0.800178	330.777
0.826635	212.452
0.832172	337.845
0.861706	344.419
0.863552	229.981
0.886317	350.285
0.900468	251.893
0.920034	351.982
0.937385	281.722
0.949383	354.809
0.972456	320.937
0.979839	358.131
0.989068	349.154
1.00383	384.496
