Adsorption isotherm of Carbon Dioxide on COF-JLU2
DOI: 10.1002/chem.201501206
Article source: Figure S7b
Adsorbate Carbon Dioxide: InChIKey CURLTUGMZLYLDI-UHFFFAOYSA-N
Kind: experiment
Temperature: 298 K
Tabular data in the source: 0
pressure (bar)	uptake (mmol/g)
0.01368	0.131484
0.047617	0.29387
0.071179	0.436554
0.089179	0.512121
0.107179	0.618537
0.149179	0.7976
0.192678	0.990718
0.231678	1.12674
0.267678	1.2657
0.309678	1.41893
0.350177	1.60576
0.387677	1.7359
0.426677	1.86674
0.464177	2.01508
0.503176	2.15152
0.555676	2.37193
0.605176	2.53566
0.655862	2.71531
0.711675	2.90846
0.764174	3.08353
0.815174	3.28294
0.869174	3.48446
0.918673	3.6675
0.969392	3.8388
0.996073	3.94122
0.032798	0.199219
