Adsorption isotherm of Nitrogen on COF-JLU2 methanol (120h)
DOI: 10.1002/chem.201501206
Article source: Figure S3e
Adsorbate Nitrogen: InChIKey IJGRMHOSHXDMSA-UHFFFAOYSA-N
Kind: experiment
Temperature: 77 K
Tabular data in the source: 0
pressure (bar)	uptake (cm3(STP)/g)
0.005487	5.25182
0.025967	7.50896
0.048698	9.567
0.071965	11.6284
0.090431	12.5432
0.108897	14.4134
0.14486	16.4902
0.189551	18.1189
0.177222	18.4589
0.228928	21.8945
0.2714	24.9846
0.317566	29.0504
0.358191	33.0349
0.210462	37.182
0.398817	37.3446
0.441289	42.061
0.481915	46.9399
0.524387	52.876
0.245547	57.8131
0.566859	59.0398
0.278787	63.0306
0.609332	65.3174
0.310179	71.9447
0.649957	72.7985
0.69243	80.2145
0.341572	81.3118
0.734902	88.9804
0.374811	90.8507
0.777374	98.4619
0.40805	99.7025
0.816153	108.496
0.437596	109.67
0.472682	119.576
0.854932	119.832
0.504074	123.981
0.535467	130.309
0.895558	134.078
0.568706	139.945
0.600099	149.259
0.93249	150.667
0.633338	155.393
0.666577	163.478
0.697969	167.877
0.967576	175.664
0.729362	176.302
0.762601	180.066
0.793994	186.966
0.825386	190.382
0.858625	194.703
0.986752	196.387
0.890018	196.643
0.987889	198.838
1.00451	234.049
