Adsorption isotherm of Nitrogen on COF-JLU2 mesitylene/dioxane (120h)
DOI: 10.1002/chem.201501206
Article source: Figure S3c
Adsorbate Nitrogen: InChIKey IJGRMHOSHXDMSA-UHFFFAOYSA-N
Kind: experiment
Temperature: 77 K
Tabular data in the source: 0
pressure (bar)	uptake (cm3(STP)/g)
0.004996	16.0017
0.012385	19.1993
0.027866	21.2418
0.037066	23.2415
0.055733	24.5098
0.068816	25.8961
0.083599	25.7353
0.097037	27.3269
0.146425	29.5919
0.184652	30.9545
0.186994	31.5932
0.213451	38.2509
0.225798	32.9895
0.248728	48.714
0.266367	35.1149
0.284005	54.6979
0.308699	36.9765
0.315755	61.2381
0.347504	67.2864
0.349268	38.7296
0.379253	73.8465
0.388073	40.8628
0.411003	80.2073
0.433933	43.1511
0.442752	86.2355
0.470974	45.5092
0.474501	92.2527
0.506251	94.684
0.516834	48.3328
0.538	99.0013
0.562694	51.3425
0.569749	104.897
0.601499	54.3211
0.601499	110.145
0.633248	115.362
0.640303	57.6721
0.666761	120.372
0.682636	61.1162
0.696747	125.442
0.724968	65.4602
0.73026	129.68
0.762009	70.3393
0.76245	133.646
0.794199	136.794
0.802578	76.5681
0.825949	139.561
0.841382	83.4563
0.855043	141.959
0.880187	93.075
0.880707	145.954
0.9137	151.264
0.917228	106.448
0.933103	161.09
0.950741	124.289
0.956033	174.678
0.975435	151.718
0.978189	193.935
0.986361	171.066
0.99419	193.119
0.996601	220.476
1.00366	219.157
1.00601	247.586
