Adsorption isotherm of Nitrogen on COF-JLU2 THF (120h)
DOI: 10.1002/chem.201501206
Article source: Figure S3f
Adsorbate Nitrogen: InChIKey IJGRMHOSHXDMSA-UHFFFAOYSA-N
Kind: experiment
Temperature: 77 K
Tabular data in the source: 0
pressure (bar)	uptake (cm3(STP)/g)
0.003821	17.3667
0.012313	21.8749
0.034479	24.7226
0.056646	27.0007
0.078813	29.4415
0.100979	31.3941
0.143466	35.0228
0.178563	37.7199
0.18263	38.3683
0.226591	42.2965
0.265383	47.1293
0.209966	50.0025
0.309716	51.6204
0.350355	56.795
0.390994	62.0672
0.431633	66.9488
0.24691	73.4344
0.472272	73.7831
0.28016	76.8516
0.511064	79.7631
0.311563	79.7631
0.342966	85.8012
0.55355	86.573
0.374369	92.5774
0.594189	94.4813
0.405772	99.7256
0.634828	101.999
0.435327	106.49
0.677314	110.762
0.46673	110.823
0.49998	116.864
0.714259	119.06
0.531383	121.679
0.562786	125.895
0.756745	128.067
0.594189	134.246
0.793689	137.342
0.627439	139.546
0.662536	142.614
0.834328	146.813
0.692092	149.51
0.723495	153.145
0.87312	157.869
0.756745	158.993
0.788148	160.982
0.81955	167.59
0.911912	169.17
0.8528	172.392
0.886051	178.055
0.919301	180.296
0.937773	182.318
0.950703	184.474
0.969176	194.97
0.98192	203.554
0.989495	207.443
1.00484	225.565
