Adsorption isotherm of Methane on COF-JLU2
DOI: 10.1002/chem.201501206
Article source: Figure 4e
Adsorbate Methane: InChIKey VNWKTOKETHGBQD-UHFFFAOYSA-N
Kind: experiment
Temperature: 298 K
Tabular data in the source: 0
pressure (bar)	uptake (mg/g)
0.011989	0.04363
0.039729	0.127306
0.080993	0.245928
0.209291	0.578535
0.240692	0.668987
0.265812	0.712404
0.331002	0.860968
0.396191	1.00805
0.462768	1.1352
0.52657	1.24582
0.594534	1.39083
0.659723	1.50503
0.724913	1.67083
0.791489	1.82855
0.858066	1.97386
0.921868	2.11386
0.991219	2.245
0.105508	0.308605
0.133378	0.385757
0.15992	0.451039
0.18779	0.51632
