Adsorption isotherm of Methane on COF-JLU2
DOI: 10.1002/chem.201501206
Article source: Figure 4e
Adsorbate Methane: InChIKey VNWKTOKETHGBQD-UHFFFAOYSA-N
Kind: experiment
Temperature: 273 K
Tabular data in the source: 0
pressure (bar)	uptake (mg/g)
0.038342	0.25549
0.078566	0.476711
0.104919	0.616266
0.131272	0.745779
0.160597	0.884891
0.329615	1.54043
0.396191	1.7999
0.462768	2.04386
0.52657	2.26715
0.593147	2.48837
0.659723	2.72613
0.724913	2.97423
0.790102	3.18511
0.855292	3.45979
0.921868	3.72473
0.264764	1.31751
0.236894	1.21662
0.211679	1.10386
0.18779	0.985163
0.017916	0.106825
0.009954	0.059347
0.992037	3.97033
