Adsorption isotherm of Nitrogen on COF-JLU2
DOI: 10.1002/chem.201501206
Article source: Figure 4a
Adsorbate Nitrogen: InChIKey IJGRMHOSHXDMSA-UHFFFAOYSA-N
Kind: experiment
Temperature: 77 K
Tabular data in the source: 0
pressure (bar)	uptake (cm3(STP)/g)
8.3e-05	53.4668
0.008341	66.352
0.0166	76.5245
0.022794	79.9154
0.03415	85.3407
0.04757	90.0879
0.054797	92.1224
0.062023	94.1569
0.073379	95.5132
0.079573	96.1914
0.089897	98.9041
0.096091	100.939
0.106414	102.295
0.145643	105.686
0.174549	110.433
0.186937	110.433
0.236489	115.858
0.277783	121.284
0.320109	126.031
0.363468	130.778
0.400632	138.238
0.435732	140.951
0.48322	149.089
0.524513	155.192
0.56271	161.974
0.606069	169.434
0.645298	178.25
0.691753	187.744
0.733047	196.56
0.776405	208.089
0.81357	217.584
0.857961	231.825
0.894093	248.101
0.935386	268.446
0.970486	295.573
0.990101	321.343
0.984939	328.125
1.01281	356.608
0.206551	126.031
0.243716	151.123
0.276751	161.296
0.309786	170.79
0.340756	175.537
0.372759	187.744
0.403729	196.56
0.435732	210.124
0.467735	219.618
0.501802	230.469
0.533805	235.216
0.56271	246.067
0.59781	257.595
0.633942	267.09
0.664912	279.975
0.697947	288.791
0.732015	299.642
0.761953	307.78
0.79602	314.562
0.829055	323.378
0.858993	328.125
0.892028	334.229
