Adsorption isotherm of Phenylethyl Alcohol on Activated Carbon
DOI: 10.1016/j.supflu.2017.06.001
Article source: Figure 4
Adsorbate Phenylethyl Alcohol: InChIKey WRMNZCZEMHIOCP-UHFFFAOYSA-N
Kind: experiment
Temperature: 323 K
Tabular data in the source: 0
pressure (bar)	uptake (g/g)
89.917	0.13963
97.941	0.17792
107.057	0.19238
113.024	0.20878
121.983	0.25014
