Adsorption isotherm of Carbon Dioxide on Silica
DOI: 10.1016/j.supflu.2017.06.001
Article source: Figure 7
Adsorbate Carbon Dioxide: InChIKey CURLTUGMZLYLDI-UHFFFAOYSA-N
Kind: experiment
Temperature: 323 K
Tabular data in the source: 0
pressure (bar)	uptake (g/g)
80.161	3.3556
85.059	3.5193
92.675	3.7361
99.656	4.086
106.014	4.031
