Adsorption isotherm of Phenylethyl Alcohol on Silica
DOI: 10.1016/j.supflu.2017.06.001
Article source: Figure 3
Adsorbate Phenylethyl Alcohol: InChIKey WRMNZCZEMHIOCP-UHFFFAOYSA-N
Kind: experiment
Temperature: 328 K
Tabular data in the source: 0
pressure (bar)	uptake (g/g)
80.85	0.10286
89.832	0.11722
99.048	0.1406
106.834	0.18387
119.969	0.21987
