Adsorption isotherm of Phenylethyl Alcohol on Silica
DOI: 10.1016/j.supflu.2017.06.001
Article source: Figure 3
Adsorbate Phenylethyl Alcohol: InChIKey WRMNZCZEMHIOCP-UHFFFAOYSA-N
Kind: experiment
Temperature: 333 K
Tabular data in the source: 0
pressure (bar)	uptake (g/g)
81.959	0.08199
89.632	0.08705
97.661	0.09593
108.247	0.16016
121.998	0.19831
