Adsorption isotherm of Phenylethyl Alcohol on Activated Carbon
DOI: 10.1016/j.supflu.2017.06.001
Article source: Figure 4
Adsorbate Phenylethyl Alcohol: InChIKey WRMNZCZEMHIOCP-UHFFFAOYSA-N
Kind: experiment
Temperature: 333 K
Tabular data in the source: 0
pressure (bar)	uptake (g/g)
97.957	0.09113
103.076	0.11649
113.04	0.14339
122.038	0.16056
132.018	0.21977
