Adsorption isotherm of Carbon Dioxide on Silica
DOI: 10.1016/j.supflu.2017.06.001
Article source: Figure 7
Adsorbate Carbon Dioxide: InChIKey CURLTUGMZLYLDI-UHFFFAOYSA-N
Kind: experiment
Temperature: 333 K
Tabular data in the source: 0
pressure (bar)	uptake (g/g)
81.92	2.9951
89.692	3.3039
97.572	3.8481
108.252	3.8076
122.021	3.68
