Adsorption isotherm of Carbon Dioxide on Silica
DOI: 10.1016/j.supflu.2017.06.001
Article source: Figure 7
Adsorbate Carbon Dioxide: InChIKey CURLTUGMZLYLDI-UHFFFAOYSA-N
Kind: experiment
Temperature: 328 K
Tabular data in the source: 0
pressure (bar)	uptake (g/g)
80.83	2.9476
89.872	3.549
98.974	4.0465
106.804	3.9302
120.034	3.9848
