Adsorption isotherm of Phenylethyl Alcohol on Activated Carbon
DOI: 10.1016/j.supflu.2017.06.001
Article source: Figure 4
Adsorbate Phenylethyl Alcohol: InChIKey WRMNZCZEMHIOCP-UHFFFAOYSA-N
Kind: experiment
Temperature: 328 K
Tabular data in the source: 0
pressure (bar)	uptake (g/g)
93.898	0.12141
102.063	0.1486
110.009	0.16143
117.037	0.19672
122.038	0.22122
