Adsorption isotherm of Nitrogen on {[Zn(INAIP)(DMF)]*0.5DMF*4H2O}n
DOI: 10.1007/s11426-011-4348-1
Adsorbate Nitrogen: InChIKey IJGRMHOSHXDMSA-UHFFFAOYSA-N
Temperature: 77 K
Tabular data in the source: 0
pressure (bar)	uptake (cm3(STP)/g)
0.00372489	17.9198
0.00515504	2.47429
0.00515504	8.99574
0.00515504	28.4457
0.0123058	34.1663
0.0566402	48.6965
0.0966842	50.2983
0.201085	51.9
0.301195	52.8153
0.402735	53.273
0.547179	53.5018
0.703065	54.0738
0.810326	54.1883
0.876112	54.9891
0.9562	57.3918
0.976222	61.2818
0.991954	67.3456
0.993384	73.4094
