Adsorption isotherm of Hydrogen Deuteride on HKUST-1:Pt/AC
DOI: 10.1016/j.micromeso.2014.10.041
Article source: Figure 5
Adsorbate Hydrogen Deuteride: InChIKey UFHFLCQGNIYNRP-OUBTZVSYSA-N
Kind: experiment
Isotherm type: excess
Temperature: 295 K
Tabular data in the source: 0
pressure (bar)	uptake (wt%)
0.6	0.925197
4.8	1.29528
15.6	1.5
30.4	1.63386
52	1.58661
71	1.54724
