Adsorption isotherm of Hydrogen on HKUST BM-0
DOI: 10.1016/j.micromeso.2014.10.041
Article source: Figure 1a
Adsorbate Hydrogen: InChIKey UFHFLCQGNIYNRP-UHFFFAOYSA-N
Kind: experiment
Isotherm type: excess
Temperature: 295 K
Tabular data in the source: 0
pressure (bar)	uptake (wt%)
5.54415	0.050437
25.1335	0.201747
46.386	0.339301
57.4743	0.409607
76.8789	0.530349
88.152	0.599127
