Adsorption isotherm of Hydrogen Deuteride on HKUST BM-250
DOI: 10.1016/j.micromeso.2014.10.041
Article source: Figure 1a
Adsorbate Hydrogen Deuteride: InChIKey UFHFLCQGNIYNRP-OUBTZVSYSA-N
Kind: experiment
Isotherm type: excess
Temperature: 295 K
Tabular data in the source: 0
pressure (bar)	uptake (wt%)
13.8604	0.093231
34.7433	0.230786
38.809	0.249127
63.2033	0.389738
65.4209	0.391266
79.0965	0.499782
