Adsorption isotherm of Hydrogen Deuteride on HKUST BM-100
DOI: 10.1016/j.micromeso.2014.10.041
Article source: Figure 1a
Adsorbate Hydrogen Deuteride: InChIKey UFHFLCQGNIYNRP-OUBTZVSYSA-N
Kind: experiment
Isotherm type: excess
Temperature: 295 K
Tabular data in the source: 0
pressure (bar)	uptake (wt%)
3.6961	0.030568
18.6653	0.136026
29.5688	0.181878
43.0595	0.256769
44.3532	0.272052
68.9322	0.473799
82.6078	0.53952
