Adsorption isotherm of Hydrogen Deuteride on HKUST
DOI: 10.1016/j.micromeso.2014.10.041
Article source: Figure 5
Adsorbate Hydrogen Deuteride: InChIKey UFHFLCQGNIYNRP-OUBTZVSYSA-N
Kind: experiment
Isotherm type: excess
Temperature: 295 K
Tabular data in the source: 0
pressure (bar)	uptake (wt%)
0.6	1.79134
2.2	2.35827
4.8	2.66535
12	2.90945
36.6	2.95669
51.2	2.98031
51.4	3.00394
76	2.79134
