Adsorption isotherm of Hydrogen Deuteride on HKUST BM-250
DOI: 10.1016/j.micromeso.2014.10.041
Article source: Figure 1a
Adsorbate Hydrogen Deuteride: InChIKey UFHFLCQGNIYNRP-OUBTZVSYSA-N
Kind: experiment
Isotherm type: excess
Temperature: 295 K
Tabular data in the source: 0
pressure (bar)	uptake (wt%)
19.5893	0.055022
42.1355	0.126856
43.4292	0.129913
53.963	0.134498
67.269	0.180349
73.1828	0.171179
80.2053	0.200218
80.3901	0.223144
