Adsorption isotherm of Hydrogen Deuteride on HKUST
DOI: 10.1016/j.micromeso.2014.10.041
Article source: Figure 5
Adsorbate Hydrogen Deuteride: InChIKey UFHFLCQGNIYNRP-OUBTZVSYSA-N
Kind: experiment
Isotherm type: excess
Temperature: 295 K
Tabular data in the source: 0
pressure (bar)	uptake (wt%)
0	0.972441
0.6	1.65748
1.4	1.94094
4	2.34252
5.6	2.50787
15.4	2.78346
30	2.85433
42.6	2.84646
49.4	2.83858
56.2	2.79134
83	2.7126
89	2.59449
