Adsorption isotherm of Hydrogen/Deuterium Mixture on CPO-27-Co (10 A)
DOI: 10.1021/Nn405420t
Adsorbate Hydrogen/Deuterium Mixture: InChIKey NIST-ISODB-FD90E2D29941002F3BA4
Temperature: 60 K
Tabular data in the source: 0
pressure (bar)	uptake (mol/mol)
0.000830845	1.81306
0.000865506	1.95512
0.00101854	1.77285
0.00103398	2.17856
0.00110933	2.38152
0.00122278	1.73261
0.0013071	1.61102
0.00139775	2.68619
0.0014963	1.53012
0.00172755	1.51009
0.00173456	3.0314
0.00225512	1.46999
0.00238759	3.51877
0.00258893	1.40938
0.00311688	1.38943
0.00375249	1.36947
0.00421862	1.30882
0.00542363	1.30927
0.00716094	1.35032
0.00822091	1.28972
0.00978656	4.92085
0.0098046	5.08313
0.0114596	1.27002
0.0147751	1.29075
0.0183388	1.18971
0.0207936	1.18993
0.0245155	1.16994
0.0283851	1.1702
0.0320937	1.15013
0.0354332	1.10973
0.0459452	1.17104
