Adsorption isotherm of Deuterium on MOF-74-Co
DOI: 10.1021/Nn405420t
Adsorbate Deuterium: InChIKey UFHFLCQGNIYNRP-VVKOMZTBSA-N
Temperature: 20 K
Tabular data in the source: 0
pressure (bar)	uptake (mmol/g)
1.02466e-05	2.15517
1.37471e-05	3.16092
1.75013e-05	4.52586
2.23898e-05	6.32184
3.52769e-05	9.05172
4.48012e-05	10.2011
5.84804e-05	11.2787
6.80691e-05	12.2126
9.63186e-05	12.931
0.00011834	13.6494
0.000153596	14.2241
0.000193486	14.6552
0.000251131	15.2299
0.000487641	16.4511
0.000579135	16.6667
0.000998711	17.3851
0.00125502	17.6006
0.00152947	17.6006
0.0019787	17.8879
0.00248456	18.0316
0.00303522	18.2471
0.0035989	18.319
0.00478156	18.4626
0.00617604	18.6063
0.00775479	18.75
0.00945823	18.8218
0.0153271	19.0374
0.0197806	19.1092
0.0311616	19.3247
0.0369182	19.3247
0.0491304	19.6121
0.0772094	19.6121
0.0942454	19.7557
0.125015	19.7557
0.246686	19.8994
