Adsorption isotherm of Hydrogen/Deuterium Mixture on CPO-27-Co (10 A)
DOI: 10.1021/Nn405420t
Adsorbate Hydrogen/Deuterium Mixture: InChIKey NIST-ISODB-FD90E2D29941002F3BA4
Temperature: 40 K
Tabular data in the source: 0
pressure (bar)	uptake (mol/mol)
5.9521e-05	1.52444
6.75569e-05	1.38268
8.13336e-05	1.36272
9.84804e-05	1.38334
0.000118563	1.36338
0.000152866	1.38411
0.000230808	1.48626
0.000284571	1.48663
0.000329488	1.48689
0.00039668	1.46693
0.000457994	1.4469
0.000466348	1.42665
0.000517821	1.42683
0.00061813	1.34601
0.000679266	1.12305
0.000873293	1.12349
0.00105738	1.14411
0.00130365	1.14448
0.00167602	1.14493
0.00211013	1.14533
0.0026016	1.1457
0.00301224	1.14596
0.00412373	1.14651
0.00552828	1.14703
0.00649935	1.10675
0.00818257	1.10715
0.0105497	1.12788
0.0148324	1.16905
0.0167221	1.12869
0.0205584	1.10877
0.0276395	1.12958
0.0385283	1.10988
0.0527448	1.11043
0.078739	1.13142
0.103371	1.1319
0.161371	1.17326
0.235905	1.19421
0.285635	1.21483
0.352163	1.2152
0.416379	1.21549
