Adsorption isotherm of Hydrogen/Deuterium Mixture on COF-1 (9 A)
DOI: 10.1021/Nn405420t
Adsorbate Hydrogen/Deuterium Mixture: InChIKey NIST-ISODB-FD90E2D29941002F3BA4
Temperature: 70 K
Tabular data in the source: 0
pressure (bar)	uptake (mol/mol)
0.00272791	1.18693
0.00396041	1.18619
0.00493106	1.20879
0.00587544	1.25452
0.00731678	1.23104
0.00834911	1.13861
0.0113551	1.02279
0.0141338	1.11451
0.0161232	1.09121
0.0205215	1.09073
0.0278901	1.1362
0.0318156	1.11289
0.0413885	1.13541
0.0550529	1.08875
0.068552	1.08831
0.0782006	1.06501
0.0973756	1.06457
0.21442	1.08603
0.304542	1.08533
0.396218	1.0848
0.482717	1.06137
0.641953	1.06079
0.732229	1.06053
0.853717	1.06022
1.01743	1.05987
