Adsorption isotherm of Hydrogen/Deuterium Mixture on COF-1 (9 A)
DOI: 10.1021/Nn405420t
Adsorbate Hydrogen/Deuterium Mixture: InChIKey NIST-ISODB-FD90E2D29941002F3BA4
Temperature: 60 K
Tabular data in the source: 0
pressure (bar)	uptake (mol/mol)
0.000450402	1.85874
0.000950583	1.55771
0.00126541	1.32672
0.00171981	1.37219
0.00204984	1.34879
0.0023899	1.34849
0.00297625	1.32501
0.00354699	1.32466
0.00451419	1.34721
0.00526308	1.34691
0.006699	1.34642
0.00951744	1.2766
0.0132233	1.29898
0.015417	1.29867
0.0209575	1.29806
0.027269	1.27449
0.0354846	1.22788
0.0422941	1.20449
0.0526538	1.25013
0.064149	1.22669
0.0798859	1.20321
0.10169	1.17969
0.196373	1.13229
0.318099	1.15437
0.423033	1.1538
0.515386	1.13036
0.627839	1.12996
0.748312	1.10657
0.834946	1.12939
1.03978	1.10591
