Adsorption isotherm of Hydrogen on MOF-74-Co
DOI: 10.1021/Nn405420t
Adsorbate Hydrogen: InChIKey UFHFLCQGNIYNRP-UHFFFAOYSA-N
Temperature: 40 K
Tabular data in the source: 0
pressure (bar)	uptake (mmol/g)
1.15902e-05	0.649185
1.49927e-05	1.01076
2.5034e-05	1.51775
3.13914e-05	1.59098
3.32851e-05	1.80742
4.55219e-05	2.09724
5.88017e-05	2.31471
9.28667e-05	2.89347
0.000135363	3.90408
0.000180638	4.554
0.000214719	4.91513
0.000247771	5.13201
0.000277965	5.34875
0.000568709	6.43318
0.000637999	6.64991
0.000779489	6.93914
0.000979603	7.22852
0.00109817	7.37321
0.00173688	8.09606
0.00218117	8.31338
0.00273905	8.53071
0.00334411	8.74789
0.00396625	8.89287
0.00498081	9.1102
0.00625951	9.39957
0.00722304	9.61646
0.0113991	10.1232
0.014735	10.4127
0.0201669	10.7746
0.029181	11.0647
0.0487955	11.7158
0.0612774	11.9331
0.079325	12.3667
0.0940156	12.4396
0.121352	12.5851
0.234328	13.5251
0.349275	13.9595
0.600308	14.5386
0.732366	14.6838
0.844484	14.8286
1.03176	15.1178
1.15664	15.2625
1.29663	15.4072
