Adsorption isotherm of Deuterium on MOF-74-Co
DOI: 10.1021/Nn405420t
Adsorbate Deuterium: InChIKey UFHFLCQGNIYNRP-VVKOMZTBSA-N
Temperature: 40 K
Tabular data in the source: 0
pressure (bar)	uptake (mmol/g)
1.10108e-05	1.15324
1.50477e-05	1.37101
1.94514e-05	1.66053
3.25972e-05	2.52778
4.59568e-05	3.03389
6.11505e-05	3.39561
9.69282e-05	4.33461
0.000111851	4.5515
0.000137053	5.12893
0.000375025	7.07942
0.000457193	7.1525
0.000704044	8.0193
0.00102021	8.45351
0.0013963	8.81538
0.00196857	9.3215
0.00247571	9.68292
0.0030226	9.9001
0.00379848	10.1895
0.00505417	10.5512
0.00582801	10.696
0.00732943	11.0575
0.00946738	11.2749
0.0182949	12.287
0.0250207	12.5768
0.0373491	13.1553
0.0526563	13.6614
0.0589861	13.734
0.0722254	14.2394
0.0906338	14.3847
0.1139	14.6741
0.347351	16.1929
0.461843	16.4825
0.709117	17.0611
0.841675	17.2782
0.998282	17.4231
1.15195	17.64
