Adsorption isotherm of Hydrogen on MOF-74-Co
DOI: 10.1021/Nn405420t
Adsorbate Hydrogen: InChIKey UFHFLCQGNIYNRP-UHFFFAOYSA-N
Temperature: 60 K
Tabular data in the source: 0
pressure (bar)	uptake (mmol/g)
2.53916e-05	0.138435
3.67122e-05	0.351423
4.47548e-05	0.422029
5.77231e-05	0.492343
7.04709e-05	0.706208
7.89405e-05	0.777253
0.00010189	0.919196
0.000143328	1.20396
0.000169742	1.20308
0.000207076	1.34532
0.000267276	1.48726
0.000326069	1.6295
0.000386447	1.70025
0.000512684	1.77042
0.000680644	1.91221
0.000830348	2.05445
0.00110238	2.19625
0.00120055	2.26744
0.0015065	2.40953
0.00189038	2.55162
0.00237214	2.69371
0.00297667	2.8358
0.00353037	2.97818
0.0049697	3.33457
0.00660754	3.61963
0.00853454	3.8332
0.0101223	3.97558
0.0138532	4.33212
0.0169367	4.68925
0.0212838	4.97459
0.0283185	5.33128
0.0345979	5.61677
0.0460659	6.04509
0.0547155	6.33073
0.0749359	6.7589
0.111688	7.18663
0.221484	7.97104
0.222129	8.25756
0.341528	8.97166
0.467404	9.3282
0.622342	9.75652
0.739192	10.0422
1.01237	10.4703
1.23953	10.9707
