Adsorption isotherm of Hydrogen/Deuterium Mixture on COF-1 (9 A)
DOI: 10.1021/Nn405420t
Adsorbate Hydrogen/Deuterium Mixture: InChIKey NIST-ISODB-FD90E2D29941002F3BA4
Temperature: 50 K
Tabular data in the source: 0
pressure (bar)	uptake (mol/mol)
0.000243596	1.99822
0.000324444	1.65202
0.00036241	1.42139
0.000451315	1.39791
0.000549895	1.35143
0.000641136	1.35112
0.000834142	1.35059
0.000951437	1.35033
0.00121196	1.16551
0.00141306	1.16521
0.00219099	1.16433
0.00304502	1.11759
