Adsorption isotherm of Hydrogen/Deuterium Mixture on COF-1 (9 A)
DOI: 10.1021/Nn405420t
Adsorbate Hydrogen/Deuterium Mixture: InChIKey NIST-ISODB-FD90E2D29941002F3BA4
Temperature: 40 K
Tabular data in the source: 0
pressure (bar)	uptake (mol/mol)
5.34872e-05	2.66946
6.67375e-05	2.20818
6.84368e-05	1.47081
8.14948e-05	1.65479
8.342e-05	1.33216
9.72904e-05	1.26273
0.000123857	1.21616
0.00017595	1.16938
0.000244557	1.09959
0.000278952	1.09933
0.000339782	1.12198
0.000404939	1.12162
0.0005153	1.16723
0.000655949	1.1437
0.000872409	1.12009
0.00101716	1.11978
0.00157747	1.07282
0.00214452	1.04916
0.00291461	1.09463
0.00396205	1.09402
0.00515466	1.09349
