Adsorption isotherm of Deuterium on MOF-74-Co
DOI: 10.1021/Nn405420t
Adsorbate Deuterium: InChIKey UFHFLCQGNIYNRP-VVKOMZTBSA-N
Temperature: 60 K
Tabular data in the source: 0
pressure (bar)	uptake (mmol/g)
1.29077e-05	0.145423
1.66483e-05	0.218797
2.08915e-05	0.364073
2.8572e-05	0.65389
3.48321e-05	0.726969
5.19182e-05	1.16133
6.3387e-05	1.37851
8.4157e-05	1.52408
0.000115011	1.74184
0.000180976	1.96035
0.000284571	2.1068
0.000460585	2.32545
0.000685015	2.54366
0.00101808	2.68981
0.00131407	2.83524
0.00165021	3.05256
0.00195727	3.19755
0.00252633	3.34297
0.00409798	3.77777
0.00560867	4.13964
0.00684747	4.35681
0.0117603	4.86396
0.0196938	5.65915
0.0357602	6.09454
0.0413247	6.45553
0.054987	6.81725
0.122791	8.19031
0.224433	9.27415
0.48476	10.1427
0.559381	10.3596
0.746487	11.0095
1.18066	11.7324
