Adsorption isotherm of Hydrogen/Deuterium Mixture on CPO-27-Co (10 A)
DOI: 10.1021/Nn405420t
Adsorbate Hydrogen/Deuterium Mixture: InChIKey NIST-ISODB-FD90E2D29941002F3BA4
Temperature: 20 K
Tabular data in the source: 0
pressure (bar)	uptake (mol/mol)
2.78061e-05	0.874013
3.49084e-05	0.85413
4.48797e-05	0.854572
6.05104e-05	0.895667
7.50291e-05	0.936614
9.70108e-05	0.977634
0.000145646	1.0392
0.000183367	1.03961
0.000236418	1.06034
0.000325492	1.10147
0.000448136	1.1426
