Adsorption isotherm of Hydrogen/Deuterium Mixture on COF-1 (9 A)
DOI: 10.1021/Nn405420t
Adsorbate Hydrogen/Deuterium Mixture: InChIKey NIST-ISODB-FD90E2D29941002F3BA4
Temperature: 30 K
Tabular data in the source: 0
pressure (bar)	uptake (mol/mol)
2.32316e-05	2.80937
2.83576e-05	2.34814
2.9662e-05	2.0946
2.9677e-05	1.97939
3.24272e-05	1.77184
4.04148e-05	1.56403
5.1498e-05	1.31008
6.27596e-05	1.21752
7.6468e-05	1.17104
0.000101714	1.12439
0.000138252	1.14682
0.000172116	1.19246
0.000200697	1.16911
0.000291367	1.16837
0.00035501	1.12189
0.000461881	1.12136
0.000550453	1.12101
0.000732032	1.12044
0.000994993	1.14287
0.0011858	1.14252
