Adsorption isotherm of Hydrogen/Deuterium Mixture on COF-1 (9 A)
DOI: 10.1021/Nn405420t
Adsorbate Hydrogen/Deuterium Mixture: InChIKey NIST-ISODB-FD90E2D29941002F3BA4
Temperature: 20 K
Tabular data in the source: 0
pressure (bar)	uptake (mol/mol)
1.01312e-05	7.02762
1.2267e-05	3.40973
1.68364e-05	1.22016
2.09817e-05	1.03538
2.50075e-05	1.01199
3.32537e-05	1.03446
4.14076e-05	1.03402
5.38778e-05	1.01045
6.85836e-05	0.98693
8.35391e-05	1.00958
0.000108675	1.03209
0.161233	1.0866
