Adsorption isotherm of Hydrogen/Deuterium Mixture on CPO-27-Co (10 A)
DOI: 10.1021/Nn405420t
Adsorbate Hydrogen/Deuterium Mixture: InChIKey NIST-ISODB-FD90E2D29941002F3BA4
Temperature: 50 K
Tabular data in the source: 0
pressure (bar)	uptake (mol/mol)
0.000195411	1.34398
0.000235261	1.32402
0.000251177	1.79067
0.000270085	1.26341
0.000277536	2.05454
0.000326092	1.26375
0.000353566	1.2436
0.000415671	1.20332
0.000420155	2.62322
0.000545708	1.2038
0.000672806	1.20417
0.000706269	3.19209
0.000926318	1.2453
0.0010695	1.22527
0.00141609	1.28662
0.001736	1.24641
0.00219185	1.2671
0.00236985	1.22667
0.00278606	1.18639
0.00315	1.16632
0.00365763	1.18687
0.00397713	1.18702
0.00546022	1.20786
0.00671274	1.18794
0.0141433	1.1284
0.0189605	1.12892
0.0218912	1.10889
0.0264308	1.10922
