Adsorption isotherm of Hydrogen on MOF-74-Co
DOI: 10.1021/Nn405420t
Adsorbate Hydrogen: InChIKey UFHFLCQGNIYNRP-UHFFFAOYSA-N
Temperature: 20 K
Tabular data in the source: 0
pressure (bar)	uptake (mmol/g)
1.06089e-05	2.72989
1.3484e-05	3.95115
1.72084e-05	5.53161
2.25538e-05	6.96839
2.70913e-05	8.18966
3.63178e-05	9.12356
4.33421e-05	9.77011
5.78669e-05	10.3448
7.97315e-05	11.2069
0.000109678	11.9253
0.000126835	12.2845
0.000150508	12.4282
0.000411538	13.9368
0.000668529	14.3678
0.000840117	14.5833
0.00105572	14.7989
0.00125279	14.9425
0.00148782	15.158
0.00203343	15.3017
0.0027039	15.5172
0.0033005	15.6609
0.00402884	15.8046
0.00550174	15.8764
0.00774087	16.092
0.00971203	16.1638
0.0132733	16.3075
0.0181409	16.4511
0.0221437	16.5948
0.0311057	16.6667
0.0490027	16.8822
0.0669175	16.954
0.0889099	17.0977
0.108528	17.2414
0.128576	17.2414
0.253302	17.2414
0.366611	17.4569
0.500643	17.5287
0.66463	17.6006
0.811945	17.8161
0.936659	17.9598
