Adsorption isotherm of Hydrogen/Deuterium Mixture on CPO-27-Co (10 A)
DOI: 10.1021/Nn405420t
Adsorbate Hydrogen/Deuterium Mixture: InChIKey NIST-ISODB-FD90E2D29941002F3BA4
Temperature: 30 K
Tabular data in the source: 0
pressure (bar)	uptake (mol/mol)
3.70962e-05	1.13821
5.23034e-05	1.19967
6.27899e-05	1.15942
7.24953e-05	1.13939
9.51744e-05	1.13987
0.00011801	1.18082
0.00015449	1.16101
0.000190471	1.16138
0.00024418	1.14153
0.000276077	1.12146
0.000362452	1.12194
0.000509577	1.16311
0.00109635	1.10361
0.00138029	1.10402
0.00198166	1.14522
