Adsorption isotherm of Hydrogen/Deuterium Mixture on CPO-27-Co (10 A)
DOI: 10.1021/Nn405420t
Adsorbate Hydrogen/Deuterium Mixture: InChIKey NIST-ISODB-FD90E2D29941002F3BA4
Temperature: 70 K
Tabular data in the source: 0
pressure (bar)	uptake (mol/mol)
0.00335282	2.05893
0.00343977	2.24153
0.00347	1.85615
0.00371151	2.48507
0.00372881	2.66763
0.00388991	1.77521
0.00415815	1.65363
0.00468803	1.61327
0.00476574	3.07374
0.00539722	1.57295
0.00542338	3.39852
0.00597585	1.55285
0.00636327	1.55296
0.00761746	1.49242
0.00811951	1.35055
0.00828934	3.88608
0.00918037	1.33048
0.0126395	1.37161
0.0143311	1.37183
0.0159346	4.51603
0.018268	1.31141
0.0239834	1.31189
0.0288742	1.29193
0.0327393	1.29215
0.0354977	1.27201
0.0419711	1.2723
0.0450713	5.51178
0.0464708	1.2522
0.054944	1.25249
0.0640457	1.15134
0.0879265	1.17219
0.102097	1.19273
0.123268	1.19307
0.151116	1.15286
0.190797	1.17355
0.220914	1.17381
0.221562	7.0156
0.271593	1.15389
0.300711	1.13379
0.348178	1.13404
0.507549	1.13471
0.640823	1.1554
0.864	1.1965
0.976871	1.17643
1.22638	1.15655
1.53963	1.13666
1.82037	1.13696
2.29184	1.13736
2.70975	1.13766
3.06375	1.11759
3.46398	1.09752
