Adsorption isotherm of Nitrogen on MnO2 NW
DOI: 10.1039/c6en00246c
Article source: Figure 2- MnO2 nanowires
Adsorbate Nitrogen: InChIKey IJGRMHOSHXDMSA-UHFFFAOYSA-N
Kind: experiment
Temperature: 77 K
Tabular data in the source: 0
pressure (bar)	uptake (cm3(STP)/g)
0.004742	0.58
0.008592	1.41
0.012017	4.16
0.01373	4.44
0.018289	5.4
0.025706	7.33
0.03212	7.33
0.039679	6.51
0.062072	7.75
0.065486	7.75
0.07191	8.31
0.081749	8.86
0.090301	9.14
0.100859	9.41
0.105844	9.69
0.110981	9.69
0.118966	9.42
0.125096	8.6
0.135938	9.29
0.143922	10.53
0.149059	10.39
0.158037	10.53
0.164025	10.53
0.172303	10.67
0.177866	10.67
0.18585	11.22
0.189701	10.4
0.202275	10.53
0.252522	11.16
0.303286	12.3
0.353685	12.92
0.404165	13.63
0.455284	14.59
0.505054	15.9
0.555626	16.26
0.606653	16.97
0.657326	19.06
0.709427	19.86
0.759198	21.78
0.811299	23.7
0.824421	24.57
0.832233	25.09
0.845973	26.48
0.862053	26.31
0.873918	28.39
0.889633	29.78
0.905359	32.56
0.916677	33.87
0.936354	34.08
0.937611	34.56
0.958717	50.86
0.963844	39.16
0.973277	60.4
0.981991	79.99
0.984504	81.73
0.98881	93.34
0.994829	73.15
0.99645	100.97
1.00553	87.89
1.00705	89.68
