Adsorption isotherm of Nitrogen on MnO2@ZIF-8
DOI: 10.1039/c6en00246c
Article source: Figure 2- MnO2 at ZIF8
Adsorbate Nitrogen: InChIKey IJGRMHOSHXDMSA-UHFFFAOYSA-N
Kind: experiment
Temperature: 77 K
Tabular data in the source: 0
pressure (bar)	uptake (cm3(STP)/g)
0.005451	47.74
0.005451	48.57
0.005573	78.92
0.005907	38.09
0.006272	136.99
0.006353	10.04
0.006475	55.67
0.006576	18.23
0.006606	142.33
0.006829	131.09
0.00692	28.92
0.007275	101.51
0.007387	92.89
0.007397	115.7
0.007397	117.27
0.007407	118.44
0.007721	107.95
0.007731	112.21
0.008197	156.2
0.00843	163.29
0.008653	168.53
0.009221	171.59
0.011034	176.06
0.012392	179.23
0.02906	190.95
0.064909	221.54
0.0818	223.19
0.10174	224.4
0.121681	226.4
0.141085	227.79
0.161745	228.92
0.183216	230.13
0.202528	230.83
0.252198	233
0.303134	234.75
0.353614	236.49
0.40455	238.14
0.454848	239.1
0.505693	240.93
0.556173	242.15
0.606298	243.63
0.65768	244.77
0.708799	247.03
0.759097	249.73
0.810752	252.94
0.821503	253.05
0.83429	255.11
0.846054	256.24
0.860604	254.07
0.869946	259.62
0.887911	257.46
0.893484	266.3
0.914681	265.26
0.921247	279.38
0.939029	273.75
0.949902	304.68
0.964269	288.14
0.975334	356.84
0.987635	320.46
0.98954	409.78
0.99492	341.77
1.00283	392.54
1.00672	455.61
