Adsorption isotherm of Nitrogen on ZIF-8
DOI: 10.1039/c6en00246c
Article source: Figure 2- ZIF 8
Adsorbate Nitrogen: InChIKey IJGRMHOSHXDMSA-UHFFFAOYSA-N
Kind: experiment
Temperature: 77 K
Tabular data in the source: 0
pressure (bar)	uptake (cm3(STP)/g)
9.1e-05	-15.05
0.000182	7.62
0.000699	127.2
0.000719	37.86
0.00079	179.79
0.000882	131.7
0.000973	120.37
0.000973	120.61
0.001054	173.12
0.001145	224.24
0.001145	156.27
0.001145	151.63
0.001165	10.56
0.001165	16.81
0.001236	144.35
0.001236	119.48
0.001246	96.78
0.001256	46.7
0.001256	32.54
0.001256	33.19
0.001419	168
0.001419	119.91
0.001419	114.63
0.00151	110.47
0.001601	25.94
0.001611	26.91
0.001611	28.07
0.001783	67.41
0.001783	68.19
0.002037	204.22
0.002047	156.29
0.002057	22.54
0.002067	23.48
0.002239	91.15
0.00231	190.45
0.002493	186.55
0.002574	260.02
0.002665	181.58
0.002675	180.22
0.002847	231.78
0.002847	232.26
0.002938	237.06
0.003384	218.52
0.004012	266.87
0.004448	326.65
0.004458	292.22
0.004539	311.23
0.004904	295.2
0.004995	292.38
0.005087	290.09
0.005796	318.16
0.006161	339.22
0.006606	337.3
0.00688	342.51
0.008309	342.07
0.010112	349.61
0.029141	418.58
0.058059	430.89
0.081597	432.02
0.095874	433.32
0.104588	434.1
0.124883	435.49
0.143213	435.4
0.163599	437.14
0.184432	437.49
0.202761	437.92
0.252694	439.75
0.303448	440.53
0.353655	441.75
0.404763	443.48
0.455334	444.96
0.505895	446.09
0.556376	447.31
0.606856	447.92
0.657245	450.26
0.709518	452.26
0.759542	454.61
0.811188	457.64
0.822688	458.68
0.83356	458.16
0.845415	460.24
0.86257	461.89
0.873614	463.11
0.887718	464.58
0.904508	469.52
0.915198	467.96
0.935584	480.61
0.938462	472.64
0.956518	498.03
0.961726	484.95
0.980674	513.2
0.990908	544.48
0.993411	697.84
0.996096	721.75
0.997099	610.41
0.998163	743.15
1.00283	757.88
