Adsorption isotherm of Nitrogen on MOF-74-Co
DOI: 10.1016/j.cattod.2011.08.019
Adsorbate Nitrogen: InChIKey IJGRMHOSHXDMSA-UHFFFAOYSA-N
Temperature: 77 K
Tabular data in the source: 0
pressure (bar)	uptake (cm3(STP)/g)
0.00397962	19.3314
0.00893479	143.012
0.012264	226.111
0.0219266	307.289
0.169761	317.236
0.272411	319.367
0.420013	323.517
0.577154	325.753
0.724678	327.97
0.878536	328.268
0.997213	330.429
