Adsorption isotherm of Water on Co-MOF-74(M)
DOI: 10.1016/j.cattod.2011.08.019
Adsorbate Water: InChIKey XLYOFNOQVPJJNP-UHFFFAOYSA-N
Temperature: 298 K
Tabular data in the source: 0
pressure (bar)	uptake (mg/g)
0.00504186	26.8657
0.0206953	194.03
0.0338369	349.254
0.0563888	447.761
0.14696	501.493
0.251984	525.373
0.342301	537.313
0.491172	552.239
0.574172	564.179
0.74008	573.134
0.859629	579.104
