Adsorption isotherm of Water on Co-MOF-74(S)
DOI: 10.1016/j.cattod.2011.08.019
Adsorbate Water: InChIKey XLYOFNOQVPJJNP-UHFFFAOYSA-N
Temperature: 298 K
Tabular data in the source: 0
pressure (bar)	uptake (mg/g)
0.00504186	26.8657
0.0206953	194.03
0.0289953	355.224
0.0494175	504.478
0.074372	597.015
0.186968	662.687
0.28957	689.552
0.375064	710.448
0.54838	734.328
0.692337	743.284
0.833837	749.254
