Adsorption isotherm of Water on Zeolite 13X
DOI: 10.1016/j.cattod.2011.08.019
Adsorbate Water: InChIKey XLYOFNOQVPJJNP-UHFFFAOYSA-N
Temperature: 298 K
Tabular data in the source: 0
pressure (bar)	uptake (mg/g)
0.0390972	11.9403
0.0833273	65.6716
0.0886604	140.299
0.0945577	307.463
0.15577	346.269
0.233928	364.179
0.338897	379.104
0.485293	388.06
0.575573	394.03
0.690244	400
0.848799	402.985
