Adsorption isotherm of Water on Carbon
DOI: 10.1016/j.cattod.2011.08.019
Adsorbate Water: InChIKey XLYOFNOQVPJJNP-UHFFFAOYSA-N
Temperature: 298 K
Tabular data in the source: 0
pressure (bar)	uptake (mg/g)
0.0390426	2.98507
0.131744	5.97015
0.231798	14.9254
0.305133	41.791
0.412869	110.448
0.47419	167.164
0.555115	238.806
0.628522	277.612
0.738697	346.269
0.787805	400
0.827357	486.567
