Adsorption isotherm of Carbon Dioxide on Co-MOF-74(M)
DOI: 10.1016/j.cattod.2011.08.019
Adsorbate Carbon Dioxide: InChIKey CURLTUGMZLYLDI-UHFFFAOYSA-N
Temperature: 298 K
Tabular data in the source: 0
pressure (bar)	uptake (mg/g)
0.00668034	15.1069
0.121653	117.211
0.222561	166.458
0.329212	200.621
0.513566	236.818
0.625842	252.124
0.803457	271.327
0.999707	290.565
