Adsorption isotherm of Carbon Dioxide on Co-MOF-74(M)
DOI: 10.1016/j.cattod.2011.08.019
Adsorbate Carbon Dioxide: InChIKey CURLTUGMZLYLDI-UHFFFAOYSA-N
Temperature: 273 K
Tabular data in the source: 0
pressure (bar)	uptake (mg/g)
0.00375037	20.7618
0.0380311	124.6
0.0966891	213.39
0.22596	275.898
0.398125	319.619
0.59789	352.071
0.803633	376.988
1.00316	401.893
