Adsorption isotherm of Nitrogen on Co-MOF-74(M)
DOI: 10.1016/j.cattod.2011.08.019
Adsorbate Nitrogen: InChIKey IJGRMHOSHXDMSA-UHFFFAOYSA-N
Temperature: 298 K
Tabular data in the source: 0
pressure (bar)	uptake (mg/g)
0.0124817	1.91034
0.0995019	3.96132
0.211368	6.05919
0.304541	6.23498
0.475476	10.3311
0.630882	14.3979
0.82971	16.6598
0.985116	20.7266
