Adsorption isotherm of Nitrogen on UiO-66(Zr)
DOI: 10.1021/La3004118
Adsorbate Nitrogen: InChIKey IJGRMHOSHXDMSA-UHFFFAOYSA-N
Temperature: 77 K
Tabular data in the source: 0
pressure (bar)	uptake (cm3(STP)/g)
0.00134483	172.872
0.00149212	142.52
0.0100222	184.738
0.0208704	199.24
0.0339345	207.141
0.0470177	211.082
0.0644492	218.978
0.0884384	225.545
0.11025	230.795
0.129885	234.728
0.15607	238.653
0.182243	245.217
0.206245	249.145
0.228063	253.075
0.260807	255.672
0.302266	262.216
0.339364	267.447
0.372082	275.322
0.41137	279.23
0.452822	287.094
0.492091	294.96
0.533544	302.824
0.555362	306.755
0.57718	310.685
0.60555	314.607
0.631735	318.532
0.660086	326.413
0.70809	334.268
0.734282	336.874
0.77357	340.781
0.808503	342.056
0.849994	342.001
0.891479	343.267
0.911126	344.561
0.935148	344.53
0.954801	344.504
0.985367	345.784
1.00065	347.084
