Adsorption isotherm of Carbon Dioxide, Methane on AlPO4-5
DOI: 10.1021/la9814337
Article source: Figure 2
Adsorbate Carbon Dioxide: InChIKey CURLTUGMZLYLDI-UHFFFAOYSA-N
Adsorbate Methane: InChIKey VNWKTOKETHGBQD-UHFFFAOYSA-N
Kind: experiment
Temperature: 303 K
Tabular data in the source: 0
pressure (bar)	Carbon Dioxide fraction	Carbon Dioxide uptake (mmol/g)	Methane fraction	Methane uptake (mmol/g)	total uptake (mmol/g)
0.9006	0.5	0.1603	0.5	0.07069	
