Adsorption isotherm of Carbon Dioxide on MCM-41
DOI: 10.1021/la9814337
Article source: Figure 7
Adsorbate Carbon Dioxide: InChIKey CURLTUGMZLYLDI-UHFFFAOYSA-N
Kind: experiment
Temperature: 303 K
Tabular data in the source: 0
pressure (bar)	uptake (mmol/g)
0.2331	0.06812
0.6345	0.3322
1.081	0.5425
1.646	0.7373
2.092	0.9357
2.623	1.153
3.143	1.397
