Adsorption isotherm of Methane on MCM-41
DOI: 10.1021/la9814337
Article source: Figure 7
Adsorbate Methane: InChIKey VNWKTOKETHGBQD-UHFFFAOYSA-N
Kind: experiment
Temperature: 303 K
Tabular data in the source: 0
pressure (bar)	uptake (mmol/g)
0.2778	0.01195
0.7194	0.03944
1.23	0.08246
1.94	0.1087
2.481	0.2032
2.947	0.2952
