Adsorption isotherm of Carbon Dioxide, Methane on MCM-41
DOI: 10.1021/la9814337
Article source: Figure 7
Adsorbate Carbon Dioxide: InChIKey CURLTUGMZLYLDI-UHFFFAOYSA-N
Adsorbate Methane: InChIKey VNWKTOKETHGBQD-UHFFFAOYSA-N
Kind: experiment
Temperature: 303 K
Tabular data in the source: 0
pressure (bar)	Carbon Dioxide fraction	Carbon Dioxide uptake (mmol/g)	Methane fraction	Methane uptake (mmol/g)	total uptake (mmol/g)
1.037	0.5	0.3021	0.5	0.09189	
2.576	0.5	0.5146	0.5	0.1861	
