Adsorption isotherm of Carbon Dioxide, Methane on MCM-41
DOI: 10.1021/la9814337
Article source: Figure 7
Adsorbate Carbon Dioxide: InChIKey CURLTUGMZLYLDI-UHFFFAOYSA-N
Adsorbate Methane: InChIKey VNWKTOKETHGBQD-UHFFFAOYSA-N
Kind: experiment
Temperature: 303 K
Tabular data in the source: 0
pressure (bar)	Carbon Dioxide fraction	Carbon Dioxide uptake (mmol/g)	Methane fraction	Methane uptake (mmol/g)	total uptake (mmol/g)
1.568	0.5	0.2507	0.5	0.1408	
1.851	0.5	0.3128	0.5	0.1754	
2.457	0.5	0.4274	0.5	0.2459	
2.983	0.5	0.4286	0.5	0.1658	
4.199	0.5	0.4583	0.5	0.3604	
5.376	0.5	0.7592	0.5	0.6255	
7.326	0.5	1.083	0.5	0.9239	
8.989	0.5	1.441	0.5	1.208	
11.1	0.5	1.96	0.5	1.679	
