Adsorption isotherm of Carbon Dioxide, Methane on AlPO4-5
DOI: 10.1021/la9814337
Article source: Figure 2
Adsorbate Carbon Dioxide: InChIKey CURLTUGMZLYLDI-UHFFFAOYSA-N
Adsorbate Methane: InChIKey VNWKTOKETHGBQD-UHFFFAOYSA-N
Kind: experiment
Temperature: 303 K
Tabular data in the source: 0
pressure (bar)	Carbon Dioxide fraction	Carbon Dioxide uptake (mmol/g)	Methane fraction	Methane uptake (mmol/g)	total uptake (mmol/g)
0.7133	0.5	0.09179	0.5	0.07879	
0.9387	0.5	0.1273	0.5	0.1076	
1.464	0.5	0.1679	0.5	0.1477	
1.973	0.5	0.2313	0.5	0.2109	
2.353	0.5	0.2807	0.5	0.2623	
2.888	0.5	0.3318	0.5	0.3087	
3.334	0.5	0.3594	0.5	0.3325	
4.413	0.5	0.4161	0.5	0.3912	
