Adsorption isotherm of Hydrogen on NOTT-101
DOI: 10.1021/Ja806624j
Adsorbate Hydrogen: InChIKey UFHFLCQGNIYNRP-UHFFFAOYSA-N
Temperature: 78 K
Tabular data in the source: 0
pressure (bar)	uptake (mmol/g)
0.290456	2.69643
1.30705	13.9133
2.90456	19.092
3.92116	21.0347
4.6473	21.7907
5.22822	22.87
6.24481	23.8421
6.97095	24.1668
8.71369	25.2478
9.87552	25.7888
12.1992	26.763
13.5062	27.0885
14.5228	27.3057
15.9751	27.5237
17.1369	27.849
18.444	27.9588
19.6058	28.0684
20.7676	28.2859
21.7842	28.3953
23.0913	28.3973
24.2531	28.3991
26.722	28.5108
28.029	28.5128
28.9004	28.5141
30.2075	28.5161
31.805	28.6264
33.8382	28.4139
35.4357	28.4164
39.2116	28.2065
41.0996	27.9937
43.7137	27.7821
45.8921	27.4619
48.361	27.25
50.6846	26.9301
53.0083	26.8258
55.4772	26.7218
57.8008	26.4019
60.1245	25.8662
62.3029	25.3304
64.7718	25.1185
67.0954	24.7986
