Adsorption isotherm of Hydrogen on NOTT-103
DOI: 10.1021/Ja806624j
Adsorbate Hydrogen: InChIKey UFHFLCQGNIYNRP-UHFFFAOYSA-N
Temperature: 78 K
Tabular data in the source: 0
pressure (bar)	uptake (mmol/g)
4.01436	23.1917
5.6243	25.6744
6.9404	27.4019
8.25453	28.5902
9.13128	29.5621
10.7353	30.4272
12.0478	31.1841
12.7771	31.6166
14.5262	32.3742
17.2949	33.349
19.6269	34.3232
22.2496	35.1899
25.8915	36.1661
28.9496	36.71
32.4439	37.1467
36.3748	37.5841
39.4318	37.8045
42.1977	38.0245
45.1083	38.029
49.3299	38.359
51.9498	38.4709
54.2783	38.4744
56.7535	38.8018
58.4995	38.6966
