Adsorption isotherm of Hydrogen on NOTT-102
DOI: 10.1021/Ja806624j
Adsorbate Hydrogen: InChIKey UFHFLCQGNIYNRP-UHFFFAOYSA-N
Temperature: 78 K
Tabular data in the source: 0
pressure (bar)	uptake (mmol/g)
0.475476	8.50793
0.773383	10.0876
1.92134	15.2663
3.99846	19.5722
5.05747	21.1553
6.03149	22.3872
7.08986	23.4441
8.06366	24.5006
9.07932	25.2066
10.0527	25.9124
11.576	26.7959
14.4953	28.2995
16.0606	28.9201
17.5835	29.5406
20.0366	30.0775
