Adsorption isotherm of Hydrogen on NOTT-103
DOI: 10.1021/Ja806624j
Adsorbate Hydrogen: InChIKey UFHFLCQGNIYNRP-UHFFFAOYSA-N
Temperature: 78 K
Tabular data in the source: 0
pressure (bar)	uptake (mmol/g)
0.145228	3.88244
0.726141	11.9713
1.45228	15.2076
2.0332	17.9045
3.63071	21.3578
4.79253	23.5164
5.95436	24.8122
7.11618	26.2159
8.13278	27.0802
9.43983	27.8371
10.6017	28.5938
13.6515	29.6769
15.1037	30.2183
16.7012	30.5443
18.2988	30.8703
21.3485	31.1985
22.6556	31.3083
24.2531	31.7421
25.8506	31.7446
27.7386	31.9632
29.6266	31.8583
31.6598	31.7536
33.5477	31.7565
35.5809	31.5439
37.3237	31.8701
39.2116	31.5495
41.2448	31.337
43.278	31.2323
45.166	31.4508
47.0539	30.9146
48.7967	30.9172
50.6846	30.7045
52.7178	30.2762
54.6058	30.2792
56.3485	30.3897
58.2365	30.0691
