Adsorption isotherm of Hydrogen on NOTT-103
DOI: 10.1021/Ja806624j
Adsorbate Hydrogen: InChIKey UFHFLCQGNIYNRP-UHFFFAOYSA-N
Temperature: 78 K
Tabular data in the source: 0
pressure (bar)	uptake (mmol/g)
0.306449	8.59488
0.903437	12.7189
1.37112	14.8255
1.66838	15.879
1.92337	16.9324
2.26292	17.9862
2.34823	18.6004
2.77213	19.4791
3.36581	20.8848
3.66254	21.4999
4.29786	22.3796
4.67927	23.0828
5.31459	23.9624
5.69578	24.4902
6.41535	25.1072
6.75415	25.5471
7.34687	26.1636
7.68546	26.4281
8.36263	26.9572
8.70133	27.3095
9.29383	27.7505
9.71688	27.9277
10.6479	28.5456
11.5365	29.0757
12.5518	29.5186
13.5674	30.1369
14.5403	30.4919
15.5555	30.8471
16.5708	31.2023
17.5437	31.5573
18.5589	31.9125
19.5741	32.18
