Adsorption isotherm of Hydrogen on NOTT-107
DOI: 10.1021/Ja806624j
Adsorbate Hydrogen: InChIKey UFHFLCQGNIYNRP-UHFFFAOYSA-N
Temperature: 78 K
Tabular data in the source: 0
pressure (bar)	uptake (mmol/g)
0.130588	3.06969
0.176715	6.2267
0.390909	8.50756
0.604355	10.1746
1.15607	11.8431
1.74943	12.9857
2.258	13.9525
2.85104	14.832
3.27462	15.4476
3.69799	15.8879
4.2906	16.4167
4.67158	16.7691
5.64496	17.4749
6.61823	18.093
7.76041	18.5364
8.60673	19.0663
9.70652	19.4219
11.9906	20.0457
13.5135	20.6662
15.5017	21.3764
16.559	21.5564
17.1087	21.5588
17.5318	21.7361
18.5045	21.9157
19.5194	22.0079
19.9846	22.0976
