Adsorption isotherm of Nitrogen on NOTT-103
DOI: 10.1021/Ja806624j
Adsorbate Nitrogen: InChIKey IJGRMHOSHXDMSA-UHFFFAOYSA-N
Temperature: 78 K
Tabular data in the source: 0
pressure (bar)	uptake (mmol/g)
0.000694293	0.0335185
0.00236014	0.125694
0.00374971	0.167593
0.00555565	0.234629
0.00652818	0.268148
0.008195	0.335185
0.0098618	0.402222
0.0138914	0.527915
0.0175033	0.66199
0.0416759	1.54185
0.072515	2.70662
0.102934	3.92166
