Adsorption isotherm of Nitrogen on NOTT-106
DOI: 10.1021/Ja806624j
Adsorbate Nitrogen: InChIKey IJGRMHOSHXDMSA-UHFFFAOYSA-N
Temperature: 78 K
Tabular data in the source: 0
pressure (bar)	uptake (mmol/g)
0.000935238	0.0373753
0.00155718	0.111927
0.00249242	0.149302
0.00358197	0.242542
0.00529522	0.354494
0.00638536	0.42912
0.00809803	0.559686
0.0102789	0.690323
0.0140157	0.970118
0.0180648	1.24996
0.0394	2.7238
0.0685205	4.77589
0.129401	9.34581
