Adsorption isotherm of Hydrogen on NOTT-105
DOI: 10.1021/Ja806624j
Adsorbate Hydrogen: InChIKey UFHFLCQGNIYNRP-UHFFFAOYSA-N
Temperature: 78 K
Tabular data in the source: 0
pressure (bar)	uptake (mmol/g)
0.604355	10.1746
0.902689	12.1051
1.24277	13.5973
1.6671	14.8268
2.17643	16.4074
2.72718	17.2867
3.36282	18.4295
3.70162	18.8694
4.25227	19.661
5.22575	20.4545
5.64934	21.0702
6.70728	21.7763
7.29967	22.1297
7.72283	22.3946
8.69599	22.925
9.37306	23.3664
9.66926	23.5431
10.5577	23.9854
11.5732	24.516
12.5459	24.6956
13.6035	25.1387
14.5341	25.4059
15.5493	25.7611
16.5645	26.0286
17.5795	26.2084
18.5523	26.4758
19.6519	26.656
