Adsorption isotherm of Nitrogen on NOTT-101
DOI: 10.1021/Ja806624j
Adsorbate Nitrogen: InChIKey IJGRMHOSHXDMSA-UHFFFAOYSA-N
Temperature: 78 K
Tabular data in the source: 0
pressure (bar)	uptake (mmol/g)
0.000710179	0.111793
0.00166012	0.142381
0.00225327	0.183077
0.00296528	0.223788
0.00379612	0.264515
0.00474527	0.325566
0.00652554	0.41719
0.00854322	0.518998
0.0192242	1.08905
0.0328724	1.81181
0.04735	2.62606
0.0623023	3.47085
0.0773729	4.33596
