Adsorption isotherm of Hydrogen on NOTT-101
DOI: 10.1021/Ja806624j
Adsorbate Hydrogen: InChIKey UFHFLCQGNIYNRP-UHFFFAOYSA-N
Temperature: 78 K
Tabular data in the source: 0
pressure (bar)	uptake (mmol/g)
6.49432	24.8131
7.95477	26.2172
10.4335	27.5151
12.7656	28.4893
15.6806	29.68
18.594	30.4394
21.798	31.0913
24.7106	31.635
27.4765	31.855
30.2428	32.1827
31.844	32.293
33.2997	32.4031
34.7554	32.5132
36.0656	32.6231
37.5213	32.7331
38.9766	32.7354
40.4323	32.8455
41.888	32.9555
43.1982	33.0654
44.6539	33.1755
46.1092	33.1777
47.419	33.1797
48.8743	33.182
50.3292	33.0764
51.7841	32.9708
53.2394	32.973
54.6947	32.9753
56.15	32.9775
57.605	32.8719
59.0607	32.982
60.516	32.9842
61.9713	32.9865
63.4266	32.9887
64.8819	32.991
66.1917	32.993
