Adsorption isotherm of Nitrogen on NOTT-105
DOI: 10.1021/Ja806624j
Adsorbate Nitrogen: InChIKey IJGRMHOSHXDMSA-UHFFFAOYSA-N
Temperature: 78 K
Tabular data in the source: 0
pressure (bar)	uptake (mmol/g)
0.000582698	0.00982962
0.00139729	0.0779127
0.00232952	0.0975201
0.0032607	0.165629
0.00454141	0.243516
0.00605529	0.321454
0.0163027	0.866946
0.0373797	1.98716
0.0639284	3.4578
0.0919894	5.084
