Adsorption isotherm of Hydrogen on NOTT-106
DOI: 10.1021/Ja806624j
Adsorbate Hydrogen: InChIKey UFHFLCQGNIYNRP-UHFFFAOYSA-N
Temperature: 78 K
Tabular data in the source: 0
pressure (bar)	uptake (mmol/g)
0.944118	11.4037
2.17365	14.1275
3.18995	15.3596
3.65571	15.8878
7.46464	18.7105
9.66445	19.597
10.5528	19.9517
11.5681	20.3069
12.0756	20.3968
17.4896	21.8236
18.0817	21.9139
18.5469	22.0036
19.5197	22.2709
20.0271	22.2732
