Adsorption isotherm of Hydrogen on NOTT-103
DOI: 10.1021/Ja806624j
Adsorbate Hydrogen: InChIKey UFHFLCQGNIYNRP-UHFFFAOYSA-N
Temperature: 78 K
Tabular data in the source: 0
pressure (bar)	uptake (mmol/g)
0.506981	6.29468
0.589314	6.80318
0.67038	7.72694
0.752713	8.23545
0.835046	8.74395
0.915796	9.77153
0.917379	9.25246
0.998129	10.28
1.08046	10.7885
1.16279	11.297
1.24513	11.8055
1.32588	12.8331
1.32746	12.3141
1.40821	13.3416
1.49054	13.8501
1.57288	14.3586
1.65537	14.8152
1.7377	15.3237
1.90395	15.8217
2.0702	16.3196
2.15253	16.8281
2.31878	17.3261
2.40111	17.8346
2.56736	18.3325
2.73377	18.7786
2.90002	19.2765
3.06627	19.7744
3.31644	20.2618
4.40038	22.4084
4.73462	22.8333
4.98479	23.3207
5.31903	23.7456
5.73718	24.16
6.07142	24.5849
6.48974	24.9473
6.99181	25.3511
7.41013	25.7136
7.99627	26.0549
8.49866	26.3548
9.08481	26.6962
9.67112	26.9856
10.2576	27.2231
10.9278	27.5019
11.5983	27.677
12.3528	27.8414
13.0232	28.0684
13.7778	28.181
14.5324	28.2935
15.3709	28.3955
16.1257	28.4562
16.8805	28.5169
17.7192	28.567
18.4739	28.6276
19.3128	28.6258
20.0677	28.6346
20.9067	28.5808
21.7456	28.579
22.5007	28.5359
23.3397	28.4822
24.1787	28.4285
25.0177	28.3747
25.7728	28.3316
26.6119	28.226
27.4509	28.1723
28.2901	28.0666
29.1292	27.961
29.9684	27.8554
30.8076	27.7498
31.6467	27.6441
32.4861	27.4866
33.3252	27.381
34.1644	27.2754
35.0037	27.1179
35.8429	27.0122
36.6822	26.8547
37.5214	26.7491
38.2768	26.6021
39.1161	26.4446
39.9554	26.2871
40.7946	26.1814
41.6339	26.0239
42.3893	25.8769
43.2286	25.7194
44.0679	25.5619
44.9073	25.4044
45.6627	25.2574
46.502	25.0999
47.3415	24.8904
48.0969	24.7435
48.9362	24.5859
49.7755	24.4284
50.6148	24.2709
51.3704	24.072
52.2097	23.9145
53.049	23.757
53.8046	23.5581
54.6439	23.4006
55.4834	23.1911
56.2388	23.0442
57.0781	22.8866
57.9176	22.6772
58.673	22.5302
59.5125	22.3208
