Adsorption isotherm of Hydrogen on NOTT-102
DOI: 10.1021/Ja806624j
Adsorbate Hydrogen: InChIKey UFHFLCQGNIYNRP-UHFFFAOYSA-N
Temperature: 78 K
Tabular data in the source: 0
pressure (bar)	uptake (mmol/g)
0.185676	1.93886
0.278515	2.50905
0.371353	3.64958
0.464191	5.07529
0.557029	5.64548
0.649867	6.78601
0.742706	7.92655
0.835544	8.49674
1.02122	10.9489
1.11406	11.5191
1.2069	12.0893
1.39257	13.3437
1.57825	13.9138
1.67109	14.484
1.85676	15.054
1.9496	15.6242
2.13528	16.4224
2.32095	16.9924
2.50663	17.5625
2.69231	18.0755
2.87798	18.6455
3.1565	19.2154
3.34218	19.7854
3.62069	20.2983
3.8992	20.8682
4.17772	21.381
4.54907	21.8937
4.82759	22.4636
5.19894	22.9763
5.57029	23.489
6.03448	24.0016
6.49867	24.5141
6.96286	24.9696
7.51989	25.425
8.16976	25.8802
8.72679	26.2786
9.37666	26.7338
10.0265	27.0749
10.6764	27.4161
11.4191	27.7571
12.2546	28.0409
12.9973	28.3819
13.8329	28.6086
14.6684	28.8354
15.504	29.0622
16.4324	29.2318
17.2679	29.4015
18.1963	29.5711
19.0318	29.6838
19.9602	29.7393
20.7958	29.852
21.7241	29.9646
22.6525	30.0201
23.4881	30.0758
24.4164	30.0743
25.3448	30.1298
26.2732	30.1283
27.2016	30.1268
28.13	30.1253
29.0584	30.1238
29.9867	30.1222
30.9151	30.0637
31.8435	30.0622
32.7719	30.0036
33.7003	30.0021
34.6286	29.9436
35.4642	29.8852
36.3926	29.8266
37.321	29.7681
37.6923	29.7104
38.6207	29.6519
39.5491	29.5933
40.3846	29.535
41.313	29.4194
42.2414	29.3608
43.0769	29.2454
44.0053	29.1868
44.8408	29.0714
45.5836	29.0132
46.5119	28.8976
47.3475	28.8392
48.2759	28.7236
49.1114	28.6082
50.0398	28.5496
50.9682	28.4341
51.8037	28.3186
52.7321	28.203
53.5676	28.0876
54.496	27.972
55.3316	27.8566
56.2599	27.741
57.0955	27.6256
58.0239	27.51
58.9523	27.3944
59.7878	27.279
60.6233	27.1636
61.5517	26.991
62.4801	26.8754
63.3156	26.7599
64.244	26.6444
65.0796	26.4719
66.008	26.3563
66.8435	26.2409
67.7719	26.1253
68.6074	25.9528
