Adsorption isotherm of Hydrogen on NOTT-101
DOI: 10.1021/Ja806624j
Adsorbate Hydrogen: InChIKey UFHFLCQGNIYNRP-UHFFFAOYSA-N
Temperature: 78 K
Tabular data in the source: 0
pressure (bar)	uptake (mmol/g)
0.50603	6.50743
0.71206	8.01507
0.814006	8.50138
0.918091	9.52271
1.02004	10.009
1.02198	10.4954
1.2284	12.1003
1.33035	12.5866
1.43229	13.0729
1.53579	13.9483
1.63774	14.4347
1.73968	14.921
1.94396	15.9909
2.34863	17.1579
2.55058	17.6441
2.65252	18.1305
2.85447	18.6167
3.05622	19.0543
3.25816	19.5405
3.46011	20.0268
3.76205	20.513
3.9638	20.9506
4.26575	21.4367
4.5675	21.8743
4.96944	22.3604
5.27119	22.7979
5.67294	23.2354
6.17469	23.6728
6.67644	24.1101
7.178	24.4989
7.77955	24.8876
8.38111	25.2763
9.08247	25.6163
9.78402	26.0049
10.5852	26.2961
11.3863	26.5874
12.1873	26.8301
13.0883	27.0726
13.9891	27.2665
14.8896	27.4118
15.8902	27.5571
16.7908	27.7023
17.7912	27.7989
18.6916	27.8956
19.6918	27.9435
20.692	27.9915
20.6922	28.0401
21.6922	28.0394
22.5923	28.0874
22.6923	28.0873
23.5925	28.1354
24.5925	28.1347
25.5923	28.0853
25.5925	28.134
26.5925	28.1333
27.5925	28.1326
28.5923	28.0832
28.6923	28.0832
29.5923	28.0826
29.6921	28.0338
30.1921	28.0335
31.1921	28.0328
32.1919	27.9835
32.8917	27.9343
33.1917	27.9341
33.8915	27.885
34.0915	27.8849
35.0913	27.8355
36.0911	27.7862
36.6909	27.7372
37.0909	27.7369
37.6908	27.6878
38.6906	27.6385
40.29	27.4915
41.2898	27.4421
42.1894	27.3442
42.2894	27.3442
43.2892	27.2948
44.1888	27.1969
45.1884	27.099
46.1882	27.0496
47.0878	26.9517
48.0876	26.9024
48.9872	26.8045
49.9868	26.7065
50.8864	26.6086
51.886	26.5106
52.8858	26.4613
53.5855	26.3635
54.5851	26.2656
55.4847	26.1677
56.4843	26.0697
57.3839	25.9718
58.3837	25.9225
59.2831	25.7759
60.2829	25.7266
61.1825	25.6287
62.1821	25.5307
63.0815	25.3842
64.0811	25.2862
64.9808	25.1883
65.9804	25.0903
