Adsorption isotherm of Nitrogen on NOTT-109
DOI: 10.1021/Ja806624j
Adsorbate Nitrogen: InChIKey IJGRMHOSHXDMSA-UHFFFAOYSA-N
Temperature: 78 K
Tabular data in the source: 0
pressure (bar)	uptake (mmol/g)
0.000648449	0.0587672
0.00168809	0.117828
0.00233477	0.205735
0.00324313	0.279267
0.00493123	0.397096
0.00674884	0.529589
0.0189513	1.4421
0.0443979	3.29704
0.0742505	5.60696
0.106172	8.20982
