Adsorption isotherm of Hydrogen on NOTT-102
DOI: 10.1021/Ja806624j
Adsorbate Hydrogen: InChIKey UFHFLCQGNIYNRP-UHFFFAOYSA-N
Temperature: 78 K
Tabular data in the source: 0
pressure (bar)	uptake (mmol/g)
6.06089	25.6751
7.95833	27.1878
8.39809	28.0512
9.85656	28.9161
12.0443	30.2136
14.0861	31.403
16.8551	32.4856
19.6241	33.5683
22.2457	34.1115
24.2847	34.546
26.6152	35.0888
30.2562	35.8493
33.8961	36.2863
35.3518	36.3963
39.2811	36.4024
41.4649	36.6214
43.0653	36.5161
45.6849	36.5201
48.8861	36.4172
52.3789	36.4226
55.8716	36.428
57.618	36.4306
58.927	36.217
61.2543	35.897
63.2921	36.008
66.3483	36.0127
68.6772	36.1242
