Adsorption isotherm of Nitrogen on NOTT-100
DOI: 10.1021/Ja806624j
Adsorbate Nitrogen: InChIKey IJGRMHOSHXDMSA-UHFFFAOYSA-N
Temperature: 78 K
Tabular data in the source: 0
pressure (bar)	uptake (mmol/g)
0.000855734	0.0448825
0.00171109	0.111927
0.00256569	0.223296
0.00427716	0.313061
0.00547397	0.446815
0.00821133	0.648061
0.0111192	0.89374
0.0287406	2.21281
0.0622711	4.80549
0.0993914	7.86591
0.136847	11.259
