Adsorption isotherm of Hydrogen on NOTT-100
DOI: 10.1021/Ja806624j
Adsorbate Hydrogen: InChIKey UFHFLCQGNIYNRP-UHFFFAOYSA-N
Temperature: 78 K
Tabular data in the source: 0
pressure (bar)	uptake (mmol/g)
0.0460207	3.06932
1.03018	12.6318
1.83634	14.9152
3.06459	16.5867
3.9534	17.2921
5.01124	17.9106
6.06865	18.1783
6.99931	18.5331
8.01465	18.976
10.0448	19.4233
11.0174	19.5153
11.948	19.7824
13.0897	19.8751
14.0201	19.9669
15.1195	19.9717
16.0497	19.9758
17.0646	20.0679
17.9947	19.9843
19.0095	19.9888
20.0666	19.9934
