Adsorption isotherm of Nitrogen on NOTT-107
DOI: 10.1021/Ja806624j
Adsorbate Nitrogen: InChIKey IJGRMHOSHXDMSA-UHFFFAOYSA-N
Temperature: 78 K
Tabular data in the source: 0
pressure (bar)	uptake (mmol/g)
0.000721425	0.0366268
0.0019238	0.145793
0.00312618	0.218868
0.00480951	0.364483
0.00601188	0.437558
0.00769521	0.547081
0.00961901	0.692876
0.0122643	0.839202
0.0163523	1.16706
0.0214023	1.49563
0.0468926	3.24693
0.0803188	5.65376
0.113264	8.13243
0.150056	11.1192
0.186369	14.3944
