Adsorption isotherm of Hydrogen on NOTT-102
DOI: 10.1021/Ja806624j
Adsorbate Hydrogen: InChIKey UFHFLCQGNIYNRP-UHFFFAOYSA-N
Temperature: 78 K
Tabular data in the source: 0
pressure (bar)	uptake (mmol/g)
3.48548	20.387
4.50207	22.114
5.51867	23.841
7.84232	25.6779
9.00415	26.4345
10.166	27.1912
13.0705	28.7054
14.668	29.2471
16.1203	29.5728
17.8631	30.0069
19.751	30.1176
21.3485	30.4436
22.9461	30.5539
24.6888	30.6644
28.029	30.8852
29.6266	30.8877
31.2241	30.998
32.6763	30.8924
34.2739	30.6792
36.1618	30.7899
37.3237	30.7917
38.9212	30.4707
42.2614	30.1523
44.0041	29.8315
47.0539	29.297
48.7967	29.1918
50.249	28.8705
51.8465	28.6573
54.6058	28.1224
56.3485	27.9094
57.6556	27.6957
58.9627	27.482
62.3029	26.948
63.9004	26.5191
