Adsorption isotherm of Nitrogen on NOTT-102
DOI: 10.1021/Ja806624j
Adsorbate Nitrogen: InChIKey IJGRMHOSHXDMSA-UHFFFAOYSA-N
Temperature: 78 K
Tabular data in the source: 0
pressure (bar)	uptake (mmol/g)
0.000587393	0.0472378
0.00136902	0.121482
0.0025513	0.161904
0.00373546	0.188813
0.00501392	0.249495
0.00599821	0.289937
0.00707963	0.343881
0.00914628	0.431511
0.0115071	0.539381
0.0157394	0.714633
0.0204628	0.916861
0.0461395	2.06968
0.0790873	3.61366
