Adsorption isotherm of Hydrogen on NOTT-101
DOI: 10.1021/Ja806624j
Adsorbate Hydrogen: InChIKey UFHFLCQGNIYNRP-UHFFFAOYSA-N
Temperature: 78 K
Tabular data in the source: 0
pressure (bar)	uptake (mmol/g)
2.51662	17.9873
2.98323	19.217
4.50853	21.7667
5.99049	23.4393
7.51451	24.9367
9.03789	25.9079
10.5189	26.7913
11.9999	27.6747
13.5225	28.0321
15.0456	28.7403
16.5259	29.0976
18.1756	29.6309
20.1212	30.0779
