Adsorption isotherm of Hydrogen on M-F
DOI: 10.1007/s10450-021-00348-2
Article source: Figure 5
Adsorbate Hydrogen: InChIKey UFHFLCQGNIYNRP-UHFFFAOYSA-N
Kind: experiment
Temperature: 573 K
Tabular data in the source: 0
pressure (bar)	uptake (mmol/g)
0.219027	0.798762
0.975664	1.24458
1.64602	2.0805
1.83186	3.9195
1.97788	7.44892
2.24336	11.2198
2.57522	16.1424
3.35841	20.5635
4.44027	21.6409
5.51549	23.1084
6.59734	24.0186
7.4469	24.7059
8.86726	25.7461
10.042	26.9164
11.2965	27.5666
10.5199	27.4551
9.8031	27.2694
8.61504	26.7678
7.10841	26.5449
6.31195	26.1919
5.59513	26.0433
4.29425	25.709
3.19248	25.5418
2.40929	25.096
1.87168	24.8359
1.41372	23.1827
1.30088	21.1022
1.20133	19.8576
1.05531	14.2291
0.922566	10.1796
0.683628	8.04334
0.418142	6.01858
0.30531	5.10836
0.185841	3.93808
0.053097	3.47368
