Adsorption isotherm of Water on pretreated m-Al
DOI: 10.1039/c5ce00789e
Article source: Figure 7
Adsorbate Water: InChIKey XLYOFNOQVPJJNP-UHFFFAOYSA-N
Kind: experiment
Temperature: 298 K
Tabular data in the source: 0
pressure (bar)	uptake (mmol/g)
5e-06	0
3.4e-05	0.006619
5.3e-05	0.016549
0.000101	0.029787
0.000158	0.052955
0.000163	0.05792
0.000317	0.071158
0.000494	0.089362
0.000643	0.304492
0.00071	0.301182
0.000801	0.32435
0.00095	0.340898
0.000955	0.332624
0.001084	0.345863
0.001242	0.357447
0.001281	0.367376
0.001386	0.369031
0.00142	0.37234
0.001554	0.37896
0.001583	0.377305
0.001698	0.387234
0.001708	0.383924
0.001842	0.393853
0.001885	0.392199
0.001995	0.398818
0.002034	0.397163
0.002173	0.407092
0.002202	0.403783
0.00236	0.408747
0.002422	0.417021
0.002509	0.415366
0.002638	0.423641
