Adsorption isotherm of Water on untreated a-Al
DOI: 10.1039/c5ce00789e
Article source: Figure 7
Adsorbate Water: InChIKey XLYOFNOQVPJJNP-UHFFFAOYSA-N
Kind: experiment
Temperature: 298 K
Tabular data in the source: 0
pressure (bar)	uptake (mmol/g)
5e-06	0
2.4e-05	0.019858
4.3e-05	0.029787
9.6e-05	0.0513
0.000158	0.067849
0.000427	0.099291
0.000633	0.132388
0.00094	0.158865
0.001089	0.175414
0.001266	0.190307
0.001468	0.196927
0.001645	0.200236
0.001722	0.201891
0.00189	0.206856
0.002043	0.208511
0.002206	0.210165
0.002355	0.213475
0.002518	0.21513
