Adsorption isotherm of Water on CAU-10-H
DOI: 10.1039/c5ce00789e
Article source: Figure 1
Adsorbate Water: InChIKey XLYOFNOQVPJJNP-UHFFFAOYSA-N
Kind: experiment
Temperature: 288 K
Tabular data in the source: 0
pressure (bar)	uptake (mmol/g)
0	0.153846
2.1e-05	0.255786
4.6e-05	0.255005
7.7e-05	0.407915
0.000113	0.509386
0.000149	0.559575
0.000229	1.01869
0.000237	1.48
0.000239	1.83889
0.000242	3.17215
0.000244	4.09515
0.000247	5.32584
0.000249	9.73602
0.000252	12.3513
0.000255	12.8128
0.000257	13.6845
0.00026	15.0178
0.000262	16.8638
0.000267	15.7868
0.00028	16.2479
0.000309	17.1188
0.000339	16.6051
0.000375	17.3732
0.000437	17.0637
0.000445	17.6275
0.000519	17.8817
0.000548	17.4193
0.000584	18.1361
0.000645	18.3907
0.000648	17.7752
0.00072	18.6961
0.000733	18.1316
0.000784	18.9506
0.000813	18.5394
0.000849	19.205
0.00089	18.8961
0.000905	19.4597
0.000969	19.7142
0.001044	19.9683
0.001054	19.5577
0.001147	19.9652
0.001257	20.2695
0.00136	20.5741
0.001401	20.8805
0.001445	20.8792
0.001471	20.9297
0.001499	20.8776
0.00152	21.0308
0.001548	21.0299
0.001602	21.0796
0.001661	21.1803
