Adsorption isotherm of Water on CAU-10-H
DOI: 10.1039/c5ce00789e
Article source: Figure 1
Adsorbate Water: InChIKey XLYOFNOQVPJJNP-UHFFFAOYSA-N
Kind: experiment
Temperature: 298 K
Tabular data in the source: 0
pressure (bar)	uptake (mmol/g)
0	0
2.4e-05	0.051619
5.3e-05	0.103317
7.7e-05	0.154936
0.0001	0.206556
0.000134	0.207101
0.000163	0.771094
0.000167	0.207647
0.000172	0.207725
0.000196	0.208115
0.000215	0.259656
0.000234	0.259968
0.000253	0.31151
0.000268	0.311744
0.000287	0.363285
0.000306	0.363597
0.00032	0.978585
0.000335	0.415294
0.000354	0.466836
0.000373	0.467148
0.000387	0.467382
0.000411	0.519001
0.000426	0.570464
0.00044	0.621928
0.000449	0.622084
0.000469	0.673625
0.000473	0.776162
0.000483	0.930007
0.000493	1.03262
0.000497	1.18639
0.000502	1.28893
0.000507	1.44269
0.000512	3.2358
0.000516	10.7666
0.000521	9.28104
0.000526	8.87128
0.000531	12.8673
0.000536	13.687
0.00054	14.7117
0.000545	14.8654
0.00055	15.1729
0.000555	15.3779
0.000559	15.4292
0.000564	15.7367
0.000569	15.788
0.000574	15.8905
0.000579	15.9418
0.000588	16.0444
0.000598	16.0958
0.000612	16.1473
0.000622	16.2499
0.000631	16.25
0.000646	16.865
0.000655	16.3529
0.00066	16.353
0.000665	16.4043
0.000679	16.4045
0.000684	16.4558
0.000689	16.4559
0.000703	16.5074
