Adsorption isotherm of Water on pretreated a-Al
DOI: 10.1039/c5ce00789e
Article source: Figure 7
Adsorbate Water: InChIKey XLYOFNOQVPJJNP-UHFFFAOYSA-N
Kind: experiment
Temperature: 298 K
Tabular data in the source: 0
pressure (bar)	uptake (mmol/g)
5e-06	0
3.4e-05	0.006619
5.3e-05	0.016549
0.000101	0.029787
0.000158	0.038061
0.000163	0.043026
0.000317	0.0513
0.000484	0.061229
0.000504	0.059575
0.000513	0.110875
0.000518	0.15721
0.000532	0.299527
0.000576	0.340898
0.000628	0.359102
0.000801	0.370686
0.000902	0.370686
0.000926	0.37896
0.001094	0.388889
0.001285	0.398818
0.001425	0.405437
0.001564	0.410402
0.001703	0.418676
0.001851	0.42695
0.001875	0.421986
0.001995	0.42695
0.002005	0.43357
0.002168	0.441844
0.002197	0.435225
0.00236	0.440189
0.002408	0.448463
0.002509	0.445154
0.002604	0.455083
