Adsorption isotherm of Water on untreated m-Al
DOI: 10.1039/c5ce00789e
Article source: Figure 7
Adsorbate Water: InChIKey XLYOFNOQVPJJNP-UHFFFAOYSA-N
Kind: experiment
Temperature: 298 K
Tabular data in the source: 0
pressure (bar)	uptake (mmol/g)
0	0
2.4e-05	0.001637
4.8e-05	0.008222
9.1e-05	0.014797
0.000182	0.026296
0.000331	0.039414
0.00048	0.050882
0.000499	0.052522
0.000504	0.149839
0.000508	0.20097
0.000518	0.247151
0.000523	0.341169
0.000542	0.385695
0.000648	0.41533
0.000753	0.416924
0.000796	0.430097
0.00095	0.444862
0.001089	0.448088
0.001108	0.459624
0.001266	0.461191
0.001295	0.471073
0.001415	0.46936
0.001429	0.4776
0.001564	0.47753
0.001573	0.485772
0.001712	0.485699
0.001722	0.493941
0.001851	0.500471
0.001885	0.495505
0.001986	0.506999
0.002043	0.505319
0.002115	0.515178
0.002206	0.513481
0.002283	0.524987
0.002365	0.519996
0.002437	0.531504
0.002509	0.526518
0.002628	0.5413
0.003132	0.569077
