Adsorption isotherm of Water on CAU-10-H
DOI: 10.1039/c5ce00789e
Article source: Figure 1
Adsorbate Water: InChIKey XLYOFNOQVPJJNP-UHFFFAOYSA-N
Kind: experiment
Temperature: 298 K
Tabular data in the source: 0
pressure (bar)	uptake (mmol/g)
0	0
2.4e-05	0.153064
5.7e-05	0.20367
9.1e-05	0.254276
0.000148	0.355644
0.000339	0.608285
0.000363	0.659047
0.000473	0.913012
0.000492	1.21961
0.000502	1.83326
0.000506	2.29355
0.000506	2.75391
0.000511	3.21419
0.000511	3.6234
0.000515	4.08368
0.000515	4.49289
0.000515	5.0044
0.000515	5.36246
0.000515	5.87397
0.000515	6.28318
0.000515	6.74354
0.000519	7.56188
0.000519	7.97108
0.000519	8.38029
0.000519	8.84065
0.000519	9.35216
0.000519	9.71022
0.000519	10.1706
0.000519	10.5798
0.000519	11.0402
0.00052	7.15267
0.000523	11.5004
0.000523	11.8585
0.000528	12.3188
0.000528	12.7791
0.000528	13.1883
0.000528	13.6487
0.000532	14.0578
0.000537	14.5181
0.000542	14.7226
0.000542	14.8761
0.000546	15.0806
0.000546	15.2852
0.000551	15.4898
0.000561	15.6942
0.00058	15.8985
0.000589	16.1029
0.000613	16.256
0.000637	16.3579
0.000646	16.9204
0.000656	16.4599
0.00068	16.5107
0.000699	16.5615
0.000718	16.6635
0.000742	16.7143
0.000766	16.765
0.000785	16.8159
0.000804	16.8667
0.000809	17.327
0.000823	16.9175
0.000847	16.9683
0.000861	16.9681
0.000885	16.9677
0.000909	17.0184
0.000967	17.529
0.001086	17.3225
0.001129	17.8844
0.001244	17.6268
0.001306	18.1885
0.001382	17.8803
0.001464	18.4416
0.001578	18.2863
0.001621	18.746
0.001755	18.6415
0.001765	19.0506
0.001927	19.0479
0.001942	19.4057
0.002085	19.6591
0.002099	19.352
0.002243	19.8612
0.002271	19.7073
0.002386	20.1146
0.002448	20.0113
0.002573	20.3162
0.002654	20.3148
0.002735	20.467
0.002845	20.5675
