Adsorption isotherm of Water on CAU-10-H
DOI: 10.1039/c5ce00789e
Article source: Figure 1
Adsorbate Water: InChIKey XLYOFNOQVPJJNP-UHFFFAOYSA-N
Kind: experiment
Temperature: 288 K
Tabular data in the source: 0
pressure (bar)	uptake (mmol/g)
0	0
5e-06	0.153298
2.3e-05	0.255055
4.9e-05	0.305427
8e-05	0.355644
0.000113	0.508085
0.000146	0.558224
0.000229	0.964942
0.000234	1.42515
0.000236	1.83428
0.000239	2.29456
0.000239	2.75492
0.000241	3.2152
0.000241	3.62441
0.000243	6.28419
0.000243	6.74455
0.000244	4.08469
0.000244	4.4939
0.000244	5.00541
0.000244	5.36347
0.000244	5.87498
0.000245	10.5808
0.000245	11.0412
0.000246	7.15368
0.000246	7.56289
0.000246	7.9721
0.000246	8.38131
0.000246	8.84167
0.000246	9.35318
0.000246	9.71123
0.000246	10.1716
0.000248	11.5014
0.000248	11.8595
0.00025	12.3198
0.00025	12.7801
0.00025	13.1894
0.00025	13.6497
0.000253	14.0588
0.000255	14.5191
0.000258	14.9794
0.00026	15.2862
0.00026	16.8208
0.000265	15.7976
0.000278	16.1553
0.000309	17.1262
0.000335	16.6139
0.000373	17.3289
0.000432	17.0202
0.000445	17.5824
0.00052	17.8359
0.000543	17.3749
0.000581	18.0898
0.00064	18.3949
0.000643	17.781
0.000718	18.6995
0.000728	18.1365
0.000779	18.9534
0.000808	18.4922
0.000849	19.207
0.000887	18.8478
0.000905	19.4611
0.000967	19.2035
0.000969	19.7149
0.001039	20.0197
0.001049	19.559
0.001144	19.9142
0.001255	20.2178
0.00136	20.5215
0.001399	20.8272
0.001442	20.877
0.001466	20.9275
0.001496	20.8243
0.001517	21.0282
0.001545	21.0274
0.001599	21.0769
0.001656	21.1775
