Adsorption isotherm of Ethane, Ethene on Na-ETS-10 zeolite
DOI: 10.1016/j.ces.2011.03.046
Article source: Tables 3 & 4
Adsorbate Ethane: InChIKey OTMSDBZUPAUEDD-UHFFFAOYSA-N
Adsorbate Ethene: InChIKey VGGSQFUCUMXWEO-UHFFFAOYSA-N
Kind: experiment
Temperature: 298 K
Tabular data in the source: 0
pressure (bar)	Ethane fraction	Ethane uptake (mmol/g)	Ethene fraction	Ethene uptake (mmol/g)	total uptake (mmol/g)
9.3	0.41	0.147642	0.59	1.61	
17.6	0.41	0.142389	0.59	1.66	
25.8	0.41	0.117447	0.59	1.84	
