Adsorption isotherm of Ethane on Na-ETS-10 zeolite
DOI: 10.1016/j.ces.2011.03.046
Article source: Figure 4b
Adsorbate Ethane: InChIKey OTMSDBZUPAUEDD-UHFFFAOYSA-N
Kind: experiment
Temperature: 298 K
Tabular data in the source: 0
pressure (bar)	uptake (mmol/g)
0.021	1.11
0.78	1.64
1.77	1.72
1.88	1.73
2.07	1.74
2.47	1.76
2.99	1.77
7.75	1.85
11.7	1.88
14.4	1.89
16.1	1.9
17	1.9
17.7	1.9
