Adsorption isotherm of Ethene on Na-ETS-10 zeolite
DOI: 10.1016/j.ces.2011.03.046
Article source: Figure 4a
Adsorbate Ethene: InChIKey VGGSQFUCUMXWEO-UHFFFAOYSA-N
Kind: experiment
Temperature: 298 K
Tabular data in the source: 0
pressure (bar)	uptake (mmol/g)
0.103	1.58
1.54	1.88
2.5	1.93
3.23	1.95
5.13	2
8.6	2.05
11.9	2.08
14.1	2.09
15.7	2.11
16.6	2.11
17.6	2.12
