Adsorption isotherm of Ethane, Ethene on Na-ETS-10 zeolite
DOI: 10.1016/j.ces.2011.03.046
Article source: Tables 3 & 4
Adsorbate Ethane: InChIKey OTMSDBZUPAUEDD-UHFFFAOYSA-N
Adsorbate Ethene: InChIKey VGGSQFUCUMXWEO-UHFFFAOYSA-N
Kind: experiment
Temperature: 294 K
Tabular data in the source: 0
pressure (bar)	Ethane fraction	Ethane uptake (mmol/g)	Ethene fraction	Ethene uptake (mmol/g)	total uptake (mmol/g)
1.01	0.59	1.44	0.41	0.196364	
