Adsorption isotherm of Hydrogen on IRMOF-3
DOI: 10.1080/08927022.2011.561432
Adsorbate Hydrogen: InChIKey UFHFLCQGNIYNRP-UHFFFAOYSA-N
Temperature: 300 K
Tabular data in the source: 0
pressure (bar)	uptake (wt%)
0.985837	0.0169666
1.33582	0.0197856
1.71748	0.0254387
2.00369	0.0305291
2.30589	0.0339175
2.67164	0.0395713
3.02156	0.0435245
3.81669	0.0553962
4.48462	0.0650055
5.00945	0.0717859
5.56606	0.0796991
6.37714	0.091003
6.96554	0.0994818
7.37901	0.1057
8.01519	0.11361
8.85803	0.126046
9.46236	0.134524
10.0191	0.140736
