Adsorption isotherm of Hydrogen on IRMOF-10Br-(pos3)
DOI: 10.1080/08927022.2011.561432
Adsorbate Hydrogen: InChIKey UFHFLCQGNIYNRP-UHFFFAOYSA-N
Temperature: 300 K
Tabular data in the source: 0
pressure (bar)	uptake (wt%)
1.00145	0.022637
1.55785	0.03452
2.00293	0.0447069
2.5275	0.0565913
2.9885	0.0667775
3.40181	0.0758317
4.13307	0.0916761
4.99152	0.109783
5.50027	0.119967
6.39043	0.140341
6.99455	0.152789
8.32989	0.181648
9.20423	0.200321
9.98323	0.216163
