Adsorption isotherm of Hydrogen on IRMOF-10NH2-(pos2)
DOI: 10.1080/08927022.2011.561432
Adsorbate Hydrogen: InChIKey UFHFLCQGNIYNRP-UHFFFAOYSA-N
Temperature: 300 K
Tabular data in the source: 0
pressure (bar)	uptake (wt%)
0.985356	0.0260404
1.97065	0.053215
3.00378	0.078686
4.99053	0.128498
6.99313	0.179443
9.99713	0.254159
