Adsorption isotherm of Hydrogen on IRMOF-8
DOI: 10.1080/08927022.2011.561432
Adsorbate Hydrogen: InChIKey UFHFLCQGNIYNRP-UHFFFAOYSA-N
Temperature: 77 K
Tabular data in the source: 0
pressure (bar)	uptake (wt%)
0.318115	0.345416
0.989691	1.10021
1.97938	1.90618
3.00442	2.57143
3.71134	2.91684
4.41826	3.27505
5.00147	3.5693
6.04418	3.9403
6.99853	4.27292
7.82916	4.5032
8.5891	4.72068
9.34904	4.93817
10.0029	5.13006
