Adsorption isotherm of Hydrogen on IRMOF-10Br-(pos2)
DOI: 10.1080/08927022.2011.561432
Adsorbate Hydrogen: InChIKey UFHFLCQGNIYNRP-UHFFFAOYSA-N
Temperature: 77 K
Tabular data in the source: 0
pressure (bar)	uptake (wt%)
0.106038	0.115139
0.63623	0.5629
0.989691	0.869936
1.97938	1.56077
2.45655	1.81663
2.98675	2.07249
3.53461	2.32836
4.29455	2.64819
5.01915	2.98081
6.06186	3.35181
6.99853	3.68443
7.88218	3.91471
9.01325	4.23454
10.0029	4.51599
