Adsorption isotherm of Hydrogen on IRMOF-1
DOI: 10.1080/08927022.2011.561432
Adsorbate Hydrogen: InChIKey UFHFLCQGNIYNRP-UHFFFAOYSA-N
Temperature: 300 K
Tabular data in the source: 0
pressure (bar)	uptake (wt%)
0.985837	0.0169666
1.52653	0.0248806
1.97176	0.032232
2.36934	0.0378842
3.56202	0.0559753
4.38891	0.0689797
4.99318	0.078592
5.6611	0.0882013
6.4244	0.100074
6.99689	0.108554
7.50579	0.115902
8.20551	0.126077
9.2869	0.141905
9.9866	0.152647
