Adsorption isotherm of Hydrogen on IRMOF-10NH2-(pos2)
DOI: 10.1080/08927022.2011.561432
Adsorbate Hydrogen: InChIKey UFHFLCQGNIYNRP-UHFFFAOYSA-N
Temperature: 300 K
Tabular data in the source: 0
pressure (bar)	uptake (wt%)
1.00127	0.0260396
1.43035	0.0379286
1.9866	0.0526471
2.28859	0.0600053
2.73356	0.0724606
3.00378	0.078686
3.65537	0.0962356
4.29114	0.112085
4.99044	0.130199
5.53083	0.143784
6.37319	0.165294
6.99301	0.181711
7.46981	0.194165
8.32811	0.215107
9.17047	0.236618
9.99698	0.256994
