Adsorption isotherm of Hydrogen on IRMOF-7
DOI: 10.1080/08927022.2011.561432
Adsorbate Hydrogen: InChIKey UFHFLCQGNIYNRP-UHFFFAOYSA-N
Temperature: 77 K
Tabular data in the source: 0
pressure (bar)	uptake (wt%)
0.0883652	0.358209
0.353461	0.780384
0.671576	1.38166
1.00736	1.95736
1.59057	2.45629
1.99705	2.78891
2.47423	3.01919
3.00442	3.28785
3.46392	3.42857
4.15317	3.65885
4.9838	3.9403
5.39028	4.00426
6.13255	4.15778
6.99853	4.34968
7.42268	4.41365
8.20029	4.52878
9.43741	4.6951
10.0029	4.78465
