Adsorption isotherm of Hydrogen on IRMOF-10Br-(pos2)
DOI: 10.1080/08927022.2011.561432
Adsorbate Hydrogen: InChIKey UFHFLCQGNIYNRP-UHFFFAOYSA-N
Temperature: 300 K
Tabular data in the source: 0
pressure (bar)	uptake (wt%)
0.985536	0.0226377
1.98705	0.0441405
2.98853	0.0662104
4.99152	0.109783
6.99455	0.152789
9.98329	0.215029
