Adsorption isotherm of Hydrogen on IRMOF-7
DOI: 10.1080/08927022.2011.561432
Adsorbate Hydrogen: InChIKey UFHFLCQGNIYNRP-UHFFFAOYSA-N
Temperature: 300 K
Tabular data in the source: 0
pressure (bar)	uptake (wt%)
0.985988	0.0141311
1.57446	0.0214757
1.98798	0.0265601
2.2583	0.0310842
2.64005	0.0350359
2.98988	0.0406905
3.40341	0.0457749
3.97596	0.0531202
4.53263	0.0598992
4.99381	0.0666827
5.6936	0.0757234
6.31387	0.0836336
6.99774	0.092675
7.47489	0.0983235
8.27011	0.108494
9.2721	0.120923
10.0037	0.129962
