Adsorption isotherm of Hydrogen on IRMOF-3
DOI: 10.1080/08927022.2011.561432
Adsorbate Hydrogen: InChIKey UFHFLCQGNIYNRP-UHFFFAOYSA-N
Temperature: 77 K
Tabular data in the source: 0
pressure (bar)	uptake (wt%)
1.04271	1.11301
2.01473	1.93177
2.50957	2.22601
3.03976	2.50746
3.71134	2.78891
4.43594	3.09595
4.9838	3.33902
6.13255	3.68443
6.98085	3.92751
8.96024	4.33689
10.0206	4.52878
