Adsorption isotherm of Hydrogen on IRMOF-10NH2-(pos2)
DOI: 10.1080/08927022.2011.561432
Adsorbate Hydrogen: InChIKey UFHFLCQGNIYNRP-UHFFFAOYSA-N
Temperature: 77 K
Tabular data in the source: 0
pressure (bar)	uptake (wt%)
0.477172	0.511727
1.02504	1.01066
1.39617	1.34328
1.99705	1.79104
2.56259	2.17484
3.00442	2.4307
3.53461	2.72495
4.50663	3.22388
4.9838	3.47974
5.62003	3.7484
6.45066	4.09382
6.99853	4.32409
7.70545	4.55437
8.74816	4.91258
9.36672	5.11727
10.0029	5.30917
