Adsorption isotherm of Hydrogen on IRMOF-2
DOI: 10.1080/08927022.2011.561432
Adsorbate Hydrogen: InChIKey UFHFLCQGNIYNRP-UHFFFAOYSA-N
Temperature: 77 K
Tabular data in the source: 0
pressure (bar)	uptake (wt%)
0.777614	0.742004
1.21944	1.1258
1.55523	1.27932
1.97938	1.62473
2.98675	2.07249
3.69367	2.30277
4.38292	2.50746
4.9838	2.71215
5.70839	2.86567
6.39764	3.01919
6.98085	3.17271
7.86451	3.28785
9.06627	3.45416
9.9676	3.60768
