Adsorption isotherm of Hydrogen on IRMOF-10
DOI: 10.1080/08927022.2011.561432
Adsorbate Hydrogen: InChIKey UFHFLCQGNIYNRP-UHFFFAOYSA-N
Temperature: 77 K
Tabular data in the source: 0
pressure (bar)	uptake (wt%)
0.141384	0.230277
0.547865	0.678038
1.30781	1.40725
1.69661	1.66311
2.01473	1.91898
2.40353	2.17484
3.00442	2.55864
3.42857	2.8145
4.24153	3.24947
5.00147	3.68443
5.40795	3.85075
6.39764	4.3113
6.99853	4.57996
7.59941	4.78465
8.73049	5.19403
9.27835	5.38593
10.0029	5.6162
