Adsorption isotherm of Hydrogen on IRMOF-1
DOI: 10.1080/08927022.2011.561432
Adsorbate Hydrogen: InChIKey UFHFLCQGNIYNRP-UHFFFAOYSA-N
Temperature: 77 K
Tabular data in the source: 0
pressure (bar)	uptake (wt%)
0.600884	0.626866
0.989691	1.01066
1.20177	1.20256
1.51988	1.43284
2.01473	1.81663
2.19146	1.90618
2.6863	2.22601
2.98675	2.4307
3.6053	2.69936
4.34757	3.03198
5.00147	3.35181
5.93814	3.65885
6.60972	3.88913
6.99853	4.01706
8.41237	4.33689
9.98527	4.73348
