Adsorption isotherm of Hydrogen on IRMOF-2
DOI: 10.1080/08927022.2011.561432
Adsorbate Hydrogen: InChIKey UFHFLCQGNIYNRP-UHFFFAOYSA-N
Temperature: 300 K
Tabular data in the source: 0
pressure (bar)	uptake (wt%)
0.954248	0.0124313
1.33603	0.0158159
1.68592	0.0203362
2.00405	0.0237238
2.29031	0.02768
2.65618	0.0310654
2.97424	0.0355872
3.29239	0.0384077
3.83318	0.0446204
4.54894	0.052526
4.99429	0.057609
5.64642	0.0649505
6.33035	0.0728577
6.96657	0.0802001
8.0482	0.0914911
9.05025	0.102786
9.95687	0.112951
