Adsorption isotherm of Hydrogen on IRMOF-10NH2-(pos3)
DOI: 10.1080/08927022.2011.561432
Adsorbate Hydrogen: InChIKey UFHFLCQGNIYNRP-UHFFFAOYSA-N
Temperature: 77 K
Tabular data in the source: 0
pressure (bar)	uptake (wt%)
0.106038	0.115139
1.00736	1.06183
1.99705	1.8678
3.00442	2.55864
4.9838	3.63326
6.99853	4.5032
10.0029	5.52665
