Adsorption isotherm of Hydrogen on IRMOF-10Br-(pos3)
DOI: 10.1080/08927022.2011.561432
Adsorbate Hydrogen: InChIKey UFHFLCQGNIYNRP-UHFFFAOYSA-N
Temperature: 77 K
Tabular data in the source: 0
pressure (bar)	uptake (wt%)
0.441826	0.422175
0.742268	0.703625
0.989691	0.921109
1.48454	1.27932
2.01473	1.61194
2.26215	1.77825
2.58027	1.98294
3.00442	2.21322
3.23417	2.32836
3.62297	2.50746
4.5243	2.91684
5.01915	3.12154
5.47865	3.32623
6.46834	3.65885
6.98085	3.86354
7.81149	4.06823
9.15464	4.45203
10.0029	4.6823
