Adsorption isotherm of Hydrogen on IRMOF-10
DOI: 10.1080/08927022.2011.561432
Adsorbate Hydrogen: InChIKey UFHFLCQGNIYNRP-UHFFFAOYSA-N
Temperature: 300 K
Tabular data in the source: 0
pressure (bar)	uptake (wt%)
0.985296	0.0271746
1.55734	0.0441608
2.0023	0.0566161
2.59035	0.0719003
2.98766	0.0826565
3.44854	0.0951111
4.00472	0.110964
4.52917	0.125117
4.99005	0.137571
5.43504	0.14946
5.97541	0.163612
6.48394	0.177765
6.9925	0.191352
7.40575	0.20154
7.88249	0.215128
8.37513	0.228716
8.77247	0.238905
9.40818	0.255888
9.99622	0.271172
