Adsorption isotherm of Hydrogen on IRMOF-8
DOI: 10.1080/08927022.2011.561432
Adsorbate Hydrogen: InChIKey UFHFLCQGNIYNRP-UHFFFAOYSA-N
Temperature: 300 K
Tabular data in the source: 0
pressure (bar)	uptake (wt%)
0.969712	0.0209372
1.27177	0.0271611
1.68511	0.0356482
2.00308	0.0418713
2.44823	0.050924
3.02057	0.0622391
4.30831	0.0882652
4.99188	0.102978
5.88223	0.119949
6.56586	0.133527
6.99509	0.142581
7.90132	0.160118
9.04601	0.182748
10.0158	0.201984
