Adsorption isotherm of Nitrogen on UiO-66-NH2
DOI: 10.1039/C2cp23839j
Adsorbate Nitrogen: InChIKey IJGRMHOSHXDMSA-UHFFFAOYSA-N
Temperature: 323 K
Tabular data in the source: 0
pressure (bar)	uptake (mmol/g)
0.147845	0.0130963
0.201623	0.0163132
0.246432	0.0195606
0.300228	0.0210776
0.349521	0.0243097
0.403317	0.0258267
0.452557	0.0341586
0.501886	0.0339909
0.55118	0.037223
0.604958	0.0404399
0.649767	0.0436873
0.708029	0.046889
0.74839	0.0467518
0.802167	0.0499687
0.855945	0.0531856
0.909723	0.0564025
0.950048	0.0596651
1.00383	0.062882
