Adsorption isotherm of Carbon monoxide on UiO-66
DOI: 10.1039/C2cp23839j
Adsorbate Carbon monoxide: InChIKey UGFAIRIUMAVXCW-UHFFFAOYSA-N
Temperature: 298 K
Tabular data in the source: 0
pressure (bar)	uptake (mmol/g)
0.0952283	0.0243419
0.204031	0.0486837
0.299316	0.0796643
0.394507	0.0995804
0.498822	0.128348
0.598557	0.150477
0.702816	0.172606
0.802569	0.196948
0.902304	0.219077
1.00204	0.241206
