Adsorption isotherm of Methane on UiO-66-NH2
DOI: 10.1039/C2cp23839j
Adsorbate Methane: InChIKey VNWKTOKETHGBQD-UHFFFAOYSA-N
Temperature: 348 K
Tabular data in the source: 0
pressure (bar)	uptake (mmol/g)
0.148758	0.0361943
0.202848	0.048259
0.247911	0.0542914
0.302002	0.0663562
0.351551	0.0663562
0.396633	0.0784209
0.450705	0.0844533
0.495768	0.0904857
0.554363	0.10255
0.599444	0.114615
0.649012	0.120648
0.703084	0.12668
0.748166	0.138745
0.80222	0.138745
0.847319	0.156842
0.901391	0.162874
0.950959	0.168907
1.00056	0.187004
