Adsorption isotherm of Carbon Dioxide on UiO-66-Br
DOI: 10.1039/C2cp23839j
Adsorbate Carbon Dioxide: InChIKey CURLTUGMZLYLDI-UHFFFAOYSA-N
Temperature: 273 K
Tabular data in the source: 0
pressure (bar)	uptake (mmol/g)
0.0459008	0.446142
0.2013	1.29999
0.297126	1.67071
0.397422	1.96684
0.497662	2.20709
0.602392	2.39139
0.702576	2.57577
0.798197	2.74162
0.898325	2.87013
1.00751	2.96122
