Adsorption isotherm of Nitrogen on UiO-66-NO2
DOI: 10.1039/C2cp23839j
Adsorbate Nitrogen: InChIKey IJGRMHOSHXDMSA-UHFFFAOYSA-N
Temperature: 323 K
Tabular data in the source: 0
pressure (bar)	uptake (mmol/g)
0.153242	0.0084825
0.252498	0.0233269
0.351619	0.0254475
0.405695	0.0275681
0.450807	0.03393
0.500357	0.03393
0.549996	0.0424125
0.595018	0.0402919
0.649117	0.0445331
0.694229	0.050895
0.748305	0.0530156
0.797855	0.0530156
0.842989	0.0614981
0.892539	0.0614981
0.942155	0.06786
