Adsorption isotherm of Carbon monoxide on UiO-66
DOI: 10.1039/C2cp23839j
Adsorbate Carbon monoxide: InChIKey UGFAIRIUMAVXCW-UHFFFAOYSA-N
Temperature: 298 K
Tabular data in the source: 0
pressure (bar)	uptake (mmol/g)
0.154108	0.0309806
0.249392	0.0619611
0.349089	0.0796643
0.403463	0.0885159
0.448824	0.101793
0.498672	0.110645
0.548558	0.123922
0.602951	0.134987
0.648312	0.148264
0.702666	0.154903
0.752552	0.16818
0.80242	0.179245
0.852287	0.190309
0.902135	0.199161
0.947459	0.208012
0.997326	0.219077
