Adsorption isotherm of Carbon Dioxide on UiO-66
DOI: 10.1039/C2cp23839j
Adsorbate Carbon Dioxide: InChIKey CURLTUGMZLYLDI-UHFFFAOYSA-N
Temperature: 298 K
Tabular data in the source: 0
pressure (bar)	uptake (mmol/g)
0.0491659	0.163601
0.0983677	0.290846
0.201309	0.490803
0.304215	0.727116
0.398242	0.872539
0.501202	1.05432
0.599713	1.19974
0.698224	1.34516
0.796753	1.47241
0.899749	1.61783
0.998314	1.70872
