Adsorption isotherm of Carbon Dioxide on UiO-66-Br
DOI: 10.1039/C2cp23839j
Adsorbate Carbon Dioxide: InChIKey CURLTUGMZLYLDI-UHFFFAOYSA-N
Temperature: 323 K
Tabular data in the source: 0
pressure (bar)	uptake (mmol/g)
0.153846	0.24312
0.248869	0.374031
0.298643	0.430135
0.352941	0.467538
0.39819	0.542345
0.447964	0.579748
0.497738	0.635852
0.552036	0.673255
0.60181	0.766763
0.651584	0.804166
0.705882	0.804166
0.755656	0.878972
0.79638	0.916375
0.850679	0.953778
0.900452	0.991181
0.954751	1.00988
0.995475	1.04729
