Adsorption isotherm of Carbon Dioxide on UiO-66-NO2
DOI: 10.1039/C2cp23839j
Adsorbate Carbon Dioxide: InChIKey CURLTUGMZLYLDI-UHFFFAOYSA-N
Temperature: 298 K
Tabular data in the source: 0
pressure (bar)	uptake (mmol/g)
0.102368	0.379684
0.151354	0.527531
0.20034	0.675379
0.249326	0.823226
0.302794	0.950193
0.351814	1.05609
0.400834	1.16199
0.449855	1.26789
0.50334	1.37388
0.552377	1.45881
0.601432	1.52276
0.654917	1.62876
0.69949	1.71359
0.753009	1.77763
0.802064	1.84158
0.855583	1.90563
0.90462	1.99056
0.953675	2.05451
0.998283	2.09739
