Adsorption isotherm of Nitrogen on UiO-66-NH2
DOI: 10.1039/C2cp23839j
Adsorbate Nitrogen: InChIKey IJGRMHOSHXDMSA-UHFFFAOYSA-N
Temperature: 348 K
Tabular data in the source: 0
pressure (bar)	uptake (mmol/g)
0.103125	0.00134927
0.156903	0.00456617
0.201748	0.00441371
0.246592	0.00426125
0.30037	0.00747815
0.349699	0.00731044
0.403477	0.0105273
0.452789	0.0120596
0.497615	0.013607
0.560398	0.0133936
0.605225	0.014941
0.650052	0.0164885
0.703865	0.0163056
0.757661	0.0178225
0.80699	0.0176548
0.856284	0.020887
0.905595	0.0224192
0.954924	0.0222515
0.999751	0.023799
