Adsorption isotherm of Methane on UiO-66-Br
DOI: 10.1039/C2cp23839j
Adsorbate Methane: InChIKey VNWKTOKETHGBQD-UHFFFAOYSA-N
Temperature: 298 K
Tabular data in the source: 0
pressure (bar)	uptake (mmol/g)
0.148117	0.141472
0.204848	0.156668
0.257101	0.21616
0.305079	0.23868
0.348635	0.283331
0.400944	0.320659
0.45327	0.350599
0.501212	0.387895
0.553539	0.417835
0.597114	0.455098
0.649477	0.470262
0.697419	0.507557
0.749764	0.530109
0.797724	0.560017
0.854455	0.575212
0.902415	0.60512
0.950375	0.635028
0.998353	0.657547
