Adsorption isotherm of Nitrogen on UiO-66-NH2
DOI: 10.1039/C2cp23839j
Adsorbate Nitrogen: InChIKey IJGRMHOSHXDMSA-UHFFFAOYSA-N
Temperature: 348 K
Tabular data in the source: 0
pressure (bar)	uptake (mmol/g)
0.0492579	0.006632
0.0985692	0.00816422
0.197085	0.0214282
0.300192	0.0244774
0.40321	0.0360262
0.497277	0.0459056
0.604833	0.0523394
0.703402	0.0605036
0.80199	0.0669679
0.900559	0.0751321
1.00361	0.0832811
