Adsorption isotherm of Methane on UiO-66-NH2
DOI: 10.1039/C2cp23839j
Adsorbate Methane: InChIKey VNWKTOKETHGBQD-UHFFFAOYSA-N
Temperature: 298 K
Tabular data in the source: 0
pressure (bar)	uptake (mmol/g)
0.144526	0.12668
0.19422	0.174939
0.248329	0.193036
0.297988	0.22923
0.352169	0.271457
0.397305	0.301619
0.451468	0.337813
0.50109	0.361943
0.550748	0.398137
0.604893	0.428299
0.645488	0.446396
0.699633	0.476558
0.749273	0.50672
0.803418	0.536882
0.853041	0.561011
0.902663	0.585141
0.94778	0.60927
0.997421	0.639432
