Adsorption isotherm of Nitrogen on UiO-66
DOI: 10.1039/C2cp23839j
Adsorbate Nitrogen: InChIKey IJGRMHOSHXDMSA-UHFFFAOYSA-N
Temperature: 323 K
Tabular data in the source: 0
pressure (bar)	uptake (mmol/g)
0.147231	0.00871502
0.191855	0.0104837
0.298925	0.0174376
0.347979	0.0226001
0.39705	0.0260695
0.455031	0.0312471
0.495192	0.0330082
0.557655	0.0365003
0.593351	0.0382539
0.646887	0.0417308
0.700422	0.0452078
0.749493	0.0486771
0.798564	0.0521465
0.84767	0.0522297
0.896723	0.0573922
0.950259	0.0608691
