Adsorption isotherm of Nitrogen on UiO-66-NO2
DOI: 10.1039/C2cp23839j
Adsorbate Nitrogen: InChIKey IJGRMHOSHXDMSA-UHFFFAOYSA-N
Temperature: 273 K
Tabular data in the source: 0
pressure (bar)	uptake (mmol/g)
0.149184	0.050895
0.207921	0.06786
0.302917	0.106031
0.352645	0.122996
0.402373	0.139961
0.497302	0.171771
0.551512	0.186615
0.596735	0.20358
0.700651	0.233269
0.79558	0.265078
0.894992	0.294767
0.944675	0.30749
0.99884	0.318094
