Adsorption isotherm of Carbon Dioxide on UiO-66-NO2
DOI: 10.1039/C2cp23839j
Adsorbate Carbon Dioxide: InChIKey CURLTUGMZLYLDI-UHFFFAOYSA-N
Temperature: 273 K
Tabular data in the source: 0
pressure (bar)	uptake (mmol/g)
0.0532099	0.441576
0.102024	0.799162
0.146426	1.09373
0.195326	1.34645
0.297694	1.72613
0.342216	1.87389
0.400113	2.0429
0.498103	2.31762
0.547123	2.42352
0.600608	2.52951
0.698649	2.74131
0.796724	2.91116
0.899281	3.06013
0.948301	3.16603
0.992892	3.22989
