Adsorption isotherm of Nitrogen on UiO-66-NO2
DOI: 10.1039/C2cp23839j
Adsorbate Nitrogen: InChIKey IJGRMHOSHXDMSA-UHFFFAOYSA-N
Temperature: 348 K
Tabular data in the source: 0
pressure (bar)	uptake (mmol/g)
0.0540541	0
0.10813	0.00212062
0.153175	0.00212062
0.198265	0.00636187
0.297498	0.0190856
0.401168	0.0254475
0.504861	0.03393
0.599523	0.0402919
0.703238	0.050895
0.793395	0.0572568
0.89711	0.06786
0.996231	0.0699806
