Adsorption isotherm of Carbon monoxide on UiO-66-NO2
DOI: 10.1039/C2cp23839j
Adsorbate Carbon monoxide: InChIKey UGFAIRIUMAVXCW-UHFFFAOYSA-N
Temperature: 348 K
Tabular data in the source: 0
pressure (bar)	uptake (mmol/g)
0.143572	0.0124955
0.197422	0.0187432
0.300561	0.0187432
0.345441	0.024991
0.394806	0.0312387
0.502448	0.0343626
0.547328	0.0406104
0.601158	0.0437342
0.699888	0.0562297
0.803008	0.0531058
0.901738	0.0656013
0.946599	0.0687252
0.995945	0.0718491
