Adsorption isotherm of Nitrogen on UiO-66-Br
DOI: 10.1039/C2cp23839j
Adsorbate Nitrogen: InChIKey IJGRMHOSHXDMSA-UHFFFAOYSA-N
Temperature: 273 K
Tabular data in the source: 0
pressure (bar)	uptake (mmol/g)
0.145894	0.0505583
0.198869	0.0613528
0.300525	0.0938402
0.34915	0.110088
0.3977	0.119075
0.503761	0.151555
0.547944	0.16418
0.592127	0.176806
0.702518	0.202017
0.79975	0.232698
0.901312	0.25611
0.949881	0.266912
1.00287	0.279522
