Adsorption isotherm of Carbon Dioxide on UiO-66
DOI: 10.1039/C2cp23839j
Adsorbate Carbon Dioxide: InChIKey CURLTUGMZLYLDI-UHFFFAOYSA-N
Temperature: 473 K
Tabular data in the source: 0
pressure (bar)	uptake (mmol/g)
1.03612	1.69246
9.74235	4.51618
19.8943	4.84043
29.7872	5.02557
