Adsorption isotherm of Nitrogen on UiO-66-NO2
DOI: 10.1039/C2cp23839j
Adsorbate Nitrogen: InChIKey IJGRMHOSHXDMSA-UHFFFAOYSA-N
Temperature: 348 K
Tabular data in the source: 0
pressure (bar)	uptake (mmol/g)
0.0495273	-0.00212062
0.103604	0
0.153175	0.00212062
0.202747	0.00424125
0.301846	0.00424125
0.351441	0.0084825
0.401012	0.0106031
0.491125	0.0127237
0.549706	0.0148444
0.599233	0.0127237
0.698377	0.016965
0.79752	0.0212062
0.896642	0.0233269
0.946214	0.0254475
0.991259	0.0254475
