Adsorption isotherm of Carbon Dioxide on UiO-66-NO2
DOI: 10.1039/C2cp23839j
Adsorbate Carbon Dioxide: InChIKey CURLTUGMZLYLDI-UHFFFAOYSA-N
Temperature: 298 K
Tabular data in the source: 0
pressure (bar)	uptake (mmol/g)
0.0488831	0.273691
0.0978177	0.48446
0.200203	0.84317
0.298175	1.13886
0.396199	1.37164
0.503185	1.56265
0.596813	1.71143
0.69937	1.8604
0.801944	1.9884
0.900036	2.13728
0.998163	2.24421
