Adsorption isotherm of Carbon monoxide on UiO-66
DOI: 10.1039/C2cp23839j
Adsorbate Carbon monoxide: InChIKey UGFAIRIUMAVXCW-UHFFFAOYSA-N
Temperature: 273 K
Tabular data in the source: 0
pressure (bar)	uptake (mmol/g)
0.14977	0.0531095
0.19515	0.0685998
0.29954	0.106219
0.349445	0.121709
0.399331	0.134987
0.494652	0.170393
0.549082	0.185883
0.598968	0.199161
0.698777	0.230141
0.80313	0.263335
0.902958	0.296528
0.948319	0.309806
0.998205	0.323083
