Adsorption isotherm of Nitrogen on UiO-66
DOI: 10.1039/C2cp23839j
Adsorbate Nitrogen: InChIKey IJGRMHOSHXDMSA-UHFFFAOYSA-N
Temperature: 298 K
Tabular data in the source: 0
pressure (bar)	uptake (mmol/g)
0.200541	0.0337296
0.294116	0.0505945
0.396618	0.0674593
0.499139	0.0826376
0.597212	0.0961295
0.695233	0.114681
0.797771	0.128173
0.900309	0.141664
0.99833	0.160216
