Adsorption isotherm of Methane on UiO-66-NH2
DOI: 10.1039/C2cp23839j
Adsorbate Methane: InChIKey VNWKTOKETHGBQD-UHFFFAOYSA-N
Temperature: 273 K
Tabular data in the source: 0
pressure (bar)	uptake (mmol/g)
0.0997167	0.205101
0.199288	0.361943
0.298805	0.500687
0.402772	0.621335
0.502198	0.729918
0.705427	0.904857
0.899557	1.04963
1.00336	1.11599
