Adsorption isotherm of Methane on UiO-66
DOI: 10.1039/C2cp23839j
Adsorbate Methane: InChIKey VNWKTOKETHGBQD-UHFFFAOYSA-N
Temperature: 298 K
Tabular data in the source: 0
pressure (bar)	uptake (mmol/g)
0.144737	0.0935016
0.197368	0.129863
0.241228	0.166225
0.29386	0.192198
0.342105	0.223365
0.390351	0.244143
0.442982	0.27531
0.495614	0.306478
0.539474	0.327256
0.596491	0.353228
0.640351	0.374007
0.697368	0.399979
0.745614	0.425952
0.789474	0.44673
0.850877	0.477897
0.894737	0.498675
0.951754	0.519454
0.991228	0.545426
