Adsorption isotherm of Carbon monoxide on UiO-66-NO2
DOI: 10.1039/C2cp23839j
Adsorbate Carbon monoxide: InChIKey UGFAIRIUMAVXCW-UHFFFAOYSA-N
Temperature: 298 K
Tabular data in the source: 0
pressure (bar)	uptake (mmol/g)
0.0944694	0.049982
0.197889	0.0968401
0.296824	0.143698
0.395721	0.184309
0.499141	0.231167
0.602504	0.268653
0.701401	0.309263
0.800262	0.343626
0.903625	0.381113
1.00249	0.415475
