Adsorption isotherm of Carbon monoxide on UiO-66-NH2
DOI: 10.1039/C2cp23839j
Adsorbate Carbon monoxide: InChIKey UGFAIRIUMAVXCW-UHFFFAOYSA-N
Temperature: 348 K
Tabular data in the source: 0
pressure (bar)	uptake (mmol/g)
0.155602	0.0214208
0.248127	0.0348089
0.302766	0.0374865
0.349037	0.0455193
0.403676	0.0481969
0.449965	0.0589073
0.50042	0.0642625
0.550875	0.0696177
0.601331	0.074973
0.647619	0.0856834
0.702276	0.0910386
0.752696	0.0910386
0.794748	0.0963938
0.849422	0.104427
0.895676	0.109782
0.950333	0.115137
1.00075	0.115137
