Adsorption isotherm of Nitrogen on UiO-66-NO2
DOI: 10.1039/C2cp23839j
Adsorbate Nitrogen: InChIKey IJGRMHOSHXDMSA-UHFFFAOYSA-N
Temperature: 298 K
Tabular data in the source: 0
pressure (bar)	uptake (mmol/g)
0.0993444	0.0233269
0.203238	0.050895
0.302605	0.0763425
0.397511	0.106031
0.501338	0.127237
0.600682	0.150564
0.700071	0.178132
0.794889	0.199339
0.898716	0.220545
0.998038	0.241751
