Adsorption isotherm of Carbon monoxide on UiO-66-NO2
DOI: 10.1039/C2cp23839j
Adsorbate Carbon monoxide: InChIKey UGFAIRIUMAVXCW-UHFFFAOYSA-N
Temperature: 323 K
Tabular data in the source: 0
pressure (bar)	uptake (mmol/g)
0.242414	0.0437342
0.345665	0.0624775
0.399514	0.0687252
0.444395	0.074973
0.502728	0.0812207
0.543161	0.0937162
0.601476	0.0968401
0.650841	0.103088
0.695721	0.109336
0.749589	0.118707
0.798954	0.124955
0.852821	0.134327
0.902186	0.140574
0.956054	0.149946
