Adsorption isotherm of Nitrogen on UiO-66-NH2
DOI: 10.1039/C2cp23839j
Adsorbate Nitrogen: InChIKey IJGRMHOSHXDMSA-UHFFFAOYSA-N
Temperature: 298 K
Tabular data in the source: 0
pressure (bar)	uptake (mmol/g)
0.0983913	0.0251635
0.201338	0.043512
0.299836	0.0584759
0.402765	0.0785244
0.501263	0.0934883
0.599726	0.111852
0.698188	0.130216
0.801153	0.146864
0.899651	0.161828
0.998131	0.178492
