Adsorption isotherm of Carbon Dioxide on UiO-66-NO2
DOI: 10.1039/C2cp23839j
Adsorbate Carbon Dioxide: InChIKey CURLTUGMZLYLDI-UHFFFAOYSA-N
Temperature: 323 K
Tabular data in the source: 0
pressure (bar)	uptake (mmol/g)
0.156058	0.23399
0.254134	0.403841
0.303188	0.467793
0.347779	0.531651
0.396851	0.574629
0.45037	0.638674
0.503906	0.681746
0.552961	0.745697
0.597569	0.788582
0.646606	0.873507
0.70016	0.895605
0.753696	0.938676
0.802768	0.981654
0.847376	1.02454
0.905376	1.0677
0.954465	1.08971
0.994591	1.15347
