Adsorption isotherm of Nitrogen on UiO-66-Br
DOI: 10.1039/C2cp23839j
Adsorbate Nitrogen: InChIKey IJGRMHOSHXDMSA-UHFFFAOYSA-N
Temperature: 323 K
Tabular data in the source: 0
pressure (bar)	uptake (mmol/g)
0.242529	0.0231562
0.29541	0.0248753
0.348347	0.0320397
0.392418	0.0337748
0.440931	0.0391321
0.498236	0.0426583
0.542325	0.0462085
0.595244	0.0515578
0.652512	0.0514538
0.692214	0.0568271
0.745133	0.0621764
0.797995	0.0620804
0.850932	0.0692448
0.899408	0.0709719
0.947903	0.0745141
