Adsorption isotherm of Nitrogen on UiO-66-Br
DOI: 10.1039/C2cp23839j
Adsorbate Nitrogen: InChIKey IJGRMHOSHXDMSA-UHFFFAOYSA-N
Temperature: 348 K
Tabular data in the source: 0
pressure (bar)	uptake (mmol/g)
0.0925466	0.00346224
0.136636	0.00701243
0.189517	0.00873156
0.295261	0.0103547
0.34816	0.0138889
0.396618	0.013801
0.497975	0.0172472
0.542027	0.0171673
0.590521	0.0207095
0.700651	0.0205096
0.797585	0.0221487
0.894518	0.0237879
0.947418	0.0273221
0.995875	0.0272341
