Adsorption isotherm of Carbon Dioxide on UiO-66-NO2
DOI: 10.1039/C2cp23839j
Adsorbate Carbon Dioxide: InChIKey CURLTUGMZLYLDI-UHFFFAOYSA-N
Temperature: 473 K
Tabular data in the source: 0
pressure (bar)	uptake (mmol/g)
1.01656	1.91074
9.94211	3.80191
19.9619	4.08637
29.8619	4.19214
