Adsorption isotherm of Carbon Dioxide on UiO-66-NH2
DOI: 10.1039/C2cp23839j
Adsorbate Carbon Dioxide: InChIKey CURLTUGMZLYLDI-UHFFFAOYSA-N
Temperature: 273 K
Tabular data in the source: 0
pressure (bar)	uptake (mmol/g)
0.0488889	0.665818
0.2	1.92347
0.297778	2.41667
0.395556	2.78657
0.493333	3.05783
0.6	3.32909
0.697778	3.47705
0.795556	3.64967
0.893333	3.77297
0.991111	3.89627
