Adsorption isotherm of Carbon Dioxide on UiO-66
DOI: 10.1039/C2cp23839j
Adsorbate Carbon Dioxide: InChIKey CURLTUGMZLYLDI-UHFFFAOYSA-N
Temperature: 323 K
Tabular data in the source: 0
pressure (bar)	uptake (mmol/g)
0.102978	0.163601
0.201507	0.290846
0.300072	0.381736
0.398601	0.508981
0.50165	0.59987
0.595713	0.708938
0.694314	0.763472
0.797345	0.872539
0.900395	0.963428
1.00796	1.01796
