Adsorption isotherm of Nitrogen on UiO-66-Br
DOI: 10.1039/C2cp23839j
Adsorbate Nitrogen: InChIKey IJGRMHOSHXDMSA-UHFFFAOYSA-N
Temperature: 273 K
Tabular data in the source: 0
pressure (bar)	uptake (mmol/g)
0.0486439	0.0180628
0.0972878	0.0361256
0.198981	0.0722432
0.296194	0.101109
0.397831	0.131781
0.499505	0.166083
0.596737	0.196764
0.693876	0.218369
0.795494	0.247226
0.897131	0.277899
0.998656	0.297681
