Adsorption isotherm of Carbon Dioxide on UiO-66-NH2
DOI: 10.1039/C2cp23839j
Adsorbate Carbon Dioxide: InChIKey CURLTUGMZLYLDI-UHFFFAOYSA-N
Temperature: 323 K
Tabular data in the source: 0
pressure (bar)	uptake (mmol/g)
0.151111	0.295919
0.253333	0.468539
0.346667	0.542518
0.404444	0.641158
0.448889	0.715138
0.497778	0.813777
0.551111	0.863097
0.6	0.912417
0.644444	0.961737
0.697778	1.01106
0.746667	1.08504
0.795556	1.1097
0.848889	1.15902
0.893333	1.20834
0.946667	1.233
0.991111	1.30698
