Adsorption isotherm of Methane on UiO-66-NO2
DOI: 10.1039/C2cp23839j
Adsorbate Methane: InChIKey VNWKTOKETHGBQD-UHFFFAOYSA-N
Temperature: 298 K
Tabular data in the source: 0
pressure (bar)	uptake (mmol/g)
0.143233	0.146853
0.201362	0.183401
0.255046	0.227378
0.299745	0.249234
0.348964	0.293244
0.393701	0.329891
0.451811	0.359043
0.500993	0.388262
0.554658	0.424843
0.599376	0.454095
0.653022	0.483281
0.702185	0.505104
0.751386	0.541718
0.805013	0.563508
0.84973	0.59276
0.903358	0.61455
0.952521	0.636374
0.997238	0.665625
