Adsorption isotherm of Carbon monoxide on UiO-66-NO2
DOI: 10.1039/C2cp23839j
Adsorbate Carbon monoxide: InChIKey UGFAIRIUMAVXCW-UHFFFAOYSA-N
Temperature: 273 K
Tabular data in the source: 0
pressure (bar)	uptake (mmol/g)
0.0945441	0.0624775
0.148543	0.0937162
0.198019	0.118707
0.297029	0.178061
0.351009	0.206176
0.396001	0.231167
0.499477	0.287396
0.548935	0.309263
0.602896	0.334254
0.697347	0.381113
0.800785	0.431094
0.904185	0.474829
0.953643	0.496696
1.00308	0.515439
