Adsorption isotherm of Carbon Dioxide on UiO-66-Br
DOI: 10.1039/C2cp23839j
Adsorbate Carbon Dioxide: InChIKey CURLTUGMZLYLDI-UHFFFAOYSA-N
Temperature: 348 K
Tabular data in the source: 0
pressure (bar)	uptake (mmol/g)
0.149321	0.0935077
0.248869	0.205717
0.348416	0.280523
0.447964	0.355329
0.552036	0.392732
0.647059	0.48624
0.751131	0.523643
0.850679	0.579748
0.954751	0.654554
0.995475	0.635852
