Adsorption isotherm of Methane on UiO-66-NO2
DOI: 10.1039/C2cp23839j
Adsorbate Methane: InChIKey VNWKTOKETHGBQD-UHFFFAOYSA-N
Temperature: 323 K
Tabular data in the source: 0
pressure (bar)	uptake (mmol/g)
0.147508	0.0728652
0.245796	0.101721
0.299442	0.130906
0.35305	0.145301
0.402213	0.167124
0.446893	0.181585
0.554128	0.21777
0.598808	0.232231
0.647971	0.254054
0.697134	0.275877
0.750742	0.290272
0.804332	0.297271
0.853495	0.319095
0.902601	0.318732
0.951764	0.340555
1.00091	0.354983
