Adsorption isotherm of Carbon Dioxide on UiO-66-NO2
DOI: 10.1039/C2cp23839j
Adsorbate Carbon Dioxide: InChIKey CURLTUGMZLYLDI-UHFFFAOYSA-N
Temperature: 323 K
Tabular data in the source: 0
pressure (bar)	uptake (mmol/g)
0.0980066	0.253747
0.200529	0.444666
0.298604	0.614517
0.396696	0.763394
0.49927	0.891391
0.601844	1.01939
0.699954	1.14729
0.798098	1.23325
0.896207	1.36115
1.0033	1.42632
