Adsorption isotherm of Carbon Dioxide on UiO-66-Br
DOI: 10.1039/C2cp23839j
Adsorbate Carbon Dioxide: InChIKey CURLTUGMZLYLDI-UHFFFAOYSA-N
Temperature: 323 K
Tabular data in the source: 0
pressure (bar)	uptake (mmol/g)
0.0995475	0.187015
0.199095	0.336628
0.298643	0.467538
0.39819	0.598449
0.497738	0.72936
0.60181	0.841569
0.701357	0.916375
0.800905	1.00988
0.904977	1.08469
1.00452	1.1782
