Adsorption isotherm of Nitrogen on UiO-66
DOI: 10.1039/C2cp23839j
Adsorbate Nitrogen: InChIKey IJGRMHOSHXDMSA-UHFFFAOYSA-N
Temperature: 348 K
Tabular data in the source: 0
pressure (bar)	uptake (mmol/g)
0.15173	0.00533635
0.200783	0.0104988
0.240961	0.0105669
0.294514	0.0123507
0.352549	0.012449
0.397156	0.0159108
0.450726	0.0160015
0.495333	0.0194633
0.548886	0.0212471
0.593492	0.0247089
0.647028	0.0281859
0.700581	0.0299697
0.749669	0.031746
0.803222	0.0335298
0.852275	0.0386923
0.896917	0.0387679
0.950488	0.0388586
0.995095	0.0423204
