Adsorption isotherm of Nitrogen on UiO-66-NH2
DOI: 10.1039/C2cp23839j
Adsorbate Nitrogen: InChIKey IJGRMHOSHXDMSA-UHFFFAOYSA-N
Temperature: 273 K
Tabular data in the source: 0
pressure (bar)	uptake (mmol/g)
0.0491334	0.0185315
0.102769	0.0353478
0.201089	0.067311
0.303929	0.095859
0.397818	0.122738
0.500641	0.152986
0.608019	0.176419
0.701943	0.199898
0.800263	0.231861
0.898672	0.255324
