Adsorption isotherm of Carbon monoxide on UiO-66
DOI: 10.1039/C2cp23839j
Adsorbate Carbon monoxide: InChIKey UGFAIRIUMAVXCW-UHFFFAOYSA-N
Temperature: 348 K
Tabular data in the source: 0
pressure (bar)	uptake (mmol/g)
0.045305	0.00663869
0.104185	0.0132774
0.203807	0.022129
0.298942	0.0354063
0.502749	0.0575353
0.597883	0.0708127
0.697506	0.0796643
0.901313	0.101793
1.00097	0.115071
