Adsorption isotherm of Carbon Dioxide on UiO-66-NO2
DOI: 10.1039/C2cp23839j
Adsorbate Carbon Dioxide: InChIKey CURLTUGMZLYLDI-UHFFFAOYSA-N
Temperature: 348 K
Tabular data in the source: 0
pressure (bar)	uptake (mmol/g)
0.0936625	0.106836
0.156161	0.108147
0.200786	0.130057
0.249824	0.214983
0.303377	0.23708
0.352449	0.280058
0.401521	0.323036
0.450576	0.386987
0.504129	0.409085
0.548771	0.410021
0.602308	0.453093
0.646898	0.516951
0.700452	0.539048
0.749541	0.561052
0.803094	0.58315
0.852166	0.626127
0.901255	0.648131
0.954808	0.670229
0.999433	0.692139
