Adsorption isotherm of Carbon monoxide on UiO-66-NH2
DOI: 10.1039/C2cp23839j
Adsorbate Carbon monoxide: InChIKey UGFAIRIUMAVXCW-UHFFFAOYSA-N
Temperature: 323 K
Tabular data in the source: 0
pressure (bar)	uptake (mmol/g)
0.151401	0.0214208
0.252311	0.0321313
0.353239	0.0455193
0.445746	0.0562297
0.504604	0.0615849
0.550893	0.0722954
0.651803	0.0830058
0.698039	0.0856834
0.752731	0.0963938
0.84944	0.107104
0.895676	0.109782
0.95035	0.117815
