Adsorption isotherm of Methane on UiO-66
DOI: 10.1039/C2cp23839j
Adsorbate Methane: InChIKey VNWKTOKETHGBQD-UHFFFAOYSA-N
Temperature: 348 K
Tabular data in the source: 0
pressure (bar)	uptake (mmol/g)
0.0877193	0.0155836
0.140351	0.0311672
0.25	0.0467508
0.289474	0.0519454
0.342105	0.0519454
0.394737	0.0623344
0.447368	0.0727235
0.495614	0.077918
0.54386	0.0831126
0.596491	0.0883071
0.649123	0.0986962
0.697368	0.11428
0.75	0.119474
0.79386	0.124669
0.899123	0.135058
0.947368	0.140252
0.995614	0.150642
