Adsorption isotherm of Nitrogen on UiO-66-NH2
DOI: 10.1039/C2cp23839j
Adsorbate Nitrogen: InChIKey IJGRMHOSHXDMSA-UHFFFAOYSA-N
Temperature: 273 K
Tabular data in the source: 0
pressure (bar)	uptake (mmol/g)
0.02228	0.0135232
0.151938	0.0504794
0.35308	0.112691
0.500605	0.156386
0.549774	0.171517
0.598961	0.184949
0.701836	0.210097
0.795726	0.236976
0.898583	0.263824
0.952255	0.27724
0.992473	0.290703
