Adsorption isotherm of Carbon Dioxide on UiO-66-Br
DOI: 10.1039/C2cp23839j
Adsorbate Carbon Dioxide: InChIKey CURLTUGMZLYLDI-UHFFFAOYSA-N
Temperature: 298 K
Tabular data in the source: 0
pressure (bar)	uptake (mmol/g)
0.145973	0.518778
0.250778	0.777575
0.350999	0.999207
0.451184	1.18359
0.555914	1.36789
0.601442	1.44154
0.651515	1.51511
0.697044	1.58876
0.751663	1.66224
0.801718	1.71718
0.851791	1.79075
0.901865	1.86432
0.951882	1.88201
0.997411	1.95566
