Adsorption isotherm of Carbon Dioxide on UiO-66-NH2
DOI: 10.1039/C2cp23839j
Adsorbate Carbon Dioxide: InChIKey CURLTUGMZLYLDI-UHFFFAOYSA-N
Temperature: 348 K
Tabular data in the source: 0
pressure (bar)	uptake (mmol/g)
0.0488889	0.0986397
0.0977778	0.1233
0.151111	0.14796
0.2	0.197279
0.248889	0.246599
0.297778	0.295919
0.351111	0.320579
0.4	0.369899
0.448889	0.419219
0.497778	0.419219
0.542222	0.517858
0.6	0.517858
0.644444	0.517858
0.693333	0.567178
0.742222	0.616498
0.795556	0.665818
0.848889	0.665818
0.893333	0.690478
0.942222	0.715138
0.991111	0.764458
