Adsorption isotherm of Carbon monoxide on UiO-66
DOI: 10.1039/C2cp23839j
Adsorbate Carbon monoxide: InChIKey UGFAIRIUMAVXCW-UHFFFAOYSA-N
Temperature: 348 K
Tabular data in the source: 0
pressure (bar)	uptake (mmol/g)
0.149415	0.0110645
0.203732	0.0132774
0.249	0.0154903
0.303336	0.0199161
0.348622	0.0243419
0.402939	0.0265548
0.448226	0.0309806
0.502562	0.0354063
0.547848	0.0398321
0.597659	0.0442579
0.647451	0.0464708
0.701769	0.0486837
0.747055	0.0531095
0.801391	0.0575353
0.84664	0.0575353
0.900976	0.0619611
0.950787	0.0663869
0.996073	0.0708127
