Adsorption isotherm of Carbon monoxide on UiO-66-Br
DOI: 10.1039/C2cp23839j
Adsorbate Carbon monoxide: InChIKey UGFAIRIUMAVXCW-UHFFFAOYSA-N
Temperature: 323 K
Tabular data in the source: 0
pressure (bar)	uptake (mmol/g)
0.150303	0.0214208
0.250492	0.0348089
0.346136	0.0481969
0.400833	0.0589073
0.455455	0.0642625
0.496439	0.0696177
0.546477	0.0722954
0.601136	0.0803282
0.651212	0.0856834
0.69678	0.0937162
0.746856	0.0990714
0.79697	0.107104
0.851591	0.112459
0.901629	0.115137
0.956288	0.12317
1.00182	0.128525
