Adsorption isotherm of Carbon monoxide on UiO-66-NH2
DOI: 10.1039/C2cp23839j
Adsorbate Carbon monoxide: InChIKey UGFAIRIUMAVXCW-UHFFFAOYSA-N
Temperature: 298 K
Tabular data in the source: 0
pressure (bar)	uptake (mmol/g)
0.151576	0.0481969
0.252626	0.0803282
0.34944	0.107104
0.450473	0.136558
0.551488	0.163334
0.648319	0.192788
0.749352	0.222241
0.85035	0.24634
0.95562	0.281149
0.997689	0.289181
