Adsorption isotherm of Carbon Dioxide on UiO-66
DOI: 10.1039/C2cp23839j
Adsorbate Carbon Dioxide: InChIKey CURLTUGMZLYLDI-UHFFFAOYSA-N
Temperature: 348 K
Tabular data in the source: 0
pressure (bar)	uptake (mmol/g)
0.013435	0.0181779
0.0492735	0.0545337
0.103049	0.0908895
0.20165	0.145423
0.300233	0.218135
0.398816	0.290846
0.501883	0.363558
0.600502	0.399914
0.703587	0.454447
0.797704	0.508981
0.896287	0.581693
1.00387	0.618048
