Adsorption isotherm of Carbon monoxide on UiO-66-NH2
DOI: 10.1039/C2cp23839j
Adsorbate Carbon monoxide: InChIKey UGFAIRIUMAVXCW-UHFFFAOYSA-N
Temperature: 273 K
Tabular data in the source: 0
pressure (bar)	uptake (mmol/g)
0.0506127	0.0294537
0.101208	0.0562297
0.198179	0.107104
0.299352	0.157979
0.404709	0.206176
0.501646	0.251695
0.598582	0.297214
0.699685	0.337378
0.804989	0.377542
0.901873	0.415029
1.00298	0.455193
