Adsorption isotherm of Carbon Dioxide on UiO-66
DOI: 10.1039/C2cp23839j
Adsorbate Carbon Dioxide: InChIKey CURLTUGMZLYLDI-UHFFFAOYSA-N
Temperature: 298 K
Tabular data in the source: 0
pressure (bar)	uptake (mmol/g)
0.147659	0.327202
0.201399	0.399914
0.246152	0.490803
0.299874	0.581693
0.344646	0.654404
0.40287	0.727116
0.45209	0.836183
0.501345	0.908895
0.550601	0.981606
0.595372	1.05432
0.644646	1.10885
0.693883	1.19974
0.752126	1.25427
0.796915	1.30881
0.846152	1.3997
0.89991	1.45423
0.949166	1.52694
0.993955	1.58148
