Adsorption isotherm of Carbon Dioxide on UiO-66-NH2
DOI: 10.1039/C2cp23839j
Adsorbate Carbon Dioxide: InChIKey CURLTUGMZLYLDI-UHFFFAOYSA-N
Temperature: 323 K
Tabular data in the source: 0
pressure (bar)	uptake (mmol/g)
0.102222	0.295919
0.2	0.468539
0.297778	0.665818
0.4	0.813777
0.497778	0.961737
0.6	1.1097
0.697778	1.233
0.795556	1.3563
0.893333	1.4796
0.995556	1.57824
