Adsorption isotherm of Carbon monoxide on UiO-66
DOI: 10.1039/C2cp23839j
Adsorbate Carbon monoxide: InChIKey UGFAIRIUMAVXCW-UHFFFAOYSA-N
Temperature: 273 K
Tabular data in the source: 0
pressure (bar)	uptake (mmol/g)
0.0499981	0.0265548
0.0999402	0.0464708
0.204349	0.086303
0.299708	0.126135
0.404117	0.165967
0.499439	0.201374
0.599323	0.241206
0.69917	0.276612
0.803523	0.309806
0.89432	0.345212
1.00322	0.380618
