Adsorption isotherm of Nitrogen on UiO-66-Br
DOI: 10.1039/C2cp23839j
Adsorbate Nitrogen: InChIKey IJGRMHOSHXDMSA-UHFFFAOYSA-N
Temperature: 323 K
Tabular data in the source: 0
pressure (bar)	uptake (mmol/g)
0.0882907	0.0179908
0.194128	0.0286894
0.295578	0.041211
0.392642	0.0555557
0.494092	0.0680774
0.595524	0.0787839
0.696956	0.0894905
0.794001	0.10202
0.895414	0.110912
1.00125	0.12161
