Adsorption isotherm of Carbon monoxide on UiO-66-Br
DOI: 10.1039/C2cp23839j
Adsorbate Carbon monoxide: InChIKey UGFAIRIUMAVXCW-UHFFFAOYSA-N
Temperature: 273 K
Tabular data in the source: 0
pressure (bar)	uptake (mmol/g)
0.146553	0.0776506
0.196894	0.101749
0.302083	0.147268
0.347765	0.163334
0.402614	0.184755
0.503295	0.232952
0.553485	0.24634
0.603788	0.267761
0.699773	0.305247
0.800303	0.342734
0.909924	0.38022
0.955606	0.396286
1.00129	0.412351
