Adsorption isotherm of Carbon monoxide on UiO-66
DOI: 10.1039/C2cp23839j
Adsorbate Carbon monoxide: InChIKey UGFAIRIUMAVXCW-UHFFFAOYSA-N
Temperature: 323 K
Tabular data in the source: 0
pressure (bar)	uptake (mmol/g)
0.0951722	0.0177032
0.199413	0.0376192
0.299147	0.0597482
0.403332	0.0730256
0.502992	0.086303
0.801915	0.119496
0.897049	0.132774
1.00116	0.1372
