Adsorption isotherm of Carbon Dioxide on UiO-66-Br
DOI: 10.1039/C2cp23839j
Adsorbate Carbon Dioxide: InChIKey CURLTUGMZLYLDI-UHFFFAOYSA-N
Temperature: 298 K
Tabular data in the source: 0
pressure (bar)	uptake (mmol/g)
0.0411319	0.222733
0.095844	0.389338
0.196103	0.648219
0.291798	0.88856
0.401073	1.07277
0.496712	1.25724
0.596878	1.423
0.697006	1.55151
0.80168	1.67993
0.906317	1.77111
1.00188	1.88108
