Adsorption isotherm of Methane on UiO-66-Br
DOI: 10.1039/C2cp23839j
Adsorbate Methane: InChIKey VNWKTOKETHGBQD-UHFFFAOYSA-N
Temperature: 273 K
Tabular data in the source: 0
pressure (bar)	uptake (mmol/g)
0.100046	0.155894
0.156592	0.244971
0.200111	0.304399
0.304617	0.423384
0.352484	0.490232
0.400426	0.527528
0.500583	0.639093
0.552891	0.676421
0.596447	0.721072
0.701027	0.810505
0.79691	0.885096
0.897178	0.952332
0.94512	0.989627
0.993061	1.02692
