Adsorption isotherm of Carbon monoxide on UiO-66-NH2
DOI: 10.1039/C2cp23839j
Adsorbate Carbon monoxide: InChIKey UGFAIRIUMAVXCW-UHFFFAOYSA-N
Temperature: 298 K
Tabular data in the source: 0
pressure (bar)	uptake (mmol/g)
0.202083	0.0615849
0.303116	0.0910386
0.399965	0.12317
0.50098	0.149946
0.601996	0.176722
0.698827	0.206176
0.799842	0.232952
0.900858	0.259728
1.00186	0.283826
