Adsorption isotherm of Nitrogen on UiO-66-Br
DOI: 10.1039/C2cp23839j
Adsorbate Nitrogen: InChIKey IJGRMHOSHXDMSA-UHFFFAOYSA-N
Temperature: 298 K
Tabular data in the source: 0
pressure (bar)	uptake (mmol/g)
0.0927519	0.0234281
0.198682	0.043202
0.295802	0.0629919
0.392903	0.0809668
0.498889	0.106186
0.596009	0.125976
0.697497	0.142128
0.794598	0.160103
0.89616	0.183515
1.00202	0.196028
