Adsorption isotherm of Nitrogen on UiO-66-Br
DOI: 10.1039/C2cp23839j
Adsorbate Nitrogen: InChIKey IJGRMHOSHXDMSA-UHFFFAOYSA-N
Temperature: 298 K
Tabular data in the source: 0
pressure (bar)	uptake (mmol/g)
0.145708	0.0324075
0.247214	0.0503744
0.344334	0.0701643
0.445859	0.0899462
0.498796	0.0971106
0.542941	0.106106
0.595897	0.115085
0.648872	0.12588
0.697385	0.131237
0.750359	0.142032
0.803296	0.149196
0.843037	0.158199
0.900416	0.168986
0.948929	0.174343
0.997461	0.181516
