Adsorption isotherm of Carbon monoxide on UiO-66-Br
DOI: 10.1039/C2cp23839j
Adsorbate Carbon monoxide: InChIKey UGFAIRIUMAVXCW-UHFFFAOYSA-N
Temperature: 273 K
Tabular data in the source: 0
pressure (bar)	uptake (mmol/g)
0.0504167	0.0294537
0.100871	0.0615849
0.201667	0.117815
0.297803	0.166012
0.40303	0.214208
0.50375	0.265083
0.599811	0.307925
0.704962	0.350766
0.80553	0.39093
0.906061	0.428417
1.00659	0.465903
