Adsorption isotherm of Nitrogen on UiO-66
DOI: 10.1039/C2cp23839j
Adsorbate Nitrogen: InChIKey IJGRMHOSHXDMSA-UHFFFAOYSA-N
Temperature: 273 K
Tabular data in the source: 0
pressure (bar)	uptake (mmol/g)
0.044843	0.0168648
0.0941704	0.0303567
0.197309	0.0573404
0.295964	0.0775782
0.399103	0.107935
0.493274	0.128173
0.596413	0.15347
0.695067	0.173708
0.798206	0.195632
0.896861	0.219243
1	0.246226
