Adsorption isotherm of Methane on UiO-66-NH2
DOI: 10.1039/C2cp23839j
Adsorbate Methane: InChIKey VNWKTOKETHGBQD-UHFFFAOYSA-N
Temperature: 323 K
Tabular data in the source: 0
pressure (bar)	uptake (mmol/g)
0.0948126	0.0723885
0.198561	0.120648
0.29786	0.187004
0.401573	0.223198
0.500836	0.277489
0.600062	0.319716
0.699288	0.361943
0.803019	0.404169
0.897722	0.440364
1.00145	0.48259
