Adsorption isotherm of Carbon monoxide on UiO-66-Br
DOI: 10.1039/C2cp23839j
Adsorbate Carbon monoxide: InChIKey UGFAIRIUMAVXCW-UHFFFAOYSA-N
Temperature: 348 K
Tabular data in the source: 0
pressure (bar)	uptake (mmol/g)
0.0456061	0.0107104
0.100189	0.013388
0.200417	0.0294537
0.296023	0.0401641
0.400795	0.0562297
0.500947	0.0669401
0.601136	0.0803282
0.696742	0.0910386
0.801515	0.107104
0.897121	0.117815
1.00186	0.131203
