Adsorption isotherm of Methane on UiO-66
DOI: 10.1039/C2cp23839j
Adsorbate Methane: InChIKey VNWKTOKETHGBQD-UHFFFAOYSA-N
Temperature: 273 K
Tabular data in the source: 0
pressure (bar)	uptake (mmol/g)
0.0921053	0.150642
0.197368	0.280505
0.29386	0.394785
0.394737	0.488286
0.491228	0.576593
0.697368	0.737624
0.798246	0.810348
0.899123	0.883071
1	0.940211
