Adsorption isotherm of Nitrogen on UiO-66
DOI: 10.1039/C2cp23839j
Adsorbate Nitrogen: InChIKey IJGRMHOSHXDMSA-UHFFFAOYSA-N
Temperature: 273 K
Tabular data in the source: 0
pressure (bar)	uptake (mmol/g)
0.146917	0.0387891
0.195954	0.045535
0.298351	0.0725187
0.342818	0.0893835
0.396302	0.097816
0.49427	0.121427
0.552201	0.131546
0.596738	0.141664
0.699188	0.163589
0.797139	0.188886
0.899606	0.209124
0.948608	0.219243
0.99761	0.229362
