Adsorption isotherm of Methane on UiO-66
DOI: 10.1039/C2cp23839j
Adsorbate Methane: InChIKey VNWKTOKETHGBQD-UHFFFAOYSA-N
Temperature: 298 K
Tabular data in the source: 0
pressure (bar)	uptake (mmol/g)
0.0921053	0.0883071
0.192982	0.155836
0.29386	0.233754
0.390351	0.290894
0.495614	0.358423
0.592105	0.415563
0.701754	0.457119
0.79386	0.509064
0.899123	0.550621
0.995614	0.597372
