Adsorption isotherm of Carbon Dioxide on UiO-66-Br
DOI: 10.1039/C2cp23839j
Adsorbate Carbon Dioxide: InChIKey CURLTUGMZLYLDI-UHFFFAOYSA-N
Temperature: 273 K
Tabular data in the source: 0
pressure (bar)	uptake (mmol/g)
0.0184423	0.260405
0.0962352	0.780453
0.151059	1.05881
0.351838	1.83731
0.54781	2.35516
0.607012	2.4658
0.702632	2.63165
0.802817	2.81603
0.907509	2.96308
0.953037	3.03673
1.00311	3.1103
