Adsorption isotherm of Carbon monoxide on UiO-66-NH2
DOI: 10.1039/C2cp23839j
Adsorbate Carbon monoxide: InChIKey UGFAIRIUMAVXCW-UHFFFAOYSA-N
Temperature: 348 K
Tabular data in the source: 0
pressure (bar)	uptake (mmol/g)
0.0504202	0
0.100858	0.00267761
0.151313	0.00803282
0.201733	0.00803282
0.247969	0.0107104
0.302626	0.0160656
0.357265	0.0187432
0.403519	0.0240985
0.453922	0.0214208
0.504359	0.0240985
0.554797	0.0267761
0.605235	0.0294537
0.651471	0.0321313
0.701908	0.0348089
0.752346	0.0374865
0.806985	0.0401641
0.853221	0.0428417
0.89944	0.0428417
0.949877	0.0455193
0.991912	0.0481969
