Adsorption isotherm of Methane on UiO-66
DOI: 10.1039/C2cp23839j
Adsorbate Methane: InChIKey VNWKTOKETHGBQD-UHFFFAOYSA-N
Temperature: 273 K
Tabular data in the source: 0
pressure (bar)	uptake (mmol/g)
0.144737	0.17142
0.192982	0.223365
0.298246	0.322061
0.346491	0.363617
0.394737	0.410368
0.495614	0.50387
0.548246	0.550621
0.596491	0.592177
0.697368	0.67529
0.798246	0.763597
0.899123	0.83632
0.947368	0.872682
0.991228	0.909044
