Adsorption isotherm of Carbon Dioxide on UiO-66
DOI: 10.1039/C2cp23839j
Adsorbate Carbon Dioxide: InChIKey CURLTUGMZLYLDI-UHFFFAOYSA-N
Temperature: 323 K
Tabular data in the source: 0
pressure (bar)	uptake (mmol/g)
0.147839	0.145423
0.255354	0.254491
0.344969	0.327202
0.398744	0.363558
0.456987	0.418092
0.501794	0.454447
0.551085	0.490803
0.595857	0.563515
0.64965	0.581693
0.698942	0.618048
0.752717	0.654404
0.802009	0.69076
0.8513	0.727116
0.900592	0.763472
0.954368	0.799827
0.994691	0.836183
