Adsorption isotherm of Carbon Dioxide on UiO-66-NH2
DOI: 10.1039/C2cp23839j
Adsorbate Carbon Dioxide: InChIKey CURLTUGMZLYLDI-UHFFFAOYSA-N
Temperature: 298 K
Tabular data in the source: 0
pressure (bar)	uptake (mmol/g)
0.04	0.320579
0.0977778	0.517858
0.2	0.887757
0.297778	1.20834
0.395556	1.50426
0.497778	1.75085
0.595556	1.94813
0.697778	2.09609
0.795556	2.29337
0.893333	2.41667
0.995556	2.56463
