Adsorption isotherm of Carbon monoxide on UiO-66-NO2
DOI: 10.1039/C2cp23839j
Adsorbate Carbon monoxide: InChIKey UGFAIRIUMAVXCW-UHFFFAOYSA-N
Temperature: 298 K
Tabular data in the source: 0
pressure (bar)	uptake (mmol/g)
0.143834	0.0562297
0.197758	0.074973
0.247179	0.0905923
0.301102	0.109336
0.346039	0.124955
0.39546	0.140574
0.449365	0.156194
0.50327	0.171813
0.552691	0.187432
0.60213	0.206176
0.651532	0.218671
0.700972	0.237414
0.745889	0.24991
0.804279	0.265529
0.849234	0.284272
0.898655	0.299892
0.952541	0.312387
1.00192	0.321759
