Adsorption isotherm of Methane on UiO-66-NO2
DOI: 10.1039/C2cp23839j
Adsorbate Methane: InChIKey VNWKTOKETHGBQD-UHFFFAOYSA-N
Temperature: 298 K
Tabular data in the source: 0
pressure (bar)	uptake (mmol/g)
0.0985529	0.132392
0.19703	0.235202
0.29547	0.323222
0.402837	0.411175
0.501201	0.469612
0.604067	0.542808
0.697967	0.601278
0.80524	0.652254
0.894675	0.710757
1.00195	0.761733
