Adsorption isotherm of Carbon Dioxide on UiO-66-Br
DOI: 10.1039/C2cp23839j
Adsorbate Carbon Dioxide: InChIKey CURLTUGMZLYLDI-UHFFFAOYSA-N
Temperature: 348 K
Tabular data in the source: 0
pressure (bar)	uptake (mmol/g)
0.0452489	0.0561046
0.104072	0.0935077
0.199095	0.187015
0.298643	0.261822
0.39819	0.355329
0.502262	0.411434
0.60181	0.48624
0.701357	0.542345
0.800905	0.617151
0.900452	0.654554
1	0.710658
