Adsorption isotherm of Methane on UiO-66-Br
DOI: 10.1039/C2cp23839j
Adsorbate Methane: InChIKey VNWKTOKETHGBQD-UHFFFAOYSA-N
Temperature: 323 K
Tabular data in the source: 0
pressure (bar)	uptake (mmol/g)
0.100305	0.0524592
0.200592	0.112307
0.300842	0.18693
0.401166	0.232001
0.501489	0.277072
0.597447	0.322111
0.69777	0.367182
0.802479	0.404897
0.894107	0.435128
0.998816	0.472843
