Adsorption isotherm of Methane on UiO-66
DOI: 10.1039/C2cp23839j
Adsorbate Methane: InChIKey VNWKTOKETHGBQD-UHFFFAOYSA-N
Temperature: 323 K
Tabular data in the source: 0
pressure (bar)	uptake (mmol/g)
0.0921053	0.0623344
0.192982	0.0986962
0.495614	0.21817
0.596491	0.264921
0.692982	0.301283
0.79386	0.337645
0.899123	0.363617
1	0.399979
