Adsorption isotherm of Carbon Dioxide on UiO-66-NO2
DOI: 10.1039/C2cp23839j
Adsorbate Carbon Dioxide: InChIKey CURLTUGMZLYLDI-UHFFFAOYSA-N
Temperature: 273 K
Tabular data in the source: 0
pressure (bar)	uptake (mmol/g)
0.0486084	0.609273
0.199533	1.66115
0.297419	2.06172
0.399839	2.37848
0.502309	2.63232
0.698408	3.03494
0.796501	3.18382
0.903522	3.33289
1.00167	3.41884
