Adsorption isotherm of Carbon Dioxide on UiO-66-NH2
DOI: 10.1039/C2cp23839j
Adsorbate Carbon Dioxide: InChIKey CURLTUGMZLYLDI-UHFFFAOYSA-N
Temperature: 298 K
Tabular data in the source: 0
pressure (bar)	uptake (mmol/g)
0.151111	0.641158
0.204444	0.764458
0.253333	0.937077
0.302222	1.06038
0.351111	1.20834
0.4	1.30698
0.444444	1.45494
0.497778	1.55358
0.546667	1.67687
0.6	1.80017
0.644444	1.89881
0.697778	1.97279
0.746667	2.04677
0.804444	2.14541
0.848889	2.24405
0.897778	2.29337
0.951111	2.39201
0.995556	2.44133
