Adsorption isotherm of Methane on UiO-66-NH2
DOI: 10.1039/C2cp23839j
Adsorbate Methane: InChIKey VNWKTOKETHGBQD-UHFFFAOYSA-N
Temperature: 348 K
Tabular data in the source: 0
pressure (bar)	uptake (mmol/g)
0.049604	0.0180971
0.0991899	0.0301619
0.198434	0.0784209
0.297624	0.108583
0.396832	0.144777
0.500527	0.174939
0.595212	0.205101
0.703411	0.235263
0.798078	0.259392
0.897286	0.295587
1.00096	0.319716
