Adsorption isotherm of Methane on UiO-66
DOI: 10.1039/C2cp23839j
Adsorbate Methane: InChIKey VNWKTOKETHGBQD-UHFFFAOYSA-N
Temperature: 348 K
Tabular data in the source: 0
pressure (bar)	uptake (mmol/g)
0.0482456	0.0155836
0.0964912	0.0311672
0.192982	0.0623344
0.29386	0.0935016
0.394737	0.119474
0.491228	0.150642
0.596491	0.176614
0.697368	0.202587
0.798246	0.223365
0.894737	0.249338
0.995614	0.270116
