Adsorption isotherm of Methane on UiO-66-NH2
DOI: 10.1039/C2cp23839j
Adsorbate Methane: InChIKey VNWKTOKETHGBQD-UHFFFAOYSA-N
Temperature: 298 K
Tabular data in the source: 0
pressure (bar)	uptake (mmol/g)
0.0452085	0.0542914
0.099426	0.108583
0.198834	0.211133
0.298205	0.301619
0.402009	0.367975
0.501308	0.434331
0.600588	0.494655
0.803636	0.60927
0.902917	0.669594
1.00216	0.717853
