Adsorption isotherm of Methane on UiO-66-NO2
DOI: 10.1039/C2cp23839j
Adsorbate Methane: InChIKey VNWKTOKETHGBQD-UHFFFAOYSA-N
Temperature: 348 K
Tabular data in the source: 0
pressure (bar)	uptake (mmol/g)
0.049144	0.0144278
0.147432	0.0432833
0.201003	0.0428871
0.250128	0.0499194
0.303736	0.0643142
0.348416	0.078775
0.402005	0.0857742
0.451149	0.100202
0.500293	0.11463
0.553864	0.114234
0.598543	0.128694
0.652133	0.135694
0.696794	0.142759
0.754847	0.149725
0.808437	0.156725
0.857562	0.163757
0.902223	0.170822
0.951348	0.177854
