Adsorption isotherm of Carbon Dioxide on UiO-66-Br
DOI: 10.1039/C2cp23839j
Adsorbate Carbon Dioxide: InChIKey CURLTUGMZLYLDI-UHFFFAOYSA-N
Temperature: 473 K
Tabular data in the source: 0
pressure (bar)	uptake (mmol/g)
0.986066	0.36141
9.8908	1.48184
20.1374	1.8005
30.0976	1.92543
