Adsorption isotherm of Carbon monoxide on UiO-66
DOI: 10.1039/C2cp23839j
Adsorbate Carbon monoxide: InChIKey UGFAIRIUMAVXCW-UHFFFAOYSA-N
Temperature: 323 K
Tabular data in the source: 0
pressure (bar)	uptake (mmol/g)
0.19472	0.0177032
0.244531	0.022129
0.298923	0.0331935
0.348734	0.0376192
0.398564	0.0442579
0.44385	0.0486837
0.498149	0.0486837
0.547997	0.0575353
0.602333	0.0619611
0.64762	0.0663869
0.692887	0.0685998
0.751767	0.0752385
0.801578	0.0796643
0.846864	0.0840901
0.892169	0.0907288
0.95103	0.0951546
0.996354	0.104006
