Adsorption isotherm of Nitrogen on UiO-66
DOI: 10.1039/C2cp23839j
Adsorbate Nitrogen: InChIKey IJGRMHOSHXDMSA-UHFFFAOYSA-N
Temperature: 298 K
Tabular data in the source: 0
pressure (bar)	uptake (mmol/g)
0.249631	0.0354161
0.307579	0.0438485
0.347705	0.048908
0.401241	0.0522809
0.454742	0.0590269
0.49485	0.0657728
0.548351	0.0725187
0.606299	0.0809511
0.655371	0.0843241
0.699944	0.09107
0.748981	0.097816
0.798053	0.101189
0.851519	0.111308
0.90502	0.118054
0.94961	0.123113
0.994218	0.126486
