Adsorption isotherm of Carbon Dioxide on UiO-66-NO2
DOI: 10.1039/C2cp23839j
Adsorbate Carbon Dioxide: InChIKey CURLTUGMZLYLDI-UHFFFAOYSA-N
Temperature: 348 K
Tabular data in the source: 0
pressure (bar)	uptake (mmol/g)
0.049072	0.0429778
0.0981267	0.106929
0.200718	0.213953
0.298862	0.299908
0.401435	0.427905
0.504044	0.513954
0.597723	0.599816
0.700331	0.685866
0.798475	0.771821
0.901118	0.815923
0.999262	0.901878
