Adsorption isotherm of Carbon monoxide on UiO-66-Br
DOI: 10.1039/C2cp23839j
Adsorbate Carbon monoxide: InChIKey UGFAIRIUMAVXCW-UHFFFAOYSA-N
Temperature: 298 K
Tabular data in the source: 0
pressure (bar)	uptake (mmol/g)
0.150644	0.0455193
0.246515	0.074973
0.346932	0.104427
0.401667	0.117815
0.451818	0.128525
0.506553	0.141913
0.547652	0.155301
0.602348	0.166012
0.657045	0.176722
0.698106	0.187432
0.748295	0.20082
0.80303	0.214208
0.848674	0.227596
0.903371	0.238307
0.949015	0.251695
0.999129	0.259728
