Adsorption isotherm of Carbon Dioxide on UiO-66-NH2
DOI: 10.1039/C2cp23839j
Adsorbate Carbon Dioxide: InChIKey CURLTUGMZLYLDI-UHFFFAOYSA-N
Temperature: 348 K
Tabular data in the source: 0
pressure (bar)	uptake (mmol/g)
0.102222	0.172619
0.2	0.246599
0.302222	0.394559
0.395556	0.468539
0.502222	0.542518
0.595556	0.665818
0.693333	0.715138
0.795556	0.813777
0.893333	0.863097
0.991111	0.912417
