Adsorption isotherm of Carbon monoxide on UiO-66-NH2
DOI: 10.1039/C2cp23839j
Adsorbate Carbon monoxide: InChIKey UGFAIRIUMAVXCW-UHFFFAOYSA-N
Temperature: 273 K
Tabular data in the source: 0
pressure (bar)	uptake (mmol/g)
0.0252976	0.013388
0.151821	0.0856834
0.303606	0.166012
0.354184	0.19011
0.404762	0.214208
0.501733	0.265083
0.552311	0.289181
0.598652	0.307925
0.69979	0.353444
0.80091	0.396286
0.902031	0.439127
0.952591	0.460548
0.998915	0.476614
