Adsorption isotherm of Methane on UiO-66-NO2
DOI: 10.1039/C2cp23839j
Adsorbate Methane: InChIKey VNWKTOKETHGBQD-UHFFFAOYSA-N
Temperature: 273 K
Tabular data in the source: 0
pressure (bar)	uptake (mmol/g)
0.0450582	0.16237
0.0989312	0.280302
0.197654	0.479253
0.300728	0.633798
0.403745	0.766157
0.497777	0.876396
0.605164	0.971745
0.703604	1.05976
0.802043	1.14778
0.904909	1.22098
1.00329	1.28681
