Adsorption isotherm of Carbon monoxide on UiO-66-NO2
DOI: 10.1039/C2cp23839j
Adsorbate Carbon monoxide: InChIKey UGFAIRIUMAVXCW-UHFFFAOYSA-N
Temperature: 323 K
Tabular data in the source: 0
pressure (bar)	uptake (mmol/g)
0.0943759	0.0343626
0.197664	0.0593536
0.296469	0.0843446
0.39531	0.115583
0.498617	0.143698
0.601906	0.168689
0.70071	0.19368
0.799514	0.218671
0.902821	0.246786
1.00161	0.268653
