Adsorption isotherm of Carbon monoxide on UiO-66-Br
DOI: 10.1039/C2cp23839j
Adsorbate Carbon monoxide: InChIKey UGFAIRIUMAVXCW-UHFFFAOYSA-N
Temperature: 348 K
Tabular data in the source: 0
pressure (bar)	uptake (mmol/g)
0.100114	0.00803282
0.154697	0.0107104
0.195682	0.0160656
0.29572	0.0187432
0.345758	0.0214208
0.400417	0.0294537
0.500455	0.0321313
0.55053	0.0374865
0.600568	0.0401641
0.696061	0.0428417
0.800682	0.0481969
0.900758	0.0535521
0.950795	0.0562297
1.0008	0.0562297
