Adsorption isotherm of Methane on UiO-66-Br
DOI: 10.1039/C2cp23839j
Adsorbate Methane: InChIKey VNWKTOKETHGBQD-UHFFFAOYSA-N
Temperature: 298 K
Tabular data in the source: 0
pressure (bar)	uptake (mmol/g)
0.104543	0.104209
0.200352	0.208353
0.300564	0.297753
0.396466	0.364956
0.501082	0.439612
0.601369	0.49946
0.701656	0.559307
0.797576	0.619122
0.897863	0.678969
0.99382	0.724008
