Adsorption isotherm of Nitrogen on UiO-66-NO2
DOI: 10.1039/C2cp23839j
Adsorbate Nitrogen: InChIKey IJGRMHOSHXDMSA-UHFFFAOYSA-N
Temperature: 298 K
Tabular data in the source: 0
pressure (bar)	uptake (mmol/g)
0.0992552	0.0148444
0.153443	0.0275681
0.1986	0.0381712
0.252765	0.0487743
0.302404	0.0572568
0.352065	0.06786
0.401704	0.0763425
0.451342	0.084825
0.496499	0.0954281
0.550642	0.103911
0.595799	0.114514
0.649942	0.122996
0.699581	0.131479
0.74922	0.139961
0.803363	0.148444
0.848497	0.156926
0.898136	0.165409
0.94327	0.173891
0.997413	0.182374
