Adsorption isotherm of Carbon monoxide on UiO-66-Br
DOI: 10.1039/C2cp23839j
Adsorbate Carbon monoxide: InChIKey UGFAIRIUMAVXCW-UHFFFAOYSA-N
Temperature: 298 K
Tabular data in the source: 0
pressure (bar)	uptake (mmol/g)
0.0959848	0.0374865
0.196439	0.0696177
0.296818	0.0963938
0.397311	0.131203
0.497727	0.160656
0.598068	0.184755
0.698485	0.214208
0.798864	0.240985
0.903788	0.267761
1.00413	0.291859
