Adsorption isotherm of Methane on UiO-66-Br
DOI: 10.1039/C2cp23839j
Adsorbate Methane: InChIKey VNWKTOKETHGBQD-UHFFFAOYSA-N
Temperature: 323 K
Tabular data in the source: 0
pressure (bar)	uptake (mmol/g)
0.143936	0.0675582
0.253011	0.105306
0.30099	0.127825
0.353354	0.142988
0.401332	0.165508
0.45364	0.202836
0.506023	0.210611
0.549635	0.233098
0.597632	0.24823
0.654362	0.263425
0.697974	0.285912
0.750319	0.308464
0.798335	0.316207
0.859432	0.331435
0.89431	0.353858
0.942326	0.361601
0.990341	0.369344
