Adsorption isotherm of Methane on UiO-66-NO2
DOI: 10.1039/C2cp23839j
Adsorbate Methane: InChIKey VNWKTOKETHGBQD-UHFFFAOYSA-N
Temperature: 273 K
Tabular data in the source: 0
pressure (bar)	uptake (mmol/g)
0.0942022	0.176798
0.143517	0.257785
0.197276	0.331343
0.304757	0.46367
0.349551	0.522503
0.403272	0.581271
0.50175	0.684081
0.550988	0.735486
0.604672	0.779463
0.703093	0.860087
0.797049	0.940743
0.904398	1.0213
0.953599	1.05792
0.993871	1.0946
