Adsorption isotherm of Carbon monoxide on UiO-66-NO2
DOI: 10.1039/C2cp23839j
Adsorbate Carbon monoxide: InChIKey UGFAIRIUMAVXCW-UHFFFAOYSA-N
Temperature: 348 K
Tabular data in the source: 0
pressure (bar)	uptake (mmol/g)
0.0493647	0.00624775
0.0987294	0.0124955
0.193031	0.0343626
0.296282	0.0531058
0.395049	0.0718491
0.502765	0.0874684
0.601532	0.106212
0.700299	0.124955
0.799066	0.143698
0.897795	0.156194
1.00103	0.171813
