Adsorption isotherm of Methane on UiO-66-NH2
DOI: 10.1039/C2cp23839j
Adsorbate Methane: InChIKey VNWKTOKETHGBQD-UHFFFAOYSA-N
Temperature: 323 K
Tabular data in the source: 0
pressure (bar)	uptake (mmol/g)
0.194021	0.108583
0.243607	0.120648
0.297715	0.138745
0.347319	0.156842
0.396941	0.180971
0.446582	0.211133
0.500654	0.217166
0.54579	0.247328
0.59988	0.259392
0.649466	0.271457
0.708079	0.289554
0.748674	0.307651
0.802783	0.325748
0.847882	0.343846
0.901954	0.349878
0.947054	0.367975
1.00116	0.386072
