Adsorption isotherm of Carbon Dioxide on UiO-66-NH2
DOI: 10.1039/C2cp23839j
Adsorbate Carbon Dioxide: InChIKey CURLTUGMZLYLDI-UHFFFAOYSA-N
Temperature: 273 K
Tabular data in the source: 0
pressure (bar)	uptake (mmol/g)
0.0266667	0.468539
0.0488889	0.764458
0.102222	1.18368
0.151111	1.55358
0.2	1.82483
0.302222	2.26871
0.351111	2.44133
0.395556	2.61395
0.502222	2.93453
0.546667	3.03317
0.595556	3.18113
0.697778	3.42773
0.795556	3.57569
0.897778	3.77297
0.946667	3.89627
0.995556	3.94559
