Adsorption isotherm of Nitrogen on UiO-66-NO2
DOI: 10.1039/C2cp23839j
Adsorbate Nitrogen: InChIKey IJGRMHOSHXDMSA-UHFFFAOYSA-N
Temperature: 273 K
Tabular data in the source: 0
pressure (bar)	uptake (mmol/g)
0.0542993	0.0233269
0.099612	0.0487743
0.19909	0.084825
0.303117	0.125117
0.39818	0.16965
0.502252	0.214183
0.60173	0.250234
0.701209	0.286284
0.800642	0.318094
0.895549	0.347782
1.00395	0.37535
