Adsorption isotherm of Carbon Dioxide on UiO-66-NH2
DOI: 10.1039/C2cp23839j
Adsorbate Carbon Dioxide: InChIKey CURLTUGMZLYLDI-UHFFFAOYSA-N
Temperature: 473 K
Tabular data in the source: 0
pressure (bar)	uptake (mmol/g)
0.804355	2.76393
9.87987	4.49644
19.6548	4.48305
29.8352	4.48978
