Adsorption isotherm of Carbon monoxide on UiO-66-Br
DOI: 10.1039/C2cp23839j
Adsorbate Carbon monoxide: InChIKey UGFAIRIUMAVXCW-UHFFFAOYSA-N
Temperature: 323 K
Tabular data in the source: 0
pressure (bar)	uptake (mmol/g)
0.0958333	0.0267761
0.200644	0.0455193
0.296326	0.0615849
0.401212	0.0856834
0.501477	0.104427
0.601667	0.117815
0.70197	0.139235
0.802235	0.157979
0.902424	0.171367
0.998182	0.192788
