Adsorption isotherm of Carbon Dioxide on UiO-66
DOI: 10.1039/C2cp23839j
Adsorbate Carbon Dioxide: InChIKey CURLTUGMZLYLDI-UHFFFAOYSA-N
Temperature: 473 K
Tabular data in the source: 0
pressure (bar)	uptake (mmol/g)
0.704333	0.25815
9.89146	1.49477
20.1498	2.04602
30.2562	2.32597
