Adsorption isotherm of Carbon Dioxide on UiO-66
DOI: 10.1039/C2cp23839j
Adsorbate Carbon Dioxide: InChIKey CURLTUGMZLYLDI-UHFFFAOYSA-N
Temperature: 273 K
Tabular data in the source: 0
pressure (bar)	uptake (mmol/g)
0.022278	0.145423
0.102691	0.454447
0.147336	0.654404
0.200951	0.854361
0.2993	1.16339
0.397632	1.49059
0.496	1.78143
0.59887	2.0541
0.697291	2.29041
0.898637	2.74486
0.943372	2.85393
0.99261	2.94482
