Adsorption isotherm of Methane on UiO-66-NH2
DOI: 10.1039/C2cp23839j
Adsorbate Methane: InChIKey VNWKTOKETHGBQD-UHFFFAOYSA-N
Temperature: 273 K
Tabular data in the source: 0
pressure (bar)	uptake (mmol/g)
0.0181815	0.0542914
0.0498402	0.0965181
0.0905442	0.150809
0.149393	0.247328
0.199179	0.325748
0.29866	0.452428
0.352895	0.512752
0.398122	0.573076
0.502052	0.681659
0.551765	0.73595
0.605947	0.778177
0.705318	0.868663
0.800185	0.959148
0.953702	1.0798
