Adsorption isotherm of Carbon monoxide on UiO-66-NO2
DOI: 10.1039/C2cp23839j
Adsorbate Carbon monoxide: InChIKey UGFAIRIUMAVXCW-UHFFFAOYSA-N
Temperature: 273 K
Tabular data in the source: 0
pressure (bar)	uptake (mmol/g)
0.0451233	0.0468581
0.0947123	0.0905923
0.198356	0.174937
0.301981	0.256158
0.396581	0.328007
0.500093	0.390484
0.59901	0.434218
0.702522	0.496696
0.80142	0.537306
0.904914	0.59666
1.00379	0.634146
