Adsorption isotherm of Nitrogen on UiO-66-NH2
DOI: 10.1039/C2cp23839j
Adsorbate Nitrogen: InChIKey IJGRMHOSHXDMSA-UHFFFAOYSA-N
Temperature: 298 K
Tabular data in the source: 0
pressure (bar)	uptake (mmol/g)
0.152116	0.0334801
0.250578	0.0518439
0.353525	0.0701924
0.451988	0.0885562
0.550432	0.10862
0.653397	0.125269
0.75186	0.143632
0.854824	0.160281
0.899562	0.170328
0.953287	0.178645
