Adsorption isotherm of Nitrogen on UiO-66-NO2
DOI: 10.1039/C2cp23839j
Adsorbate Nitrogen: InChIKey IJGRMHOSHXDMSA-UHFFFAOYSA-N
Temperature: 323 K
Tabular data in the source: 0
pressure (bar)	uptake (mmol/g)
0.103715	0.0106031
0.198377	0.016965
0.302092	0.0275681
0.40128	0.0360506
0.496008	0.0487743
0.599701	0.0572568
0.698889	0.0657393
0.793596	0.0763425
0.897288	0.084825
1.00098	0.0933074
