Adsorption isotherm of Carbon monoxide on UiO-66-NH2
DOI: 10.1039/C2cp23839j
Adsorbate Carbon monoxide: InChIKey UGFAIRIUMAVXCW-UHFFFAOYSA-N
Temperature: 323 K
Tabular data in the source: 0
pressure (bar)	uptake (mmol/g)
0.100998	0.0240985
0.201961	0.0428417
0.298722	0.0615849
0.399685	0.0803282
0.500648	0.0990714
0.597409	0.117815
0.698354	0.13388
0.803501	0.149946
0.900263	0.168689
1.00121	0.184755
