Adsorption isotherm of Methane on UiO-66-NO2
DOI: 10.1039/C2cp23839j
Adsorbate Methane: InChIKey VNWKTOKETHGBQD-UHFFFAOYSA-N
Temperature: 348 K
Tabular data in the source: 0
pressure (bar)	uptake (mmol/g)
0.147489	0.0654697
0.245834	0.116512
0.299423	0.123511
0.35305	0.145301
0.397768	0.174553
0.451395	0.196343
0.50052	0.203375
0.549683	0.225199
0.598827	0.239626
0.652435	0.254021
0.697115	0.268482
0.755207	0.290239
0.804332	0.297271
0.849031	0.319128
0.902639	0.333522
0.956228	0.340522
1.00091	0.354983
