Adsorption isotherm of Nitrogen on UiO-66
DOI: 10.1039/C2cp23839j
Adsorbate Nitrogen: InChIKey IJGRMHOSHXDMSA-UHFFFAOYSA-N
Temperature: 348 K
Tabular data in the source: 0
pressure (bar)	uptake (mmol/g)
0.0490544	0.00505945
0.0936445	0.0101189
0.298826	0.0269837
0.504042	0.0404756
0.691367	0.0573404
0.905512	0.0708322
1.00362	0.0809511
