Adsorption isotherm of Nitrogen on UiO-66-Br
DOI: 10.1039/C2cp23839j
Adsorbate Nitrogen: InChIKey IJGRMHOSHXDMSA-UHFFFAOYSA-N
Temperature: 348 K
Tabular data in the source: 0
pressure (bar)	uptake (mmol/g)
0.0397028	0.00537327
0.0970265	0.0107145
0.198421	0.0177909
0.295447	0.0285055
0.392455	0.037405
0.498273	0.0462884
0.595263	0.0533728
0.701081	0.0622563
0.798051	0.0675256
0.895078	0.0782402
1.0009	0.0871237
