Adsorption isotherm of Methane on UiO-66-NO2
DOI: 10.1039/C2cp23839j
Adsorbate Methane: InChIKey VNWKTOKETHGBQD-UHFFFAOYSA-N
Temperature: 323 K
Tabular data in the source: 0
pressure (bar)	uptake (mmol/g)
0.0984205	0.0806238
0.196784	0.139061
0.299612	0.197466
0.40244	0.25587
0.500766	0.299517
0.603575	0.350525
0.701882	0.386776
0.800227	0.437818
0.898496	0.459278
1.00573	0.495463
