Adsorption isotherm of Carbon Dioxide on UiO-66
DOI: 10.1039/C2cp23839j
Adsorbate Carbon Dioxide: InChIKey CURLTUGMZLYLDI-UHFFFAOYSA-N
Temperature: 273 K
Tabular data in the source: 0
pressure (bar)	uptake (mmol/g)
0.0535067	0.309024
0.200789	1.01796
0.299067	1.3997
0.397435	1.69054
0.500305	1.96321
0.598726	2.19953
0.697202	2.3813
0.800126	2.59944
0.898619	2.76304
0.99713	2.90846
