Adsorption isotherm of Methane on UiO-66-Br
DOI: 10.1039/C2cp23839j
Adsorbate Methane: InChIKey VNWKTOKETHGBQD-UHFFFAOYSA-N
Temperature: 273 K
Tabular data in the source: 0
pressure (bar)	uptake (mmol/g)
0.05649	0.111242
0.104302	0.200255
0.199944	0.370893
0.300028	0.51201
0.400185	0.623574
0.500379	0.720363
0.596207	0.817119
0.700805	0.899163
0.796688	0.973754
0.896975	1.0336
0.997243	1.10084
