Adsorption isotherm of Nitrogen on UiO-66
DOI: 10.1039/C2cp23839j
Adsorbate Nitrogen: InChIKey IJGRMHOSHXDMSA-UHFFFAOYSA-N
Temperature: 323 K
Tabular data in the source: 0
pressure (bar)	uptake (mmol/g)
0.0981243	0.00863188
0.196178	0.0240362
0.298731	0.0360619
0.401302	0.0463945
0.499409	0.0567195
0.597498	0.0687376
0.704551	0.0773846
0.802657	0.0877096
0.900746	0.0997277
0.998871	0.10836
