Adsorption isotherm of Carbon Dioxide on UiO-66
DOI: 10.1039/C2cp23839j
Adsorbate Carbon Dioxide: InChIKey CURLTUGMZLYLDI-UHFFFAOYSA-N
Temperature: 348 K
Tabular data in the source: 0
pressure (bar)	uptake (mmol/g)
0.0986188	0.0363558
0.147892	0.0908895
0.201704	0.0908895
0.250996	0.127245
0.300305	0.145423
0.354099	0.163601
0.398924	0.181779
0.448197	0.236313
0.501991	0.254491
0.551318	0.254491
0.600592	0.309024
0.654404	0.309024
0.703695	0.34538
0.753004	0.363558
0.802314	0.381736
0.856108	0.399914
0.905417	0.418092
0.950242	0.436269
0.999534	0.472625
