Adsorption isotherm of Methane on UiO-66
DOI: 10.1039/C2cp23839j
Adsorbate Methane: InChIKey VNWKTOKETHGBQD-UHFFFAOYSA-N
Temperature: 323 K
Tabular data in the source: 0
pressure (bar)	uptake (mmol/g)
0.25	0.0883071
0.320175	0.109085
0.355263	0.119474
0.403509	0.140252
0.442982	0.155836
0.5	0.17142
0.54386	0.181809
0.592105	0.197392
0.649123	0.202587
0.692982	0.223365
0.745614	0.238949
0.79386	0.259727
0.850877	0.27531
0.894737	0.285699
0.951754	0.301283
0.995614	0.316867
