Adsorption isotherm of Methane on UiO-66-Br
DOI: 10.1039/C2cp23839j
Adsorbate Methane: InChIKey VNWKTOKETHGBQD-UHFFFAOYSA-N
Temperature: 348 K
Tabular data in the source: 0
pressure (bar)	uptake (mmol/g)
0.148395	0.0306496
0.205107	0.0532335
0.253141	0.0535884
0.301156	0.0613315
0.349172	0.0690745
0.405902	0.0842703
0.4539	0.0994015
0.501915	0.107145
0.549894	0.129664
0.602294	0.130051
0.659043	0.137859
0.698307	0.152925
0.750689	0.160701
0.798686	0.175832
0.846702	0.183575
0.903451	0.191383
0.955815	0.206546
0.999463	0.214257
