Adsorption isotherm of Nitrogen on UiO-66-NH2
DOI: 10.1039/C2cp23839j
Adsorbate Nitrogen: InChIKey IJGRMHOSHXDMSA-UHFFFAOYSA-N
Temperature: 323 K
Tabular data in the source: 0
pressure (bar)	uptake (mmol/g)
0.102965	0.0166486
0.197014	0.0282279
0.304499	0.0414614
0.398583	0.0496409
0.506068	0.0628744
0.6001	0.0761536
0.698616	0.0894176
0.801687	0.0958667
0.900203	0.109131
1.00322	0.120679
