Adsorption isotherm of Methane on UiO-66-Br
DOI: 10.1039/C2cp23839j
Adsorbate Methane: InChIKey VNWKTOKETHGBQD-UHFFFAOYSA-N
Temperature: 348 K
Tabular data in the source: 0
pressure (bar)	uptake (mmol/g)
0.0523823	0.00777532
0.100342	0.0376829
0.20507	0.0680099
0.296679	0.105628
0.405773	0.135987
0.4974	0.166218
0.597761	0.196512
0.702452	0.241616
0.798464	0.26449
0.898825	0.294785
0.999223	0.310303
