Adsorption isotherm of Hydrogen on Mg(acac)2@UiO-66-NH2
DOI: 10.1016/j.jssc.2014.12.033
Article source: Figure  4
Adsorbate Hydrogen: InChIKey UFHFLCQGNIYNRP-UHFFFAOYSA-N
Kind: experiment
Temperature: 77 K
Tabular data in the source: 0
pressure (bar)	uptake (wt%)
0.239	0.11504
0.2517	0.01501
0.265	0.25315
0.3013	0.45406
0.4093	0.68081
0.5257	0.83753
0.6317	0.94063
0.7111	1.16405
0.7288	1.08485
0.7341	1.07085
0.742	1.01455
0.8104	1.14265
0.9346	1.19489
1.0299	1.22129
1.2301	1.27992
2.1006	1.42387
3.0558	1.51891
4.0818	1.59005
5.1263	1.63535
5.9905	1.67815
7.1295	1.69927
8.1977	1.73818
8.6344	1.75541
10.5657	1.77182
12.896	1.81657
13.8305	1.8024
17.8114	1.81575
18.7418	1.84299
22.1005	1.813
26.3757	1.83413
26.5412	1.7994
31.1906	1.78275
35.3564	1.7861
35.8825	1.75304
40.8212	1.72611
43.5256	1.72334
45.793	1.69112
50.5749	1.6539
50.9926	1.6603
55.6177	1.60863
56.7469	1.60919
60.4662	1.57531
60.8267	1.57159
