Adsorption isotherm of Hydrogen on Ni(acac)2@UiO-66-NH2
DOI: 10.1016/j.jssc.2014.12.033
Article source: Figure  4
Adsorbate Hydrogen: InChIKey UFHFLCQGNIYNRP-UHFFFAOYSA-N
Kind: experiment
Temperature: 77 K
Tabular data in the source: 0
pressure (bar)	uptake (wt%)
0.2863	0.1031
0.2932	0.2387
0.3245	0.41654
0.4129	0.60828
0.4861	0.73583
0.6203	0.81864
0.6735	0.88311
0.755	0.94035
0.9026	0.97314
0.998	1.00149
1.0888	1.04317
1.2031	1.06957
1.2273	1.10208
1.4981	1.1232
2.2924	1.24881
3.1288	1.33356
4.1167	1.39581
5.1849	1.44334
6.1012	1.6016
6.1031	1.60173
7.0981	1.51559
8.1613	1.53977
8.8182	1.67705
10.558	1.58314
13.0372	1.74126
13.7564	1.61538
17.6947	1.63513
18.9828	1.77964
21.9555	1.64571
26.4486	1.64545
26.593	1.77717
31.0649	1.63519
35.3368	1.74442
35.8474	1.62938
40.6676	1.6094
43.6486	1.70083
45.5684	1.58719
50.4833	1.5597
51.0445	1.64501
55.4648	1.53888
60.3329	1.55002
