Adsorption isotherm of Carbon Dioxide on UiO-66
DOI: 10.1016/j.jcis.2011.09.060
Adsorbate Carbon Dioxide: InChIKey CURLTUGMZLYLDI-UHFFFAOYSA-N
Temperature: 273 K
Tabular data in the source: 0
pressure (bar)	uptake (mmol/g)
0.283224	1.44218
0.893246	2.66667
1.76471	3.7551
2.91939	4.78912
4.07407	5.55102
5.22876	6.20408
6.38344	6.77551
7.53813	7.26531
8.7146	7.72789
9.91285	8.16327
