Adsorption isotherm of Methane on UiO-66-NH4
DOI: 10.1016/j.jcis.2011.09.060
Adsorbate Methane: InChIKey VNWKTOKETHGBQD-UHFFFAOYSA-N
Temperature: 273 K
Tabular data in the source: 0
pressure (bar)	uptake (mmol/g)
0.0217865	0.0272109
1.17647	0.707483
2.30937	1.19728
3.52941	1.55102
4.6841	1.87755
5.81699	2.14966
6.71024	2.34014
7.5817	2.53061
8.47495	2.72109
9.06318	2.82993
