Adsorption isotherm of Nitrogen on UiO-66
DOI: 10.1016/j.jcis.2011.09.060
Adsorbate Nitrogen: InChIKey IJGRMHOSHXDMSA-UHFFFAOYSA-N
Temperature: 273 K
Tabular data in the source: 0
pressure (bar)	uptake (cm3(STP)/g)
2.78e-17	258.602
0.00627943	284.762
0.021978	311.184
0.0408163	326.761
0.0659341	329.788
0.163265	323.173
0.293564	306.183
0.478807	281.401
0.740973	241.73
0.77865	235.787
0.811617	235.627
0.88383	224.372
0.929356	218.468
0.989011	225.86
