Adsorption isotherm of Nitrogen on UiO-66-NH4
DOI: 10.1016/j.jcis.2011.09.060
Adsorbate Nitrogen: InChIKey IJGRMHOSHXDMSA-UHFFFAOYSA-N
Temperature: 273 K
Tabular data in the source: 0
pressure (bar)	uptake (cm3(STP)/g)
2.78e-17	216.129
0.00627943	250.354
0.0235479	285.6
0.043956	304.088
0.0706436	304.65
0.163265	298.98
0.293564	284.14
0.44113	265.3
0.55416	249.623
0.66405	234.037
0.77551	221.9
0.850863	211.09
0.965463	199.937
0.987441	215.959
