Adsorption isotherm of Carbon Dioxide on UiO-66-NH4
DOI: 10.1016/j.jcis.2011.09.060
Adsorbate Carbon Dioxide: InChIKey CURLTUGMZLYLDI-UHFFFAOYSA-N
Temperature: 273 K
Tabular data in the source: 0
pressure (bar)	uptake (mmol/g)
0.283224	0.380952
1.15468	1.06122
2.33115	1.63265
3.20261	1.95918
4.37908	2.36735
5.55556	2.66667
6.71024	3.02041
7.60349	3.21088
8.73638	3.48299
9.69499	3.67347
