Adsorption isotherm of Methane on UiO-66
DOI: 10.1016/j.jcis.2011.09.060
Adsorbate Methane: InChIKey VNWKTOKETHGBQD-UHFFFAOYSA-N
Temperature: 273 K
Tabular data in the source: 0
pressure (bar)	uptake (mmol/g)
0.283224	1.03401
1.19826	2.44898
2.33115	3.61905
3.48584	4.54422
4.64052	5.41497
5.83878	6.12245
6.94989	6.72109
8.08279	7.21088
8.97603	7.53741
9.86928	7.83673
