Adsorption isotherm of Toluene on Activated Carbon
DOI: 10.1021/la010232r
Adsorbate Toluene: InChIKey YXFVVABEGXRONW-UHFFFAOYSA-N
Temperature: 333 K
Tabular data in the source: 0
pressure (bar)	uptake (mmol/g)
1.02e-05	0.239659
1.55e-05	0.35077
2.34e-05	0.482714
4.22e-05	0.642436
6.19e-05	0.795214
8.52e-05	1.04521
0.000111	1.26744
0.000159	1.51049
0.00025	1.75355
0.000401	1.9966
0.000603	2.21883
0.000769	2.42716
0.00105911	2.63549
0.00151529	2.8091
0.00185945	2.90633
0.00269461	2.9966
0.00385524	3.21188
0.00565871	3.36466
0.0086308	3.52438
0.0133334	3.64244
0.0172207	3.69799
