Adsorption isotherm of Ethanol on Activated Carbon
DOI: 10.1021/la010232r
Adsorbate Ethanol: InChIKey LFQSCWFLJHTTHZ-UHFFFAOYSA-N
Temperature: 303 K
Tabular data in the source: 0
pressure (bar)	uptake (mmol/g)
4.87e-05	0.0442218
0.000144	0.35472
0.000266	0.784642
0.000527	1.50118
0.000824	2.12217
0.00138429	2.81483
0.0020184	3.43582
0.00331107	4.29567
0.00494292	5.13162
0.00671513	5.70485
0.0110158	6.32585
0.0164449	6.89908
0.0269769	7.329
0.0509764	7.73504
0.0836238	8.02165
0.0876602	8.18884
