Adsorption isotherm of N-Pentane on Activated Carbon
DOI: 10.1021/la010232r
Adsorbate N-Pentane: InChIKey OFBQJSOFQDEBGM-UHFFFAOYSA-N
Temperature: 423 K
Tabular data in the source: 0
pressure (bar)	uptake (mmol/g)
0.0048263	0.575295
0.00845143	0.757781
0.0118282	0.905509
0.0185171	1.088
0.028075	1.26179
0.0461135	1.46166
0.0769641	1.69628
0.109453	1.80925
0.174114	2.00043
0.268247	2.12209
0.40025	2.25243
