Adsorption isotherm of N-Hexane on Activated Carbon
DOI: 10.1021/la010232r
Adsorbate N-Hexane: InChIKey VLKZOEOYAKHREP-UHFFFAOYSA-N
Temperature: 288 K
Tabular data in the source: 0
pressure (bar)	uptake (mmol/g)
4.58e-06	0.177376
1.12e-05	0.296798
1.97e-05	0.386365
3.02e-05	0.454607
4.2e-05	0.582559
6.27e-05	0.710512
0.000103	0.855525
0.000173	0.992008
0.000277	1.10717
0.000487	1.26924
0.000878	1.39293
0.00173956	1.50808
0.00369828	1.63604
0.00715506	1.75972
0.0155743	1.87915
0.0381404	1.98151
0.0703926	2.07961
0.105085	2.1777
0.123936	2.23315
