Adsorption isotherm of Toluene on Activated Carbon
DOI: 10.1021/la010232r
Adsorbate Toluene: InChIKey YXFVVABEGXRONW-UHFFFAOYSA-N
Temperature: 303 K
Tabular data in the source: 0
pressure (bar)	uptake (mmol/g)
1.05e-05	1.01744
1.42e-05	1.20494
1.91e-05	1.35771
2.46e-05	1.55216
3.39e-05	1.70494
4.44e-05	1.82299
5.88e-05	2.02438
8.41e-05	2.28133
0.000116	2.48271
0.000174	2.69105
0.00031	2.94105
0.000492	3.16327
0.00074	3.34383
0.00101923	3.50355
0.00157457	3.60077
0.0025602	3.76049
0.00343598	3.8716
0.00544567	3.95494
0.00896845	4.03827
0.0136789	4.12855
0.0208634	4.21883
0.032231	4.32299
