Adsorption isotherm of Toluene on Activated Carbon
DOI: 10.1021/la010232r
Adsorbate Toluene: InChIKey YXFVVABEGXRONW-UHFFFAOYSA-N
Temperature: 363 K
Tabular data in the source: 0
pressure (bar)	uptake (mmol/g)
0.000109	0.489659
0.00014	0.572992
0.000217	0.753547
0.000314	0.947992
0.000401	1.10077
0.000552	1.26049
0.000722	1.39244
0.000897	1.59383
0.00120364	1.8091
0.00163617	1.98966
0.00198227	2.13549
0.00280003	2.26744
0.00375785	2.39938
0.00497923	2.53827
0.00721561	2.71883
0.0105911	2.91327
0.0155456	3.08688
0.0222414	3.23271
0.0287259	3.35771
0.0371009	3.39938
