Adsorption isotherm of Ethanol on Activated Carbon
DOI: 10.1021/la010232r
Adsorbate Ethanol: InChIKey LFQSCWFLJHTTHZ-UHFFFAOYSA-N
Temperature: 273 K
Tabular data in the source: 0
pressure (bar)	uptake (mmol/g)
2.07e-06	0.0681063
4.61e-06	0.0919908
7.57e-06	0.13976
1.4e-05	0.40249
2.7e-05	0.999602
4.65e-05	1.42952
6.78e-05	1.95498
0.000104	2.52821
0.000174	3.38805
0.000266	4.2479
0.000426	5.15551
0.000667	5.89593
0.00104326	6.42139
0.00155743	6.87519
0.00274207	7.35288
0.00530508	7.7828
0.0100247	8.11719
0.0164449	8.42769
