Adsorption isotherm of Benzene on Activated Carbon
DOI: 10.1021/la010232r
Adsorbate Benzene: InChIKey UHOVQNZJYSORNB-UHFFFAOYSA-N
Temperature: 303 K
Tabular data in the source: 0
pressure (bar)	uptake (mmol/g)
1.8e-06	0.119506
4.46e-06	0.237944
7.19e-06	0.331003
1.36e-05	0.550959
2.45e-05	0.694777
3.53e-05	1.02471
4.43e-05	1.26159
6.09e-05	1.43079
8.18e-05	1.7015
0.000123	1.8284
0.000173	2.09912
0.000222	2.28523
0.000342	2.61517
0.000552	2.91126
0.00093	3.23274
0.00143297	3.54575
0.00206137	3.76571
0.00324753	4.03643
0.00500126	4.231
0.0078791	4.50172
0.0159383	4.71322
0.0294393	4.89087
0.0453372	5.01777
0.0938189	5.23773
