Adsorption isotherm of N-Pentane on Activated Carbon
DOI: 10.1021/la010232r
Adsorbate N-Pentane: InChIKey OFBQJSOFQDEBGM-UHFFFAOYSA-N
Temperature: 333 K
Tabular data in the source: 0
pressure (bar)	uptake (mmol/g)
0.000928	1.47904
0.00154893	1.73104
0.00275613	2.00912
0.00431471	2.24374
0.00686366	2.46099
0.0112736	2.66086
0.0176488	2.86072
0.0255041	2.99107
0.0439514	3.18225
0.0833773	3.33866
0.153186	3.48639
0.285984	3.60805
