Adsorption isotherm of Benzene on Activated Carbon
DOI: 10.1021/la010232r
Adsorbate Benzene: InChIKey UHOVQNZJYSORNB-UHFFFAOYSA-N
Temperature: 333 K
Tabular data in the source: 0
pressure (bar)	uptake (mmol/g)
3.55e-06	0.0179874
8.43e-06	0.0687467
2.34e-05	0.153345
4.85e-05	0.347922
8.56e-05	0.466361
0.000169	0.703237
0.000261	1.07547
0.000375	1.33773
0.000552	1.6169
0.000952	1.94684
0.00175819	2.35291
0.00258734	2.69131
0.00372196	2.96202
0.00488889	3.1989
0.007529	3.47807
0.0113343	3.72341
0.0159383	3.95183
0.0251095	4.16332
0.0443185	4.41712
0.0837415	4.62862
0.115112	4.76397
0.203173	4.89933
