Adsorption isotherm of N-Pentane on Activated Carbon
DOI: 10.1021/la010232r
Adsorbate N-Pentane: InChIKey OFBQJSOFQDEBGM-UHFFFAOYSA-N
Temperature: 303 K
Tabular data in the source: 0
pressure (bar)	uptake (mmol/g)
0.000339	1.27048
0.000513	1.48773
0.000754	1.73104
0.00125793	1.95698
0.00200107	2.15685
0.00298578	2.35671
0.00438433	2.5392
0.00623512	2.68693
0.0100786	2.8781
0.0155275	3.08666
0.0250991	3.24308
0.0392925	3.42556
0.0666379	3.59936
0.116691	3.71233
0.188622	3.80791
0.276973	3.9035
