Adsorption isotherm of Benzene on Activated Carbon
DOI: 10.1021/la010232r
Adsorbate Benzene: InChIKey UHOVQNZJYSORNB-UHFFFAOYSA-N
Temperature: 303 K
Tabular data in the source: 0
pressure (bar)	uptake (mmol/g)
4.21e-07	0.0112343
9.81e-07	0.0243436
1.72e-06	0.0505621
5.91e-06	0.155436
1e-05	0.404512
1.76e-05	0.692915
2.59e-05	0.968209
4.72e-05	1.40081
0.00011	1.88586
0.000275	2.33157
0.000536	2.73796
0.00104673	3.19678
0.00190473	3.60317
0.00371897	4.03577
0.00676741	4.42905
0.0136869	4.74367
0.0307659	4.96653
0.0559848	5.08451
0.0768629	5.20249
0.105527	5.29426
0.130355	5.35981
0.144881	5.50401
