Adsorption isotherm of Benzene on Activated Carbon
DOI: 10.1021/la010232r
Adsorbate Benzene: InChIKey UHOVQNZJYSORNB-UHFFFAOYSA-N
Temperature: 293 K
Tabular data in the source: 0
pressure (bar)	uptake (mmol/g)
1.04e-06	0.136426
2.36e-06	0.246404
3.4e-06	0.373302
6.87e-06	0.51712
9.23e-06	0.627098
1.11e-05	0.847055
1.39e-05	1.06701
1.95e-05	1.16007
2.94e-05	1.49
3.86e-05	1.68458
6.23e-05	1.9976
0.0001	2.26831
0.000141	2.53903
0.00019	2.73361
0.000327	3.08046
0.000492	3.35964
0.000794	3.64727
0.00119476	3.89261
0.00168007	4.15486
0.00283357	4.33252
0.00511622	4.5694
0.00824549	4.78089
0.0142263	4.88241
0.0274991	5.08545
0.0556267	5.18697
0.0747466	5.36462
0.105109	5.61842
