Adsorption isotherm of Benzene on Activated Carbon
DOI: 10.1021/la010232r
Adsorbate Benzene: InChIKey UHOVQNZJYSORNB-UHFFFAOYSA-N
Temperature: 313 K
Tabular data in the source: 0
pressure (bar)	uptake (mmol/g)
2.06e-06	0.0687467
3.98e-06	0.136426
7.19e-06	0.212564
1.45e-05	0.339462
2.51e-05	0.47482
4.14e-05	0.669397
6.52e-05	0.872434
9.59e-05	1.16853
0.000135	1.47309
0.000194	1.81148
0.000273	2.04836
0.000375	2.27677
0.000591	2.43751
0.00091	2.73361
0.00143297	3.072
0.00215722	3.3258
0.0028987	3.56267
0.00446407	3.83339
0.00687476	4.1464
0.0110796	4.33252
0.0126982	4.45096
0.0195556	4.60324
0.030116	4.73013
0.053155	4.89087
0.109997	5.05161
0.185518	5.22081
0.238207	5.33079
