Adsorption isotherm of N-Pentane on Activated Carbon
DOI: 10.1021/la010232r
Adsorbate N-Pentane: InChIKey OFBQJSOFQDEBGM-UHFFFAOYSA-N
Temperature: 353 K
Tabular data in the source: 0
pressure (bar)	uptake (mmol/g)
0.00220279	1.40952
0.00328677	1.61808
0.00539856	1.87008
0.00886718	2.08733
0.0145644	2.32195
0.0259156	2.57396
0.0405708	2.77382
0.0666379	2.92155
0.101035	3.0519
0.171349	3.20832
0.247614	3.27783
0.40025	3.3908
