Adsorption isotherm of Carbon Dioxide on Faujasite-Metglas Strip
DOI: 10.1021/Cm7026509
Adsorbate Carbon Dioxide: InChIKey CURLTUGMZLYLDI-UHFFFAOYSA-N
Temperature: 315 K
Tabular data in the source: 0
pressure (bar)	uptake (mmol/g)
0.0695562	2.56566
0.128548	3.07911
0.388548	4.0623
0.657287	4.4665
1.04838	4.84886
