Adsorption isotherm of Nitrogen on Faujasite-Metglas Strip
DOI: 10.1021/Cm7026509
Adsorbate Nitrogen: InChIKey IJGRMHOSHXDMSA-UHFFFAOYSA-N
Temperature: 303 K
Tabular data in the source: 0
pressure (bar)	uptake (mmol/g)
0.00481196	0.0025281
0.261753	0.0602088
0.523938	0.136898
1.05355	0.298142
