Adsorption isotherm of Carbon Dioxide on Faujasite-Metglas Strip
DOI: 10.1021/Cm7026509
Adsorbate Carbon Dioxide: InChIKey CURLTUGMZLYLDI-UHFFFAOYSA-N
Temperature: 303 K
Tabular data in the source: 0
pressure (bar)	uptake (mmol/g)
0.0673713	2.94802
0.128548	3.52701
0.399472	4.42281
0.652918	4.72869
1.04838	5.01272
