Adsorption isotherm of Nitrogen on Faujasite-Metglas Strip
DOI: 10.1021/Cm7026509
Adsorbate Nitrogen: InChIKey IJGRMHOSHXDMSA-UHFFFAOYSA-N
Temperature: 326 K
Tabular data in the source: 0
pressure (bar)	uptake (mmol/g)
0.264375	0.0457886
0.529182	0.091671
1.05355	0.178192
