Adsorption isotherm of Carbon Dioxide on Faujasite-Metglas Strip
DOI: 10.1021/Cm7026509
Adsorbate Carbon Dioxide: InChIKey CURLTUGMZLYLDI-UHFFFAOYSA-N
Temperature: 327 K
Tabular data in the source: 0
pressure (bar)	uptake (mmol/g)
0.0695562	1.76819
0.130733	2.17239
0.397287	3.26482
0.657287	3.78919
1.04838	4.36819
