Adsorption isotherm of Nitrogen on Faujasite-Metglas Strip
DOI: 10.1021/Cm7026509
Adsorbate Nitrogen: InChIKey IJGRMHOSHXDMSA-UHFFFAOYSA-N
Temperature: 316 K
Tabular data in the source: 0
pressure (bar)	uptake (mmol/g)
-0.00305359	-0.000749
0.259131	0.0543096
0.52656	0.112646
1.05355	0.241116
