Adsorption isotherm of Carbon Dioxide on nanosized ZIF-11
DOI: 10.1039/c4ta06820c
Article source: Figure 6b
Adsorbate Carbon Dioxide: InChIKey CURLTUGMZLYLDI-UHFFFAOYSA-N
Kind: experiment
Isotherm type: absolute
Temperature: 273 K
Tabular data in the source: 0
pressure (bar)	uptake (mmol/g)
0	0
0.267176	0.571429
0.356234	0.371429
0.712468	0.828571
1.60305	1.34286
2.76081	1.82857
4.36387	2.34286
6.41221	2.8
8.46056	3.2
11.1323	3.51429
14.0712	3.82857
17.4555	4.14286
20.7506	4.42857
24.6692	4.77143
25.0254	4.8
29.3003	5.25714
33.3969	5.42857
34.0204	5.54286
34.2875	5.71429
