Adsorption isotherm of Hydrogen on nanosized ZIF-11
DOI: 10.1039/c4ta06820c
Article source: Figure 6a
Adsorbate Hydrogen: InChIKey UFHFLCQGNIYNRP-UHFFFAOYSA-N
Kind: experiment
Isotherm type: excess
Temperature: 77 K
Tabular data in the source: 0
pressure (bar)	uptake (mmol/g)
0.101523	0.945946
0.406091	1.60811
0.507614	1.75
0.71066	2.03378
0.812183	2.22297
0.913706	2.31757
1.92893	2.88514
3.95939	3.64189
8.0203	4.30405
9.74619	4.63514
14.7208	5.15541
19.5939	5.53378
24.5685	5.81757
29.5431	6.10135
34.7208	6.14865
39.6954	6.29054
