Adsorption isotherm of Hydrogen on ZIF-11
DOI: 10.1039/c4ta06820c
Article source: Figure 6a
Adsorbate Hydrogen: InChIKey UFHFLCQGNIYNRP-UHFFFAOYSA-N
Kind: experiment
Isotherm type: excess
Temperature: 77 K
Tabular data in the source: 0
pressure (bar)	uptake (mmol/g)
0.203046	3.97297
0.507614	5.01351
0.71066	5.48649
0.812183	5.81757
0.913706	6.10135
1.01523	6.24324
1.92893	7.28378
4.06091	8.75
8.12183	10.0743
10.0508	10.5
14.9239	11.2095
19.797	11.6351
29.5431	12.1081
34.6193	12.3446
39.797	12.6284
