Adsorption isotherm of Carbon Dioxide on ZIF-11
DOI: 10.1039/c4ta06820c
Article source: Figure 6b
Adsorbate Carbon Dioxide: InChIKey CURLTUGMZLYLDI-UHFFFAOYSA-N
Kind: experiment
Isotherm type: absolute
Temperature: 273 K
Tabular data in the source: 0
pressure (bar)	uptake (mmol/g)
0	0
0.267176	0.571429
0.62341	1.2
0.801527	1.34286
1.51399	2.14286
2.76081	3.14286
4.36387	4.25714
6.32316	5.37143
8.63868	6.17143
11.1323	6.65714
14.2494	6.97143
17.3664	7.14286
20.9288	7.14286
24.7583	7.62857
29.0331	7.68571
29.4784	7.68571
33.9313	7.62857
