Adsorption isotherm of Nitrogen on IRMOF-1
DOI: 10.1016/j.matlet.2011.04.099
Adsorbate Nitrogen: InChIKey IJGRMHOSHXDMSA-UHFFFAOYSA-N
Temperature: 77 K
Tabular data in the source: 0
pressure (bar)	uptake (cm3(STP)/g)
0.00018	5.186
0.00018	96.7151
0.000531	165.362
0.00103136	203.976
0.00253301	236.869
0.00473543	262.612
0.00813917	289.784
0.0118933	306.946
0.0155974	322.678
0.0195017	334.119
0.0232558	344.13
0.02706	354.141
0.0313146	365.582
