Adsorption isotherm of Nitrogen on IRMOF-1
DOI: 10.1016/j.matlet.2011.04.099
Adsorbate Nitrogen: InChIKey IJGRMHOSHXDMSA-UHFFFAOYSA-N
Temperature: 77 K
Tabular data in the source: 0
pressure (bar)	uptake (cm3(STP)/g)
0.00013	341.27
0.00018	115.307
0.000281	468.552
0.000731	585.824
0.00113147	648.75
0.00213257	707.386
0.00368428	760.302
0.00573653	807.496
0.00823928	850.401
0.0112926	889.014
0.0160979	933.349
0.0210534	969.102
0.0253581	996.275
0.0293124	1019.16
0.032566	1037.75
