Adsorption isotherm of Nitrogen on [Cu12(BTC)8][H3PW12O40]
DOI: 10.1021/Ja807357r
Adsorbate Nitrogen: InChIKey IJGRMHOSHXDMSA-UHFFFAOYSA-N
Temperature: 77 K
Tabular data in the source: 0
pressure (bar)	uptake (cm3(STP)/g)
7.49e-05	14.4118
0.000666589	128.334
0.0108722	133.145
0.0254195	133.841
0.038516	135.223
0.0472423	135.229
0.114151	136.649
0.221782	138.098
0.317778	139.538
0.391951	139.591
0.470494	141.019
0.544668	141.071
0.624665	142.5
0.710467	141.188
0.796282	142.621
0.876273	142.678
0.957725	144.108
