Adsorption isotherm of Nitrogen on CuBTC
DOI: 10.1021/Ja807357r
Adsorbate Nitrogen: InChIKey IJGRMHOSHXDMSA-UHFFFAOYSA-N
Temperature: 77 K
Tabular data in the source: 0
pressure (bar)	uptake (cm3(STP)/g)
7.49e-05	14.4118
0.000737882	142.059
0.00262002	224.414
0.00410648	230.591
0.0113962	234.028
0.0274121	237.47
0.0638036	243.673
0.0798089	245.056
0.0987229	246.442
0.117637	247.828
0.138009	249.901
0.158374	250.602
0.172918	250.612
0.196191	251.315
0.242738	252.72
0.292191	253.442
0.340189	254.162
0.405639	254.894
0.456535	253.558
0.504533	254.278
0.552531	254.998
0.601973	253.661
0.649974	255.067
0.699427	255.788
0.748872	255.137
0.798324	255.858
0.846315	255.206
0.900134	256.616
0.959771	258.031
