Adsorption isotherm of Carbon Dioxide on Zeolite LS-Li-KFI
DOI: 10.1021/La400352r
Adsorbate Carbon Dioxide: InChIKey CURLTUGMZLYLDI-UHFFFAOYSA-N
Temperature: 303 K
Tabular data in the source: 0
pressure (bar)	uptake (molecules/unitcell)
0.00103316	0.973819
0.00503968	2.54693
0.023377	4.70995
0.0822257	8.44609
0.255038	12.51
0.528946	16.2461
1.21315	19.0646
3.76281	24.1772
8.84995	27.4545
