Adsorption isotherm of Argon on Zeolite LS-K-KFI
DOI: 10.1021/La400352r
Adsorbate Argon: InChIKey XKRFYHLGVUSROY-UHFFFAOYSA-N
Temperature: 87 K
Tabular data in the source: 0
pressure (bar)	uptake (cm3(STP)/g)
1.37e-05	0.771225
0.000148	5.1239
0.00119842	5.84935
0.00989715	8.38841
0.0482155	8.02569
0.240342	10.5648
0.561803	12.7411
0.774663	16.3683
0.889018	24.3482
