Adsorption isotherm of Argon on Zeolite LS-Li-KFI
DOI: 10.1021/La400352r
Adsorbate Argon: InChIKey XKRFYHLGVUSROY-UHFFFAOYSA-N
Temperature: 87 K
Tabular data in the source: 0
pressure (bar)	uptake (cm3(STP)/g)
0.0521728	105.81
0.0933379	109.415
0.115636	111.054
0.17138	112.365
0.216833	113.02
0.266574	114.331
0.3146	114.987
