Adsorption isotherm of Argon on Zeolite LS-Li-KFI
DOI: 10.1021/La400352r
Adsorbate Argon: InChIKey XKRFYHLGVUSROY-UHFFFAOYSA-N
Temperature: 87 K
Tabular data in the source: 0
pressure (bar)	uptake (cm3(STP)/g)
0.0564608	76.3145
0.0899075	78.2809
0.137933	80.575
0.188532	81.2304
0.269147	81.8859
0.316316	83.5246
