Adsorption isotherm of Nitrogen on Zeolite LS-K-KFI
DOI: 10.1021/La400352r
Adsorbate Nitrogen: InChIKey IJGRMHOSHXDMSA-UHFFFAOYSA-N
Temperature: 303 K
Tabular data in the source: 0
pressure (bar)	uptake (mmol/g)
0.424475	0.0100249
7.50347	0.179353
10.3875	0.294059
12.6598	0.452462
14.5825	0.627252
17.3791	0.938596
18.9522	1.29364
20.0883	1.64868
20.7001	2.18944
