Adsorption isotherm of Carbon Dioxide on Zeolite LS-Na-KFI
DOI: 10.1021/La400352r
Adsorbate Carbon Dioxide: InChIKey CURLTUGMZLYLDI-UHFFFAOYSA-N
Temperature: 303 K
Tabular data in the source: 0
pressure (bar)	uptake (mmol/g)
0.00993941	0.348017
0.0271854	0.752219
0.105743	1.60432
1.34157	3.14466
4.48727	3.78919
9.07538	4.18247
