Adsorption isotherm of Nitrogen on Zeolite LS-Li-KFI
DOI: 10.1021/La400352r
Adsorbate Nitrogen: InChIKey IJGRMHOSHXDMSA-UHFFFAOYSA-N
Temperature: 303 K
Tabular data in the source: 0
pressure (bar)	uptake (mmol/g)
0.424475	0.0100249
4.96901	0.0591846
9.42616	0.135655
11.7858	0.168428
16.5051	0.288596
19.564	0.436075
22.7976	0.616327
26.8178	0.905823
29.4396	1.23902
31.6245	1.56675
33.3724	1.89448
34.4211	2.16213
