Adsorption isotherm of Carbon Dioxide on Zeolite LS-Mg-KFI
DOI: 10.1021/La400352r
Adsorbate Carbon Dioxide: InChIKey CURLTUGMZLYLDI-UHFFFAOYSA-N
Temperature: 303 K
Tabular data in the source: 0
pressure (bar)	uptake (mmol/g)
0.00876474	0.227849
0.0239725	0.348017
0.0689505	0.500959
0.213862	0.806841
0.752233	1.34214
1.37574	1.75726
2.7824	2.23793
8.84995	3.05726
