Adsorption isotherm of Carbon Dioxide on Zeolite LS-Li-KFI
DOI: 10.1021/La400352r
Adsorbate Carbon Dioxide: InChIKey CURLTUGMZLYLDI-UHFFFAOYSA-N
Temperature: 303 K
Tabular data in the source: 0
pressure (bar)	uptake (mmol/g)
0.23938	3.23611
0.493981	3.55073
1.09927	3.85224
2.20099	4.08821
5.20273	4.29796
10.5754	4.5077
23.1814	4.61258
34.8429	4.76989
47.8367	4.783
