Adsorption isotherm of Carbon Dioxide on Zeolite LS-Sr-KFI
DOI: 10.1021/La400352r
Adsorbate Carbon Dioxide: InChIKey CURLTUGMZLYLDI-UHFFFAOYSA-N
Temperature: 303 K
Tabular data in the source: 0
pressure (bar)	uptake (mmol/g)
0.000982	0.446337
0.00412105	0.686673
0.00876474	0.795917
0.0549817	1.17827
0.170535	1.62617
0.752233	2.15054
1.27575	2.47827
3.40263	3.14466
8.00282	3.73457
