Adsorption isotherm of Carbon Dioxide on Zeolite LS-K-KFI
DOI: 10.1021/La400352r
Adsorbate Carbon Dioxide: InChIKey CURLTUGMZLYLDI-UHFFFAOYSA-N
Temperature: 303 K
Tabular data in the source: 0
pressure (bar)	uptake (mmol/g)
0.0104522	0.0312107
0.0406561	0.162303
0.126102	0.424488
0.275028	0.708522
0.680229	1.07995
1.0432	1.4623
2.45357	2.12869
4.839	2.53289
9.07538	3.05726
