Adsorption isotherm of Carbon Dioxide on Zeolite LS-Li-KFI
DOI: 10.1021/La400352r
Adsorbate Carbon Dioxide: InChIKey CURLTUGMZLYLDI-UHFFFAOYSA-N
Temperature: 303 K
Tabular data in the source: 0
pressure (bar)	uptake (mmol/g)
0.00114252	0.184152
0.00336987	0.348017
0.00993941	0.544656
0.0316142	0.883312
0.105743	1.44045
0.224896	1.98667
0.421786	2.55474
0.791045	2.93709
2.33318	3.6581
9.07538	4.48835
