Adsorption isotherm of Carbon Dioxide on Zeolite K-ZK-5
DOI: 10.1021/La400352r
Adsorbate Carbon Dioxide: InChIKey CURLTUGMZLYLDI-UHFFFAOYSA-N
Temperature: 303 K
Tabular data in the source: 0
pressure (bar)	uptake (mmol/g)
0.00105948	0.0162291
0.0029716	0.033708
0.00772889	0.0948845
0.0245832	0.208498
0.0623505	0.479422
0.203369	1.05623
0.371938	1.44951
0.630786	1.83404
1.27575	2.2448
2.51607	2.71673
5.2183	3.10127
9.54363	3.39841
