Adsorption isotherm of Carbon Dioxide on Zeolite LS-Li-KFI
DOI: 10.1021/La400352r
Adsorbate Carbon Dioxide: InChIKey CURLTUGMZLYLDI-UHFFFAOYSA-N
Temperature: 303 K
Tabular data in the source: 0
pressure (bar)	uptake (mmol/g)
0.221981	2.56754
0.486582	2.94771
1.03487	3.23611
1.57912	3.40653
3.30821	3.62939
6.05031	3.81292
11.0653	3.91779
22.4921	3.99644
43.0406	4.00955
