Adsorption isotherm of Carbon Dioxide on Zeolite LS-Na-KFI
DOI: 10.1021/La400352r
Adsorbate Carbon Dioxide: InChIKey CURLTUGMZLYLDI-UHFFFAOYSA-N
Temperature: 303 K
Tabular data in the source: 0
pressure (bar)	uptake (mmol/g)
0.0109915	0.315244
0.0239725	0.632051
0.052284	1.11272
0.170535	1.81188
0.556237	2.56566
1.72527	3.11188
4.48727	3.64718
8.84995	4.0623
