Adsorption isotherm of Argon on Zeolite LS-Li-KFI
DOI: 10.1021/La400352r
Adsorbate Argon: InChIKey XKRFYHLGVUSROY-UHFFFAOYSA-N
Temperature: 87 K
Tabular data in the source: 0
pressure (bar)	uptake (cm3(STP)/g)
0.0616065	120.886
0.0976259	124.163
0.124212	125.802
0.149082	127.113
0.173095	127.441
0.195393	128.424
0.221121	130.062
0.245992	130.062
0.272578	132.356
0.291445	131.373
0.319746	132.029
