Adsorption isotherm of Methane on Zeolite LS-Sr-KFI
DOI: 10.1021/La400352r
Adsorbate Methane: InChIKey VNWKTOKETHGBQD-UHFFFAOYSA-N
Temperature: 303 K
Tabular data in the source: 0
pressure (bar)	uptake (mmol/g)
0.160399	0.0514995
0.946953	0.543096
2.08309	0.811836
3.04443	1.00192
4.87973	1.19856
7.0646	1.32965
10.036	1.47385
15.3671	1.62461
25.1554	1.79503
35.5554	1.91957
