Adsorption isotherm of Methane on Zeolite LS-Na-KFI
DOI: 10.1021/La400352r
Adsorbate Methane: InChIKey VNWKTOKETHGBQD-UHFFFAOYSA-N
Temperature: 303 K
Tabular data in the source: 0
pressure (bar)	uptake (mmol/g)
0.160399	0.0514995
0.946953	0.543096
1.9083	0.720071
4.79233	1.03469
6.45284	1.16579
8.37552	1.33621
10.7352	1.44763
14.9301	1.59184
19.9117	1.70326
24.9806	1.80158
30.6612	1.86713
35.2932	1.91957
