Adsorption isotherm of Carbon Dioxide on Zeolite Na-ZK-5
DOI: 10.1021/La400352r
Adsorbate Carbon Dioxide: InChIKey CURLTUGMZLYLDI-UHFFFAOYSA-N
Temperature: 303 K
Tabular data in the source: 0
pressure (bar)	uptake (mmol/g)
0.00103316	0.129218
0.00422603	0.168545
0.0201022	0.365184
0.0843203	0.837117
0.170535	1.3877
0.362698	2.23981
0.811195	2.81661
2.21871	3.59006
9.54363	4.42905
