Adsorption isotherm of Carbon Dioxide on Zeolite LS-Sr-KFI
DOI: 10.1021/La400352r
Adsorbate Carbon Dioxide: InChIKey CURLTUGMZLYLDI-UHFFFAOYSA-N
Temperature: 303 K
Tabular data in the source: 0
pressure (bar)	uptake (molecules/unitcell)
0.00105948	2.94021
0.00382151	4.25113
0.037701	7.39735
0.213862	11.3301
0.733547	15.1973
3.23568	20.7032
5.91767	23.7184
9.78674	25.9469
