Adsorption isotherm of Carbon Dioxide on Zeolite LS-Li-KFI
DOI: 10.1021/La400352r
Adsorbate Carbon Dioxide: InChIKey CURLTUGMZLYLDI-UHFFFAOYSA-N
Temperature: 303 K
Tabular data in the source: 0
pressure (bar)	uptake (mmol/g)
1.99569	4.18247
2.69485	4.34634
5.3167	4.52113
10.1234	4.67407
16.7654	4.77239
25.7671	4.80516
34.8562	4.79424
