Adsorption isotherm of Carbon Dioxide on Zeolite LS-K-KFI
DOI: 10.1021/La400352r
Adsorbate Carbon Dioxide: InChIKey CURLTUGMZLYLDI-UHFFFAOYSA-N
Temperature: 303 K
Tabular data in the source: 0
pressure (bar)	uptake (mmol/g)
0.0107185	0.0162291
0.0308289	0.121103
0.114031	0.34833
0.255038	0.593036
0.599837	1.06497
1.30824	1.56312
2.92596	2.13119
8.84995	2.90026
