Adsorption isotherm of Carbon Dioxide on Zeolite Na-ZK-5
DOI: 10.1021/La400352r
Adsorbate Carbon Dioxide: InChIKey CURLTUGMZLYLDI-UHFFFAOYSA-N
Temperature: 303 K
Tabular data in the source: 0
pressure (bar)	uptake (mmol/g)
0.0101926	0.151379
0.023377	0.435412
0.0406561	0.610202
0.074355	0.948858
0.12297	1.33121
0.336335	2.22701
0.680229	2.94802
1.48358	3.48331
3.85866	4.01861
9.07538	4.57575
