Adsorption isotherm of Carbon Dioxide on Zeolite LS-Ca-KFI
DOI: 10.1021/La400352r
Adsorbate Carbon Dioxide: InChIKey CURLTUGMZLYLDI-UHFFFAOYSA-N
Temperature: 303 K
Tabular data in the source: 0
pressure (bar)	uptake (molecules/unitcell)
0.00111414	3.39903
0.00401868	4.05449
0.0168567	5.43096
0.198317	8.51163
0.853049	12.3133
3.15531	16.7705
9.54363	21.4242
