Adsorption isotherm of Nitrogen on Zeolite LS-Ca-KFI
DOI: 10.1021/La400352r
Adsorbate Nitrogen: InChIKey IJGRMHOSHXDMSA-UHFFFAOYSA-N
Temperature: 303 K
Tabular data in the source: 0
pressure (bar)	uptake (mmol/g)
0.424475	0.0100249
7.06649	0.157504
11.9606	0.496159
15.2816	0.845739
18.7774	1.27725
20.9623	1.64322
23.0598	2.17851
