Adsorption isotherm of Nitrogen on Zeolite LS-Sr-KFI
DOI: 10.1021/La400352r
Adsorbate Nitrogen: InChIKey IJGRMHOSHXDMSA-UHFFFAOYSA-N
Temperature: 303 K
Tabular data in the source: 0
pressure (bar)	uptake (mmol/g)
0.424475	0.0100249
7.06649	0.0318737
10.1253	0.0591846
13.7959	0.162966
17.2917	0.299521
21.0497	0.638176
23.2346	1.0096
24.8077	1.47389
25.5942	1.88355
25.9438	2.18397
