Adsorption isotherm of Argon on Zeolite LS-Li-KFI
DOI: 10.1021/La400352r
Adsorbate Argon: InChIKey XKRFYHLGVUSROY-UHFFFAOYSA-N
Temperature: 87 K
Tabular data in the source: 0
pressure (bar)	uptake (cm3(STP)/g)
0.0478848	50.4237
0.0941955	52.3901
0.145652	55.012
0.18939	55.3397
0.240846	57.3061
0.290587	57.9615
0.315458	58.9447
