Adsorption isotherm of Carbon Dioxide on Zeolite LS-Li-KFI
DOI: 10.1021/La400352r
Adsorbate Carbon Dioxide: InChIKey CURLTUGMZLYLDI-UHFFFAOYSA-N
Temperature: 303 K
Tabular data in the source: 0
pressure (bar)	uptake (mmol/g)
0.262069	3.56384
0.472114	3.85224
1.16768	4.20619
2.33796	4.42905
4.82457	4.65191
10.261	4.82233
21.8233	4.91409
32.3103	4.96653
43.0406	4.96653
