Adsorption isotherm of Carbon Dioxide on Zeolite Li-ZK-5
DOI: 10.1021/La400352r
Adsorbate Carbon Dioxide: InChIKey CURLTUGMZLYLDI-UHFFFAOYSA-N
Temperature: 303 K
Tabular data in the source: 0
pressure (bar)	uptake (mmol/g)
0.00103316	0.129218
0.00422603	0.168545
0.0201022	0.365184
0.100555	0.837117
0.213862	1.50569
0.528946	2.39712
1.15363	3.30165
3.57819	4.20619
9.54363	4.82233
