Adsorption isotherm of Carbon Dioxide on Zeolite LS-Ca-KFI
DOI: 10.1021/La400352r
Adsorbate Carbon Dioxide: InChIKey CURLTUGMZLYLDI-UHFFFAOYSA-N
Temperature: 303 K
Tabular data in the source: 0
pressure (bar)	uptake (mmol/g)
1.29653	2.41272
2.60746	2.64214
5.4041	2.94802
7.93855	3.04634
13.6192	3.22113
22.7083	3.38499
33.7201	3.49424
39.5755	3.50516
