Adsorption isotherm of Carbon Dioxide on Zeolite LS-Li-KFI
DOI: 10.1021/La400352r
Adsorbate Carbon Dioxide: InChIKey CURLTUGMZLYLDI-UHFFFAOYSA-N
Temperature: 303 K
Tabular data in the source: 0
pressure (bar)	uptake (mmol/g)
0.250468	2.82972
0.493981	3.11813
1.06659	3.40653
2.04101	3.60317
5.04803	3.82602
11.4044	3.97023
21.4964	4.08821
42.3959	4.06199
