Adsorption isotherm of Argon on Zeolite LS-Ca-KFI
DOI: 10.1021/La400352r
Adsorbate Argon: InChIKey XKRFYHLGVUSROY-UHFFFAOYSA-N
Temperature: 87 K
Tabular data in the source: 0
pressure (bar)	uptake (cm3(STP)/g)
1.62e-06	15.6429
3.69e-06	23.2601
9.68e-06	29.0636
1.88e-05	39.5826
4.11e-05	56.9933
7.81e-05	72.2277
0.000118	84.1976
0.000219	87.8248
0.00063	93.6284
0.00249764	98.3438
0.00805032	99.7947
0.0420135	105.961
0.110148	113.941
0.339098	121.921
0.536601	127.362
0.889018	163.634
0.997108	176.329
