Adsorption isotherm of Argon on Zeolite LS-Mg-KFI
DOI: 10.1021/La400352r
Adsorbate Argon: InChIKey XKRFYHLGVUSROY-UHFFFAOYSA-N
Temperature: 87 K
Tabular data in the source: 0
pressure (bar)	uptake (cm3(STP)/g)
1.68e-05	29.4264
3.19e-05	39.5826
5.17e-05	53.0034
0.000105	63.5223
0.000389	76.5804
0.000931	83.4721
0.00328947	91.452
0.0160252	98.7065
0.0620607	104.51
0.191059	111.039
0.363265	116.48
0.561803	127.362
0.868849	140.057
0.930772	188.299
