Adsorption isotherm of Methane on Zeolite LS-K-KFI
DOI: 10.1021/La400352r
Adsorbate Methane: InChIKey VNWKTOKETHGBQD-UHFFFAOYSA-N
Temperature: 303 K
Tabular data in the source: 0
pressure (bar)	uptake (mmol/g)
0.160399	0.0514995
1.64611	0.556205
2.78225	0.706962
5.05452	0.936373
9.77384	1.13301
14.8428	1.29032
20.1738	1.41486
25.8545	1.51318
30.5738	1.57217
