Adsorption isotherm of Carbon Dioxide on Zeolite LS-Na-KFI
DOI: 10.1021/La400352r
Adsorbate Carbon Dioxide: InChIKey CURLTUGMZLYLDI-UHFFFAOYSA-N
Temperature: 303 K
Tabular data in the source: 0
pressure (bar)	uptake (molecules/unitcell)
0.0109915	2.28474
0.0245832	4.05449
0.0427537	6.28306
0.103116	9.1671
0.344903	14.1486
0.680229	17.3604
2.39262	21.5553
6.22299	25.4226
9.30656	26.5368
