Adsorption isotherm of Carbon Dioxide on Zeolite LS-Li-KFI
DOI: 10.1021/La400352r
Adsorbate Carbon Dioxide: InChIKey CURLTUGMZLYLDI-UHFFFAOYSA-N
Temperature: 303 K
Tabular data in the source: 0
pressure (bar)	uptake (mmol/g)
0.00108647	0.162303
0.00698907	0.468185
0.0271854	0.806841
0.114031	1.5497
0.43253	2.56566
1.27575	3.31945
2.85328	3.98583
8.63011	4.65222
