Adsorption isotherm of Methane on Zeolite LS-Li-KFI
DOI: 10.1021/La400352r
Adsorbate Methane: InChIKey VNWKTOKETHGBQD-UHFFFAOYSA-N
Temperature: 303 K
Tabular data in the source: 0
pressure (bar)	uptake (mmol/g)
0.160399	0.0514995
0.946953	0.641415
1.9083	0.969147
3.04443	1.11335
4.96712	1.36242
6.97721	1.49352
9.94863	1.63772
15.1923	1.78192
20.3486	1.90646
26.0293	1.96545
35.1184	2.0441
