Adsorption isotherm of Carbon Dioxide on Zeolite LS-Sr-KFI
DOI: 10.1021/La400352r
Adsorbate Carbon Dioxide: InChIKey CURLTUGMZLYLDI-UHFFFAOYSA-N
Temperature: 303 K
Tabular data in the source: 0
pressure (bar)	uptake (mmol/g)
1.99569	3.01356
3.30662	3.14466
5.66628	3.26482
9.77384	3.38499
15.6293	3.46146
22.5335	3.51608
29.9621	3.51608
35.2932	3.53793
