Adsorption isotherm of Carbon Dioxide on Zeolite LS-Ca-KFI
DOI: 10.1021/La400352r
Adsorbate Carbon Dioxide: InChIKey CURLTUGMZLYLDI-UHFFFAOYSA-N
Temperature: 303 K
Tabular data in the source: 0
pressure (bar)	uptake (mmol/g)
0.000982	0.55558
0.00812767	0.752219
0.0578185	1.03625
0.20855	1.47323
1.24406	2.21608
4.60158	2.90432
8.63011	3.48331
