Adsorption isotherm of Methane on Zeolite LS-Ca-KFI
DOI: 10.1021/La400352r
Adsorbate Methane: InChIKey VNWKTOKETHGBQD-UHFFFAOYSA-N
Temperature: 303 K
Tabular data in the source: 0
pressure (bar)	uptake (mmol/g)
0.160399	0.0514995
1.55872	0.595533
4.61754	0.956037
10.2108	1.2641
15.1923	1.48041
20.1738	1.61805
25.2428	1.70982
33.8949	1.84747
