Adsorption isotherm of Argon on Zeolite LS-Li-KFI
DOI: 10.1021/La400352r
Adsorbate Argon: InChIKey XKRFYHLGVUSROY-UHFFFAOYSA-N
Temperature: 87 K
Tabular data in the source: 0
pressure (bar)	uptake (cm3(STP)/g)
2.87e-06	3.31029
5.84e-06	18.1819
9.9e-06	31.24
1.97e-05	42.1217
4.5e-05	54.817
7.81e-05	71.5023
0.00011	84.5603
0.000347	101.971
0.00203158	116.117
0.0130349	133.528
0.0620607	142.596
0.309357	165.085
0.615814	180.319
0.723125	195.916
0.930772	218.042
