Adsorption isotherm of Carbon Dioxide on Zeolite K-ZK-5
DOI: 10.1021/La400352r
Adsorbate Carbon Dioxide: InChIKey CURLTUGMZLYLDI-UHFFFAOYSA-N
Temperature: 303 K
Tabular data in the source: 0
pressure (bar)	uptake (mmol/g)
0.00146929	0.0112343
0.00664616	0.0636713
0.0316142	0.312747
0.203369	1.03376
0.54242	1.72855
1.37574	2.29224
3.31811	2.84283
9.30656	3.34098
