Adsorption isotherm of Nitrogen on Zeolite LS-Mg-KFI
DOI: 10.1021/La400352r
Adsorbate Nitrogen: InChIKey IJGRMHOSHXDMSA-UHFFFAOYSA-N
Temperature: 303 K
Tabular data in the source: 0
pressure (bar)	uptake (mmol/g)
0.424475	0.0100249
5.2312	0.157504
8.727	0.299521
12.485	0.643638
15.1942	0.982294
17.2043	1.26087
19.0396	1.57767
20.3505	1.88902
