Adsorption isotherm of Carbon Dioxide on Zeolite LS-Li-KFI
DOI: 10.1021/La400352r
Adsorbate Carbon Dioxide: InChIKey CURLTUGMZLYLDI-UHFFFAOYSA-N
Temperature: 303 K
Tabular data in the source: 0
pressure (bar)	uptake (mmol/g)
0.235795	2.9346
0.516862	3.28855
1.22177	3.56384
2.84477	3.7867
6.82676	4.03577
16.3826	4.2193
34.3209	4.31107
43.0406	4.31107
