Adsorption isotherm of Carbon Dioxide on Zeolite Li-ZK-5
DOI: 10.1021/La400352r
Adsorbate Carbon Dioxide: InChIKey CURLTUGMZLYLDI-UHFFFAOYSA-N
Temperature: 303 K
Tabular data in the source: 0
pressure (bar)	uptake (mmol/g)
0.00108647	0.0421351
0.00242994	0.0749082
0.00854702	0.216925
0.0245832	0.369866
0.072508	0.763143
0.213862	1.4623
0.371938	1.96482
0.697556	2.77323
1.18302	3.28667
2.16359	3.78919
8.84995	4.78331
