Adsorption isotherm of Argon on Zeolite LS-Na-KFI
DOI: 10.1021/La400352r
Adsorbate Argon: InChIKey XKRFYHLGVUSROY-UHFFFAOYSA-N
Temperature: 87 K
Tabular data in the source: 0
pressure (bar)	uptake (cm3(STP)/g)
8.83e-06	0.771225
5.05e-05	2.58484
0.000183	4.76118
0.00049	12.3784
0.00111869	18.1819
0.00377507	22.5346
0.0118916	23.2601
0.0482155	23.9855
0.162705	26.5246
0.426568	31.24
0.792645	36.6808
0.909655	46.4743
