Adsorption isotherm of Carbon Dioxide on Zeolite LS-Mg-KFI
DOI: 10.1021/La400352r
Adsorbate Carbon Dioxide: InChIKey CURLTUGMZLYLDI-UHFFFAOYSA-N
Temperature: 303 K
Tabular data in the source: 0
pressure (bar)	uptake (mmol/g)
2.08309	3.12281
2.95704	3.31945
5.75368	3.46146
9.24947	3.58163
17.7268	3.64718
24.3688	3.6581
35.2058	3.63625
