Adsorption isotherm of Carbon Dioxide on Zeolite LS-Na-KFI
DOI: 10.1021/La400352r
Adsorbate Carbon Dioxide: InChIKey CURLTUGMZLYLDI-UHFFFAOYSA-N
Temperature: 303 K
Tabular data in the source: 0
pressure (bar)	uptake (mmol/g)
1.55872	3.42869
2.60746	3.66903
5.49149	3.81104
12.3083	3.98583
20.873	4.09508
34.2444	4.106
39.7503	4.106
