Adsorption isotherm of Carbon Dioxide on Zeolite LS-Mg-KFI
DOI: 10.1021/La400352r
Adsorbate Carbon Dioxide: InChIKey CURLTUGMZLYLDI-UHFFFAOYSA-N
Temperature: 303 K
Tabular data in the source: 0
pressure (bar)	uptake (molecules/unitcell)
0.00969251	1.236
0.0449596	2.48138
0.105743	3.85785
0.344903	6.21752
1.12497	9.75701
3.31811	13.4276
8.00282	17.6226
