Adsorption isotherm of Carbon Dioxide on Zeolite LS-K-KFI
DOI: 10.1021/La400352r
Adsorbate Carbon Dioxide: InChIKey CURLTUGMZLYLDI-UHFFFAOYSA-N
Temperature: 303 K
Tabular data in the source: 0
pressure (bar)	uptake (molecules/unitcell)
0.0107185	0.187264
0.0358512	0.908273
0.116936	2.54693
0.443548	5.56205
0.943347	9.1671
2.51607	13.8209
8.84995	20.31
