Adsorption isotherm of Argon on Zeolite LS-Li-KFI
DOI: 10.1021/La400352r
Adsorbate Argon: InChIKey XKRFYHLGVUSROY-UHFFFAOYSA-N
Temperature: 87 K
Tabular data in the source: 0
pressure (bar)	uptake (cm3(STP)/g)
0.058176	81.5582
0.0933379	84.8355
0.122497	86.4741
0.167092	87.7851
0.220264	89.096
0.259714	90.0792
0.312885	91.0624
