Adsorption isotherm of Argon on Zeolite LS-Sr-KFI
DOI: 10.1021/La400352r
Adsorbate Argon: InChIKey XKRFYHLGVUSROY-UHFFFAOYSA-N
Temperature: 87 K
Tabular data in the source: 0
pressure (bar)	uptake (cm3(STP)/g)
1.28e-06	13.8293
4.54e-06	22.5346
2.48e-05	38.8572
5.17e-05	56.2679
0.000124	76.5804
0.000468	89.6384
0.00286634	102.696
0.0383287	117.931
0.13856	124.097
0.426568	132.802
0.70672	139.694
0.868849	149.125
0.909655	158.919
