Adsorption isotherm of Carbon Dioxide on Zeolite LS-K-KFI
DOI: 10.1021/La400352r
Adsorbate Carbon Dioxide: InChIKey CURLTUGMZLYLDI-UHFFFAOYSA-N
Temperature: 303 K
Tabular data in the source: 0
pressure (bar)	uptake (mmol/g)
1.47132	2.60936
2.95704	2.94802
5.57889	3.15558
10.3856	3.37407
15.8915	3.47239
25.1554	3.54886
28.4764	3.58163
34.7688	3.63625
39.3133	3.59256
