Adsorption isotherm of Nitrogen on Zeolite LS-Na-KFI
DOI: 10.1021/La400352r
Adsorbate Nitrogen: InChIKey IJGRMHOSHXDMSA-UHFFFAOYSA-N
Temperature: 303 K
Tabular data in the source: 0
pressure (bar)	uptake (mmol/g)
0.424475	0.0100249
8.90179	0.168428
12.3976	0.277672
16.5051	0.474311
19.4766	0.676411
22.1858	0.976832
24.7203	1.31002
26.3808	1.64322
28.7404	2.18397
