Adsorption isotherm of Hydrogen on MOF-177
DOI: 10.1007/s10450-012-9397-z
Adsorbate Hydrogen: InChIKey UFHFLCQGNIYNRP-UHFFFAOYSA-N
Temperature: 298 K
Tabular data in the source: 0
pressure (bar)	uptake (wt%)
5.84815	0.0588235
14.609	0.127451
20.44	0.156863
24.8119	0.176471
29.1724	0.176471
39.3753	0.22549
43.7585	0.264706
49.5839	0.284314
61.2517	0.352941
69.9954	0.392157
81.6461	0.431373
102.041	0.509804
