Adsorption isotherm of Hydrogen on MIL-53
DOI: 10.1007/s10450-012-9397-z
Adsorbate Hydrogen: InChIKey UFHFLCQGNIYNRP-UHFFFAOYSA-N
Temperature: 298 K
Tabular data in the source: 0
pressure (bar)	uptake (wt%)
40.5381	0.343137
78.787	0.607843
114.742	0.803922
150.711	0.970588
185.527	1.11765
221.509	1.2549
255.18	1.36275
288.846	1.48039
323.68	1.58824
357.346	1.70588
