Adsorption isotherm of Hydrogen on Carbon
DOI: 10.1007/s10450-012-9397-z
Adsorbate Hydrogen: InChIKey UFHFLCQGNIYNRP-UHFFFAOYSA-N
Temperature: 298 K
Tabular data in the source: 0
pressure (bar)	uptake (wt%)
52.1739	0.411765
101.449	0.813725
201.449	1.20588
300	1.40196
400	1.51961
