Adsorption isotherm of Hydrogen on IRMOF-20
DOI: 10.1007/s10450-012-9397-z
Adsorbate Hydrogen: InChIKey UFHFLCQGNIYNRP-UHFFFAOYSA-N
Temperature: 298 K
Tabular data in the source: 0
pressure (bar)	uptake (wt%)
36.5253	0.323529
45.2747	0.372549
55.4891	0.441176
65.7034	0.509804
80.2725	0.568627
89.039	0.647059
100.701	0.705882
109.456	0.764706
118.183	0.77451
128.397	0.843137
140.059	0.901961
147.35	0.941176
154.617	0.941176
164.826	1
179.4	1.06863
189.575	1.06863
199.783	1.12745
218.713	1.18627
225.98	1.18627
237.637	1.23529
250.747	1.28431
259.462	1.27451
271.118	1.32353
285.676	1.36275
294.397	1.36275
306.053	1.41176
322.07	1.46078
327.884	1.46078
340.988	1.5
354.081	1.51961
361.354	1.52941
373.005	1.56863
389.022	1.61765
393.377	1.60784
406.475	1.63725
419.574	1.66667
428.3	1.67647
441.404	1.71569
454.503	1.7451
