Adsorption isotherm of Hydrogen on MOF-177
DOI: 10.1007/s10450-012-9397-z
Adsorbate Hydrogen: InChIKey UFHFLCQGNIYNRP-UHFFFAOYSA-N
Temperature: 298 K
Tabular data in the source: 0
pressure (bar)	uptake (wt%)
71.4318	0.362745
104.942	0.5
139.883	0.598039
170.446	0.666667
201.009	0.735294
233.003	0.764706
265.002	0.803922
297.002	0.843137
326.089	0.872549
359.53	0.892157
390.065	0.911765
422.047	0.921569
451.129	0.941176
