Adsorption isotherm of Hydrogen on CuBTC
DOI: 10.1007/s10450-012-9397-z
Adsorbate Hydrogen: InChIKey UFHFLCQGNIYNRP-UHFFFAOYSA-N
Temperature: 298 K
Tabular data in the source: 0
pressure (bar)	uptake (wt%)
40.6065	0.196078
78.9102	0.343137
114.911	0.441176
150.917	0.529412
185.777	0.578431
222.955	0.647059
256.653	0.696078
291.528	0.715686
326.393	0.754902
360.105	0.77451
