Adsorption isotherm of Hydrogen on Carbon
DOI: 10.1007/s10450-012-9397-z
Adsorbate Hydrogen: InChIKey UFHFLCQGNIYNRP-UHFFFAOYSA-N
Temperature: 298 K
Tabular data in the source: 0
pressure (bar)	uptake (wt%)
7.24638	0.0882353
20.2899	0.186275
39.1304	0.421569
68.1159	0.588235
89.8551	0.735294
101.449	0.803922
115.942	0.892157
143.478	0.980392
162.319	1.04902
182.609	1.12745
197.101	1.16667
214.493	1.20588
231.884	1.23529
243.478	1.26471
255.072	1.29412
272.464	1.33333
286.957	1.33333
310.145	1.38235
336.232	1.40196
