Adsorption isotherm of Hydrogen on ZIF-8
DOI: 10.1007/s10450-012-9397-z
Adsorbate Hydrogen: InChIKey UFHFLCQGNIYNRP-UHFFFAOYSA-N
Temperature: 298 K
Tabular data in the source: 0
pressure (bar)	uptake (wt%)
18.5499	0.117647
46.3703	0.303922
77.7109	0.421569
114.843	0.588235
150.825	0.72549
185.645	0.862745
221.646	0.960784
257.652	1.04902
292.503	1.11765
327.346	1.20588
362.189	1.29412
