Adsorption isotherm of Hydrogen on Carbon
DOI: 10.1007/s10450-012-9397-z
Adsorbate Hydrogen: InChIKey UFHFLCQGNIYNRP-UHFFFAOYSA-N
Temperature: 298 K
Tabular data in the source: 0
pressure (bar)	uptake (wt%)
36.2573	0.296168
52.6316	0.394996
73.6842	0.493939
107.602	0.612884
140.351	0.702272
173.099	0.791661
204.678	0.851493
233.918	0.911268
250.292	0.951041
264.327	0.980914
293.567	1.04069
309.942	1.05093
323.977	1.07096
340.351	1.08121
354.386	1.10124
367.251	1.09171
383.626	1.12164
