Adsorption isotherm of Hydrogen on ZIF-8
DOI: 10.1007/s10450-012-9397-z
Adsorbate Hydrogen: InChIKey UFHFLCQGNIYNRP-UHFFFAOYSA-N
Temperature: 298 K
Tabular data in the source: 0
pressure (bar)	uptake (wt%)
12.7542	0.0784314
17.3826	0.127451
24.3365	0.176471
28.974	0.205882
38.249	0.264706
46.3703	0.303922
54.4779	0.372549
