Adsorption isotherm of Hydrogen on Carbon
DOI: 10.1007/s10450-012-9397-z
Adsorbate Hydrogen: InChIKey UFHFLCQGNIYNRP-UHFFFAOYSA-N
Temperature: 298 K
Tabular data in the source: 0
pressure (bar)	uptake (wt%)
7.01754	0.0690703
14.0351	0.138141
23.3918	0.226954
29.2398	0.325523
44.4444	0.444007
58.4795	0.55262
71.345	0.661204
87.7193	0.779718
99.4152	0.858745
106.433	0.908131
130.994	1.1548
226.901	1.70834
276.023	2.01467
308.772	2.16311
332.164	2.2129
342.69	2.25253
