Adsorption isotherm of Hydrogen on Carbon
DOI: 10.1007/s10450-012-9397-z
Adsorbate Hydrogen: InChIKey UFHFLCQGNIYNRP-UHFFFAOYSA-N
Temperature: 298 K
Tabular data in the source: 0
pressure (bar)	uptake (wt%)
20.2899	0.186275
34.7826	0.343137
136.232	0.921569
169.565	0.970588
201.449	1.04902
233.333	1.08824
263.768	1.11765
295.652	1.14706
328.986	1.17647
359.42	1.19608
388.406	1.21569
420.29	1.23529
443.478	1.2451
