Adsorption isotherm of Hydrogen on CuBTC
DOI: 10.1007/s10450-012-9397-z
Adsorbate Hydrogen: InChIKey UFHFLCQGNIYNRP-UHFFFAOYSA-N
Temperature: 298 K
Tabular data in the source: 0
pressure (bar)	uptake (wt%)
6.96306	0.0294118
19.7127	0.117647
28.9786	0.196078
47.5422	0.284314
66.1104	0.362745
