Adsorption isotherm of Hydrogen on Hypercrosslinked Polymer
DOI: 10.1007/s10450-012-9397-z
Adsorbate Hydrogen: InChIKey UFHFLCQGNIYNRP-UHFFFAOYSA-N
Temperature: 298 K
Tabular data in the source: 0
pressure (bar)	uptake (wt%)
36.2573	0.26664
56.1404	0.365555
72.5146	0.464383
92.3977	0.553455
111.111	0.65234
129.825	0.721698
147.368	0.810713
166.082	0.850543
182.456	0.910001
201.17	0.949832
216.374	0.999419
250.292	1.08884
266.667	1.10892
283.041	1.1487
318.129	1.2283
336.842	1.25829
352.047	1.29803
