Adsorption isotherm of Hydrogen on Carbon
DOI: 10.1007/s10450-012-9397-z
Adsorbate Hydrogen: InChIKey UFHFLCQGNIYNRP-UHFFFAOYSA-N
Temperature: 298 K
Tabular data in the source: 0
pressure (bar)	uptake (wt%)
31.8841	0.362745
69.5652	0.617647
105.797	0.794118
140.58	0.95098
171.014	1.02941
202.899	1.12745
236.232	1.17647
266.667	1.2451
298.551	1.28431
327.536	1.32353
360.87	1.40196
389.855	1.42157
423.188	1.46078
