Adsorption isotherm of Hydrogen on Carbon
DOI: 10.1007/s10450-012-9397-z
Adsorbate Hydrogen: InChIKey UFHFLCQGNIYNRP-UHFFFAOYSA-N
Temperature: 298 K
Tabular data in the source: 0
pressure (bar)	uptake (wt%)
57.971	0.460784
120.29	0.784314
208.696	0.960784
285.507	1.07843
