Adsorption isotherm of Nitrogen on Mn-Cu(0.25)
DOI: 10.1021/acs.iecr.5b04985
Article source: Figure 4A
Adsorbate Nitrogen: InChIKey IJGRMHOSHXDMSA-UHFFFAOYSA-N
Kind: experiment
Temperature: 77 K
Tabular data in the source: 0
pressure (bar)	uptake (cm3(STP)/g)
0.006221	7.035
0.01221	7.444
0.049913	7.575
0.079003	8.335
0.096441	9.096
0.118814	9.542
0.128581	9.721
0.145695	9.809
0.15673	10.436
0.171959	10.345
0.180358	10.344
0.195375	11.105
0.202731	11.284
0.222054	11.282
0.232977	11.282
0.246737	11.415
0.259129	11.414
0.270994	12.13
0.282028	12.084
0.299881	13.07
0.350605	12.661
0.401865	13.958
0.410052	13.463
0.450379	14.402
0.458475	14.536
0.503849	16.191
0.511509	16.101
0.553214	17.667
0.558888	18.07
0.605417	19.232
0.613604	19.366
0.651945	20.797
0.658248	20.797
0.708768	23.528
0.753311	26.843
0.761711	26.439
0.806669	29.799
0.822435	33.923
0.85269	35.715
0.859631	37.687
0.877292	43.83
0.898611	42.303
0.908176	52.041
0.908308	52.125
0.936273	61.541
0.9414	56.427
0.958048	72.213
0.960338	64.813
0.972224	70.552
0.976672	80.374
0.984757	80.059
0.990351	87.414
0.99181	84.902
0.994029	89.612
1.00202	93.602
