Adsorption isotherm of Nitrogen on Mn-Cu(0.01)
DOI: 10.1021/acs.iecr.5b04985
Article source: Figure 4A
Adsorbate Nitrogen: InChIKey IJGRMHOSHXDMSA-UHFFFAOYSA-N
Kind: experiment
Temperature: 77 K
Tabular data in the source: 0
pressure (bar)	uptake (cm3(STP)/g)
0.00533	21.841
0.013537	26.864
0.052608	28.968
0.094425	33.629
0.098731	32.866
0.120577	34.524
0.128136	33.805
0.146415	35.463
0.150934	35.104
0.168372	36.807
0.173732	37.21
0.196003	38.464
0.204717	38.418
0.225833	39.896
0.2294	39.492
0.24779	41.419
0.256504	40.835
0.271105	42.718
0.2814	42.044
0.298726	43.971
0.30744	42.804
0.349571	45.85
0.349673	45.862
0.39915	49.568
0.407975	49.478
0.453348	52.479
0.457128	51.806
0.503038	56.063
0.508601	54.896
0.556295	59.287
0.606298	62.422
0.652209	68.024
0.663355	69.772
0.707482	75.464
0.716206	78.289
0.75097	79.901
0.757718	87.031
0.761275	81.783
0.770131	90.887
0.803568	101.872
0.807733	92.992
0.824076	110.751
0.842436	105.188
0.84501	122.141
0.855892	110.613
0.881983	122.855
0.891224	152.724
0.896098	133.707
0.902603	164.429
0.909047	143.842
0.92453	157.43
0.931146	187.883
0.946953	202.996
0.96202	216.853
0.970916	208.421
0.975091	216.553
0.975567	216.493
0.991293	237.75
0.992144	239.557
1.00258	251.698
