Adsorption isotherm of Nitrogen on Mn-Cu(0.05)
DOI: 10.1021/acs.iecr.5b04985
Article source: Figure 4A
Adsorbate Nitrogen: InChIKey IJGRMHOSHXDMSA-UHFFFAOYSA-N
Kind: experiment
Temperature: 77 K
Tabular data in the source: 0
pressure (bar)	uptake (cm3(STP)/g)
0.015087	21.394
0.025493	22.423
0.075284	25.872
0.099552	27.663
0.122978	28.2
0.149444	29.632
0.173083	30.752
0.198394	32.005
0.2256	33.169
0.249442	34.467
0.275391	35.541
0.298919	36.616
0.353847	39.033
0.404479	41.271
0.455638	43.957
0.502592	47.362
0.507314	46.958
0.556791	50.496
0.607322	53.228
0.60869	54.259
0.656383	58.919
0.665736	60.129
0.702506	63.131
0.705769	63.884
0.722589	70.44
0.749471	69.675
0.7517	71.34
0.759036	71.692
0.777568	85.953
0.792139	78.955
0.802595	95.593
0.807378	81.421
0.839234	91.733
0.853643	97.742
0.864657	123.35
0.882642	130.21
0.909139	140.21
0.911621	138.55
0.915654	142.496
0.934672	148.583
0.935848	149.805
0.963722	161.822
0.965273	161.768
0.969822	164.288
0.977695	164.153
0.980431	166.216
0.985375	168.324
0.986865	172.853
0.991171	174.288
0.992124	176.306
0.998021	178.324
1.0057	184.333
