Adsorption isotherm of Nitrogen on Mn-Cu(0.5)
DOI: 10.1021/acs.iecr.5b04985
Article source: Figure 4A
Adsorbate Nitrogen: InChIKey IJGRMHOSHXDMSA-UHFFFAOYSA-N
Kind: experiment
Temperature: 77 K
Tabular data in the source: 0
pressure (bar)	uptake (cm3(STP)/g)
0.006738	5.247
0.048231	6.05
0.078892	6.631
0.093077	6.943
0.100535	7.257
0.121012	7.3
0.127001	7.21
0.145067	8.419
0.156608	7.252
0.172263	8.372
0.180247	8.371
0.198313	8.504
0.20419	8.234
0.221314	9.533
0.232754	8.546
0.246838	9.755
0.25618	9.53
0.274459	9.708
0.280123	9.573
0.297673	10.603
0.307329	9.974
0.346927	11.047
0.356066	10.688
0.4007	12.164
0.407418	12.029
0.450268	12.608
0.456256	12.742
0.5009	13.859
0.50856	13.186
0.554461	15.065
0.559922	14.751
0.603411	16.092
0.607393	16.182
0.654975	17.523
0.659383	17.209
0.70812	18.774
0.75938	21.057
0.808857	24.551
0.853075	26.476
0.914124	34.633
0.937976	38.353
0.96584	46.782
0.976662	49.697
0.983927	52.163
0.990128	55.84
0.994758	58.71
1.00402	62.611
