Adsorption isotherm of Ethane on PAF-1-SO3Ag
DOI: 10.1080/02603594.2014.976704
Article source: Figure 6a
Adsorbate Ethane: InChIKey OTMSDBZUPAUEDD-UHFFFAOYSA-N
Kind: experiment
Temperature: 296 K
Tabular data in the source: 0
pressure (bar)	uptake (cm3(STP)/g)
0.005925	1.49813
0.00597	0
0.011795	4.86891
0.01184	3.37079
0.020717	5.99251
0.026664	6.74157
0.029616	7.86517
0.035564	8.61423
0.038504	10.1124
0.047392	12.3596
0.047415	11.6105
0.056325	13.1086
0.062273	13.8577
0.071183	15.3558
0.086042	17.603
0.097948	18.7266
0.100911	19.4757
0.115792	20.9738
0.124714	22.0974
0.130672	22.4719
0.145542	24.3446
0.160434	25.4682
0.1783	26.9663
0.19318	28.4644
0.208094	28.839
0.222964	30.7116
0.25277	32.2097
0.255733	32.9588
0.28555	34.0824
0.288512	34.8315
0.315345	35.9551
0.318319	36.3296
0.342188	36.7041
0.348125	37.8277
0.377953	38.5768
0.380916	39.3258
0.40777	39.7004
0.413707	40.824
0.44055	41.573
0.470367	42.6966
0.50317	43.8202
0.532987	44.9438
0.565789	46.0674
0.592632	46.8165
0.631416	47.5655
0.664218	48.6891
0.691073	49.0637
0.72686	50.1873
0.753703	50.9363
0.786528	51.3109
0.81336	52.4345
0.846185	52.809
0.876013	53.5581
0.908838	53.9326
0.941662	54.3071
0.953592	54.6816
0.968506	55.0562
0.980446	55.0562
1.00134	55.0562
1.01623	56.1798
1.03414	56.1798
1.06101	56.1798
