Adsorption isotherm of Ethene on PAF-1-SO3Ag
DOI: 10.1080/02603594.2014.976704
Article source: Figure 6a
Adsorbate Ethene: InChIKey VGGSQFUCUMXWEO-UHFFFAOYSA-N
Kind: experiment
Temperature: 296 K
Tabular data in the source: 0
pressure (bar)	uptake (cm3(STP)/g)
0.005154	27.3408
0.005366	20.2247
0.005467	16.8539
0.005512	15.3558
0.005545	14.2322
0.008262	23.221
0.008329	20.9738
0.011191	25.0936
0.014031	29.9625
0.014065	28.839
0.01412	26.9663
0.016949	32.2097
0.019856	34.8315
0.01999	30.3371
0.025904	32.2097
0.028844	33.7079
0.037598	40.4494
0.037755	35.206
0.043692	36.3296
0.049628	37.4532
0.055543	39.3258
0.064475	40.0749
0.067248	47.191
0.079323	42.6966
0.09417	45.3184
0.096965	51.6854
0.109028	47.5655
0.126882	49.4382
0.129689	55.4307
0.141752	51.3109
0.156621	53.1835
0.162424	58.8015
0.174487	54.6816
0.189368	56.1798
0.192196	61.4232
0.201263	57.6779
0.219129	59.176
0.224954	64.0449
0.251898	61.4232
0.254726	66.6667
0.284678	63.2959
0.287506	68.5393
0.311476	65.5431
0.317312	70.0375
0.344256	67.4157
0.350092	71.9101
0.374062	68.9139
0.379909	73.0337
0.409816	71.161
0.412689	74.9064
0.439622	72.6592
0.442495	76.4045
0.466465	73.4082
0.469328	77.5281
0.499234	75.6554
0.502141	78.2772
0.534932	79.7753
0.535022	76.779
0.561865	77.5281
0.56476	80.5243
0.594578	81.6479
0.594656	79.0262
0.621488	80.1498
0.62738	82.7715
0.654279	81.6479
0.660193	83.5206
