Adsorption isotherm of Carbon monoxide on MOF-74-Ni
DOI: 10.1016/j.cattod.2011.07.020
Adsorbate Carbon monoxide: InChIKey UGFAIRIUMAVXCW-UHFFFAOYSA-N
Temperature: 303 K
Tabular data in the source: 0
pressure (bar)	uptake (mol/mol)
0.00285714	0.0973451
0.00349206	0.20354
0.00412698	0.261062
0.00539683	0.349558
0.00761905	0.415929
0.00793651	0.473451
0.0101587	0.513274
0.0133333	0.575221
0.0203175	0.650442
0.0269841	0.70354
0.0447619	0.765487
0.0619048	0.792035
