Adsorption isotherm of Nitric oxide on MOF-74-Ni
DOI: 10.1016/j.cattod.2011.07.020
Adsorbate Nitric oxide: InChIKey MWUXSHHQAYIFBG-UHFFFAOYSA-N
Temperature: 303 K
Tabular data in the source: 0
pressure (bar)	uptake (mol/mol)
0.00222222	0.00222222
0.00253968	0.278761
0.00507937	0.951327
0.0139683	0.955752
0.0247619	0.951327
0.044127	0.960177
