Adsorption isotherm of Nitrogen on ITQ-4
DOI: 10.1021/Jp102663f
Adsorbate Nitrogen: InChIKey IJGRMHOSHXDMSA-UHFFFAOYSA-N
Temperature: 77 K
Tabular data in the source: 0
pressure (bar)	uptake (cm3(STP)/g)
0	109.756
0.00291748	132.439
0.00875243	146.341
0.0145874	150.732
0.0408447	153.659
0.0846068	156.585
0.128369	158.78
0.157544	159.512
0.180884	160.976
0.239233	160.976
0.268408	160.976
0.294665	162.439
0.32384	161.707
0.353015	161.707
0.379272	162.439
0.396777	163.171
0.425952	162.439
0.434704	162.439
0.460961	162.439
0.539733	161.707
0.577661	162.439
0.633093	162.439
0.685607	162.439
0.752709	162.439
0.770214	162.439
0.825646	162.439
0.843151	162.439
0.863573	162.439
0.889831	163.171
0.910253	163.902
0.930675	163.171
0.939428	164.634
0.965685	163.902
