Adsorption isotherm of Toluene on MIL-100(Fe)
DOI: 10.1021/Cg3014317
Adsorbate Toluene: InChIKey YXFVVABEGXRONW-UHFFFAOYSA-N
Temperature: 323 K
Tabular data in the source: 0
pressure (bar)	uptake (mmol/g)
0.000265392	0.51682
0.000499035	1.1896
0.000717211	2.18196
0.00199288	3.32569
0.00859187	4.48624
0.0354649	4.77217
0.0596823	4.92355
0.0785765	5.0581
0.0918803	5.19266
