Adsorption isotherm of Nitrogen on MIL-100(Fe)
DOI: 10.1021/Cg3014317
Adsorbate Nitrogen: InChIKey IJGRMHOSHXDMSA-UHFFFAOYSA-N
Temperature: 77 K
Tabular data in the source: 0
pressure (bar)	uptake (cm3(STP)/g)
0.00522323	220.297
0.0182813	240.347
0.0287277	252.228
0.0496206	287.871
0.0652903	304.208
0.0861832	321.287
0.107076	337.624
0.112299	355.446
0.122746	354.703
0.135804	356.931
0.154085	359.901
0.172366	362.871
0.195871	365.842
0.219375	368.069
0.245492	368.812
0.268996	370.297
0.295112	371.782
0.318617	373.267
0.344733	374.752
0.370849	375.495
0.396965	376.238
0.42047	376.98
0.446586	378.465
0.472702	378.465
0.498818	379.208
0.522323	379.95
0.548439	380.693
0.574555	380.693
0.600671	381.436
0.624175	382.178
0.650292	382.921
0.676408	382.921
0.702524	383.663
0.726028	384.406
0.752145	384.406
0.778261	385.891
0.804377	385.891
0.835716	387.376
0.861832	388.119
0.893172	390.347
0.916676	391.832
0.934957	394.802
0.942792	397.03
0.963685	406.683
