Adsorption isotherm of Toluene on MIL-100(Fe)
DOI: 10.1021/Cg3014317
Adsorbate Toluene: InChIKey YXFVVABEGXRONW-UHFFFAOYSA-N
Temperature: 323 K
Tabular data in the source: 0
pressure (bar)	uptake (mmol/g)
0.000468914	1.81193
0.000955738	2.75382
0.0025025	3.79664
0.00937258	4.85627
0.035447	5.1422
0.056737	5.27676
0.0774946	5.41131
0.0958563	5.54587
