Adsorption isotherm of Nitrogen on MIL-100(Fe)
DOI: 10.1021/Cg3014317
Adsorbate Nitrogen: InChIKey IJGRMHOSHXDMSA-UHFFFAOYSA-N
Temperature: 77 K
Tabular data in the source: 0
pressure (bar)	uptake (cm3(STP)/g)
0.00783484	202.475
0.0208929	220.297
0.0313394	230.693
0.0496206	264.851
0.0626787	278.96
0.0861832	295.297
0.104465	310.149
0.125357	326.485
0.14625	330.941
0.169755	333.911
0.185425	336.139
0.206317	336.881
0.224599	338.366
0.245492	339.851
0.263773	340.594
0.284666	341.337
0.302947	342.822
0.321228	343.564
0.360403	345.05
0.399577	346.535
0.417858	347.277
0.459644	348.762
0.493595	349.505
0.535381	350.99
0.571943	350.99
0.613729	353.218
0.652903	353.218
0.694689	354.703
0.731252	356.931
0.770426	356.931
0.8096	358.416
0.848774	359.158
0.87489	360.644
0.903618	362.129
0.937569	365.099
0.948015	368.069
0.963685	375.495
