Adsorption isotherm of Methane on PCN-14
DOI: 10.1021/Jp3062527
Adsorbate Methane: InChIKey VNWKTOKETHGBQD-UHFFFAOYSA-N
Temperature: 280 K
Tabular data in the source: 0
pressure (bar)	uptake (volume/volume)
0.312668	25.671
0.353905	27.891
0.395653	30.1171
0.442345	33.4839
0.526151	37.9607
0.588245	41.3275
0.744439	48.0549
0.832332	52.5624
0.930604	57.0699
1.06656	61.565
1.19254	67.2131
1.3334	72.8613
1.47249	77.3748
1.64643	83.023
1.84081	87.5304
1.98312	92.0563
2.13632	95.4414
2.35928	101.096
2.63808	107.884
3.02392	115.802
3.21761	120.334
3.55341	125.988
4.07331	135.046
5.0929	148.623
6.21198	162.213
7.03291	170.136
10.2045	190.484
10.8575	193.876
12.14	199.524
16.3508	215.346
18.2818	220.994
24.0209	236.828
27.8747	242.458
30.7836	248.112
41.973	261.647
