Adsorption isotherm of Carbon Dioxide on Mg-MOF-74
DOI: 10.1021/Jp3062527
Adsorbate Carbon Dioxide: InChIKey CURLTUGMZLYLDI-UHFFFAOYSA-N
Temperature: 278 K
Tabular data in the source: 0
pressure (bar)	uptake (mol/mol)
0.01	0.539577
0.0144208	0.590934
0.0198262	0.642332
0.0299889	0.687909
0.0399374	0.722112
0.0499068	0.744888
0.0604102	0.750469
0.069714	0.767571
0.0804507	0.784672
0.102145	0.801694
0.142685	0.830118
0.199315	0.870021
0.301483	0.927079
0.407943	0.967009
0.50172	1.00128
0.607309	1.04704
0.700845	1.07562
1.01067	1.17864
1.41179	1.26447
1.97211	1.38473
2.98301	1.49919
3.9099	1.57359
4.96424	1.62505
6.93448	1.6994
10	1.7565
