Adsorption isotherm of Methane on PCN-14
DOI: 10.1021/Jp3062527
Adsorbate Methane: InChIKey VNWKTOKETHGBQD-UHFFFAOYSA-N
Temperature: 280 K
Tabular data in the source: 0
pressure (bar)	uptake (volume/volume)
0.297619	30.2582
0.390895	36.9672
0.494688	43.6947
0.595797	50.4467
0.699989	56.0702
0.832646	61.6877
0.990584	70.7271
1.23848	83.164
1.58715	94.448
2.00905	106.879
2.42035	120.475
3.02591	131.771
3.55592	143.098
4.07619	152.156
5.03356	164.599
5.98889	175.919
7.21396	186.093
8.58312	197.414
10.2113	206.454
12.4537	217.762
15.3773	227.924
20.9677	242.599
24.3349	251.651
31.1846	261.794
35.7421	267.43
41.4782	274.2
