Adsorption isotherm of Methane on PCN-14
DOI: 10.1021/Jp3062527
Adsorbate Methane: InChIKey VNWKTOKETHGBQD-UHFFFAOYSA-N
Temperature: 280 K
Tabular data in the source: 0
pressure (bar)	uptake (volume/volume)
0.318181	9.37205
0.392268	12.5806
0.69115	21.1328
1	28.6765
1.36047	39.5584
2.0175	52.605
2.58086	67.9282
3.02889	75.5721
3.97128	93.0894
5.01805	110.624
5.88916	124.886
6.99713	139.142
8.52081	154.488
10	166.544
12.3285	181.885
14.8293	196.135
17.4036	204.882
20.1748	213.634
23.9707	224.581
30.2887	237.704
34.6825	244.257
40.205	251.907
