Adsorption isotherm of Carbon Dioxide on Mg-MOF-74
DOI: 10.1021/Jp3062527
Adsorbate Carbon Dioxide: InChIKey CURLTUGMZLYLDI-UHFFFAOYSA-N
Temperature: 298 K
Tabular data in the source: 0
pressure (bar)	uptake (mol/mol)
0.01	0.0459215
0.0198262	0.0797938
0.0299889	0.119631
0.0399374	0.142354
0.0499068	0.17661
0.0604102	0.205152
0.069714	0.233734
0.081741	0.256562
0.102145	0.285078
0.199315	0.433767
0.301483	0.525266
0.401501	0.57669
0.50172	0.610946
0.617054	0.639475
0.700845	0.66807
1.01067	0.730908
2.00375	0.839402
2.98301	0.913694
5.04388	1.0051
7.04573	1.09667
10	1.17674
