Adsorption isotherm of Methane on PCN-14
DOI: 10.1021/Jp3062527
Adsorbate Methane: InChIKey VNWKTOKETHGBQD-UHFFFAOYSA-N
Temperature: 240 K
Tabular data in the source: 0
pressure (bar)	uptake (volume/volume)
0.302889	25.9398
0.322122	29.2191
0.359874	31.3719
0.40703	34.6217
0.45473	38.9804
0.489598	41.1509
0.520689	42.2244
0.581709	47.686
0.699713	55.3181
1	73.8971
1.15923	88.1645
1.27924	93.632
1.46479	106.802
1.61643	112.27
1.76193	119.949
1.99281	129.817
2.11935	134.199
2.31013	141.878
2.51808	149.558
2.74475	157.237
2.99182	164.916
3.22122	170.396
3.5112	178.075
4.27579	193.422
4.66068	199.998
5.01805	205.477
5.40281	210.957
5.96212	217.527
6.57934	224.098
7.08381	228.474
7.53364	232.856
8.31354	238.324
9.28782	244.888
10.124	249.259
10.9001	253.635
12.1776	259.097
13.4382	264.564
15.0131	270.026
16.3644	274.396
18.2823	279.858
20.1748	282.017
21.722	285.29
23.9707	290.758
26.78	295.116
30.2887	300.572
