Adsorption isotherm of Methane on PCN-14
DOI: 10.1021/Jp3062527
Adsorbate Methane: InChIKey VNWKTOKETHGBQD-UHFFFAOYSA-N
Temperature: 270 K
Tabular data in the source: 0
pressure (bar)	uptake (volume/volume)
0.314287	13.7897
0.432876	18.0481
0.546976	21.2449
0.649881	23.3682
0.744146	27.7151
0.841654	30.9649
1.37733	49.479
1.53874	53.8377
1.96842	66.955
2.19911	72.4166
2.39706	77.8901
2.64521	83.3576
2.99182	92.1221
3.34244	100.893
3.97128	111.839
4.22346	117.325
4.60365	123.901
5.27139	134.866
5.7459	142.545
7.08381	160.092
7.44146	163.377
8.11131	169.953
8.95101	177.627
10.6351	190.779
11.736	197.35
13.4382	206.108
15.1992	214.873
15.9665	218.158
17.6194	223.626
19.9283	231.287
23.9707	241.125
26.78	246.587
40.205	267.348
