Adsorption isotherm of Methane on CuBTC
DOI: 10.1021/Jp3062527
Adsorbate Methane: InChIKey VNWKTOKETHGBQD-UHFFFAOYSA-N
Temperature: 77 K
Tabular data in the source: 0
pressure (bar)	uptake (molecules/unitcell)
1.14183e-11	0.716846
5.37527e-11	2.86738
1.10367e-10	3.58423
2.98724e-10	5.73477
7.23819e-10	7.8853
1.06571e-09	10.0358
4.00802e-09	23.6559
9.17931e-09	29.3907
2.77536e-08	31.5412
6.0213e-08	32.9749
1.04626e-07	36.5591
1.35759e-07	95.3405
1.58668e-07	131.9
1.95533e-07	177.061
4.01208e-07	179.928
9.72143e-07	182.079
9.38901e-06	187.814
0.000101375	190.681
0.000927449	192.115
0.00947654	194.265
