Adsorption isotherm of Methane on PCN-14
DOI: 10.1021/Jp3062527
Adsorbate Methane: InChIKey VNWKTOKETHGBQD-UHFFFAOYSA-N
Temperature: 290 K
Tabular data in the source: 0
pressure (bar)	uptake (volume/volume)
0.314287	8.27501
0.35112	9.32487
0.397128	10.3688
0.443669	11.4187
0.546976	13.5243
0.618649	15.6712
0.744146	17.7886
0.841654	19.9355
1.0635	25.3382
1.20286	28.588
1.34382	31.8437
1.50131	35.0995
1.69804	38.3493
2.48726	53.6077
2.77875	57.9663
2.95521	62.3486
3.26114	66.7132
4.02048	78.7453
4.27579	83.1276
4.71842	89.698
5.01805	92.9774
5.3367	98.4626
5.81709	105.039
6.41929	112.712
7.44146	124.774
8.21181	132.447
8.95101	139.024
10.124	148.891
10.7669	153.273
11.8815	159.844
12.9509	167.523
14.2916	174.094
15.0131	179.585
16.1644	182.858
17.8377	189.429
21.4561	202.575
23.6772	208.043
26.4521	214.608
32.2122	226.646
35.9874	232.107
40.205	239.775
