Adsorption isotherm of Methane on CuBTC
DOI: 10.1021/Jp3062527
Adsorbate Methane: InChIKey VNWKTOKETHGBQD-UHFFFAOYSA-N
Temperature: 77 K
Tabular data in the source: 0
pressure (bar)	uptake (molecules/unitcell)
2.75087e-07	7.16846
3.13278e-07	10.0358
3.80733e-07	14.3369
4.90298e-07	30.8244
5.79749e-07	76.7025
7.47636e-07	91.0394
9.67787e-07	99.6416
1.25872e-06	101.075
1.62783e-06	111.111
1.9746e-06	118.28
2.39635e-06	124.731
2.90135e-06	134.767
3.75042e-06	145.52
4.54716e-06	153.405
5.52879e-06	156.989
7.67379e-06	159.857
1.13608e-05	164.875
1.79659e-05	169.892
3.03907e-05	172.76
6.25965e-05	177.061
0.000128991	180.645
0.000283655	185.663
