Adsorption isotherm of Methane on CuBTC
DOI: 10.1021/Jp3062527
Adsorbate Methane: InChIKey VNWKTOKETHGBQD-UHFFFAOYSA-N
Temperature: 77 K
Tabular data in the source: 0
pressure (bar)	uptake (molecules/unitcell)
1.21815e-12	0.716846
1.07349e-11	0.716846
1.07895e-10	1.43369
5.24989e-10	2.15054
1.15776e-09	2.86738
3.11179e-09	3.58423
7.8188e-09	6.45161
1.08728e-08	6.45161
4.33461e-08	9.319
1.0876e-07	14.3369
1.3205e-07	20.0717
1.48898e-07	37.9928
1.75979e-07	84.5878
1.88599e-07	79.5699
2.14378e-07	85.3047
3.17527e-07	89.6057
4.69872e-07	95.3405
5.31325e-07	108.961
6.68544e-07	160.573
9.23975e-07	169.892
1.90581e-06	172.043
2.82683e-06	174.194
3.92726e-06	175.627
9.23379e-06	179.211
9.23655e-05	187.097
0.000866603	192.115
0.00869321	195.699
0.0817165	197.849
0.876437	200
