Adsorption isotherm of Carbon Dioxide on Mg-MOF-74
DOI: 10.1021/Jp3062527
Adsorbate Carbon Dioxide: InChIKey CURLTUGMZLYLDI-UHFFFAOYSA-N
Temperature: 278 K
Tabular data in the source: 0
pressure (bar)	uptake (mol/mol)
0.01	0.62568
0.0135313	0.67709
0.0198262	0.745655
0.0295155	0.796986
0.0499068	0.842471
0.069714	0.876634
0.100532	0.905031
0.136032	0.950701
0.199315	1.01353
0.301483	1.09928
0.50172	1.22515
0.689779	1.32246
0.994709	1.44844
1.30379	1.49988
1.73632	1.56852
2.27585	1.63144
3.03087	1.69435
3.97263	1.71708
4.96424	1.73986
7.04573	1.80271
8.52857	1.80255
10.1604	1.80814
