Adsorption isotherm of Carbon Dioxide on Mg-MOF-74
DOI: 10.1021/Jp3062527
Adsorbate Carbon Dioxide: InChIKey CURLTUGMZLYLDI-UHFFFAOYSA-N
Temperature: 298 K
Tabular data in the source: 0
pressure (bar)	uptake (mmol/g)
0.01	0.0926743
0.0108713	0.123566
0.0120679	0.154457
0.0133962	0.154457
0.014871	0.185349
0.0163362	0.185349
0.0181343	0.21624
0.0199214	0.21624
0.0214324	0.247131
0.0237914	0.308915
0.0261355	0.339806
0.0299357	0.370697
0.0322062	0.370697
0.0357511	0.432479
0.0401024	0.46337
0.043144	0.525155
0.0494174	0.617828
0.053723	0.617828
0.0584037	0.741394
0.0648321	0.834068
0.0712213	0.926743
0.0790606	0.988525
0.086852	1.11209
0.107023	1.23566
0.115139	1.4519
0.126486	1.57546
0.137506	1.72992
0.154244	1.94616
0.167683	2.13151
0.182293	2.34774
0.196118	2.53309
0.210991	2.74934
0.229374	2.93468
0.246769	3.15093
0.265483	3.33628
0.282649	3.55251
0.307276	3.76875
0.334049	4.01588
0.355648	4.26301
0.378644	4.51014
0.407359	4.75729
0.433699	4.97352
0.461742	5.22065
0.507242	5.56046
0.54004	5.86937
0.568987	6.1165
0.605777	6.39453
0.638247	6.64166
0.7085	7.10503
0.811516	7.66107
0.92951	8.21711
1	8.58783
