Adsorption isotherm of Carbon Dioxide on Mg-MOF-74
DOI: 10.1021/Jp3062527
Adsorbate Carbon Dioxide: InChIKey CURLTUGMZLYLDI-UHFFFAOYSA-N
Temperature: 298 K
Tabular data in the source: 0
pressure (bar)	uptake (mol/mol)
0.01	0.252568
0.0201442	0.458633
0.0299889	0.578846
0.0499068	0.693226
0.069714	0.74461
0.100532	0.801708
0.199315	0.875761
0.301483	0.927079
0.493796	1.01277
0.689779	1.0699
0.979002	1.16719
1.34596	1.25303
2.13547	1.39041
3.03087	1.4877
4.96424	1.59061
6.93448	1.63626
9.8421	1.68763
