Adsorption isotherm of Carbon Dioxide on Mg-MOF-74
DOI: 10.1021/Jp3062527
Adsorbate Carbon Dioxide: InChIKey CURLTUGMZLYLDI-UHFFFAOYSA-N
Temperature: 298 K
Tabular data in the source: 0
pressure (bar)	uptake (mmol/g)
0.00939269	93.8066
0.0125826	112.84
0.0168562	137.311
0.0201303	148.187
0.0245482	167.221
0.0318713	183.535
0.0396862	201.208
0.0531643	218.882
0.0621799	225.68
0.0719681	233.837
0.0832971	240.634
0.0964118	248.792
0.113943	256.949
0.133265	263.746
0.155863	269.184
0.184207	277.341
0.215443	278.701
0.244205	286.858
0.317055	295.015
0.348297	299.094
0.424735	309.97
0.501973	316.767
0.545709	320.846
0.580994	324.924
0.658558	331.722
0.746476	337.16
0.828643	343.958
0.919854	348.036
0.989612	354.834
