Adsorption isotherm of Methane on CuBTC
DOI: 10.1021/Jp3062527
Adsorbate Methane: InChIKey VNWKTOKETHGBQD-UHFFFAOYSA-N
Temperature: 77 K
Tabular data in the source: 0
pressure (bar)	uptake (molecules/unitcell)
1.31826e-12	1.43369
1.02212e-11	0.716846
5.08862e-11	1.43369
9.88325e-11	2.15054
2.98841e-10	4.30108
1.00853e-09	9.319
4.00876e-09	22.9391
1.02518e-08	30.1075
1.42873e-08	30.8244
2.10484e-08	30.8244
2.93332e-08	31.5412
4.08874e-08	31.5412
6.364e-08	32.9749
1.04732e-07	32.9749
2.02801e-07	45.1613
2.48433e-07	111.828
2.59777e-07	150.538
3.04397e-07	177.778
4.01051e-07	181.362
9.71561e-07	184.229
1.04838e-05	189.247
0.000101293	193.548
0.000979648	194.265
0.00947087	196.416
