Adsorption isotherm of Carbon Dioxide on Mg-MOF-74
DOI: 10.1021/Jp3062527
Adsorbate Carbon Dioxide: InChIKey CURLTUGMZLYLDI-UHFFFAOYSA-N
Temperature: 298 K
Tabular data in the source: 0
pressure (bar)	uptake (mmol/g)
0.0101051	2.06973
0.012452	2.56399
0.0144122	2.96559
0.0199214	3.73787
0.0264101	4.41748
0.0299357	4.75729
0.0380627	5.18977
0.0499356	5.71493
0.0704807	6.1474
0.100524	6.57987
0.144877	6.91969
0.202359	7.1977
0.246769	7.44485
0.300925	7.66107
0.394795	8.00089
0.501973	8.34068
0.587093	8.58783
0.7085	8.83496
0.846131	9.26743
1.0105	9.63812
