Adsorption isotherm of Methane on PCN-14
DOI: 10.1021/Jp3062527
Adsorbate Methane: InChIKey VNWKTOKETHGBQD-UHFFFAOYSA-N
Temperature: 270 K
Tabular data in the source: 0
pressure (bar)	uptake (volume/volume)
0.301439	39.3773
0.367555	44.9825
0.426479	48.3309
0.501063	53.9545
0.526547	56.2113
0.588715	60.7187
0.735938	69.7336
0.822867	75.3818
0.991143	84.4151
1.16458	92.32
1.31849	100.243
1.47436	108.173
1.64852	113.821
1.82065	120.616
2.13935	129.661
2.36272	136.456
2.60943	143.251
3.22231	155.694
3.55876	162.489
4.28694	173.804
5.35974	186.241
5.91939	193.035
6.61858	198.684
7.5866	206.601
8.37875	213.396
9.368	217.903
10.8725	226.955
12.1565	232.603
13.5919	237.11
16.3723	247.284
18.3054	251.792
22.0485	260.825
24.6519	265.332
27.5639	270.981
33.6124	278.867
37.5811	283.375
42.0184	287.882
