Adsorption isotherm of Methane on CuBTC
DOI: 10.1021/Jp3062527
Adsorbate Methane: InChIKey VNWKTOKETHGBQD-UHFFFAOYSA-N
Temperature: 77 K
Tabular data in the source: 0
pressure (bar)	uptake (molecules/unitcell)
3.2923e-11	1.43369
6.79986e-11	1.43369
1.1525e-10	1.43369
2.89861e-10	2.86738
6.8281e-10	3.58423
1.08233e-09	5.01792
2.9077e-09	6.45161
6.84952e-09	7.16846
1.01693e-08	7.8853
3.1186e-08	8.60215
1.02059e-07	10.7527
2.10213e-07	15.0538
2.31601e-07	68.1004
2.5391e-07	28.6738
2.61397e-07	84.5878
3.86812e-07	90.3226
5.72387e-07	96.0573
7.12771e-07	163.441
7.41293e-07	103.943
1.57188e-06	164.158
2.33378e-06	164.875
4.21891e-06	167.025
7.14003e-06	169.176
2.66483e-05	172.043
6.26845e-05	174.91
9.92225e-05	178.495
0.000304145	179.928
0.000587571	181.362
0.000931816	182.079
0.00138213	184.229
0.00932975	188.53
0.0935901	192.115
0.425919	194.265
0.879758	194.265
