Adsorption isotherm of Carbon Dioxide on Mg-MOF-74
DOI: 10.1021/Jp3062527
Adsorbate Carbon Dioxide: InChIKey CURLTUGMZLYLDI-UHFFFAOYSA-N
Temperature: 298 K
Tabular data in the source: 0
pressure (bar)	uptake (mmol/g)
0.00939269	2.34774
0.017033	3.49072
0.0248062	4.17035
0.0396862	5.09708
0.0526126	5.49868
0.0719681	5.90027
0.0841725	6.08562
0.0974227	6.27096
0.11276	6.45631
0.134664	6.67256
0.155863	6.827
0.186141	6.95057
0.210991	7.04325
0.241668	7.2286
0.276807	7.35216
0.310501	7.41394
0.348297	7.59929
0.382619	7.69198
0.424735	7.78464
0.461742	7.87732
0.501973	8.03177
0.580994	8.24801
0.658558	8.34068
0.786488	8.61871
0.863988	8.74227
0.891484	8.86584
0.989612	8.95852
