Adsorption isotherm of Methane on PCN-14
DOI: 10.1021/Jp3062527
Adsorbate Methane: InChIKey VNWKTOKETHGBQD-UHFFFAOYSA-N
Temperature: 240 K
Tabular data in the source: 0
pressure (bar)	uptake (volume/volume)
0.298166	74.744
0.317249	78.1353
0.354723	83.7834
0.391743	89.4376
0.438015	95.0858
0.495877	101.868
0.534211	106.394
0.589992	113.189
0.693266	122.235
0.746896	127.901
0.824883	134.696
0.911014	141.491
1.00604	146.005
1.07053	151.677
1.18226	157.332
1.32197	164.12
1.46	170.915
1.61237	176.569
1.78073	183.364
2.01596	190.147
2.17181	194.673
2.39847	200.327
2.6819	207.116
2.99883	213.905
3.27075	217.284
3.61226	224.079
3.98925	229.733
5.11259	242.157
5.50782	246.683
6.08264	252.338
7.05911	260.249
7.69919	263.628
8.60861	269.276
10.2409	277.175
11.1697	280.554
12.4885	285.061
13.9627	289.568
15.8067	295.21
16.8182	298.602
18.804	303.109
20.7654	307.623
22.3676	308.727
24.7007	313.24
27.9595	316.601
30.8731	318.833
