Adsorption isotherm of Carbon Dioxide on Mg-MOF-74
DOI: 10.1021/Jp3062527
Adsorbate Carbon Dioxide: InChIKey CURLTUGMZLYLDI-UHFFFAOYSA-N
Temperature: 298 K
Tabular data in the source: 0
pressure (bar)	uptake (mol/mol)
0.01	0.292749
0.0201442	0.441412
0.0299889	0.521444
0.0399374	0.561387
0.0507072	0.60137
0.0594552	0.618458
0.0686136	0.6413
0.0804507	0.669869
0.0989441	0.692657
0.199315	0.772438
0.301483	0.812275
0.401501	0.846478
0.493796	0.869267
0.59772	0.897809
0.689779	0.920651
0.994709	0.989229
2.00375	1.14937
3.03087	1.26383
4.96424	1.39545
7.04573	1.49274
9.8421	1.57856
