Adsorption isotherm of Carbon Dioxide on Mg-MOF-74
DOI: 10.1021/Jp3062527
Adsorbate Carbon Dioxide: InChIKey CURLTUGMZLYLDI-UHFFFAOYSA-N
Temperature: 298 K
Tabular data in the source: 0
pressure (bar)	uptake (mol/mol)
0.01	0.0287879
0.011358	0.0345455
0.0144208	0.0460606
0.0201442	0.0575758
0.0299889	0.0863636
0.0368825	0.109394
0.0507072	0.155455
0.0708321	0.21303
0.100532	0.293636
0.13177	0.374242
0.199315	0.495152
0.301483	0.610303
0.50172	0.725455
0.700845	0.78303
1.01067	0.846364
1.3895	0.903939
2.0359	0.967273
3.03087	1.04212
3.9099	1.10545
5.04388	1.15727
6.93448	1.24364
10	1.31273
