Adsorption isotherm of Carbon Dioxide on Cu(int)2DMF
DOI: 10.1016/j.inoche.2011.12.041
Adsorbate Carbon Dioxide: InChIKey CURLTUGMZLYLDI-UHFFFAOYSA-N
Temperature: 273 K
Tabular data in the source: 0
pressure (bar)	uptake (cm3(STP)/g)
0.00953901	0.451613
0.025445	1.16129
0.038179	1.67742
0.0573375	2.12903
0.0668995	2.45161
0.092402	3.29032
0.108377	3.6129
0.130684	4.3871
0.162646	4.96774
0.184965	5.67742
0.213708	6.32258
0.239257	6.90323
0.264794	7.54839
0.319132	8.51613
0.373481	9.41935
0.424601	10.4516
0.47895	11.3548
0.533323	12.129
0.60051	12.9677
0.664536	13.5484
0.731746	14.2581
0.798944	15.0323
0.866154	15.7419
0.933341	16.5806
1.01658	17.2903
