Adsorption isotherm of Methane on Al-PMO2
DOI: 10.1039/c5ta05964j
Article source: Figure 5
Adsorbate Methane: InChIKey VNWKTOKETHGBQD-UHFFFAOYSA-N
Kind: experiment
Temperature: 298 K
Tabular data in the source: 0
pressure (bar)	uptake (mmol/g)
0	0
0.183486	0.024776
0.366972	0.044057
0.703364	0.071622
1.65138	0.165289
3.3945	0.292141
5.50459	0.405358
6.69725	0.488104
7.61468	0.537806
