Adsorption isotherm of Carbon Dioxide on Al-PMO2
DOI: 10.1039/c5ta05964j
Article source: Figure 5
Adsorbate Carbon Dioxide: InChIKey CURLTUGMZLYLDI-UHFFFAOYSA-N
Kind: experiment
Temperature: 298 K
Tabular data in the source: 0
pressure (bar)	uptake (mmol/g)
0	0
0.000102	-0.010239
0.266029	0.1843
0.473042	0.317406
1.1854	0.511945
1.51095	0.696246
2.78716	1.05461
4.92493	1.56655
6.97434	1.98635
8.25106	2.29352
8.93406	2.4471
