Adsorption isotherm of Methane on Al-PMO50
DOI: 10.1039/c5ta05964j
Article source: Figure 5
Adsorbate Methane: InChIKey VNWKTOKETHGBQD-UHFFFAOYSA-N
Kind: experiment
Temperature: 298 K
Tabular data in the source: 0
pressure (bar)	uptake (mmol/g)
0	0
0.550459	0.030371
1.40673	0.060826
3.30275	0.102556
5.41284	0.127861
6.72783	0.147453
