Adsorption isotherm of Methane on PMO
DOI: 10.1039/c5ta05964j
Article source: Figure 5
Adsorbate Methane: InChIKey VNWKTOKETHGBQD-UHFFFAOYSA-N
Kind: experiment
Temperature: 298 K
Tabular data in the source: 0
pressure (bar)	uptake (mmol/g)
0	0
0.400729	0.051913
1.10827	0.120219
2.52335	0.256831
4.45882	0.401639
6.14796	0.519126
7.16215	0.601093
7.77644	0.644809
