Adsorption isotherm of Carbon Dioxide on Al-PMO50
DOI: 10.1039/c5ta05964j
Article source: Figure 5
Adsorbate Carbon Dioxide: InChIKey CURLTUGMZLYLDI-UHFFFAOYSA-N
Kind: experiment
Temperature: 298 K
Tabular data in the source: 0
pressure (bar)	uptake (mmol/g)
0	-0.010239
0	0
0.029762	0.081881
0.208333	0.143131
0.47619	0.265724
0.863095	0.42915
1.60714	0.612689
3.5119	0.9691
5.89286	1.27383
7.55952	1.44618
8.60119	1.55775
