Adsorption isotherm of Carbon Dioxide on PMO
DOI: 10.1039/c5ta05964j
Article source: Figure 5
Adsorbate Carbon Dioxide: InChIKey CURLTUGMZLYLDI-UHFFFAOYSA-N
Kind: experiment
Temperature: 298 K
Tabular data in the source: 0
pressure (bar)	uptake (mmol/g)
0	0
0.590338	0.316802
1.35852	0.653899
2.54132	1.07248
4.73111	1.68458
6.80322	2.1944
8.07616	2.50026
9.02339	2.73479
