Adsorption isotherm of Carbon Dioxide on Zn@AB-COF
DOI: 10.1021/acs.chemmater.5b02151
Article source: Figure 6D
Adsorbate Carbon Dioxide: InChIKey CURLTUGMZLYLDI-UHFFFAOYSA-N
Kind: experiment
Temperature: 308 K
Tabular data in the source: 0
pressure (bar)	uptake (cm3(STP)/g)
0.502793	0.652742
1.06145	1.3577
2.12291	2.7154
5.02793	4.98695
10.0559	6.44909
15.0838	7.07572
20.1676	7.44125
30	7.88512
