Adsorption isotherm of Carbon Dioxide on Zn@AB-COF
DOI: 10.1021/acs.chemmater.5b02151
Article source: Figure S38
Adsorbate Carbon Dioxide: InChIKey CURLTUGMZLYLDI-UHFFFAOYSA-N
Kind: experiment
Temperature: 273 K
Tabular data in the source: 0
pressure (bar)	uptake (cm3(STP)/g)
0.309938	0.658683
0.619875	2.30539
1.08478	3.9521
1.39472	4.61078
1.54969	5.26946
1.70466	6.58683
2.09208	7.90419
2.4795	9.5509
2.86692	11.1976
3.4868	13.1737
4.02919	15.8084
4.88152	17.7844
5.88881	21.4072
6.97359	24.7006
8.21334	29.9701
9.53058	34.5808
11.6227	40.509
13.7147	47.7545
16.3492	55.988
19.5261	66.1976
23.3228	77.0659
27.7394	90.2395
33.2408	105.389
32.7759	105.06
31.1487	101.108
29.4441	95.509
27.6619	90.8982
25.9573	86.9461
24.1751	81.3473
22.548	77.7245
20.6883	72.7844
19.0612	67.1856
17.279	62.5748
15.4969	56.976
14.0247	51.0479
12.2425	45.4491
10.6154	40.8383
8.60077	34.2515
7.12856	27.994
5.19145	22.7246
3.56428	16.7964
1.85962	9.22156
0.309938	2.63473
