Adsorption isotherm of Carbon Dioxide on ATFG-COF
DOI: 10.1021/acs.chemmater.5b02151
Article source: Figure 6A
Adsorbate Carbon Dioxide: InChIKey CURLTUGMZLYLDI-UHFFFAOYSA-N
Kind: experiment
Temperature: 308 K
Tabular data in the source: 0
pressure (bar)	uptake (cm3(STP)/g)
0.447761	0.703125
0.895522	1.06771
2.01493	1.43229
4.92537	2.05729
9.90672	2.39583
15.056	2.63021
20.0933	2.83854
30.1119	3.15104
