Adsorption isotherm of Carbon Dioxide on AB-COF
DOI: 10.1021/acs.chemmater.5b02151
Article source: Figure 4A
Adsorbate Carbon Dioxide: InChIKey CURLTUGMZLYLDI-UHFFFAOYSA-N
Kind: experiment
Temperature: 298 K
Tabular data in the source: 0
pressure (bar)	uptake (cm3(STP)/g)
0.841828	32.5882
0.704745	28.3529
0.594025	24.3529
0.495606	21.0588
0.418278	18.2353
0.349736	15.1765
0.295255	13.2941
0.247803	11.2941
0.209139	9.52941
0.173989	8.11765
0.147627	6.82353
0.123023	5.76471
0.103691	5.05882
0.087873	4
0.073814	3.29412
0.063269	2.94118
0.057996	2.58823
0.049209	2.47059
0.043937	2.23529
0.035149	1.41176
0.02812	1.05882
0.019332	0.470588
0.996485	37.8824
0.943761	36.4706
0.889279	34.8235
0.84007	33.2941
0.790861	31.5294
0.734622	29.5294
0.685413	28.1176
0.634446	26.2353
0.579965	24.5882
0.525483	22.5882
0.476274	20.5882
0.42355	18.1176
0.374341	15.7647
0.319859	14
0.295255	13.4118
0.267135	11.8824
0.214411	10.2353
0.161687	8.11765
0.110721	5.64706
0.057996	3.17647
0.008787	0.352941
