Adsorption isotherm of Hydrogen on ATFG-COF
DOI: 10.1021/acs.chemmater.5b02151
Article source: Figure 6A
Adsorbate Hydrogen: InChIKey UFHFLCQGNIYNRP-UHFFFAOYSA-N
Kind: experiment
Temperature: 308 K
Tabular data in the source: 0
pressure (bar)	uptake (cm3(STP)/g)
1.06343	0.234375
2.0709	0.807292
5.03731	1.77083
9.85075	3.35938
15	3.77604
20.0933	3.82812
30.056	3.90625
