Adsorption isotherm of Water on ATFG-COF
DOI: 10.1021/acs.chemmater.5b02151
Article source: Figure 3D
Adsorbate Water: InChIKey XLYOFNOQVPJJNP-UHFFFAOYSA-N
Kind: experiment
Temperature: 298 K
Tabular data in the source: 0
pressure (bar)	uptake (cm3(STP)/g)
0.00041	2.76382
0.000644	5.52764
0.001053	13.8191
0.001287	12.4372
0.001346	19.3467
0.001872	22.1106
0.002223	23.4925
0.002399	24.8744
0.002867	31.7839
0.002925	30.402
0.003335	35.9296
0.003452	44.2211
0.003744	48.3668
0.00392	53.8945
0.004212	59.4221
0.004505	70.4774
0.004856	76.005
0.005148	84.2965
0.005499	95.3518
0.005733	106.407
0.00626	118.844
0.006553	125.754
0.00667	136.809
0.006904	139.573
0.007021	143.719
0.007372	150.628
0.00743	149.246
0.007898	154.774
0.008308	157.538
0.008659	157.538
0.008951	160.302
0.009595	164.447
0.010648	169.975
0.011291	176.884
0.012637	183.794
0.013924	189.322
0.015211	193.467
0.01644	197.613
0.017785	208.668
0.018838	214.196
0.020184	223.869
0.0227	239.07
0.023928	250.126
0.025157	257.035
0.026444	269.472
0.027965	291.583
0.028843	319.221
0.029603	341.332
0.030305	378.643
