Adsorption isotherm of Hydrogen on Zn@AB-COF
DOI: 10.1021/acs.chemmater.5b02151
Article source: Figure 6D
Adsorbate Hydrogen: InChIKey UFHFLCQGNIYNRP-UHFFFAOYSA-N
Kind: experiment
Temperature: 308 K
Tabular data in the source: 0
pressure (bar)	uptake (cm3(STP)/g)
1.17318	0.208877
2.06704	0.861619
5.0838	1.85379
10.0559	3.36815
15.0838	3.81201
20.1117	3.99478
30.1676	4.22976
