Adsorption isotherm of Carbon Dioxide on Li@AB-COF
DOI: 10.1021/acs.chemmater.5b02151
Article source: Figure S38
Adsorbate Carbon Dioxide: InChIKey CURLTUGMZLYLDI-UHFFFAOYSA-N
Kind: experiment
Temperature: 273 K
Tabular data in the source: 0
pressure (bar)	uptake (cm3(STP)/g)
1.12219	66.1337
3.74062	101.744
6.88275	133.285
9.20194	145.494
11.2219	151.599
13.2418	162.791
14.8129	169.913
16.4587	171.948
18.5535	180.087
20.2742	183.14
21.9949	189.244
23.7904	192.297
25.5859	201.453
27.4562	205.523
28.5784	211.628
28.9524	212.645
34.3273	93.9104
32.3988	90.6269
30.7789	87.0149
28.9275	82.4179
27.3847	78.806
25.4562	74.8657
23.8363	70.9254
21.9078	66
20.0564	61.0746
18.1279	56.1493
16.4308	51.5522
14.6566	46.6269
12.8052	41.3731
11.1082	37.1045
9.33394	31.194
7.40544	26.2687
5.70836	20.3582
3.77986	15.4328
2.08278	9.52239
0.3857	2.29851
