Adsorption isotherm of Water on Li@ATFG-COF
DOI: 10.1021/acs.chemmater.5b02151
Article source: Figure S31
Adsorbate Water: InChIKey XLYOFNOQVPJJNP-UHFFFAOYSA-N
Kind: experiment
Temperature: 288 K
Tabular data in the source: 0
pressure (bar)	uptake (cm3(STP)/g)
7.3e-05	14.1618
0.000257	21.2428
0.000403	26.3006
0.000513	31.3584
0.000586	37.4277
0.000806	43.4971
0.001026	52.6012
0.001319	62.7168
0.001539	75.8671
0.001832	89.0173
0.002125	99.1329
0.002382	110.26
0.002492	116.329
0.002748	122.399
0.002932	128.468
0.003042	129.48
0.003298	132.514
0.003445	133.526
0.003555	140.607
0.003848	140.607
0.003958	141.618
0.004178	145.665
0.004251	146.676
0.004508	149.711
0.004691	149.711
0.004874	152.746
0.004984	152.746
0.00568	159.827
0.00689	170.954
0.008209	185.116
0.009198	194.22
0.009821	198.266
0.010884	210.405
0.011837	218.497
0.014255	259.971
0.000147	59.6821
0.000366	70.8092
0.001649	123.41
0.002492	144.653
0.003262	155.78
0.004178	166.908
0.004471	168.931
0.00535	180.058
0.006303	192.197
0.007146	201.301
0.008062	209.393
0.008942	215.462
0.009785	220.52
0.010737	230.636
0.011544	236.705
0.01246	245.809
0.013449	259.971
0.014292	276.156
0.015062	294.364
0.015172	296.387
