Adsorption isotherm of Hydrogen on AB-COF
DOI: 10.1021/acs.chemmater.5b02151
Article source: Figure 6B
Adsorbate Hydrogen: InChIKey UFHFLCQGNIYNRP-UHFFFAOYSA-N
Kind: experiment
Temperature: 308 K
Tabular data in the source: 0
pressure (bar)	uptake (cm3(STP)/g)
0.953271	0.182292
2.01869	0.703125
4.99065	1.74479
10.0374	3.20312
15.0841	3.64583
19.9626	3.72396
30.0561	3.88021
