Adsorption isotherm of Water on Zn@AB-COF
DOI: 10.1021/acs.chemmater.5b02151
Article source: Figure S31
Adsorbate Water: InChIKey XLYOFNOQVPJJNP-UHFFFAOYSA-N
Kind: experiment
Temperature: 288 K
Tabular data in the source: 0
pressure (bar)	uptake (cm3(STP)/g)
0.000436	6.35838
0.000727	6.35838
0.000618	9.53757
0.000872	7.94798
0.001126	6.35838
0.001417	7.94798
0.001708	12.7168
0.001926	11.1272
0.002398	12.7168
0.002906	17.4855
0.003379	27.0231
0.004069	271.821
0.004832	349.711
0.005777	373.555
0.006976	397.399
0.008247	418.064
0.009882	445.087
0.01188	465.751
0.000509	14.3064
0.001635	22.2543
0.003451	68.3526
0.004614	384.682
0.005413	405.347
0.006394	422.832
0.007303	435.549
0.008029	443.497
0.00901	454.624
0.009809	462.572
0.010718	468.931
0.011626	476.879
0.012316	481.647
0.013007	484.827
0.013697	489.595
0.014205	488.006
