Adsorption isotherm of Argon on ATFG-COF
DOI: 10.1021/acs.chemmater.5b02151
Article source: Figure S25C
Adsorbate Argon: InChIKey XKRFYHLGVUSROY-UHFFFAOYSA-N
Kind: experiment
Temperature: 87 K
Tabular data in the source: 0
pressure (bar)	uptake (cm3(STP)/g)
0	1.23077
0.004616	9.84615
0	13.5385
0.004616	18.4615
0.002308	24.6154
0.004616	33.2308
0.006924	44.3077
0	49.2308
0	50.4615
0.006924	64
0.004616	67.6923
0.006924	72.6154
0.013849	76.3077
0.030005	86.1538
0.053086	89.8462
0.076167	93.5385
0.106172	100.923
0.131561	104.615
0.15695	105.846
0.180031	109.538
0.20542	112
0.230809	115.692
0.260814	121.846
0.283895	120.615
0.309284	121.846
0.334673	126.769
0.360062	129.231
0.387759	130.462
0.408531	131.692
0.43392	135.385
0.463925	137.846
0.489314	139.077
0.512395	141.538
0.533168	146.462
0.560865	150.154
0.586254	151.385
0.609335	153.846
0.637032	157.538
0.662421	160
0.68781	162.462
0.713199	164.923
0.73628	172.308
0.766285	173.538
0.787058	179.692
0.810138	183.385
0.833219	189.538
0.860916	196.923
0.883997	206.769
0.911694	221.538
0.937083	238.769
0.962472	272
0.983245	332.308
0.023081	100.923
0.04847	109.538
0.073859	115.692
0.099248	119.385
0.122329	120.615
0.145409	125.538
0.173106	126.769
0.196187	129.231
0.223884	132.923
0.246965	132.923
0.272354	135.385
0.297743	137.846
0.32544	140.308
0.346213	142.769
0.37391	145.231
0.403915	147.692
0.426996	153.846
0.447769	152.615
0.480082	156.308
0.503163	161.231
0.53086	162.462
0.556249	166.154
0.577022	166.154
0.602411	171.077
0.625491	173.538
0.653188	176
0.673961	177.231
0.708583	182.154
0.731663	184.615
0.754744	192
0.780133	192
0.812446	198.154
0.837835	206.769
0.863224	217.846
0.888613	228.923
0.909386	240
0.937083	272
0.962472	320
0.978629	358.154
0.987861	364.308
