Adsorption isotherm of Carbon Dioxide on ATFG-COF
DOI: 10.1021/acs.chemmater.5b02151
Article source: Figure 4C
Adsorbate Carbon Dioxide: InChIKey CURLTUGMZLYLDI-UHFFFAOYSA-N
Kind: experiment
Temperature: 298 K
Tabular data in the source: 0
pressure (bar)	uptake (cm3(STP)/g)
0.841828	50.1869
0.70826	47.1028
0.594025	43.4579
0.497364	39.6729
0.41652	36.729
0.349736	33.3645
0.289982	29.8598
0.247803	27.4766
0.207381	24.6729
0.179262	21.8692
0.144112	19.3458
0.123023	17.243
0.103691	15.1402
0.087873	13.1776
0.073814	11.6355
0.063269	10.3738
0.052724	9.39252
0.047452	8.41121
0.040422	7.28972
0.031634	6.30841
0.024605	4.90654
0.019332	4.20561
0.017575	3.50467
0.01406	3.08411
0.010545	1.54206
0.008787	0.700935
0.994728	53.6916
0.943761	52.8505
0.892794	52.0093
0.84007	51.028
0.785589	49.7664
0.734622	48.2243
0.680141	46.6822
0.629174	45.1402
0.57645	43.4579
0.527241	41.4953
0.476274	39.9533
0.425308	36.3084
0.369069	33.9252
0.31283	30.4206
0.214411	25.0935
0.15993	21.4486
0.105448	16.5421
0.057996	10.6542
0.008787	1.82243
