Adsorption isotherm of Water on AB-COF
DOI: 10.1021/acs.chemmater.5b02151
Article source: Figure 3B
Adsorbate Water: InChIKey XLYOFNOQVPJJNP-UHFFFAOYSA-N
Kind: experiment
Temperature: 298 K
Tabular data in the source: 0
pressure (bar)	uptake (cm3(STP)/g)
0.00032	8.27068
0.000785	8.27068
0.00128	8.27068
0.001542	9.64912
0.001891	8.27068
0.002065	6.89223
0.002327	6.89223
0.002676	12.406
0.003723	13.7845
0.004596	16.5414
0.004974	17.9198
0.005353	23.4336
0.005934	22.0551
0.006312	27.5689
0.006574	30.3258
0.007127	34.4612
0.007505	45.4887
0.007767	84.0852
0.008058	197.118
0.008436	296.366
0.008698	340.476
0.009018	355.639
0.009396	362.531
0.010414	374.937
0.011287	385.965
0.012654	401.128
0.013759	414.912
0.015039	428.697
