Adsorption isotherm of Carbon Dioxide on Li@AB-COF
DOI: 10.1021/acs.chemmater.5b02151
Article source: Figure 6C
Adsorbate Carbon Dioxide: InChIKey CURLTUGMZLYLDI-UHFFFAOYSA-N
Kind: experiment
Temperature: 308 K
Tabular data in the source: 0
pressure (bar)	uptake (cm3(STP)/g)
0.66055	0.628272
1.10092	1.36126
2.09174	2.6178
5.17431	4.92147
9.9633	6.46597
14.9725	7.25131
19.9817	7.59162
30.055	7.93194
