Adsorption isotherm of Carbon Dioxide on AB-COF
DOI: 10.1021/acs.chemmater.5b02151
Article source: Figure 6B
Adsorbate Carbon Dioxide: InChIKey CURLTUGMZLYLDI-UHFFFAOYSA-N
Kind: experiment
Temperature: 308 K
Tabular data in the source: 0
pressure (bar)	uptake (cm3(STP)/g)
0.504673	0.651042
0.953271	1.11979
2.01869	2.26562
5.04673	4.16667
9.98131	5.41667
15.1402	6.04167
19.9626	6.35417
30.1122	6.71875
