Adsorption isotherm of Water on AB-COF
DOI: 10.1021/acs.chemmater.5b02151
Article source: Figure 3B
Adsorbate Water: InChIKey XLYOFNOQVPJJNP-UHFFFAOYSA-N
Kind: experiment
Temperature: 313 K
Tabular data in the source: 0
pressure (bar)	uptake (cm3(STP)/g)
0.000339	9.64912
0.000882	9.64912
0.001153	9.64912
0.001425	11.0276
0.001832	9.64912
0.002306	9.64912
0.002849	9.64912
0.003731	11.0276
0.004206	11.0276
0.004952	9.64912
0.005766	9.64912
0.006444	11.0276
0.007258	9.64912
0.007937	12.406
0.008751	13.7845
0.009429	13.7845
0.010107	13.7845
0.011193	12.406
0.0116	12.406
0.012414	15.1629
0.01316	16.5414
0.013906	13.7845
0.014652	15.1629
0.015466	20.6767
0.016077	23.4336
0.016619	27.5689
0.017366	28.9474
0.01818	35.8396
0.018858	41.3534
0.01974	57.8947
0.02035	89.599
0.021096	219.173
0.021978	301.88
0.02476	366.667
0.026523	372.18
0.02944	392.857
0.032153	406.642
0.035138	419.048
