Adsorption isotherm of Carbon Dioxide on Zn@ATFG-COF
DOI: 10.1021/acs.chemmater.5b02151
Article source: Figure S38
Adsorbate Carbon Dioxide: InChIKey CURLTUGMZLYLDI-UHFFFAOYSA-N
Kind: experiment
Temperature: 273 K
Tabular data in the source: 0
pressure (bar)	uptake (cm3(STP)/g)
0.307876	0.538922
0.384845	1.61677
0.538783	2.69461
0.76969	4.31138
0.923627	5.65868
1.30847	7.00599
1.46241	7.81437
1.77029	8.89222
1.84725	9.97006
2.30907	10.7784
2.57846	12.5299
3.15573	14.012
3.61754	15.6287
4.38723	16.976
5.15692	19.1317
6.15752	20.7485
7.31205	22.6347
8.69749	25.3293
10.0829	27.485
12.0841	30.7186
14.3932	33.9521
17.0871	36.9162
20.5507	40.1497
24.3222	43.6527
29.1712	48.2335
34.3282	53.3533
32.4809	51.7365
30.7106	50.9281
28.8634	49.3114
27.17	48.2335
25.2458	46.6168
23.6295	44.7305
21.7052	43.1138
19.858	41.7665
18.1647	39.6108
16.4714	37.994
14.5471	36.1078
12.6229	33.1437
10.8526	31.2575
9.15931	29.1018
7.38902	25.5988
5.54177	21.5569
3.77148	17.515
2.07816	11.8563
0.307876	3.77245
