Adsorption isotherm of Water on AB-COF
DOI: 10.1021/acs.chemmater.5b02151
Article source: Figure 3A
Adsorbate Water: InChIKey XLYOFNOQVPJJNP-UHFFFAOYSA-N
Kind: experiment
Temperature: 288 K
Tabular data in the source: 0
pressure (bar)	uptake (cm3(STP)/g)
0.000313	8.22943
0.000501	8.22943
0.00072	8.22943
0.000845	6.85785
0.001064	8.22943
0.001189	6.85785
0.001314	6.85785
0.001502	8.22943
0.001721	9.601
0.001908	8.22943
0.002127	10.9726
0.002253	10.9726
0.00244	10.9726
0.00244	10.9726
0.002628	13.7157
0.002753	13.7157
0.002941	13.7157
0.003003	17.8304
0.003191	19.202
0.003316	23.3167
0.003379	21.9451
0.003504	26.0599
0.00366	30.1746
0.003879	56.2344
0.004067	211.222
0.00438	337.406
0.004599	351.122
0.004787	356.608
0.004912	360.723
0.005037	366.209
0.005537	375.81
0.006007	385.411
0.006758	397.756
0.007415	410.1
0.008072	418.329
0.008729	426.559
0.009417	437.531
0.010105	448.504
0.010793	453.99
0.01145	462.219
0.012201	473.192
0.012858	480.05
0.013453	489.651
0.014172	497.88
0.014986	510.224
0.000313	16.4589
0.000438	15.0873
0.000626	16.4589
0.000813	16.4589
0.001001	19.202
0.001064	20.5736
0.001251	20.5736
0.00147	21.9451
0.001689	20.5736
0.00194	26.0599
0.002221	24.6883
0.002378	30.1746
0.002784	34.2893
0.003003	42.5187
0.003316	54.8628
0.003504	87.7805
0.003754	345.636
0.003973	362.095
0.004255	377.182
0.004474	384.04
0.004818	399.127
0.005099	405.985
0.005725	421.072
0.006257	429.302
0.007477	449.875
0.008134	456.733
0.008791	467.706
0.009479	473.192
0.010136	477.307
0.010856	484.165
0.01145	489.651
0.012107	493.766
0.012764	497.88
0.013421	501.995
0.014203	508.853
0.014454	510.224
0.014829	511.596
0.015142	514.339
