Adsorption isotherm of Carbon Dioxide on Li@ATFG-COF
DOI: 10.1021/acs.chemmater.5b02151
Article source: Figure S38
Adsorbate Carbon Dioxide: InChIKey CURLTUGMZLYLDI-UHFFFAOYSA-N
Kind: experiment
Temperature: 273 K
Tabular data in the source: 0
pressure (bar)	uptake (cm3(STP)/g)
0.154624	1.33929
0.231935	2.41071
0.154624	3.75
0.386559	5.625
0.618494	6.69643
0.695806	6.96429
0.773118	8.30357
0.927742	9.375
1.23699	12.0536
1.39161	13.3929
1.70086	15.2679
1.9328	17.1429
2.24204	19.0179
2.55129	20.625
2.93785	22.7679
3.63366	25.7143
4.40677	28.3929
5.17989	30.5357
6.18494	33.75
7.34462	36.6964
8.5043	40.1786
10.3598	43.9286
12.138	48.2143
14.5346	52.5
17.2405	57.5893
20.4876	62.9464
24.4305	68.8393
29.1465	73.9286
34.5584	80.3571
32.7029	78.75
30.9247	76.875
29.1465	74.1964
27.2138	71.5179
25.5129	69.9107
23.6574	67.5
21.9566	65.0893
20.1011	62.4107
18.2456	60.2679
16.3901	57.0536
14.6892	54.375
12.6791	50.625
10.9783	47.4107
9.2001	43.125
7.34462	38.0357
5.64376	33.2143
3.78828	28.125
2.16473	19.5536
0.386559	6.16071
