Adsorption isotherm of Hydrogen on Li@AB-COF
DOI: 10.1021/acs.chemmater.5b02151
Article source: Figure 6C
Adsorbate Hydrogen: InChIKey UFHFLCQGNIYNRP-UHFFFAOYSA-N
Kind: experiment
Temperature: 308 K
Tabular data in the source: 0
pressure (bar)	uptake (cm3(STP)/g)
1.04587	0.235602
2.09174	0.863874
5.06422	1.80628
9.9633	3.089
15.0826	3.63874
19.9817	3.87435
30	4.10995
