Adsorption isotherm of Water on Zn@ATFG-COF
DOI: 10.1021/acs.chemmater.5b02151
Article source: Figure S31
Adsorbate Water: InChIKey XLYOFNOQVPJJNP-UHFFFAOYSA-N
Kind: experiment
Temperature: 288 K
Tabular data in the source: 0
pressure (bar)	uptake (cm3(STP)/g)
0.000437	19.3314
0.00051	23.4012
0.000619	26.4535
0.000765	31.5407
0.000947	36.6279
0.001129	41.7151
0.00142	48.8372
0.001711	56.9767
0.002003	70.2035
0.002439	76.3081
0.003422	104.797
0.003932	113.953
0.004879	120.058
0.005789	132.267
0.006918	138.372
0.008301	147.529
0.009867	163.808
0.011833	188.227
0.000546	66.1337
0.00182	101.744
0.00335	133.285
0.004478	145.494
0.005461	151.599
0.006444	162.791
0.007209	169.913
0.00801	171.948
0.00903	180.087
0.009867	183.14
0.010704	189.244
0.011578	192.297
0.012452	201.453
0.013362	205.523
0.013908	211.628
0.01409	212.645
