Adsorption isotherm of Water on Li@AB-COF
DOI: 10.1021/acs.chemmater.5b02151
Article source: Figure S31
Adsorbate Water: InChIKey XLYOFNOQVPJJNP-UHFFFAOYSA-N
Kind: experiment
Temperature: 288 K
Tabular data in the source: 0
pressure (bar)	uptake (cm3(STP)/g)
0.000218	7.94798
0.000291	9.53757
0.000472	6.35838
0.000581	6.35838
0.000799	6.35838
0.000908	6.35838
0.001126	7.94798
0.001235	9.53757
0.001526	9.53757
0.001635	9.53757
0.00178	11.1272
0.001962	11.1272
0.002107	11.1272
0.002325	12.7168
0.002507	14.3064
0.002652	15.896
0.002761	15.896
0.002943	17.4855
0.003124	17.4855
0.003161	17.4855
0.003415	19.0751
0.00356	19.0751
0.003706	19.0751
0.003633	34.9711
0.003851	57.2254
0.003996	259.104
0.004105	324.277
0.00436	341.763
0.004469	357.659
0.004614	364.017
0.004868	365.607
0.004977	370.376
0.00545	383.092
0.005995	394.22
0.006685	403.757
0.007339	418.064
0.008029	427.601
0.008683	438.728
0.00941	445.087
0.010173	457.803
0.010718	464.162
0.011408	470.52
0.012098	483.237
0.012716	486.416
0.013624	492.775
0.014133	502.312
0.014787	510.26
7.3e-05	12.7168
0.000182	14.3064
0.000327	15.896
0.000472	15.896
0.000545	15.896
0.000727	20.6647
0.000981	20.6647
0.000836	15.896
0.001199	17.4855
0.001344	20.6647
0.001562	19.0751
0.001671	20.6647
0.001889	23.8439
0.002144	23.8439
0.002434	30.2023
0.002761	33.3815
0.002906	39.7399
0.00327	50.8671
0.003451	95.3757
0.003742	344.942
0.004033	370.376
0.004251	378.324
0.004505	391.04
0.004759	402.168
0.005014	406.936
0.006213	432.37
0.005631	422.832
0.007412	453.035
0.008066	460.983
0.008756	467.341
0.009519	473.699
0.010173	481.647
0.010754	488.006
0.011444	492.775
0.012135	497.543
0.01268	502.312
0.013406	503.902
0.014096	510.26
0.014496	511.85
0.014714	511.85
0.015186	515.029
