Adsorption isotherm of Argon on AB-COF
DOI: 10.1021/acs.chemmater.5b02151
Article source: Figure S25A
Adsorbate Argon: InChIKey XKRFYHLGVUSROY-UHFFFAOYSA-N
Kind: experiment
Temperature: 87 K
Tabular data in the source: 0
pressure (bar)	uptake (cm3(STP)/g)
0.000926	225.061
0.028701	267.89
0.054162	276.456
0.077308	283.798
0.105084	289.917
0.00787	249.535
0.005555	234.851
0.125916	289.917
0.151376	293.588
0.179152	296.035
0.209242	298.483
0.237018	300.93
0.255535	303.377
0.285625	304.601
0.308771	305.825
0.334232	308.272
0.359693	308.272
0.385154	311.943
0.412929	314.391
0.43839	314.391
0.459221	314.391
0.484682	316.838
0.514772	316.838
0.535604	319.285
0.568009	321.733
0.59347	320.509
0.614301	321.733
0.644391	325.404
0.662908	325.404
0.692999	325.404
0.716145	329.075
0.741606	330.299
0.764752	331.522
0.794842	332.746
0.815674	335.193
0.843449	335.193
0.86891	337.641
0.892056	341.312
0.919832	343.759
0.938349	347.43
0.96381	354.772
0.986956	370.68
0.005555	240.969
0.005555	251.982
0.019443	270.338
0.047218	280.127
0.074994	287.469
0.100455	292.364
0.125916	296.035
0.144433	299.706
0.169893	302.154
0.197669	304.601
0.220815	304.601
0.248591	305.825
0.269422	309.496
0.294883	309.496
0.324973	309.496
0.350434	311.943
0.375895	314.391
0.399041	315.614
0.422188	316.838
0.452278	319.285
0.475424	319.285
0.500885	320.509
0.526346	322.956
0.551806	322.956
0.574953	324.18
0.600414	326.628
0.630504	327.851
0.651335	329.075
0.676796	330.299
0.699942	332.746
0.725403	333.97
0.755493	332.746
0.780954	333.97
0.801786	338.864
0.831876	338.864
0.859652	341.312
0.880483	342.535
0.910573	347.43
0.93372	352.325
0.961495	359.667
0.980012	381.694
0.9939	387.812
