Adsorption isotherm of Water on ATFG-COF
DOI: 10.1021/acs.chemmater.5b02151
Article source: Figure 3C
Adsorbate Water: InChIKey XLYOFNOQVPJJNP-UHFFFAOYSA-N
Kind: experiment
Temperature: 288 K
Tabular data in the source: 0
pressure (bar)	uptake (cm3(STP)/g)
0.000156	0.879397
0.000187	3.51759
0.000344	7.03518
0.000531	8.79397
0.000781	12.3116
0.000843	15.8291
0.000968	20.2261
0.001155	25.5025
0.001343	28.1407
0.001593	35.1759
0.001686	43.9698
0.001905	49.2462
0.001967	56.2814
0.002186	64.196
0.002342	73.8693
0.002498	83.5427
0.002842	105.528
0.00306	117.839
0.003216	125.754
0.003466	137.186
0.003466	140.704
0.003747	146.859
0.003903	152.136
0.004153	155.653
0.004372	158.291
0.004653	161.809
0.004809	163.568
0.004934	166.206
0.005153	169.724
0.00459	163.568
0.005621	175
0.006027	178.518
0.00687	185.553
0.007557	192.588
0.008213	199.623
0.008869	206.658
0.009462	213.693
0.010055	217.211
0.010773	224.246
0.011429	233.04
0.01221	240.955
0.012897	247.99
0.013428	258.543
0.014208	274.372
0.014927	291.08
0.000219	24.6231
0.000344	29.0201
0.000562	34.2965
0.000656	37.8141
0.000718	38.6935
0.000843	45.7286
0.000999	49.2462
0.001187	55.402
0.00128	61.5578
0.001436	65.9548
0.00153	70.3518
0.001593	72.99
0.001686	76.5075
0.00178	82.6633
0.002061	94.9749
0.002311	109.925
0.002592	124.874
0.002842	135.427
0.003092	147.739
0.00331	153.894
0.003529	160.05
0.003779	167.965
0.004028	172.362
0.004341	175
0.004559	176.759
0.004747	182.915
0.00509	186.432
0.005621	193.467
0.006183	204.02
0.007401	216.332
0.00815	223.367
0.008681	227.764
0.009462	234.799
0.010086	238.317
0.010898	247.111
0.011429	250.628
0.012179	259.422
0.012834	267.337
0.013553	277.889
0.014208	285.804
0.014771	301.633
0.014927	306.03
0.015239	307.789
