Adsorption isotherm of Nitrogen on JUC-556-[HZ]1.00
DOI: 10.1002/smll.202102630
Article source: Figure 2d
Adsorbate Nitrogen: InChIKey IJGRMHOSHXDMSA-UHFFFAOYSA-N
Kind: experiment
Temperature: 77 K
Tabular data in the source: 0
pressure (bar)	uptake (cm3(STP)/g)
0.001292	73.3542
0.010339	98.7461
0.018094	103.448
0.031018	110.031
0.038772	112.382
0.047819	114.734
0.085299	122.727
0.118902	127.9
0.153797	132.602
0.193862	135.423
0.227464	138.245
0.266237	140.125
0.297254	142.006
0.336027	144.828
0.367045	145.768
0.405817	147.649
0.43942	148.589
0.475607	149.53
0.511795	151.411
0.545397	152.351
0.581585	153.292
0.620357	155.172
0.65396	156.113
0.684978	157.994
0.72375	158.934
0.757353	161.755
0.79354	162.696
0.827143	165.517
0.864623	169.279
0.898225	174.922
0.935705	186.677
0.965431	207.837
0.996449	246.395
1.00808	259.091
1.00937	280.251
1.00033	263.323
0.971893	244.984
0.925366	217.241
0.896933	208.777
0.845237	198.903
0.810342	195.141
0.774154	193.26
0.754768	191.379
0.719873	189.498
0.683685	187.618
0.64879	186.677
0.612603	185.266
0.577708	183.856
0.54152	182.915
0.506625	181.505
0.467853	162.696
0.426496	160.815
0.381261	159.875
0.36446	158.934
0.329565	157.524
0.29467	156.113
0.258482	155.172
0.222295	153.292
0.188692	150.47
0.152504	147.649
0.118902	143.417
0.084007	138.245
0.049112	131.661
