Adsorption isotherm of Nitrogen on JUC-556-[HZ]0.50
DOI: 10.1002/smll.202102630
Article source: Figure 2b
Adsorbate Nitrogen: InChIKey IJGRMHOSHXDMSA-UHFFFAOYSA-N
Kind: experiment
Temperature: 77 K
Tabular data in the source: 0
pressure (bar)	uptake (cm3(STP)/g)
0.003405	92.9763
0.008171	107.199
0.008852	114.311
0.023152	125.637
0.032005	131.168
0.046985	137.489
0.084437	147.498
0.121209	153.556
0.157299	159.087
0.193389	164.091
0.227436	168.042
0.264208	171.466
0.299617	174.363
0.333664	176.471
0.367712	177.788
0.403121	179.104
0.439892	180.685
0.47394	181.738
0.51003	182.792
0.545439	184.372
0.582891	185.689
0.616939	186.216
0.651667	187.533
0.686395	188.323
0.723847	190.167
0.758576	191.22
0.792623	192.801
0.829394	194.381
0.864803	195.961
0.898851	199.122
0.932898	204.39
0.968307	214.662
0.998269	228.885
1.00508	233.363
1.01189	291.835
0.951284	228.358
0.91247	223.354
0.875699	220.72
0.84097	218.613
0.80488	217.823
0.769471	217.032
0.753809	216.506
0.717719	215.452
0.663243	214.925
0.647581	214.925
0.611491	213.872
0.576082	214.399
0.542034	213.345
0.505944	212.555
0.476663	199.649
0.432402	196.752
0.38065	195.698
0.347283	194.908
0.329579	194.381
0.29485	192.274
0.25876	190.43
0.223351	187.27
0.18658	183.319
0.149808	178.578
0.118485	173.31
0.081714	166.462
0.051752	158.56
