Adsorption isotherm of Nitrogen on JUC-556-[HZ]0.25
DOI: 10.1002/smll.202102630
Article source: Figure 2a
Adsorbate Nitrogen: InChIKey IJGRMHOSHXDMSA-UHFFFAOYSA-N
Kind: experiment
Temperature: 77 K
Tabular data in the source: 0
pressure (bar)	uptake (cm3(STP)/g)
0.001292	97.9965
0.00517	120.645
0.010339	142.857
0.010339	146.341
0.020679	167.247
0.028433	174.216
0.041357	179.878
0.054281	182.927
0.085299	187.718
0.121487	191.638
0.157674	194.251
0.192569	196.864
0.228757	198.606
0.263652	200.348
0.298547	201.655
0.334734	202.962
0.369629	203.833
0.404525	205.139
0.440712	206.01
0.475607	206.446
0.510502	207.753
0.54669	208.624
0.581585	209.059
0.61648	209.93
0.652667	210.801
0.687563	211.237
0.72375	212.544
0.758645	213.415
0.79354	214.286
0.828435	215.157
0.864623	215.592
0.90081	216.899
0.935705	217.77
0.971893	219.512
1.00033	223.432
1.00679	229.965
0.989987	227.352
0.948629	224.739
0.912442	223.868
0.877547	223.868
0.841359	223.432
0.805172	223.868
0.770277	223.432
0.753475	223.432
0.700487	223.432
0.682393	222.997
0.629404	222.561
0.61131	222.561
0.558321	222.997
0.54152	222.125
0.506625	222.125
0.470438	220.383
0.43425	220.383
0.381261	219.077
0.363167	219.077
0.328272	218.641
0.29467	217.77
0.258482	216.463
0.223587	215.592
0.1874	213.85
0.152504	212.108
0.116317	209.495
0.082714	205.575
0.052989	200.784
