Adsorption isotherm of Nitrogen on JUC-556-[HZ]0.75
DOI: 10.1002/smll.202102630
Article source: Figure 2c
Adsorbate Nitrogen: InChIKey IJGRMHOSHXDMSA-UHFFFAOYSA-N
Kind: experiment
Temperature: 77 K
Tabular data in the source: 0
pressure (bar)	uptake (cm3(STP)/g)
0.00517	94.2188
0.009047	104.531
0.020679	112.969
0.031018	116.719
0.038772	119.062
0.043942	121.406
0.081422	129.844
0.118902	135.469
0.155089	139.688
0.191277	143.438
0.228757	146.25
0.263652	148.125
0.298547	150
0.334734	151.406
0.367045	152.812
0.405817	154.219
0.43942	154.688
0.475607	155.625
0.511795	156.562
0.545397	158.438
0.579	159.375
0.617772	160.312
0.65396	161.25
0.684978	163.125
0.726335	164.062
0.759937	165.938
0.79354	167.812
0.828435	169.688
0.865915	172.5
0.899518	176.25
0.930536	181.875
0.971893	201.562
1.00033	237.188
1.00808	248.438
1.01067	279.375
1.00033	254.062
0.969308	228.75
0.929243	208.594
0.884009	200.156
0.843944	196.406
0.806464	194.062
0.772862	192.188
0.753475	192.188
0.719873	190.312
0.683685	189.375
0.64879	188.438
0.612603	187.5
0.576415	186.562
0.542812	186.094
0.506625	184.688
0.47173	171.562
0.427788	170.156
0.381261	168.281
0.345074	167.812
0.328272	167.344
0.293377	165.938
0.258482	164.531
0.222295	162.188
0.1874	160.312
0.151212	156.562
0.116317	152.812
0.082714	147.656
0.051696	141.094
