Adsorption isotherm of Hydrogen on CuSO4
DOI: 10.1016/j.scriptamat.2007.09.024
Adsorbate Hydrogen: InChIKey UFHFLCQGNIYNRP-UHFFFAOYSA-N
Temperature: 298 K
Tabular data in the source: 0
pressure (bar)	uptake (wt%)
5.58413	0.144927
10.6638	0.28939
11.1682	0.329579
