Adsorption isotherm of Hydrogen on Cu(OH)2
DOI: 10.1016/j.scriptamat.2007.09.024
Adsorbate Hydrogen: InChIKey UFHFLCQGNIYNRP-UHFFFAOYSA-N
Temperature: 298 K
Tabular data in the source: 0
pressure (bar)	uptake (wt%)
5.60215	0.350433
9.63713	0.413465
11.1682	0.441867
