Adsorption isotherm of Methanol on CuBTC
DOI: 10.1021/Jp405509m
Adsorbate Methanol: InChIKey OKKJLVBELUTLKV-UHFFFAOYSA-N
Temperature: 313 K
Tabular data in the source: 0
pressure (bar)	uptake (mmol/g)
0.00523029	6.1346
0.00552671	1.17602
0.00762507	3.52547
0.0094387	10.6378
0.00949331	9.72434
0.0160887	11.7489
0.0204297	14.0337
0.0315144	15.8638
0.0404421	16.3231
0.0605559	16.9162
0.0694954	17.1797
0.0896209	17.577
0.0974644	17.4488
0.139966	18.0484
0.175778	18.1892
0.201528	18.1315
0.258605	18.3438
0.300014	18.4863
0.367166	18.7015
0.41753	18.8466
