Adsorption isotherm of Methanol on CuBTC
DOI: 10.1021/Jp405509m
Adsorbate Methanol: InChIKey OKKJLVBELUTLKV-UHFFFAOYSA-N
Temperature: 323 K
Tabular data in the source: 0
pressure (bar)	uptake (mmol/g)
0.0019322	8.34102
0.00294703	8.85684
0.00395514	9.08441
0.0058801	9.46368
0.00809605	9.76711
0.00993487	10.025
0.0118834	10.2222
0.013505	10.4043
0.0185945	10.8291
0.0198227	11.0111
0.0243249	11.618
0.0287259	12.2552
0.0339231	13.1654
0.0385524	13.8936
0.0455274	14.4701
0.0530811	14.8191
0.071239	15.2742
0.0920087	15.6687
0.117323	16.0783
0.161537	16.5941
0.200779	16.8824
0.249553	17.1554
0.314168	17.4437
