Adsorption isotherm of Acetonitrile on CuBTC
DOI: 10.1021/Jp405509m
Adsorbate Acetonitrile: InChIKey WEVYAHXRMPXWCK-UHFFFAOYSA-N
Temperature: 323 K
Tabular data in the source: 0
pressure (bar)	uptake (mmol/g)
0.00108914	7.08759
0.00144304	7.39479
0.00183095	7.63521
0.00228985	7.80885
0.00270315	7.9157
0.00363357	8.22291
0.0045116	8.42326
0.00552155	8.75717
0.0064248	9.03767
0.0074758	9.3983
0.00908353	9.9192
0.010646	10.36
0.0125675	10.6672
0.0161776	11.0545
0.017897	11.1747
0.0209754	11.3884
0.0268065	11.7357
0.0350082	12.0162
0.0463838	12.27
0.0563591	12.497
0.070995	12.6974
0.0887888	12.831
0.113472	13.018
0.1359	13.1114
0.168739	13.2049
0.211031	13.3652
