Adsorption isotherm of 1-hexanol on CuBTC
DOI: 10.1021/Jp405509m
Adsorbate 1-hexanol: InChIKey ZSIAUFGUXNUGDI-UHFFFAOYSA-N
Temperature: 323 K
Tabular data in the source: 0
pressure (bar)	uptake (mmol/g)
0.000214	4.96601
0.000331	4.99456
0.000566	5.03737
0.000863	5.07068
0.00129966	5.10874
0.00205982	5.15632
0.00280003	5.1801
