Adsorption isotherm of Methanol on CuBTC
DOI: 10.1021/Jp405509m
Adsorbate Methanol: InChIKey OKKJLVBELUTLKV-UHFFFAOYSA-N
Temperature: 313 K
Tabular data in the source: 0
pressure (bar)	uptake (mmol/g)
0.0011436	8.16012
0.00163617	8.81031
0.00185945	9.02704
0.0027293	9.41716
0.00371009	9.72058
0.00530811	10.1324
0.0071239	10.5008
0.00885446	10.7826
0.0110054	11.2377
0.0123483	11.6928
0.0147701	12.4297
0.0161537	12.9499
0.017667	13.34
0.021404	14.0985
0.0298497	14.8788
0.0390487	15.3122
0.0510826	15.659
0.0651371	16.0274
0.0920087	16.5259
0.118834	16.7426
0.14397	16.9377
0.190764	17.2411
