Adsorption isotherm of Water on CuBTC
DOI: 10.1021/Jp405509m
Adsorbate Water: InChIKey XLYOFNOQVPJJNP-UHFFFAOYSA-N
Temperature: 323 K
Tabular data in the source: 0
pressure (bar)	uptake (mmol/g)
0.00119623	0.354296
0.00180472	0.902147
0.0027623	1.57174
0.00365988	2.2109
0.00467732	3.03268
0.00552155	4.12838
0.00606448	4.85885
0.0073687	6.22848
0.00876171	8.02421
0.0111974	10.0634
0.0123875	10.8243
0.0144139	12.0418
0.0158312	12.7723
0.0176406	14.0201
0.0192359	14.8723
0.0235419	15.268
0.0275914	15.968
0.0305238	17.3985
0.0368216	17.9464
0.0431553	18.0681
0.0484358	18.4334
0.0551524	18.7377
0.0619008	19.0725
0.0752131	20.0769
0.0850273	21.4161
0.0940641	22.5727
0.0982253	23.3945
0.104815	24.6119
0.107108	26.1033
0.111042	27.199
0.114293	28.5382
0.120214	29.1773
