Adsorption isotherm of Methanol on CuBTC
DOI: 10.1021/Jp405509m
Adsorbate Methanol: InChIKey OKKJLVBELUTLKV-UHFFFAOYSA-N
Temperature: 323 K
Tabular data in the source: 0
pressure (bar)	uptake (molecules/unitcell)
0.0336051	3.33622
0.0463829	5.73622
0.0608273	8.13622
0.0686051	8.66955
0.0902718	8.93622
0.0986051	9.46955
0.120827	9.73622
0.139161	11.3362
0.182494	12.4029
0.220272	14.2696
0.266383	16.1362
0.301383	17.4696
0.33805	19.3362
0.373605	19.8696
0.396383	20.4029
0.418605	21.4696
