Adsorption isotherm of Methanol on CuBTC
DOI: 10.1021/Jp405509m
Adsorbate Methanol: InChIKey OKKJLVBELUTLKV-UHFFFAOYSA-N
Temperature: 323 K
Tabular data in the source: 0
pressure (bar)	uptake (mmol/g)
0.00444214	0.700613
0.0078514	2.54768
0.0101791	4.71322
0.0136183	7.06982
0.0148234	8.8532
0.0170912	9.99966
0.0204294	10.6366
0.0270982	11.783
0.033767	12.9295
0.0426588	14.4581
0.0526022	15.1587
0.0614341	15.6683
0.0691545	15.9867
0.0900816	16.3689
0.0999988	16.6236
0.125316	16.8147
0.14183	17.0058
0.160546	17.1969
0.179261	17.3879
0.201274	17.5153
0.236489	17.6427
0.277205	17.7701
0.301415	17.8338
0.339927	17.8975
0.388345	18.0249
0.42136	18.1523
