Adsorption isotherm of Ethanol on CuBTC
DOI: 10.1021/Jp405509m
Adsorbate Ethanol: InChIKey LFQSCWFLJHTTHZ-UHFFFAOYSA-N
Temperature: 323 K
Tabular data in the source: 0
pressure (bar)	uptake (wt%)
0.00108946	50.1583
0.00143221	51.9859
0.00215119	54.4989
0.00286791	56.0219
0.00358954	57.3165
0.0042476	58.9157
0.00495629	60.2864
0.00629103	63.637
0.00694011	65.3123
0.00918772	69.2722
0.012686	72.2421
0.0169127	74.0697
0.0227063	75.1358
0.0302715	76.0496
0.0400752	77.268
0.0526831	78.0295
0.0697449	78.7911
0.0891505	79.9333
0.117198	80.6948
0.145662	81.2279
