Adsorption isotherm of Methanol on CuBTC
DOI: 10.1021/Jp405509m
Adsorbate Methanol: InChIKey OKKJLVBELUTLKV-UHFFFAOYSA-N
Temperature: 333 K
Tabular data in the source: 0
pressure (bar)	uptake (mmol/g)
0.00653753	0.255638
0.0108959	0.703004
0.0174334	2.6842
0.0207022	6.77441
0.0261501	8.56387
0.0337772	10.2894
0.0414044	10.609
0.0490315	11.8233
0.0621065	13.1654
0.0686441	14.2518
0.0882567	15.0187
0.0991525	15.4661
0.118765	15.7217
0.139467	16.0413
0.171065	16.4247
0.200484	16.7443
0.233172	16.8721
0.271308	17.1277
0.299637	17.1917
0.323608	17.2556
0.373729	17.5751
0.400969	17.7029
0.418402	17.7029
