Adsorption isotherm of 1-Butanol on CuBTC
DOI: 10.1021/Jp405509m
Adsorbate 1-Butanol: InChIKey LRHPLDYGYMQRHN-UHFFFAOYSA-N
Temperature: 323 K
Tabular data in the source: 0
pressure (bar)	uptake (mmol/g)
0.000116	6.03229
0.000148	6.09788
0.000196	6.16346
0.000228	6.19625
0.000269	6.24872
0.000344	6.3143
0.00039	6.29463
0.000473	6.36021
0.000769	6.47826
0.00112906	6.57007
0.0017667	6.67501
0.00252765	6.76682
0.00390487	6.85864
0.00558679	6.9439
0.0074026	7.03571
0.0111471	7.10785
0.0149603	7.17344
0.021404	7.23902
