Adsorption isotherm of 1-Propanol on CuBTC
DOI: 10.1021/Jp405509m
Adsorbate 1-Propanol: InChIKey BDERNNFJNOPAEC-UHFFFAOYSA-N
Temperature: 323 K
Tabular data in the source: 0
pressure (bar)	uptake (mmol/g)
0.000348	6.42914
0.000455	6.54239
0.00066	6.72035
0.000908	6.81742
0.00115832	6.93067
0.0013505	7.01156
0.00159484	7.06818
0.00205982	7.22187
0.00237105	7.25423
0.00366293	7.54543
0.00551578	7.82046
0.0074979	8.00651
0.0103235	8.17638
0.0145824	8.33007
0.0195707	8.45141
0.027293	8.56465
0.0361637	8.65363
0.0485345	8.77497
0.0626848	8.81541
