Adsorption isotherm of Cyclohexane on CuBTC
DOI: 10.1021/Jp405509m
Adsorbate Cyclohexane: InChIKey XDTMQSROBMDMFD-UHFFFAOYSA-N
Temperature: 323 K
Tabular data in the source: 0
pressure (bar)	uptake (mmol/g)
0.0622721	5.66288
0.079099	5.71189
0.10334	5.75546
0.124081	5.78268
0.153237	5.80446
0.186599	5.81536
