Adsorption isotherm of Methanol on CuBTC
DOI: 10.1021/Jp405509m
Adsorbate Methanol: InChIKey OKKJLVBELUTLKV-UHFFFAOYSA-N
Temperature: 323 K
Tabular data in the source: 0
pressure (bar)	uptake (molecules/unitcell)
0.0608273	2.53622
0.0669384	3.33622
0.0836051	7.33622
0.0902718	9.46955
0.0986051	12.6696
0.115827	22.2696
0.129716	32.9362
0.139716	39.0696
0.16305	42.5362
0.176938	44.6696
0.200827	44.9362
0.238605	48.4029
0.275827	51.0696
0.300827	53.7362
0.33805	55.6029
0.379716	58.0029
0.402494	59.6029
0.418605	60.6696
