Adsorption isotherm of Methanol on CuBTC
DOI: 10.1021/Jp405509m
Adsorbate Methanol: InChIKey OKKJLVBELUTLKV-UHFFFAOYSA-N
Temperature: 343 K
Tabular data in the source: 0
pressure (bar)	uptake (mmol/g)
0.00541418	0.129588
0.011909	0.32397
0.0151432	0.647941
0.0247709	2.91573
0.0333256	4.98914
0.039659	7.96967
0.0601226	10.367
0.0676829	10.8854
0.0687522	11.1446
0.0795581	11.7925
0.088214	12.1165
0.0990161	12.8292
0.10658	13.2828
0.122815	13.8011
0.153124	14.7083
0.163949	15.0322
0.175862	15.2914
0.183433	15.6154
0.199687	15.8097
0.250625	16.2633
0.273384	16.4577
0.299401	16.5873
0.317827	16.7169
0.354695	16.7169
0.387221	16.7817
0.418667	16.7817
