Adsorption isotherm of Methanol on CuBTC
DOI: 10.1021/Jp405509m
Adsorbate Methanol: InChIKey OKKJLVBELUTLKV-UHFFFAOYSA-N
Temperature: 323 K
Tabular data in the source: 0
pressure (bar)	uptake (molecules/unitcell)
0.00582732	3.60289
0.0102718	12.6696
0.0141607	26.2696
0.0169384	39.3362
0.0191607	48.9362
0.0208273	55.6029
0.0302718	69.7362
0.0402718	82.2696
0.0613829	86.8029
0.0669384	90.0029
0.0713829	87.3362
0.0791607	90.2696
0.087494	93.2029
0.0986051	92.6696
0.125272	94.5362
0.139161	95.0695
0.15805	96.6696
0.175272	96.9362
0.201383	97.7362
0.229161	98.5362
0.267494	100.136
0.299716	101.47
0.335827	102.27
0.38305	103.87
0.419716	104.67
