Adsorption isotherm of Ethanol on CuBTC
DOI: 10.1021/Jp405509m
Adsorbate Ethanol: InChIKey LFQSCWFLJHTTHZ-UHFFFAOYSA-N
Temperature: 323 K
Tabular data in the source: 0
pressure (bar)	uptake (wt%)
0.000741	32.2628
0.00110485	34.6235
0.00146267	36.375
0.00221239	38.3549
0.00297027	40.0302
0.00369167	41.4771
0.00446135	42.6955
0.00531639	44.1424
0.00679561	45.8177
0.00754951	46.5031
0.00899642	47.6453
0.0125974	49.8537
0.0169127	51.0721
0.0227063	51.9098
0.0298498	52.8236
0.0392408	53.8897
0.0526831	54.6512
0.0697449	55.7173
0.0872943	56.7073
0.114758	58.0018
0.145662	59.5249
