Adsorption isotherm of M-Xylene on CuBTC
DOI: 10.1021/Jp405509m
Adsorbate M-Xylene: InChIKey IVSZLXZYQVIEFR-UHFFFAOYSA-N
Temperature: 323 K
Tabular data in the source: 0
pressure (bar)	uptake (mmol/g)
0.00023	4.76537
0.000337	4.86466
0.000459	4.93372
0.000559	4.98552
0.000662	5.02437
0.000772	5.05459
0.000995	5.11503
0.00114531	5.14093
0.00143447	5.17978
0.00192757	5.23158
0.00248312	5.28338
0.00348056	5.33949
0.00461168	5.37403
0.00637381	5.40856
0.00832718	5.45173
0.0108792	5.48626
0.0140147	5.50785
0.0185692	5.5467
0.0242601	5.57691
