Adsorption isotherm of Methanol on CuBTC
DOI: 10.1021/Jp405509m
Adsorbate Methanol: InChIKey OKKJLVBELUTLKV-UHFFFAOYSA-N
Temperature: 333 K
Tabular data in the source: 0
pressure (bar)	uptake (mmol/g)
0.00108655	6.57799
0.0015348	7.31488
0.00188339	7.74834
0.00225277	8.05176
0.00276444	8.29016
0.00371009	8.55024
0.00530811	8.9837
0.00730851	9.2221
0.00920087	9.48218
0.0108655	9.65556
0.0128314	9.7856
0.0163617	10.154
0.0185945	10.2191
0.0205982	10.3058
0.0290957	10.7609
0.0385524	11.3027
0.0461136	12.1046
0.0517403	12.6464
0.0626848	13.5784
0.0668251	13.9685
0.0820028	14.5537
0.0908392	14.8788
0.120364	15.3122
0.155456	15.7023
0.188339	16.0708
0.252765	16.4175
0.30234	16.6993
