Adsorption isotherm of Ethanol on CuBTC
DOI: 10.1021/Jp405509m
Adsorbate Ethanol: InChIKey LFQSCWFLJHTTHZ-UHFFFAOYSA-N
Temperature: 323 K
Tabular data in the source: 0
pressure (bar)	uptake (wt%)
0.000876	61.3637
0.00130983	64.641
0.00170149	66.3889
0.00249391	68.7923
0.00330547	70.7587
0.00429385	72.5066
0.00504385	74.473
0.00592487	77.0948
0.00785292	81.683
0.00851117	83.4309
0.00979864	85.3973
0.0134342	89.3377
0.017785	91.5207
0.0239893	92.8406
0.0313161	94.059
0.0406899	94.9729
0.0536163	96.039
0.0693402	96.9528
0.0913684	97.6635
0.117064	98.9327
0.154976	99.8973
