Adsorption isotherm of Dimethylforamide on CuBTC
DOI: 10.1021/Jp405509m
Adsorbate Dimethylforamide: InChIKey ZMXDDKWLCZADIW-UHFFFAOYSA-N
Temperature: 323 K
Tabular data in the source: 0
pressure (bar)	uptake (mmol/g)
0.000331	7.82142
0.00042	7.93394
0.000472	7.98645
0.000581	8.00896
0.000828	8.08397
0.00123126	8.18899
0.00183095	8.30152
0.00255155	8.36903
0.00345462	8.44405
0.0047453	8.54157
0.00666079	8.64659
0.00895341	8.6916
0.0121223	8.79662
0.0160613	8.85663
