Adsorption isotherm of Acetone on CuBTC
DOI: 10.1021/Jp405509m
Adsorbate Acetone: InChIKey CSCPPACGZOOCGX-UHFFFAOYSA-N
Temperature: 323 K
Tabular data in the source: 0
pressure (bar)	uptake (mmol/g)
0.00382179	7.03005
0.00495522	7.30383
0.00628723	7.58706
0.00775039	7.79476
0.00921555	7.96469
0.0123875	8.15351
0.0154922	8.28568
0.0180265	8.38953
0.0242312	8.50282
0.0296555	8.58779
0.0365569	8.66332
0.0419277	8.7294
0.0547559	8.80493
0.06014	8.78605
0.0651072	8.80493
0.0791091	8.88046
0.0975192	8.92766
0.122844	8.98431
0.152528	9.08815
0.185331	9.15424
0.23346	9.24865
0.269697	9.26753
0.325343	9.34306
0.367795	9.37138
0.434181	9.39026
