Adsorption isotherm of N-Heptane on CuBTC
DOI: 10.1021/Jp405509m
Adsorbate N-Heptane: InChIKey IMNFDUFMRHMDMM-UHFFFAOYSA-N
Temperature: 323 K
Tabular data in the source: 0
pressure (bar)	uptake (mmol/g)
0.000772	3.83238
0.00116154	3.92385
0.00156082	3.98331
0.00234724	4.07936
0.00311004	4.14339
0.00384081	4.1937
0.00448371	4.22571
0.00530839	4.25773
0.00683835	4.26688
0.00958523	4.29432
0.0123478	4.32633
0.0163606	4.33548
0.021076	4.37664
0.0271504	4.40408
0.0354711	4.42695
0.0463419	4.44525
0.0580418	4.44525
0.0726957	4.46354
0.087286	4.47269
0.109323	4.47269
