Adsorption isotherm of Ethanol on CuBTC
DOI: 10.1021/Jp405509m
Adsorbate Ethanol: InChIKey LFQSCWFLJHTTHZ-UHFFFAOYSA-N
Temperature: 323 K
Tabular data in the source: 0
pressure (bar)	uptake (wt%)
0.0008	21.9824
0.00117684	23.8101
0.00155797	24.9523
0.00234008	26.5515
0.00311974	27.8461
0.00393221	28.836
0.00468585	29.6737
0.00558392	31.1967
0.00718781	31.9582
0.00792941	32.1867
0.00899642	32.4913
0.0125974	34.1666
0.0164448	34.852
0.0225476	35.8419
0.0300599	36.4511
0.0400752	37.2888
0.0519492	37.8218
0.0682927	38.5834
0.0910463	39.9541
0.116379	41.3248
0.148759	43.3047
