Adsorption isotherm of Tetrahydrofuran on CuBTC
DOI: 10.1021/Jp405509m
Adsorbate Tetrahydrofuran: InChIKey WYURNTSHIVDZCO-UHFFFAOYSA-N
Temperature: 323 K
Tabular data in the source: 0
pressure (bar)	uptake (mmol/g)
0.00257003	7.67005
0.00428942	7.76891
0.00637861	7.80693
0.00845128	7.82214
0.0129355	7.86016
0.0172629	7.86776
0.0211273	7.87537
0.0245834	7.89058
0.0290206	7.89818
0.0373568	7.90579
0.0428451	7.89818
0.0487865	7.921
0.0531983	7.91339
0.0660534	7.921
0.0802588	7.91339
0.101101	7.91339
0.118492	7.921
0.141912	7.91339
0.214098	7.88297
0.263923	7.90579
0.313816	7.87537
