Adsorption isotherm of Methanol on CuBTC
DOI: 10.1021/Jp405509m
Adsorbate Methanol: InChIKey OKKJLVBELUTLKV-UHFFFAOYSA-N
Temperature: 323 K
Tabular data in the source: 0
pressure (bar)	uptake (molecules/unitcell)
0.00193843	74.8029
0.00249399	80.9362
0.00416065	88.1362
0.00471621	85.4696
0.00527176	91.3362
0.00693843	94.2696
0.0102718	96.9362
0.0136051	100.403
0.017494	104.136
0.0202718	105.736
0.0297162	118.003
0.0391607	133.736
0.052494	143.603
0.0708273	147.87
0.0941607	152.136
0.10805	154.003
0.121938	155.336
0.140827	158.003
0.156383	159.87
0.170827	160.936
0.186938	162.27
0.19805	163.07
0.220272	164.67
0.239716	165.47
0.254716	165.47
0.27805	167.336
0.300827	168.136
0.317494	168.936
