Adsorption isotherm of Argon on CuBTC
DOI: 10.1021/Jp405509m
Adsorbate Argon: InChIKey XKRFYHLGVUSROY-UHFFFAOYSA-N
Temperature: 87 K
Tabular data in the source: 0
pressure (bar)	uptake (cm3(STP)/g)
2.62e-06	10.2844
3.2e-06	13.3313
3.92e-06	14.3469
4.6e-06	18.4094
5.62e-06	22.4719
7.29e-06	26.5344
1.03e-05	35.6751
1.59e-05	45.8313
2.68e-05	53.9563
3.55e-05	60.0501
4.61e-05	63.0969
5.3e-05	66.1438
6.61e-05	67.1594
7.92e-05	71.2219
9.68e-05	73.2532
0.000195	87.4719
0.000303	98.6438
0.000386	117.941
0.000501	149.425
0.000588	198.175
0.000718	277.394
0.000794	321.066
0.000914	341.378
0.0010303	355.597
0.00150788	382.003
0.00203679	397.238
0.00304126	416.534
0.00410803	428.722
0.00512144	440.909
0.00613395	445.988
0.00705794	453.097
0.00862445	461.222
0.00972666	463.253
0.0160545	479.503
0.0372583	504.894
0.0534465	510.988
0.0782206	518.097
0.101506	523.175
0.121573	529.269
0.164217	536.378
0.204728	542.472
0.260401	546.534
0.331212	553.644
0.396693	557.706
0.47512	565.831
0.557758	571.925
0.616556	575.988
0.768655	585.128
0.86689	591.222
1.03827	603.409
