Adsorption isotherm of Ethanol on CuBTC
DOI: 10.1021/Jp405509m
Adsorbate Ethanol: InChIKey LFQSCWFLJHTTHZ-UHFFFAOYSA-N
Temperature: 323 K
Tabular data in the source: 0
pressure (bar)	uptake (mmol/g)
0.00082	7.63746
0.00105911	7.83795
0.00121913	8.02788
0.00165724	8.22837
0.00249553	8.57658
0.00326459	8.80873
0.00405764	9.06197
0.00497923	9.31522
0.00580536	9.57902
0.00676855	9.89558
0.0074026	10.1488
0.00841279	10.4126
0.0104565	10.8136
0.0129966	11.109
0.0167857	11.3834
0.0231115	11.605
0.0310175	11.7105
0.0400606	11.8477
0.0537645	11.9849
0.0703335	12.0693
0.0896846	12.2065
0.112906	12.2803
0.147701	12.428
