Adsorption isotherm of N-Hexane on CuBTC
DOI: 10.1021/Jp405509m
Adsorbate N-Hexane: InChIKey VLKZOEOYAKHREP-UHFFFAOYSA-N
Temperature: 323 K
Tabular data in the source: 0
pressure (bar)	uptake (mmol/g)
0.00215722	4.30726
0.00281834	4.39235
0.0035799	4.48276
0.00523423	4.56785
0.00713318	4.63166
0.0104295	4.70612
0.0140147	4.75398
0.017553	4.78589
0.0213746	4.81248
0.0256646	4.83375
0.0325996	4.85502
0.0364835	4.87097
0.0385956	4.87629
0.0504239	4.89756
0.0640493	4.91352
0.0813565	4.94543
0.10334	4.97202
0.127622	4.97202
0.151096	4.99329
0.181421	4.99861
0.22405	5.00924
0.27283	5.01456
0.30966	5.01456
