Adsorption isotherm of 2-Propanol on CuBTC
DOI: 10.1021/Jp405509m
Adsorbate 2-Propanol: InChIKey KFZMGEQAYNKOFK-UHFFFAOYSA-N
Temperature: 323 K
Tabular data in the source: 0
pressure (bar)	uptake (mmol/g)
0.000619	6.16221
0.000852	6.37252
0.00129966	6.58284
0.0017667	6.76888
0.0021132	6.9064
0.00246381	6.99538
0.00287259	7.09245
0.00385524	7.34321
0.00504333	7.4969
0.00694395	7.74766
0.00759443	7.7881
0.00908392	7.85282
0.0110054	7.96606
0.0157457	8.13593
0.0216796	8.24109
0.030234	8.34625
0.0410988	8.45949
0.0551578	8.55656
0.074026	8.63745
0.0956083	8.69408
0.125073	8.77497
