Adsorption isotherm of Methanol on CuBTC
DOI: 10.1021/Jp405509m
Adsorbate Methanol: InChIKey OKKJLVBELUTLKV-UHFFFAOYSA-N
Temperature: 323 K
Tabular data in the source: 0
pressure (bar)	uptake (molecules/unitcell)
0.00304954	3.06955
0.00527176	6.00289
0.00749399	18.8029
0.00804954	32.4029
0.00916065	44.9362
0.0113829	56.1362
0.0136051	69.4696
0.0147162	80.6696
0.0163829	96.4029
0.0213829	102.536
0.0258273	112.136
0.0297162	119.603
0.032494	124.67
0.0369384	134.803
0.0402718	140.136
0.0513829	147.07
0.0608273	152.136
0.0708273	155.07
0.0819384	158.536
0.0902718	159.87
0.0986051	161.736
0.113605	163.07
0.130272	163.87
0.138605	164.67
0.154716	166.803
0.176383	168.67
0.191938	169.47
0.199716	170.27
0.231383	170.536
0.260827	171.603
0.283605	172.136
0.299161	172.67
0.320272	173.203
0.341383	174.003
0.37805	174.803
0.395827	176.136
0.419161	176.67
