Adsorption isotherm of Methanol on CuBTC
DOI: 10.1021/Jp405509m
Adsorbate Methanol: InChIKey OKKJLVBELUTLKV-UHFFFAOYSA-N
Temperature: 343 K
Tabular data in the source: 0
pressure (bar)	uptake (mmol/g)
0.0011436	5.14757
0.00159484	6.10119
0.00195707	6.77305
0.00283607	7.48826
0.00395514	7.92172
0.00580536	8.46354
0.00759443	8.76697
0.0094393	8.96202
0.0115832	9.13541
0.013505	9.33047
0.0174424	9.56887
0.0203364	9.72058
0.0283607	10.089
0.0395514	10.4575
0.0510826	10.8909
0.0721561	11.7145
0.0908392	12.7548
0.118834	14.0118
0.149603	14.8137
0.203364	15.2255
0.252765	15.5289
0.306232	15.8757
