Adsorption isotherm of Carbon Dioxide on 13X-5CB
DOI: 10.1016/j.seppur.2021.119917
Article source: Figure 6A
Adsorbate Carbon Dioxide: InChIKey CURLTUGMZLYLDI-UHFFFAOYSA-N
Kind: experiment
Temperature: 283 K
Tabular data in the source: 0
pressure (bar)	uptake (mmol/g)
0	0.010558
0	0.401207
0	0.781297
0	1.15083
0	1.53092
0.002654	1.86878
0.006634	2.22775
0.011942	2.58673
0.018577	2.93514
0.045115	3.63198
0.083595	4.2549
0.151267	4.79864
0.253438	5.24208
0.391435	5.5641
0.558625	5.80694
0.728468	5.98642
0.903619	6.12368
1.30169	6.32428
1.59891	6.42986
1.89349	6.51433
2.19602	6.58823
