Adsorption isotherm of Carbon Dioxide on Zeolite 13X
DOI: 10.1016/j.seppur.2021.119917
Article source: Figure 6B
Adsorbate Carbon Dioxide: InChIKey CURLTUGMZLYLDI-UHFFFAOYSA-N
Kind: experiment
Temperature: 323 K
Tabular data in the source: 0
pressure (bar)	uptake (mmol/g)
-0.00157	-0.03522
0.064377	1.5761
0.117763	2.32453
0.175859	2.64151
0.262218	3.00252
0.47105	3.5044
0.734838	3.86541
1.01747	4.13836
1.34877	4.3673
