Adsorption isotherm of Nitrogen on Zeolite 13X
DOI: 10.1016/j.seppur.2021.119917
Article source: Figure 6B
Adsorbate Nitrogen: InChIKey IJGRMHOSHXDMSA-UHFFFAOYSA-N
Kind: experiment
Temperature: 303 K
Tabular data in the source: 0
pressure (bar)	uptake (mmol/g)
-0.00157	0.008805
0.200981	0.061635
0.328165	0.10566
0.497743	0.158491
0.645339	0.184906
0.814917	0.246541
0.975074	0.290566
1.1792	0.334591
1.29382	0.361006
1.43356	0.369811
1.52149	0.396226
