Adsorption isotherm of Nitrogen on 13X-5CB
DOI: 10.1016/j.seppur.2021.119917
Article source: Figure 6A
Adsorbate Nitrogen: InChIKey IJGRMHOSHXDMSA-UHFFFAOYSA-N
Kind: experiment
Temperature: 323 K
Tabular data in the source: 0
pressure (bar)	uptake (mmol/g)
0.002654	0
0.070326	0.010558
0.136671	0.026395
0.201689	0.031674
0.266707	0.042232
0.330398	0.05279
0.394089	0.063348
0.45778	0.073906
0.516164	0.084465
0.577201	0.095023
0.635585	0.095023
0.693969	0.105581
0.752352	0.116139
0.808082	0.126697
0.861158	0.137255
0.916888	0.137255
0.964656	0.158371
1.01242	0.158371
1.3415	0.211161
1.66791	0.248115
1.99698	0.295626
