Adsorption isotherm of Carbon Dioxide on 13X-5CB
DOI: 10.1016/j.seppur.2021.119917
Article source: Figure 6A
Adsorbate Carbon Dioxide: InChIKey CURLTUGMZLYLDI-UHFFFAOYSA-N
Kind: experiment
Temperature: 303 K
Tabular data in the source: 0
pressure (bar)	uptake (mmol/g)
0	0.031674
0	0.453997
0.001327	1.01357
0.009288	1.47813
0.01725	1.94269
0.027865	2.39668
0.057057	2.84012
0.080941	3.30468
0.126055	3.63198
0.17117	4.01207
0.240169	4.31825
0.319783	4.5822
0.41532	4.84615
0.542702	5.05731
0.643546	5.21569
0.762967	5.34238
0.882388	5.47964
1.14512	5.65912
1.42376	5.82805
1.71303	5.94419
2.0076	6.06033
