Adsorption isotherm of Carbon Dioxide on 13X-5CB
DOI: 10.1016/j.seppur.2021.119917
Article source: Figure 6A
Adsorbate Carbon Dioxide: InChIKey CURLTUGMZLYLDI-UHFFFAOYSA-N
Kind: experiment
Temperature: 323 K
Tabular data in the source: 0
pressure (bar)	uptake (mmol/g)
0	0
0	0.258673
0.007961	0.92911
0.023884	1.34615
0.043788	1.79487
0.110133	2.56561
0.216285	3.25188
0.293245	3.65309
0.362244	3.82202
0.476357	4.1282
0.553317	4.28658
0.619662	4.39216
0.769602	4.59276
0.894331	4.72474
1.00579	4.84615
1.26719	5.04676
2.12437	5.47964
