Adsorption isotherm of Nitrogen on Zeolite 13X
DOI: 10.1016/j.seppur.2021.119917
Article source: Figure 6B
Adsorbate Nitrogen: InChIKey IJGRMHOSHXDMSA-UHFFFAOYSA-N
Kind: experiment
Temperature: 283 K
Tabular data in the source: 0
pressure (bar)	uptake (mmol/g)
-0.00157	0
0.073798	0.05283
0.152306	0.08805
0.273209	0.158491
0.394112	0.193711
0.541708	0.255346
0.698724	0.325786
0.869872	0.387421
1.08499	0.466667
1.28754	0.537107
1.51678	0.598742
