Adsorption isotherm of Nitrogen on Zeolite 13X
DOI: 10.1016/j.seppur.2021.119917
Article source: Figure 6B
Adsorbate Nitrogen: InChIKey IJGRMHOSHXDMSA-UHFFFAOYSA-N
Kind: experiment
Temperature: 323 K
Tabular data in the source: 0
pressure (bar)	uptake (mmol/g)
-0.00157	0.008805
0.067517	0.026415
0.142885	0.03522
0.292051	0.07044
0.463199	0.096855
0.683023	0.140881
0.84632	0.158491
1.00334	0.184906
1.16349	0.202516
1.36761	0.228931
1.55132	0.255346
