Adsorption isotherm of Carbon Dioxide on Zeolite 13X
DOI: 10.1016/j.seppur.2021.119917
Article source: Figure 6B
Adsorbate Carbon Dioxide: InChIKey CURLTUGMZLYLDI-UHFFFAOYSA-N
Kind: experiment
Temperature: 303 K
Tabular data in the source: 0
pressure (bar)	uptake (mmol/g)
-0.00314	0
0.053386	1.80503
0.103631	2.64151
0.175859	3.22264
0.255937	3.79497
0.47262	4.28805
0.744259	4.64906
0.976644	4.86918
1.36918	5.10692
1.59686	5.2478
