Adsorption isotherm of Nitrogen on 13X-5CB
DOI: 10.1016/j.seppur.2021.119917
Article source: Figure 6A
Adsorbate Nitrogen: InChIKey IJGRMHOSHXDMSA-UHFFFAOYSA-N
Kind: experiment
Temperature: 283 K
Tabular data in the source: 0
pressure (bar)	uptake (mmol/g)
0.003981	0.010558
0.05971	0.042232
0.118094	0.073906
0.175151	0.105581
0.230881	0.147813
0.290591	0.190045
0.346321	0.221719
0.407358	0.253394
0.465742	0.295626
0.518818	0.3273
0.577201	0.358974
0.627624	0.390649
0.676719	0.406486
0.731122	0.43816
0.781544	0.464555
0.829312	0.496229
0.877081	0.506787
0.919542	0.533183
1.00446	0.559578
1.28709	0.670437
1.57636	0.760181
1.8696	0.812971
2.16285	0.913273
