Adsorption isotherm of Carbon Dioxide on Zeolite 13X
DOI: 10.1016/j.seppur.2021.119917
Article source: Figure 6B
Adsorbate Carbon Dioxide: InChIKey CURLTUGMZLYLDI-UHFFFAOYSA-N
Kind: experiment
Temperature: 283 K
Tabular data in the source: 0
pressure (bar)	uptake (mmol/g)
-0.00157	0
0.062807	2.23648
0.105201	3.28428
0.177429	4.0239
0.233955	4.51698
0.46791	5.05409
0.758391	5.34465
1.01119	5.57359
1.34563	5.74969
