Adsorption isotherm of Nitrogen on 13X-5CB
DOI: 10.1016/j.seppur.2021.119917
Article source: Figure 6A
Adsorbate Nitrogen: InChIKey IJGRMHOSHXDMSA-UHFFFAOYSA-N
Kind: experiment
Temperature: 303 K
Tabular data in the source: 0
pressure (bar)	uptake (mmol/g)
0.001327	0.010558
0.065018	0.031674
0.124729	0.058069
0.183112	0.073906
0.242823	0.105581
0.30386	0.116139
0.35959	0.137255
0.4193	0.158371
0.479011	0.168929
0.532087	0.190045
0.585163	0.211161
0.638239	0.242836
0.687334	0.253394
0.741737	0.263952
0.786852	0.27451
0.842581	0.306184
0.89035	0.306184
0.939445	0.3273
1.02304	0.348416
1.32557	0.443439
1.63341	0.527903
1.9386	0.612368
