Adsorption isotherm of Nitrogen on [Cd4Cl3(4-pt)4(OH)(H2O)3]
DOI: 10.1039/B907149k
Adsorbate Nitrogen: InChIKey IJGRMHOSHXDMSA-UHFFFAOYSA-N
Temperature: 77 K
Tabular data in the source: 0
pressure (bar)	uptake (cm3(STP)/g)
0.00166072	0.00166072
0.00332144	184.909
0.00498215	346.545
0.00664287	365.939
0.00996431	385.332
0.0166072	399.547
0.0232501	408.59
0.0348751	417.626
0.0548037	425.358
0.076393	429.209
0.0963216	431.768
0.119572	436.91
0.142822	440.758
0.159429	442.029
0.174375	443.302
0.194304	443.276
0.23084	445.813
0.250768	447.08
0.269036	449.642
0.292286	450.904
0.315536	450.873
0.357054	454.697
0.388608	454.655
0.401894	454.637
0.443412	458.462
0.48659	459.697
0.581251	463.45
0.692519	469.768
0.773895	478.711
0.865234	507.038
0.966538	567.679
