Adsorption isotherm of Hydrogen on [Cd4(OH)2(4-pt)6(DMF)4]
DOI: 10.1039/B907149k
Adsorbate Hydrogen: InChIKey UFHFLCQGNIYNRP-UHFFFAOYSA-N
Temperature: 77 K
Tabular data in the source: 0
pressure (bar)	uptake (wt%)
0.0117637	0.137443
0.015685	0.198529
0.0196062	0.244344
0.0254881	0.295249
0.0333306	0.361425
0.0411731	0.402149
0.0568581	0.473416
0.0745037	0.50905
0.0921493	0.539593
0.109795	0.565045
0.141165	0.600679
0.194102	0.626131
0.254881	0.656674
0.270566	0.661765
0.31566	0.682127
0.372518	0.697398
0.401928	0.702489
0.433298	0.71776
0.494077	0.733032
0.533289	0.733032
0.550935	0.738122
0.613675	0.753394
0.666612	0.768665
0.796013	0.783937
0.935217	0.799208
1.06266	0.81957
1.13716	0.829751
