Adsorption isotherm of Nitrogen on [Cd5Cl6(4-pt)4(H2O)4]
DOI: 10.1039/B907149k
Adsorbate Nitrogen: InChIKey IJGRMHOSHXDMSA-UHFFFAOYSA-N
Temperature: 77 K
Tabular data in the source: 0
pressure (bar)	uptake (cm3(STP)/g)
3.79e-05	9.17431
0.000132634	32.1101
0.00111792	270.642
0.00114444	277.064
0.002755	266.972
0.00447167	282.569
0.00455504	302.752
0.0061656	292.661
0.00623381	309.174
0.0128921	321.101
0.0178943	332.11
0.0261858	339.45
0.0592648	347.706
0.0807592	351.376
0.0972892	353.211
0.12208	355.046
0.145216	355.963
0.171663	358.716
0.19811	361.468
0.229499	360.55
0.246025	361.468
0.2642	361.468
0.290636	361.468
0.310467	362.385
0.358386	363.303
0.38813	364.22
0.401348	364.22
0.442661	366.055
0.487276	366.972
0.586418	368.807
0.673991	369.725
0.774782	370.642
0.872279	374.312
0.96485	385.321
