Adsorption isotherm of Nitrogen on [Cd4(OH)2(4-pt)6(H2O)4]
DOI: 10.1039/B907149k
Adsorbate Nitrogen: InChIKey IJGRMHOSHXDMSA-UHFFFAOYSA-N
Temperature: 77 K
Tabular data in the source: 0
pressure (bar)	uptake (cm3(STP)/g)
0.00204531	0.00204531
0.00409061	383.864
0.00613592	424.183
0.00818122	459.664
0.0102265	472.564
0.0184077	485.453
0.026589	496.73
0.0388608	504.774
0.0634045	514.411
0.0899934	519.205
0.118628	522.384
0.145217	523.952
0.163624	525.535
0.184077	527.114
0.210666	527.07
0.231119	528.649
0.247482	528.621
0.272026	528.581
0.290433	530.163
0.314977	531.735
0.357928	533.277
0.388608	534.839
0.417242	534.791
0.445877	536.357
0.50519	536.258
0.599274	539.328
0.697449	539.165
0.793578	543.844
0.8713	546.941
0.965384	556.462
