Adsorption isotherm of Hydrogen on [Cd4Cl3(4-pt)4(OH)(H2O)3]
DOI: 10.1039/B907149k
Adsorbate Hydrogen: InChIKey UFHFLCQGNIYNRP-UHFFFAOYSA-N
Temperature: 77 K
Tabular data in the source: 0
pressure (bar)	uptake (wt%)
0	0.0545455
0.0021547	0.186364
0.0107735	0.263636
0.0150829	0.354545
0.021547	0.445455
0.0258565	0.527273
0.0323206	0.613636
0.0452488	0.690909
0.0560223	0.759091
0.0646411	0.827273
0.0840335	0.904545
0.0991164	0.972727
0.114199	1.00909
0.137901	1.08182
0.170222	1.16364
0.189614	1.18182
0.254255	1.27727
0.265029	1.29091
0.312432	1.35455
0.377073	1.41364
0.40293	1.43636
0.433096	1.46364
0.489118	1.50909
0.534367	1.54091
0.54945	1.55455
0.609781	1.59091
0.665804	1.61818
0.69166	1.63636
0.799396	1.69091
0.930833	1.74545
1.06227	1.80909
1.13337	1.83636
