Adsorption isotherm of Hydrogen on [Cd5Cl6(4-pt)4(H2O)4]
DOI: 10.1039/B907149k
Adsorbate Hydrogen: InChIKey UFHFLCQGNIYNRP-UHFFFAOYSA-N
Temperature: 77 K
Tabular data in the source: 0
pressure (bar)	uptake (wt%)
0.00646411	0.00646411
0.0129282	0.245001
0.0150829	0.277427
0.0193923	0.306241
0.0237018	0.345866
0.0301659	0.417916
0.03663	0.464741
0.0409394	0.493555
0.0495582	0.536769
0.0603317	0.590787
0.0711053	0.63039
0.0797241	0.666397
0.094807	0.7204
0.105581	0.745589
0.116354	0.781589
0.135746	0.82837
0.187459	0.925493
0.254255	1.00815
0.269338	1.02612
0.314587	1.07641
0.372764	1.13388
0.400775	1.1554
0.43525	1.18412
0.489118	1.22718
0.530057	1.25587
0.547295	1.26662
0.607627	1.30606
0.665804	1.33469
0.687351	1.35624
0.743373	1.38848
0.799396	1.40991
0.864037	1.44573
0.935142	1.47792
0.993319	1.50295
1.06227	1.54236
1.09459	1.55306
1.13553	1.57094
