Adsorption isotherm of Hydrogen on [Cd4(OH)2(4-pt)6(H2O)4]
DOI: 10.1039/B907149k
Adsorbate Hydrogen: InChIKey UFHFLCQGNIYNRP-UHFFFAOYSA-N
Temperature: 77 K
Tabular data in the source: 0
pressure (bar)	uptake (wt%)
0.00392125	0.0559955
0.00588187	0.132353
0.00980312	0.249434
0.0137244	0.361425
0.0196062	0.427602
0.0235275	0.519231
0.0274487	0.595588
0.0372518	0.661765
0.0450943	0.753394
0.0529368	0.829751
0.0588187	0.890837
0.0705824	0.962104
0.0843068	1.04355
0.0980312	1.10464
0.109795	1.15554
0.12744	1.22172
0.137244	1.24717
0.18822	1.38462
0.254881	1.51697
0.268605	1.53733
0.3137	1.61369
0.37644	1.69005
0.401928	1.72568
0.435258	1.76131
0.488195	1.81222
0.53525	1.85803
0.547014	1.8733
0.607793	1.91403
0.662691	1.95984
0.688179	1.9802
0.797974	2.05147
0.929335	2.12783
1.06462	2.20419
1.13324	2.24491
