Adsorption isotherm of Nitrogen on [Cd4(OH)2(4-pt)6(DMF)4]
DOI: 10.1039/B907149k
Adsorbate Nitrogen: InChIKey IJGRMHOSHXDMSA-UHFFFAOYSA-N
Temperature: 77 K
Tabular data in the source: 0
pressure (bar)	uptake (cm3(STP)/g)
0.00204531	59.674
0.00409061	91.9287
0.0163624	120.941
0.0245437	127.379
0.0409061	128.964
0.0613592	128.93
0.0797669	130.513
0.0981747	130.482
0.124764	132.051
0.151353	132.007
0.171806	133.586
0.194304	133.548
0.212712	135.131
0.247482	135.073
0.272026	135.032
0.292479	136.611
0.331339	138.16
0.407016	136.421
0.46633	139.548
0.507236	139.48
0.603365	140.934
0.697449	142.39
0.793578	143.844
0.891753	146.907
0.965384	174.204
