Adsorption isotherm of Thallium, Water on Fe-Mn binary oxides
DOI: 10.1016/j.jhazmat.2017.05.033
Article source: Figure 6
Adsorbate Thallium: InChIKey BKVIYDNLLOSFOA-UHFFFAOYSA-N
Adsorbate Water: InChIKey XLYOFNOQVPJJNP-UHFFFAOYSA-N
Kind: experiment
Temperature: 298 K
Tabular data in the source: 0
pressure (bar)	Thallium fraction	Thallium uptake (mg/g)	Water fraction	Water uptake (mg/g)	total uptake (mg/g)
1.01325	1.16	34.7826			
1.01325	11.32	118.945			
1.01325	23.7	133.236			
1.01325	31.77	135.364			
1.01325	58.29	178.935			
1.01325	157.93	182.88			
1.01325	167.05	166.36			
1.01325	195.09	108.231			
1.01325	255.46	186.441			
1.01325	400.71	195.037			
1.01325	407.02	183.427			
