Adsorption isotherm of Thallium, Water on Fe-Mn binary oxides
DOI: 10.1016/j.jhazmat.2017.05.033
Article source: Figure 6
Adsorbate Thallium: InChIKey BKVIYDNLLOSFOA-UHFFFAOYSA-N
Adsorbate Water: InChIKey XLYOFNOQVPJJNP-UHFFFAOYSA-N
Kind: experiment
Temperature: 308 K
Tabular data in the source: 0
pressure (bar)	Thallium fraction	Thallium uptake (mg/g)	Water fraction	Water uptake (mg/g)	total uptake (mg/g)
1.01325	1.16	127.193			
1.01325	4.91	120.137			
1.01325	8.45	146.752			
1.01325	18.18	179.964			
1.01325	22.37	146.381			
1.01325	23.7	141.189			
1.01325	56.41	187.079			
1.01325	58.18	184.757			
1.01325	59.73	175.692			
1.01325	148.58	199.613			
1.01325	149.24	199.604			
1.01325	150.57	197.848			
1.01325	245.16	208.569			
1.01325	247.81	203.31			
1.01325	250.91	194.646			
1.01325	370.05	257.077			
1.01325	372.7	249.366			
1.01325	375.79	240.67			
