Adsorption isotherm of Thallium, Water on Fe-Mn binary oxides
DOI: 10.1016/j.jhazmat.2017.05.033
Article source: Figure 6
Adsorbate Thallium: InChIKey BKVIYDNLLOSFOA-UHFFFAOYSA-N
Adsorbate Water: InChIKey XLYOFNOQVPJJNP-UHFFFAOYSA-N
Kind: experiment
Temperature: 318 K
Tabular data in the source: 0
pressure (bar)	Thallium fraction	Thallium uptake (mg/g)	Water fraction	Water uptake (mg/g)	total uptake (mg/g)
1.01325	0.27	19.1083			
1.01325	6.24	166.311			
1.01325	10.44	176.203			
1.01325	46.02	209.506			
1.01325	49.78	209.125			
1.01325	141.51	218.575			
1.01325	145.04	206.937			
1.01325	247.37	202.669			
1.01325	251.35	192.738			
1.01325	381.98	232.21			
1.01325	387.28	220.64			
1.01325	398.55	201.203			
