Adsorption isotherm of Hydrogen on Pt-PCM-18
DOI: 10.1021/Ja408508m
Adsorbate Hydrogen: InChIKey UFHFLCQGNIYNRP-UHFFFAOYSA-N
Temperature: 423 K
Tabular data in the source: 0
pressure (bar)	uptake (cm3(STP)/g)
0.0309707	0.000137
0.0816749	0.190278
0.129562	0.431123
0.180266	0.735348
0.228154	1.0776
0.283083	1.48324
0.453506	2.91563
0.481675	3.18183
0.502802	3.37197
0.552097	3.79028
0.602802	4.19591
0.676041	4.77901
0.726745	5.23535
0.776041	5.61563
0.826745	6.07197
0.880266	6.50295
0.928154	6.84521
0.978858	7.17479
