Adsorption isotherm of Hydrogen on Pt-PCM-18
DOI: 10.1021/Ja408508m
Adsorbate Hydrogen: InChIKey UFHFLCQGNIYNRP-UHFFFAOYSA-N
Temperature: 77 K
Tabular data in the source: 0
pressure (bar)	uptake (cm3(STP)/g)
0.0478721	1.85999
0.0985763	4.95858
0.150689	7.97971
0.197168	10.8459
0.273224	13.867
0.301393	16.1135
0.370407	18.9797
0.402802	19.5994
0.426745	22.6206
0.47745	24.2473
0.528154	25.4093
0.554914	28.4304
0.602802	30.1346
0.653506	31.2191
0.678858	34.9375
0.729562	36.9515
0.781675	38.9656
0.802802	42.6065
0.853506	44.7755
0.907027	46.0924
0.925337	50.2755
0.97745	52.2121
0.999985	52.9093
