Adsorption isotherm of Hydrogen on Pd-PCM-18
DOI: 10.1021/Ja408508m
Adsorbate Hydrogen: InChIKey UFHFLCQGNIYNRP-UHFFFAOYSA-N
Temperature: 425 K
Tabular data in the source: 0
pressure (bar)	uptake (cm3(STP)/g)
0.0520974	0.266304
0.0999848	0.621233
0.153506	1.0156
0.202802	1.32123
0.253506	1.69588
0.297168	1.97194
0.350689	2.33673
0.402802	2.66208
0.47745	3.19447
0.552097	3.69729
0.630971	4.14095
0.67745	4.43673
0.730971	4.72264
0.80421	5.1663
0.854914	5.45222
0.90421	5.75785
0.976041	6.1818
