Adsorption isotherm of Hydrogen on Pt-PCM-18
DOI: 10.1021/Ja408508m
Adsorbate Hydrogen: InChIKey UFHFLCQGNIYNRP-UHFFFAOYSA-N
Temperature: 77 K
Tabular data in the source: 0
pressure (bar)	uptake (cm3(STP)/g)
0.0280373	11.6379
0.05521	17.5587
0.0780923	21.2485
0.126717	26.0537
0.176772	30.0009
0.223967	32.4036
0.304055	35.8359
0.378422	38.1527
0.429908	39.0966
0.45279	40.727
0.527157	42.4432
0.582933	43.2155
0.601525	44.5884
0.705925	46.6478
0.777432	47.5059
0.807465	49.222
0.927597	50.8524
0.9562	52.3112
0.996244	52.9976
