Adsorption isotherm of Hydrogen on Pd-PCM-18
DOI: 10.1021/Ja408508m
Adsorbate Hydrogen: InChIKey UFHFLCQGNIYNRP-UHFFFAOYSA-N
Temperature: 87 K
Tabular data in the source: 0
pressure (bar)	uptake (cm3(STP)/g)
0.0266072	2.11314
0.0780923	6.40357
0.126717	9.49268
0.203945	13.0108
0.278312	15.5851
0.35268	18.2452
0.428477	20.562
0.527157	22.7072
0.601525	24.1659
0.630128	25.1956
0.704495	26.4828
0.778862	27.8557
0.800315	28.8854
0.876112	30.0867
0.95477	31.2881
0.997674	31.8029
