Adsorption isotherm of Hydrogen on Pt-PCM-18
DOI: 10.1021/Ja408508m
Adsorbate Hydrogen: InChIKey UFHFLCQGNIYNRP-UHFFFAOYSA-N
Temperature: 425 K
Tabular data in the source: 0
pressure (bar)	uptake (cm3(STP)/g)
0.0239284	0.0691208
0.0774495	0.493064
0.125337	0.926867
0.176041	1.36067
0.226745	1.75504
0.27745	2.15926
0.354914	2.73109
0.428154	3.28321
0.498576	3.83532
0.57745	4.44659
0.657731	4.9494
0.702802	5.34377
0.752097	5.6987
0.805619	6.02405
0.854914	6.35926
0.902802	6.72405
0.956323	7.00997
0.978858	7.16771
