Adsorption isotherm of Hydrogen on Pd-PCM-18
DOI: 10.1021/Ja408508m
Adsorbate Hydrogen: InChIKey UFHFLCQGNIYNRP-UHFFFAOYSA-N
Temperature: 77 K
Tabular data in the source: 0
pressure (bar)	uptake (cm3(STP)/g)
0.0266072	3.57189
0.0523498	6.40357
0.103835	10.7798
0.149599	13.3541
0.203945	15.9283
0.228257	17.4729
0.302625	20.1329
0.379853	22.1923
0.404165	23.0504
0.508565	25.5389
0.531448	26.4828
0.65158	28.7138
0.675892	29.5719
0.807465	31.8887
0.826057	32.661
0.929027	34.2914
0.95191	35.6643
0.999104	36.265
