Adsorption isotherm of Hydrogen on Pt-PCM-18
DOI: 10.1021/Ja408508m
Adsorbate Hydrogen: InChIKey UFHFLCQGNIYNRP-UHFFFAOYSA-N
Temperature: 87 K
Tabular data in the source: 0
pressure (bar)	uptake (cm3(STP)/g)
0.025177	6.48938
0.0509196	11.0372
0.0780923	14.9844
0.100975	17.5587
0.15389	21.7633
0.199654	24.8524
0.25257	27.5125
0.324077	30.6874
0.401305	33.6049
0.478532	36.0075
0.55147	37.6379
0.575782	39.2683
0.65587	40.9844
0.723087	42.7006
0.776002	43.4729
0.803175	45.0174
0.878972	46.4762
0.95477	47.5917
0.996244	48.6214
