Adsorption isotherm of Hydrogen on Pt-PCM-18
DOI: 10.1021/Ja408508m
Adsorbate Hydrogen: InChIKey UFHFLCQGNIYNRP-UHFFFAOYSA-N
Temperature: 77 K
Tabular data in the source: 0
pressure (bar)	uptake (cm3(STP)/g)
0.02252	0.852951
0.0746326	3.64168
0.125337	5.8107
0.197168	8.21211
0.226745	10.536
0.271816	12.4727
0.353506	15.029
0.37745	17.5853
0.423928	19.2896
0.499985	21.2262
0.529562	24.7896
0.57745	26.6487
0.652097	28.9727
0.67745	32.3037
0.728154	34.1628
0.778858	35.867
0.802802	39.2755
0.850689	41.0572
0.899985	42.529
0.923928	46.7896
0.957731	47.7191
0.995759	48.8037
