Adsorption isotherm of Carbon Dioxide on Pt-PCM-18
DOI: 10.1021/Ja408508m
Adsorbate Carbon Dioxide: InChIKey CURLTUGMZLYLDI-UHFFFAOYSA-N
Temperature: 196 K
Tabular data in the source: 0
pressure (bar)	uptake (cm3(STP)/g)
0.0223168	41.4254
0.0509196	46.1449
0.0723718	49.5772
0.123857	53.4386
0.173912	56.2989
0.225397	58.4441
0.299764	60.9469
0.35411	62.52
0.424187	64.4507
0.478532	65.5233
0.527157	66.5959
0.577212	67.5255
0.625837	68.5981
0.677322	69.3132
0.725947	70.3858
0.777432	71.2439
0.8518	72.4595
0.923307	73.4606
0.976222	74.2472
