Adsorption isotherm of Hydrogen on Pt-PCM-18
DOI: 10.1021/Ja408508m
Adsorbate Hydrogen: InChIKey UFHFLCQGNIYNRP-UHFFFAOYSA-N
Temperature: 77 K
Tabular data in the source: 0
pressure (bar)	uptake (cm3(STP)/g)
0.0253369	0.698022
0.0746326	3.64168
0.126745	5.96563
0.202802	8.75436
0.228154	11.0783
0.27745	12.86
0.353506	15.2614
0.374633	18.1276
0.446464	20.3741
0.50421	21.691
0.530971	25.4868
0.580266	27.191
0.657731	29.36
0.681675	33.0008
0.77745	36.3318
0.802802	40.0501
0.902802	42.9938
0.928154	47.7966
0.999985	49.6558
