Adsorption isotherm of Carbon Dioxide on Pd-PCM-18
DOI: 10.1021/Ja408508m
Adsorbate Carbon Dioxide: InChIKey CURLTUGMZLYLDI-UHFFFAOYSA-N
Temperature: 196 K
Tabular data in the source: 0
pressure (bar)	uptake (cm3(STP)/g)
0.0266072	24.1207
0.0509196	28.7687
0.0723718	31.4859
0.123857	35.4903
0.176772	38.2076
0.228257	40.4958
0.275452	42.641
0.35411	44.9293
0.428477	47.146
0.504275	49.1482
0.580073	51.0789
0.65158	52.7235
0.727377	54.5112
0.803175	56.4419
0.877542	58.1581
0.95048	59.7312
0.974792	60.4463
