Adsorption isotherm of Hydrogen on Pt-PCM-18
DOI: 10.1021/Ja408508m
Adsorbate Hydrogen: InChIKey UFHFLCQGNIYNRP-UHFFFAOYSA-N
Temperature: 77 K
Tabular data in the source: 0
pressure (bar)	uptake (cm3(STP)/g)
0.0253369	0.775486
0.0732242	3.56422
0.123928	5.8107
0.197168	8.4445
0.22252	10.6135
0.274633	12.5501
0.352097	15.1065
0.374633	17.7403
0.426745	19.522
0.501393	21.4586
0.526745	24.867
0.576041	26.8811
0.650689	29.2825
0.678858	32.4586
0.726745	34.1628
0.77745	36.2544
0.799985	39.5853
0.853506	41.2896
0.901393	42.529
0.923928	47.1769
0.995759	49.2684
