Adsorption isotherm of Copper(II) Ion, Water on Magnetic Cation Exchange Resin
DOI: 10.1016/j.chemosphere.2017.03.005
Article source: Figure 3
Adsorbate Copper(II) Ion: InChIKey JPVYNHNXODAKFH-UHFFFAOYSA-N
Adsorbate Water: InChIKey XLYOFNOQVPJJNP-UHFFFAOYSA-N
Kind: experiment
Temperature: 293 K
Tabular data in the source: 0
pressure (bar)	Copper(II) Ion fraction	Copper(II) Ion uptake (mmol/g)	Water fraction	Water uptake (mmol/g)	total uptake (mmol/g)
1.01325	0.06337	0.4781			
1.01325	0.21217	1.1489			
1.01325	0.41393	2.0487			
1.01325	0.99149	2.7296			
1.01325	1.83386	3.4737			
