Adsorption isotherm of Copper(II) Ion, Atenolol, Water on Magnetic Cation Exchange Resin
DOI: 10.1016/j.chemosphere.2017.03.005
Article source: Figure 3
Adsorbate Copper(II) Ion: InChIKey JPVYNHNXODAKFH-UHFFFAOYSA-N
Adsorbate Atenolol: InChIKey METKIMKYRPQLGS-UHFFFAOYSA-N
Adsorbate Water: InChIKey XLYOFNOQVPJJNP-UHFFFAOYSA-N
Kind: experiment
Temperature: 293 K
Tabular data in the source: 0
pressure (bar)	Copper(II) Ion fraction	Copper(II) Ion uptake (mmol/g)	Atenolol fraction	Atenolol uptake (mmol/g)	Water fraction	Water uptake (mmol/g)	total uptake (mmol/g)
1.01325			0.01762	0.26355			
1.01325			0.16153	0.61238			
1.01325			0.41003	1.07082			
1.01325			1.30032	1.6936			
1.01325			1.91838	1.88036			
