Adsorption isotherm of Copper(II) Ion, Water on Magnetic Cation Exchange Resin
DOI: 10.1016/j.chemosphere.2017.03.005
Article source: Figure 3
Adsorbate Copper(II) Ion: InChIKey JPVYNHNXODAKFH-UHFFFAOYSA-N
Adsorbate Water: InChIKey XLYOFNOQVPJJNP-UHFFFAOYSA-N
Kind: experiment
Temperature: 293 K
Tabular data in the source: 0
pressure (bar)	Copper(II) Ion fraction	Copper(II) Ion uptake (mmol/g)	Water fraction	Water uptake (mmol/g)	total uptake (mmol/g)
1.01325	0.07375	0.3946			
1.01325	0.22628	1.0682			
1.01325	0.45507	1.7752			
1.01325	1.03339	2.474			
1.01325	1.85639	3.0433			
