Adsorption isotherm of Atenolol, Water on Magnetic Cation Exchange Resin
DOI: 10.1016/j.chemosphere.2017.03.005
Article source: Figure 3
Adsorbate Atenolol: InChIKey METKIMKYRPQLGS-UHFFFAOYSA-N
Adsorbate Water: InChIKey XLYOFNOQVPJJNP-UHFFFAOYSA-N
Kind: experiment
Temperature: 293 K
Tabular data in the source: 0
pressure (bar)	Atenolol fraction	Atenolol uptake (mmol/g)	Water fraction	Water uptake (mmol/g)	total uptake (mmol/g)
1.01325	0.01781	0.27441			
1.01325	0.10179	0.63187			
1.01325	0.27612	1.22269			
1.01325	1.20826	1.84956			
1.01325	1.68211	2.11475			
