Adsorption isotherm of Copper(II) Ion, Water on Magnetic Cation Exchange Resin
DOI: 10.1016/j.chemosphere.2017.03.005
Article source: Figure 3
Adsorbate Copper(II) Ion: InChIKey JPVYNHNXODAKFH-UHFFFAOYSA-N
Adsorbate Water: InChIKey XLYOFNOQVPJJNP-UHFFFAOYSA-N
Kind: experiment
Temperature: 293 K
Tabular data in the source: 0
pressure (bar)	Copper(II) Ion fraction	Copper(II) Ion uptake (mmol/g)	Water fraction	Water uptake (mmol/g)	total uptake (mmol/g)
1.01325	0.07219	0.4416			
1.01325	0.21721	1.0825			
1.01325	0.4505	1.8927			
1.01325	1.04445	2.6068			
1.01325	1.82377	3.2512			
