Adsorption isotherm of Carbon Dioxide on BNC800-1
DOI: 10.1039/C4cc02459a
Adsorbate Carbon Dioxide: InChIKey CURLTUGMZLYLDI-UHFFFAOYSA-N
Temperature: 298 K
Tabular data in the source: 0
pressure (bar)	uptake (mmol/g)
0.88916	0.148148
1.46318	0.37037
4.16443	0.592593
5.05359	0.740741
6.85069	0.91358
8.64774	1.08642
9.84834	1.18519
11.6604	1.25926
13.1611	1.38272
14.6693	1.45679
16.17	1.58025
17.9783	1.67901
19.7942	1.7284
22.8068	1.90123
26.1308	2.02469
29.4512	2.17284
32.7752	2.2963
36.0955	2.44444
38.8155	2.54321
41.8394	2.64198
45.1709	2.71605
48.1949	2.81481
51.5226	2.91358
54.858	2.96296
57.8856	3.03704
63.0292	3.18519
