Adsorption isotherm of Carbon Dioxide on NC800
DOI: 10.1039/C4cc02459a
Adsorbate Carbon Dioxide: InChIKey CURLTUGMZLYLDI-UHFFFAOYSA-N
Temperature: 273 K
Tabular data in the source: 0
pressure (bar)	uptake (mmol/g)
0.00713002	0.2625
0.508268	0.7125
0.845418	1.125
1.66435	1.275
2.16039	1.5375
2.98137	1.7625
4.12928	2.025
5.93523	2.5125
6.91511	2.5875
7.57309	2.8125
8.39305	3
9.53792	3.15
10.5188	3.2625
12.1536	3.45
13.7905	3.7125
15.5893	3.9375
17.2241	4.125
19.0219	4.3125
20.8186	4.4625
22.6174	4.6875
24.4142	4.8375
26.211	4.9875
27.8448	5.1375
29.6405	5.25
31.4362	5.3625
33.232	5.475
34.0489	5.55
34.5399	5.625
