Adsorption isotherm of Carbon Dioxide on NC800
DOI: 10.1039/C4cc02459a
Adsorbate Carbon Dioxide: InChIKey CURLTUGMZLYLDI-UHFFFAOYSA-N
Temperature: 298 K
Tabular data in the source: 0
pressure (bar)	uptake (mmol/g)
1.54755	0.369774
3.39148	0.640669
4.92589	0.837609
6.46032	1.03455
7.99288	1.2068
9.8293	1.37893
11.6601	1.47699
13.4946	1.62443
15.3254	1.72249
16.5485	1.82079
18.383	1.96823
19.6042	2.04183
22.9619	2.23807
26.0138	2.40974
29.062	2.53202
32.7199	2.67876
35.7699	2.82573
38.5124	2.92344
42.4741	3.07006
45.5242	3.21704
48.8744	3.31451
52.2246	3.41199
55.2709	3.50958
58.9269	3.63163
61.9732	3.72922
62.8867	3.75356
64.1041	3.77778
