Adsorption isotherm of Carbon Dioxide on BNC800-2
DOI: 10.1039/C4cc02459a
Adsorbate Carbon Dioxide: InChIKey CURLTUGMZLYLDI-UHFFFAOYSA-N
Temperature: 273 K
Tabular data in the source: 0
pressure (bar)	uptake (mmol/g)
0.317315	0.262843
1.28244	0.563885
1.92518	0.78958
3.05149	1.1283
3.8595	1.24167
4.50425	1.39237
5.4724	1.58091
6.60279	1.76963
7.41077	1.88301
8.05553	2.0337
9.18794	2.14743
10.1571	2.29847
14.3613	2.79051
17.5963	3.13151
26.8217	3.89148
28.2775	4.04305
30.0587	4.15747
31.6777	4.27172
33.459	4.38615
34.4302	4.46219
