Adsorption isotherm of Carbon Dioxide on BNC800-2
DOI: 10.1039/C4cc02459a
Adsorbate Carbon Dioxide: InChIKey CURLTUGMZLYLDI-UHFFFAOYSA-N
Temperature: 298 K
Tabular data in the source: 0
pressure (bar)	uptake (mmol/g)
1.49749	0.195746
2.99683	0.366951
4.19556	0.513732
6.30169	0.660165
8.1165	0.65947
9.00721	0.879988
12.3176	1.09958
14.4256	1.22147
17.1367	1.36767
18.944	1.46514
23.4662	1.65973
26.4797	1.80582
29.7957	1.95179
33.4123	2.12218
36.1253	2.24384
39.4412	2.38981
46.3831	2.58348
49.096	2.70514
52.7164	2.82645
55.4311	2.92357
59.0552	2.9958
62.6755	3.11712
64.4865	3.1655
