Adsorption isotherm of Hydrogen on NC800
DOI: 10.1039/C4cc02459a
Adsorbate Hydrogen: InChIKey UFHFLCQGNIYNRP-UHFFFAOYSA-N
Temperature: 77 K
Tabular data in the source: 0
pressure (bar)	uptake (cm3(STP)/g)
0.00491869	22.1519
0.0344308	64.8734
0.0590242	80.6962
0.0885364	96.519
0.113129	109.177
0.137723	117.089
0.162317	123.418
0.181992	131.329
0.206584	136.076
0.231178	140.823
0.250853	143.987
0.270528	148.734
0.309877	153.481
0.359064	159.81
0.41317	164.557
0.467275	169.304
0.516463	172.468
0.565649	175.633
0.609918	177.215
0.664023	181.962
0.713209	181.962
0.767316	180.38
0.806666	181.962
0.860771	183.544
0.914877	183.544
0.964063	183.544
0.998494	183.544
