Adsorption isotherm of Nitrogen on BNC800-1
DOI: 10.1039/C4cc02459a
Adsorbate Nitrogen: InChIKey IJGRMHOSHXDMSA-UHFFFAOYSA-N
Temperature: 77 K
Tabular data in the source: 0
pressure (bar)	uptake (cm3(STP)/g)
0	-2.27374e-13
6.91129e-05	9.85986
0.000276452	39.4394
0.000414678	59.1591
0.000691129	98.5986
0.00594371	147.948
0.00601282	157.807
0.010989	167.717
0.0161033	197.347
0.0161724	207.206
0.026332	256.605
0.114866	287.081
0.144446	307.1
0.173819	297.539
0.213144	307.797
0.257307	308.245
0.306378	308.743
0.350541	309.191
0.404587	319.599
0.453657	320.097
0.507634	320.645
0.551797	321.093
0.600868	321.591
0.645031	322.039
0.699008	322.587
0.74324	332.895
0.797218	333.442
0.846287	333.94
0.890451	334.389
0.978913	355.005
