Adsorption isotherm of Hydrogen on BNC800-1
DOI: 10.1039/C4cc02459a
Adsorbate Hydrogen: InChIKey UFHFLCQGNIYNRP-UHFFFAOYSA-N
Temperature: 77 K
Tabular data in the source: 0
pressure (bar)	uptake (cm3(STP)/g)
0.00491869	20.5696
0.0295121	55.3797
0.0590242	74.3671
0.0885364	85.443
0.216422	117.089
0.319715	129.747
0.368902	132.911
0.418088	136.076
0.467275	137.658
0.521381	142.405
0.570568	143.987
0.619754	145.57
0.664023	145.57
0.713209	147.152
0.772234	148.734
0.821422	148.734
0.870608	148.734
0.919795	148.734
0.993576	147.152
