Adsorption isotherm of Carbon Dioxide on C800
DOI: 10.1039/C4cc02459a
Adsorbate Carbon Dioxide: InChIKey CURLTUGMZLYLDI-UHFFFAOYSA-N
Temperature: 273 K
Tabular data in the source: 0
pressure (bar)	uptake (mmol/g)
0.480494	0.226937
0.962012	0.41614
1.93116	0.568137
2.4137	0.719605
3.22167	0.833691
5.15894	1.17542
6.93708	1.40377
8.71522	1.63212
9.68541	1.74638
10.4924	1.8982
12.1103	2.0509
13.8885	2.27925
15.6676	2.46986
17.1234	2.62239
19.0648	2.81318
20.8439	3.00379
22.4619	3.15649
24.2421	3.30937
25.86	3.46207
27.6392	3.65269
29.4204	3.76783
31.3638	3.88315
34.4376	4.18838
