Adsorption isotherm of Carbon Dioxide on C800
DOI: 10.1039/C4cc02459a
Adsorbate Carbon Dioxide: InChIKey CURLTUGMZLYLDI-UHFFFAOYSA-N
Temperature: 298 K
Tabular data in the source: 0
pressure (bar)	uptake (mmol/g)
0.602206	0.0733892
1.50645	0.171203
2.71645	0.244359
3.9246	0.342056
5.7424	0.41498
6.64851	0.488253
8.46442	0.585718
9.67631	0.634334
11.1902	0.707374
13.008	0.780298
14.5201	0.877879
16.3398	0.926262
17.8518	1.02384
19.9735	1.09665
22.7011	1.19377
26.0329	1.33973
29.0625	1.46127
32.398	1.55815
35.4295	1.65515
38.7612	1.80112
41.7927	1.89812
44.8243	1.99512
48.4618	2.11642
51.7972	2.21331
54.8288	2.3103
58.1623	2.43173
60.8918	2.5043
62.1074	2.50384
63.6213	2.57688
