Adsorption isotherm of Nitrogen on NC800
DOI: 10.1039/C4cc02459a
Adsorbate Nitrogen: InChIKey IJGRMHOSHXDMSA-UHFFFAOYSA-N
Temperature: 77 K
Tabular data in the source: 0
pressure (bar)	uptake (cm3(STP)/g)
0	0
0.00488201	70.0503
0.0146461	340.151
0.019528	380.201
0.0341741	450.352
0.0537021	480.553
0.0781121	530.804
0.112286	591.156
0.136697	611.407
0.180635	641.859
0.219691	672.261
0.263629	682.714
0.312449	693.216
0.346623	703.568
0.385679	713.97
0.434499	714.472
0.488201	735.025
0.556549	735.729
0.615133	736.332
0.673717	756.935
0.746947	777.688
0.829941	798.543
0.908054	819.347
0.97152	900
