Adsorption isotherm of Hydrogen on BNC800-2
DOI: 10.1039/C4cc02459a
Adsorbate Hydrogen: InChIKey UFHFLCQGNIYNRP-UHFFFAOYSA-N
Temperature: 77 K
Tabular data in the source: 0
pressure (bar)	uptake (cm3(STP)/g)
0.00491869	22.1519
0.0196748	42.7215
0.0393496	64.8734
0.103293	91.7722
0.137723	101.266
0.172154	109.177
0.201666	113.924
0.221341	120.253
0.260691	126.582
0.285284	131.329
0.324633	136.076
0.368902	142.405
0.408252	147.152
0.467275	153.481
0.516463	156.646
0.565649	159.81
0.614836	162.975
0.673861	169.304
0.723047	169.304
0.772234	170.886
0.82634	174.051
0.880445	178.797
0.968982	180.38
0.998494	181.962
