Adsorption isotherm of Nitrogen on C800
DOI: 10.1039/C4cc02459a
Adsorbate Nitrogen: InChIKey IJGRMHOSHXDMSA-UHFFFAOYSA-N
Temperature: 77 K
Tabular data in the source: 0
pressure (bar)	uptake (cm3(STP)/g)
-0.00772456	268.006
-0.00741141	238.222
-0.00699386	198.51
-0.00636755	138.942
-0.00553246	59.5179
-0.00511491	19.8059
-0.00187895	178.704
0.000939473	377.315
0.0014614	327.675
0.00532369	427.005
0.00949912	496.551
0.0238	536.413
0.0621097	626.167
0.0908157	695.964
0.134241	765.911
0.192592	816.153
0.241549	826.582
0.295308	846.99
0.481324	888.607
0.535291	889.159
0.579342	899.538
0.623393	909.917
0.672454	910.419
0.726317	920.898
0.765463	931.227
0.819221	951.635
0.858261	971.892
0.897406	982.221
0.916821	1002.28
0.931122	1042.14
0.949912	1121.76
0.954296	1171.46
