Adsorption isotherm of Nitrogen on BNC800-2
DOI: 10.1039/C4cc02459a
Adsorbate Nitrogen: InChIKey IJGRMHOSHXDMSA-UHFFFAOYSA-N
Temperature: 77 K
Tabular data in the source: 0
pressure (bar)	uptake (cm3(STP)/g)
-0.00487229	9.80971
-0.00483773	19.6692
-0.00442307	137.983
-0.00435395	157.702
-0.00431941	167.562
-0.00428485	177.421
0.000103666	29.5785
0.000172776	49.2975
0.000241886	69.0165
0.000276442	78.876
0.000345552	98.5951
0.000414662	118.314
0.000725659	207.05
0.00079477	226.769
0.000829325	236.628
0.00086388	246.488
0.000967546	276.066
0.0108503	295.885
0.0109886	335.323
0.0257782	355.191
0.0552883	375.209
0.0798571	385.317
0.114205	385.666
0.138808	405.634
0.178063	406.032
0.202632	416.141
0.2517	416.639
0.300769	417.137
0.344964	427.444
0.39894	427.992
0.443137	438.3
0.502018	438.897
0.541273	439.296
0.590341	439.794
0.649258	450.251
0.678699	450.55
0.752301	451.296
0.791591	461.554
0.835753	462.002
0.884856	472.36
0.9389	492.627
0.963538	522.454
