Adsorption isotherm of Hydrogen on C800
DOI: 10.1039/C4cc02459a
Adsorbate Hydrogen: InChIKey UFHFLCQGNIYNRP-UHFFFAOYSA-N
Temperature: 77 K
Tabular data in the source: 0
pressure (bar)	uptake (cm3(STP)/g)
0.0147561	30.0633
0.0885364	93.3544
0.132805	113.924
0.162317	121.835
0.18691	129.747
0.231178	140.823
0.295121	148.734
0.324633	155.063
0.363983	159.81
0.516463	175.633
0.565649	177.215
0.624674	183.544
0.668942	183.544
0.718129	189.873
0.777153	191.456
0.821422	193.038
0.870608	196.203
0.919795	196.203
0.9739	199.367
0.998494	199.367
