Adsorption isotherm of Carbon Dioxide on BNC800-1
DOI: 10.1039/C4cc02459a
Adsorbate Carbon Dioxide: InChIKey CURLTUGMZLYLDI-UHFFFAOYSA-N
Temperature: 273 K
Tabular data in the source: 0
pressure (bar)	uptake (mmol/g)
0.633519	0.566726
0.64168	0.264849
1.7608	0.869839
3.37061	1.32442
4.17653	1.51397
4.65907	1.66544
5.3038	1.81709
6.27399	1.93135
7.08093	2.08317
8.2133	2.19761
8.85806	2.34925
9.82923	2.42578
12.095	2.61692
14.3588	2.88353
16.1389	3.03641
22.9373	3.5721
26.3385	3.76448
27.9585	3.84171
29.9019	3.95703
31.5219	4.03427
34.1152	4.11256
