Adsorption isotherm of Carbon Dioxide, Nitrogen on Cu(I)â€“NaY zeolite
DOI: 10.1006/jcis.1998.5733
Article source: Figure 4
Adsorbate Carbon Dioxide: InChIKey CURLTUGMZLYLDI-UHFFFAOYSA-N
Adsorbate Nitrogen: InChIKey IJGRMHOSHXDMSA-UHFFFAOYSA-N
Kind: experiment
Temperature: 303 K
Tabular data in the source: 0
pressure (bar)	Carbon Dioxide fraction	Carbon Dioxide uptake (molefraction)	Nitrogen fraction	Nitrogen uptake (molefraction)	total uptake (molefraction)
1.01325	0.652788	0.791183	0.347212	0.208817	
1.01325	0.502253	0.701888	0.497747	0.298112	
1.01325	0.302515	0.463535	0.697485	0.536465	
1.01325	0.22314	0.38429	0.77686	0.61571	
1.01325	0.143093	0.294454	0.856907	0.705546	
