Adsorption isotherm of Nitrogen on Cu(I)â€“NaY zeolite
DOI: 10.1006/jcis.1998.5733
Article source: Figure 3
Adsorbate Nitrogen: InChIKey IJGRMHOSHXDMSA-UHFFFAOYSA-N
Kind: experiment
Temperature: 303 K
Tabular data in the source: 0
pressure (bar)	uptake (mmol/kg)
0.230008	12.4
0.64544	37.6
0.857209	50.1
1.04365	62.6
1.2463	75.4
1.44895	88
1.66173	99.7
2.18862	125
2.85736	150
3.32346	162
4.63055	188
