Adsorption isotherm of Carbon Dioxide, Carbon monoxide on Cu(I)â€“NaY zeolite
DOI: 10.1006/jcis.1998.5733
Article source: Figure 9
Adsorbate Carbon Dioxide: InChIKey CURLTUGMZLYLDI-UHFFFAOYSA-N
Adsorbate Carbon monoxide: InChIKey UGFAIRIUMAVXCW-UHFFFAOYSA-N
Kind: experiment
Temperature: 343 K
Tabular data in the source: 0
pressure (bar)	Carbon Dioxide fraction	Carbon Dioxide uptake (molefraction)	Carbon monoxide fraction	Carbon monoxide uptake (molefraction)	total uptake (molefraction)
1.01325	0.09958	0.101974	0.90042	0.898026	
1.01325	0.208969	0.198994	0.791031	0.801006	
1.01325	0.749366	0.346548	0.250634	0.653452	
1.01325	0.947826	0.548384	0.052174	0.451616	
1.01325	0.968168	0.57653	0.031832	0.42347	
1.01325	0.988603	0.737163	0.011397	0.262837	
