Adsorption isotherm of Carbon Dioxide on Cu(I)â€“NaY zeolite
DOI: 10.1006/jcis.1998.5733
Article source: Figure 2
Adsorbate Carbon Dioxide: InChIKey CURLTUGMZLYLDI-UHFFFAOYSA-N
Kind: experiment
Temperature: 323 K
Tabular data in the source: 0
pressure (bar)	uptake (mmol/kg)
0.127669	8.57
0.24014	23.8
0.347545	29.3
0.438737	38.3
0.534996	58.8
0.602884	63.8
0.69509	68.8
0.765004	78.4
0.895713	99.8
1.22603	147
1.6212	198
2.32034	248
4.06313	300
