Adsorption isotherm of Carbon Dioxide, Carbon monoxide on Cu(I)â€“NaY zeolite
DOI: 10.1006/jcis.1998.5733
Article source: Figure 8
Adsorbate Carbon Dioxide: InChIKey CURLTUGMZLYLDI-UHFFFAOYSA-N
Adsorbate Carbon monoxide: InChIKey UGFAIRIUMAVXCW-UHFFFAOYSA-N
Kind: experiment
Temperature: 323 K
Tabular data in the source: 0
pressure (bar)	Carbon Dioxide fraction	Carbon Dioxide uptake (molefraction)	Carbon monoxide fraction	Carbon monoxide uptake (molefraction)	total uptake (molefraction)
1.01325	0.039859	0.06906	0.960141	0.93094	
1.01325	0.09932	0.128917	0.90068	0.871083	
1.01325	0.600306	0.207349	0.399694	0.792651	
1.01325	0.849182	0.327896	0.150818	0.672104	
1.01325	0.988852	0.739287	0.011148	0.260713	
1.01325	0.996555	0.899686	0.003445	0.100314	
