Adsorption isotherm of Nitrogen on Cu(I)â€“NaY zeolite
DOI: 10.1006/jcis.1998.5733
Article source: Figure 3
Adsorbate Nitrogen: InChIKey IJGRMHOSHXDMSA-UHFFFAOYSA-N
Kind: experiment
Temperature: 343 K
Tabular data in the source: 0
pressure (bar)	uptake (mmol/kg)
0.260405	9.56
0.513718	19.5
0.755884	29.2
1.17537	48.5
1.38815	58.6
1.89478	78.1
2.18862	87.7
3.11068	107
3.77942	116
4.76228	127
