Adsorption isotherm of Carbon Dioxide, Nitrogen on Cu(I)â€“NaY zeolite
DOI: 10.1006/jcis.1998.5733
Article source: Figure 5
Adsorbate Carbon Dioxide: InChIKey CURLTUGMZLYLDI-UHFFFAOYSA-N
Adsorbate Nitrogen: InChIKey IJGRMHOSHXDMSA-UHFFFAOYSA-N
Kind: experiment
Temperature: 323 K
Tabular data in the source: 0
pressure (bar)	Carbon Dioxide fraction	Carbon Dioxide uptake (molefraction)	Nitrogen fraction	Nitrogen uptake (molefraction)	total uptake (molefraction)
1.01325	0.801089	0.879319	0.198911	0.120681	
1.01325	0.502227	0.651477	0.497773	0.348523	
1.01325	0.171697	0.283425	0.828303	0.716575	
1.01325	0.131618	0.200801	0.868382	0.799199	
1.01325	0.041069	0.080621	0.958931	0.919379	
