Adsorption isotherm of Carbon Dioxide, Carbon monoxide on Cu(I)â€“NaY zeolite
DOI: 10.1006/jcis.1998.5733
Article source: Figure 7
Adsorbate Carbon Dioxide: InChIKey CURLTUGMZLYLDI-UHFFFAOYSA-N
Adsorbate Carbon monoxide: InChIKey UGFAIRIUMAVXCW-UHFFFAOYSA-N
Kind: experiment
Temperature: 303 K
Tabular data in the source: 0
pressure (bar)	Carbon Dioxide fraction	Carbon Dioxide uptake (molefraction)	Carbon monoxide fraction	Carbon monoxide uptake (molefraction)	total uptake (molefraction)
1.01325	0.020489	0.099657	0.979511	0.900343	
1.01325	0.058391	0.201513	0.941609	0.798487	
1.01325	0.879654	0.449343	0.120346	0.550657	
1.01325	0.919945	0.479881	0.080055	0.520119	
1.01325	0.988715	0.699099	0.011285	0.300901	
