Adsorption isotherm of Carbon monoxide on Cu(I)â€“NaY zeolite
DOI: 10.1006/jcis.1998.5733
Article source: Figure 1
Adsorbate Carbon monoxide: InChIKey UGFAIRIUMAVXCW-UHFFFAOYSA-N
Kind: experiment
Temperature: 343 K
Tabular data in the source: 0
pressure (bar)	uptake (mmol/kg)
0.011146	25.6
0.02523	41
0.033539	68.9
0.047521	136
0.092307	215
0.184412	304
0.314107	388
0.504598	460
0.699142	517
0.892673	562
1.07404	601
1.20577	610
1.74279	649
2.81683	700
5.01559	751
