Adsorption isotherm of Nitrogen on Cu(I)â€“NaY zeolite
DOI: 10.1006/jcis.1998.5733
Article source: Figure 3
Adsorbate Nitrogen: InChIKey IJGRMHOSHXDMSA-UHFFFAOYSA-N
Kind: experiment
Temperature: 323 K
Tabular data in the source: 0
pressure (bar)	uptake (mmol/kg)
0.338425	16.6
0.661652	33.8
0.965627	50.9
1.25643	68.2
1.6212	85.5
1.91504	103
2.38114	120
3.00935	137
3.57677	154
5.06625	169
