Adsorption isotherm of Carbon monoxide on Cu(I)â€“NaY zeolite
DOI: 10.1006/jcis.1998.5733
Article source: Figure 1
Adsorbate Carbon monoxide: InChIKey UGFAIRIUMAVXCW-UHFFFAOYSA-N
Kind: experiment
Temperature: 323 K
Tabular data in the source: 0
pressure (bar)	uptake (mmol/kg)
0.011146	49.8
0.022291	86.5
0.03901	136
0.092206	254
0.193531	383
0.375916	495
0.608963	576
0.822759	639
1.02338	689
1.1551	702
1.61107	745
2.33048	796
3.53624	847
5.88698	896
