Adsorption isotherm of Carbon Dioxide, Nitrogen on Cu(I)â€“NaY zeolite
DOI: 10.1006/jcis.1998.5733
Article source: Figure 6
Adsorbate Carbon Dioxide: InChIKey CURLTUGMZLYLDI-UHFFFAOYSA-N
Adsorbate Nitrogen: InChIKey IJGRMHOSHXDMSA-UHFFFAOYSA-N
Kind: experiment
Temperature: 343 K
Tabular data in the source: 0
pressure (bar)	Carbon Dioxide fraction	Carbon Dioxide uptake (molefraction)	Nitrogen fraction	Nitrogen uptake (molefraction)	total uptake (molefraction)
1.01325	0.750721	0.899207	0.249279	0.100793	
1.01325	0.530843	0.753139	0.469157	0.246861	
1.01325	0.501801	0.722121	0.498199	0.277879	
1.01325	0.240021	0.503405	0.759979	0.496595	
1.01325	0.051456	0.172973	0.948544	0.827027	
1.01325	0.022294	0.100288	0.977706	0.899712	
