Adsorption isotherm of Carbon Dioxide on Cu(I)â€“NaY zeolite
DOI: 10.1006/jcis.1998.5733
Article source: Figure 2
Adsorbate Carbon Dioxide: InChIKey CURLTUGMZLYLDI-UHFFFAOYSA-N
Kind: experiment
Temperature: 343 K
Tabular data in the source: 0
pressure (bar)	uptake (mmol/kg)
0.189478	12.9
0.473188	45
0.694076	65.7
0.788308	79.6
0.880514	110
0.968667	115
1.05378	119
1.14497	132
1.36789	158
1.70226	185
2.26968	211
3.34372	238
4.29618	251
