Adsorption isotherm of Carbon Dioxide on Cu(I)â€“NaY zeolite
DOI: 10.1006/jcis.1998.5733
Article source: Figure 2
Adsorbate Carbon Dioxide: InChIKey CURLTUGMZLYLDI-UHFFFAOYSA-N
Kind: experiment
Temperature: 303 K
Tabular data in the source: 0
pressure (bar)	uptake (mmol/kg)
0.00916	1.91
0.116524	15
0.227981	21
0.317147	30
0.462042	53.8
0.491426	55
0.575526	59.3
0.676851	74.3
0.777163	89.8
0.89166	110
1.10444	151
1.38815	197
1.85425	251
2.7763	302
5.06625	351
