Adsorption isotherm of Carbon monoxide on Cu(I)â€“NaY zeolite
DOI: 10.1006/jcis.1998.5733
Article source: Figure 1
Adsorbate Carbon monoxide: InChIKey UGFAIRIUMAVXCW-UHFFFAOYSA-N
Kind: experiment
Temperature: 303 K
Tabular data in the source: 0
pressure (bar)	uptake (mmol/kg)
0.016719	67.4
0.019454	100
0.041746	199
0.061302	249
0.083694	300
0.16212	438
0.325253	553
0.518784	642
0.718394	712
0.878488	768
1.04365	815
1.57054	900
2.56352	999
4.66095	1100
