Adsorption isotherm of Hydrogen on CuBTC
DOI: 10.1016/j.ces.2010.02.005
Adsorbate Hydrogen: InChIKey UFHFLCQGNIYNRP-UHFFFAOYSA-N
Temperature: 77 K
Tabular data in the source: 0
pressure (bar)	uptake (wt%)
0.0479616	0.311515
0.191847	1.00016
0.28777	1.42647
0.479616	1.83646
0.719424	2.11534
1.00719	2.36148
2.11031	2.87058
3.02158	3.15002
4.1247	3.33125
5.08393	3.46318
5.94724	3.56225
7.09832	3.66156
8.00959	3.74427
9.01679	3.79428
10.024	3.86068
11.1271	3.94355
12.0384	3.96069
13.0456	4.01069
14.0048	4.04427
15.012	4.11067
16.1151	4.09518
17.0743	4.12875
18.1295	4.14601
18.801	4.16295
