Adsorption isotherm of Nitrogen on CuBTC
DOI: 10.1016/j.ces.2010.02.005
Adsorbate Nitrogen: InChIKey IJGRMHOSHXDMSA-UHFFFAOYSA-N
Temperature: 77 K
Tabular data in the source: 0
pressure (bar)	uptake (mmol/g)
0.0107396	11.7857
0.0301578	12.2857
0.0642115	12.5714
0.0788034	12.7143
0.0982825	12.7143
0.120196	12.7143
0.151824	12.9286
0.176181	12.8571
0.336867	13
0.385573	12.9286
0.485403	12.9286
0.55358	12.9286
0.599852	12.8571
0.650958	13.0714
0.694786	13.0714
0.741075	12.8571
0.794634	12.9286
0.828723	12.9286
0.850637	12.9286
0.889586	13
0.923657	13.1429
0.947971	13.4286
