Adsorption isotherm of Nitrogen on CuBTC
DOI: 10.1016/j.ces.2010.02.005
Adsorbate Nitrogen: InChIKey IJGRMHOSHXDMSA-UHFFFAOYSA-N
Temperature: 77 K
Tabular data in the source: 0
pressure (bar)	uptake (mmol/g)
0.00521762	17.1429
0.0246271	17.7143
0.0513587	18.1429
0.0805513	18.3571
0.0999869	18.7143
0.14865	19
0.170564	19
0.294708	19.2857
0.336101	19.2857
0.392086	19.4286
0.450532	19.3571
0.504083	19.5
0.552763	19.6429
0.594165	19.5714
0.647732	19.5714
0.693986	19.6429
0.737823	19.5714
0.791399	19.5
0.85468	19.7143
0.922848	19.7857
0.96912	19.7143
