Adsorption isotherm of Nitrogen on CuBTC
DOI: 10.1016/j.ces.2010.02.005
Adsorbate Nitrogen: InChIKey IJGRMHOSHXDMSA-UHFFFAOYSA-N
Temperature: 77 K
Tabular data in the source: 0
pressure (bar)	uptake (mmol/g)
0.000773946	13.6429
0.0226445	14
0.0518022	14.5
0.0931605	14.7857
0.127214	15.0714
0.334145	15.3571
0.487525	15.5
0.550824	15.5714
0.599521	15.5714
0.645793	15.5
0.696926	15.5
0.74318	15.5714
0.796756	15.5
0.825966	15.5714
0.862481	15.6429
0.911187	15.5714
0.942832	15.6429
