Adsorption isotherm of Nitrogen on CuBTC
DOI: 10.1016/j.ces.2010.02.005
Adsorbate Nitrogen: InChIKey IJGRMHOSHXDMSA-UHFFFAOYSA-N
Temperature: 77 K
Tabular data in the source: 0
pressure (bar)	uptake (mmol/g)
0.00740901	19.1429
0.024401	19.5714
0.0487064	19.9286
0.0803165	20.2857
0.0973172	20.6429
0.138693	20.7857
0.15085	20.9286
0.194669	21
0.23361	21.1429
0.292039	21.2143
0.338293	21.2857
0.384556	21.2857
0.430819	21.2857
0.479516	21.2857
0.550128	21.2857
0.596391	21.2857
0.642662	21.2143
0.693795	21.2143
0.747354	21.2857
0.793634	21.1429
0.837479	21
0.871559	21.0714
0.912961	21
0.939762	20.8571
0.959241	20.8571
