Adsorption isotherm of Carbon Dioxide on Cu-MOF
DOI: 10.1021/la803818p
Adsorbate Carbon Dioxide: InChIKey CURLTUGMZLYLDI-UHFFFAOYSA-N
Temperature: 273 K
Tabular data in the source: 0
pressure (bar)	uptake (mg/g)
0.00175895	-0.0499976
0.00608501	-0.399577
0.00929677	0.649162
0.00995223	4.14496
0.0105421	12.1853
0.0109354	26.8676
0.0115253	54.4845
0.0121808	77.9063
0.013164	99.5803
0.0148682	121.254
0.0176211	137.335
0.0221438	147.123
0.0264699	151.318
0.0288295	154.464
