Adsorption isotherm of Carbon Dioxide on Cu-MOF
DOI: 10.1021/la803818p
Adsorbate Carbon Dioxide: InChIKey CURLTUGMZLYLDI-UHFFFAOYSA-N
Temperature: 273 K
Tabular data in the source: 0
pressure (bar)	uptake (mg/g)
0.0018245	1.6979
0.00497072	1.6979
0.00949341	2.39706
0.00995223	7.64076
0.0103455	21.624
0.0106732	35.6071
0.0112632	67.0693
0.011722	92.5887
0.0127707	114.612
0.013885	127.896
0.0164413	139.782
0.0197842	147.822
0.0243069	153.416
0.0264699	154.464
0.0286984	154.814
