Adsorption isotherm of Water on Cu-MOF
DOI: 10.1021/la803818p
Adsorbate Water: InChIKey XLYOFNOQVPJJNP-UHFFFAOYSA-N
Temperature: 303 K
Tabular data in the source: 0
pressure (bar)	uptake (mg/g)
0	0
0.00182509	11.1428
0.0127495	51.0605
0.0258587	59.6252
0.0542621	64.0605
0.132918	66.0487
0.467203	67.884
0.61796	68.6487
0.768716	69.7193
0.987203	69.8722
