Adsorption isotherm of Carbon Dioxide on Cu-MOF
DOI: 10.1021/la803818p
Adsorbate Carbon Dioxide: InChIKey CURLTUGMZLYLDI-UHFFFAOYSA-N
Temperature: 273 K
Tabular data in the source: 0
pressure (bar)	uptake (mg/g)
0.00175895	2.74664
0.0062161	3.09622
0.00988668	3.4458
0.00995223	13.234
0.0100833	38.0542
0.01028	66.0206
0.0105421	87.345
0.0107388	112.165
0.0112632	135.237
0.0119842	146.074
0.0151304	153.416
0.0199153	156.562
0.0243724	158.31
0.0286329	159.708
