Adsorption isotherm of Nitrogen on UiO-66(Zr)
DOI: 10.1021/Ie4011035
Adsorbate Nitrogen: InChIKey IJGRMHOSHXDMSA-UHFFFAOYSA-N
Temperature: 298 K
Tabular data in the source: 0
pressure (bar)	uptake (kmol/m3)
2.59024	0.989309
3.8232	1.18012
5.05617	1.37093
7.16158	1.79025
10.1666	2.1343
14.9334	2.74552
19.8958	3.16701
39.7927	4.32136
49.7548	4.74665
