Adsorption isotherm of Carbon monoxide on UiO-67(Zr)
DOI: 10.1021/Ie4011035
Adsorbate Carbon monoxide: InChIKey UGFAIRIUMAVXCW-UHFFFAOYSA-N
Temperature: 298 K
Tabular data in the source: 0
pressure (bar)	uptake (kmol/m3)
2.97588	0.375
3.84649	0.75
5.41996	1.0625
7.16447	1.625
9.96272	2.125
20.1009	4.25
29.9046	5.4375
39.8849	6.5625
49.8706	7.375
