Adsorption isotherm of Carbon Dioxide on UiO-66(Zr)
DOI: 10.1021/Ie4011035
Adsorbate Carbon Dioxide: InChIKey CURLTUGMZLYLDI-UHFFFAOYSA-N
Temperature: 298 K
Tabular data in the source: 0
pressure (bar)	uptake (kmol/m3)
0.168014	0.392308
0.329525	1.07911
0.484532	2.0604
1.1761	2.74616
1.69098	3.43226
4.98515	6.27242
7.09671	6.66091
9.91285	7.14618
14.8492	7.62729
19.7878	8.01023
30.0291	8.28461
40.0937	8.55933
49.8114	8.54025
