Adsorption isotherm of Hydrogen on UiO-67(Zr)
DOI: 10.1021/Ie4011035
Adsorbate Hydrogen: InChIKey UFHFLCQGNIYNRP-UHFFFAOYSA-N
Temperature: 298 K
Tabular data in the source: 0
pressure (bar)	uptake (kmol/m3)
20.0117	0.83742
30.0191	1.23312
39.8485	1.61354
49.8582	1.97857
