Adsorption isotherm of Nitrogen on UiO-67(Zr)
DOI: 10.1021/Ie4011035
Adsorbate Nitrogen: InChIKey IJGRMHOSHXDMSA-UHFFFAOYSA-N
Temperature: 298 K
Tabular data in the source: 0
pressure (bar)	uptake (kmol/m3)
4.23457	0.572836
5.28219	0.839455
7.21583	1.1827
10.2039	1.71661
15.1493	2.32796
20.0947	2.93931
29.8239	3.97202
39.7554	4.73905
49.6937	5.43015
