Adsorption isotherm of Hydrogen on UiO-66(Zr)-Br
DOI: 10.1021/Ie4011035
Adsorbate Hydrogen: InChIKey UFHFLCQGNIYNRP-UHFFFAOYSA-N
Temperature: 298 K
Tabular data in the source: 0
pressure (bar)	uptake (kmol/m3)
6.97071	0.258598
10.0097	0.365028
14.8364	0.532259
20.0205	0.714718
29.8564	1.00311
39.8738	1.26077
49.8934	1.48776
