Adsorption isotherm of Carbon monoxide on Zr-Cl2AzoBDC
DOI: 10.1021/Ie4011035
Adsorbate Carbon monoxide: InChIKey UGFAIRIUMAVXCW-UHFFFAOYSA-N
Temperature: 298 K
Tabular data in the source: 0
pressure (bar)	uptake (kmol/m3)
0.526316	0
0.875	0.125
1.22478	0.1875
2.6239	0.4375
3.49671	0.6875
5.07127	0.9375
6.99452	1.3125
9.9693	1.75
14.8673	2.5625
20.1206	3.125
29.9232	4.375
39.9046	5.4375
49.8914	6.1875
