Adsorption isotherm of Carbon monoxide on UiO-66(Zr)-Br
DOI: 10.1021/Ie4011035
Adsorbate Carbon monoxide: InChIKey UGFAIRIUMAVXCW-UHFFFAOYSA-N
Temperature: 298 K
Tabular data in the source: 0
pressure (bar)	uptake (kmol/m3)
0.528169	0.5
1.05634	0.8125
2.46479	1.25
3.34507	1.75
4.92958	2.0625
6.8662	2.4375
9.85915	2.875
14.9648	3.375
20.0704	3.75
30.1056	4.1875
39.9648	4.625
49.8239	5
