Adsorption isotherm of Methane on UiO-66(Zr)
DOI: 10.1021/Ie4011035
Adsorbate Methane: InChIKey VNWKTOKETHGBQD-UHFFFAOYSA-N
Temperature: 298 K
Tabular data in the source: 0
pressure (bar)	uptake (kmol/m3)
2.60873	2.18868
3.65954	2.56604
4.88418	3.09434
7.16627	3.54717
10.1515	4.07547
15.2483	4.67925
19.9907	5.43396
30.0126	6.33962
40.0423	6.71698
50.0664	7.4717
