Adsorption isotherm of Carbon Dioxide on Zr-Cl2AzoBDC
DOI: 10.1021/Ie4011035
Adsorbate Carbon Dioxide: InChIKey CURLTUGMZLYLDI-UHFFFAOYSA-N
Temperature: 298 K
Tabular data in the source: 0
pressure (bar)	uptake (kmol/m3)
0.521387	0.391614
1.04494	0.685065
1.39181	0.978863
2.60693	1.95807
3.64971	2.7413
5.21387	3.91614
7.1314	5.09029
9.91068	7.24435
14.8059	9.59057
19.7271	10.7588
29.7678	12.1133
39.8151	13.1734
49.703	13.4484
