Adsorption isotherm of Nitrogen on Zr-Cl2AzoBDC
DOI: 10.1021/Ie4011035
Adsorbate Nitrogen: InChIKey IJGRMHOSHXDMSA-UHFFFAOYSA-N
Temperature: 298 K
Tabular data in the source: 0
pressure (bar)	uptake (kmol/m3)
0.532288	0.038379
1.06458	0.0767579
1.23635	0.152838
2.64788	0.343783
3.88084	0.534593
5.29236	0.725539
7.05422	0.992699
10.2378	1.33689
15.0046	1.9481
19.9602	2.44554
29.8917	3.21258
39.8165	4.05556
49.7615	4.6707
