Adsorption isotherm of Carbon Dioxide on UiO-66(Zr)-Br
DOI: 10.1021/Ie4011035
Adsorbate Carbon Dioxide: InChIKey CURLTUGMZLYLDI-UHFFFAOYSA-N
Temperature: 298 K
Tabular data in the source: 0
pressure (bar)	uptake (kmol/m3)
-0.200533	1.08015
0.133328	1.96293
0.141999	1.57027
0.294838	2.64973
0.46502	2.94387
0.620027	3.92516
0.964728	4.31712
1.48395	4.8069
2.53322	5.29564
3.41015	5.5884
4.98732	6.17426
7.10105	6.46459
9.92369	6.65536
14.8644	6.94014
19.8073	7.12676
30.0507	7.30297
39.7641	7.48022
50.0054	7.75459
