Adsorption isotherm of Nitrogen on UiO-66(Zr)-Br
DOI: 10.1021/Ie4011035
Adsorbate Nitrogen: InChIKey IJGRMHOSHXDMSA-UHFFFAOYSA-N
Temperature: 298 K
Tabular data in the source: 0
pressure (bar)	uptake (kmol/m3)
0.680334	0.380264
1.01711	0.608367
1.36406	0.722555
2.57668	1.1412
3.64125	1.21796
5.03922	1.56079
6.96946	1.942
10.1428	2.40011
14.7413	2.89727
19.8958	3.16701
29.6691	3.70608
39.9984	4.01772
49.7954	4.29098
