Adsorption isotherm of Carbon monoxide on UiO-66(Zr)
DOI: 10.1021/Ie4011035
Adsorbate Carbon monoxide: InChIKey UGFAIRIUMAVXCW-UHFFFAOYSA-N
Temperature: 298 K
Tabular data in the source: 0
pressure (bar)	uptake (kmol/m3)
0.176056	0.1875
1.23239	0.5625
2.11268	0.875
3.87324	1.3125
4.92958	1.75
6.69014	2.25
10.2113	2.5625
15.1408	3.25
20.2465	3.75
29.7535	4.5
40.3169	5.125
50	5.5625
