Adsorption isotherm of Methane on UiO-67(Zr)
DOI: 10.1021/Ie4011035
Adsorbate Methane: InChIKey VNWKTOKETHGBQD-UHFFFAOYSA-N
Temperature: 298 K
Tabular data in the source: 0
pressure (bar)	uptake (kmol/m3)
1.57786	0.45283
3.50009	1.43396
5.0702	2.41509
7.35008	3.01887
10.3297	3.92453
15.0633	5.28302
19.9796	6.18868
29.9971	7.39623
40.0179	8.37736
49.8682	8.98113
