Adsorption isotherm of Methane on UiO-66(Zr)-Br
DOI: 10.1021/Ie4011035
Adsorbate Methane: InChIKey VNWKTOKETHGBQD-UHFFFAOYSA-N
Temperature: 298 K
Tabular data in the source: 0
pressure (bar)	uptake (kmol/m3)
0.336611	1.0566
0.68208	1.50943
1.20582	1.81132
1.55572	1.96226
2.78258	2.33962
3.48016	2.79245
4.88418	3.09434
6.99243	3.39623
10.1515	4.07547
15.0788	4.22642
30.0303	5.13208
40.2383	5.35849
49.9158	5.73585
