Adsorption isotherm of Methane on Zr-Cl2AzoBDC
DOI: 10.1021/Ie4011035
Adsorbate Methane: InChIKey VNWKTOKETHGBQD-UHFFFAOYSA-N
Temperature: 298 K
Tabular data in the source: 0
pressure (bar)	uptake (kmol/m3)
0.525954	0.150943
0.87696	0.226415
1.40181	0.45283
2.80251	0.981132
3.67725	1.35849
4.903	1.81132
7.00904	2.26415
10.1692	2.86792
15.0844	3.84906
19.9996	4.83019
30.0159	6.11321
40.0368	7.09434
50.0609	7.84906
