Adsorption isotherm of Hydrogen on UiO-66(Zr)
DOI: 10.1021/Ie4011035
Adsorbate Hydrogen: InChIKey UFHFLCQGNIYNRP-UHFFFAOYSA-N
Temperature: 298 K
Tabular data in the source: 0
pressure (bar)	uptake (kmol/m3)
0.532149	0.0765239
1.78556	0.0914768
3.21598	0.13705
5.00154	0.228527
6.96631	0.319949
9.82716	0.411096
14.6517	0.609003
20.0161	0.776069
30.2071	1.11037
39.6836	1.41421
50.0561	1.71777
