Adsorption isotherm of Hydrogen on Zr-Cl2AzoBDC
DOI: 10.1021/Ie4011035
Adsorbate Hydrogen: InChIKey UFHFLCQGNIYNRP-UHFFFAOYSA-N
Temperature: 298 K
Tabular data in the source: 0
pressure (bar)	uptake (kmol/m3)
0.535447	0.0305106
1.25011	0.0609662
2.50022	0.121932
3.57331	0.152278
5.00264	0.213189
6.96851	0.289273
10.0064	0.411041
15.009	0.62423
19.8346	0.806799
30.0235	1.17177
39.8529	1.55219
49.8626	1.91722
