Adsorption isotherm of Carbon Dioxide on UiO-67(Zr)
DOI: 10.1021/Ie4011035
Adsorbate Carbon Dioxide: InChIKey CURLTUGMZLYLDI-UHFFFAOYSA-N
Temperature: 298 K
Tabular data in the source: 0
pressure (bar)	uptake (kmol/m3)
2.56357	3.92135
3.42749	4.80309
6.88751	8.13372
9.68413	9.50246
14.601	10.867
19.8799	11.8383
29.9293	12.8001
39.8194	12.977
49.7073	13.2521
