Adsorption isotherm of Ethane on H-Chabazite
DOI: 10.1021/ba-1973-0121.ch030
Adsorbate Ethane: InChIKey OTMSDBZUPAUEDD-UHFFFAOYSA-N
Temperature: 273 K
Tabular data in the source: 0
pressure (bar)	uptake (molecules/cavity)
0.00116161	0.104026
0.00294375	0.246504
0.00662563	0.489948
0.0117731	0.739137
0.0183486	0.971599
0.0325389	1.22786
0.0569276	1.47535
0.111885	1.72624
0.270522	1.98985
0.794096	2.2036
