Adsorption isotherm of Propene on Zeolite 5A
DOI: 10.1021/ba-1973-0121.ch030
Adsorbate Propene: InChIKey QQONPFPTGQHPMA-UHFFFAOYSA-N
Temperature: 358 K
Tabular data in the source: 0
pressure (bar)	uptake (molecules/cavity)
0.00036027	0.312951
0.000399866	0.341587
0.000438058	0.368204
0.000479899	0.396895
0.000532643	0.433213
0.000583518	0.466969
0.000639252	0.503357
0.000709509	0.549416
0.000787378	0.592171
0.000862583	0.638315
0.000957249	0.687988
0.00104868	0.741597
0.00125786	0.819269
0.00137801	0.883108
0.00154911	0.951742
0.00171888	1.01295
0.00214439	1.17663
0.00237939	1.25229
0.00267446	1.3327
0.00300613	1.41827
0.00333557	1.50947
0.00374922	1.60639
0.00421357	1.6881
0.00467534	1.79666
0.00518624	1.86456
0.0058294	1.98428
0.00638528	2.11208
0.00717408	2.16421
0.0080626	2.2743
0.00917762	2.35979
0.0111466	2.50989
0.0125236	2.57184
0.0142555	2.66853
0.0152105	2.73543
0.0173114	2.80268
0.0199643	2.94469
0.0224276	2.97954
0.0255254	3.05279
0.0275812	3.05106
0.030591	3.12667
0.0334891	3.16427
0.0376264	3.24237
0.0428295	3.36427
0.0487397	3.40377
0.0691151	3.61617
0.0786635	3.70508
0.0883798	3.79653
0.0992689	3.79331
0.126921	3.93257
0.14633	4.02888
0.166496	4.02508
0.204731	4.07003
0.232977	4.11782
0.352357	4.31789
0.395606	4.15401
