Adsorption isotherm of N-Butane on Zeolite 5A
DOI: 10.1021/ba-1973-0121.ch030
Adsorbate N-Butane: InChIKey IJDNQMDRQITEOD-UHFFFAOYSA-N
Temperature: 308 K
Tabular data in the source: 0
pressure (bar)	uptake (molecules/cavity)
0.000186886	1.19779
0.000210032	1.25872
0.000236045	1.32274
0.000265317	1.40767
0.000298177	1.47928
0.000335107	1.55452
0.00037661	1.63359
0.000423194	1.69517
0.000475607	1.78139
0.000534435	1.84853
0.000600541	1.91821
0.000674823	1.99051
0.000758295	2.06553
0.000863161	2.14319
0.000969929	2.22397
0.00108975	2.27886
0.00124028	2.33489
0.00139369	2.42289
0.00158643	2.51398
0.00178241	2.57603
0.00202833	2.60627
0.00230851	2.67036
0.00259405	2.771
0.00295238	2.83913
0.0033171	2.90921
0.00377477	2.94336
0.00424108	3.01601
0.00476432	3.05172
0.00542243	3.12674
0.00617057	3.16345
0.00702194	3.2006
0.00788938	3.27959
0.00897662	3.2765
0.0102166	3.35706
0.0116245	3.35389
0.0130587	3.39359
0.0146698	3.43376
0.0166937	3.47407
0.0189943	3.4708
0.0216154	3.51155
0.0245942	3.50824
0.0276282	3.54976
0.0310322	3.54675
0.0353145	3.58839
0.039671	3.63086
0.0445588	3.62779
0.0507064	3.67038
0.0577036	3.71347
