Adsorption isotherm of Ethane on Zeolite 5A
DOI: 10.1021/ba-1973-0121.ch030
Adsorbate Ethane: InChIKey OTMSDBZUPAUEDD-UHFFFAOYSA-N
Temperature: 308 K
Tabular data in the source: 0
pressure (bar)	uptake (molecules/cavity)
0.0044134	0.105141
0.0047736	0.114784
0.00523028	0.125299
0.00573065	0.136777
0.00636228	0.153107
0.00697095	0.167133
0.00763787	0.182443
0.00836857	0.199157
0.00916917	0.217401
0.010045	0.234341
0.0108648	0.255832
0.0119042	0.279269
0.013043	0.304851
0.0142907	0.332778
0.0156557	0.358708
0.016721	0.40165
0.0183182	0.432947
0.0200707	0.472608
0.0219909	0.515902
0.0240948	0.563163
0.0263957	0.607045
0.028917	0.654347
0.0320954	0.714223
0.0333821	0.750978
0.0370453	0.809418
0.0405894	0.883566
0.0444604	0.940476
0.0493393	1.01366
0.0540522	1.09265
0.0599837	1.17768
0.0692457	1.35159
0.0768127	1.40267
0.0841614	1.53116
0.0958127	1.6089
0.106315	1.71236
0.119515	1.84544
0.132612	1.96412
0.149057	2.09023
0.165369	2.19676
0.183465	2.30872
0.206221	2.45695
0.231757	2.58193
0.260461	2.71326
0.29272	2.85127
0.32893	2.95874
0.369669	3.10925
0.415454	3.2674
0.472839	3.34773
0.531402	3.51802
0.597136	3.65061
0.679803	3.83594
0.763788	3.93063
