Adsorption isotherm of Propene on Zeolite 5A
DOI: 10.1021/ba-1973-0121.ch030
Adsorbate Propene: InChIKey QQONPFPTGQHPMA-UHFFFAOYSA-N
Temperature: 358 K
Tabular data in the source: 0
pressure (bar)	uptake (molecules/cavity)
0.00122493	0.769332
0.00148794	0.828654
0.00185523	0.915185
0.0020353	1.11914
0.00289642	1.62986
0.00455809	1.86632
0.00622075	2.05984
0.0104424	2.35757
0.0125129	2.38435
0.0153926	2.50398
0.0179748	2.5329
0.0187005	2.7313
0.0212624	2.56192
0.0224116	2.7974
0.0268629	2.90146
0.0317814	2.97196
0.0356922	2.93221
0.0390682	2.93027
0.05544	3.31583
0.0755776	3.30833
0.111423	3.55839
0.140713	3.88034
0.153845	3.50551
0.184533	3.87267
0.272015	4.11316
0.343228	4.15831
