Adsorption isotherm of Ethane on Zeolite 5A
DOI: 10.1021/ba-1973-0121.ch030
Adsorbate Ethane: InChIKey OTMSDBZUPAUEDD-UHFFFAOYSA-N
Temperature: 308 K
Tabular data in the source: 0
pressure (bar)	uptake (molecules/cavity)
0.00652224	0.14014
0.0074316	0.158833
0.016274	0.358606
0.0325075	0.705203
0.0683759	1.38626
0.151274	2.46252
0.267808	3.2368
0.317061	3.53131
0.42168	3.89823
0.518804	4.14579
0.59814	4.24731
0.716957	4.40532
