Adsorption isotherm of Ethane on H-Chabazite
DOI: 10.1021/ba-1973-0121.ch030
Adsorbate Ethane: InChIKey OTMSDBZUPAUEDD-UHFFFAOYSA-N
Temperature: 273 K
Tabular data in the source: 0
pressure (bar)	uptake (molecules/cavity)
0.00110277	0.102777
0.00124042	0.112149
0.00137787	0.127127
0.00151021	0.138759
0.00165525	0.151456
0.00181423	0.165314
0.00198819	0.178172
0.00217914	0.194475
0.00238844	0.21227
0.00261783	0.231693
0.00310301	0.265791
0.0034449	0.286423
0.00377523	0.308701
0.00413781	0.336947
0.00453457	0.363155
0.00503491	0.396327
0.0055177	0.427154
0.00612563	0.460312
0.00697913	0.495903
0.00764941	0.541279
0.00849102	0.575964
0.00930521	0.620762
0.0103275	0.652238
0.0122398	0.738822
0.0135864	0.786166
0.0152779	0.836425
0.01718	0.889896
0.0193247	0.971045
0.0217212	0.994651
0.0244255	1.05824
0.0274627	1.11174
0.0308776	1.16794
0.0347115	1.21156
0.0390277	1.27281
0.0438806	1.33716
0.0493291	1.3871
0.0615394	1.49286
0.0691804	1.54862
0.0787867	1.60623
0.088557	1.64527
0.099555	1.70672
0.11787	1.76946
0.132508	1.83554
0.150884	1.8799
0.171808	1.92532
0.193118	1.97213
0.219899	2.01978
0.247168	2.06888
0.281451	2.11887
0.320482	2.17007
0.360175	2.19488
0.410122	2.24792
0.466867	2.24472
0.524763	2.29929
0.597548	2.35484
0.68021	2.35149
0.76458	2.40866
0.859277	2.43619
