Adsorption isotherm of Methane on H-Chabazite
DOI: 10.1021/ba-1973-0121.ch030
Adsorbate Methane: InChIKey VNWKTOKETHGBQD-UHFFFAOYSA-N
Temperature: 159 K
Tabular data in the source: 0
pressure (bar)	uptake (molecules/cavity)
0.000137997	0.213553
0.000151229	0.230163
0.00017013	0.254349
0.00018647	0.277622
0.000207015	0.299173
0.000226897	0.326547
0.000248654	0.351946
0.00027609	0.384094
0.000302563	0.413969
0.000331623	0.451848
0.000387913	0.505468
0.00042523	0.558743
0.000466004	0.602202
0.000517348	0.648948
0.000574351	0.699323
0.000663004	0.762878
0.000717325	0.8328
0.000796359	0.897447
0.000884103	0.967112
0.001007	1.01586
0.00110371	1.10881
0.00122515	1.17986
0.00148928	1.27019
0.0016113	1.38661
0.00181165	1.45671
0.00209098	1.56911
0.00235098	1.64844
0.00285865	1.8201
0.00321364	1.88808
0.00361322	1.98354
0.00390593	2.00707
0.00433566	2.13568
0.00487406	2.21545
0.005624	2.32679
0.00624187	2.44476
0.00701599	2.50419
0.00778235	2.50135
0.00863859	2.66163
0.00971134	2.76104
0.0106334	2.75829
0.0119556	2.89774
0.0134364	2.93087
0.0151026	3.00211
0.0165391	3.0373
0.0183537	3.15119
0.0208989	3.22733
0.0241075	3.30484
0.0270977	3.38518
0.0308555	3.46698
0.0379807	3.59288
0.0426848	3.63397
0.0486041	3.72177
0.0567823	3.71542
0.0638239	3.80574
0.0717287	3.84925
0.0816644	3.8927
0.0979226	3.9344
0.111487	3.97883
0.126912	3.97316
