Adsorption isotherm of Methane on H-Chabazite
DOI: 10.1021/ba-1973-0121.ch030
Adsorbate Methane: InChIKey VNWKTOKETHGBQD-UHFFFAOYSA-N
Temperature: 159 K
Tabular data in the source: 0
pressure (bar)	uptake (molecules/cavity)
0.000163619	0.251259
0.000368213	0.493122
0.000629334	0.744243
0.000955996	1.00366
0.00143229	1.25476
0.00200983	1.47357
0.0026774	1.70976
0.00375699	2.00793
0.00533762	2.24142
0.00748456	2.47096
0.0100949	2.72517
0.0157037	3.03903
0.0228835	3.22412
0.0346723	3.46254
0.0539055	3.6708
0.0929765	3.93665
