Adsorption isotherm of N-Butane on Zeolite 5A
DOI: 10.1021/ba-1973-0121.ch030
Adsorbate N-Butane: InChIKey IJDNQMDRQITEOD-UHFFFAOYSA-N
Temperature: 308 K
Tabular data in the source: 0
pressure (bar)	uptake (molecules/cavity)
0.000173004	1.22909
0.000353516	1.83088
0.000984342	2.62008
0.00398046	3.33787
0.00452964	3.37706
0.00571547	3.41414
0.00996463	3.62172
0.0249415	3.88043
0.0585198	4.10745
