Adsorption isotherm of 2,4-D on KIT-6-A2
DOI: 10.1007/s10450-019-00015-7
Article source: Figure 8
Adsorbate 2,4-D: InChIKey OVSKIKFHRZPJSS-UHFFFAOYSA-N
Kind: experiment
Temperature: 293 K
Tabular data in the source: 0
pressure (bar)	uptake (mg/g)
1.01325	0.487805
1.01325	126.098
1.01325	145.854
1.01325	153.659
1.01325	158.293
1.01325	161.707
