Adsorption isotherm of 2,4-D on KIT-6
DOI: 10.1007/s10450-019-00015-7
Article source: Figure 8
Adsorbate 2,4-D: InChIKey OVSKIKFHRZPJSS-UHFFFAOYSA-N
Kind: experiment
Temperature: 293 K
Tabular data in the source: 0
pressure (bar)	uptake (mg/g)
1.01325	6.82927
1.01325	21.2195
1.01325	66.8293
1.01325	95.3659
1.01325	105.854
1.01325	108.537
1.01325	109.024
