Adsorption isotherm of 2,4-D on KIT-6-A3
DOI: 10.1007/s10450-019-00015-7
Article source: Figure 8
Adsorbate 2,4-D: InChIKey OVSKIKFHRZPJSS-UHFFFAOYSA-N
Kind: experiment
Temperature: 293 K
Tabular data in the source: 0
pressure (bar)	uptake (mg/g)
1.01325	43.4146
1.01325	85.8537
1.01325	152.195
1.01325	177.317
1.01325	190.488
1.01325	189.024
1.01325	188.78
