Adsorption isotherm of 2,4-D on KIT-6-A1
DOI: 10.1007/s10450-019-00015-7
Article source: Figure 8
Adsorbate 2,4-D: InChIKey OVSKIKFHRZPJSS-UHFFFAOYSA-N
Kind: experiment
Temperature: 293 K
Tabular data in the source: 0
pressure (bar)	uptake (mg/g)
1.01325	78.2927
1.01325	0.243902
1.01325	118.049
1.01325	125.366
1.01325	129.268
1.01325	135.366
1.01325	141.707
1.01325	141.707
