Adsorption isotherm of Nitrogen on Zn4OL3(DMF)(CHCl3)
DOI: 10.1021/Ja0700395
Adsorbate Nitrogen: InChIKey IJGRMHOSHXDMSA-UHFFFAOYSA-N
Temperature: 77 K
Tabular data in the source: 0
pressure (bar)	uptake (cm3(STP)/g)
0.00619484	80.0768
0.0149343	98.4297
0.0367831	114.161
0.0717411	120.715
0.198464	131.727
0.351405	136.709
0.499976	141.428
0.655102	145.361
0.803674	148.769
0.928212	151.653
0.985018	155.324
