Adsorption isotherm of Carbon Dioxide on Activated Carbon
DOI: 10.1016/j.egypro.2013.05.098
Adsorbate Carbon Dioxide: InChIKey CURLTUGMZLYLDI-UHFFFAOYSA-N
Temperature: 298 K
Tabular data in the source: 0
pressure (bar)	uptake (mmol/g)
0.0960422	6.27251
0.399203	5.82864
0.816143	5.24815
1.15781	4.94055
1.3474	4.70148
2.86645	3.50485
3.13284	3.47015
3.62678	3.16221
4.00684	2.9568
4.34883	2.75148
4.80514	2.57999
5.10927	2.44293
5.52729	2.20335
6.97258	1.75688
8.49422	1.37842
8.76039	1.27554
9.33091	1.10379
10.0916	0.863428
10.9666	0.656894
