Adsorption isotherm of Carbon Dioxide on UiO-67/MCM-41 Hybrid
DOI: 10.1016/j.egypro.2013.05.098
Adsorbate Carbon Dioxide: InChIKey CURLTUGMZLYLDI-UHFFFAOYSA-N
Temperature: 298 K
Tabular data in the source: 0
pressure (bar)	uptake (mmol/g)
0.211336	6.61316
0.439436	6.51036
0.667645	6.44166
1.00931	6.13407
1.23719	5.9631
1.73103	5.62107
1.84503	5.55262
2.5289	5.10789
3.21287	4.69724
3.85878	4.28668
4.6189	3.87587
5.45505	3.43078
5.87318	3.22529
6.25367	3.15624
6.48144	2.95118
6.82354	2.77995
7.31792	2.60837
8.00222	2.29999
8.19225	2.19729
9.29501	1.78569
10.3597	1.37418
10.8541	1.2026
11.1963	1.06546
11.7287	0.893798
13.2119	0.379064
13.8966	0.207053
14.543	-0.0330524
