Adsorption isotherm of Carbon Dioxide on USO-2-Ni-MOF
DOI: 10.1016/j.egypro.2013.05.098
Adsorbate Carbon Dioxide: InChIKey CURLTUGMZLYLDI-UHFFFAOYSA-N
Temperature: 298 K
Tabular data in the source: 0
pressure (bar)	uptake (mmol/g)
0.112915	11.5907
0.681164	10.703
0.983676	10.0546
1.24844	9.50853
1.39964	9.16727
1.5887	8.75775
1.70183	8.41659
2.23222	7.5972
2.49688	7.01705
2.68659	6.81208
3.10309	6.09522
3.67199	5.41211
3.82363	5.20722
3.93719	5.00242
4.16475	4.72917
4.96164	3.90918
5.56893	3.32825
5.94856	2.98648
6.6705	2.54166
6.93656	2.40469
7.20263	2.26772
8.11449	1.6861
9.14099	1.24059
10.0918	0.93161
11.2708	0.55393
12.3741	0.312786
13.4776	0.139824
14.3147	0.00155744
