Adsorption isotherm of Carbon Dioxide on MCM-41
DOI: 10.1016/j.egypro.2013.05.098
Adsorbate Carbon Dioxide: InChIKey CURLTUGMZLYLDI-UHFFFAOYSA-N
Temperature: 298 K
Tabular data in the source: 0
pressure (bar)	uptake (mmol/g)
0.132707	5.82924
0.854646	5.38442
1.42484	5.1104
2.18474	4.6314
3.05929	4.2885
4.00955	3.80907
4.99809	3.39773
5.83457	3.05492
7.24135	2.47218
7.84972	2.23216
9.21876	1.75178
10.4738	1.33983
