Adsorption isotherm of Carbon Dioxide on Zeolite 13X
DOI: 10.1016/j.egypro.2013.05.098
Adsorbate Carbon Dioxide: InChIKey CURLTUGMZLYLDI-UHFFFAOYSA-N
Temperature: 298 K
Tabular data in the source: 0
pressure (bar)	uptake (mmol/g)
0.160287	2.52236
0.16126	2.82918
0.273634	2.24938
0.386332	1.77185
0.689384	1.29389
0.992977	0.98638
1.48703	0.712529
1.90527	0.541124
2.32351	0.369719
2.81832	0.334504
3.19881	0.265457
3.54123	0.196497
4.26458	0.194853
4.60711	0.159984
5.06363	0.0566736
5.55844	0.0214581
6.01519	-0.0136709
6.58636	0.0191219
7.00503	-0.0159205
7.34766	-0.0166992
7.91872	-0.0179971
8.29943	-0.0188623
8.56582	-0.0535587
8.98449	-0.0886011
9.3652	-0.0894664
10.1267	-0.0571062
10.6216	-0.058231
11.1166	-0.0593558
11.5353	-0.0603076
12.1825	-0.0617785
12.8299	-0.0291588
