Adsorption isotherm of Methane on MOF-210
DOI: 10.1016/j.fluid.2014.08.020
Adsorbate Methane: InChIKey VNWKTOKETHGBQD-UHFFFAOYSA-N
Temperature: 298 K
Tabular data in the source: 0
pressure (bar)	uptake (mg/g)
6.95652e-11	1.92308
5.56522e-10	25.9615
1.14783e-09	52.8846
1.63478e-09	73.0769
2.13913e-09	96.1538
2.57391e-09	112.5
3.06087e-09	131.731
3.54783e-09	152.885
4e-09	169.231
4.50435e-09	186.538
4.97391e-09	198.077
5.49565e-09	215.385
5.96522e-09	226.923
6.50435e-09	237.5
6.97391e-09	247.115
7.3913e-09	254.808
7.89565e-09	264.423
