Adsorption isotherm of Methane on MOF-210
DOI: 10.1016/j.fluid.2014.08.020
Adsorbate Methane: InChIKey VNWKTOKETHGBQD-UHFFFAOYSA-N
Temperature: 298 K
Tabular data in the source: 0
pressure (bar)	uptake (mg/g)
3.30435e-10	3.84615
4.17391e-10	9.61538
4.86957e-10	12.5
5.3913e-10	16.3462
6.26087e-10	21.1538
7.30435e-10	26.9231
7.65217e-10	27.8846
8.52174e-10	32.6923
9.3913e-10	35.5769
9.91304e-10	41.3462
1.09565e-09	45.1923
1.2e-09	50.9615
1.25217e-09	53.8462
1.35652e-09	58.6538
1.42609e-09	62.5
1.47826e-09	66.3462
1.56522e-09	69.2308
1.70435e-09	76.9231
1.82609e-09	81.7308
1.91304e-09	86.5385
2.29565e-09	103.846
2.38261e-09	109.615
2.53913e-09	117.308
2.64348e-09	121.154
2.74783e-09	126.923
2.88696e-09	130.769
3.02609e-09	137.5
3.13043e-09	143.269
3.21739e-09	148.077
3.28696e-09	151.923
3.37391e-09	155.769
3.46087e-09	160.577
3.49565e-09	162.5
3.61739e-09	166.346
3.68696e-09	168.269
3.77391e-09	173.077
3.87826e-09	175.962
3.98261e-09	179.808
4.06957e-09	182.692
4.15652e-09	185.577
4.24348e-09	189.423
4.34783e-09	192.308
4.41739e-09	194.231
4.52174e-09	198.077
4.62609e-09	200.962
4.69565e-09	203.846
4.78261e-09	206.731
4.86957e-09	210.577
4.9913e-09	213.462
5.06087e-09	215.385
5.2e-09	219.231
5.26957e-09	221.154
5.35652e-09	223.077
5.46087e-09	226.923
5.56522e-09	229.808
5.65217e-09	229.808
5.73913e-09	233.654
5.84348e-09	236.538
5.96522e-09	238.462
6.03478e-09	242.308
6.15652e-09	243.269
6.26087e-09	246.154
6.33043e-09	247.115
6.45217e-09	250
6.53913e-09	251.923
6.64348e-09	251.923
6.74783e-09	254.808
6.83478e-09	256.731
6.92174e-09	259.615
7.04348e-09	261.538
7.14783e-09	264.423
