Adsorption isotherm of Methane on MOF-200
DOI: 10.1016/j.fluid.2014.08.020
Adsorbate Methane: InChIKey VNWKTOKETHGBQD-UHFFFAOYSA-N
Temperature: 298 K
Tabular data in the source: 0
pressure (bar)	uptake (mg/g)
2.26087e-10	4.14312
2.78261e-10	6.63768
3.47826e-10	12.4638
5.21739e-10	16.6123
5.91304e-10	19.9384
8.17391e-10	29.0815
1.04348e-09	39.8913
1.47826e-09	62.346
1.54783e-09	64.0054
1.58261e-09	66.5018
1.72174e-09	73.154
1.82609e-09	76.4764
1.87826e-09	77.3043
2.03478e-09	83.9547
2.08696e-09	86.4493
2.2087e-09	93.1033
2.29565e-09	96.4275
2.41739e-09	100.582
2.46957e-09	102.243
2.57391e-09	106.399
2.64348e-09	108.891
2.69565e-09	111.386
2.8e-09	114.708
2.85217e-09	116.37
2.92174e-09	118.862
3.02609e-09	121.351
3.11304e-09	125.509
3.18261e-09	128.002
3.25217e-09	131.328
3.30435e-09	133.822
3.3913e-09	136.313
3.47826e-09	139.638
3.58261e-09	142.127
3.61739e-09	143.79
3.68696e-09	146.283
3.73913e-09	147.944
3.8087e-09	150.437
3.84348e-09	152.1
3.91304e-09	155.426
4e-09	157.083
4.06957e-09	159.576
4.13913e-09	161.236
4.1913e-09	163.73
4.22609e-09	166.226
4.33043e-09	169.549
4.38261e-09	171.21
4.50435e-09	175.364
4.57391e-09	177.024
4.66087e-09	180.348
4.78261e-09	182.835
4.86957e-09	186.159
4.97391e-09	186.982
5.04348e-09	189.475
5.13043e-09	191.966
5.2e-09	193.625
5.25217e-09	194.453
5.30435e-09	196.114
5.37391e-09	197.774
5.44348e-09	199.433
5.49565e-09	200.261
5.54783e-09	201.922
5.6e-09	203.583
5.65217e-09	205.245
5.73913e-09	207.736
5.7913e-09	208.563
5.84348e-09	210.225
5.93043e-09	211.049
5.98261e-09	212.71
6.05217e-09	215.203
6.08696e-09	216.033
6.17391e-09	217.69
6.26087e-09	220.181
6.29565e-09	221.011
6.33043e-09	221.841
6.4e-09	223.5
6.48696e-09	223.491
6.57391e-09	225.149
