Adsorption isotherm of Methane on MOF-177
DOI: 10.1016/j.fluid.2014.08.020
Adsorbate Methane: InChIKey VNWKTOKETHGBQD-UHFFFAOYSA-N
Temperature: 298 K
Tabular data in the source: 0
pressure (bar)	uptake (mg/g)
0.349342	0.00360295
2.43271	18.1769
4.69306	33.0517
7.478	47.1068
9.91302	61.9834
14.0919	81.0034
19.8376	107.465
26.4561	134.761
31.8559	156.269
38.1302	176.136
43.3588	192.691
48.4156	205.12
50.8576	210.095
55.9155	220.874
60.9752	229.177
69.3537	237.514
74.0669	241.688
78.0838	242.554
