Adsorption isotherm of Methane on MOF-205
DOI: 10.1016/j.fluid.2014.08.020
Adsorbate Methane: InChIKey VNWKTOKETHGBQD-UHFFFAOYSA-N
Temperature: 298 K
Tabular data in the source: 0
pressure (bar)	uptake (mg/g)
1.37382e-10	1.94175
2.55663e-10	11.6505
3.73755e-10	18.4466
4.72175e-10	24.2718
6.29862e-10	36.8932
8.46247e-10	47.5728
1.02354e-09	60.1942
1.16156e-09	71.8447
1.29938e-09	80.5825
1.39774e-09	85.4369
1.45695e-09	91.2621
1.51602e-09	95.1456
1.57504e-09	98.0583
1.65385e-09	103.883
1.7326e-09	108.738
1.79174e-09	113.592
1.87049e-09	118.447
1.96884e-09	123.301
2.04759e-09	128.155
2.1264e-09	133.981
2.18548e-09	137.864
2.26417e-09	141.748
2.38207e-09	145.631
2.44121e-09	150.485
2.51989e-09	154.369
2.61819e-09	158.252
2.71654e-09	163.107
2.81484e-09	166.99
2.87385e-09	169.903
2.97221e-09	174.757
3.05096e-09	179.612
3.14918e-09	182.524
3.22781e-09	185.437
3.34577e-09	190.291
3.42439e-09	193.204
3.54229e-09	197.087
3.64052e-09	200
3.73888e-09	204.854
3.83698e-09	205.825
3.93528e-09	209.709
4.05311e-09	212.621
4.13173e-09	215.534
4.24964e-09	219.417
4.36747e-09	222.33
4.48531e-09	225.243
4.56387e-09	227.184
4.68171e-09	230.097
4.79954e-09	233.01
4.91732e-09	234.951
5.01548e-09	236.893
5.13332e-09	239.806
5.23149e-09	241.748
5.34932e-09	244.66
5.42788e-09	246.602
5.5652e-09	247.573
5.70265e-09	250.485
5.82042e-09	252.427
5.93813e-09	253.398
6.05584e-09	254.369
6.17362e-09	256.311
6.27172e-09	257.282
6.40904e-09	258.252
6.5072e-09	260.194
6.64452e-09	261.165
6.78178e-09	261.165
6.87981e-09	261.165
6.97792e-09	262.136
7.11517e-09	262.136
7.21321e-09	262.136
