Adsorption isotherm of Methane on MOF-177
DOI: 10.1016/j.fluid.2014.08.020
Adsorbate Methane: InChIKey VNWKTOKETHGBQD-UHFFFAOYSA-N
Temperature: 298 K
Tabular data in the source: 0
pressure (bar)	uptake (mg/g)
8.71639e-11	2.46711
1.74213e-10	6.57895
1.91393e-10	10.6908
3.30441e-10	20.5592
4.34843e-10	26.3158
5.38957e-10	36.1842
6.25891e-10	41.9408
6.95415e-10	46.875
7.82406e-10	51.8092
8.6934e-10	57.5658
1.00862e-09	64.1447
1.0782e-09	68.2566
1.13026e-09	73.1908
1.1999e-09	76.4803
1.26948e-09	80.5921
1.33906e-09	84.7039
1.39123e-09	87.9934
1.46081e-09	92.1053
1.54792e-09	95.3947
1.6175e-09	99.5066
1.68714e-09	102.796
1.75672e-09	106.908
1.82642e-09	109.375
1.89594e-09	114.309
1.94812e-09	117.599
2.03516e-09	121.711
2.1048e-09	125
2.17439e-09	129.112
2.26149e-09	132.401
2.33113e-09	135.691
2.40071e-09	139.803
2.47029e-09	143.914
2.52252e-09	146.382
2.62698e-09	151.316
2.69668e-09	153.783
2.7662e-09	158.717
2.88824e-09	162.007
2.94053e-09	163.651
3.02769e-09	166.118
3.1148e-09	169.408
3.20197e-09	171.875
3.27155e-09	175.987
3.3586e-09	180.099
3.41088e-09	181.743
3.53281e-09	186.678
3.63744e-09	189.145
3.70714e-09	191.612
3.77672e-09	195.724
3.86394e-09	197.368
3.96851e-09	200.658
4.03821e-09	203.125
4.12537e-09	205.592
4.21259e-09	207.237
4.31723e-09	209.704
4.42186e-09	212.171
4.49155e-09	214.638
4.57866e-09	217.928
4.70076e-09	220.395
4.77051e-09	222.039
4.85773e-09	223.684
4.9449e-09	226.151
5.06711e-09	226.974
5.1718e-09	228.618
5.25896e-09	231.086
5.32883e-09	231.086
5.45093e-09	233.553
5.59055e-09	235.197
5.67789e-09	235.197
5.78258e-09	236.842
5.88727e-09	238.487
