Adsorption isotherm of Methane on MOF-200
DOI: 10.1016/j.fluid.2014.08.020
Adsorbate Methane: InChIKey VNWKTOKETHGBQD-UHFFFAOYSA-N
Temperature: 298 K
Tabular data in the source: 0
pressure (bar)	uptake (mg/g)
2.95652e-10	11.6359
6.08696e-10	23.2699
9.73913e-10	38.2319
1.28696e-09	50.6993
1.65217e-09	66.4946
1.96522e-09	80.6286
2.46957e-09	94.7428
2.85217e-09	108.87
3.2e-09	119.667
3.58261e-09	132.127
3.70435e-09	136.281
3.96522e-09	142.92
4.38261e-09	155.377
4.9913e-09	172.813
5.51304e-09	186.926
6.03478e-09	196.871
6.52174e-09	207.654
6.9913e-09	217.605
7.47826e-09	226.721
7.98261e-09	234.168
