Adsorption isotherm of Methane on MOF-205
DOI: 10.1016/j.fluid.2014.08.020
Adsorbate Methane: InChIKey VNWKTOKETHGBQD-UHFFFAOYSA-N
Temperature: 298 K
Tabular data in the source: 0
pressure (bar)	uptake (mg/g)
1.97348e-11	1.94175
1.57561e-10	10.6796
3.34729e-10	21.3592
5.31506e-10	32.0388
7.87296e-10	45.6311
1.06288e-09	62.1359
1.27946e-09	75.7282
1.65321e-09	94.1748
1.98769e-09	111.65
2.30237e-09	126.214
2.63672e-09	141.748
3.10857e-09	161.165
3.56063e-09	177.67
3.99289e-09	191.262
4.16974e-09	197.087
4.62155e-09	209.709
5.24983e-09	222.33
5.89784e-09	236.893
6.56514e-09	246.602
7.19297e-09	252.427
7.86021e-09	261.165
8.52694e-09	262.136
