Adsorption isotherm of Methane on IRMOF-1
DOI: 10.1016/j.fluid.2014.08.020
Adsorbate Methane: InChIKey VNWKTOKETHGBQD-UHFFFAOYSA-N
Temperature: 298 K
Tabular data in the source: 0
pressure (bar)	uptake (mg/g)
9.82533e-11	1.17521
4.32314e-10	15.2229
6.0917e-10	22.8318
8.84279e-10	38.0444
1.17904e-09	50.3363
1.80786e-09	76.0914
2.59389e-09	98.9347
3.36026e-09	120.608
4.00873e-09	134.676
4.63755e-09	144.067
5.26638e-09	154.043
5.91485e-09	159.93
7.17249e-09	166.44
8.48908e-09	167.694
