Adsorption isotherm of Methane on IRMOF-1
DOI: 10.1016/j.fluid.2014.08.020
Adsorbate Methane: InChIKey VNWKTOKETHGBQD-UHFFFAOYSA-N
Temperature: 298 K
Tabular data in the source: 0
pressure (bar)	uptake (mg/g)
1.57205e-10	1.76345
2.35808e-10	5.27505
2.9476e-10	8.20096
3.53712e-10	11.1269
4.71616e-10	16.3943
5.10917e-10	19.9033
7.27074e-10	28.0992
8.05677e-10	32.1952
1.00218e-09	41.5586
1.08079e-09	45.6546
1.25764e-09	53.8479
1.31659e-09	57.3582
1.37555e-09	59.6997
1.5131e-09	64.9684
1.5917e-09	69.0644
1.631e-09	71.989
1.78821e-09	77.259
1.84716e-09	80.7693
1.94541e-09	83.6978
2.00437e-09	86.0392
2.06332e-09	89.5496
2.14192e-09	91.3079
2.20087e-09	95.4027
2.27948e-09	97.7454
2.35808e-09	100.088
2.43668e-09	103.015
2.53493e-09	106.528
2.59389e-09	109.454
2.69214e-09	112.967
2.77074e-09	115.31
2.84934e-09	117.653
2.9083e-09	119.41
2.9869e-09	122.921
3.1048e-09	125.851
3.18341e-09	127.609
3.28166e-09	130.538
3.37991e-09	132.882
3.47817e-09	135.226
3.59607e-09	137.571
3.63537e-09	139.327
3.73362e-09	141.671
3.79258e-09	144.013
3.91048e-09	145.189
4.04803e-09	147.536
4.14629e-09	149.88
4.24454e-09	151.055
4.34279e-09	153.983
4.44105e-09	155.159
4.5786e-09	156.921
4.65721e-09	158.679
4.77511e-09	160.44
4.89301e-09	161.032
5.01092e-09	162.209
5.14847e-09	162.217
5.26638e-09	163.978
5.40393e-09	164.572
5.52183e-09	165.164
5.62009e-09	165.17
5.71834e-09	165.761
5.8559e-09	166.354
5.99345e-09	166.948
6.11135e-09	166.371
6.22926e-09	166.963
6.32751e-09	167.554
6.42576e-09	168.145
6.58297e-09	168.155
6.70087e-09	168.162
6.81878e-09	168.17
6.89738e-09	168.76
