Adsorption isotherm of Trichloromethane on Graphite
DOI: 10.1016/0039-6028(95)01192-7
Adsorbate Trichloromethane: InChIKey HEDRZPFGACZZDS-UHFFFAOYSA-N
Temperature: 207 K
Tabular data in the source: 0
pressure (bar)	uptake (mmol adsorbed)
5.55e-05	0.0101382
5.56e-05	0.0130377
5.96e-05	0.0111995
6.05e-05	0.0142964
6.34e-05	0.0107617
6.78e-05	0.0119216
7.01e-05	0.0153641
7.84e-05	0.0160862
9.11e-05	0.0165433
0.000181021	0.0170656
0.000302823	0.0173055
0.000369718	0.0175553
0.000431853	0.0179961
