Adsorption isotherm of Trichloromethane on Graphite
DOI: 10.1016/0039-6028(95)01192-7
Adsorbate Trichloromethane: InChIKey HEDRZPFGACZZDS-UHFFFAOYSA-N
Temperature: 228 K
Tabular data in the source: 0
pressure (bar)	uptake (mmol adsorbed)
0.00036923	0.00885693
0.000576966	0.00858255
0.000773474	0.00824597
0.00100852	0.00792965
0.00127592	0.00745439
0.00151088	0.00711339
0.00172461	0.00696883
0.00186183	0.00693185
0.00197174	0.00693683
0.0020649	0.00687318
0.00214825	0.00711754
0.00225864	0.00724592
0.00234323	0.00781113
0.00242858	0.00857378
0.0024576	0.00897608
0.0025027	0.00927423
0.00256636	0.0101099
0.0026066	0.0105744
0.00266817	0.0108672
