Adsorption isotherm of Trichloromethane on Graphite
DOI: 10.1016/0039-6028(95)01192-7
Adsorbate Trichloromethane: InChIKey HEDRZPFGACZZDS-UHFFFAOYSA-N
Temperature: 217 K
Tabular data in the source: 0
pressure (bar)	uptake (mmol adsorbed)
0.000187083	0.0100702
0.000214489	0.0100529
0.000263592	0.00996257
0.000341715	0.0102746
0.000387862	0.0108442
0.000402888	0.0118936
0.000418672	0.0131405
0.000433792	0.0142146
0.00046947	0.0149194
0.000503915	0.0153035
0.000592791	0.0155543
