Adsorption isotherm of Trichloromethane on Graphite
DOI: 10.1016/0039-6028(95)01192-7
Adsorbate Trichloromethane: InChIKey HEDRZPFGACZZDS-UHFFFAOYSA-N
Temperature: 228 K
Tabular data in the source: 0
pressure (bar)	uptake (mmol adsorbed)
0.000364388	0.00104072
0.000571829	0.00155167
0.000779363	0.00212141
0.00101416	0.00273982
0.0012707	0.00335013
0.00149997	0.00391177
0.00186688	0.00553979
0.00205876	0.00652713
0.00225683	0.00798275
0.00234611	0.00942008
0.00243548	0.0109162
0.00250331	0.012538
0.0025657	0.0141618
0.00267166	0.0158282
0.00280423	0.0171318
0.00290944	0.0183279
