Adsorption isotherm of Trichloromethane on Graphite
DOI: 10.1016/0039-6028(95)01192-7
Adsorbate Trichloromethane: InChIKey HEDRZPFGACZZDS-UHFFFAOYSA-N
Temperature: 207 K
Tabular data in the source: 0
pressure (bar)	uptake (mmol adsorbed)
5.51e-05	0.00144784
5.69e-05	0.00256206
6e-05	0.00455593
6.33e-05	0.00320501
6.81e-05	0.00619582
7.14e-05	0.00830697
7.96e-05	0.0100641
0.000104341	0.0119322
0.000115674	0.0122212
0.000138249	0.0127404
0.000171598	0.0131968
0.000193521	0.0133056
0.000237554	0.0136404
0.000281586	0.0139752
0.000325897	0.0144859
0.000364588	0.0148815
0.000392318	0.0152227
0.000420326	0.0157399
0.000448335	0.016257
0.000465474	0.0167784
0.000482707	0.0173584
0.00049994	0.0179385
0.000517731	0.0188704
0.000535482	0.0232057
0.000535894	0.0200369
