Adsorption isotherm of Trichloromethane on Graphite
DOI: 10.1016/0039-6028(95)01192-7
Adsorbate Trichloromethane: InChIKey HEDRZPFGACZZDS-UHFFFAOYSA-N
Temperature: 223 K
Tabular data in the source: 0
pressure (bar)	uptake (mmol adsorbed)
0.000196013	0.00116227
0.000551769	0.00261797
0.000781694	0.00359113
0.000978919	0.00451766
0.00105584	0.00501841
0.00116096	0.00615572
0.00121689	0.00713488
0.00125192	0.00865125
0.00126034	0.0105305
0.00130475	0.0111022
0.00133922	0.0122658
0.00136375	0.0140213
0.00142971	0.0144674
0.00150073	0.0146762
0.00156107	0.0150067
0.00165402	0.015325
0.00183466	0.0160812
0.00197136	0.0165597
0.00210328	0.0174517
0.00223088	0.0190512
0.0023092	0.0204338
0.00236044	0.0218853
0.00237196	0.0222928
