Adsorption isotherm of Trichloromethane on Graphite
DOI: 10.1016/0039-6028(95)01192-7
Adsorbate Trichloromethane: InChIKey HEDRZPFGACZZDS-UHFFFAOYSA-N
Temperature: 216 K
Tabular data in the source: 0
pressure (bar)	uptake (mmol adsorbed)
7.15e-05	0.0015001
0.00010446	0.00172189
0.000170974	0.00251733
0.000236929	0.00296091
0.000281612	0.00370623
0.000316729	0.00527682
0.000329272	0.00632813
0.000341815	0.00737945
0.000354264	0.00837213
0.000361745	0.00966015
0.000380001	0.0108853
0.000430397	0.0118044
0.000480236	0.0123716
0.000535602	0.0129954
0.000585161	0.0133867
0.000651117	0.0138303
0.00073853	0.0140895
0.000798865	0.0144179
0.00084796	0.014516
0.000919442	0.0150161
0.000996638	0.01569
0.00105781	0.0165462
0.00113566	0.0176306
0.00118118	0.0189037
0.00123831	0.0206417
0.00127482	0.0230919
