Adsorption isotherm of Trichloromethane on Graphite
DOI: 10.1016/0039-6028(95)01192-7
Adsorbate Trichloromethane: InChIKey HEDRZPFGACZZDS-UHFFFAOYSA-N
Temperature: 217 K
Tabular data in the source: 0
pressure (bar)	uptake (mmol adsorbed)
0.000208467	0.00215763
0.000346193	0.00328279
0.000391533	0.00444237
0.000394144	0.00608846
0.000413804	0.00819878
0.000443866	0.0100111
0.000462221	0.0112984
0.000506908	0.0120464
0.000589824	0.0128979
0.000644634	0.0131716
