Adsorption isotherm of Trichloromethane on Graphite
DOI: 10.1016/0039-6028(95)01192-7
Adsorbate Trichloromethane: InChIKey HEDRZPFGACZZDS-UHFFFAOYSA-N
Temperature: 218 K
Tabular data in the source: 0
pressure (bar)	uptake (mmol adsorbed)
0.000120117	0.00130819
0.000180456	0.00163865
0.000312281	0.0024719
0.000405692	0.00308415
0.000477552	0.00382209
0.000524757	0.00615744
0.00057693	0.00819683
0.000592181	0.0109559
0.000676029	0.0123952
0.000748635	0.0136034
0.000798104	0.013938
