Adsorption isotherm of Trichloromethane on Graphite
DOI: 10.1016/0039-6028(95)01192-7
Adsorbate Trichloromethane: InChIKey HEDRZPFGACZZDS-UHFFFAOYSA-N
Temperature: 222 K
Tabular data in the source: 0
pressure (bar)	uptake (mmol adsorbed)
0.000480943	0.00933083
0.000633961	0.00911566
0.000754529	0.00903475
0.000907833	0.00889363
0.000985291	0.00903285
0.00105733	0.00919034
0.00110252	0.00951317
0.00117598	0.0100409
0.00120756	0.0111095
0.00122725	0.0119432
0.00125808	0.0128145
0.00126103	0.0121545
0.00128776	0.0133895
0.00139872	0.013666
0.00146485	0.0137183
