Adsorption isotherm of Trichloromethane on Graphite
DOI: 10.1016/0039-6028(95)01192-7
Adsorbate Trichloromethane: InChIKey HEDRZPFGACZZDS-UHFFFAOYSA-N
Temperature: 222 K
Tabular data in the source: 0
pressure (bar)	uptake (mmol adsorbed)
0.000273121	0.0017806
0.000333273	0.00199349
0.000442801	0.00248209
0.00050848	0.00275174
0.000617915	0.00318156
0.000683781	0.00356879
0.000902651	0.00442842
0.000969076	0.00516838
0.00101855	0.00550289
0.00106342	0.00636853
0.00109255	0.00759297
0.00111118	0.00905662
0.0011182	0.010054
0.0011687	0.0110352
0.00117656	0.0125617
0.00119923	0.0131415
0.00123811	0.0136564
0.00130416	0.0141612
0.00140263	0.0145363
0.00146841	0.0148647
0.00155592	0.0151851
0.00176954	0.0161643
0.00186286	0.0167178
0.00200648	0.0181348
0.00209548	0.0193958
0.00214036	0.0202614
0.00219225	0.0221245
0.00220452	0.0230022
