Adsorption isotherm of Trichloromethane on Graphite
DOI: 10.1016/0039-6028(95)01192-7
Adsorbate Trichloromethane: InChIKey HEDRZPFGACZZDS-UHFFFAOYSA-N
Temperature: 227 K
Tabular data in the source: 0
pressure (bar)	uptake (mmol adsorbed)
0.000304422	0.000945411
0.000594033	0.00183752
0.00104724	0.00302162
0.00127107	0.00358529
0.00152789	0.00437196
0.00166993	0.00478963
0.00177412	0.00533905
0.00192778	0.00622299
0.0020002	0.00731365
0.00210485	0.00815702
0.00217773	0.00954163
0.00222345	0.0109364
0.00228565	0.0124426
0.00234214	0.0137745
0.0024095	0.0151023
0.00247114	0.0162558
0.00258732	0.0175067
0.00263716	0.0180764
