Adsorption isotherm of Trichloromethane on Graphite
DOI: 10.1016/0039-6028(95)01192-7
Adsorbate Trichloromethane: InChIKey HEDRZPFGACZZDS-UHFFFAOYSA-N
Temperature: 223 K
Tabular data in the source: 0
pressure (bar)	uptake (mmol adsorbed)
1.06109e-05	0.000790232
1.48892e-05	0.00128513
2.03202e-05	0.00221557
2.20473e-05	0.00457812
2.35372e-05	0.00650548
2.98926e-05	0.0078096
4.78998e-05	0.00855223
9.70119e-05	0.00923087
0.000190845	0.00997191
0.000343843	0.0107136
0.000511611	0.0112081
0.000750309	0.0117648
0.000993116	0.0123224
0.00115388	0.0133162
0.00122645	0.0139998
0.00124919	0.0150569
0.00130963	0.0159894
0.00135419	0.0171707
0.00142154	0.0184763
0.00155457	0.018911
0.00183126	0.019656
0.00206529	0.0205257
0.00223203	0.0217689
0.00234563	0.0233854
