Adsorption isotherm of Trichloromethane on Graphite
DOI: 10.1016/0039-6028(95)01192-7
Adsorbate Trichloromethane: InChIKey HEDRZPFGACZZDS-UHFFFAOYSA-N
Temperature: 221 K
Tabular data in the source: 0
pressure (bar)	uptake (mmol adsorbed)
0.00054736	0.00326667
0.00064602	0.00375933
0.00073381	0.00425603
0.000772504	0.00465338
0.000810918	0.00487436
0.000866288	0.00550079
0.000878089	0.00608463
0.000889797	0.00660968
0.000919021	0.00789291
0.000931661	0.00900585
0.000949736	0.0101168
0.00096191	0.0109358
0.000974084	0.0117548
0.001002	0.0122149
0.00101952	0.0129731
0.00104753	0.0134921
0.00111349	0.0139381
0.00119575	0.0143781
0.00127221	0.0145849
0.00137621	0.0150167
0.00151843	0.015552
0.00158421	0.0158804
0.00167771	0.0165514
0.00178817	0.0176279
0.00192233	0.0199309
0.00196289	0.021504
0.0019968	0.0223149
0.00201394	0.0228379
0.00202537	0.0231866
