Adsorption isotherm of Trichloromethane on Graphite
DOI: 10.1016/0039-6028(95)01192-7
Adsorbate Trichloromethane: InChIKey HEDRZPFGACZZDS-UHFFFAOYSA-N
Temperature: 226 K
Tabular data in the source: 0
pressure (bar)	uptake (mmol adsorbed)
0.00019059	0.000661334
0.000217885	0.00122
0.000268256	0.00202686
0.000298469	0.00320762
0.000333393	0.00550777
0.000382391	0.00699924
0.000451041	0.00811737
0.000701413	0.00867367
0.00110688	0.00922985
0.00174442	0.00941291
0.00252	0.00984539
0.00391796	0.0103395
0.00627263	0.0108334
0.0114757	0.0117616
0.0147669	0.0126303
0.0190476	0.014183
0.0215387	0.015799
0.022345	0.0179131
0.0238545	0.0198405
0.0253776	0.0207728
