Adsorption isotherm of Trichloromethane on Graphite
DOI: 10.1016/0039-6028(95)01192-7
Adsorbate Trichloromethane: InChIKey HEDRZPFGACZZDS-UHFFFAOYSA-N
Temperature: 220 K
Tabular data in the source: 0
pressure (bar)	uptake (mmol adsorbed)
0.000344701	0.00234217
0.000465191	0.00288552
0.000536678	0.0033883
0.000608165	0.00389108
0.000658101	0.00451953
0.000692013	0.00533043
0.000725925	0.00614132
0.000739311	0.00772457
0.000745771	0.00836922
0.000763193	0.00906861
0.000803938	0.0107593
0.000827354	0.0118094
0.000855832	0.0126223
0.000884123	0.0133177
0.000950175	0.0138225
0.00102691	0.0142057
0.00113072	0.0145199
0.00124016	0.0149497
0.00135521	0.0154951
0.00147598	0.0162148
0.00162533	0.0178063
0.00170346	0.0190713
0.00182187	0.021733
0.0018673	0.0229514
