Adsorption isotherm of Trichloromethane on Graphite
DOI: 10.1016/0039-6028(95)01192-7
Adsorbate Trichloromethane: InChIKey HEDRZPFGACZZDS-UHFFFAOYSA-N
Temperature: 220 K
Tabular data in the source: 0
pressure (bar)	uptake (mmol adsorbed)
8.39338e-06	0.000792041
1.07746e-05	0.000976681
1.45162e-05	0.00240473
1.50365e-05	0.00408356
1.5589e-05	0.00601114
1.86753e-05	0.00737791
4.52522e-05	0.00905018
9.71606e-05	0.00966618
0.00019678	0.0103448
0.000349229	0.0109623
0.00049014	0.0115194
0.00057674	0.0119534
0.000649606	0.01245
0.000711328	0.0132578
0.000725137	0.0145636
0.000734886	0.0141904
0.000748342	0.0151853
0.000796636	0.0163042
0.000798031	0.0168017
0.000847501	0.0172365
0.000941716	0.0180442
0.00114183	0.0186646
0.00130506	0.0191611
0.00144981	0.0199065
0.00154138	0.0206523
0.00168892	0.0216466
0.00180028	0.0231387
0.00188817	0.0241955
