Adsorption isotherm of Trichloromethane on Graphite
DOI: 10.1016/0039-6028(95)01192-7
Adsorbate Trichloromethane: InChIKey HEDRZPFGACZZDS-UHFFFAOYSA-N
Temperature: 224 K
Tabular data in the source: 0
pressure (bar)	uptake (mmol adsorbed)
0.000540341	0.00226928
0.000671793	0.00286737
0.000803059	0.00334788
0.000994756	0.00421764
0.00106053	0.00454608
0.00122496	0.00536717
0.00136775	0.00625515
0.00145066	0.00710662
0.00149001	0.00791549
0.00153029	0.00931225
0.00154321	0.0106015
0.00154545	0.0120125
0.00157402	0.0128842
0.00159818	0.0144046
0.00163181	0.0150391
0.00173028	0.0154142
0.00183972	0.015844
0.00192152	0.01599
0.00202561	0.0164807
0.00213523	0.0170281
0.00227258	0.0179181
0.0023719	0.0188222
0.00244938	0.0196757
0.00251655	0.020886
0.00256226	0.0222807
0.0025794	0.0228038
