Adsorption isotherm of Trichloromethane on Graphite
DOI: 10.1016/0039-6028(95)01192-7
Adsorbate Trichloromethane: InChIKey HEDRZPFGACZZDS-UHFFFAOYSA-N
Temperature: 226 K
Tabular data in the source: 0
pressure (bar)	uptake (mmol adsorbed)
0.000321192	0.00123328
0.000572481	0.00196319
0.000703654	0.00238491
0.00106944	0.00330746
0.00142482	0.00452801
0.00162739	0.00539372
0.00178123	0.00639523
0.00195194	0.0077434
0.00206296	0.00917262
0.0021082	0.0102734
0.00216637	0.0126635
0.00226202	0.0146867
0.00241698	0.0163937
0.00251676	0.0175918
0.00258853	0.0182709
0.00267135	0.0190636
