Adsorption isotherm of Trichloromethane on Graphite
DOI: 10.1016/0039-6028(95)01192-7
Adsorbate Trichloromethane: InChIKey HEDRZPFGACZZDS-UHFFFAOYSA-N
Temperature: 228 K
Tabular data in the source: 0
pressure (bar)	uptake (mmol adsorbed)
2.48e-05	0.000908049
2.84e-05	0.00115578
3.5e-05	0.00258451
4.21e-05	0.00494627
4.61e-05	0.00625153
5.87e-05	0.00786659
8.47e-05	0.00823689
9.97e-05	0.00873314
0.000196137	0.009412
0.000374619	0.0100911
0.000565379	0.010461
0.000759049	0.0108941
0.00101864	0.0112028
0.00132837	0.0116982
0.00168411	0.0125049
0.00210775	0.0138091
0.00221116	0.0149281
0.00235077	0.0156739
0.00242862	0.0166065
0.00254777	0.0177255
0.00259275	0.0185339
0.00260411	0.0197776
0.00285338	0.0207719
