Adsorption isotherm of Trichloromethane on Graphite
DOI: 10.1016/0039-6028(95)01192-7
Adsorbate Trichloromethane: InChIKey HEDRZPFGACZZDS-UHFFFAOYSA-N
Temperature: 216 K
Tabular data in the source: 0
pressure (bar)	uptake (mmol adsorbed)
7.57518e-06	0.000792832
8.29666e-06	0.00166278
8.69798e-06	0.00259525
8.87087e-06	0.00402544
9.77116e-06	0.00651226
1.41836e-05	0.00831287
2.83455e-05	0.00936474
6.26565e-05	0.00991832
0.00010027	0.0102878
0.000172846	0.0109677
0.000235429	0.0113385
0.000285141	0.0116479
0.000316979	0.0125799
0.00033766	0.0138854
0.00034869	0.0146936
0.000354609	0.0153154
0.0004062	0.0164337
0.000471422	0.0171167
0.000563158	0.017675
0.000682527	0.018171
0.000851412	0.0185425
0.000973756	0.0192255
0.00104986	0.0197846
0.00111565	0.020406
0.00120493	0.0214627
0.00126433	0.0226439
0.00127043	0.024012
