Adsorption isotherm of Trichloromethane on Graphite
DOI: 10.1016/0039-6028(95)01192-7
Adsorbate Trichloromethane: InChIKey HEDRZPFGACZZDS-UHFFFAOYSA-N
Temperature: 207 K
Tabular data in the source: 0
pressure (bar)	uptake (mmol adsorbed)
2.71375e-06	0.000551998
2.92578e-06	0.00111112
2.98263e-06	0.00241694
2.99637e-06	0.00372288
3.66255e-06	0.00664421
4.32008e-06	0.00776234
9.56815e-06	0.00887561
1.88147e-05	0.00949228
2.67378e-05	0.00942738
3.59129e-05	0.0099848
5.11254e-05	0.0104174
5.94138e-05	0.0114735
6.13547e-05	0.0122817
6.20022e-05	0.0111
6.72131e-05	0.0132138
6.95457e-05	0.0145817
7.51272e-05	0.0157005
0.000101128	0.0168798
0.000179668	0.0178082
0.000309578	0.0183637
0.000386269	0.0187973
0.000428835	0.0193562
0.000490682	0.0201636
0.0005236	0.0219666
0.0005665	0.0235207
