Adsorption isotherm of Trichloromethane on Graphite
DOI: 10.1016/0039-6028(95)01192-7
Adsorbate Trichloromethane: InChIKey HEDRZPFGACZZDS-UHFFFAOYSA-N
Temperature: 226 K
Tabular data in the source: 0
pressure (bar)	uptake (mmol adsorbed)
0.000211546	0.00928779
0.000337159	0.0090899
0.000708857	0.00858852
0.00106942	0.00804961
0.0014198	0.00772
0.0016282	0.00761838
0.00178227	0.00767471
0.00195393	0.00802177
0.00203795	0.0084389
0.00210656	0.00913293
0.00216088	0.0104
0.00225251	0.0113666
0.00231445	0.011758
