Adsorption isotherm of Nitrogen on OB-POP-4
DOI: 10.1021/jacs.0c04594
Article source: Figure S10b
Adsorbate Nitrogen: InChIKey IJGRMHOSHXDMSA-UHFFFAOYSA-N
Kind: experiment
Temperature: 77 K
Tabular data in the source: 0
pressure (bar)	uptake (cm3(STP)/g)
0.010906	15.6027
0.011752	27.2942
0.012599	38.9858
0.013163	46.7802
0.014573	66.2661
0.025714	70.2051
0.03742	81.9384
0.066942	89.8441
0.089225	97.722
0.122085	101.744
0.140747	109.608
0.162748	113.589
0.191988	117.598
0.214271	125.476
0.246849	125.601
0.269131	133.479
0.29447	133.576
0.32009	137.571
0.34571	141.565
0.367993	149.443
0.397233	153.452
0.419234	157.432
0.433995	161.385
0.470756	169.319
0.493039	177.197
0.522561	185.103
0.544844	192.98
0.57352	189.195
0.599422	197.086
0.617803	201.053
0.643706	208.945
0.665988	216.823
0.691609	220.817
0.70999	224.784
0.732554	236.559
0.747597	244.409
0.77712	252.315
0.795782	260.179
0.818347	271.954
0.83701	279.818
0.852335	291.565
0.863759	299.401
0.875182	307.238
0.882986	315.06
0.891071	326.779
0.898875	334.601
0.913918	342.452
0.921722	350.274
0.925906	358.082
0.941513	373.726
0.945697	381.535
0.954065	397.151
0.962432	412.768
0.9708	428.385
0.978886	440.104
0.98307	447.912
0.991437	463.529
0.996185	479.131
1.00065	490.837
1.00484	498.645
1.01682	514.276
1.01739	522.07
1.00596	514.234
0.997878	502.515
0.990074	494.692
0.978651	486.856
0.966945	475.123
0.955522	467.287
0.940197	455.54
0.932675	451.615
0.91735	439.867
0.909264	428.148
0.901461	420.326
0.893375	408.606
0.885289	396.887
0.873302	381.256
0.865498	373.434
0.853511	357.804
0.837903	342.159
0.8301	334.337
0.818112	318.707
0.795547	306.931
0.776602	295.17
0.768799	287.348
0.749854	275.587
0.735093	271.634
0.723387	259.901
0.694711	263.687
0.668527	251.898
0.661005	247.973
0.646244	244.02
0.635103	240.081
0.613666	243.894
0.598341	232.147
0.572721	228.153
0.55434	224.186
0.532621	224.102
0.506719	216.21
0.484154	204.435
0.458534	200.441
0.440435	200.371
0.411195	196.363
0.392814	192.396
0.370814	188.415
0.339764	184.4
0.315953	180.412
0.293953	176.431
0.264994	176.32
0.242712	168.442
0.224331	164.475
0.191189	156.556
0.168906	148.678
0.14747	152.491
0.132427	144.641
0.106806	140.647
0.088708	140.577
0.077284	132.741
0.069763	128.816
0.058339	120.98
0.047198	117.041
