Adsorption isotherm of Nitrogen on OB-POP-3
DOI: 10.1021/jacs.0c04594
Article source: Figure S10b
Adsorbate Nitrogen: InChIKey IJGRMHOSHXDMSA-UHFFFAOYSA-N
Kind: experiment
Temperature: 77 K
Tabular data in the source: 0
pressure (bar)	uptake (cm3(STP)/g)
0.004902	14.9718
0.008715	19.9624
0.012528	24.953
0.020154	34.9341
0.034861	39.8979
0.042215	42.3797
0.056741	42.3439
0.085882	44.772
0.111484	49.7088
0.144257	52.1279
0.177121	57.0469
0.210076	64.4656
0.239037	61.8941
0.264729	69.3307
0.304583	66.7324
0.330185	71.6692
0.36668	76.5792
0.399544	81.4981
0.428595	81.4264
0.457647	81.3547
0.494142	86.2647
0.523284	88.6928
0.552426	91.1209
0.58529	96.0398
0.614614	103.467
0.647387	105.887
0.672988	110.823
0.702221	115.751
0.735085	120.67
0.764227	123.098
0.797091	128.017
0.819243	137.963
0.837581	142.917
0.852288	147.881
0.867086	155.344
0.892778	162.781
0.911389	175.235
0.922737	187.707
0.934176	202.679
0.945615	217.651
0.957145	235.122
0.968856	257.593
0.973214	277.583
0.984834	297.554
0.985379	312.553
0.989646	330.042
0.970309	297.59
0.962047	270.11
0.950608	255.138
0.935175	230.177
0.91257	207.732
0.893686	187.779
0.878707	175.316
0.849383	167.888
0.838217	160.416
0.812615	155.479
0.790464	145.534
0.761231	140.606
0.73563	135.669
0.706397	130.741
0.677074	123.313
0.644209	118.394
0.611527	118.475
0.578481	108.557
0.538354	103.656
0.50549	98.7367
0.483702	98.7904
0.450928	96.3713
0.421787	93.9432
0.392554	89.0153
0.367043	86.5783
0.337811	81.6504
0.3123	79.2133
0.283158	76.7852
0.239581	76.8928
0.203086	71.9828
0.166681	69.5726
0.14117	67.1356
0.119019	57.1902
0.089877	54.7621
0.056922	47.3434
