Adsorption isotherm of Nitrogen on OB-POP-2
DOI: 10.1021/jacs.0c04594
Article source: Figure S10b
Adsorbate Nitrogen: InChIKey IJGRMHOSHXDMSA-UHFFFAOYSA-N
Kind: experiment
Temperature: 77 K
Tabular data in the source: 0
pressure (bar)	uptake (cm3(STP)/g)
0.007933	18.5447
0.008155	37.0072
0.008322	50.8541
0.008488	64.701
0.008655	78.548
0.012427	92.4113
0.01975	101.675
0.037947	115.604
0.070623	134.215
0.095921	138.945
0.114007	143.643
0.13925	143.758
0.168154	148.505
0.197113	157.868
0.222467	167.214
0.247765	171.945
0.269401	172.043
0.305573	181.439
0.323714	190.752
0.352618	195.499
0.381578	204.862
0.40682	204.977
0.435724	209.724
0.461078	219.07
0.489982	223.817
0.515224	223.932
0.540578	233.279
0.565875	238.009
0.59489	251.988
0.623739	252.119
0.64188	261.432
0.674446	270.811
0.696193	280.141
0.71783	280.24
0.743239	294.202
0.768592	303.548
0.790284	308.262
0.804819	317.559
0.826622	331.505
0.837496	336.17
0.848425	345.45
0.866622	359.379
0.877606	373.275
0.884874	377.924
0.895914	396.436
0.906899	410.332
0.925151	428.876
0.93253	442.756
0.943681	470.499
0.94762	498.21
0.951448	516.689
0.958993	544.415
0.962821	562.894
0.966648	581.373
0.97031	586.005
0.95927	567.493
0.951836	548.998
0.940851	535.102
0.933417	516.606
0.926094	507.342
0.922322	493.479
0.911337	479.583
0.900297	461.071
0.885595	437.927
0.878272	428.663
0.867287	414.767
0.856358	405.486
0.845429	396.206
0.823571	377.645
0.801768	363.699
0.790783	349.803
0.77991	345.138
0.765485	345.072
0.743738	335.742
0.729203	326.445
0.718384	326.396
0.707455	317.116
0.689369	312.418
0.67844	303.137
0.649536	298.39
0.6279	298.292
0.617082	298.242
0.591728	288.896
0.573642	284.198
0.548289	274.852
0.523019	272.429
0.501188	256.176
0.47234	256.045
0.450648	251.33
0.429011	251.232
0.403658	241.886
0.374809	241.754
0.356723	237.057
0.331315	223.095
0.302521	227.579
0.277168	218.233
0.244658	213.469
0.226572	208.771
0.204825	199.442
0.179582	199.327
0.150623	189.964
0.128931	185.25
0.100082	185.118
0.085547	175.821
0.060083	157.244
0.041941	147.93
0.027406	138.633
0.020028	124.754
0.0162	106.275
