Adsorption isotherm of Nitrogen on COF-p-3Ph
DOI: 10.1021/jacs.0c04594
Article source: Figure 2a
Adsorbate Nitrogen: InChIKey IJGRMHOSHXDMSA-UHFFFAOYSA-N
Kind: experiment
Temperature: 77 K
Tabular data in the source: 0
pressure (bar)	uptake (cm3(STP)/g)
0.003698	10.1815
0.003698	34.1132
0.003698	54.626
0.003698	64.8824
0.007396	88.8015
0.011094	109.302
0.014792	133.221
0.01849	143.465
0.033282	174.184
0.059168	194.61
0.107242	228.636
0.159014	252.393
0.20339	269.337
0.258859	279.406
0.310631	289.488
0.362403	289.313
0.410477	299.407
0.462249	309.489
0.514021	316.152
0.562095	319.409
0.617565	322.64
0.658243	329.341
0.721109	339.385
0.769182	342.641
0.820954	349.304
0.869028	355.98
0.917102	362.655
0.961478	376.181
1.00585	403.381
0.954082	379.624
0.909706	372.937
0.857934	369.692
0.813558	363.005
0.758089	352.935
0.713713	349.666
0.661941	346.422
0.613867	336.328
0.558397	336.515
0.510323	329.84
0.458551	326.596
0.410477	319.92
0.343913	313.307
0.295839	310.051
0.258859	303.338
0.207088	293.256
0.155316	276.337
0.099846	249.173
0.051772	211.729
0.033282	177.603
