Adsorption isotherm of Nitrogen on COF-p-2Ph
DOI: 10.1021/jacs.0c04594
Article source: Figure 2a
Adsorbate Nitrogen: InChIKey IJGRMHOSHXDMSA-UHFFFAOYSA-N
Kind: experiment
Temperature: 77 K
Tabular data in the source: 0
pressure (bar)	uptake (cm3(STP)/g)
0.00032	23.6903
0.000437	42.5874
0.004251	61.4673
0.004338	75.6401
0.004484	99.2615
0.004601	118.159
0.001048	141.797
0.006144	174.902
0.009667	203.264
0.013219	226.903
0.023993	278.922
0.049558	331.01
0.100979	387.942
0.152632	407.081
0.200589	426.202
0.248603	435.875
0.300315	445.565
0.352027	455.254
0.403739	464.944
0.451754	474.617
0.503466	484.307
0.555178	493.997
0.606919	498.963
0.654934	508.635
0.706675	513.601
0.754689	523.274
0.806401	532.964
0.858113	542.654
0.906099	557.05
0.957811	566.74
0.994382	633.053
0.946659	576.137
0.898645	566.465
0.854299	561.533
0.802558	556.568
0.754544	546.895
0.699163	532.464
0.658486	532.274
0.606774	522.584
0.547637	517.584
0.495895	512.618
0.45155	507.687
0.399867	493.273
0.351882	478.876
0.296442	473.893
0.244701	468.927
0.196745	449.806
0.148789	430.685
0.093437	411.529
0.042103	340.424
0.020295	278.905
