Adsorption isotherm of Nitrogen on COF-m-3Ph
DOI: 10.1021/jacs.0c04594
Article source: Figure 2a
Adsorbate Nitrogen: InChIKey IJGRMHOSHXDMSA-UHFFFAOYSA-N
Kind: experiment
Temperature: 77 K
Tabular data in the source: 0
pressure (bar)	uptake (cm3(STP)/g)
0.004164	14.7383
0.004288	34.9045
0.004443	60.1122
0.004537	75.2369
0.006572	105.459
0.004878	130.694
0.008763	160.888
0.008918	186.096
0.009042	206.262
0.009384	261.719
0.013268	291.913
0.020788	311.969
0.031974	326.928
0.058013	351.75
0.109904	371.143
0.1544	390.647
0.209896	394.86
0.261663	394.088
0.313524	408.439
0.365353	417.75
0.417182	427.06
0.457887	431.494
0.513383	435.708
0.565244	450.06
0.609647	454.439
0.66884	458.597
0.720669	467.908
0.765103	477.328
0.816902	481.597
0.868731	490.907
0.92056	500.218
0.972545	534.736
1.00996	604.766
0.968847	534.791
0.920653	515.342
0.865189	516.17
0.817026	501.763
0.761499	492.508
0.713367	483.143
0.661569	478.874
0.609802	479.647
0.569066	470.171
0.513539	460.916
0.457981	446.619
0.417306	447.226
0.365446	432.874
0.309919	423.619
0.254392	414.364
0.202563	405.054
0.150703	390.702
0.106207	371.198
