Adsorption isotherm of Methane on AlPO4-5
DOI: 10.1080/08927020108031359
Adsorbate Methane: InChIKey VNWKTOKETHGBQD-UHFFFAOYSA-N
Temperature: 77 K
Tabular data in the source: 0
pressure (bar)	uptake (molecules/unitcell)
1.24e-07	0.119853
9.58e-07	2.44456
7.02e-06	3.84288
5.75e-05	4.10506
0.000498	4.41968
0.00407846	5.46842
0.0299024	5.95784
0.140815	5.97532
