Adsorption isotherm of Methane on AlPO4-5
DOI: 10.1080/08927020108031359
Adsorbate Methane: InChIKey VNWKTOKETHGBQD-UHFFFAOYSA-N
Temperature: 60 K
Tabular data in the source: 0
pressure (bar)	uptake (molecules/unitcell)
1.41e-11	0.0742832
1.27e-10	1.60369
1.26e-09	3.39311
9.35e-09	3.97428
8.43e-08	4.02017
1e-05	4.03546
9.95e-05	4.06605
0.000896	5.97781
0.0088878	6.0084
