Adsorption isotherm of Methane on AlPO4-5
DOI: 10.1080/08927020108031359
Adsorbate Methane: InChIKey VNWKTOKETHGBQD-UHFFFAOYSA-N
Temperature: 60 K
Tabular data in the source: 0
pressure (bar)	uptake (molecules/unitcell)
8.22e-05	4.09664
0.000986	4.41781
0.0088878	4.67781
0.0881245	5.01428
0.794121	5.38134
9.53267	5.7484
94.5185	5.91664
1373.63	6.0084
