Adsorption isotherm of M-Xylene on Faujasite NaY
DOI: 10.1080/08927020108031359
Adsorbate M-Xylene: InChIKey IVSZLXZYQVIEFR-UHFFFAOYSA-N
Temperature: 423 K
Tabular data in the source: 0
pressure (bar)	uptake (molecules/cage)
3.32e-05	-0.00565122
3.32e-05	1.46841
4.34e-05	2.23166
6.89e-05	2.6395
0.000166	3.09978
0.00100691	3.38527
0.00286769	3.53093
0.00313789	3.65328
