Adsorption isotherm of Methane on AlPO4-5
DOI: 10.1080/08927020108031359
Adsorbate Methane: InChIKey VNWKTOKETHGBQD-UHFFFAOYSA-N
Temperature: 77 K
Tabular data in the source: 0
pressure (bar)	uptake (molecules/unitcell)
1.72e-07	0.888929
6.87e-07	1.44826
1.76e-06	2.91649
3.82e-06	3.42338
1.61e-05	3.61565
0.0001	3.89532
0.000243	4.19246
0.000338	5.18876
0.00142514	5.45095
0.0316038	5.69565
0.0316038	7.84557
0.0373113	6.58708
