Adsorption isotherm of Methane on AlPO4-5
DOI: 10.1080/08927020108031359
Adsorbate Methane: InChIKey VNWKTOKETHGBQD-UHFFFAOYSA-N
Temperature: 77 K
Tabular data in the source: 0
pressure (bar)	uptake (molecules/unitcell)
9.58e-07	1.37834
7.85e-06	2.84658
6.43e-05	3.89532
0.00385889	3.96523
0.0299024	4.01767
0.244897	4.85666
1.79553	5.80053
17.3609	5.99279
9023.4	6.11515
