Adsorption isotherm of Argon on AlPO4-5
DOI: 10.1080/08927020108031359
Adsorbate Argon: InChIKey XKRFYHLGVUSROY-UHFFFAOYSA-N
Temperature: 77 K
Tabular data in the source: 0
pressure (bar)	uptake (molecules/unitcell)
1.05e-06	0.137332
1.04e-05	0.749097
2.88e-05	3.56321
9.22e-05	4.89162
0.000976	5.85296
0.00962418	5.95784
0.105527	6.06271
