Adsorption isotherm of P-Xylene on Faujasite NaY
DOI: 10.1080/08927020108031359
Adsorbate P-Xylene: InChIKey URLKBWYHVLBVBO-UHFFFAOYSA-N
Temperature: 423 K
Tabular data in the source: 0
pressure (bar)	uptake (molecules/cage)
2.81e-05	0.180791
0.000105	2.76768
0.0010222	3.10561
0.00301044	3.32118
