Adsorption isotherm of P-Xylene on Faujasite NaY
DOI: 10.1080/08927020108031359
Adsorbate P-Xylene: InChIKey URLKBWYHVLBVBO-UHFFFAOYSA-N
Temperature: 423 K
Tabular data in the source: 0
pressure (bar)	uptake (molecules/cage)
2.3e-05	0.413845
3.32e-05	0.879951
5.36e-05	1.80634
6.89e-05	2.25497
0.00013	2.65116
0.000874	3.01821
0.0023324	3.22214
0.0031073	3.35614
