Adsorption isotherm of M-Xylene on Faujasite NaY
DOI: 10.1080/08927020108031359
Adsorbate M-Xylene: InChIKey IVSZLXZYQVIEFR-UHFFFAOYSA-N
Temperature: 423 K
Tabular data in the source: 0
pressure (bar)	uptake (molecules/cage)
2.3e-05	0.629419
0.000105	2.95412
0.001012	3.45519
0.00301044	3.53093
