Adsorption isotherm of Methane on AlPO4-5
DOI: 10.1080/08927020108031359
Adsorbate Methane: InChIKey VNWKTOKETHGBQD-UHFFFAOYSA-N
Temperature: 77 K
Tabular data in the source: 0
pressure (bar)	uptake (molecules/unitcell)
1.01e-06	0.853971
7.02e-06	3.65061
6.08e-05	3.94775
0.000588	4.00019
0.00431052	4.10506
0.0316038	5.20624
0.244897	5.95784
2.1198	6.02775
