Adsorption isotherm of Methane on AlPO4-5
DOI: 10.1080/08927020108031359
Adsorbate Methane: InChIKey VNWKTOKETHGBQD-UHFFFAOYSA-N
Temperature: 77 K
Tabular data in the source: 0
pressure (bar)	uptake (molecules/unitcell)
3.74e-07	0.137332
9.07e-07	2.88153
2.45e-06	3.80792
5.95e-06	3.93027
0.000112	4.22742
0.000286	5.2412
0.000694	5.69565
0.00168251	5.9054
0.00365114	5.99279
