Adsorption isotherm of Methane on AlPO4-5
DOI: 10.1080/08927020108031359
Adsorbate Methane: InChIKey VNWKTOKETHGBQD-UHFFFAOYSA-N
Temperature: 77 K
Tabular data in the source: 0
pressure (bar)	uptake (molecules/unitcell)
7.42e-06	0.0674161
3.13e-05	0.189769
6.08e-05	0.469433
6.43e-05	1.3259
0.000112	4.47212
0.000147	5.06641
0.000194	5.74809
0.000217	5.88792
0.000422	5.99279
