Adsorption isotherm of Argon on AlPO4-5
DOI: 10.1080/08927020108031359
Adsorbate Argon: InChIKey XKRFYHLGVUSROY-UHFFFAOYSA-N
Temperature: 77 K
Tabular data in the source: 0
pressure (bar)	uptake (molecules/unitcell)
1.02e-06	0.277164
1.04e-05	1.27347
2.99e-05	3.4933
9.89e-05	4.38473
0.000305	5.10137
0.000942	5.67817
0.00962418	6.06271
0.0983503	6.28994
