Adsorption isotherm of Argon on AlPO4-5
DOI: 10.1080/08927020108031359
Adsorbate Argon: InChIKey XKRFYHLGVUSROY-UHFFFAOYSA-N
Temperature: 77 K
Tabular data in the source: 0
pressure (bar)	uptake (molecules/unitcell)
5.51e-06	0.224727
8.41e-06	0.416996
1.11e-05	0.819013
1.38e-05	1.55313
1.89e-05	3.03884
2.33e-05	4.07011
2.5e-05	4.47212
0.000256	5.83548
0.00235288	6.2375
0.0249061	6.49968
0.254517	6.86674
0.254517	7.14641
