Adsorption isotherm of Nitrogen on A-GLc-C-2
DOI: 10.1016/j.cej.2017.06.074
Article source: Figure 1
Adsorbate Nitrogen: InChIKey IJGRMHOSHXDMSA-UHFFFAOYSA-N
Kind: experiment
Temperature: 77 K
Tabular data in the source: 0
pressure (bar)	uptake (cm3(STP)/g)
0.007569	252.57
0.008146	102.7
0.008754	16.9
0.008785	125.58
0.008795	177.07
0.008805	202.24
0.008815	234.27
0.008825	268.59
0.008825	288.04
0.008835	308.64
0.009383	45.5
0.009393	78.68
0.009413	147.32
0.009464	345.25
0.009474	364.7
0.009474	383
0.009484	405.88
0.010092	330.37
0.01074	428.76
0.011368	457.37
0.013253	472.24
0.030741	511.15
0.063854	562.66
0.101323	595.86
0.123178	611.9
0.160648	635.95
0.185006	651.98
0.214349	656.58
0.313635	685.25
0.370457	696.73
0.407055	701.46
0.456116	711.49
0.505673	705.16
0.55523	714.28
0.619154	711.6
0.661781	713.45
0.709849	725.29
0.761392	722.6
0.806491	724.45
0.826309	725.37
0.836715	726.28
0.860506	723.58
0.879332	726.32
0.910559	731.79
0.924927	735.43
0.934847	734.53
0.947228	733.63
0.953672	734.54
0.966561	734.55
0.989358	740.92
0.991841	754.54
1.00522	761.82
