Adsorption isotherm of Carbon Dioxide on A-GLc-C-2
DOI: 10.1016/j.cej.2017.06.074
Article source: Figure 4
Adsorbate Carbon Dioxide: InChIKey CURLTUGMZLYLDI-UHFFFAOYSA-N
Kind: experiment
Temperature: 298 K
Tabular data in the source: 0
pressure (bar)	uptake (mmol/g)
0.4317	0.4177
0.9242	3.3668
2.4019	6.7657
4.999	9.5645
7.4617	11.3137
9.8349	12.9629
12.3425	13.9622
14.9843	14.5116
17.4023	15.111
19.865	15.8105
22.4621	16.06
24.9697	16.3595
27.3876	16.9089
29.8504	16.8585
