Adsorption isotherm of Carbon Dioxide on GLc-C-5
DOI: 10.1016/j.cej.2017.06.074
Article source: Figure 4
Adsorbate Carbon Dioxide: InChIKey CURLTUGMZLYLDI-UHFFFAOYSA-N
Kind: experiment
Temperature: 298 K
Tabular data in the source: 0
pressure (bar)	uptake (mmol/g)
0.163	0.2428
0.2078	0.6552
0.2974	0.9426
0.4317	1.255
0.6668	1.5299
0.9019	1.8922
2.5138	4.3663
4.9578	7.4729
7.41	9.8232
9.9511	11.866
12.4211	13.5915
14.8734	15.0789
17.4145	16.5067
19.92	17.8354
22.4789	18.9261
24.9489	19.9175
27.3489	20.7807
29.9652	21.7013
