Adsorption isotherm of Carbon Dioxide on GLc-C-4
DOI: 10.1016/j.cej.2017.06.074
Article source: Figure 4
Adsorbate Carbon Dioxide: InChIKey CURLTUGMZLYLDI-UHFFFAOYSA-N
Kind: experiment
Temperature: 298 K
Tabular data in the source: 0
pressure (bar)	uptake (mmol/g)
0.3327	0.6159
0.6148	1.9384
0.8123	2.7571
2.4483	6.0003
4.8742	9.6212
7.5257	12.3604
9.8952	14.5958
12.4057	16.2329
15.0008	17.681
17.3985	18.9401
19.909	19.8529
22.4195	20.7027
24.9582	21.4266
27.4123	21.9615
29.8946	22.4649
