Adsorption isotherm of Nitrogen on A-GLc-C-3
DOI: 10.1016/j.cej.2017.06.074
Article source: Figure 1
Adsorbate Nitrogen: InChIKey IJGRMHOSHXDMSA-UHFFFAOYSA-N
Kind: experiment
Temperature: 77 K
Tabular data in the source: 0
pressure (bar)	uptake (cm3(STP)/g)
0.008481	88.65
0.008531	274.6
0.008552	355.32
0.009251	20.91
0.010072	153.52
0.010092	216.94
0.013294	410.1
0.016455	457.67
0.028269	502.36
0.050307	551.39
0.08651	607.63
0.108537	627.82
0.130575	646.58
0.161256	668.22
0.20139	694.2
0.250957	730.27
0.306816	756.25
0.364246	769.27
0.412233	777.95
0.455508	777.98
0.507426	789.55
0.558563	796.79
0.610481	796.83
0.660829	799.75
0.710396	802.67
0.760743	805.59
0.789053	801.28
0.828386	799.87
0.862218	799.89
0.887387	802.79
0.907844	808.57
0.940095	804.27
0.963703	804.29
0.98415	810.07
1.00147	820.17
