Adsorption isotherm of Carbon Dioxide on GLc-C-3
DOI: 10.1016/j.cej.2017.06.074
Article source: Figure 4
Adsorbate Carbon Dioxide: InChIKey CURLTUGMZLYLDI-UHFFFAOYSA-N
Kind: experiment
Temperature: 298 K
Tabular data in the source: 0
pressure (bar)	uptake (mmol/g)
0.1183	1.5674
0.163	0.3677
0.2526	1.9673
0.3869	2.4672
0.6108	2.767
0.8347	3.5168
2.5362	6.7157
4.9542	10.2144
7.5513	12.2134
10.014	13.7126
12.3872	15.0119
14.9395	16.2112
17.4023	17.2105
19.9098	17.61
22.3726	17.8595
24.8801	18.209
27.4772	18.0086
29.8952	18.2582
