Adsorption isotherm of Carbon Dioxide, Nitrogen on EZ-700 carbon
DOI: 10.1590/0104-6632.20190363s20180036
Article source: Figure 5
Adsorbate Carbon Dioxide: InChIKey CURLTUGMZLYLDI-UHFFFAOYSA-N
Adsorbate Nitrogen: InChIKey IJGRMHOSHXDMSA-UHFFFAOYSA-N
Kind: experiment
Temperature: 303 K
Tabular data in the source: 0
pressure (bar)	Carbon Dioxide fraction	Carbon Dioxide uptake (mmol/g)	Nitrogen fraction	Nitrogen uptake (mmol/g)	total uptake (mmol/g)
1.01325	0.05	0.201	0.95	0.0455	
1.01325	0.0751	0.278	0.9249	0.0426	
1.01325	0.1	0.332	0.9	0.0376	
1.01325	0.125	0.395	0.875	0.0368	
