Adsorption isotherm of Nitrogen on EZ-700 carbon
DOI: 10.1590/0104-6632.20190363s20180036
Article source: Figure 3b
Adsorbate Nitrogen: InChIKey IJGRMHOSHXDMSA-UHFFFAOYSA-N
Kind: experiment
Temperature: 303 K
Tabular data in the source: 0
pressure (bar)	uptake (mmol/g)
0.005117	0.0004
0.010436	0.0008
0.024521	0.002
0.049953	0.005
0.075892	0.007
0.102338	0.01
0.100818	0.01
0.126656	0.01
0.148948	0.02
0.153001	0.01
0.197584	0.02
0.201637	0.02
0.248246	0.03
0.300935	0.03
0.353624	0.03
0.407327	0.04
0.461029	0.04
0.506625	0.05
0.557288	0.06
0.600857	0.06
0.654559	0.06
0.706235	0.07
0.769057	0.07
0.814653	0.08
0.862276	0.08
0.912938	0.08
0.957521	0.09
1.01325	0.09
