Adsorption isotherm of Carbon Dioxide, Nitrogen on EZ-700 carbon
DOI: 10.1590/0104-6632.20190363s20180036
Article source: Figure 5
Adsorbate Carbon Dioxide: InChIKey CURLTUGMZLYLDI-UHFFFAOYSA-N
Adsorbate Nitrogen: InChIKey IJGRMHOSHXDMSA-UHFFFAOYSA-N
Kind: experiment
Temperature: 303 K
Tabular data in the source: 0
pressure (bar)	Carbon Dioxide fraction	Carbon Dioxide uptake (mmol/g)	Nitrogen fraction	Nitrogen uptake (mmol/g)	total uptake (mmol/g)
1.01325	0.0501	0.237	0.9499	0.0948	
1.01325	0.0752	0.319	0.9248	0.0797	
1.01325	0.1	0.418	0.9	0.0711	
1.01325	0.125	0.491	0.875	0.0663	
