Adsorption isotherm of Carbon Dioxide on EZ-700 carbon
DOI: 10.1590/0104-6632.20190363s20180036
Article source: Figure 3a
Adsorbate Carbon Dioxide: InChIKey CURLTUGMZLYLDI-UHFFFAOYSA-N
Kind: experiment
Temperature: 303 K
Tabular data in the source: 0
pressure (bar)	uptake (mmol/g)
0.004367	0.073
0.009656	0.12
0.025433	0.21
0.052588	0.31
0.07569	0.38
0.103351	0.44
0.126656	0.48
0.150974	0.55
0.206703	0.62
0.255339	0.68
0.309041	0.73
0.356664	0.79
0.412393	0.84
0.44887	0.87
0.503585	0.9
0.554248	0.94
0.603897	1
0.658613	1
0.717381	1
0.759937	1.1
0.820733	1.1
0.861262	1.1
0.921044	1.2
0.965627	1.2
1.00312	1.2
