Adsorption isotherm of Water on ZIF-8
DOI: 10.1016/j.micromeso.2012.11.012
Adsorbate Water: InChIKey XLYOFNOQVPJJNP-UHFFFAOYSA-N
Temperature: 298 K
Tabular data in the source: 0
pressure (bar)	uptake (cm3(STP)/g)
1.52e-05	0.49372
0.0394214	1.90217
0.0844918	2.6064
0.147872	3.2402
0.202802	3.874
0.295759	4.43738
0.394351	5.28245
0.484492	5.70499
0.583083	6.19795
0.661957	7.04302
0.745055	8.31062
0.797168	9.29654
0.828154	10.5641
0.853506	11.9726
0.898576	15.5641
0.90421	17.3247
