Adsorption isotherm of Nitrogen on ZIF-8
DOI: 10.1016/j.micromeso.2012.11.012
Adsorbate Nitrogen: InChIKey IJGRMHOSHXDMSA-UHFFFAOYSA-N
Temperature: 77 K
Tabular data in the source: 0
pressure (bar)	uptake (cm3(STP)/g)
0.000566	69.3446
0.000865	17.0013
0.000865	124.691
0.00372489	166.737
0.00515504	205.78
0.0108756	258.982
0.0165962	278.718
0.0280373	286.44
0.065221	288.156
0.15103	289.444
0.299764	289.873
0.489974	290.302
0.637278	291.16
0.791734	289.873
0.888983	290.302
0.983373	291.16
1.03057	291.16
