Adsorption isotherm of Nitrogen on ZIF-8
DOI: 10.1016/j.micromeso.2012.11.012
Adsorbate Nitrogen: InChIKey IJGRMHOSHXDMSA-UHFFFAOYSA-N
Temperature: 77 K
Tabular data in the source: 0
pressure (bar)	uptake (cm3(STP)/g)
0.000865	6.27527
0.000865	113.536
0.000865	157.727
0.000865	194.625
0.00372489	60.3347
0.00944547	247.397
0.0137359	266.275
0.0266072	289.873
0.0423388	293.734
0.0795225	295.45
0.25686	296.737
0.365551	296.308
0.518576	296.737
0.667311	298.453
0.768851	298.883
0.867531	302.744
0.916156	303.602
0.961921	307.034
1.00196	313.899
