Adsorption isotherm of Water on ZIF-8
DOI: 10.1016/j.micromeso.2012.11.012
Adsorbate Water: InChIKey XLYOFNOQVPJJNP-UHFFFAOYSA-N
Temperature: 298 K
Tabular data in the source: 0
pressure (bar)	uptake (cm3(STP)/g)
0.00139321	0.423297
0.0394214	1.47964
0.146464	2.67682
0.205619	3.09935
0.307027	3.874
0.492943	4.85992
0.594351	5.28245
0.757731	6.83175
0.84083	8.73316
0.911252	13.0994
0.919703	14.4374
