Adsorption isotherm of Nitrogen on [Zn(Z-dhpe)]
DOI: 10.1039/C1cc13877d
Adsorbate Nitrogen: InChIKey IJGRMHOSHXDMSA-UHFFFAOYSA-N
Temperature: 195 K
Tabular data in the source: 0
pressure (bar)	uptake (cm3(STP)/g)
0.0208866	2.36911
0.0866732	4.87186
0.198224	8.08968
0.269731	10.5924
0.364121	13.0952
0.402735	14.1678
0.504275	15.9555
0.602955	17.7431
0.698774	19.1733
0.800315	20.6034
0.898994	21.676
0.991954	22.7486
