Adsorption isotherm of Oxygen on [Zn(Z-dhpe)]
DOI: 10.1039/C1cc13877d
Adsorbate Oxygen: InChIKey MYMOFIZGZYHOMD-UHFFFAOYSA-N
Temperature: 195 K
Tabular data in the source: 0
pressure (bar)	uptake (cm3(STP)/g)
0.0123058	1.65403
0.103835	5.22939
0.162471	6.65954
0.246849	9.16229
0.309776	10.5924
0.402735	12.0226
0.504275	13.8103
0.595804	15.2404
0.700205	17.3856
0.803175	18.1007
0.894704	19.5308
0.95906	20.2459
0.993384	20.6034
