Adsorption isotherm of Argon on [Zn(Z-dhpe)]
DOI: 10.1039/C1cc13877d
Adsorbate Argon: InChIKey XKRFYHLGVUSROY-UHFFFAOYSA-N
Temperature: 195 K
Tabular data in the source: 0
pressure (bar)	uptake (cm3(STP)/g)
0.0123058	-0.49118
0.0437689	0.223892
0.141019	1.65403
0.205375	2.01157
0.306915	3.79925
0.409885	4.87186
0.482823	5.22939
0.55004	6.302
0.644429	7.37461
0.75026	8.80475
0.837498	8.80475
0.923307	9.87736
0.986233	9.87736
