Adsorption isotherm of Hydrogen on [Zn(Z-dhpe)]
DOI: 10.1039/C1cc13877d
Adsorbate Hydrogen: InChIKey UFHFLCQGNIYNRP-UHFFFAOYSA-N
Temperature: 195 K
Tabular data in the source: 0
pressure (bar)	uptake (cm3(STP)/g)
0.0280373	0.938964
0.0838129	2.01157
0.123857	1.65403
0.168191	2.01157
0.231118	1.65403
0.286893	1.2965
0.362691	2.36911
0.459941	2.01157
0.527157	2.01157
0.585793	2.72664
0.65015	2.72664
0.717366	3.08418
0.816046	5.22939
0.85752	5.22939
0.911866	6.65954
0.973362	8.80475
