Adsorption isotherm of Carbon Dioxide on [Zn(Z-dhpe)]
DOI: 10.1039/C1cc13877d
Adsorbate Carbon Dioxide: InChIKey CURLTUGMZLYLDI-UHFFFAOYSA-N
Temperature: 195 K
Tabular data in the source: 0
pressure (bar)	uptake (cm3(STP)/g)
0.000865	0.938964
0.000865	28.4692
0.00801532	62.0776
0.0208866	79.9544
0.0323278	96.7585
0.0666512	113.92
0.0938239	121.786
0.15532	132.87
0.25686	147.886
0.35983	160.4
0.447069	170.411
0.561481	179.707
0.602955	184.355
0.663021	188.645
0.694484	192.936
0.763131	199.729
0.903285	216.175
