Adsorption isotherm of Nitrogen on MIL-100(Fe)
DOI: 10.1016/j.micromeso.2012.02.027
Article source: Figure S2
Adsorbate Nitrogen: InChIKey IJGRMHOSHXDMSA-UHFFFAOYSA-N
Kind: experiment
Isotherm type: excess
Temperature: 77 K
Tabular data in the source: 0
pressure (bar)	uptake (cm3(STP)/g)
0.004398	264.01
0.008805	369.61
0.018492	408.45
0.037855	453.26
0.059863	511.02
0.078344	535.91
0.097718	560.8
0.117963	584.69
0.139089	621.53
0.169902	630.47
0.199833	638.41
0.219196	640.38
0.253535	644.33
0.304593	649.26
0.353006	653.2
0.401429	657.14
0.453369	661.07
0.502663	663.02
0.551076	665.96
0.604779	669.89
0.657599	670.84
0.703378	672.78
0.746512	673.74
0.775562	674.7
0.808138	676.66
0.825738	679.64
0.85039	679.61
0.868001	681.59
0.883838	683.56
0.898803	683.55
0.909372	685.53
0.919058	688.51
0.927863	690.49
0.940185	692.48
0.94899	692.47
0.963955	693.45
0.970997	697.43
0.982437	702.4
0.993005	709.36
0.999166	715.33
1.00533	724.29
