Adsorption isotherm of Toluene on Fe-BTC
DOI: 10.1016/j.micromeso.2012.02.027
Adsorbate Toluene: InChIKey YXFVVABEGXRONW-UHFFFAOYSA-N
Temperature: 303 K
Tabular data in the source: 0
pressure (bar)	uptake (wt%)
0.00421011	17.2543
0.0182946	21.4092
0.035196	23.381
0.0816749	25.0712
0.123928	25.4233
0.205619	25.9867
0.294351	26.4796
0.370407	26.8317
0.456323	27.1134
0.536604	27.4656
0.626745	27.536
0.709844	27.6768
0.787309	27.9585
0.873224	28.2402
0.950689	29.4374
