Adsorption isotherm of Nitrogen on MIL-100(Fe)
DOI: 10.1016/j.micromeso.2012.02.027
Adsorbate Nitrogen: InChIKey IJGRMHOSHXDMSA-UHFFFAOYSA-N
Temperature: 77 K
Tabular data in the source: 0
pressure (bar)	uptake (cm3(STP)/g)
0.00515504	173.817
0.0123058	223.872
0.05521	292.948
0.120997	348.009
0.169621	359.021
0.25257	368.031
0.35411	374.037
0.45422	381.045
0.600095	390.055
0.698774	396.061
0.767421	401.067
0.836068	412.079
0.890414	430.099
0.933318	455.126
0.95763	493.168
0.993384	582.266
