Adsorption isotherm of Toluene on MIL-100(Fe)
DOI: 10.1016/j.micromeso.2012.02.027
Adsorbate Toluene: InChIKey YXFVVABEGXRONW-UHFFFAOYSA-N
Temperature: 303 K
Tabular data in the source: 0
pressure (bar)	uptake (wt%)
0.0112524	4.79026
0.0197031	22.3959
0.0281538	39.8607
0.0408298	43.241
0.0577312	50.7057
0.0675904	55.0719
0.14083	58.0297
0.199985	58.7339
0.323928	59.4381
0.454914	60.0015
0.530971	60.1424
0.614069	60.5649
0.694351	60.8466
0.77745	61.1283
0.943647	61.2691
