Adsorption isotherm of Ethanol on MIL-100(Fe)
DOI: 10.1016/j.micromeso.2012.02.027
Adsorbate Ethanol: InChIKey LFQSCWFLJHTTHZ-UHFFFAOYSA-N
Temperature: 303 K
Tabular data in the source: 0
pressure (bar)	uptake (wt%)
0.00561856	17.8888
0.02252	21.9734
0.0535059	25.6353
0.0999848	31.2691
0.121112	39.4381
0.143647	41.2691
0.184492	43.8043
0.20421	53.241
0.22252	54.7903
0.318295	56.3396
0.409844	57.748
0.492943	58.3114
0.580266	59.1565
0.671816	59.579
0.761957	60.7057
0.808435	61.2691
0.85914	62.5367
0.919703	66.4804
0.96759	78.3114
