Adsorption isotherm of Nitrogen on MIL-100(Fe)
DOI: 10.1016/j.micromeso.2012.02.027
Adsorbate Nitrogen: InChIKey IJGRMHOSHXDMSA-UHFFFAOYSA-N
Temperature: 77 K
Tabular data in the source: 0
pressure (bar)	uptake (ml/g)
0.00561856	201.136
0.00561856	284.798
0.0112524	318.601
0.0182946	347.333
0.0380129	384.516
0.0619566	428.46
0.101393	476.629
0.135196	519.727
0.164773	532.404
0.198576	538.319
0.319703	549.305
0.405619	553.53
0.498576	556.911
0.602802	561.981
0.698576	564.516
0.773224	568.742
0.823928	573.812
0.85914	578.037
0.891534	582.263
0.939421	597.474
0.960548	615.22
0.978858	645.643
