Adsorption isotherm of Nitrogen on MIL-100(Fe)
DOI: 10.1016/j.micromeso.2012.02.027
Article source: Figure S2
Adsorbate Nitrogen: InChIKey IJGRMHOSHXDMSA-UHFFFAOYSA-N
Kind: experiment
Isotherm type: excess
Temperature: 77 K
Tabular data in the source: 0
pressure (bar)	uptake (cm3(STP)/g)
0.002645	211.21
0.004398	248.07
0.005279	293.89
0.007924	332.74
0.019363	364.61
0.037855	407.43
0.058981	450.25
0.077473	478.13
0.097718	501.02
0.117081	519.93
0.140852	551.79
0.168139	559.74
0.196307	566.68
0.217443	569.65
0.254417	575.59
0.305475	581.52
0.351253	587.45
0.398785	590.39
0.450724	594.33
0.5009	598.26
0.553721	604.19
0.603897	608.12
0.653202	612.06
0.706894	619.98
0.743867	622.93
0.775562	628.88
0.802849	628.85
0.825738	637.79
0.85039	640.76
0.867119	645.72
0.883838	650.69
0.897932	655.66
0.912016	658.63
0.919058	664.6
0.928735	669.57
0.93754	676.54
0.951624	680.51
0.964837	695.44
0.974513	709.38
0.9842	721.32
0.992124	737.26
0.99564	747.22
1.00268	765.14
