Adsorption isotherm of Nitrogen on MIL-100(Fe)
DOI: 10.1016/j.micromeso.2012.02.027
Adsorbate Nitrogen: InChIKey IJGRMHOSHXDMSA-UHFFFAOYSA-N
Temperature: 77 K
Tabular data in the source: 0
pressure (bar)	uptake (cm3(STP)/g)
0.0137359	260.913
0.0380483	313.971
0.0780923	365.027
0.119566	403.069
0.141019	419.087
0.182493	425.093
0.25257	433.102
0.35554	436.105
0.448499	439.109
0.55004	445.115
0.65158	447.118
0.738818	452.123
0.798884	457.129
0.85752	464.136
0.910436	477.151
0.9562	504.18
0.989093	593.278
