Adsorption isotherm of Ethanol on FeBTC
DOI: 10.1016/j.micromeso.2012.02.027
Adsorbate Ethanol: InChIKey LFQSCWFLJHTTHZ-UHFFFAOYSA-N
Temperature: 303 K
Tabular data in the source: 0
pressure (bar)	uptake (wt%)
0.00561856	0.352875
0.00702701	2.11344
0.00843546	8.94442
0.0154777	12.8177
0.0337876	16.3388
0.0647735	20.212
0.10421	24.0148
0.164773	26.7613
0.199985	27.6768
0.243647	28.2402
0.295759	28.7332
0.371816	29.2965
0.4859	30.0008
0.546464	30.1416
0.576041	30.4233
0.668999	30.9163
0.766182	31.3388
0.864774	31.7613
0.925337	32.1839
0.96759	33.5923
