Adsorption isotherm of Nitrogen on MIL-100(Fe)
DOI: 10.1016/j.micromeso.2012.02.027
Adsorbate Nitrogen: InChIKey IJGRMHOSHXDMSA-UHFFFAOYSA-N
Temperature: 77 K
Tabular data in the source: 0
pressure (bar)	uptake (cm3(STP)/g)
0.0208866	330.99
0.0595005	404.07
0.0981143	446.116
0.15246	494.169
0.209665	506.182
0.302625	517.195
0.402735	528.207
0.502845	534.213
0.592944	541.221
0.698774	547.228
0.767421	552.233
0.837498	556.237
0.890414	562.244
0.95048	578.262
0.990524	623.311
