Adsorption isotherm of Ethanol on MIL-100(Fe)
DOI: 10.1016/j.micromeso.2012.02.027
Adsorbate Ethanol: InChIKey LFQSCWFLJHTTHZ-UHFFFAOYSA-N
Temperature: 303 K
Tabular data in the source: 0
pressure (bar)	uptake (wt%)
0.00702701	13.3818
0.00984391	15.4945
0.0253369	19.2973
0.0605481	24.2269
0.0830833	28.8748
0.10421	36.6212
0.128154	40.0015
0.156323	42.1142
0.184492	47.4663
0.199985	58.5931
0.264773	60.4241
0.338013	61.6917
0.435196	62.5367
0.521111	63.241
0.62252	64.086
0.718295	64.7903
0.814069	65.3536
0.915478	65.6353
0.964773	67.4663
