Adsorption isotherm of Nitrogen on MIL-100(Fe)
DOI: 10.1016/j.micromeso.2012.02.027
Adsorbate Nitrogen: InChIKey IJGRMHOSHXDMSA-UHFFFAOYSA-N
Temperature: 77 K
Tabular data in the source: 0
pressure (bar)	uptake (cm3(STP)/g)
0.00658518	171.815
0.00658518	244.895
0.0123058	318.977
0.0409086	385.049
0.0780923	452.123
0.120997	488.163
0.138158	521.199
0.201085	536.215
0.315496	549.23
0.402735	553.234
0.497124	558.24
0.601525	562.244
0.698774	565.247
0.798884	571.254
0.85609	575.258
0.914726	586.27
0.949049	601.287
0.993384	671.364
