Adsorption isotherm of Nitrogen on FeBTC
DOI: 10.1016/j.micromeso.2012.02.027
Adsorbate Nitrogen: InChIKey IJGRMHOSHXDMSA-UHFFFAOYSA-N
Temperature: 77 K
Tabular data in the source: 0
pressure (bar)	uptake (ml/g)
0.00843546	27.8965
0.00984391	133.53
0.050689	240.009
0.0732242	256.065
0.130971	277.192
0.229562	284.798
0.298576	286.488
0.374633	290.713
0.457731	292.404
0.539421	294.094
0.64083	294.939
0.705619	295.784
0.794351	298.319
0.871816	299.164
0.930971	302.544
0.980266	307.615
0.994351	387.051
