Adsorption isotherm of Toluene on MIL-100(Fe)
DOI: 10.1016/j.micromeso.2012.02.027
Adsorbate Toluene: InChIKey YXFVVABEGXRONW-UHFFFAOYSA-N
Temperature: 303 K
Tabular data in the source: 0
pressure (bar)	uptake (wt%)
0.00421011	10.4241
0.0267453	13.3818
0.035196	16.9029
0.0394214	29.0156
0.0647735	40.1424
0.0689988	50.2832
0.129562	53.5227
0.191534	54.7903
0.295759	56.0579
0.37745	56.4804
0.457731	57.0438
0.542238	57.6072
0.619703	58.0297
0.701393	58.5931
0.7859	59.4381
0.860548	61.41
0.908435	63.3818
0.945055	66.9029
