Adsorption isotherm of 1-butene on Zeolite 13X
DOI: 10.1080/01496390902775935
Article source: Figure 2a
Adsorbate 1-butene: InChIKey VXNZUUAINFGPBY-UHFFFAOYSA-N
Kind: experiment
Temperature: 373 K
Tabular data in the source: 0
pressure (bar)	uptake (mmol/g)
0.02255	0
0.05703	0
0.11406	0
0.15119	0
0.23342	0
0.3435	0
0.42706	0
0.56101	0
0.70955	0
0.82891	0
0.9443	0
