Adsorption isotherm of N-propane, Propene on Zeolite 13X
DOI: 10.1080/01496390902775935
Article source: Figure 6
Adsorbate N-propane: InChIKey ATUOYWHBWRKTHZ-UHFFFAOYSA-N
Adsorbate Propene: InChIKey QQONPFPTGQHPMA-UHFFFAOYSA-N
Kind: experiment
Temperature: 373 K
Tabular data in the source: 0
pressure (bar)	N-propane fraction	N-propane uptake (mmol/g)	Propene fraction	Propene uptake (mmol/g)	total uptake (mmol/g)
1.5	0	1.828	0	0	
1.5	0.315	1.288	0.315	0.592	
1.5	0.618	0.777	0.618	1.252	
1.5	0.843	0.333	0.843	1.784	
1.5	0.942	0.126	0.942	2.046	
1.5	0.98	0.044	0.98	2.185	
1.5	1	0	1	2.29	
