Adsorption isotherm of N-propane, 1-butene on Zeolite 13X
DOI: 10.1080/01496390902775935
Article source: Table 6
Adsorbate N-propane: InChIKey ATUOYWHBWRKTHZ-UHFFFAOYSA-N
Adsorbate 1-butene: InChIKey VXNZUUAINFGPBY-UHFFFAOYSA-N
Kind: experiment
Temperature: 373 K
Tabular data in the source: 1
pressure (bar)	N-propane fraction	N-propane uptake (mmol/g)	1-butene fraction	1-butene uptake (mmol/g)	total uptake (mmol/g)
1.1	1	1.622	0	0	
1.1	0.75	0.247	0.25	1.594	
1.1	0.5	0.127	0.5	1.766	
1.1	0.25	0.082	0.75	1.856	
1.1	0	0	1	1.956	
