Adsorption isotherm of N-propane on Zeolite 13X
DOI: 10.1080/01496390902775935
Article source: Figure 2a
Adsorbate N-propane: InChIKey ATUOYWHBWRKTHZ-UHFFFAOYSA-N
Kind: experiment
Temperature: 373 K
Tabular data in the source: 0
pressure (bar)	uptake (mmol/g)
0.00796	0.01132
0.03581	0.24192
0.06499	0.3704
0.09814	0.57073
0.12467	0.67275
0.18435	0.83138
0.21618	0.92203
0.2878	1.09573
0.37003	1.21267
0.43899	1.28427
0.51061	1.34451
0.72149	1.49122
0.84881	1.54369
0.99602	1.61121
