Adsorption isotherm of N-propane, Isobutane on Zeolite 13X
DOI: 10.1080/01496390902775935
Article source: Figure 6
Adsorbate N-propane: InChIKey ATUOYWHBWRKTHZ-UHFFFAOYSA-N
Adsorbate Isobutane: InChIKey NNPPMTNAJDCUHE-UHFFFAOYSA-N
Kind: experiment
Temperature: 373 K
Tabular data in the source: 0
pressure (bar)	N-propane fraction	N-propane uptake (mmol/g)	Isobutane fraction	Isobutane uptake (mmol/g)	total uptake (mmol/g)
1.5	0	1.825	0	0	
1.5	0.234	1.309	0.234	0.399	
1.5	0.477	0.886	0.477	0.81	
1.5	0.73	0.493	0.73	1.33	
1.5	0.883	0.201	0.883	1.524	
1.5	0.939	0.102	0.939	1.586	
1.5	1	0	1	1.64	
