Adsorption isotherm of Isobutane on Zeolite 13X
DOI: 10.1080/01496390902775935
Article source: Figure 2a
Adsorbate Isobutane: InChIKey NNPPMTNAJDCUHE-UHFFFAOYSA-N
Kind: experiment
Temperature: 373 K
Tabular data in the source: 0
pressure (bar)	uptake (mmol/g)
0.00796	0.10587
0.01724	0.40841
0.03316	0.68066
0.05703	0.91506
0.09284	1.08134
0.1366	1.18708
0.22944	1.30019
0.26658	1.32274
0.3634	1.38289
0.41777	1.4016
0.59814	1.45008
0.70557	1.48372
0.75862	1.47595
0.83024	1.49081
0.88992	1.49815
0.98143	1.51293
