Adsorption isotherm of Propene, 1-butene on Zeolite 13X
DOI: 10.1080/01496390902775935
Article source: Figure 6
Adsorbate Propene: InChIKey QQONPFPTGQHPMA-UHFFFAOYSA-N
Adsorbate 1-butene: InChIKey VXNZUUAINFGPBY-UHFFFAOYSA-N
Kind: experiment
Temperature: 373 K
Tabular data in the source: 0
pressure (bar)	Propene fraction	Propene uptake (mmol/g)	1-butene fraction	1-butene uptake (mmol/g)	total uptake (mmol/g)
1.5	0	2.076	0	0	
1.5	0.773	0.472	0.773	1.612	
1.5	1	0	1	1.948	
