Adsorption isotherm of Propene on Zeolite 13X
DOI: 10.1080/01496390902775935
Article source: Figure 2a
Adsorbate Propene: InChIKey QQONPFPTGQHPMA-UHFFFAOYSA-N
Kind: experiment
Temperature: 373 K
Tabular data in the source: 0
pressure (bar)	uptake (mmol/g)
0.00663	0.29876
0.02653	0.86979
0.05968	1.19115
0.09151	1.3877
0.16313	1.60301
0.21883	1.71249
0.27653	1.80682
0.36141	1.88782
0.42971	1.93862
0.50265	1.97427
0.67308	2.05305
0.76724	2.08295
0.90849	2.11268
