Adsorption isotherm of Isobutane, Propene on Zeolite 13X
DOI: 10.1080/01496390902775935
Article source: Figure 6
Adsorbate Isobutane: InChIKey NNPPMTNAJDCUHE-UHFFFAOYSA-N
Adsorbate Propene: InChIKey QQONPFPTGQHPMA-UHFFFAOYSA-N
Kind: experiment
Temperature: 373 K
Tabular data in the source: 0
pressure (bar)	Isobutane fraction	Isobutane uptake (mmol/g)	Propene fraction	Propene uptake (mmol/g)	total uptake (mmol/g)
1.5	0	0	0	2.29	0
1.5	0.044	0.098	0.044	2.133	0
1.5	0.113	0.244	0.113	1.926	0
1.5	0.288	0.597	0.288	1.478	0
1.5	0.554	1.119	0.554	0.9	0
1.5	0.806	1.382	0.806	0.332	0
1.5	1	1.644	1	0	0
