Adsorption isotherm of Nitrogen on HPB-COF
DOI: 10.1038/ncomms8786
Article source: Figure 4A
Adsorbate Nitrogen: InChIKey IJGRMHOSHXDMSA-UHFFFAOYSA-N
Kind: experiment
Temperature: 77 K
Tabular data in the source: 0
pressure (bar)	uptake (cm3(STP)/g)
0.000555	49.1394
0.000508	109.686
-0.002226	197.435
0.000416	229.902
0.004846	250.084
0.017282	265.879
0.031053	279.041
0.05194	287.816
0.077716	298.346
0.105276	301.856
0.131056	307.998
0.156837	312.386
0.181728	317.651
0.2084	320.283
0.232402	324.671
0.258183	329.058
0.285744	330.813
0.315083	333.446
0.359534	339.588
0.409323	342.221
0.460889	345.73
0.513342	350.995
0.562238	358.015
0.611135	364.158
0.660922	368.545
0.710707	376.443
0.761379	385.217
0.809383	396.625
0.860939	413.297
0.9116	436.989
0.961362	473.844
0.984444	520.351
1.00127	601.08
1.00823	802.025
0.985313	545.798
0.914242	470.334
0.860015	458.049
0.806671	454.539
0.756885	448.397
0.704428	447.519
0.651972	444.887
0.602185	440.499
0.552396	438.744
0.504387	434.357
0.45287	367.668
0.403972	363.28
0.350629	358.015
0.301728	357.138
0.275058	353.628
0.248384	353.628
0.224381	349.24
0.200379	344.853
0.175485	342.221
0.149703	339.588
0.124808	339.588
0.099028	334.323
0.008376	284.306
