Adsorption isotherm of Nitrogen on HBC-COF
DOI: 10.1038/ncomms8786
Article source: Figure 4C
Adsorbate Nitrogen: InChIKey IJGRMHOSHXDMSA-UHFFFAOYSA-N
Kind: experiment
Temperature: 77 K
Tabular data in the source: 0
pressure (bar)	uptake (cm3(STP)/g)
0.001863	62.5737
0.009392	100.621
0.02947	121.706
0.052685	132.789
0.077782	140.827
0.106016	146.908
0.132368	151.032
0.15872	153.851
0.18319	156.236
0.209542	159.491
0.238404	161.657
0.261619	162.303
0.287344	163.818
0.313068	166.638
0.360126	167.93
0.41032	170.308
0.463024	173.121
0.511964	175.5
0.561531	176.573
0.614235	180.256
0.666312	183.286
0.717761	186.316
0.767328	188.477
0.815013	191.726
0.86709	195.191
0.914147	200.179
0.961204	209.298
0.988811	221.249
1.00136	234.509
1.00701	246.466
0.988184	225.815
0.958067	215.387
0.91101	208.224
0.855168	203.239
0.803719	200.208
0.753525	198.265
0.700193	196.54
0.648744	195.249
0.599804	194.61
0.550865	192.883
0.498788	191.158
0.452985	186.387
0.396517	185.097
0.348832	183.153
0.29801	180.992
0.272913	180.564
0.248443	178.831
0.222091	177.751
0.198249	176.888
0.172524	175.155
0.147427	173.423
0.124212	170.82
0.098487	167.348
0.009392	139.758
