Adsorption isotherm of Ethane, Ethene on Activated Carbon, Type BPL, 6/16 mesh
DOI: 10.1021/i260075a002
Article source: Table IV
Adsorbate Ethane: InChIKey OTMSDBZUPAUEDD-UHFFFAOYSA-N
Adsorbate Ethene: InChIKey VGGSQFUCUMXWEO-UHFFFAOYSA-N
Kind: experiment
Temperature: 301 K
Tabular data in the source: 0
pressure (bar)	Ethane fraction	Ethane uptake (mmol/g)	Ethene fraction	Ethene uptake (mmol/g)	total uptake (mmol/g)
19.8155	0.24	1.618	0.76	4.32	
13.4103	0.24	1.479	0.76	3.899	
7.3705	0.24	1.351	0.76	3.368	
3.08196	0.24	1.118	0.76	2.731	
1.37895	0.24	0.839	0.76	2.149	
