Adsorption isotherm of Ethane, Ethene on Activated Carbon, Type BPL, 6/16 mesh
DOI: 10.1021/i260075a002
Article source: Table IV
Adsorbate Ethane: InChIKey OTMSDBZUPAUEDD-UHFFFAOYSA-N
Adsorbate Ethene: InChIKey VGGSQFUCUMXWEO-UHFFFAOYSA-N
Kind: experiment
Temperature: 212 K
Tabular data in the source: 0
pressure (bar)	Ethane fraction	Ethane uptake (mmol/g)	Ethene fraction	Ethene uptake (mmol/g)	total uptake (mmol/g)
13.6792	0.24	2.53	0.76	5.254	
6.92923	0.24	2.361	0.76	4.733	
3.46117	0.24	2.328	0.76	4.404	
