Adsorption isotherm of Ethene, Methane on Activated Carbon, Type BPL, 6/16 mesh
DOI: 10.1021/i260075a002
Article source: Table III
Adsorbate Ethene: InChIKey VGGSQFUCUMXWEO-UHFFFAOYSA-N
Adsorbate Methane: InChIKey VNWKTOKETHGBQD-UHFFFAOYSA-N
Kind: experiment
Temperature: 301 K
Tabular data in the source: 0
pressure (bar)	Ethene fraction	Ethene uptake (mmol/g)	Methane fraction	Methane uptake (mmol/g)	total uptake (mmol/g)
14.3066	0.235	2.77	0.765	1.757	
6.93613	0.235	2.349	0.765	1.188	
6.9706	0.235	2.367	0.765	1.206	
4.43333	0.235	2.069	0.765	0.925	
1.28932	0.235	1.294	0.765	0.422	
