Adsorption isotherm of Ethene, Methane on Activated Carbon, Type BPL, 6/16 mesh
DOI: 10.1021/i260075a002
Article source: Table III
Adsorbate Ethene: InChIKey VGGSQFUCUMXWEO-UHFFFAOYSA-N
Adsorbate Methane: InChIKey VNWKTOKETHGBQD-UHFFFAOYSA-N
Kind: experiment
Temperature: 212 K
Tabular data in the source: 0
pressure (bar)	Ethene fraction	Ethene uptake (mmol/g)	Methane fraction	Methane uptake (mmol/g)	total uptake (mmol/g)
6.80513	0.74	7.619	0.26	0.087	
4.14375	0.74	7.08	0.26	0.227	
2.40627	0.74	6.593	0.26	0.189	
1.35827	0.74	6.23	0.26	0.108	
