Adsorption isotherm of Ethene on Activated Carbon, Type BPL, 6/16 mesh
DOI: 10.1021/i260075a002
Article source: Table I
Adsorbate Ethene: InChIKey VGGSQFUCUMXWEO-UHFFFAOYSA-N
Kind: experiment
Temperature: 260 K
Tabular data in the source: 0
pressure (bar)	uptake (mmol/g)
0.103421	1.765
0.468843	3.229
1.15142	4.17
2.73032	5.046
5.5227	5.696
8.58397	6.058
12.1555	6.306
15.8924	6.468
