Adsorption isotherm of Ethene on Activated Carbon, Type BPL, 6/16 mesh
DOI: 10.1021/i260075a002
Article source: Table I
Adsorbate Ethene: InChIKey VGGSQFUCUMXWEO-UHFFFAOYSA-N
Kind: experiment
Temperature: 212 K
Tabular data in the source: 0
pressure (bar)	uptake (mmol/g)
0.006895	1.895
0.068948	3.727
0.351633	5.327
1.06179	6.346
2.3718	7.008
4.18512	7.448
5.99844	7.884
