Adsorption isotherm of Methane on Activated Carbon, Type BPL, 6/16 mesh
DOI: 10.1021/i260075a002
Article source: Table I
Adsorbate Methane: InChIKey VNWKTOKETHGBQD-UHFFFAOYSA-N
Kind: experiment
Temperature: 212 K
Tabular data in the source: 0
pressure (bar)	uptake (mmol/g)
0.227527	1.669
0.72395	2.924
1.34448	3.736
2.66827	4.632
4.74359	5.359
7.08781	5.848
9.8595	6.222
12.7415	6.493
16.1475	6.715
19.6363	7.003
23.7042	7.141
27.2481	7.256
34.5083	7.261
