Adsorption isotherm of Ethene, Methane on Activated Carbon, Type BPL, 6/16 mesh
DOI: 10.1021/i260075a002
Article source: Table III
Adsorbate Ethene: InChIKey VGGSQFUCUMXWEO-UHFFFAOYSA-N
Adsorbate Methane: InChIKey VNWKTOKETHGBQD-UHFFFAOYSA-N
Kind: experiment
Temperature: 212 K
Tabular data in the source: 0
pressure (bar)	Ethene fraction	Ethene uptake (mmol/g)	Methane fraction	Methane uptake (mmol/g)	total uptake (mmol/g)
7.25328	0.466	6.875	0.534	0.747	
3.19917	0.466	6.413	0.534	0.505	
