Adsorption isotherm of Ethene, Methane on Activated Carbon, Type BPL, 6/16 mesh
DOI: 10.1021/i260075a002
Article source: Table III
Adsorbate Ethene: InChIKey VGGSQFUCUMXWEO-UHFFFAOYSA-N
Adsorbate Methane: InChIKey VNWKTOKETHGBQD-UHFFFAOYSA-N
Kind: experiment
Temperature: 260 K
Tabular data in the source: 0
pressure (bar)	Ethene fraction	Ethene uptake (mmol/g)	Methane fraction	Methane uptake (mmol/g)	total uptake (mmol/g)
14.1136	0.235	4.015	0.765	1.92	
6.8396	0.235	3.654	0.765	1.334	
6.8396	0.235	3.639	0.765	1.346	
3.50254	0.235	3.176	0.765	1.059	
1.45479	0.235	2.548	0.765	0.669	
