Adsorption isotherm of Ethene, Methane on Activated Carbon, Type BPL, 6/16 mesh
DOI: 10.1021/i260075a002
Article source: Table III
Adsorbate Ethene: InChIKey VGGSQFUCUMXWEO-UHFFFAOYSA-N
Adsorbate Methane: InChIKey VNWKTOKETHGBQD-UHFFFAOYSA-N
Kind: experiment
Temperature: 301 K
Tabular data in the source: 0
pressure (bar)	Ethene fraction	Ethene uptake (mmol/g)	Methane fraction	Methane uptake (mmol/g)	total uptake (mmol/g)
20.312	0.464	4.06	0.536	1.331	
12.4037	0.464	3.776	0.536	1.002	
6.76376	0.464	3.248	0.536	0.686	
3.44048	0.464	2.689	0.536	0.488	
1.22037	0.464	1.836	0.536	0.217	
