Adsorption isotherm of Ethane on Activated Carbon, Type BPL, 6/16 mesh
DOI: 10.1021/i260075a002
Article source: Table I
Adsorbate Ethane: InChIKey OTMSDBZUPAUEDD-UHFFFAOYSA-N
Kind: experiment
Temperature: 212 K
Tabular data in the source: 0
pressure (bar)	uptake (mmol/g)
0.006895	1.859
0.034474	3.695
0.248211	5.346
1.08248	6.37
2.39248	7.01
3.10264	7.317
