Adsorption isotherm of Ethene on Activated Carbon, Type BPL, 6/16 mesh
DOI: 10.1021/i260075a002
Article source: Table I
Adsorbate Ethene: InChIKey VGGSQFUCUMXWEO-UHFFFAOYSA-N
Kind: experiment
Temperature: 301 K
Tabular data in the source: 0
pressure (bar)	uptake (mmol/g)
0.172369	0.949
0.413685	1.576
0.820476	2.227
1.16521	2.57
1.57201	2.905
2.77859	3.514
4.35749	3.988
5.10212	4.138
6.7017	4.422
7.51529	4.53
9.29413	4.732
10.287	4.822
11.8797	4.945
13.6585	5.07
14.1894	5.096
16.9611	5.247
