Adsorption isotherm of Ethene, Methane on Activated Carbon, Type BPL, 6/16 mesh
DOI: 10.1021/i260075a002
Article source: Table III
Adsorbate Ethene: InChIKey VGGSQFUCUMXWEO-UHFFFAOYSA-N
Adsorbate Methane: InChIKey VNWKTOKETHGBQD-UHFFFAOYSA-N
Kind: experiment
Temperature: 212 K
Tabular data in the source: 0
pressure (bar)	Ethene fraction	Ethene uptake (mmol/g)	Methane fraction	Methane uptake (mmol/g)	total uptake (mmol/g)
8.96318	0.235	5.921	0.765	1.443	
4.41264	0.235	5.496	0.765	1.158	
4.42643	0.235	5.497	0.765	1.172	
1.35827	0.235	4.72	0.765	0.748	
