Adsorption isotherm of Ethane on Activated Carbon, Type BPL, 6/16 mesh
DOI: 10.1021/i260075a002
Article source: Table I
Adsorbate Ethane: InChIKey OTMSDBZUPAUEDD-UHFFFAOYSA-N
Kind: experiment
Temperature: 301 K
Tabular data in the source: 0
pressure (bar)	uptake (mmol/g)
0.124106	1.013
0.310264	1.62
0.648107	2.388
0.965266	2.749
1.42032	3.176
1.703	3.329
3.26122	3.965
4.37128	4.226
5.41928	4.417
6.8396	4.598
7.68076	4.708
9.38377	4.839
10.3766	4.925
12.1072	5.014
13.7275	5.1
17.1059	5.218
