Adsorption isotherm of Methane on Activated Carbon, Type BPL, 6/16 mesh
DOI: 10.1021/i260075a002
Article source: Table I
Adsorbate Methane: InChIKey VNWKTOKETHGBQD-UHFFFAOYSA-N
Kind: experiment
Temperature: 260 K
Tabular data in the source: 0
pressure (bar)	uptake (mmol/g)
0.441264	0.793
0.820476	1.207
1.30311	1.618
1.62027	1.83
2.43385	2.297
3.0268	2.561
4.09549	2.948
5.04696	3.216
6.1846	3.493
7.28776	3.705
8.62534	3.933
9.48719	4.122
10.025	4.125
11.6797	4.325
13.3689	4.487
15.134	4.649
15.8855	4.746
16.6508	4.755
20.2292	5.057
24.0834	5.246
27.6618	5.411
31.2057	5.507
34.6462	5.57
38.259	5.594
