Adsorption isotherm of Methane on Activated Carbon, Type BPL, 6/16 mesh
DOI: 10.1021/i260075a002
Article source: Table I
Adsorbate Methane: InChIKey VNWKTOKETHGBQD-UHFFFAOYSA-N
Kind: experiment
Temperature: 301 K
Tabular data in the source: 0
pressure (bar)	uptake (mmol/g)
0.72395	0.477
1.3169	0.764
1.81332	0.966
2.74411	1.298
3.98517	1.644
4.67464	1.811
6.06049	2.097
6.77755	2.23
8.23234	2.463
8.72876	2.56
8.9494	2.564
10.3697	2.748
11.6246	2.894
12.6105	3.065
13.2862	3.064
14.4376	3.174
15.8786	3.284
16.4371	3.385
17.1886	3.395
20.0224	3.617
23.6697	3.806
27.317	3.974
30.9644	4.049
34.4738	4.195
38.2935	4.25
