Adsorption isotherm of Ethane, Methane on Activated Carbon, Type BPL, 6/16 mesh
DOI: 10.1021/i260075a002
Article source: Table II
Adsorbate Ethane: InChIKey OTMSDBZUPAUEDD-UHFFFAOYSA-N
Adsorbate Methane: InChIKey VNWKTOKETHGBQD-UHFFFAOYSA-N
Kind: experiment
Temperature: 301 K
Tabular data in the source: 0
pressure (bar)	Ethane fraction	Ethane uptake (mmol/g)	Methane fraction	Methane uptake (mmol/g)	total uptake (mmol/g)
13.7344	0.255	3.292	0.745	1.388	
13.7826	0.255	3.321	0.745	1.365	
6.87407	0.255	2.871	0.745	0.945	
3.49564	0.255	2.4	0.745	0.656	
1.29621	0.255	1.661	0.745	0.333	
