Adsorption isotherm of Ethene, Methane on Activated Carbon, Type BPL, 6/16 mesh
DOI: 10.1021/i260075a002
Article source: Table III
Adsorbate Ethene: InChIKey VGGSQFUCUMXWEO-UHFFFAOYSA-N
Adsorbate Methane: InChIKey VNWKTOKETHGBQD-UHFFFAOYSA-N
Kind: experiment
Temperature: 301 K
Tabular data in the source: 0
pressure (bar)	Ethene fraction	Ethene uptake (mmol/g)	Methane fraction	Methane uptake (mmol/g)	total uptake (mmol/g)
20.0086	0.74	5.105	0.26	0.626	
12.2589	0.74	4.686	0.26	0.45	
6.82581	0.74	4.003	0.26	0.345	
3.44738	0.74	3.358	0.26	0.246	
1.31	0.74	2.366	0.26	0.087	
