Adsorption isotherm of Ethane on Activated Carbon, Type BPL, 6/16 mesh
DOI: 10.1021/i260075a002
Article source: Table I
Adsorbate Ethane: InChIKey OTMSDBZUPAUEDD-UHFFFAOYSA-N
Kind: experiment
Temperature: 260 K
Tabular data in the source: 0
pressure (bar)	uptake (mmol/g)
0.062053	1.794
0.193053	2.832
0.744634	4.11
1.5789	4.755
3.82659	5.46
7.1085	5.863
10.6386	6.124
13.6585	6.306
