Adsorption isotherm of Ethane, Methane on Activated Carbon, Type BPL, 6/16 mesh
DOI: 10.1021/i260075a002
Article source: Table II
Adsorbate Ethane: InChIKey OTMSDBZUPAUEDD-UHFFFAOYSA-N
Adsorbate Methane: InChIKey VNWKTOKETHGBQD-UHFFFAOYSA-N
Kind: experiment
Temperature: 301 K
Tabular data in the source: 0
pressure (bar)	Ethane fraction	Ethane uptake (mmol/g)	Methane fraction	Methane uptake (mmol/g)	total uptake (mmol/g)
20.0568	0.733	5.068	0.267	0.743	
12.3416	0.733	4.708	0.267	0.555	
6.84649	0.733	4.183	0.267	0.337	
3.50943	0.733	3.683	0.267	0.225	
1.29621	0.733	2.817	0.267	0.076	
