Adsorption isotherm of Argon on BP-280
DOI: 10.1021/Jp011745+
Adsorbate Argon: InChIKey XKRFYHLGVUSROY-UHFFFAOYSA-N
Temperature: 77 K
Tabular data in the source: 0
pressure (bar)	uptake (cm3(STP)/g)
0.0536913	0.627609
0.0872483	0.662262
0.157718	0.723004
0.208054	0.774983
0.285235	0.861557
0.369128	0.965371
0.463087	1.07786
0.550336	1.19889
0.627517	1.29405
0.681208	1.38901
0.728188	1.46674
0.771812	1.56161
0.818792	1.63934
0.855705	1.72556
0.88255	1.8203
0.899329	1.8634
0.926174	1.95813
0.946309	2.04421
0.963087	2.12168
0.973154	2.19049
0.983221	2.24212
0.996644	2.28519
