Adsorption isotherm of Argon on Cabot BP
DOI: 10.1021/Jp011745+
Adsorbate Argon: InChIKey XKRFYHLGVUSROY-UHFFFAOYSA-N
Temperature: 77 K
Tabular data in the source: 0
pressure (bar)	uptake (cm3(STP)/g)
1.40335	0.664773
1.48107	0.730059
1.5631	0.863838
1.62446	0.998534
1.82337	1.40262
1.98456	1.80854
2.24479	2.48614
2.44323	3.09754
2.67977	3.98245
3.0079	5.07147
3.37621	6.16049
3.96883	7.38374
4.73788	8.60608
5.69967	9.89646
7.07121	11.7329
7.75579	13.5083
8.31237	15.6959
8.63867	17.132
8.77273	18.2955
8.97776	19.6639
