Adsorption isotherm of Argon on Carbopack F
DOI: 10.1021/Jp011745+
Adsorbate Argon: InChIKey XKRFYHLGVUSROY-UHFFFAOYSA-N
Temperature: 77 K
Tabular data in the source: 0
pressure (bar)	uptake (cm3(STP)/g)
0.167123	1.97485
0.234192	2.10725
0.29455	2.2401
0.364861	2.71474
0.418323	3.39601
0.471924	3.66631
0.51548	3.8688
0.575815	4.07015
0.639437	4.47675
0.706369	5.02011
0.776703	5.42625
0.830234	5.90204
0.873515	6.92647
0.900177	7.47259
0.950123	8.63355
0.9598	9.79727
0.96635	10.2763
0.976165	11.029
0.982623	11.782
0.989105	12.4665
