Adsorption isotherm of Argon on Cabot BP
DOI: 10.1021/Jp011745+
Adsorbate Argon: InChIKey XKRFYHLGVUSROY-UHFFFAOYSA-N
Temperature: 87 K
Tabular data in the source: 0
pressure (bar)	uptake (cm3(STP)/g)
1.61501	0.670674
1.67866	0.738017
1.75841	0.873622
1.87063	1.00877
2.0055	1.21218
2.20063	1.55188
2.35955	2.02926
2.54963	2.5749
2.73381	3.12077
2.95413	3.7349
3.2172	4.55428
3.53098	5.44193
3.78616	6.05629
4.12311	6.73868
4.2863	7.21698
4.59571	7.62587
4.92771	8.17174
5.24303	8.71784
5.66509	9.12649
5.98104	9.60433
6.26584	10.0139
6.5642	10.4235
6.93102	11.1753
7.20478	11.4481
7.49074	12.2004
7.72752	12.7474
7.91039	13.2946
8.0355	13.9106
