Adsorption isotherm of Argon on Activated Carbon
DOI: 10.1021/Jp011745+
Adsorbate Argon: InChIKey XKRFYHLGVUSROY-UHFFFAOYSA-N
Temperature: 87 K
Tabular data in the source: 0
pressure (bar)	uptake (cm3(STP)/g)
0.0133779	386.207
0.0367893	430.345
0.0535117	466.207
0.090301	507.586
0.12709	535.172
0.183946	562.759
0.240803	576.552
0.284281	582.069
0.361204	595.862
0.431438	601.379
0.494983	604.138
0.555184	609.655
0.665552	620.69
0.70903	626.207
0.729097	628.966
0.755853	631.724
0.799331	631.724
0.826087	631.724
0.866221	634.483
0.899666	637.241
0.923077	637.241
0.943144	640
0.966555	642.759
0.979933	648.276
0.996656	653.793
