Adsorption isotherm of Argon on Carbopack F
DOI: 10.1021/Jp011745+
Adsorbate Argon: InChIKey XKRFYHLGVUSROY-UHFFFAOYSA-N
Temperature: 77 K
Tabular data in the source: 0
pressure (bar)	uptake (cm3(STP)/g)
2.00996	0.134021
2.12239	0.195876
2.22398	0.28866
2.33099	0.474227
2.42441	0.680412
2.52198	0.948454
2.66432	1.19588
2.92549	1.38144
3.41733	1.51546
4.18172	1.62887
4.88413	1.71134
5.53062	1.81443
6.31108	1.89691
7.37233	2.04124
7.97108	2.25773
8.09886	2.41237
8.16319	2.47423
8.22913	2.58763
8.29604	2.72165
8.2987	2.84536
8.36618	2.97938
