Adsorption isotherm of Argon on Cabot BP
DOI: 10.1021/Jp011745+
Adsorbate Argon: InChIKey XKRFYHLGVUSROY-UHFFFAOYSA-N
Temperature: 87 K
Tabular data in the source: 0
pressure (bar)	uptake (cm3(STP)/g)
0.201616	12.2252
0.302332	14.2283
0.382891	15.2143
0.47354	17.2225
0.554122	19.2359
0.641438	22.2732
0.698519	23.785
0.742188	25.8174
0.799292	28.3565
0.822805	29.3718
0.85643	32.4368
0.879989	35.5069
0.917028	41.1385
0.933944	47.2942
0.947482	52.4242
0.957778	62.6929
0.964754	74.5044
0.97543	101.725
0.985394	97.0965
0.985888	119.185
0.992645	121.237
