Adsorption isotherm of Argon on Carbopack F
DOI: 10.1021/Jp011745+
Adsorbate Argon: InChIKey XKRFYHLGVUSROY-UHFFFAOYSA-N
Temperature: 87 K
Tabular data in the source: 0
pressure (bar)	uptake (cm3(STP)/g)
2.22669	0.15411
2.47926	0.297945
2.55607	0.410959
2.65571	0.513699
2.71677	0.657534
2.82237	0.80137
2.84352	0.893836
2.95404	1.03767
3.1165	1.18151
3.26301	1.28425
3.63312	1.42808
4.07703	1.52055
4.61066	1.60274
5.25472	1.66438
5.98796	1.7774
6.51627	1.83904
7.47878	2.16781
7.70969	2.32192
7.82707	2.43493
7.94625	2.54795
8.12917	2.68151
