Adsorption isotherm of Argon on Cabot BP
DOI: 10.1021/Jp011745+
Adsorbate Argon: InChIKey XKRFYHLGVUSROY-UHFFFAOYSA-N
Temperature: 77 K
Tabular data in the source: 0
pressure (bar)	uptake (cm3(STP)/g)
0.166961	11.8151
0.220461	12.3288
0.29735	13.8699
0.374227	15.9247
0.467838	17.4658
0.544727	19.0068
0.621615	20.5479
0.698493	22.6027
0.778703	25.1712
0.838858	27.226
0.892312	29.7945
0.935733	32.363
0.965788	34.4178
0.992498	36.4726
