Adsorption isotherm of Argon on Activated Carbon
DOI: 10.1021/Jp011745+
Adsorbate Argon: InChIKey XKRFYHLGVUSROY-UHFFFAOYSA-N
Temperature: 77 K
Tabular data in the source: 0
pressure (bar)	uptake (cm3(STP)/g)
0.0092775	180.822
0.00941494	147.945
0.00958675	106.849
0.00975856	65.7534
0.009896	32.8767
0.00998763	10.9589
0.0116713	408.219
0.0315779	446.575
0.0481514	482.192
0.0847574	526.027
0.131454	556.164
0.184886	575.342
0.258418	586.301
0.318585	594.521
0.375418	600
0.438952	602.74
0.50583	605.479
0.619531	608.219
0.662998	610.959
0.736553	616.438
0.786721	616.438
0.866977	619.178
0.920477	621.918
0.994056	621.918
