Adsorption isotherm of Argon on Carbopack F
DOI: 10.1021/Jp011745+
Adsorbate Argon: InChIKey XKRFYHLGVUSROY-UHFFFAOYSA-N
Temperature: 87 K
Tabular data in the source: 0
pressure (bar)	uptake (cm3(STP)/g)
0.127218	1.78082
0.197653	1.9863
0.278121	2.39726
0.335111	2.73973
0.418923	3.21918
0.496047	3.56164
0.599993	4.0411
0.680415	4.72603
0.744036	5.54795
0.797658	5.9589
0.841179	6.57534
0.881321	7.32877
0.918073	8.28767
0.931346	9.17808
0.937988	9.58904
0.954664	10.2055
0.95787	11.0959
0.974304	13.1507
0.977544	13.8356
0.980555	15.8904
0.983497	18.3562
0.983555	18.0137
0.983681	17.2603
