Adsorption isotherm of Methane on [Cu(Hoxonic)(bpy)0.5]n*1.5n
DOI: 10.1002/chem.200902346
Adsorbate Methane: InChIKey VNWKTOKETHGBQD-UHFFFAOYSA-N
Temperature: 273 K
Tabular data in the source: 0
pressure (bar)	uptake (mmol/g)
0.264115	0.0646088
0.755711	0.130155
1.13806	0.176037
2.06664	0.235029
2.94059	0.294021
4.25151	0.366121
8.45739	0.444777
10.3145	0.457886
11.7347	0.536542
14.7935	0.529987
18.2347	0.543096
20.3103	0.556205
22.0582	0.569315
