Adsorption isotherm of Carbon Dioxide on [Cu(Hoxonic)(bpy)0.5]n*1.5n
DOI: 10.1002/chem.200902346
Adsorbate Carbon Dioxide: InChIKey CURLTUGMZLYLDI-UHFFFAOYSA-N
Temperature: 273 K
Tabular data in the source: 0
pressure (bar)	uptake (mmol/g)
0.0456273	0.687298
0.154871	1.48041
0.373358	1.78847
1.30193	2.01133
1.95739	2.05721
3.10445	2.13587
4.47	2.18831
8.12966	2.2473
12.0624	2.28007
14.0288	2.29973
16.2137	2.34562
18.1801	2.40461
20.7473	2.45049
24.2431	2.61436
