Adsorption isotherm of Methane on C31H32Cl4Co3N10O3
DOI: 10.1039/C0cc04089d
Adsorbate Methane: InChIKey VNWKTOKETHGBQD-UHFFFAOYSA-N
Temperature: 298 K
Tabular data in the source: 0
pressure (bar)	uptake (cm3(STP)/g)
0.0259196	0.290698
0.0558174	0.508721
0.0797334	0.65407
0.105647	0.872093
0.155494	1.45349
0.203338	1.88953
0.255154	2.18023
0.308979	2.68895
0.356811	2.97965
0.408644	3.48837
0.46046	3.77907
0.512282	4.14244
0.562118	4.57849
0.615926	4.86919
0.665756	5.23256
0.71558	5.52326
0.771374	5.74128
0.817219	6.10465
0.867043	6.39535
0.92084	6.5407
0.972656	6.8314
1.01848	6.97674
