Adsorption isotherm of Carbon Dioxide on C31H32Cl4Co3N10O3
DOI: 10.1039/C0cc04089d
Adsorbate Carbon Dioxide: InChIKey CURLTUGMZLYLDI-UHFFFAOYSA-N
Temperature: 195 K
Tabular data in the source: 0
pressure (bar)	uptake (cm3(STP)/g)
0.00266989	25.8605
0.00533977	29.8738
0.0106795	39.9068
0.0320386	43.2554
0.0373784	44.5942
0.0720869	46.1623
0.0907761	47.504
0.106795	47.7305
0.162863	49.7492
0.213591	51.5437
0.266989	53.116
0.317716	54.4647
0.360435	55.1429
0.416502	55.824
0.4699	56.5045
0.512618	57.1827
0.566016	58.0862
0.616744	58.3202
0.667471	58.7772
0.720869	59.4578
0.768927	59.9142
0.819655	60.3712
0.870383	61.0511
0.92645	61.2864
0.977178	61.7434
1.01723	62.421
