Adsorption isotherm of Methane on C31H32Cl4Co3N10O3
DOI: 10.1039/C0cc04089d
Adsorbate Methane: InChIKey VNWKTOKETHGBQD-UHFFFAOYSA-N
Temperature: 298 K
Tabular data in the source: 0
pressure (bar)	uptake (cm3(STP)/g)
0.0251572	0.0561798
0.0461216	0.168539
0.0691824	0.280899
0.0901468	0.337079
0.111111	0.393258
0.129979	0.449438
0.150943	0.505618
0.171908	0.561798
0.192872	0.617978
0.213836	0.617978
0.232704	0.674157
0.253669	0.730337
0.274633	0.730337
0.295597	0.786517
0.316562	0.842697
0.337526	0.842697
0.356394	0.898876
0.377358	0.898876
0.398323	0.955056
0.419287	0.955056
0.440252	0.955056
0.461216	1.01124
0.48218	1.01124
0.503145	1.01124
0.524109	1.06742
0.545073	1.06742
0.566038	1.06742
0.587002	1.06742
0.607966	1.1236
0.626834	1.1236
0.647799	1.1236
0.668763	1.1236
0.689727	1.1236
0.710692	1.1236
0.731656	1.1236
0.752621	1.1236
0.773585	1.17978
0.794549	1.17978
0.815514	1.17978
0.836478	1.17978
0.857442	1.17978
0.878407	1.17978
0.899371	1.17978
0.920335	1.17978
0.9413	1.17978
0.962264	1.17978
0.983229	1.17978
