Adsorption isotherm of Carbon Dioxide on C31H32Cl4Co3N10O3
DOI: 10.1039/C0cc04089d
Adsorbate Carbon Dioxide: InChIKey CURLTUGMZLYLDI-UHFFFAOYSA-N
Temperature: 298 K
Tabular data in the source: 0
pressure (bar)	uptake (cm3(STP)/g)
0.0100354	0.944767
0.0160752	1.74419
0.0260817	2.32558
0.0481388	4.14244
0.0641909	5.59593
0.0922183	7.34012
0.0942451	7.77616
0.100256	8.21221
0.150248	10.6105
0.160231	10.9012
0.20222	12.8634
0.254158	14.6802
0.310056	16.2064
0.357969	17.5145
0.409855	18.6773
0.461723	19.6221
0.513579	20.4215
0.565436	21.2209
0.615289	21.875
0.663161	22.6744
0.718985	23.2558
0.766834	23.7645
0.818667	24.2733
0.872493	24.782
0.918344	25.218
0.974161	25.7267
1.02001	26.0901
