Adsorption isotherm of Carbon Dioxide on C31H32Cl4Co3N10O3
DOI: 10.1039/C0cc04089d
Adsorbate Carbon Dioxide: InChIKey CURLTUGMZLYLDI-UHFFFAOYSA-N
Temperature: 298 K
Tabular data in the source: 0
pressure (bar)	uptake (cm3(STP)/g)
0.00892885	1.07431
0.0178577	2.14862
0.0326689	3.22229
0.0445283	4.18876
0.0563878	5.15523
0.074119	6.01354
0.0800961	6.98063
0.0978168	7.73142
0.112596	8.48252
0.127397	9.44867
0.142187	10.3073
0.162849	11.0578
0.18058	11.9161
0.19537	12.7747
0.218952	13.3098
0.236673	14.0606
0.257324	14.7035
0.277975	15.3465
0.298626	15.9894
0.322208	16.5245
0.345801	17.1671
0.369372	17.5947
0.390023	18.2376
0.416525	18.5574
0.440118	19.2
0.46662	19.5197
0.490212	20.1623
0.516703	20.3745
0.540285	20.9096
0.569718	21.1215
0.5933	21.6566
0.619791	21.8688
0.643373	22.4039
0.672805	22.6158
0.696366	22.9359
0.725799	23.1478
0.74937	23.5753
0.778803	23.7872
0.805294	23.9994
0.831785	24.2116
0.858287	24.5314
0.884779	24.7436
0.914222	25.063
0.940703	25.1677
0.967205	25.4874
0.993685	25.5921
1.01725	25.9121
