Adsorption isotherm of Methane on C31H32Cl4Co3N10O3
DOI: 10.1039/C0cc04089d
Adsorbate Methane: InChIKey VNWKTOKETHGBQD-UHFFFAOYSA-N
Temperature: 298 K
Tabular data in the source: 0
pressure (bar)	uptake (cm3(STP)/g)
0.018645	1.22926
0.0433706	1.56231
0.0650444	2.23152
0.0867067	2.7888
0.105306	3.5703
0.126979	4.23952
0.145578	5.02102
0.170327	5.57795
0.192012	6.3591
0.213675	6.91638
0.232273	7.69788
0.260108	8.25447
0.275621	9.03631
0.300393	9.81712
0.322055	10.3744
0.343729	11.0436
0.368477	11.6005
0.390163	12.3817
0.411837	13.0509
0.433499	13.6082
0.455184	14.3893
0.47991	14.7224
0.501595	15.5036
0.526344	16.0605
0.551092	16.6174
0.56968	17.287
0.597503	17.7316
0.619166	18.2889
0.643914	18.8458
0.665588	19.515
0.693411	19.9597
0.715085	20.6289
0.742909	21.0736
0.770732	21.5182
0.795481	22.0751
0.820241	22.744
0.844967	23.0771
0.869727	23.7459
0.897539	24.0786
0.925362	24.5233
0.9501	24.9683
0.971773	25.6375
1.00266	25.8579
1.03045	25.9667
