Adsorption isotherm of Carbon Dioxide on C31H32Cl4Co3N10O3
DOI: 10.1039/C0cc04089d
Adsorbate Carbon Dioxide: InChIKey CURLTUGMZLYLDI-UHFFFAOYSA-N
Temperature: 298 K
Tabular data in the source: 0
pressure (bar)	uptake (cm3(STP)/g)
0.0266717	0.223919
0.0609528	0.48855
0.0952436	0.773537
0.118091	0.936387
0.137154	1.11959
0.160001	1.28244
0.179054	1.44529
0.201901	1.60814
0.224749	1.77099
0.247606	1.9542
0.270454	2.11705
0.293302	2.2799
0.31614	2.42239
0.338987	2.58524
0.361835	2.74809
0.388478	2.91094
0.415111	3.05344
0.437958	3.21628
0.464591	3.35878
0.491225	3.50127
0.517867	3.66412
0.571133	3.94911
0.597757	4.07125
0.62438	4.19338
0.651013	4.33588
0.681432	4.45802
0.71186	4.60051
0.738483	4.72265
0.768902	4.84478
0.79932	4.96692
0.829739	5.08906
0.860157	5.2112
0.890566	5.31298
0.924779	5.43511
0.955188	5.5369
0.985597	5.63868
1.01981	5.76081
1.05401	5.8626
1.08441	5.94402
1.11862	6.0458
1.15282	6.14758
1.18702	6.22901
1.22122	6.33079
1.25541	6.41221
1.28962	6.51399
1.32381	6.59542
1.35801	6.67684
1.3922	6.75827
1.42638	6.81934
1.46437	6.90076
1.49857	6.98219
1.53275	7.04326
1.57074	7.12468
1.60493	7.18575
1.64291	7.24682
1.67709	7.30789
1.71128	7.36896
1.74926	7.43003
1.78344	7.49109
1.82141	7.53181
1.85559	7.59288
1.89357	7.65394
1.92775	7.69466
1.96573	7.75573
