Adsorption isotherm of Nitrogen on C31H32Cl4Co3N10O3
DOI: 10.1039/C0cc04089d
Adsorbate Nitrogen: InChIKey IJGRMHOSHXDMSA-UHFFFAOYSA-N
Temperature: 77 K
Tabular data in the source: 0
pressure (bar)	uptake (cm3(STP)/g)
0.0153398	0.44938
0.0460194	0.23349
0.0869255	0.242876
0.117605	0.249916
0.143171	0.478713
0.153398	0.703989
0.199417	0.714549
0.245437	0.725109
0.296569	0.959772
0.345145	0.747989
0.393721	0.982065
0.437184	0.992038
0.488317	1.67256
0.536893	1.68371
0.580355	1.69368
0.631488	1.48248
0.685177	1.94066
0.731197	1.95122
0.782329	2.40882
0.830905	2.41996
0.876925	2.87638
0.928057	4.2257
0.94851	5.56797
0.966407	8.91602
