Adsorption isotherm of Methane on C31H32Cl4Co3N10O3
DOI: 10.1039/C0cc04089d
Adsorbate Methane: InChIKey VNWKTOKETHGBQD-UHFFFAOYSA-N
Temperature: 298 K
Tabular data in the source: 0
pressure (bar)	uptake (cm3(STP)/g)
0.0989518	0.590331
0.125585	0.732824
0.156013	0.875318
0.182636	0.997455
0.213064	1.13995
0.239688	1.26209
0.270106	1.38422
0.300525	1.50636
0.330943	1.6285
0.361362	1.75064
0.391771	1.85242
0.422189	1.97455
0.452608	2.09669
0.486811	2.19847
0.51722	2.30025
0.551424	2.40204
0.585628	2.50382
0.616037	2.6056
0.650241	2.70738
0.684435	2.7888
0.718639	2.89059
0.752833	2.97201
0.787037	3.07379
0.821231	3.15522
0.855425	3.23664
0.889629	3.33842
0.923823	3.41985
0.958018	3.50127
0.992202	3.56234
1.03019	3.64377
1.06439	3.72519
1.18975	3.98982
1.22393	4.05089
1.26191	4.11196
1.2961	4.17303
1.33408	4.2341
1.36827	4.31552
1.40625	4.37659
1.44044	4.43766
1.47841	4.49873
1.5126	4.5598
1.55058	4.62087
1.58476	4.68193
1.61894	4.72265
1.65692	4.78372
1.6949	4.84478
1.72908	4.90585
1.76705	4.94656
1.80124	5.00763
1.83921	5.04835
1.87339	5.10941
1.91136	5.15013
1.94555	5.2112
1.98352	5.25191
