Adsorption isotherm of Carbon Dioxide on C31H32Cl4Co3N10O3
DOI: 10.1039/C0cc04089d
Adsorbate Carbon Dioxide: InChIKey CURLTUGMZLYLDI-UHFFFAOYSA-N
Temperature: 298 K
Tabular data in the source: 0
pressure (bar)	uptake (cm3(STP)/g)
0.0104822	0.561798
0.0209644	1.06742
0.0293501	1.57303
0.0398323	2.02247
0.0524109	2.52809
0.0628931	2.97753
0.0754717	3.42697
0.0859539	3.93258
0.0985325	4.38202
0.109015	4.83146
0.12369	5.2809
0.138365	5.67416
0.150943	6.1236
0.163522	6.57303
0.176101	6.96629
0.190776	7.35955
0.205451	7.75281
0.220126	8.14607
0.236897	8.59551
0.249476	8.98876
0.293501	9.94382
0.310273	10.2809
0.324948	10.6742
0.341719	11.0112
0.358491	11.3483
0.375262	11.6854
0.392034	11.9663
0.408805	12.3034
0.425577	12.5843
0.444444	12.8652
0.461216	13.2022
0.480084	13.4831
0.496855	13.764
0.515723	14.0449
0.534591	14.3258
0.553459	14.6067
0.570231	14.8876
0.589099	15.1124
0.607966	15.3371
0.626834	15.618
0.645702	15.8427
0.66457	16.0674
0.685535	16.236
0.704403	16.4607
0.72327	16.6854
0.744235	16.8539
0.763103	17.0787
0.781971	17.3034
0.800839	17.4719
0.821803	17.6966
0.840671	17.8652
0.859539	18.0337
0.880503	18.2584
0.899371	18.3708
0.920335	18.5393
0.939203	18.7079
0.960168	18.8764
0.979036	19.0449
1	19.2135
