Adsorption isotherm of Congo Red, Water on NH2-MIL-68(Al) (NMA)
DOI: 10.1016/j.molliq.2017.09.112
Article source: Figure 5
Adsorbate Congo Red: InChIKey IQFVPQOLBLOTPF-HKXUKFGYSA-L
Adsorbate Water: InChIKey XLYOFNOQVPJJNP-UHFFFAOYSA-N
Kind: experiment
Temperature: 298 K
Tabular data in the source: 0
pressure (bar)	Congo Red fraction	Congo Red uptake (mg/g)	Water fraction	Water uptake (mg/g)	total uptake (mg/g)
1.01325	0.108	0.19			
1.01325	0.672	117.71			
1.01325	8.144	164.65			
1.01325	18.956	183.11			
1.01325	29.769	199.79			
1.01325	43.474	200.67			
1.01325	55.945	206.77			
1.01325	70.047	208.52			
