Adsorption isotherm of Congo Red, Water on reduced graphene oxide (RGO)
DOI: 10.1016/j.molliq.2017.09.112
Article source: Figure 5
Adsorbate Congo Red: InChIKey IQFVPQOLBLOTPF-HKXUKFGYSA-L
Adsorbate Water: InChIKey XLYOFNOQVPJJNP-UHFFFAOYSA-N
Kind: experiment
Temperature: 298 K
Tabular data in the source: 0
pressure (bar)	Congo Red fraction	Congo Red uptake (mg/g)	Water fraction	Water uptake (mg/g)	total uptake (mg/g)
1.01325	0.108	0.19			
1.01325	21.918	12			
1.01325	37.36	18.16			
1.01325	51.462	20.27			
1.01325	65.346	23.43			
1.01325	79.121	23.77			
1.01325	92.294	23.41			
1.01325	107.052	25.16			
