Adsorption isotherm of Congo Red, Water on reduced graphene oxide decorated NH2-MIL-68(Al) (RGO/NMA)
DOI: 10.1016/j.molliq.2017.09.112
Article source: Figure 6
Adsorbate Congo Red: InChIKey IQFVPQOLBLOTPF-HKXUKFGYSA-L
Adsorbate Water: InChIKey XLYOFNOQVPJJNP-UHFFFAOYSA-N
Kind: experiment
Temperature: 298 K
Tabular data in the source: 0
pressure (bar)	Congo Red fraction	Congo Red uptake (mg/g)	Water fraction	Water uptake (mg/g)	total uptake (mg/g)
1.01325	0.0444	122.22			
1.01325	0.2769	203.54			
1.01325	0.9006	273.8			
1.01325	1.7163	341.18			
1.01325	3.9898	399.13			
1.01325	9.7139	438.11			
1.01325	18.8509	466.41			
