Adsorption isotherm of Congo Red, Water on reduced graphene oxide decorated NH2-MIL-68(Al) (RGO/NMA)
DOI: 10.1016/j.molliq.2017.09.112
Article source: Figure 6
Adsorbate Congo Red: InChIKey IQFVPQOLBLOTPF-HKXUKFGYSA-L
Adsorbate Water: InChIKey XLYOFNOQVPJJNP-UHFFFAOYSA-N
Kind: experiment
Temperature: 308 K
Tabular data in the source: 0
pressure (bar)	Congo Red fraction	Congo Red uptake (mg/g)	Water fraction	Water uptake (mg/g)	total uptake (mg/g)
1.01325	0.0358	121.61			
1.01325	0.4024	202.38			
1.01325	1.1062	273.03			
1.01325	2.3847	337.27			
1.01325	5.2234	393.64			
1.01325	10.8047	433.35			
1.01325	19.8593	461.49			
