Adsorption isotherm of Congo Red, Water on reduced graphene oxide decorated NH2-MIL-68(Al) (RGO/NMA)
DOI: 10.1016/j.molliq.2017.09.112
Article source: Figure 5
Adsorbate Congo Red: InChIKey IQFVPQOLBLOTPF-HKXUKFGYSA-L
Adsorbate Water: InChIKey XLYOFNOQVPJJNP-UHFFFAOYSA-N
Kind: experiment
Temperature: 298 K
Tabular data in the source: 0
pressure (bar)	Congo Red fraction	Congo Red uptake (mg/g)	Water fraction	Water uptake (mg/g)	total uptake (mg/g)
1.01325	0.008	121.98			
1.01325	0.108	0.19			
1.01325	0.225	203.7			
1.01325	0.29	275.47			
1.01325	0.659	345			
1.01325	3.891	398.12			
1.01325	9.705	437.09			
1.01325	18.946	466.23			
