Adsorption isotherm of Congo Red, Water on reduced graphene oxide decorated NH2-MIL-68(Al) (RGO/NMA)
DOI: 10.1016/j.molliq.2017.09.112
Article source: Figure 6
Adsorbate Congo Red: InChIKey IQFVPQOLBLOTPF-HKXUKFGYSA-L
Adsorbate Water: InChIKey XLYOFNOQVPJJNP-UHFFFAOYSA-N
Kind: experiment
Temperature: 318 K
Tabular data in the source: 0
pressure (bar)	Congo Red fraction	Congo Red uptake (mg/g)	Water fraction	Water uptake (mg/g)	total uptake (mg/g)
1.01325	0.0977	121.83			
1.01325	0.7068	202			
1.01325	1.9476	267.84			
1.01325	3.3626	331.6			
1.01325	6.716	386.23			
1.01325	13.0859	421.33			
1.01325	21.3941	452.89			
