Adsorption isotherm of Ethane, Ethene on SAPO-34
DOI: 10.1080/01496395.2014.999789
Article source: Figure 9/12
Adsorbate Ethane: InChIKey OTMSDBZUPAUEDD-UHFFFAOYSA-N
Adsorbate Ethene: InChIKey VGGSQFUCUMXWEO-UHFFFAOYSA-N
Kind: experiment
Temperature: 303 K
Tabular data in the source: 0
pressure (bar)	Ethane fraction	Ethane uptake (mmol/g)	Ethene fraction	Ethene uptake (mmol/g)	total uptake (mmol/g)
6	0.7312	1.13594	0.2688	1.07406	2.21
6	0.641	0.8777	0.359	1.7423	2.62
6	0.5498	0.74896	0.4502	2.27104	3.02
6	0.4915	0.49248	0.5085	2.74752	3.24
6	0.4004	0.44403	0.5996	3.16597	3.61
6	0.25	0.37525	0.75	3.57475	3.95
