Adsorption isotherm of Ethene on SAPO-34
DOI: 10.1080/01496395.2014.999789
Article source: Figure 4
Adsorbate Ethene: InChIKey VGGSQFUCUMXWEO-UHFFFAOYSA-N
Kind: experiment
Temperature: 303 K
Tabular data in the source: 0
pressure (bar)	uptake (mmol/g)
0.195	1.17
0.92	1.99
1.76	2.46
2.54	2.69
3.28	2.83
3.96	2.94
4.67	3
5.34	3.05
6.03	3.11
