Adsorption isotherm of Ethane, Methane on SAPO-34
DOI: 10.1080/01496395.2014.999789
Article source: Figure 7/10
Adsorbate Ethane: InChIKey OTMSDBZUPAUEDD-UHFFFAOYSA-N
Adsorbate Methane: InChIKey VNWKTOKETHGBQD-UHFFFAOYSA-N
Kind: experiment
Temperature: 303 K
Tabular data in the source: 0
pressure (bar)	Ethane fraction	Ethane uptake (mmol/g)	Methane fraction	Methane uptake (mmol/g)	total uptake (mmol/g)
6	0.1494	0.23052	0.8506	0.89948	1.13
6	0.268	0.41202	0.732	0.84798	1.26
6	0.38	0.72836	0.62	0.66164	1.39
6	0.4799	0.99072	0.5201	0.44928	1.44
6	0.5686	1.32129	0.4314	0.26871	1.59
6	0.6695	1.51848	0.3305	0.19152	1.71
6	0.7582	1.6761	0.2418	0.1739	1.85
