Adsorption isotherm of Ethane on SAPO-34
DOI: 10.1080/01496395.2014.999789
Article source: Figure 4
Adsorbate Ethane: InChIKey OTMSDBZUPAUEDD-UHFFFAOYSA-N
Kind: experiment
Temperature: 303 K
Tabular data in the source: 0
pressure (bar)	uptake (mmol/g)
0.279	0.845
1.13	1.2
1.95	1.26
2.62	1.3
3.29	1.31
3.96	1.32
4.62	1.34
5.3	1.36
5.96	1.37
