Adsorption isotherm of Ethene, Methane on SAPO-34
DOI: 10.1080/01496395.2014.999789
Article source: Figure 8/11
Adsorbate Ethene: InChIKey VGGSQFUCUMXWEO-UHFFFAOYSA-N
Adsorbate Methane: InChIKey VNWKTOKETHGBQD-UHFFFAOYSA-N
Kind: experiment
Temperature: 303 K
Tabular data in the source: 0
pressure (bar)	Ethene fraction	Ethene uptake (mmol/g)	Methane fraction	Methane uptake (mmol/g)	total uptake (mmol/g)
6	0.08915	0.20825	0.91085	0.98175	1.19
6	0.1884	0.55692	0.8116	0.97308	1.53
6	0.2693	1.12674	0.7307	0.98326	2.11
6	0.3483	1.76955	0.6517	0.74045	2.51
6	0.5579	2.74512	0.4421	0.29488	3.04
6	0.6691	3.13488	0.3309	0.22512	3.36
6	0.7785	3.40578	0.2215	0.16422	3.57
