Adsorption isotherm of Methane on SAPO-34
DOI: 10.1080/01496395.2014.999789
Article source: Figure 4
Adsorbate Methane: InChIKey VNWKTOKETHGBQD-UHFFFAOYSA-N
Kind: experiment
Temperature: 303 K
Tabular data in the source: 0
pressure (bar)	uptake (mmol/g)
0.548	0.267
0.798	0.339
1.9	0.501
2.58	0.61
3.26	0.693
3.93	0.76
4.62	0.8
5.29	0.83
5.94	0.844
