Adsorption isotherm of Water on MIL-53(Ga)
DOI: 10.1021/Jp412433a
Adsorbate Water: InChIKey XLYOFNOQVPJJNP-UHFFFAOYSA-N
Temperature: 323 K
Tabular data in the source: 0
pressure (bar)	uptake (mol/mol)
6.74663e-05	0.0217391
0.000343078	0.0253623
0.000687656	0.0289855
0.00116892	0.0507246
0.00205972	0.134058
0.00247026	0.181159
0.00286982	0.387681
0.00306897	0.5
0.00354498	0.597826
0.00388681	0.641304
0.00498451	0.724638
0.00684133	0.800725
0.00897676	0.836957
0.0107679	0.865942
0.0149043	0.887681
0.0198676	0.92029
0.0243488	0.942029
