Adsorption isotherm of Water on MIL-53(Ga)
DOI: 10.1021/Jp412433a
Adsorbate Water: InChIKey XLYOFNOQVPJJNP-UHFFFAOYSA-N
Temperature: 373 K
Tabular data in the source: 0
pressure (bar)	uptake (mol/mol)
2.49875e-07	-0.00362319
0.00593028	0.0108696
0.00848026	0.0362319
0.0101352	0.0398551
0.0120657	0.0471014
0.0142724	0.0507246
0.0183403	0.0652174
0.0213046	0.0833333
0.0242006	0.0905797
0.0306822	0.108696
