Adsorption isotherm of Water on MIL-53(Ga)
DOI: 10.1021/Jp412433a
Adsorbate Water: InChIKey XLYOFNOQVPJJNP-UHFFFAOYSA-N
Temperature: 323 K
Tabular data in the source: 0
pressure (bar)	uptake (mol/mol)
0	0.00851064
5.43478e-05	0.0297641
0.000407609	0.0296138
0.000625	0.0337766
0.000869565	0.0549491
0.0011413	0.0590888
0.00168478	0.109921
0.00203804	0.135303
0.0025	0.18617
0.0026087	0.245698
0.00288043	0.390264
0.003125	0.500798
0.00345109	0.590021
0.00361413	0.598462
0.00402174	0.640842
0.00453804	0.695941
0.00505435	0.725509
0.00616848	0.780354
0.00692935	0.797051
0.00904891	0.834447
