Adsorption isotherm of Water on MIL-53(Ga)
DOI: 10.1021/Jp412433a
Adsorbate Water: InChIKey XLYOFNOQVPJJNP-UHFFFAOYSA-N
Temperature: 298 K
Tabular data in the source: 0
pressure (bar)	uptake (mol/mol)
0.000134433	0.0507246
0.000338831	0.0869565
0.000537981	0.199275
0.000664668	0.362319
0.000716642	0.608696
0.000916292	0.713768
0.00146177	0.804348
0.00201	0.855072
0.00304173	0.894928
0.00386807	0.913043
0.00510795	0.934783
0.00607296	0.942029
0.00676212	0.949275
0.00807196	0.956522
0.00993353	0.963768
0.0148976	0.985507
0.0198623	0.996377
0.0247579	1.01087
0.0310297	1.06884
