Adsorption isotherm of Water on MIL-53(Ga)
DOI: 10.1021/Jp412433a
Adsorbate Water: InChIKey XLYOFNOQVPJJNP-UHFFFAOYSA-N
Temperature: 323 K
Tabular data in the source: 0
pressure (bar)	uptake (mol/mol)
0.000216802	0.0297872
0.000840108	0.0340426
0.00102981	0.0425532
0.00121951	0.0425532
0.00143631	0.0638298
0.00162602	0.114894
0.00184282	0.148936
0.00200542	0.170213
0.00222222	0.187234
0.00243902	0.208511
0.00281843	0.302128
0.00300813	0.357447
0.00319783	0.408511
0.00344173	0.506383
0.00379404	0.642553
0.00398374	0.668085
0.00420054	0.689362
0.00441734	0.706383
0.00460705	0.723404
0.00482385	0.73617
0.00506775	0.748936
0.00525745	0.761702
0.00542005	0.770213
0.00560976	0.782979
0.00582656	0.791489
0.00601626	0.804255
0.00620596	0.808511
0.00642276	0.817021
0.00661247	0.825532
0.00682927	0.829787
0.00699187	0.838298
0.00723577	0.842553
0.00742547	0.846809
0.00761518	0.851064
0.00780488	0.855319
0.00799458	0.86383
0.00821138	0.86383
0.00842818	0.87234
0.00864499	0.876596
0.00880759	0.880851
0.00899729	0.885106
0.00921409	0.889362
0.00940379	0.889362
0.0095935	0.897872
