Adsorption isotherm of Water on Ga-MIL-53
DOI: 10.1021/Jp412433a
Adsorbate Water: InChIKey XLYOFNOQVPJJNP-UHFFFAOYSA-N
Temperature: 348 K
Tabular data in the source: 0
pressure (bar)	uptake (mol/mol)
0.00255172	0
0.007997	0.0434783
0.011918	0.188406
0.0176919	0.467391
0.0206527	0.536232
0.0248556	0.594203
0.0277489	0.641304
0.0322966	0.699275
