Adsorption isotherm of Water on MIL-53(Ga)
DOI: 10.1021/Jp412433a
Adsorbate Water: InChIKey XLYOFNOQVPJJNP-UHFFFAOYSA-N
Temperature: 298 K
Tabular data in the source: 0
pressure (bar)	uptake (mol/mol)
1.80481e-05	0.00909091
2.24873e-05	0.0242424
4.95852e-05	0.0333333
6.31599e-05	0.0333333
9.47827e-05	0.0424242
0.000185263	0.0454545
0.000271236	0.0454545
0.000339092	0.0484848
0.00044277	0.118182
0.00049239	0.145455
0.000505947	0.148485
0.000555618	0.166667
0.000591663	0.193939
0.000663941	0.215152
0.000700089	0.224242
0.000744995	0.284848
0.000748834	0.406061
0.000762152	0.451515
0.000770996	0.487879
0.000789027	0.5
0.000829408	0.560606
0.000861014	0.572727
0.000946593	0.642424
0.00115892	0.70303
0.00129002	0.724242
0.00157027	0.775758
