Adsorption isotherm of Water on MIL-53(Ga)
DOI: 10.1021/Jp412433a
Adsorbate Water: InChIKey XLYOFNOQVPJJNP-UHFFFAOYSA-N
Temperature: 273 K
Tabular data in the source: 0
pressure (bar)	uptake (mol/mol)
6.27186e-05	0.0905797
0.000118941	0.275362
0.000149925	0.73913
0.000152674	0.786232
0.000155922	0.826087
0.000355322	0.847826
0.00055997	0.880435
0.000834333	0.902174
0.00152224	0.927536
0.00248701	0.938406
0.0037956	0.963768
0.00476037	0.974638
0.00517391	0.978261
