Adsorption isotherm of Water on MIL-53(Ga)
DOI: 10.1021/Jp412433a
Adsorbate Water: InChIKey XLYOFNOQVPJJNP-UHFFFAOYSA-N
Temperature: 298 K
Tabular data in the source: 0
pressure (bar)	uptake (mol/mol)
0.000105635	0.0385226
0.000205936	0.0344807
0.00031169	0.051727
0.000411422	0.149812
0.000511367	0.209599
0.000611407	0.252365
0.000710855	0.401512
0.0008154	0.635777
0.000904156	0.704051
0.00100984	0.734063
0.0011044	0.759797
0.00121004	0.798319
0.0013102	0.819809
0.00140483	0.832776
0.00150504	0.845755
0.00160522	0.86299
0.00171102	0.871726
0.00181123	0.884705
0.00190589	0.893417
0.00201169	0.902153
