Adsorption isotherm of Water on MIL-53(Ga)
DOI: 10.1021/Jp412433a
Adsorbate Water: InChIKey XLYOFNOQVPJJNP-UHFFFAOYSA-N
Temperature: 298 K
Tabular data in the source: 0
pressure (bar)	uptake (mol/mol)
-5.58659e-06	0.00426721
5.58659e-06	0.0212647
1.67598e-05	0.0425175
6.14525e-05	0.0466778
0.000100559	0.0636158
0.000122905	0.046547
0.000234637	0.0548199
0.000368715	0.0928325
0.000379888	0.101319
0.000441341	0.139487
0.00047486	0.169202
0.000536313	0.224391
0.000547486	0.198835
0.000586592	0.241305
0.000636872	0.270985
0.000659218	0.287959
0.000664804	0.364543
0.000692737	0.381505
0.000703911	0.475098
0.000715084	0.560181
0.00073743	0.602686
0.000837989	0.653536
0.000977654	0.712814
0.00105028	0.699893
0.00118436	0.771948
0.00137989	0.805575
0.00146369	0.801141
0.00159218	0.822144
0.00200559	0.851052
