Adsorption isotherm of Nitrogen on [Cu2(m3-ade)2(m2-OOC(CH2)2CH3)2]n Metal/butanoic/TMB Acid 1/10
DOI: 10.1039/C1cc15589j
Adsorbate Nitrogen: InChIKey IJGRMHOSHXDMSA-UHFFFAOYSA-N
Temperature: 77 K
Tabular data in the source: 0
pressure (bar)	uptake (cm3(STP)/g)
0	71.0938
0.00195312	75.7812
0.00390625	79.2969
0.0078125	82.8125
0.0195312	85.9375
0.0273438	89.0625
0.0527344	90.625
0.0820312	92.5781
0.107422	93.3594
0.128906	94.9219
0.15625	95.7031
0.183594	96.4844
0.201172	97.6562
0.226562	98.4375
0.25	99.6094
0.277344	101.172
0.306641	101.953
0.330078	102.344
0.378906	103.906
0.429688	104.688
0.472656	106.25
0.523438	107.422
0.572266	108.984
0.625	110.547
0.664062	111.719
0.726562	113.281
0.818359	117.188
0.871094	119.922
0.929688	123.438
