Adsorption isotherm of Nitrogen on [Cu2(m3-ade)2(m2-OOC(CH2)2CH3)2]n Metal/butanoic Acid/TMB 1/20/2
DOI: 10.1039/C1cc15589j
Adsorbate Nitrogen: InChIKey IJGRMHOSHXDMSA-UHFFFAOYSA-N
Temperature: 77 K
Tabular data in the source: 0
pressure (bar)	uptake (cm3(STP)/g)
0.00208829	39.6053
0.00449596	47.0325
0.00453281	43.3196
0.00940343	52.6048
0.0242487	56.9457
0.0540006	59.4394
0.0763145	61.3096
0.106079	62.5656
0.133368	63.2013
0.158175	63.8355
0.180495	65.0869
0.202822	65.7196
0.230104	66.9741
0.252431	67.6067
0.277226	69.4785
0.30699	70.7345
0.326835	71.3656
0.426065	73.9023
0.52529	77.0577
0.629464	81.4539
0.716276	85.2205
0.827845	94.5717
0.857573	99.5406
0.884813	105.127
0.929398	113.199
0.936817	115.679
0.949187	119.399
0.968952	128.075
0.997691	232.672
