Adsorption isotherm of Nitrogen on [Cu2(m3-ade)2(m2-OOC(CH2)2CH3)2]n Metal/butanoic/TMB Acid 1/20
DOI: 10.1039/C1cc15589j
Adsorbate Nitrogen: InChIKey IJGRMHOSHXDMSA-UHFFFAOYSA-N
Temperature: 77 K
Tabular data in the source: 0
pressure (bar)	uptake (cm3(STP)/g)
0	0
0.00390625	92.1875
0.0117188	96.4844
0.0253906	99.6094
0.0566406	101.562
0.0820312	103.516
0.107422	104.688
0.132812	105.859
0.158203	107.422
0.175781	107.422
0.199219	109.766
0.230469	110.938
0.251953	111.328
0.28125	112.109
0.306641	113.281
0.328125	114.062
0.375	115.625
0.425781	117.188
0.527344	119.531
0.626953	122.656
0.720703	125.781
0.765625	127.344
0.820312	128.906
0.863281	132.422
0.898438	135.547
0.925781	137.5
