Adsorption isotherm of Hydrogen on [Cu2(m3-ade)2(m2-OOC(CH2)2CH3)2]n Metal/butanoic/TMB Acid 1/1
DOI: 10.1039/C1cc15589j
Adsorbate Hydrogen: InChIKey UFHFLCQGNIYNRP-UHFFFAOYSA-N
Temperature: 77 K
Tabular data in the source: 0
pressure (bar)	uptake (cm3(STP)/g)
0.0124581	8.61996
0.0160428	10.1062
0.0178159	11.5924
0.0213968	13.2272
0.0231623	15.0106
0.0393551	19.3206
0.0501515	22.1444
0.0519247	23.6306
0.0609596	24.5223
0.0789986	27.4947
0.0952491	29.5754
0.111519	30.913
0.144054	33.7367
0.158516	34.9257
0.192887	36.8577
0.209168	37.7495
0.24355	39.2357
0.261658	39.5329
0.290597	41.3163
0.308702	41.7622
0.339472	42.8025
0.359388	43.2484
0.390158	44.2887
0.410078	44.586
0.439037	45.6263
0.458956	45.9236
0.48973	46.8153
0.507843	46.9639
0.536813	47.5584
0.560356	47.8556
0.589326	48.4501
0.611057	48.7473
0.63822	49.1932
0.659943	49.7877
0.68711	50.0849
0.708841	50.3822
0.739623	50.9766
0.75955	50.9766
0.788517	51.7197
0.808444	51.7197
0.84103	52.6115
0.859157	52.1656
0.886304	53.2059
0.904412	53.5032
0.935198	53.949
0.960549	54.3949
0.998581	54.8408
