Adsorption isotherm of Nitrogen on [Cu2(m3-ade)2(m2-OOC(CH2)2CH3)2]n Metal/butanoic/TMB Acid 1/5
DOI: 10.1039/C1cc15589j
Adsorbate Nitrogen: InChIKey IJGRMHOSHXDMSA-UHFFFAOYSA-N
Temperature: 77 K
Tabular data in the source: 0
pressure (bar)	uptake (cm3(STP)/g)
0.00195312	0.00195312
0.00390625	53.9062
0.0175781	55.4688
0.0292969	58.5938
0.0566406	59.375
0.0820312	60.1562
0.105469	61.3281
0.132812	62.5
0.160156	63.2812
0.177734	63.2812
0.205078	64.4531
0.226562	65.2344
0.246094	66.4062
0.271484	66.4062
0.304688	67.9688
0.326172	68.3594
0.429688	70.3125
0.523438	72.2656
0.621094	73.4375
0.728516	76.1719
0.828125	79.6875
0.925781	83.2031
