Adsorption isotherm of Hydrogen on [Cu2(m3-ade)2(m2-OOC(CH2)2CH3)2]n Metal/butanoic/TMB Acid 1/5
DOI: 10.1039/C1cc15589j
Adsorbate Hydrogen: InChIKey UFHFLCQGNIYNRP-UHFFFAOYSA-N
Temperature: 77 K
Tabular data in the source: 0
pressure (bar)	uptake (cm3(STP)/g)
0.0142312	10.1062
0.014262	8.9172
0.021393	13.3758
0.0214314	11.8896
0.0267739	15.4565
0.0393435	19.7665
0.0483438	21.9958
0.0519478	22.7389
0.0645712	24.9682
0.0826064	28.0892
0.0934413	29.4268
0.111503	31.5074
0.142239	33.8854
0.158497	35.6688
0.189248	37.4522
0.209141	38.7898
0.239896	40.4246
0.261608	41.465
0.288751	42.6539
0.314094	43.397
0.33761	44.7346
0.361146	45.3291
0.3901	46.518
0.410016	46.9639
0.437156	48.3015
0.460706	48.3015
0.489665	49.3418
0.511397	49.6391
0.540347	50.9766
0.562071	51.5711
0.589226	52.3142
0.609142	52.7601
0.638104	53.6518
0.659843	53.6518
0.688794	54.9894
0.710533	54.9894
0.739488	56.1783
0.759431	55.5839
0.786567	57.0701
0.810125	56.7728
0.835464	57.6645
0.86083	57.5159
0.88797	58.8535
0.911505	59.448
0.938667	59.8938
0.958583	60.3397
0.996608	61.0828
