Adsorption isotherm of Nitrogen on [Cu2(m3-ade)2(m2-OOC(CH2)2CH3)2]n Metal/butanoic/TMB Acid 1/1
DOI: 10.1039/C1cc15589j
Adsorbate Nitrogen: InChIKey IJGRMHOSHXDMSA-UHFFFAOYSA-N
Temperature: 77 K
Tabular data in the source: 0
pressure (bar)	uptake (cm3(STP)/g)
0	41.7969
0.00976562	48.4375
0.0351562	50.3906
0.0644531	50.7812
0.0820312	51.1719
0.103516	51.1719
0.117188	51.1719
0.138672	51.5625
0.164062	51.5625
0.181641	52.3438
0.201172	51.9531
0.251953	52.7344
0.300781	53.125
0.369141	52.7344
0.400391	53.125
0.449219	53.5156
0.517578	53.125
0.568359	54.2969
0.601562	53.9062
0.650391	53.9062
0.720703	53.9062
0.751953	54.2969
0.798828	54.6875
0.837891	55.0781
0.853516	55.0781
0.875	55.4688
0.917969	56.25
0.925781	57.0312
0.949219	57.4219
