Adsorption isotherm of Sodium Chloride, Bovine Serum Albumin, Water on Cibacron Blue Separopore
DOI: 10.1021/acs.iecr.7b01556
Article source: Figure 4
Adsorbate Sodium Chloride: InChIKey FAPWRFPIFSIZLT-UHFFFAOYSA-M
Adsorbate Bovine Serum Albumin: InChIKey NIST-ISODB-52CDAC8E72899271CC9F
Adsorbate Water: InChIKey XLYOFNOQVPJJNP-UHFFFAOYSA-N
Kind: experiment
Temperature: 298 K
Tabular data in the source: 0
pressure (bar)	Sodium Chloride fraction	Sodium Chloride uptake (mmol/L (wet volume))	Bovine Serum Albumin fraction	Bovine Serum Albumin uptake (mmol/L (wet volume))	Water fraction	Water uptake (mmol/L (wet volume))	total uptake (mmol/L (wet volume))
1.01325			0.000115	0.00576			
1.01325			0.001687	0.15116			
1.01325			0.003773	0.24863			
1.01325			0.006484	0.2813			
1.01325			0.009005	0.32906			
1.01325			0.011119	0.42032			
1.01325			0.018086	0.4776			
1.01325			0.025649	0.46919			
1.01325			0.029794	0.8247			
1.01325			0.038579	0.7009			
