Adsorption isotherm of Sodium Chloride, Bovine Serum Albumin, Water on Beta-Hydroxybutyrate
DOI: 10.1021/acs.iecr.7b01556
Article source: Figure 4
Adsorbate Sodium Chloride: InChIKey FAPWRFPIFSIZLT-UHFFFAOYSA-M
Adsorbate Bovine Serum Albumin: InChIKey NIST-ISODB-52CDAC8E72899271CC9F
Adsorbate Water: InChIKey XLYOFNOQVPJJNP-UHFFFAOYSA-N
Kind: experiment
Temperature: 298 K
Tabular data in the source: 0
pressure (bar)	Sodium Chloride fraction	Sodium Chloride uptake (mmol/L (wet volume))	Bovine Serum Albumin fraction	Bovine Serum Albumin uptake (mmol/L (wet volume))	Water fraction	Water uptake (mmol/L (wet volume))	total uptake (mmol/L (wet volume))
1.01325			7.6e-05	0.00552			
1.01325			0.001613	0.21673			
1.01325			0.003663	0.38318			
1.01325			0.006907	0.44933			
1.01325			0.009811	0.54593			
1.01325			0.0135	0.52972			
1.01325			0.016642	0.60841			
1.01325			0.020126	0.62264			
1.01325			0.023917	0.62612			
1.01325			0.026205	0.75854			
1.01325			0.029655	0.79246			
1.01325			0.032695	0.86936			
1.01325			0.03635	0.86927			
