Adsorption isotherm of Sodium Chloride, Bovine Serum Albumin, Water on Cibacron Blue Separopore
DOI: 10.1021/acs.iecr.7b01556
Article source: Figure 4
Adsorbate Sodium Chloride: InChIKey FAPWRFPIFSIZLT-UHFFFAOYSA-M
Adsorbate Bovine Serum Albumin: InChIKey NIST-ISODB-52CDAC8E72899271CC9F
Adsorbate Water: InChIKey XLYOFNOQVPJJNP-UHFFFAOYSA-N
Kind: experiment
Temperature: 298 K
Tabular data in the source: 0
pressure (bar)	Sodium Chloride fraction	Sodium Chloride uptake (mmol/L (wet volume))	Bovine Serum Albumin fraction	Bovine Serum Albumin uptake (mmol/L (wet volume))	Water fraction	Water uptake (mmol/L (wet volume))	total uptake (mmol/L (wet volume))
1.01325			0.000115	0.00399			
1.01325			0.002717	0.11207			
1.01325			0.005481	0.23079			
1.01325			0.008653	0.28916			
1.01325			0.012041	0.3218			
1.01325			0.015104	0.39526			
1.01325			0.018492	0.43233			
1.01325			0.021935	0.4623			
1.01325			0.025269	0.51268			
1.01325			0.028549	0.56573			
1.01325			0.032263	0.55665			
1.01325			0.036004	0.5733			
1.01325			0.039827	0.55623			
