Adsorption isotherm of Sodium Chloride, Bovine Serum Albumin, Water on Cibacron Blue Separopore
DOI: 10.1021/acs.iecr.7b01556
Article source: Figure 4
Adsorbate Sodium Chloride: InChIKey FAPWRFPIFSIZLT-UHFFFAOYSA-M
Adsorbate Bovine Serum Albumin: InChIKey NIST-ISODB-52CDAC8E72899271CC9F
Adsorbate Water: InChIKey XLYOFNOQVPJJNP-UHFFFAOYSA-N
Kind: experiment
Temperature: 298 K
Tabular data in the source: 0
pressure (bar)	Sodium Chloride fraction	Sodium Chloride uptake (mmol/L (wet volume))	Bovine Serum Albumin fraction	Bovine Serum Albumin uptake (mmol/L (wet volume))	Water fraction	Water uptake (mmol/L (wet volume))	total uptake (mmol/L (wet volume))
1.01325			0.00013	0.00251			
1.01325			0.000862	0.30597			
1.01325			0.003516	0.42147			
1.01325			0.006478	0.51145			
1.01325			0.009991	0.53027			
1.01325			0.013229	0.584			
1.01325			0.015883	0.69009			
1.01325			0.019086	0.75859			
1.01325			0.022941	0.75459			
1.01325			0.026454	0.75999			
1.01325			0.030137	0.78418			
1.01325			0.034131	0.74661			
1.01325			0.037471	0.79631			
