Adsorption isotherm of Sodium Chloride, Bovine Serum Albumin, Water on Beta-Hydroxybutyrate
DOI: 10.1021/acs.iecr.7b01556
Article source: Figure 4
Adsorbate Sodium Chloride: InChIKey FAPWRFPIFSIZLT-UHFFFAOYSA-M
Adsorbate Bovine Serum Albumin: InChIKey NIST-ISODB-52CDAC8E72899271CC9F
Adsorbate Water: InChIKey XLYOFNOQVPJJNP-UHFFFAOYSA-N
Kind: experiment
Temperature: 298 K
Tabular data in the source: 0
pressure (bar)	Sodium Chloride fraction	Sodium Chloride uptake (mmol/L (wet volume))	Bovine Serum Albumin fraction	Bovine Serum Albumin uptake (mmol/L (wet volume))	Water fraction	Water uptake (mmol/L (wet volume))	total uptake (mmol/L (wet volume))
1.01325			0.000195	0.00524			
1.01325			0.002852	0.08688			
1.01325			0.006022	0.15956			
1.01325			0.009295	0.21545			
1.01325			0.012706	0.24001			
1.01325			0.016013	0.278			
1.01325			0.018944	0.35516			
1.01325			0.02232	0.39426			
1.01325			0.025867	0.41099			
1.01325			0.028763	0.50493			
1.01325			0.031762	0.57761			
1.01325			0.035515	0.57867			
1.01325			0.0392	0.57525			
