Adsorption isotherm of Sodium Chloride, Bovine Serum Albumin, Water on Cibacron Blue Separopore
DOI: 10.1021/acs.iecr.7b01556
Article source: Figure 4
Adsorbate Sodium Chloride: InChIKey FAPWRFPIFSIZLT-UHFFFAOYSA-M
Adsorbate Bovine Serum Albumin: InChIKey NIST-ISODB-52CDAC8E72899271CC9F
Adsorbate Water: InChIKey XLYOFNOQVPJJNP-UHFFFAOYSA-N
Kind: experiment
Temperature: 298 K
Tabular data in the source: 0
pressure (bar)	Sodium Chloride fraction	Sodium Chloride uptake (mmol/L (wet volume))	Bovine Serum Albumin fraction	Bovine Serum Albumin uptake (mmol/L (wet volume))	Water fraction	Water uptake (mmol/L (wet volume))	total uptake (mmol/L (wet volume))
1.01325			9.6e-05	0.00251			
1.01325			0.000552	0.34625			
1.01325			0.002691	0.52217			
1.01325			0.005585	0.61215			
1.01325			0.00817	0.73435			
1.01325			0.011477	0.77868			
1.01325			0.014028	0.90089			
1.01325			0.018844	0.79887			
1.01325			0.021842	0.86603			
1.01325			0.02532	0.89962			
1.01325			0.028008	1.01243			
1.01325			0.032208	0.9574			
1.01325			0.036028	0.96817			
