Adsorption isotherm of Sodium Chloride, Bovine Serum Albumin, Water on Beta-Hydroxybutyrate
DOI: 10.1021/acs.iecr.7b01556
Article source: Figure 4
Adsorbate Sodium Chloride: InChIKey FAPWRFPIFSIZLT-UHFFFAOYSA-M
Adsorbate Bovine Serum Albumin: InChIKey NIST-ISODB-52CDAC8E72899271CC9F
Adsorbate Water: InChIKey XLYOFNOQVPJJNP-UHFFFAOYSA-N
Kind: experiment
Temperature: 298 K
Tabular data in the source: 0
pressure (bar)	Sodium Chloride fraction	Sodium Chloride uptake (mmol/L (wet volume))	Bovine Serum Albumin fraction	Bovine Serum Albumin uptake (mmol/L (wet volume))	Water fraction	Water uptake (mmol/L (wet volume))	total uptake (mmol/L (wet volume))
1.01325			0.000163	0.00639			
1.01325			0.000868	0.30761			
1.01325			0.002765	0.52355			
1.01325			0.005557	0.61157			
1.01325			0.008404	0.70955			
1.01325			0.011332	0.78052			
1.01325			0.01407	0.87423			
1.01325			0.01754	0.89403			
1.01325			0.021227	0.92945			
1.01325			0.024724	0.94073			
1.01325			0.028302	0.96052			
1.01325			0.031555	1.02012			
1.01325			0.034885	1.03125			
