Adsorption isotherm of Sodium Chloride, Bovine Serum Albumin, Water on Cibacron Blue Separopore
DOI: 10.1021/acs.iecr.7b01556
Article source: Figure 4
Adsorbate Sodium Chloride: InChIKey FAPWRFPIFSIZLT-UHFFFAOYSA-M
Adsorbate Bovine Serum Albumin: InChIKey NIST-ISODB-52CDAC8E72899271CC9F
Adsorbate Water: InChIKey XLYOFNOQVPJJNP-UHFFFAOYSA-N
Kind: experiment
Temperature: 298 K
Tabular data in the source: 0
pressure (bar)	Sodium Chloride fraction	Sodium Chloride uptake (mmol/L (wet volume))	Bovine Serum Albumin fraction	Bovine Serum Albumin uptake (mmol/L (wet volume))	Water fraction	Water uptake (mmol/L (wet volume))	total uptake (mmol/L (wet volume))
1.01325			6.1e-05	0.00399			
1.01325			0.002012	0.18308			
1.01325			0.004396	0.33109			
1.01325			0.00773	0.3797			
1.01325			0.01139	0.40079			
1.01325			0.015185	0.38904			
1.01325			0.018004	0.47583			
1.01325			0.020741	0.59543			
1.01325			0.024645	0.58457			
1.01325			0.027844	0.62786			
1.01325			0.031314	0.66316			
1.01325			0.035163	0.6523			
1.01325			0.038931	0.66362			
