Adsorption isotherm of Sodium Chloride, Bovine Serum Albumin, Water on Beta-Hydroxybutyrate
DOI: 10.1021/acs.iecr.7b01556
Article source: Figure 4
Adsorbate Sodium Chloride: InChIKey FAPWRFPIFSIZLT-UHFFFAOYSA-M
Adsorbate Bovine Serum Albumin: InChIKey NIST-ISODB-52CDAC8E72899271CC9F
Adsorbate Water: InChIKey XLYOFNOQVPJJNP-UHFFFAOYSA-N
Kind: experiment
Temperature: 298 K
Tabular data in the source: 0
pressure (bar)	Sodium Chloride fraction	Sodium Chloride uptake (mmol/L (wet volume))	Bovine Serum Albumin fraction	Bovine Serum Albumin uptake (mmol/L (wet volume))	Water fraction	Water uptake (mmol/L (wet volume))	total uptake (mmol/L (wet volume))
1.01325			0.000161	0.00189			
1.01325			0.001039	0.21223			
1.01325			0.002397	0.38117			
1.01325			0.004919	0.43819			
1.01325			0.007476	0.47619			
1.01325			0.009211	0.61044			
1.01325			0.015929	0.68194			
1.01325			0.022441	0.78253			
1.01325			0.02998	0.77234			
1.01325			0.036972	0.8181			
