Adsorption isotherm of Sodium Chloride, Bovine Serum Albumin, Water on Beta-Hydroxybutyrate
DOI: 10.1021/acs.iecr.7b01556
Article source: Figure 4
Adsorbate Sodium Chloride: InChIKey FAPWRFPIFSIZLT-UHFFFAOYSA-M
Adsorbate Bovine Serum Albumin: InChIKey NIST-ISODB-52CDAC8E72899271CC9F
Adsorbate Water: InChIKey XLYOFNOQVPJJNP-UHFFFAOYSA-N
Kind: experiment
Temperature: 298 K
Tabular data in the source: 0
pressure (bar)	Sodium Chloride fraction	Sodium Chloride uptake (mmol/L (wet volume))	Bovine Serum Albumin fraction	Bovine Serum Albumin uptake (mmol/L (wet volume))	Water fraction	Water uptake (mmol/L (wet volume))	total uptake (mmol/L (wet volume))
1.01325			0.000169	0.00355			
1.01325			0.003199	0.07099			
1.01325			0.005984	0.16153			
1.01325			0.009367	0.20944			
1.01325			0.012832	0.22359			
1.01325			0.015482	0.32745			
1.01325			0.019436	0.30785			
1.01325			0.022438	0.37973			
1.01325			0.024869	0.52801			
1.01325			0.028252	0.57147			
1.01325			0.031418	0.61937			
1.01325			0.035237	0.60599			
1.01325			0.038837	0.62191			
