Adsorption isotherm of Sodium Chloride, Bovine Serum Albumin, Water on Cibacron Blue Separopore
DOI: 10.1021/acs.iecr.7b01556
Article source: Figure 4
Adsorbate Sodium Chloride: InChIKey FAPWRFPIFSIZLT-UHFFFAOYSA-M
Adsorbate Bovine Serum Albumin: InChIKey NIST-ISODB-52CDAC8E72899271CC9F
Adsorbate Water: InChIKey XLYOFNOQVPJJNP-UHFFFAOYSA-N
Kind: experiment
Temperature: 298 K
Tabular data in the source: 0
pressure (bar)	Sodium Chloride fraction	Sodium Chloride uptake (mmol/L (wet volume))	Bovine Serum Albumin fraction	Bovine Serum Albumin uptake (mmol/L (wet volume))	Water fraction	Water uptake (mmol/L (wet volume))	total uptake (mmol/L (wet volume))
1.01325			0.000211	0.00559			
1.01325			0.001658	0.22976			
1.01325			0.004121	0.36934			
1.01325			0.006865	0.47594			
1.01325			0.010237	0.50979			
1.01325			0.013436	0.57325			
1.01325			0.018884	0.39312			
1.01325			0.02059	0.60967			
1.01325			0.024805	0.56149			
1.01325			0.027831	0.62918			
1.01325			0.031268	0.66811			
1.01325			0.035439	0.62584			
1.01325			0.039049	0.64109			
