Adsorption isotherm of Sodium Chloride, Bovine Serum Albumin, Water on Beta-Hydroxybutyrate
DOI: 10.1021/acs.iecr.7b01556
Article source: Figure 4
Adsorbate Sodium Chloride: InChIKey FAPWRFPIFSIZLT-UHFFFAOYSA-M
Adsorbate Bovine Serum Albumin: InChIKey NIST-ISODB-52CDAC8E72899271CC9F
Adsorbate Water: InChIKey XLYOFNOQVPJJNP-UHFFFAOYSA-N
Kind: experiment
Temperature: 298 K
Tabular data in the source: 0
pressure (bar)	Sodium Chloride fraction	Sodium Chloride uptake (mmol/L (wet volume))	Bovine Serum Albumin fraction	Bovine Serum Albumin uptake (mmol/L (wet volume))	Water fraction	Water uptake (mmol/L (wet volume))	total uptake (mmol/L (wet volume))
1.01325			5.4e-05	0.00355			
1.01325			0.000895	0.23514			
1.01325			0.001464	0.50369			
1.01325			0.002955	0.71111			
1.01325			0.004853	0.84463			
1.01325			0.006262	1.02221			
1.01325			0.009244	1.05197			
1.01325			0.015317	1.13849			
1.01325			0.018299	1.21941			
1.01325			0.021633	1.26337			
1.01325			0.024209	1.38692			
1.01325			0.02814	1.35982			
1.01325			0.031339	1.42794			
