Adsorption isotherm of Carbon Dioxide on HY-5
DOI: 10.1016/j.micromeso.2004.07.035
Adsorbate Carbon Dioxide: InChIKey CURLTUGMZLYLDI-UHFFFAOYSA-N
Temperature: 295 K
Tabular data in the source: 0
pressure (bar)	uptake (mmol/g)
0.336333	0.37922
0.486375	0.540942
0.609911	0.678092
0.712969	0.776414
0.810173	0.86415
0.874992	0.920274
0.930918	0.976488
0.986944	1.01851
1.03114	1.0571
1.07839	1.08146
