Adsorption isotherm of Carbon Dioxide on HiSiv 3000
DOI: 10.1016/j.micromeso.2004.07.035
Adsorbate Carbon Dioxide: InChIKey CURLTUGMZLYLDI-UHFFFAOYSA-N
Temperature: 295 K
Tabular data in the source: 0
pressure (bar)	uptake (mmol/g)
0.081864	0.37338
0.163728	0.567203
0.308564	0.80281
0.516373	1.05258
0.743073	1.27482
1.10831	1.52546
1.44207	1.65161
1.87657	1.95788
