Adsorption isotherm of Carbon Dioxide on H-ZSM-5-30
DOI: 10.1016/j.micromeso.2004.07.035
Adsorbate Carbon Dioxide: InChIKey CURLTUGMZLYLDI-UHFFFAOYSA-N
Temperature: 295 K
Tabular data in the source: 0
pressure (bar)	uptake (mmol/g)
0.317255	0.563925
0.420314	0.662248
0.552792	0.792211
0.658815	0.890503
0.750165	0.967652
0.856337	1.04465
0.906483	1.07963
0.956679	1.10752
1.01569	1.14596
