Adsorption isotherm of Carbon Dioxide on Zeolite 13X
DOI: 10.1016/j.micromeso.2004.07.035
Adsorbate Carbon Dioxide: InChIKey CURLTUGMZLYLDI-UHFFFAOYSA-N
Temperature: 295 K
Tabular data in the source: 0
pressure (bar)	uptake (mmol/g)
0.0251889	1.42279
0.0629723	2.27935
0.195214	3.28837
0.403023	3.85582
0.736776	4.25821
1.04534	4.56379
1.31612	4.74484
1.5932	4.85687
1.98363	5.01096
