Adsorption isotherm of Carbon Dioxide on HY-5
DOI: 10.1016/j.micromeso.2004.07.035
Adsorbate Carbon Dioxide: InChIKey CURLTUGMZLYLDI-UHFFFAOYSA-N
Temperature: 295 K
Tabular data in the source: 0
pressure (bar)	uptake (mmol/g)
0.100756	0.2768
0.188917	0.456845
0.421914	0.692939
0.711587	0.95697
1.10202	1.26299
1.54282	1.43118
