Adsorption isotherm of Carbon Dioxide on Zeolite 13X
DOI: 10.1016/j.micromeso.2004.07.035
Adsorbate Carbon Dioxide: InChIKey CURLTUGMZLYLDI-UHFFFAOYSA-N
Temperature: 295 K
Tabular data in the source: 0
pressure (bar)	uptake (mmol/g)
0.128785	0.810648
0.441098	1.08075
0.600505	1.17495
0.760061	1.24787
0.857637	1.28238
0.943456	1.30281
0.99674	1.31292
1.0293	1.31969
1.05595	1.32297
1.08846	1.33684
