Adsorption isotherm of Carbon Dioxide on H-ZSM-5-30
DOI: 10.1016/j.micromeso.2004.07.035
Adsorbate Carbon Dioxide: InChIKey CURLTUGMZLYLDI-UHFFFAOYSA-N
Temperature: 295 K
Tabular data in the source: 0
pressure (bar)	uptake (mmol/g)
0.261379	0.500614
0.482094	0.729048
0.614622	0.851914
0.703008	0.929093
0.785564	0.992136
0.871134	1.04805
0.933038	1.09711
0.983234	1.125
1.02456	1.14942
1.08365	1.17722
