Adsorption isotherm of Carbon Dioxide on HiSiv 3000
DOI: 10.1016/j.micromeso.2004.07.035
Adsorbate Carbon Dioxide: InChIKey CURLTUGMZLYLDI-UHFFFAOYSA-N
Temperature: 295 K
Tabular data in the source: 0
pressure (bar)	uptake (mmol/g)
0.312047	0.461075
0.494448	0.657957
0.641724	0.79132
0.741917	0.875478
0.827413	0.942041
0.895147	1.00523
0.951222	1.04016
1.00433	1.07511
1.03684	1.08898
1.07802	1.13469
