Adsorption isotherm of Carbon Dioxide on HY-5
DOI: 10.1016/j.micromeso.2004.07.035
Adsorbate Carbon Dioxide: InChIKey CURLTUGMZLYLDI-UHFFFAOYSA-N
Temperature: 295 K
Tabular data in the source: 0
pressure (bar)	uptake (mmol/g)
0.0629723	0.20753
0.138539	0.359881
0.277078	0.567829
0.440806	0.720667
0.680101	0.942984
0.988665	1.15187
1.33501	1.38859
1.85139	1.52957
