Adsorption isotherm of Carbon Dioxide on Zeolite Na-Y
DOI: 10.1016/j.micromeso.2004.07.035
Adsorbate Carbon Dioxide: InChIKey CURLTUGMZLYLDI-UHFFFAOYSA-N
Temperature: 295 K
Tabular data in the source: 0
pressure (bar)	uptake (mmol/g)
0.0188917	0.649276
0.0314861	1.0499
0.0629723	1.5335
0.125945	2.01727
0.239295	2.68088
0.434509	3.28969
0.680101	3.70541
1.00126	4.09393
