Adsorption isotherm of Carbon Dioxide on Zeolite 13X
DOI: 10.1016/j.micromeso.2004.07.035
Adsorbate Carbon Dioxide: InChIKey CURLTUGMZLYLDI-UHFFFAOYSA-N
Temperature: 295 K
Tabular data in the source: 0
pressure (bar)	uptake (mmol/g)
0.0756992	0.772148
0.305531	0.968555
0.494234	1.11215
0.671402	1.20973
0.804427	1.26162
0.899089	1.28906
0.97305	1.30961
