Adsorption isotherm of Carbon Dioxide on Zeolite Na-Y
DOI: 10.1016/j.micromeso.2004.07.035
Adsorbate Carbon Dioxide: InChIKey CURLTUGMZLYLDI-UHFFFAOYSA-N
Temperature: 295 K
Tabular data in the source: 0
pressure (bar)	uptake (mmol/g)
0.229947	0.75641
0.391921	0.907368
0.447896	0.956485
0.51573	1.00548
0.615923	1.08964
0.698529	1.14559
0.787063	1.20147
0.875672	1.24672
0.931821	1.27099
0.988021	1.28817
