Adsorption isotherm of Carbon Dioxide on Zeolite NaY
DOI: 10.1016/j.micromeso.2004.07.035
Adsorbate Carbon Dioxide: InChIKey CURLTUGMZLYLDI-UHFFFAOYSA-N
Temperature: 295 K
Tabular data in the source: 0
pressure (bar)	uptake (mmol/g)
0.0188917	0.815022
0.0377834	1.21568
0.0881612	1.75463
0.18262	2.45957
0.403023	3.20665
0.74937	3.78867
1.05793	4.06662
1.66877	4.44292
