Adsorption isotherm of Carbon Dioxide on HiSiv 3000
DOI: 10.1016/j.micromeso.2004.07.035
Adsorbate Carbon Dioxide: InChIKey CURLTUGMZLYLDI-UHFFFAOYSA-N
Temperature: 295 K
Tabular data in the source: 0
pressure (bar)	uptake (mmol/g)
0.0629723	0.33184
0.132242	0.51178
0.2267	0.719485
0.403023	0.927641
0.585642	1.13583
0.875315	1.38605
1.12091	1.56697
1.49244	1.7762
