Adsorption isotherm of Carbon Dioxide on HiSiv 3000
DOI: 10.1016/j.micromeso.2004.07.035
Adsorbate Carbon Dioxide: InChIKey CURLTUGMZLYLDI-UHFFFAOYSA-N
Temperature: 295 K
Tabular data in the source: 0
pressure (bar)	uptake (mmol/g)
0.270868	0.415359
0.459124	0.622827
0.597482	0.759828
0.703604	0.843926
0.783096	0.921194
0.859823	0.970103
0.915823	1.01567
0.968884	1.05772
1.00722	1.08572
1.04559	1.11018
