Adsorption isotherm of Carbon Dioxide on Zeolite Na-Y
DOI: 10.1016/j.micromeso.2004.07.035
Adsorbate Carbon Dioxide: InChIKey CURLTUGMZLYLDI-UHFFFAOYSA-N
Temperature: 295 K
Tabular data in the source: 0
pressure (bar)	uptake (mmol/g)
0.129803	0.665156
0.309489	0.826581
0.447896	0.956485
0.545175	1.03357
0.648382	1.11061
0.754554	1.18761
0.8609	1.23977
0.955512	1.2743
1.00282	1.29157
1.06203	1.30162
