Adsorption isotherm of Carbon Dioxide on HY-5
DOI: 10.1016/j.micromeso.2004.07.035
Adsorbate Carbon Dioxide: InChIKey CURLTUGMZLYLDI-UHFFFAOYSA-N
Temperature: 295 K
Tabular data in the source: 0
pressure (bar)	uptake (mmol/g)
0.374671	0.407223
0.55102	0.621907
0.662897	0.730786
0.76309	0.814944
0.863234	0.906199
0.939787	0.979948
1.00458	1.03962
1.05483	1.06041
