Adsorption isotherm of Carbon Dioxide on H-ZSM-5-30
DOI: 10.1016/j.micromeso.2004.07.035
Adsorbate Carbon Dioxide: InChIKey CURLTUGMZLYLDI-UHFFFAOYSA-N
Temperature: 295 K
Tabular data in the source: 0
pressure (bar)	uptake (mmol/g)
0.0566751	0.497551
0.132242	0.732775
0.232997	1.00957
0.415617	1.31445
0.673804	1.63356
0.957179	1.86993
1.23426	2.09245
1.92695	2.41396
