Adsorption isotherm of Carbon Dioxide on H-ZSM-5-30
DOI: 10.1016/j.micromeso.2004.07.035
Adsorbate Carbon Dioxide: InChIKey CURLTUGMZLYLDI-UHFFFAOYSA-N
Temperature: 295 K
Tabular data in the source: 0
pressure (bar)	uptake (mmol/g)
0.0377834	0.386949
0.0944584	0.649693
0.188917	0.898834
0.390428	1.3005
0.541562	1.48089
0.81864	1.74485
1.15239	2.00913
