Adsorption isotherm of Hydrogen on [Zn4(HMe4bpz)2(bpdc)3]
DOI: 10.1021/Cg400587j
Adsorbate Hydrogen: InChIKey UFHFLCQGNIYNRP-UHFFFAOYSA-N
Temperature: 77 K
Tabular data in the source: 0
pressure (bar)	uptake (cm3(STP)/g)
0.0019346	0.674161
0.0158304	4.86912
0.0389901	10.6372
0.0621497	15.1817
0.106153	20.9498
0.15942	25.8439
0.210372	30.5632
0.272903	34.7582
0.335434	38.9532
0.465128	45.77
0.60177	52.5868
0.73378	57.8305
0.833367	60.9767
0.870422	62.5498
0.970009	65.8708
