Adsorption isotherm of Nitrogen on [Zn4(HMe4bpz)2(bpdc)3]
DOI: 10.1021/Cg400587j
Adsorbate Nitrogen: InChIKey IJGRMHOSHXDMSA-UHFFFAOYSA-N
Temperature: 77 K
Tabular data in the source: 0
pressure (bar)	uptake (cm3(STP)/g)
0.00888249	15.0069
0.0366741	16.7548
0.0621497	17.2792
0.0968892	18.1532
0.140893	18.6775
0.203424	19.0271
0.30301	19.2019
0.404913	19.2019
0.520711	19.2019
0.606402	19.2019
0.708304	19.5515
0.810207	19.3767
0.858842	19.7263
0.932953	20.775
0.953797	21.4742
0.97464	22.1733
