Adsorption isotherm of Hydrogen on DhaTab
DOI: 10.1038/ncomms7786
Article source: Figure S24
Adsorbate Hydrogen: InChIKey UFHFLCQGNIYNRP-UHFFFAOYSA-N
Kind: experiment
Temperature: 77 K
Tabular data in the source: 0
pressure (bar)	uptake (cm3(STP)/g)
-0.000594	0.325144
0.002717	2.66756
0.00866	5.00968
0.025814	9.69332
0.050213	14.9168
0.07592	19.0588
0.100308	22.9307
0.122719	26.6226
0.147764	30.3142
0.17412	33.3749
0.199163	36.7961
0.226837	40.0369
0.249243	43.098
0.274282	46.0687
0.299975	48.5888
0.32501	51.0189
0.348731	53.8096
0.373766	56.4199
0.399458	58.7598
0.424493	61.1899
0.449526	63.5299
0.474557	65.5094
0.499592	67.9395
0.525284	70.3695
0.550316	72.5293
0.575348	74.5989
0.603015	76.9386
0.625411	78.7382
0.649788	81.3486
0.674161	83.3282
0.699191	85.2177
0.726197	87.2871
0.751226	89.0864
0.776914	90.9758
0.800637	93.9467
0.826985	96.1063
0.852015	97.9056
0.875727	99.7051
0.900757	101.504
0.924467	103.034
0.947518	104.473
0.973865	106.362
0.994283	107.711
0.993623	107.531
0.974523	106.272
0.950153	104.653
0.925781	102.763
0.898782	101.505
0.874414	100.066
0.850703	98.5365
0.823042	96.8276
0.799326	94.6677
0.774957	93.0485
0.74927	91.3393
0.723582	89.5401
0.699874	88.2812
0.673531	86.8425
0.649156	84.5024
0.622809	82.523
0.599752	80.4531
0.57538	78.5636
0.547714	76.2239
0.523338	73.8839
0.500283	71.9942
0.475247	69.3839
0.448239	67.1343
0.425182	64.9743
0.399489	62.4542
0.374456	60.2944
0.348766	58.1347
0.324388	55.4342
0.298035	52.8241
0.274317	50.3939
0.248621	47.5133
0.22424	44.5425
0.200517	41.3914
0.173502	38.2407
0.149119	34.9996
0.122758	31.3983
0.100347	27.7965
0.074642	23.8347
0.048273	19.152
0.023213	13.6583
