Adsorption isotherm of Nitrogen on DhaTab (72 hrs)
DOI: 10.1038/ncomms7786
Article source: Figure 2G
Adsorbate Nitrogen: InChIKey IJGRMHOSHXDMSA-UHFFFAOYSA-N
Kind: experiment
Temperature: 77 K
Tabular data in the source: 0
pressure (bar)	uptake (cm3(STP)/g)
-0.00103	8.52254
-3e-06	20.9623
0.000683	32.9876
0.000692	47.9162
0.000702	64.0888
0.000371	78.6029
0.000717	87.7257
0.002431	114.679
0.002442	131.681
0.005847	146.192
0.009935	165.679
0.018108	199.677
0.024568	210.04
0.032046	218.743
0.041221	224.541
0.051417	234.072
0.059574	241.945
0.07079	252.718
0.080305	259.761
0.091858	266.387
0.102393	273.844
0.121424	290.003
0.143852	305.744
0.150649	311.13
0.161865	321.489
0.181574	334.744
0.203667	357.121
0.225761	381.986
0.24483	459.932
0.249253	471.955
0.264903	512.582
0.281552	520.864
0.306013	527.895
0.329114	532.854
0.349156	535.743
0.36886	539.46
0.389243	543.592
0.409693	547.226
0.42926	550.198
0.449236	555.159
0.471248	557.134
0.492039	560.602
0.510382	562.081
0.534026	566.542
0.551963	569.515
0.574789	570.493
0.593949	573.963
0.613923	574.943
0.637566	577.912
0.656726	581.879
0.678739	585.346
0.698714	588.317
0.718281	592.283
0.739071	593.761
0.760269	598.722
0.780651	600.697
0.801032	601.678
0.819378	606.64
0.84139	609.61
0.865444	617.554
0.885012	621.521
0.904583	630.464
0.927007	640.897
0.94699	657.304
0.965753	678.688
0.989437	748.835
1.0063	1002.11
1.00549	1002.11
0.984608	850.85
0.963353	752.835
0.937645	706.575
0.914799	672.754
0.894001	656.845
0.869538	647.408
0.847932	642.448
0.825917	635
0.804719	631.532
0.783113	628.065
0.758246	622.609
0.735418	620.138
0.713405	616.173
0.690169	613.204
0.668156	609.737
0.644514	608.759
0.620463	605.293
0.599265	602.323
0.577253	599.354
0.554425	596.882
0.53119	594.909
0.509585	591.441
0.484716	583.995
0.462294	578.04
0.438649	572.086
0.419081	568.119
0.394623	565.649
0.372203	562.68
0.349374	558.467
0.327768	554.253
0.3029	548.797
0.28211	545.827
0.257644	528.926
0.236417	477.687
0.213543	399.577
0.189886	374.714
0.167049	356.318
0.143803	335.435
0.122598	320.025
0.100574	299.638
0.077736	280.248
0.055715	263.345
0.0341	243.456
