Adsorption isotherm of Nitrogen on DhaTab (Trypsin)
DOI: 10.1038/ncomms7786
Article source: Figure 4D
Adsorbate Nitrogen: InChIKey IJGRMHOSHXDMSA-UHFFFAOYSA-N
Kind: experiment
Temperature: 77 K
Tabular data in the source: 0
pressure (bar)	uptake (cm3(STP)/g)
0.003337	16.6904
0.005781	35.2276
0.01067	51.9689
0.02729	68.7016
0.051243	77.0565
0.076663	83.0181
0.101105	91.3726
0.12848	100.323
0.152922	107.481
0.176875	115.238
0.205227	125.384
0.22918	140.915
0.255578	160.033
0.278064	165.997
0.30495	170.761
0.330859	174.33
0.356278	179.096
0.38072	182.666
0.406629	187.431
0.43547	189.204
0.457957	190.982
0.482888	196.346
0.507818	201.112
0.533238	204.681
0.558658	208.849
0.584566	213.016
0.609008	214.792
0.634916	217.763
0.659358	219.54
0.685756	223.108
0.712153	228.471
0.736595	229.051
0.761526	232.621
0.786945	233.201
0.813342	237.367
0.838762	240.339
0.862715	243.312
0.889601	248.674
0.916976	254.634
0.939463	264.186
0.967815	279.116
0.989813	300.629
1.00692	410.057
1.00741	411.85
0.98688	333.523
0.964882	300.648
0.938974	283.324
0.913554	276.166
0.886668	270.205
0.860271	266.637
0.834362	262.469
0.811387	260.094
0.78499	256.525
0.760548	255.945
0.734151	253.572
0.708242	250.003
0.683311	247.63
0.658381	245.854
0.632961	244.676
0.606564	243.5
0.582122	241.125
0.557191	237.556
0.53226	236.976
0.504885	234.604
0.48191	230.434
0.454046	226.269
0.430093	223.296
0.405651	220.324
0.377787	217.354
0.353345	214.98
0.327926	211.411
0.302995	209.037
0.277087	204.869
0.253622	200.102
0.22918	188.16
0.201317	169.641
0.177364	159.492
0.151944	149.942
0.125547	141.589
0.102082	133.832
0.075685	124.881
0.051243	117.125
0.023379	103.988
