Adsorption isotherm of Nitrogen on DhaTab
DOI: 10.1038/ncomms7786
Article source: Figure S26
Adsorbate Nitrogen: InChIKey IJGRMHOSHXDMSA-UHFFFAOYSA-N
Kind: experiment
Temperature: 77 K
Tabular data in the source: 0
pressure (bar)	uptake (cm3(STP)/g)
0.000606	0.316836
0.000606	17.1501
0.002616	31.7004
0.002616	48.2484
0.006302	69.7884
0.02071	81.6253
0.045505	94.4582
0.065609	103.013
0.087054	107.858
0.105818	111.562
0.126592	115.837
0.148707	119.255
0.170821	123.815
0.190255	125.807
0.209689	130.653
0.230463	132.359
0.247217	135.494
0.267991	138.342
0.288095	140.334
0.3082	142.041
0.331654	144.318
0.350418	146.596
0.370522	148.873
0.393307	151.15
0.414082	152.572
0.438207	154.278
0.45496	156.556
0.475734	158.263
0.497849	159.684
0.515272	161.962
0.534706	163.67
0.556821	165.661
0.578266	168.509
0.59971	170.786
0.615123	173.636
0.643269	176.767
0.662703	178.76
0.682137	180.467
0.705592	183.029
0.720335	185.023
0.740439	189.012
0.763224	192.43
0.786009	195.848
0.805443	199.838
0.824877	205.539
0.844981	210.955
0.865755	218.368
0.885859	226.638
0.904623	234.907
0.924727	248.882
0.961585	281.113
0.98638	313.062
1.00917	341.873
1.00246	340.733
0.961585	301.656
0.926738	275.701
0.885859	252.886
0.8423	235.778
0.798741	225.518
0.750491	215.829
0.709613	209.847
0.668734	204.722
0.626516	200.737
0.594349	196.751
0.54945	192.768
0.508571	186.501
0.477745	177.093
0.433516	169.4
0.389957	165.131
0.347738	160.291
0.30954	157.162
0.277373	153.176
0.233814	148.907
0.190255	143.211
0.147366	136.089
0.108498	129.536
0.078342	123.837
0.044835	113.289
