Adsorption isotherm of Nitrogen on DhaTab (12 hrs)
DOI: 10.1038/ncomms7786
Article source: Figure 2G
Adsorbate Nitrogen: InChIKey IJGRMHOSHXDMSA-UHFFFAOYSA-N
Kind: experiment
Temperature: 77 K
Tabular data in the source: 0
pressure (bar)	uptake (cm3(STP)/g)
-0.002324	3.13262
-0.001909	14.5776
-0.001088	24.5294
-0.001081	36.4722
0.000149	47.9166
0.000156	60.357
-0.000652	70.8077
-0.000641	89.2196
0.000608	133.009
0.003065	150.424
0.00552	166.346
0.007978	186.249
0.025942	234.007
0.052864	267.826
0.079374	291.692
0.10262	312.077
0.127497	333.457
0.150744	355.335
0.177663	382.187
0.204987	406.052
0.23028	440.867
0.251138	555.305
0.282968	614.996
0.303759	619.956
0.331071	623.42
0.356347	629.87
0.379583	633.337
0.403634	636.802
0.430131	641.759
0.453775	646.22
0.482312	652.171
0.506772	657.627
0.531639	663.082
0.556913	666.547
0.583003	670.509
0.605831	674.473
0.63294	678.932
0.658009	680.406
0.682468	684.369
0.710189	690.32
0.734648	694.781
0.757477	698.248
0.787236	704.197
0.809248	707.167
0.836156	715.109
0.863471	723.549
0.887117	732.488
0.913619	743.914
0.936456	761.812
0.960931	791.651
0.987878	865.279
0.987908	914.046
0.962585	831.459
0.936069	795.153
0.911598	772.28
0.887134	760.355
0.859818	749.925
0.834949	741.484
0.809264	732.048
0.783988	725.597
0.758712	719.644
0.733846	715.682
0.708979	710.724
0.682889	707.26
0.660875	702.299
0.634787	699.333
0.607882	694.874
0.582199	689.917
0.55774	686.451
0.533688	681.493
0.506784	678.527
0.480282	666.106
0.4546	661.646
0.429732	655.693
0.405273	650.734
0.379997	644.782
0.355537	639.326
0.327001	634.37
0.302134	628.417
0.275635	621.968
0.252368	567.246
0.228248	450.572
0.201733	417.5
0.175221	388.16
0.153198	368.271
0.127503	343.409
0.101811	323.026
0.076118	300.652
0.049405	275.79
0.024723	241.721
