Adsorption isotherm of Nitrogen on DhaTab (3 N HCl)
DOI: 10.1038/ncomms7786
Article source: Figure 2D
Adsorbate Nitrogen: InChIKey IJGRMHOSHXDMSA-UHFFFAOYSA-N
Kind: experiment
Temperature: 77 K
Tabular data in the source: 0
pressure (bar)	uptake (cm3(STP)/g)
0.0005	5.17188
0.001854	17.806
0.005634	35.7598
0.022616	60.6956
0.048478	75.6571
0.06545	84.634
0.088616	92.281
0.108819	99.928
0.132252	105.913
0.152456	114.889
0.174004	120.209
0.193667	125.529
0.213601	132.843
0.232457	140.823
0.252391	148.802
0.273669	153.124
0.298987	157.114
0.314879	160.106
0.333193	162.101
0.356627	167.753
0.374133	169.748
0.394872	172.408
0.417495	174.07
0.438235	178.393
0.456819	181.053
0.475673	184.377
0.495334	186.04
0.516611	188.699
0.538428	192.357
0.560783	196.014
0.579904	196.014
0.602259	199.671
0.625424	205.323
0.646702	210.643
0.665017	213.635
0.687371	215.298
0.706493	216.295
0.724	219.287
0.746894	222.945
0.768172	226.934
0.788104	230.924
0.807228	235.911
0.826891	241.563
0.846823	246.218
0.868641	251.87
0.888035	257.855
0.908508	266.167
0.928441	272.816
0.94649	282.458
0.964542	295.757
0.989629	365.91
1.00477	464.988
1.00584	463.658
0.95649	343.634
0.904219	301.409
0.854385	283.123
0.824489	278.136
0.79459	270.156
0.763614	262.177
0.734795	256.525
0.703553	254.198
0.673657	250.54
0.641877	249.21
0.610634	244.888
0.57966	240.234
0.547879	236.576
0.521484	232.919
0.490512	230.924
0.456576	226.269
0.42641	221.282
0.397995	218.124
0.370388	213.968
0.338875	207.983
0.305478	203.328
0.277735	197.676
0.244065	187.37
0.21255	179.39
0.185075	170.081
0.158409	162.766
0.130934	154.122
0.10642	144.147
0.08029	132.843
0.053621	120.542
