Adsorption isotherm of Nitrogen on DhaTab (water)
DOI: 10.1038/ncomms7786
Article source: Figure 2D
Adsorbate Nitrogen: InChIKey IJGRMHOSHXDMSA-UHFFFAOYSA-N
Kind: experiment
Temperature: 77 K
Tabular data in the source: 0
pressure (bar)	uptake (cm3(STP)/g)
0.001995	2.36577
0.002391	15.7713
0.00201	28.2192
0.00047	47.3699
0.001256	65.5631
0.001271	91.4166
0.002054	103.386
0.004388	115.834
0.004781	125.409
0.009058	144.56
0.028467	176.158
0.050587	200.576
0.076966	214.46
0.101408	232.174
0.126625	247.495
0.153782	264.73
0.18055	281.487
0.201116	301.596
0.230994	329.364
0.254696	407.882
0.278371	439.959
0.302807	447.62
0.330733	453.365
0.354779	456.238
0.380377	460.068
0.40326	464.377
0.430409	467.728
0.455619	471.558
0.48044	472.994
0.506039	478.261
0.532799	480.655
0.558398	487.357
0.582056	488.794
0.608041	491.188
0.632476	496.454
0.657684	496.933
0.683283	502.678
0.707716	505.072
0.734476	506.508
0.760461	509.381
0.783733	515.605
0.812627	518.956
0.836092	522.786
0.860915	527.095
0.887677	532.362
0.91095	540.501
0.936555	556.3
0.962167	585.505
0.98664	654.926
1.005	885.213
0.988615	717.166
0.963356	629.073
0.937738	590.771
0.911355	570.184
0.884589	557.258
0.859765	550.076
0.836105	544.331
0.809342	538.586
0.784523	539.064
0.760475	533.319
0.736041	529.489
0.709667	524.701
0.68407	522.786
0.658473	520.871
0.634039	516.562
0.609218	515.126
0.583232	510.817
0.557636	509.381
0.533202	506.508
0.506053	502.678
0.481227	493.581
0.456405	489.272
0.431196	487.357
0.405986	483.048
0.381165	481.133
0.355955	476.825
0.329581	472.994
0.302818	466.77
0.278385	464.855
0.256649	432.299
0.229651	354.26
0.201128	322.661
0.176298	304.468
0.150305	288.19
0.12819	270.954
0.10336	253.719
0.076593	240.313
0.051374	220.684
0.026151	194.83
