Adsorption isotherm of Nitrogen on DhaTab (DOX)
DOI: 10.1038/ncomms7786
Article source: Figure S53
Adsorbate Nitrogen: InChIKey IJGRMHOSHXDMSA-UHFFFAOYSA-N
Kind: experiment
Temperature: 77 K
Tabular data in the source: 0
pressure (bar)	uptake (cm3(STP)/g)
-0.001292	0.22409
0.022864	38.1986
0.045225	46.4968
0.06517	51.8286
0.087534	56.5656
0.106271	60.711
0.126217	64.8557
0.145002	68.924
0.166339	72.3481
0.189776	75.0841
0.210413	78.852
0.2314	83.6501
0.248889	88.1066
0.267778	90.158
0.290864	94.6116
0.311503	96.3186
0.334939	99.7415
0.35313	100.076
0.376917	102.468
0.398955	104.518
0.416095	107.257
0.433586	107.592
0.458073	109.64
0.481162	109.285
0.499001	113.054
0.517542	113.732
0.536082	114.066
0.560919	116.114
0.578061	116.106
0.598	118.157
0.620038	119.863
0.643124	123.63
0.662365	123.963
0.685102	126.7
0.706791	127.032
0.72568	129.77
0.745619	131.821
0.766607	135.246
0.789346	135.577
0.808233	140.033
0.826073	142.772
0.848811	144.478
0.870848	147.558
0.891135	152.357
0.908974	156.813
0.92856	162.642
0.947096	170.19
0.966327	184.95
0.988702	206.921
1.01139	284.881
0.964918	201.094
0.916311	170.549
0.866993	158.895
0.822219	151.018
0.787939	146.226
0.747711	143.155
0.728821	141.791
0.671101	138.385
0.627375	134.286
0.589245	132.244
0.546917	130.204
0.512286	126.444
0.475207	122.341
0.427982	118.243
0.390552	115.17
0.350323	113.817
0.310095	109.715
0.271616	106.643
0.23384	98.0753
0.192564	91.57
0.155137	83.6887
0.112462	77.5276
0.073286	70.3342
0.046703	63.8215
