Adsorption isotherm of Carbon Dioxide on DhaTab
DOI: 10.1038/ncomms7786
Article source: Figure S25
Adsorbate Carbon Dioxide: InChIKey CURLTUGMZLYLDI-UHFFFAOYSA-N
Kind: experiment
Temperature: 273 K
Tabular data in the source: 0
pressure (bar)	uptake (cm3(STP)/g)
0.000546	-0.080339
0.014156	0.960214
0.028843	1.89404
0.04389	2.77451
0.056787	3.52157
0.069323	4.40204
0.08258	5.04238
0.101929	5.89617
0.115541	6.80332
0.122347	7.25689
0.136678	7.97728
0.149575	8.7777
0.16534	9.52477
0.180386	10.3786
0.19185	11.0723
0.201524	11.5525
0.215138	12.2996
0.228393	13.0466
0.248456	14.1139
0.258128	14.7275
0.274249	15.688
0.29073	16.5151
0.30291	17.3156
0.31742	18.0226
0.330675	18.8097
0.342678	19.37
0.35199	20.1171
0.363813	20.7307
0.375633	21.6379
0.390144	22.3049
0.407519	23.2921
0.418268	23.8257
0.434748	24.7062
0.448002	25.56
0.459466	26.2803
0.471288	26.9474
0.483826	27.7478
0.500303	28.8684
0.514637	29.4287
0.529682	30.4159
0.544372	31.0829
0.556551	31.9367
0.568732	32.5503
0.58127	33.3774
0.594523	34.3113
0.612081	35.005
0.618883	35.7787
0.634648	36.4991
0.646466	37.513
0.666178	38.0466
0.678711	39.2205
0.691611	39.7275
0.703429	40.768
0.714538	41.0882
0.725638	42.1821
0.736748	42.5023
0.755375	43.7563
0.771142	44.3166
0.786187	45.3571
0.79908	46.4244
0.811262	46.958
0.824512	48.132
0.837055	48.5055
0.852097	49.7862
0.861772	50.1597
0.878964	51.4671
0.889358	51.7072
0.905474	53.0145
0.918018	53.3614
0.931626	54.5087
0.946679	54.8822
0.955628	56.0028
0.973181	57.0967
0.983213	57.6036
0.996103	58.8843
0.95309	58.1906
0.920467	58.0572
0.89502	57.4702
0.86491	57.0167
0.844482	56.4297
0.816165	56.0562
0.789284	55.4158
0.756309	54.7488
0.729433	53.7883
0.706494	53.308
0.676391	52.3742
0.64987	51.6805
0.619768	50.5866
0.595395	50.133
0.569596	49.0391
0.538416	48.212
0.512614	47.3315
0.487534	46.1042
0.453845	45.1704
0.42948	44.1031
0.40081	43.196
0.368919	41.9153
0.34276	40.9281
0.316244	39.8342
0.289727	38.7937
0.258911	37.513
0.237417	36.2323
0.205883	35.005
0.176507	33.2707
0.147129	31.6965
0.126352	30.3625
0.093395	28.3614
0.06653	26.5205
0.037163	24.0925
