Adsorption isotherm of Nitrogen on DhaTab
DOI: 10.1038/ncomms7786
Article source: Figure 2D
Adsorbate Nitrogen: InChIKey IJGRMHOSHXDMSA-UHFFFAOYSA-N
Kind: experiment
Temperature: 77 K
Tabular data in the source: 0
pressure (bar)	uptake (cm3(STP)/g)
0.001094	7.63222
0.000778	20.0004
0.000786	33.9644
0.000793	47.1305
0.000801	61.0946
0.000812	79.4474
0.001467	93.8104
0.002447	111.764
0.004717	125.728
0.006666	143.283
0.008612	155.252
0.010558	166.423
0.032884	212.704
0.049376	229.86
0.065542	242.627
0.082677	255.394
0.094316	262.975
0.103693	270.156
0.124385	285.317
0.136348	294.893
0.141845	300.079
0.148957	303.67
0.155101	310.054
0.163185	318.432
0.178382	331.598
0.203605	357.532
0.229148	379.076
0.244384	460.467
0.252796	475.628
0.267034	507.944
0.278353	520.712
0.28708	522.706
0.307443	527.095
0.330068	531.883
0.34946	535.075
0.369177	539.862
0.3876	544.251
0.410224	547.443
0.431233	551.034
0.452241	554.225
0.471957	557.417
0.492318	559.811
0.513165	563.003
0.533689	567.391
0.552758	568.987
0.576351	571.78
0.595097	574.972
0.616105	576.169
0.637114	580.557
0.657798	582.552
0.679129	584.946
0.700461	588.537
0.7205	592.926
0.740215	594.522
0.761546	596.117
0.781585	600.107
0.802917	604.097
0.821663	607.289
0.842672	611.278
0.865297	616.066
0.884044	622.051
0.906025	630.429
0.926715	640.802
0.946114	656.362
0.964548	679.104
0.986888	748.126
1.00643	1003.07
0.984684	849.465
0.962976	753.313
0.938063	705.436
0.914775	671.124
0.894729	655.963
0.86887	647.186
0.848183	641.6
0.826526	634.419
0.805841	631.227
0.782247	626.838
0.758652	622.45
0.736028	619.258
0.713081	616.864
0.691749	612.475
0.668801	608.885
0.645855	607.289
0.621937	602.9
0.59996	601.703
0.577659	597.713
0.555035	595.32
0.532734	592.527
0.510433	589.335
0.486839	584.148
0.464211	574.573
0.439323	570.184
0.418639	567.79
0.396984	564.599
0.373066	559.412
0.351412	557.417
0.327171	552.629
0.303576	547.842
0.282568	544.251
0.260908	531.484
0.237607	475.628
0.215261	396.232
0.191655	371.895
0.170638	353.143
0.145418	331.598
0.124402	315.639
0.101123	298.085
0.078168	281.328
0.056181	262.975
0.034516	241.43
