Adsorption isotherm of Carbon Dioxide on [Ag2(Me4bpz)]
DOI: 10.1002/anie.200603270
Adsorbate Carbon Dioxide: InChIKey CURLTUGMZLYLDI-UHFFFAOYSA-N
Temperature: 195 K
Tabular data in the source: 0
pressure (bar)	uptake (ml/g)
0.00268401	7.74194
0.00805204	26.2366
0.010736	30.9677
0.0214721	40.4301
0.0295241	43.0108
0.0375762	45.1613
0.0617323	48.172
0.0778363	50.3226
0.0885724	51.6129
0.101992	52.9032
0.118097	53.7634
0.139569	55.0538
0.161041	55.914
0.190565	57.2043
0.212037	58.4946
0.271085	60.2151
0.311345	61.5054
0.365026	62.7957
0.416022	64.086
0.467018	65.3763
0.518014	66.6667
0.569011	67.5269
0.617323	69.2473
0.671003	70.9677
0.721999	72.2581
0.772995	73.1183
0.818624	74.4086
0.874988	76.129
0.9233	76.5591
0.974296	78.2796
