Adsorption isotherm of Nitrogen on [Ag2(Me4bpz)]
DOI: 10.1002/anie.200603270
Adsorbate Nitrogen: InChIKey IJGRMHOSHXDMSA-UHFFFAOYSA-N
Temperature: 77 K
Tabular data in the source: 0
pressure (bar)	uptake (ml/g)
0.00257016	50.3226
0.0128508	55.0538
0.0308419	58.0645
0.0539733	59.7849
0.0771048	60.6452
0.102806	61.9355
0.125938	62.3656
0.143929	63.2258
0.172201	64.086
0.213323	64.9462
0.241595	65.3763
0.272437	66.2366
0.308419	66.6667
0.359822	67.957
0.406085	69.2473
0.503751	71.828
0.598847	74.8387
0.696513	79.1398
0.794179	83.871
0.819881	86.0215
0.843012	87.7419
0.868714	91.1828
0.889275	94.6237
0.912406	102.366
0.935538	115.699
