Adsorption isotherm of O-Xylene, Ethylbenzene on Zeolite 13X
DOI: 10.1016/j.micromeso.2016.10.022
Article source: Figure 1a
Adsorbate O-Xylene: InChIKey CTQNGGLPUBDAKN-UHFFFAOYSA-N
Adsorbate Ethylbenzene: InChIKey YNQLUTRBYVCPMQ-UHFFFAOYSA-N
Kind: experiment
Temperature: 303 K
Tabular data in the source: 0
pressure (bar)	O-Xylene fraction	O-Xylene uptake (mmol/g)	Ethylbenzene fraction	Ethylbenzene uptake (mmol/g)	total uptake (mmol/g)
1.01325			0.09929	0.15136	
1.01325			0.25056	0.30445	
1.01325			0.49979	0.55076	
1.01325			0.74974	0.67644	
1.01325			0.90133	0.7346	
