Adsorption isotherm of Ethylbenzene, Toluene on Zeolite 13X
DOI: 10.1016/j.micromeso.2016.10.022
Article source: Figure 1c
Adsorbate Ethylbenzene: InChIKey YNQLUTRBYVCPMQ-UHFFFAOYSA-N
Adsorbate Toluene: InChIKey YXFVVABEGXRONW-UHFFFAOYSA-N
Kind: experiment
Temperature: 333 K
Tabular data in the source: 0
pressure (bar)	Ethylbenzene fraction	Ethylbenzene uptake (mmol/g)	Toluene fraction	Toluene uptake (mmol/g)	total uptake (mmol/g)
1.01325			0.11132	0.20508	
1.01325			0.27918	0.34733	
1.01325			0.53591	0.51811	
1.01325			0.77639	0.67202	
1.01325			0.91183	0.74139	
