Adsorption isotherm of Ethylbenzene, Toluene on Zeolite 13X
DOI: 10.1016/j.micromeso.2016.10.022
Article source: Figure 1c
Adsorbate Ethylbenzene: InChIKey YNQLUTRBYVCPMQ-UHFFFAOYSA-N
Adsorbate Toluene: InChIKey YXFVVABEGXRONW-UHFFFAOYSA-N
Kind: experiment
Temperature: 363 K
Tabular data in the source: 0
pressure (bar)	Ethylbenzene fraction	Ethylbenzene uptake (mmol/g)	Toluene fraction	Toluene uptake (mmol/g)	total uptake (mmol/g)
1.01325			0.11358	0.14361	
1.01325			0.27928	0.27607	
1.01325			0.5328	0.41609	
1.01325			0.77434	0.59236	
1.01325			0.90977	0.66592	
