Adsorption isotherm of O-Xylene, Toluene on Zeolite 13X
DOI: 10.1016/j.micromeso.2016.10.022
Article source: Figure 1b
Adsorbate O-Xylene: InChIKey CTQNGGLPUBDAKN-UHFFFAOYSA-N
Adsorbate Toluene: InChIKey YXFVVABEGXRONW-UHFFFAOYSA-N
Kind: experiment
Temperature: 333 K
Tabular data in the source: 0
pressure (bar)	O-Xylene fraction	O-Xylene uptake (mmol/g)	Toluene fraction	Toluene uptake (mmol/g)	total uptake (mmol/g)
1.01325			0.10946	0.18369	
1.01325			0.27722	0.36153	
1.01325			0.53431	0.5698	
1.01325			0.77588	0.69822	
1.01325			0.91157	0.78517	
