Adsorption isotherm of O-Xylene, Ethenylbenzene on Zeolite NaX
DOI: 10.1016/j.micromeso.2016.10.022
Article source: Figure 1a
Adsorbate O-Xylene: InChIKey CTQNGGLPUBDAKN-UHFFFAOYSA-N
Adsorbate Ethenylbenzene: InChIKey YNQLUTRBYVCPMQ-UHFFFAOYSA-N
Kind: experiment
Temperature: 333 K
Tabular data in the source: 0
pressure (bar)	O-Xylene fraction	O-Xylene uptake (mmol/g)	Ethenylbenzene fraction	Ethenylbenzene uptake (mmol/g)	total uptake (mmol/g)
1.01325			0.0993	0.12266	
1.01325			0.25396	0.25073	
1.01325			0.50019	0.47048	
1.01325			0.75003	0.58063	
1.01325			0.90131	0.65225	
