Adsorption isotherm of O-Xylene, Toluene on Zeolite 13X
DOI: 10.1016/j.micromeso.2016.10.022
Article source: Figure 1b
Adsorbate O-Xylene: InChIKey CTQNGGLPUBDAKN-UHFFFAOYSA-N
Adsorbate Toluene: InChIKey YXFVVABEGXRONW-UHFFFAOYSA-N
Kind: experiment
Temperature: 303 K
Tabular data in the source: 0
pressure (bar)	O-Xylene fraction	O-Xylene uptake (mmol/g)	Toluene fraction	Toluene uptake (mmol/g)	total uptake (mmol/g)
1.01325			0.1106	0.22085	
1.01325			0.27178	0.41795	
1.01325			0.53331	0.65376	
1.01325			0.77605	0.84687	
1.01325			0.91062	0.91455	
