Adsorption isotherm of O-Xylene, Ethylbenzene on Zeolite NaX
DOI: 10.1016/j.micromeso.2016.10.022
Article source: Figure 1a
Adsorbate O-Xylene: InChIKey CTQNGGLPUBDAKN-UHFFFAOYSA-N
Adsorbate Ethylbenzene: InChIKey YNQLUTRBYVCPMQ-UHFFFAOYSA-N
Kind: experiment
Temperature: 363 K
Tabular data in the source: 0
pressure (bar)	O-Xylene fraction	O-Xylene uptake (mmol/g)	Ethylbenzene fraction	Ethylbenzene uptake (mmol/g)	total uptake (mmol/g)
1.01325			0.101	0.09234	
1.01325			0.24712	0.18076	
1.01325			0.50087	0.37701	
1.01325			0.74995	0.48365	
1.01325			0.90089	0.56151	
