Adsorption isotherm of Ethylbenzene, Toluene on Zeolite 13X
DOI: 10.1016/j.micromeso.2016.10.022
Article source: Figure 1c
Adsorbate Ethylbenzene: InChIKey YNQLUTRBYVCPMQ-UHFFFAOYSA-N
Adsorbate Toluene: InChIKey YXFVVABEGXRONW-UHFFFAOYSA-N
Kind: experiment
Temperature: 363 K
Tabular data in the source: 0
pressure (bar)	Ethylbenzene fraction	Ethylbenzene uptake (mmol/g)	Toluene fraction	Toluene uptake (mmol/g)	total uptake (mmol/g)
1.01325			0.11236	0.23862	
1.01325			0.27583	0.41438	
1.01325			0.53473	0.58378	
1.01325			0.77625	0.77263	
1.01325			0.91497	0.81966	
