Adsorption isotherm of O-Xylene, Toluene on Zeolite 13X
DOI: 10.1016/j.micromeso.2016.10.022
Article source: Figure 1b
Adsorbate O-Xylene: InChIKey CTQNGGLPUBDAKN-UHFFFAOYSA-N
Adsorbate Toluene: InChIKey YXFVVABEGXRONW-UHFFFAOYSA-N
Kind: experiment
Temperature: 363 K
Tabular data in the source: 0
pressure (bar)	O-Xylene fraction	O-Xylene uptake (mmol/g)	Toluene fraction	Toluene uptake (mmol/g)	total uptake (mmol/g)
1.01325			0.11163	0.15203	
1.01325			0.27935	0.29822	
1.01325			0.53309	0.46107	
1.01325			0.77466	0.59362	
1.01325			0.91364	0.66543	
