Adsorption isotherm of Nitrogen on SMLU15NS
DOI: 10.1016/j.fuproc.2017.06.009
Article source: Figure 2
Adsorbate Nitrogen: InChIKey IJGRMHOSHXDMSA-UHFFFAOYSA-N
Kind: experiment
Temperature: 77 K
Tabular data in the source: 0
pressure (bar)	uptake (cm3(STP)/g)
0.050185	2.853
0.101171	3.298
0.151731	3.184
0.203548	3.293
0.208979	3.237
0.249508	3.179
0.257036	3.347
0.298822	3.121
0.310099	3.176
0.351469	3.286
0.3569	3.342
0.399101	3.172
0.405788	3.172
0.452174	3.226
0.503991	3.391
0.55831	3.277
0.608465	3.498
0.655681	3.44
0.704995	3.998
0.710011	4.165
0.754309	4.219
0.757237	4.443
0.800269	4.329
0.855865	5.166
0.857963	5.894
0.899748	5.78
0.903102	6.508
0.952001	7.625
1.00262	11.373
