Adsorption isotherm of Nitrogen on SMLU11
DOI: 10.1016/j.fuproc.2017.06.009
Article source: Figure 2
Adsorbate Nitrogen: InChIKey IJGRMHOSHXDMSA-UHFFFAOYSA-N
Kind: experiment
Temperature: 77 K
Tabular data in the source: 0
pressure (bar)	uptake (cm3(STP)/g)
0.049385	5.652
0.101627	5.873
0.1501	6.095
0.201501	6.204
0.25122	6.258
0.302206	6.368
0.351094	6.589
0.402911	6.643
0.454312	6.864
0.505298	6.75
0.555868	7.363
0.604756	7.641
0.650301	7.639
0.701712	8.364
0.706748	9.539
0.74981	11.609
0.752283	9.09
0.802934	15.301
0.80495	10.431
0.852309	20.113
0.855561	13.787
0.89908	18.319
0.903771	24.868
0.951828	25.034
0.958607	31.863
1.00053	41.937
