Adsorption isotherm of Nitrogen on SMLU15
DOI: 10.1016/j.fuproc.2017.06.009
Article source: Figure 2
Adsorbate Nitrogen: InChIKey IJGRMHOSHXDMSA-UHFFFAOYSA-N
Kind: experiment
Temperature: 77 K
Tabular data in the source: 0
pressure (bar)	uptake (cm3(STP)/g)
0.056528	8.674
0.102508	9.68
0.152663	10.461
0.200741	11.69
0.252568	12.583
0.301456	12.973
0.348278	13.978
0.354124	14.034
0.403448	14.76
0.45109	15.485
0.45569	15.765
0.50167	16.546
0.508368	17.722
0.545989	18.895
0.549313	17.44
0.599478	19.005
0.603267	21.076
0.652986	20.458
0.657637	24.488
0.701165	29.132
0.703597	23.758
0.752536	27.395
0.75895	37.974
0.801911	32.374
0.80798	47.992
0.851316	39.313
0.857882	61.201
0.904581	53.53
0.909881	74.409
0.953672	68.418
0.956823	84.427
1.00163	91.423
