Adsorption isotherm of Neopentane on Zeolite 13X
DOI: 10.1021/Ie901732s
Adsorbate Neopentane: InChIKey CRSOQBOWXPBRES-UHFFFAOYSA-N
Temperature: 353 K
Tabular data in the source: 0
pressure (bar)	uptake (molecules/unitcell)
2.56e-06	0.00506176
4.9e-06	0.00666837
7.61e-06	0.00864363
2.09e-05	0.0165343
4.93e-05	0.029642
0.000105	0.0666837
0.000205	0.136107
0.000509	0.337478
0.00105296	0.656111
0.00241533	1.47601
0.00416482	2.82345
0.00737027	5.22861
0.00955344	8.10078
0.0152397	10.672
0.0307045	14.7601
0.0529446	17.0793
0.257719	20.7481
