Adsorption isotherm of Neopentane on Zeolite 13X
DOI: 10.1021/Ie901732s
Adsorbate Neopentane: InChIKey CRSOQBOWXPBRES-UHFFFAOYSA-N
Temperature: 373 K
Tabular data in the source: 0
pressure (bar)	uptake (molecules/unitcell)
0.0523761	14.8175
0.0692775	16.0006
0.0861789	16.8457
0.133503	17.8598
0.22308	18.9302
0.261954	19.0992
0.365052	19.4372
0.414066	19.5499
0.601672	20.226
0.70139	20.4513
0.748714	20.4513
0.833221	20.6767
0.890686	20.902
0.981954	20.733
1.10364	20.902
