Adsorption isotherm of Neopentane on Zeolite 13X
DOI: 10.1021/Ie901732s
Adsorbate Neopentane: InChIKey CRSOQBOWXPBRES-UHFFFAOYSA-N
Temperature: 273 K
Tabular data in the source: 0
pressure (bar)	uptake (molecules/unitcell)
1.14e-05	23.1342
2.82e-05	21.9722
0.000107	20.5638
0.000558	19.0497
0.00115354	18.0638
0.0018885	16.6201
0.00264604	14.7539
0.00325639	12.2891
0.00416658	9.7539
0.00591415	7.64123
0.00737338	6.3032
0.0106026	4.7539
0.0178142	3.13418
0.0284173	2.21869
