Adsorption isotherm of N-Butane on Zeolite 13X
DOI: 10.1021/Ie901732s
Adsorbate N-Butane: InChIKey IJDNQMDRQITEOD-UHFFFAOYSA-N
Temperature: 300 K
Tabular data in the source: 0
pressure (bar)	uptake (molecules/unitcell)
0.0001	3.32248
0.000253	8.72842
0.000468	18.0601
0.00109358	25.3324
0.00255757	29.0007
0.00531275	31.0601
0.00999786	32.8621
0.0238487	34.5354
0.0495401	35.6938
0.100895	36.7878
0.250373	37.8175
0.480568	38.6542
0.978737	39.5552
