Adsorption isotherm of Propene on Zeolite 13X
DOI: 10.1021/Ie901732s
Adsorbate Propene: InChIKey QQONPFPTGQHPMA-UHFFFAOYSA-N
Temperature: 373 K
Tabular data in the source: 0
pressure (bar)	uptake (molecules/unitcell)
0.00167185	4.33864
0.0202634	13.9161
0.0506859	19.7189
0.087869	23.0992
0.162235	26.7048
0.206179	28.733
0.275475	30.2541
0.361672	31.7189
0.430968	32.4513
0.672658	34.4795
0.767306	34.9865
1.06646	36.1133
