Adsorption isotherm of Neopentane on Zeolite 13X
DOI: 10.1021/Ie901732s
Adsorbate Neopentane: InChIKey CRSOQBOWXPBRES-UHFFFAOYSA-N
Temperature: 373 K
Tabular data in the source: 0
pressure (bar)	uptake (molecules/unitcell)
9.55e-07	0.00236219
5.03e-06	0.00567019
1.04e-05	0.00700078
1.99e-05	0.00984088
7.86e-05	0.0264613
0.0002	0.0746991
0.000949	0.326709
0.00254397	0.878493
0.00282216	1.13871
0.00462026	1.70793
0.00681838	2.73335
0.0152397	5.57898
0.0291519	10.1653
0.0543362	15.0014
0.124639	18.2238
1.32131	21.432
