Adsorption isotherm of N-Butane on Zeolite 13X
DOI: 10.1021/Ie901732s
Adsorbate N-Butane: InChIKey IJDNQMDRQITEOD-UHFFFAOYSA-N
Temperature: 333 K
Tabular data in the source: 0
pressure (bar)	uptake (molecules/unitcell)
0.000101	0.733004
0.000208	1.63441
0.000519	3.38089
0.00104623	8.05695
0.00148504	15.6626
0.0025607	19.3809
0.00299202	21.6908
0.00776335	27.0992
0.0430241	31.7189
0.178079	34.5358
0.365838	36.1696
0.781387	36.902
1.48504	37.6908
