Adsorption isotherm of N-Butane on Zeolite 13X
DOI: 10.1021/Ie901732s
Adsorbate N-Butane: InChIKey IJDNQMDRQITEOD-UHFFFAOYSA-N
Temperature: 353 K
Tabular data in the source: 0
pressure (bar)	uptake (molecules/unitcell)
9.74e-05	0.2823
0.000192	0.733004
0.00049	1.12737
0.000968	2.6485
0.00142836	4.50765
0.00236895	7.8316
0.00408485	13.8034
0.00732314	20.6203
0.0179238	25.4654
0.0660126	29.6344
0.196276	32.1696
0.3131	33.24
0.529483	34.0288
0.949234	35.0992
1.06679	35.9443
1.45643	36.1696
