Adsorption isotherm of Propene on Zeolite 13X
DOI: 10.1021/Ie901732s
Adsorbate Propene: InChIKey QQONPFPTGQHPMA-UHFFFAOYSA-N
Temperature: 373 K
Tabular data in the source: 0
pressure (bar)	uptake (molecules/unitcell)
0.00336199	3.8316
0.0236437	12.5077
0.0557564	18.8738
0.0861789	21.8598
0.163925	25.9724
0.211249	27.7753
0.278855	29.1837
0.365052	30.3105
0.427587	31.0429
0.498573	32.8457
0.672658	33.8034
0.767306	34.1415
0.912658	35.0992
1.07322	35.6626
