Adsorption isotherm of Neopentane on Zeolite 13X
DOI: 10.1021/Ie901732s
Adsorbate Neopentane: InChIKey CRSOQBOWXPBRES-UHFFFAOYSA-N
Temperature: 423 K
Tabular data in the source: 0
pressure (bar)	uptake (molecules/unitcell)
1.09e-06	0.0020086
4.65e-06	0.00416672
6.86e-06	0.00451862
9.37e-06	0.00482142
1.84e-05	0.00540096
2.45e-05	0.00614906
4.93e-05	0.00797048
7.28e-05	0.0100018
0.000105	0.0123488
0.0002	0.019445
0.000509	0.0482142
0.000974	0.0864363
0.00235347	0.217823
0.00395422	0.348602
0.0047417	0.451862
0.00796685	0.688818
0.0140985	1.21502
0.0291519	2.3242
0.0515886	4.30407
0.0668698	5.85709
0.124639	8.78493
0.209414	12.9644
0.370589	16.0067
0.561273	17.3585
1.42826	18.2238
