Adsorption isotherm of N-propane on Zeolite 13X
DOI: 10.1021/Ie901732s
Adsorbate N-propane: InChIKey ATUOYWHBWRKTHZ-UHFFFAOYSA-N
Temperature: 373 K
Tabular data in the source: 0
pressure (bar)	uptake (molecules/unitcell)
0.0253338	3.77526
0.0929395	9.29638
0.118292	11.1555
0.285616	18.1978
0.361672	20.4513
0.430968	21.5781
0.507024	22.6485
0.719982	24.9584
0.846742	26.1415
1.00562	27.0429
