Adsorption isotherm of Neopentane on Zeolite 13X
DOI: 10.1021/Ie901732s
Adsorbate Neopentane: InChIKey CRSOQBOWXPBRES-UHFFFAOYSA-N
Temperature: 333 K
Tabular data in the source: 0
pressure (bar)	uptake (molecules/unitcell)
1.01e-06	0.00264613
2.03e-06	0.00567019
2.43e-06	0.00797048
4.77e-06	0.00937362
9.87e-06	0.0147601
2.45e-05	0.0348602
7.47e-05	0.10672
0.000205	0.29642
0.000925	1.36107
0.0030506	5.31408
0.00512551	8.78493
0.007564	12.1502
0.0148494	16.5343
0.0307045	18.2238
0.0889557	20.086
0.124639	20.086
0.380329	21.432
