Adsorption isotherm of N-Butane on Zeolite 13X
DOI: 10.1021/Ie901732s
Adsorbate N-Butane: InChIKey IJDNQMDRQITEOD-UHFFFAOYSA-N
Temperature: 300 K
Tabular data in the source: 0
pressure (bar)	uptake (molecules/unitcell)
1.5e-05	0.297726
4.04e-05	1.13436
6.88e-05	2.16406
0.000132	4.41654
0.000234	8.34228
0.000362	12.3967
0.000617	17.2878
0.0011154	22.372
0.0017227	25.2037
0.00293693	26.9413
0.00853612	29.6443
0.0290585	32.3472
0.130442	34.5997
0.530469	35.6294
