Adsorption isotherm of N-propane on Zeolite 13X
DOI: 10.1021/Ie901732s
Adsorbate N-propane: InChIKey ATUOYWHBWRKTHZ-UHFFFAOYSA-N
Temperature: 373 K
Tabular data in the source: 0
pressure (bar)	uptake (molecules/unitcell)
0.0253338	3.04286
0.0574465	6.14145
0.0895592	10.0851
0.116601	11.8879
0.177446	13.9161
0.206179	15.4372
0.280545	17.3527
0.365052	20.0569
0.432658	21.1274
0.505334	22.2541
0.718292	24.2823
0.848432	25.5217
0.997165	26.3105
