Adsorption isotherm of Neopentane on Zeolite 13X
DOI: 10.1021/Ie901732s
Adsorbate Neopentane: InChIKey CRSOQBOWXPBRES-UHFFFAOYSA-N
Temperature: 273 K
Tabular data in the source: 0
pressure (bar)	uptake (molecules/unitcell)
0.00163736	17.3595
0.00209502	15.8102
0.00226459	13.9793
0.00275104	12.2891
0.00334199	10.5286
0.00433192	8.73278
0.00568841	6.90179
0.00839469	5.03559
0.0103311	4.22573
0.0132187	3.06376
0.0169134	2.28911
0.0291642	1.33841
0.0502886	0.458128
