Adsorption isotherm of N-Butane on Zeolite 13X
DOI: 10.1021/Ie901732s
Adsorbate N-Butane: InChIKey IJDNQMDRQITEOD-UHFFFAOYSA-N
Temperature: 300 K
Tabular data in the source: 0
pressure (bar)	uptake (molecules/unitcell)
0.000104	3.5799
0.000258	9.0502
0.000526	19.0254
0.00105121	25.3324
0.00245848	29.773
0.00500699	31.4462
0.0101974	33.3126
0.0243246	34.7284
0.0505286	35.6938
0.100895	37.3027
0.260465	38.3324
0.509915	39.2334
1.03851	39.8769
