Adsorption isotherm of N-Butane on Zeolite 13X
DOI: 10.1021/Ie901732s
Adsorbate N-Butane: InChIKey IJDNQMDRQITEOD-UHFFFAOYSA-N
Temperature: 373 K
Tabular data in the source: 0
pressure (bar)	uptake (molecules/unitcell)
0.00336199	5.97244
0.0135028	18.0851
0.027024	22.3105
0.0540662	25.6344
0.0912493	26.8175
0.130123	28.226
0.22477	29.4091
0.263644	30.7048
0.356601	31.3246
0.408996	31.8316
0.596601	32.564
0.706461	32.3386
0.757165	32.6767
0.831531	32.8457
0.890686	32.9584
0.980263	33.1274
1.10195	33.1837
