Adsorption isotherm of Neopentane on Zeolite 13X
DOI: 10.1021/Ie901732s
Adsorbate Neopentane: InChIKey CRSOQBOWXPBRES-UHFFFAOYSA-N
Temperature: 273 K
Tabular data in the source: 0
pressure (bar)	uptake (molecules/unitcell)
1.14e-05	23.4159
2.75e-05	22.5708
5e-05	22.1131
0.000107	21.4793
0.000243	20.9863
0.000573	19.7539
0.001124	18.3102
0.00297372	14.1201
0.0036125	11.937
0.00427609	10.9159
0.00591415	8.1694
0.010466	3.55672
0.0130483	2.71165
0.0185211	1.90179
0.0276895	1.02151
