Adsorption isotherm of N-Butane on Zeolite 13X
DOI: 10.1021/Ie901732s
Adsorbate N-Butane: InChIKey IJDNQMDRQITEOD-UHFFFAOYSA-N
Temperature: 373 K
Tabular data in the source: 0
pressure (bar)	uptake (molecules/unitcell)
0.0002	0.00061
0.000519	0.451314
0.00100629	1.07103
0.00151422	2.25413
0.00299202	4.95836
0.0052606	9.12737
0.0105989	15.3246
0.0354164	22.9865
0.0974184	26.7612
0.229336	29.5781
0.351874	31.3246
0.595054	32.0006
1.34737	33.6908
