Adsorption isotherm of Hydrogen on RPM3-Zn
DOI: 10.1021/La202842m
Adsorbate Hydrogen: InChIKey UFHFLCQGNIYNRP-UHFFFAOYSA-N
Temperature: 87 K
Tabular data in the source: 0
pressure (bar)	uptake (cm3(STP)/g)
0.0533333	8
0.48	22
0.96	31.5
1.28	36
1.86667	43
2.45333	50
3.2	58
4.37333	71
4.96	78
5.49333	82.5
6.50667	91.5
7.46667	100
8.96	108
9.97333	113
11.9467	118.5
13.8667	124
14.9867	127.5
16.4267	130
18.1333	133
19.6267	136
