Adsorption isotherm of Nitrogen on RPM3-Zn
DOI: 10.1021/La202842m
Adsorbate Nitrogen: InChIKey IJGRMHOSHXDMSA-UHFFFAOYSA-N
Temperature: 77 K
Tabular data in the source: 0
pressure (bar)	uptake (cm3(STP)/g)
0.303725	4.93421
0.315186	7.89474
0.320917	11.1842
0.329513	14.1447
0.338109	17.4342
0.34384	20.7237
0.352436	23.6842
0.361032	26.9737
0.366762	30.2632
0.375358	33.2237
0.383954	36.5132
0.389685	39.8026
0.409742	44.4079
0.432665	46.3816
0.455587	48.3553
0.475645	50.3289
0.498567	52.6316
0.507163	53.6184
0.524355	56.25
0.541547	58.8816
0.558739	61.5132
0.573066	64.4737
0.590258	67.1053
0.610315	69.4079
0.633238	71.3816
0.65616	73.3553
0.679083	75.3289
0.69914	77.3026
0.710602	77.6316
0.733524	79.6053
0.756447	81.5789
0.77937	83.5526
0.802292	84.8684
0.839542	87.8289
0.87106	90.1316
0.899713	92.1053
0.931232	93.75
0.948424	94.4079
0.991404	95.3947
