Adsorption isotherm of Argon on RPM3-Zn
DOI: 10.1021/La202842m
Adsorbate Argon: InChIKey XKRFYHLGVUSROY-UHFFFAOYSA-N
Temperature: 87 K
Tabular data in the source: 0
pressure (bar)	uptake (cm3(STP)/g)
0.05934	2.2104
0.0863675	2.20179
0.137634	3.77782
0.153816	4.40961
0.161803	6.63637
0.166038	28.2911
0.166417	21.2846
0.166589	18.0998
0.166951	11.4118
0.168948	24.4685
0.171117	34.3404
0.173424	41.6645
0.175954	44.8484
0.186627	47.3928
0.208146	49.2968
0.226962	51.2016
0.243075	53.1073
0.267331	54.3735
0.291604	55.3211
0.313123	57.2251
0.337396	58.1728
0.361669	59.1205
0.383222	60.3875
0.407513	61.0167
0.429049	62.6022
0.453322	63.5499
0.47484	65.4539
0.499113	66.4016
0.523387	67.3492
0.55038	67.9776
0.574653	68.9253
0.601663	69.2351
0.625936	70.1828
0.652929	70.8112
0.677219	71.4404
0.704195	72.3872
0.728486	73.0164
0.752759	73.9641
0.779735	74.9109
0.804008	75.8586
0.831001	76.4869
0.855274	77.4346
0.882267	78.063
0.906523	79.3291
0.928145	79.3222
0.949663	81.2262
0.968497	82.8126
