Adsorption isotherm of Hydrogen on RPM3-Zn
DOI: 10.1021/La202842m
Adsorbate Hydrogen: InChIKey UFHFLCQGNIYNRP-UHFFFAOYSA-N
Temperature: 77 K
Tabular data in the source: 0
pressure (bar)	uptake (cm3(STP)/g)
0.586667	8
1.12	18
1.81333	30
2.13333	40
2.56	50
3.09333	64
3.73333	78
4.85333	88.5
5.70667	96.5
7.2	110
8.85333	114.5
10.6667	120
11.3067	121.5
12.96	125
15.2	128.5
16.5333	130.5
19.7867	138.5
