Adsorption isotherm of Hydrogen on RPM3-Zn
DOI: 10.1021/La202842m
Adsorbate Hydrogen: InChIKey UFHFLCQGNIYNRP-UHFFFAOYSA-N
Temperature: 77 K
Tabular data in the source: 0
pressure (bar)	uptake (cm3(STP)/g)
0.16	10
0.48	29
0.853333	40
1.28	48.5
1.54667	53
1.76	57.5
2.02667	62
2.29333	66
2.50667	70
2.82667	74
3.14667	77.5
3.46667	81.5
3.78667	85.5
4.16	89.5
4.48	93
4.74667	97.5
5.17333	99.5
5.54667	102
6.08	104
6.56	106
6.98667	108
7.46667	110
7.94667	111.5
8.42667	112.5
8.90667	114
9.44	115
10.1867	117
10.72	117.5
11.2	118.5
12.0533	119
13.44	121.5
14.1867	122.5
14.9867	123
16.0533	124.5
17.2267	127
18.4	128.5
19.36	130
19.7333	130
