Adsorption isotherm of Argon on RPM3-Zn
DOI: 10.1021/La202842m
Adsorbate Argon: InChIKey XKRFYHLGVUSROY-UHFFFAOYSA-N
Temperature: 77 K
Tabular data in the source: 0
pressure (bar)	uptake (cm3(STP)/g)
0.0702371	0.614574
0.124258	1.23431
0.178313	1.2171
0.226962	1.2016
0.262098	1.19041
0.28372	1.18353
0.318838	1.49082
0.35666	1.79724
0.38639	1.78777
0.426948	1.45639
0.46477	1.76281
0.502574	2.38772
0.599855	2.67521
0.702577	2.32402
0.767426	2.62184
0.805247	2.92827
0.843068	3.23469
0.902512	3.53423
0.951161	3.51874
