Adsorption isotherm of Hydrogen on RPM3-Zn
DOI: 10.1021/La202842m
Adsorbate Hydrogen: InChIKey UFHFLCQGNIYNRP-UHFFFAOYSA-N
Temperature: 77 K
Tabular data in the source: 0
pressure (bar)	uptake (cm3(STP)/g)
0.0533333	16
0.48	35
0.96	45
1.44	56
2.02667	68
2.50667	78.5
3.30667	88
3.84	95
4.26667	100
4.96	108.5
5.76	114
6.56	118.5
7.46667	124
8	126.5
9.01333	130.5
9.97333	134.5
11.36	137.5
13.3867	142.5
15.04	146
15.6267	147
17.0133	149
18.1867	151
18.9333	152.5
19.7333	154
