Adsorption isotherm of Nitrogen on RPM3-Zn
DOI: 10.1021/La202842m
Adsorbate Nitrogen: InChIKey IJGRMHOSHXDMSA-UHFFFAOYSA-N
Temperature: 87 K
Tabular data in the source: 0
pressure (bar)	uptake (cm3(STP)/g)
0	2.32558
0.000985915	6.31229
0.00591549	8.30565
0.00985915	13.289
0.0315493	15.6146
0.0423944	20.2658
0.0542254	25.2492
0.0571831	31.2292
0.0650704	50.4983
0.0739437	54.485
0.0838028	56.8106
0.0956338	61.4618
0.0985915	65.1163
0.0995775	66.113
0.111408	67.1096
0.121268	67.4419
0.145915	69.103
0.155775	69.103
0.164648	69.4352
0.174507	70.0997
0.18338	70.4319
0.192254	70.7641
0.201127	71.0963
0.210986	70.7641
0.220845	70.7641
0.230704	70.4319
0.240563	70.4319
0.249437	70.4319
0.25831	70.4319
0.268169	70.0997
0.277042	69.7674
0.285915	70.0997
