Adsorption isotherm of Nitrogen on RPM3-Zn
DOI: 10.1021/La202842m
Adsorbate Nitrogen: InChIKey IJGRMHOSHXDMSA-UHFFFAOYSA-N
Temperature: 87 K
Tabular data in the source: 0
pressure (bar)	uptake (cm3(STP)/g)
0	5.31561
0.011831	12.9568
0.0216901	13.6213
0.035493	13.9535
0.046338	14.6179
0.0502817	14.6179
0.0552113	15.6146
0.058169	30.5648
0.0621127	44.186
0.0650704	46.8439
0.0788732	49.1694
0.0828169	49.5017
0.0847887	56.8106
0.0916901	58.804
0.0946479	60.4651
0.103521	62.1262
0.110423	63.4551
0.121268	66.113
0.132113	68.1063
0.140986	69.103
0.150845	70.0997
0.16169	71.7608
0.170563	72.4252
0.180423	73.0897
0.191268	74.0864
0.200141	74.7508
0.220845	75.0831
0.234648	75.7475
0.250423	76.0797
0.270141	76.0797
0.28	75.7475
0.299718	75.7475
