Adsorption isotherm of Nitrogen on RPM3-Zn
DOI: 10.1021/La202842m
Adsorbate Nitrogen: InChIKey IJGRMHOSHXDMSA-UHFFFAOYSA-N
Temperature: 77 K
Tabular data in the source: 0
pressure (bar)	uptake (cm3(STP)/g)
0.0945559	0.986842
0.17192	1.31579
0.229226	1.64474
0.286533	1.64474
0.318052	1.97368
0.340974	1.97368
0.381089	2.30263
0.421203	2.63158
0.441261	2.63158
0.461318	2.63158
0.481375	2.96053
0.501433	3.28947
0.601719	3.28947
0.722063	3.28947
0.82235	3.28947
0.899713	3.61842
0.954155	4.60526
