Adsorption isotherm of Hydrogen on RPM3-Zn
DOI: 10.1021/La202842m
Adsorbate Hydrogen: InChIKey UFHFLCQGNIYNRP-UHFFFAOYSA-N
Temperature: 77 K
Tabular data in the source: 0
pressure (bar)	uptake (cm3(STP)/g)
0.48	35.5
1.01333	47
1.49333	56.5
1.92	67
2.45333	78
3.2	87
4.10667	98
4.96	109
7.52	123.5
8.74667	129.5
9.92	133.5
10.6133	134.5
11.4133	136
12.5333	139
13.7067	141.5
14.9867	144.5
16.0533	145.5
17.7067	147
18.88	148
19.7867	149
