Adsorption isotherm of Nitrogen on RPM3-Zn
DOI: 10.1021/La202842m
Adsorbate Nitrogen: InChIKey IJGRMHOSHXDMSA-UHFFFAOYSA-N
Temperature: 77 K
Tabular data in the source: 0
pressure (bar)	uptake (cm3(STP)/g)
0.111748	1.31579
0.131805	13.1579
0.157593	27.3026
0.186246	46.0526
0.217765	64.8026
0.303725	65.4605
0.39255	65.7895
0.452722	66.1184
0.481375	72.3684
0.510029	79.2763
