Adsorption isotherm of Nitrogen on RPM3-Zn
DOI: 10.1021/La202842m
Adsorbate Nitrogen: InChIKey IJGRMHOSHXDMSA-UHFFFAOYSA-N
Temperature: 77 K
Tabular data in the source: 0
pressure (bar)	uptake (cm3(STP)/g)
0.126074	9.53947
0.12894	17.7632
0.131805	24.0132
0.13467	27.3026
0.137536	33.8816
0.140401	47.6974
0.151862	51.9737
0.160458	55.2632
0.169054	60.5263
0.194842	62.8289
0.22063	63.4868
0.232092	71.7105
0.246418	73.0263
0.269341	74.0132
0.289398	75.3289
0.309456	76.3158
0.352436	79.6053
0.378223	80.2632
0.404011	80.9211
0.421203	81.9079
0.429799	82.2368
0.455587	82.8947
0.481375	83.5526
0.501433	84.5395
0.527221	84.8684
0.555874	85.1974
0.584527	85.1974
0.60745	85.1974
0.636103	85.8553
0.664756	85.8553
0.69341	86.1842
0.716332	86.8421
0.744986	86.5132
0.770774	86.8421
0.796562	87.1711
0.830946	87.1711
0.853868	87.5
0.882521	87.5
0.911175	88.1579
0.939828	88.8158
0.962751	89.8026
0.977077	91.7763
