Adsorption isotherm of Nitrogen on RPM3-Zn
DOI: 10.1021/La202842m
Adsorbate Nitrogen: InChIKey IJGRMHOSHXDMSA-UHFFFAOYSA-N
Temperature: 77 K
Tabular data in the source: 0
pressure (bar)	uptake (cm3(STP)/g)
0.0544413	0.986842
0.120344	0.986842
0.197708	0.986842
0.295129	0.328947
0.418338	0.657895
0.52149	0.657895
