Adsorption isotherm of Carbon Dioxide on [Cu24(CN)4(btc)12(dabco)9(H2O)6]*8(NO3)
DOI: 10.1039/C2ce26611c
Adsorbate Carbon Dioxide: InChIKey CURLTUGMZLYLDI-UHFFFAOYSA-N
Temperature: 298 K
Tabular data in the source: 0
pressure (bar)	uptake (cm3(STP)/g)
0.00944547	1.28741
0.0566402	4.94857
0.105265	9.29621
0.161041	13.6438
0.213956	17.305
0.264011	21.4238
0.374132	28.0597
0.478532	34.4667
0.594374	40.8738
0.725947	47.2808
0.791734	50.7131
0.863241	53.459
0.924737	55.9761
