Adsorption isotherm of Nitrogen on [Cu24(CN)4(btc)12(dabco)9(H2O)6]*8(NO3)
DOI: 10.1039/C2ce26611c
Adsorbate Nitrogen: InChIKey IJGRMHOSHXDMSA-UHFFFAOYSA-N
Temperature: 77 K
Tabular data in the source: 0
pressure (bar)	uptake (cm3(STP)/g)
0.00515504	29.6614
0.00515504	50.0267
0.00515504	70.3919
0.00515504	90.2995
0.00515504	109.521
0.00658518	9.75385
0.00944547	124.394
0.015166	130.115
0.0323278	139.039
0.0595005	142.242
0.100975	144.759
0.162471	146.819
0.206805	147.505
0.304055	147.963
0.402735	148.192
0.504275	148.649
0.601525	148.421
0.700205	148.649
0.803175	148.192
0.85466	148.192
0.903285	148.192
0.964781	148.421
