Adsorption isotherm of Carbon Dioxide on [Cu24(CN)4(btc)12(dabco)9(H2O)6]*8(NO3)
DOI: 10.1039/C2ce26611c
Adsorbate Carbon Dioxide: InChIKey CURLTUGMZLYLDI-UHFFFAOYSA-N
Temperature: 273 K
Tabular data in the source: 0
pressure (bar)	uptake (cm3(STP)/g)
0.0108756	1.51623
0.045199	7.46562
0.0838129	13.6438
0.110986	17.5338
0.162471	24.3985
0.215386	30.5767
0.265441	36.9838
0.318356	42.4755
0.371272	47.2808
0.424187	51.8573
0.477102	56.2049
0.597234	65.5866
0.661591	69.9343
0.725947	74.0531
0.796024	78.1719
0.85895	81.8331
0.923307	85.2654
