Adsorption isotherm of Nitrogen on C30H36N4CuF12O2P2 Desolvated
DOI: 10.1021/Ic0609249
Adsorbate Nitrogen: InChIKey IJGRMHOSHXDMSA-UHFFFAOYSA-N
Temperature: 77 K
Tabular data in the source: 0
pressure (bar)	uptake (ml/g)
0.00198746	0.16966
0.0219179	2.71372
0.0358022	3.47761
0.0634648	3.39521
0.0832556	3.82061
0.0990158	3.05924
0.108964	4.07703
0.124747	3.65464
0.162341	4.33579
0.209806	4.84829
0.278948	4.43042
0.31456	5.02666
0.362042	5.79339
0.413409	5.54351
0.460907	6.56448
0.510342	6.9924
0.559794	7.67456
0.607287	8.61079
0.660675	9.03904
0.708223	10.8227
0.757753	12.6913
0.805313	14.6445
0.858756	15.9202
0.902525	20.3307
0.954484	29.0639
