Adsorption isotherm of Ethene on ZIF-8
DOI: 10.1002/cite.201000179
Adsorbate Ethene: InChIKey VGGSQFUCUMXWEO-UHFFFAOYSA-N
Temperature: 298 K
Tabular data in the source: 0
pressure (bar)	uptake (molecules/cage)
0.119253	0.545907
1.24414	3.00821
1.71783	4.0634
3.01622	5.51572
4.07691	6.14861
4.69583	6.58264
5.40173	6.58951
6.43266	7.10538
7.63858	7.11711
