Adsorption isotherm of Ethane on ZIF-8
DOI: 10.1002/cite.201000179
Adsorbate Ethane: InChIKey OTMSDBZUPAUEDD-UHFFFAOYSA-N
Temperature: 298 K
Tabular data in the source: 0
pressure (bar)	uptake (molecules/cage)
0.119482	0.62373
0.209436	1.20826
0.508254	2.8065
1.04214	4.3292
1.75102	5.34777
2.84192	6.25333
4.22615	6.88936
5.96263	7.29536
8.14031	7.70565
