Adsorption isotherm of Methane on ZIF-8
DOI: 10.1002/cite.201000179
Adsorbate Methane: InChIKey VNWKTOKETHGBQD-UHFFFAOYSA-N
Temperature: 298 K
Tabular data in the source: 0
pressure (bar)	uptake (molecules/cage)
0.112014	0.148148
0.977365	0.503704
2.06633	1.03704
2.95997	1.51111
3.96469	1.86667
4.49555	2.22222
5.47219	2.51852
6.50468	2.84444
7.42578	3.2
