Adsorption isotherm of Carbon Dioxide on ZIF-8
DOI: 10.1002/cite.201000179
Adsorbate Carbon Dioxide: InChIKey CURLTUGMZLYLDI-UHFFFAOYSA-N
Temperature: 298 K
Tabular data in the source: 0
pressure (bar)	uptake (molecules/cage)
0.112014	0.148148
0.196464	0.385185
0.95331	1.6
1.59814	2.66667
2.04703	3.4963
3.50373	5.57037
4.53881	6.63704
5.0422	7.11111
5.51813	7.7037
