Adsorption isotherm of Methane on ZIF-8
DOI: 10.1002/cite.201000179
Adsorbate Methane: InChIKey VNWKTOKETHGBQD-UHFFFAOYSA-N
Temperature: 298 K
Tabular data in the source: 0
pressure (bar)	uptake (molecules/cage)
0.0838302	0.0592593
0.920687	0.237037
1.98033	0.355556
2.92869	0.533333
3.96087	0.77037
4.96518	1.00741
5.99685	1.0963
7.02893	1.3037
8.14495	1.6
