Adsorption isotherm of Ethane on ZIF-8
DOI: 10.1002/cite.201000179
Adsorbate Ethane: InChIKey OTMSDBZUPAUEDD-UHFFFAOYSA-N
Temperature: 298 K
Tabular data in the source: 0
pressure (bar)	uptake (molecules/cage)
0.415782	1.36591
1.2137	2.65772
2.01013	3.44368
3.12952	4.03822
4.39541	4.43964
5.6019	4.64593
6.77886	4.81302
8.1616	4.94321
8.95585	4.98984
