Adsorption isotherm of Carbon Dioxide on ZIF-8
DOI: 10.1002/cite.201000179
Adsorbate Carbon Dioxide: InChIKey CURLTUGMZLYLDI-UHFFFAOYSA-N
Temperature: 298 K
Tabular data in the source: 0
pressure (bar)	uptake (molecules/cage)
0.112014	0.148148
1.00617	0.77037
2.01203	1.45185
2.96193	2.07407
3.96779	2.75556
5.0294	3.43704
6.00645	3.85185
7.09655	4.71111
8.2136	5.3037
