Adsorption isotherm of Ethene on ZIF-8
DOI: 10.1002/cite.201000179
Adsorbate Ethene: InChIKey VGGSQFUCUMXWEO-UHFFFAOYSA-N
Temperature: 298 K
Tabular data in the source: 0
pressure (bar)	uptake (molecules/cage)
0.118566	0.312437
1.00381	1.29381
1.97579	1.77019
2.97685	2.13013
4.18334	2.33641
5.65454	2.54528
6.59598	2.63226
7.62553	2.68118
8.97874	2.77217
