Adsorption isotherm of Carbon Dioxide on CuBTC
DOI: 10.1021/Ie1014958
Adsorbate Carbon Dioxide: InChIKey CURLTUGMZLYLDI-UHFFFAOYSA-N
Temperature: 303 K
Tabular data in the source: 0
pressure (bar)	uptake (mmol/g)
0.0102606	0.00703518
0.0397636	0.0262183
0.0657957	0.0477993
0.0883569	0.0621867
0.100505	0.0837677
0.11786	0.0981551
0.133479	0.117338
0.150834	0.143715
0.169924	0.170092
0.185543	0.196469
0.197692	0.215652
0.223427	0.244401
0.249654	0.275962
0.267843	0.31103
0.2928	0.345513
0.31099	0.371814
0.331717	0.3987
0.360482	0.438443
0.380363	0.465329
0.402359	0.495721
0.417165	0.516762
0.4362	0.532542
0.45735	0.56235
0.471733	0.594496
0.495421	0.657034
0.520378	0.706129
0.538991	0.747626
0.55718	0.786201
0.570293	0.824776
0.591444	0.86978
0.610056	0.91303
0.63036	0.955696
0.643051	0.985504
0.657433	1.01005
0.691274	1.02174
0.753033	1.03869
0.774606	1.05447
0.810985	1.07434
0.874436	1.09597
0.892625	1.1135
0.93408	1.13104
0.974689	1.155
