Adsorption isotherm of Carbon Dioxide on Polyimide-CuBTC
DOI: 10.1021/Ie1014958
Adsorbate Carbon Dioxide: InChIKey CURLTUGMZLYLDI-UHFFFAOYSA-N
Temperature: 303 K
Tabular data in the source: 0
pressure (bar)	uptake (mmol/g)
0.00515523	0.010614
0.0292667	0.036915
0.0605692	0.0784121
0.0889107	0.109973
0.111753	0.138612
0.14221	0.17894
0.163783	0.209333
0.193817	0.244985
0.223427	0.268948
0.249231	0.296418
0.271227	0.323888
0.293646	0.358956
0.314797	0.396362
0.337639	0.439612
0.359636	0.475849
0.381632	0.511502
0.399398	0.55183
0.426048	0.597418
0.441276	0.629564
0.462003	0.67223
0.487807	0.716065
0.514033	0.766914
0.537722	0.808995
0.551681	0.846985
0.585522	0.901925
0.607095	0.942253
0.624438	0.986673
0.642628	1.03635
0.654895	1.06148
0.695081	1.07259
0.753033	1.08136
0.792372	1.09188
0.813946	1.10123
0.852862	1.12285
0.916737	1.13571
0.957345	1.14214
1.01107	1.16844
