Adsorption isotherm of Hydrogen on P2W18@UiO-67
DOI: 10.1039/c4cc09986a
Article source: Figure S3
Adsorbate Hydrogen: InChIKey UFHFLCQGNIYNRP-UHFFFAOYSA-N
Kind: experiment
Temperature: 77 K
Tabular data in the source: 0
pressure (bar)	uptake (cm3(STP)/g)
0	0
0.001164	201.467
0.003492	225.684
0.005821	232.287
0.008149	236.688
0.01397	242.186
0.020955	247.683
0.030268	253.178
0.044237	257.566
0.054715	260.857
0.066356	264.147
0.076833	268.539
0.089639	270.727
0.098952	274.02
0.108265	276.211
0.11525	277.304
0.126892	279.493
0.137369	279.482
0.147846	281.672
0.169965	282.749
0.187427	282.729
0.202561	283.814
0.229336	284.885
0.260768	284.851
0.285215	285.925
0.295693	285.913
0.308498	287
0.327125	286.979
0.350407	286.954
0.365541	286.937
0.386496	288.015
0.396973	288.003
0.406286	287.993
0.426077	289.072
0.442375	287.953
0.45518	289.04
0.464494	289.03
0.477299	289.016
0.490105	289.002
0.504075	288.986
0.514552	288.975
0.525029	290.064
0.540163	290.048
0.557625	290.028
0.571595	288.912
0.589057	289.994
0.600698	291.082
0.618161	291.063
0.635623	291.043
0.651921	289.924
0.672875	292.103
0.69383	290.979
0.711292	292.061
0.72759	292.043
0.746217	292.023
0.76135	293.107
0.783469	293.082
0.804424	294.16
0.819558	294.144
0.846333	294.114
0.862631	296.298
0.874272	297.386
0.89057	297.368
0.90454	299.555
0.913853	300.645
0.928987	301.73
0.937136	303.922
0.944121	303.915
0.953434	307.207
0.960419	309.401
0.965076	312.699
0.970896	314.894
