Adsorption isotherm of Hydrogen on PW12@UiO-67
DOI: 10.1039/c4cc09986a
Article source: Figure S3
Adsorbate Hydrogen: InChIKey UFHFLCQGNIYNRP-UHFFFAOYSA-N
Kind: experiment
Temperature: 77 K
Tabular data in the source: 0
pressure (bar)	uptake (cm3(STP)/g)
0	0
0.001164	266.421
0.002328	262.016
0.003492	279.629
0.010477	291.732
0.01397	301.636
0.024447	306.028
0.041909	312.614
0.059371	315.898
0.072177	319.187
0.090803	321.368
0.10943	323.549
0.128056	324.63
0.142026	325.715
0.154831	325.701
0.175786	328.981
0.201397	330.054
0.221187	330.032
0.240978	331.111
0.266589	331.083
0.296857	331.049
0.327125	331.016
0.379511	330.958
0.429569	330.903
0.461001	331.97
0.487776	333.041
0.511059	333.015
0.542491	332.981
0.589057	331.829
0.622817	332.892
0.658906	335.054
0.682189	333.928
0.701979	333.906
0.731083	336.076
0.757858	338.248
0.788126	336.013
0.807916	335.991
0.83702	335.959
0.862631	337.032
0.882421	337.01
0.910361	338.08
0.935972	339.153
0.947614	340.241
0.954598	342.435
0.963912	346.829
0.970896	352.326
0.979045	358.922
0.98603	366.621
0.990687	368.818
