Adsorption isotherm of Hydrogen on UiO-67
DOI: 10.1039/c4cc09986a
Article source: Figure S3
Adsorbate Hydrogen: InChIKey UFHFLCQGNIYNRP-UHFFFAOYSA-N
Kind: experiment
Temperature: 77 K
Tabular data in the source: 0
pressure (bar)	uptake (cm3(STP)/g)
0.002328	329.172
0.003492	199.262
0.004657	478.894
0.005821	497.608
0.009313	510.815
0.012806	531.729
0.016298	538.331
0.022119	543.829
0.027939	549.327
0.034924	554.824
0.044237	559.217
0.053551	561.409
0.0617	563.602
0.071013	566.894
0.08149	569.085
0.089639	571.277
0.097788	572.369
0.104773	573.463
0.114086	575.654
0.122235	575.645
0.135041	578.934
0.151339	577.815
0.166473	578.899
0.178114	579.987
0.19092	579.973
0.206054	582.158
0.221187	582.142
0.235157	583.227
0.246799	582.114
0.263097	583.197
0.274738	583.184
0.295693	583.161
0.317811	584.237
0.332945	584.221
0.341094	584.212
0.350407	584.201
0.362049	584.189
0.379511	584.169
0.389988	585.259
0.413271	585.233
0.422584	586.324
0.437718	585.206
0.458673	585.183
0.466822	585.174
0.488941	584.049
0.509895	584.026
0.536671	585.097
0.556461	583.975
0.585565	583.942
0.610012	585.017
0.63213	584.992
0.664726	583.855
0.686845	584.932
0.703143	583.813
0.725262	583.789
0.749709	584.863
0.771828	584.838
0.788126	584.82
0.806752	584.8
0.820722	584.785
0.839348	585.865
0.85681	585.846
0.873108	585.828
0.896391	585.802
0.911525	586.886
0.927823	585.768
0.940629	585.753
0.949942	586.844
