Adsorption isotherm of Hydrogen on PW11Zr@UiO-67
DOI: 10.1039/c4cc09986a
Article source: Figure S3
Adsorbate Hydrogen: InChIKey UFHFLCQGNIYNRP-UHFFFAOYSA-N
Kind: experiment
Temperature: 77 K
Tabular data in the source: 0
pressure (bar)	uptake (cm3(STP)/g)
0.001164	0.001164
0.002328	290.64
0.004657	298.343
0.006985	302.745
0.009313	308.247
0.015134	313.745
0.018626	318.145
0.027939	321.437
0.037253	324.73
0.045402	325.822
0.058207	331.312
0.079162	333.491
0.093132	334.576
0.111758	337.859
0.128056	338.942
0.140861	340.028
0.155995	341.113
0.178114	341.088
0.204889	342.16
0.222352	343.241
0.247963	344.314
0.261932	344.299
0.277066	343.181
0.2922	343.165
0.309662	343.145
0.332945	343.12
0.3539	344.198
0.372526	345.278
0.389988	344.158
0.409779	344.136
0.42142	344.123
0.438882	344.104
0.459837	344.081
0.481956	345.157
0.508731	342.926
0.536671	342.895
0.558789	342.871
0.580908	342.847
0.607683	343.918
0.63213	342.79
0.650757	343.871
0.670547	342.748
0.7078	342.707
0.740396	342.671
0.776484	342.631
0.817229	343.687
0.849825	344.752
0.880093	343.618
0.908033	344.688
0.946449	344.646
