Adsorption isotherm of Nitrogen on Phos-COF-1
DOI: 10.1002/smll.201906005
Article source: Figure 1
Adsorbate Nitrogen: InChIKey IJGRMHOSHXDMSA-UHFFFAOYSA-N
Kind: experiment
Temperature: 77 K
Tabular data in the source: 0
pressure (bar)	uptake (cm3(STP)/g)
0.003786	94.4308
0.005015	130.713
0.006244	153.405
0.01116	180.328
0.030825	194.815
0.053563	200.841
0.100883	208.021
0.158649	211.867
0.207812	214.431
0.258204	216.482
0.307367	217.508
0.357759	218.533
0.374966	219.046
0.433962	220.328
0.51631	221.61
0.538433	221.354
0.55687	222.123
0.614636	223.149
0.666257	223.405
0.714191	224.431
0.768271	224.687
0.814976	224.687
0.867826	226.226
0.905927	226.226
0.913302	226.738
0.923134	226.738
0.930509	227.251
0.946487	227.764
0.953861	228.277
0.962465	228.021
0.973526	228.533
0.987046	228.79
1.00302	229.046
0.857993	227.764
0.805143	227.251
0.752293	226.482
0.704359	225.969
0.657039	225.585
0.604804	224.944
0.551953	224.687
0.50279	223.918
0.453013	222.892
0.402006	222.123
0.351614	221.097
0.301222	220.328
0.249601	219.046
0.202896	216.995
0.152504	214.944
0.105184	211.482
0.055407	204.944
0.014847	181.097
