Adsorption isotherm of Nitrogen on ZIF-92
DOI: 10.1021/Ja805222x
Adsorbate Nitrogen: InChIKey IJGRMHOSHXDMSA-UHFFFAOYSA-N
Temperature: 77 K
Tabular data in the source: 0
pressure (bar)	uptake (cm3(STP)/g)
0.0587862	0
0.10829	0
0.201111	0
0.300119	0
0.399128	0
0.495042	0
0.590942	2.33645
0.686871	0
0.742563	0
0.785865	2.33645
0.881794	0
0.931298	0
0.965318	2.33645
