Adsorption isotherm of Nitrogen on ZIF-91
DOI: 10.1021/Ja805222x
Adsorbate Nitrogen: InChIKey IJGRMHOSHXDMSA-UHFFFAOYSA-N
Temperature: 77 K
Tabular data in the source: 0
pressure (bar)	uptake (cm3(STP)/g)
0.00185062	200.935
0.00563862	88.785
0.00790853	221.963
0.00866034	100.467
0.0202123	233.645
0.0294654	238.318
0.0572682	245.327
0.0727382	245.327
0.106729	252.336
0.153125	254.673
0.199492	261.682
0.25209	261.682
0.295377	266.355
0.344881	266.355
0.394371	268.692
0.440781	268.692
0.493365	271.028
0.542855	273.364
0.589265	273.364
0.635675	273.364
0.685165	275.701
0.731561	278.037
0.78105	280.374
0.827446	282.71
0.873813	289.72
0.926281	310.748
0.959375	462.617
