Adsorption isotherm of Nitrogen on ZIF-90
DOI: 10.1021/Ja805222x
Adsorbate Nitrogen: InChIKey IJGRMHOSHXDMSA-UHFFFAOYSA-N
Temperature: 77 K
Tabular data in the source: 0
pressure (bar)	uptake (cm3(STP)/g)
0.011926	288.852
0.0266582	299.14
0.0420918	307.694
0.0547194	321.455
0.06875	335.208
0.079273	345.522
0.0968112	354.062
0.122768	362.549
0.150829	369.293
0.164158	370.94
0.178189	372.581
0.191518	374.228
0.207653	375.856
0.222385	377.494
0.235714	379.14
