Adsorption isotherm of Nitrogen on ZIF-90
DOI: 10.1021/Ja805222x
Adsorbate Nitrogen: InChIKey IJGRMHOSHXDMSA-UHFFFAOYSA-N
Temperature: 77 K
Tabular data in the source: 0
pressure (bar)	uptake (cm3(STP)/g)
0.00140243	273.364
0.00160484	240.654
0.00190846	191.589
0.00231328	126.168
0.00263136	74.7664
0.00290606	30.3738
0.0105543	294.393
0.022887	301.402
0.0569212	301.402
0.0847673	301.402
0.149713	306.075
0.23941	310.748
0.292008	310.748
0.338418	310.748
0.384785	317.757
0.40948	327.103
0.437282	334.112
0.461991	341.121
0.480497	350.467
0.520691	355.14
0.548493	362.15
0.585607	364.486
0.631988	369.159
0.727874	373.832
0.774284	373.832
0.823774	376.168
0.876343	380.841
0.92271	387.85
0.959231	485.981
