Adsorption isotherm of Argon on TTI-COF
DOI: 10.1038/s41467-018-04979-y
Article source: Figure 2
Adsorbate Argon: InChIKey XKRFYHLGVUSROY-UHFFFAOYSA-N
Kind: experiment
Temperature: 87 K
Tabular data in the source: 0
pressure (bar)	uptake (cm3(STP)/g)
-0.001737	2.10244
-0.000401	17.3736
0.000248	34.2254
0.000908	45.8108
0.001551	65.8225
0.002217	74.7747
0.006618	94.7823
0.006932	108.475
0.00964	121.111
0.008908	145.337
0.012957	170.612
0.023853	189.559
0.048371	231.664
0.074257	273.241
0.097236	400.4
0.125877	431.178
0.151824	442.209
0.177777	450.607
0.205781	458.477
0.231053	465.823
0.254962	471.063
0.280579	476.302
0.306199	480.488
0.332843	485.199
0.356753	489.913
0.383398	494.097
0.409357	499.336
0.43327	502.47
0.461282	506.653
0.48451	510.314
0.509449	513.447
0.535755	516.052
0.561035	519.184
0.586315	522.317
0.612962	525.448
0.635506	529.637
0.663179	532.24
0.687434	535.374
0.713399	537.979
0.737999	539.533
0.765326	544.243
0.79334	547.373
0.813834	551.564
0.837749	553.645
0.86371	557.83
0.888993	559.909
0.917005	563.565
0.938865	568.281
0.965514	570.359
0.995564	580.333
0.995279	582.394
0.980255	579.972
0.955347	575.732
0.92925	573.017
0.904738	568.777
0.878239	568.805
0.852934	565.785
0.828417	563.678
0.799157	560.357
0.77899	558.855
0.751704	557.056
0.726399	554.035
0.700696	551.93
0.675785	549.213
0.649687	547.108
0.62438	544.393
0.599469	541.981
0.574557	539.875
0.54925	537.769
0.52434	534.748
0.498636	532.947
0.473332	529.012
0.446838	527.212
0.421928	523.886
0.396623	520.561
0.371713	517.54
0.34621	514.368
0.320707	511.348
0.296194	507.26
0.269703	503.631
0.245587	499.39
0.221076	494.235
0.194192	489.693
0.168103	483.016
0.144784	475.422
0.117907	467.222
0.096585	449.873
0.073512	320.676
0.047115	271.027
0.021508	221.072
0.02513	190.592
0.00866	120.817
