Adsorption isotherm of Argon on TTT-COF
DOI: 10.1038/s41467-018-04979-y
Article source: Figure 2
Adsorbate Argon: InChIKey XKRFYHLGVUSROY-UHFFFAOYSA-N
Kind: experiment
Temperature: 87 K
Tabular data in the source: 0
pressure (bar)	uptake (cm3(STP)/g)
-0.001047	-1.05815
-0.001074	12.1079
-0.000414	23.6933
-0.000434	33.6995
0.000206	55.2911
0.002901	74.2473
0.002864	92.6798
0.002147	109.006
0.00687	139.02
0.008195	160.084
0.008169	172.724
0.021022	238.013
0.048922	296.967
0.073021	377.517
0.097115	460.174
0.125107	473.836
0.152422	484.34
0.179747	490.103
0.205701	497.975
0.228927	503.216
0.258305	507.398
0.282899	512.111
0.310228	515.768
0.330725	518.379
0.356687	522.565
0.38333	527.276
0.407246	529.356
0.431843	531.963
0.459173	535.62
0.486503	538.75
0.509733	541.885
0.535014	544.491
0.560979	547.096
0.58694	551.282
0.611534	555.468
0.638865	558.599
0.660728	561.735
0.686693	563.814
0.711969	569.053
0.737931	573.238
0.763206	578.477
0.789168	582.662
0.815127	587.901
0.837665	594.986
0.863277	603.121
0.888202	613.101
0.91141	626.768
0.935291	645.702
0.956766	672.011
0.992559	714.63
0.989807	723.586
0.978897	711.485
0.964592	688.328
0.938667	666.237
0.910681	649.415
0.882684	637.859
0.857426	623.667
0.829425	614.217
0.805522	606.343
0.77957	597.418
0.751565	590.076
0.729021	585.887
0.699642	581.705
0.675732	576.991
0.651822	572.277
0.627227	568.091
0.599215	564.434
0.573934	561.828
0.54797	558.697
0.524399	555.562
0.498777	552.43
0.474182	548.243
0.447536	544.586
0.424314	537.764
0.399039	531.998
0.373076	528.603
0.347116	524.155
0.32115	522.076
0.296555	517.89
0.27128	512.65
0.246001	508.991
0.220726	503.225
0.195449	498.513
0.174959	492.215
0.144903	485.401
0.119979	474.895
0.097115	460.174
0.074617	432.813
0.069946	376.994
0.048243	294.861
0.023076	235.904
0.007494	168.511
0.005501	140.075
