Adsorption isotherm of Nitrogen on [Re^(I)(CO)3(dcbpy)Cl]
DOI: 10.1021/Ja203564w
Adsorbate Nitrogen: InChIKey IJGRMHOSHXDMSA-UHFFFAOYSA-N
Temperature: 77 K
Tabular data in the source: 0
pressure (bar)	uptake (cm3(STP)/g)
0	104.405
0.00165024	163.879
0.00990147	236.577
0.0330049	257.752
0.0528078	263.064
0.0726107	271.02
0.0825122	272.354
0.103965	277.669
0.155123	290.951
0.20463	293.659
0.257438	299.014
0.306945	300.4
0.356453	303.108
0.40596	304.494
0.458768	308.528
0.509925	312.559
0.561083	311.305
0.60894	314.01
0.661748	318.044
0.712906	322.075
0.762413	322.14
0.81357	324.85
0.863078	327.557
0.914235	332.911
0.967043	338.266
1.0083	424.223
