Adsorption isotherm of Nitrogen on [Cp*Ir^(III)(dcppy)Cl]
DOI: 10.1021/Ja203564w
Adsorbate Nitrogen: InChIKey IJGRMHOSHXDMSA-UHFFFAOYSA-N
Temperature: 77 K
Tabular data in the source: 0
pressure (bar)	uptake (cm3(STP)/g)
-0.00165024	112.333
0.00495073	235.249
0.0231034	309.281
0.0627093	329.157
0.0709605	337.097
0.0858127	337.116
0.40761	369.254
0.508275	373.35
0.561083	376.062
0.612241	381.415
0.661748	382.801
0.709605	385.507
0.759112	389.536
0.81192	390.927
0.909285	410.878
0.965393	420.202
1.0083	474.443
