Adsorption isotherm of Nitrogen on [Ir^ (III)(ppy)2(dcbpy)]Cl
DOI: 10.1021/Ja203564w
Adsorbate Nitrogen: InChIKey IJGRMHOSHXDMSA-UHFFFAOYSA-N
Temperature: 77 K
Tabular data in the source: 0
pressure (bar)	uptake (cm3(STP)/g)
0.00165024	0.00165024
0.00495073	305.293
0.0412561	318.556
0.0841625	327.863
0.153473	337.205
0.20463	339.914
0.252487	346.585
0.305295	347.975
0.356453	352.007
0.409261	356.04
0.458768	358.748
0.506625	361.454
0.557783	364.164
0.60729	369.515
0.661748	373.55
0.709605	377.578
0.762413	381.611
0.81357	384.321
0.864728	390.996
0.915886	398.992
0.965393	416.237
1.0083	627.747
