Adsorption isotherm of Nitrogen on [Cp*Ir^(III)(dcbpy)Cl]Cl
DOI: 10.1021/Ja203564w
Adsorbate Nitrogen: InChIKey IJGRMHOSHXDMSA-UHFFFAOYSA-N
Temperature: 77 K
Tabular data in the source: 0
pressure (bar)	uptake (cm3(STP)/g)
0.00330049	318.507
0.00825122	335.694
0.0330049	359.514
0.0544581	366.15
0.0643595	370.128
0.074261	372.784
0.0825122	375.438
0.103965	378.109
0.156773	387.429
0.206281	391.458
0.254138	395.486
0.306945	402.162
0.354803	404.868
0.410911	406.263
0.458768	410.29
0.462068	408.973
0.838324	437.217
0.914235	446.567
0.963743	455.883
1.00995	524.665
