Adsorption isotherm of Nitrogen on [Ru^(II)(bpy)2(dcbpy)]Cl2
DOI: 10.1021/Ja203564w
Adsorbate Nitrogen: InChIKey IJGRMHOSHXDMSA-UHFFFAOYSA-N
Temperature: 77 K
Tabular data in the source: 0
pressure (bar)	uptake (cm3(STP)/g)
0	66.0793
0.00165024	202.205
0.013202	288.123
0.0214532	301.35
0.0511576	317.247
0.0841625	327.863
0.103965	331.854
0.153473	342.491
0.20298	346.52
0.254138	351.873
0.301995	358.544
0.356453	363.901
0.40761	369.254
0.453817	374.601
0.504975	379.954
0.559433	387.954
0.61059	394.629
0.661748	402.625
0.712906	410.621
0.760763	421.257
0.81027	434.537
0.863078	459.716
0.914235	494.144
0.960442	605.217
