Adsorption isotherm of Nitrogen on [Ir^(III)(dcppy)2(H2O)2]
DOI: 10.1021/Ja203564w
Adsorbate Nitrogen: InChIKey IJGRMHOSHXDMSA-UHFFFAOYSA-N
Temperature: 77 K
Tabular data in the source: 0
pressure (bar)	uptake (cm3(STP)/g)
0.00660098	311.903
0.0214532	329.103
0.0313546	335.724
0.0495073	344.998
0.0709605	351.634
0.0841625	354.295
0.103965	358.285
0.20463	371.633
0.356453	386.368
0.40761	390.399
0.458768	395.753
0.509925	401.106
0.559433	406.457
0.60894	410.486
0.658447	415.837
0.709605	419.868
0.81192	429.253
0.861428	437.247
0.915886	449.212
0.963743	467.777
1.0083	596.029
