Adsorption isotherm of Nitrogen on MIL-121
DOI: 10.1039/C4ta03990d
Adsorbate Nitrogen: InChIKey IJGRMHOSHXDMSA-UHFFFAOYSA-N
Temperature: 77 K
Tabular data in the source: 0
pressure (bar)	uptake (cm3(STP)/g)
0.0104465	24.8938
0.0278572	33.7005
0.0522322	36.664
0.0766073	39.6276
0.0940181	39.6538
0.121875	42.6226
0.146251	45.5862
0.170625	47.0863
0.198483	50.0551
0.24375	51.5867
0.2925	54.5869
0.337768	57.582
0.386518	60.5822
0.435269	62.1191
0.487501	66.588
0.536251	69.5883
0.574555	75.4996
0.633752	78.5156
0.682502	85.9061
0.731251	94.76
0.780001	108.004
0.825269	128.56
0.880984	174.01
0.90536	213.559
0.933216	261.894
0.957591	304.369
0.978486	329.279
