Adsorption isotherm of Nitrogen on Eu+3@MIL-121
DOI: 10.1039/C4ta03990d
Adsorbate Nitrogen: InChIKey IJGRMHOSHXDMSA-UHFFFAOYSA-N
Temperature: 77 K
Tabular data in the source: 0
pressure (bar)	uptake (cm3(STP)/g)
0.0104465	16.1133
0.0278572	20.5298
0.0522322	20.5665
0.0731251	23.5248
0.100983	25.0302
0.125357	25.0669
0.146251	28.0252
0.170625	28.0619
0.198483	28.1039
0.247232	31.1041
0.2925	32.6357
0.34125	34.1726
0.376072	34.225
0.435269	35.7776
0.480537	38.7726
0.532769	38.8513
0.574555	40.3777
0.633752	44.8571
0.685983	49.326
0.738216	58.1852
0.780001	67.0286
0.832234	94.9121
0.884466	162.308
0.898395	181.353
0.919288	190.165
0.943663	194.592
0.97152	201.951
