Adsorption isotherm of Nitrogen on MIL-121
DOI: 10.1039/C4ta03990d
Adsorbate Nitrogen: InChIKey IJGRMHOSHXDMSA-UHFFFAOYSA-N
Temperature: 77 K
Tabular data in the source: 0
pressure (bar)	uptake (cm3(STP)/g)
0.0104465	24.8938
0.0278572	35.1639
0.0522322	38.1275
0.0800895	41.0962
0.0974998	42.5859
0.118393	42.6174
0.153215	47.0601
0.198483	50.0551
0.24375	51.5867
0.2925	54.5869
0.337768	57.582
0.390001	62.0509
0.435269	62.1191
0.480537	68.0409
0.536251	69.5883
0.574555	75.4996
0.633752	79.979
0.689465	88.8434
0.738216	103.551
0.786966	124.112
0.835716	162.234
0.891431	283.782
0.898395	295.5
0.919288	304.312
0.947145	311.671
0.978486	329.279
