Adsorption isotherm of Nitrogen on Eu+3@MIL-121
DOI: 10.1039/C4ta03990d
Adsorbate Nitrogen: InChIKey IJGRMHOSHXDMSA-UHFFFAOYSA-N
Temperature: 77 K
Tabular data in the source: 0
pressure (bar)	uptake (cm3(STP)/g)
0.0104465	16.1133
0.0278572	20.5298
0.0522322	20.5665
0.0731251	23.5248
0.100983	25.0302
0.125357	25.0669
0.146251	28.0252
0.170625	28.0619
0.198483	28.1039
0.247232	31.1041
0.2925	32.6357
0.34125	34.1726
0.390001	34.246
0.435269	35.7776
0.487501	37.3197
0.532769	38.8513
0.585002	41.8568
0.633752	44.8571
0.682502	47.8573
0.731251	52.321
0.790448	62.6541
0.839198	77.3617
0.884466	108.162
0.912323	138.935
0.929734	160.913
0.954109	191.681
0.968038	201.946
