Adsorption isotherm of Carbon Dioxide on [Zn(PNMI)]*1.25EtOH*0.375H2O
DOI: 10.1021/Ic302334x
Adsorbate Carbon Dioxide: InChIKey CURLTUGMZLYLDI-UHFFFAOYSA-N
Temperature: 196 K
Tabular data in the source: 0
pressure (bar)	uptake (cm3(STP)/g)
0.0066037	12.36
0.0182491	81.839
0.0368817	140.831
0.0485271	167.049
0.0578434	172.948
0.0834632	183.436
0.137032	193.923
0.230195	203.1
0.321029	207.688
0.36761	208.999
0.465432	219.486
0.502697	228.663
0.567911	251.604
0.619151	265.368
0.67039	270.612
0.784515	273.889
0.931247	277.822
1.02441	277.167
