Adsorption isotherm of Methane on [Zn(PNMI)]*1.25EtOH*0.375H2O
DOI: 10.1021/Ic302334x
Adsorbate Methane: InChIKey VNWKTOKETHGBQD-UHFFFAOYSA-N
Temperature: 196 K
Tabular data in the source: 0
pressure (bar)	uptake (cm3(STP)/g)
0.0112618	1.87264
0.0881213	10.3936
0.188272	22.192
0.258144	32.6794
0.3187	39.234
0.372269	43.1668
0.463103	51.0323
0.567911	57.5869
0.672719	62.1752
0.824109	71.3516
0.931247	78.5617
1.00345	85.1163
