Adsorption isotherm of Nitrogen on [Zn(PNMI)]*1.25EtOH*0.375H2O
DOI: 10.1021/Ic302334x
Adsorbate Nitrogen: InChIKey IJGRMHOSHXDMSA-UHFFFAOYSA-N
Temperature: 77 K
Tabular data in the source: 0
pressure (bar)	uptake (cm3(STP)/g)
0.01592	51.6878
0.0881213	56.276
0.190601	57.5869
0.29308	60.8642
0.374598	59.5533
0.477077	63.4861
0.62148	63.4861
0.77287	66.1079
0.92193	68.0743
0.975499	69.3852
