Adsorption isotherm of Argon on [Zn(PNMI)]*1.25EtOH*0.375H2O
DOI: 10.1021/Ic302334x
Adsorbate Argon: InChIKey XKRFYHLGVUSROY-UHFFFAOYSA-N
Temperature: 87 K
Tabular data in the source: 0
pressure (bar)	uptake (cm3(STP)/g)
0.0112618	7.7718
0.14169	11.0491
0.302396	13.0155
0.507355	14.3264
0.733275	13.0155
0.942892	13.0155
1.01742	19.5701
