Adsorption isotherm of Hydrogen on [Zn(PNMI)]*1.25EtOH*0.375H2O
DOI: 10.1021/Ic302334x
Adsorbate Hydrogen: InChIKey UFHFLCQGNIYNRP-UHFFFAOYSA-N
Temperature: 77 K
Tabular data in the source: 0
pressure (bar)	uptake (cm3(STP)/g)
0.01592	1.21718
0.14169	5.80541
0.239511	8.42726
0.309384	10.3936
0.425837	12.36
0.647099	13.671
0.870691	14.9819
0.989474	14.3264
1.02907	16.2928
