Adsorption isotherm of Argon on [Cd(NDC)0.5(PCA)]*Gx
DOI: 10.1021/Ic202102m
Adsorbate Argon: InChIKey XKRFYHLGVUSROY-UHFFFAOYSA-N
Temperature: 77 K
Tabular data in the source: 0
pressure (bar)	uptake (cm3(STP)/g)
0.0237469	0.338027
0.0423388	0.338027
0.0909636	0.338027
0.188213	0.46674
0.242559	0.46674
0.289753	0.338027
0.339808	0.46674
0.388433	0.595453
0.442779	0.595453
0.487113	0.46674
0.728807	0.46674
0.977652	0.724165
