Adsorption isotherm of Nitrogen on [Cd(NDC)0.5(PCA)]*Gx
DOI: 10.1021/Ic202102m
Adsorbate Nitrogen: InChIKey IJGRMHOSHXDMSA-UHFFFAOYSA-N
Temperature: 77 K
Tabular data in the source: 0
pressure (bar)	uptake (cm3(STP)/g)
0.0123058	0.724165
0.0695115	0.724165
0.128147	0.852878
0.178202	0.852878
0.298334	0.852878
0.35411	1.23902
0.45279	1.49644
0.55433	1.62516
0.608675	1.49644
0.6573	1.88258
0.705925	2.01129
0.801745	2.14001
0.874682	2.91228
0.95334	4.0707
0.979082	6.13011
