Adsorption isotherm of Hydrogen on [Cd(NDC)0.5(PCA)]*Gx
DOI: 10.1021/Ic202102m
Adsorbate Hydrogen: InChIKey UFHFLCQGNIYNRP-UHFFFAOYSA-N
Temperature: 273 K
Tabular data in the source: 0
pressure (bar)	uptake (cm3(STP)/g)
0.103252	0.160031
0.153017	0.310266
0.206764	0.385383
0.305299	0.498059
0.407816	0.723411
0.503365	0.873646
0.605881	1.02388
0.700435	1.099
0.795985	1.32435
0.851722	1.43703
0.899496	1.58726
0.952247	1.7375
