Adsorption isotherm of Carbon Dioxide on [Cd(NDC)0.5(PCA)]*Gx
DOI: 10.1021/Ic202102m
Adsorbate Carbon Dioxide: InChIKey CURLTUGMZLYLDI-UHFFFAOYSA-N
Temperature: 273 K
Tabular data in the source: 0
pressure (bar)	uptake (cm3(STP)/g)
0.0149134	0.84568
0.0432796	3.04286
0.0746317	5.52174
0.105984	7.66258
0.153758	11.0429
0.201533	13.9724
0.303054	19.2682
0.403082	23.4936
0.498632	26.9302
0.601646	30.0288
0.700181	32.4513
0.798716	34.5922
0.889787	36.1696
0.953984	37.1274
