Adsorption isotherm of Hydrogen on [Cd(NDC)0.5(PCA)]*Gx
DOI: 10.1021/Ic202102m
Adsorbate Hydrogen: InChIKey UFHFLCQGNIYNRP-UHFFFAOYSA-N
Temperature: 77 K
Tabular data in the source: 0
pressure (bar)	uptake (cm3(STP)/g)
0.0866732	0.852878
0.145309	0.981591
0.196794	0.981591
0.248279	1.23902
0.344099	1.23902
0.394154	1.49644
0.494264	1.62516
0.592944	1.75387
0.690194	2.01129
0.784583	2.65486
0.890414	2.65486
0.943329	2.78357
0.991954	2.91228
