Adsorption isotherm of Oxygen on [Cd(NDC)0.5(PCA)]*Gx
DOI: 10.1021/Ic202102m
Adsorbate Oxygen: InChIKey MYMOFIZGZYHOMD-UHFFFAOYSA-N
Temperature: 273 K
Tabular data in the source: 0
pressure (bar)	uptake (cm3(STP)/g)
0.0149134	0.113286
0.0955331	0.2823
0.162716	0.56399
0.238857	0.84568
0.312012	1.07103
0.416519	1.57807
0.516547	1.97244
0.618068	2.47948
0.721082	2.87385
0.822604	3.21188
0.873364	3.43723
0.925618	3.54991
0.974885	3.88793
