Adsorption isotherm of Nitrogen on [Cd(NDC)0.5(PCA)]*Gx
DOI: 10.1021/Ic202102m
Adsorbate Nitrogen: InChIKey IJGRMHOSHXDMSA-UHFFFAOYSA-N
Temperature: 273 K
Tabular data in the source: 0
pressure (bar)	uptake (cm3(STP)/g)
0.00894159	0.0569478
0.0701529	0.225962
0.156744	0.451314
0.206012	0.676666
0.300068	0.958356
0.353815	1.12737
0.453843	1.57807
0.549392	2.14145
0.64942	2.53582
0.750942	2.98653
0.85097	3.32455
0.898744	3.60624
0.948012	3.88793
