Adsorption isotherm of Argon on [Cd(NDC)0.5(PCA)]*Gx
DOI: 10.1021/Ic202102m
Adsorbate Argon: InChIKey XKRFYHLGVUSROY-UHFFFAOYSA-N
Temperature: 273 K
Tabular data in the source: 0
pressure (bar)	uptake (cm3(STP)/g)
0.351083	1.51214
0.399853	1.7375
0.4536	2.03797
0.50237	2.11308
0.552135	2.41355
0.603891	2.56379
0.698445	3.01449
0.79698	3.4652
0.94329	4.14125
