Adsorption isotherm of Carbon Dioxide on [Cd(NDC)0.5(PCA)]*Gx
DOI: 10.1021/Ic202102m
Adsorbate Carbon Dioxide: InChIKey CURLTUGMZLYLDI-UHFFFAOYSA-N
Temperature: 195 K
Tabular data in the source: 0
pressure (bar)	uptake (cm3(STP)/g)
0.00801532	1.36773
0.00801532	10.2489
0.00801532	21.5757
0.0123058	30.7143
0.0165962	42.5558
0.035188	51.3083
0.0680813	58.9024
0.109555	64.3083
0.198224	70.1004
0.298334	74.0905
0.395584	77.0509
0.498554	79.239
0.597234	81.1697
0.695914	82.843
0.796024	84.1301
0.893274	85.1598
0.940469	86.0608
