Adsorption isotherm of Oxygen on [Cd(NDC)0.5(PCA)]*Gx
DOI: 10.1021/Ic202102m
Adsorbate Oxygen: InChIKey MYMOFIZGZYHOMD-UHFFFAOYSA-N
Temperature: 77 K
Tabular data in the source: 0
pressure (bar)	uptake (cm3(STP)/g)
0.0130294	0.330102
0.121085	0.387308
0.475125	0.387308
0.749076	0.387308
0.992518	0.501719
