Adsorption isotherm of Nitrogen on CoPc-PDQ-COF (boiling water)
DOI: 10.1002/anie.202005274
Article source: Figure S11
Adsorbate Nitrogen: InChIKey IJGRMHOSHXDMSA-UHFFFAOYSA-N
Kind: experiment
Temperature: 77 K
Tabular data in the source: 0
pressure (bar)	uptake (cm3(STP)/g)
0.001055	18.6314
0.003625	33.8382
0.001912	49.4252
0.004482	65.7725
0.001912	79.6487
0.005767	94.4754
0.002911	109.777
0.005767	121.499
0.005767	132.746
0.00541	142.25
0.002911	154.447
0.002911	167.912
0.002198	178.049
0.003625	189.455
0.004339	200.226
0.006124	209.73
0.012906	223.353
0.020044	236.025
0.026112	247.747
0.037891	261.212
0.067873	294.952
0.091788	299.07
0.122841	301.605
0.158535	306.991
0.201367	309.525
0.243485	311.743
0.283105	312.06
0.319869	312.218
0.373409	313.01
0.421952	313.327
0.471923	314.277
0.521894	314.911
0.573292	315.861
0.622549	316.178
0.676089	317.128
0.724632	318.079
0.778173	319.98
0.827429	323.781
0.878471	327.266
0.929513	337.404
0.969132	355.779
0.994475	386.826
1.0059	402.667
1.00661	403.934
0.991262	387.46
0.969489	369.402
0.933796	347.225
0.891678	335.82
0.840993	330.751
0.790308	328.217
0.73891	325.999
0.689653	324.257
0.638968	325.999
0.588997	324.732
0.538313	323.148
0.487628	321.881
0.435516	322.673
0.384831	322.197
0.33486	321.881
0.283462	321.881
0.242057	320.297
0.202795	318.712
0.160676	314.911
0.123555	313.01
0.091788	310.792
0.067873	305.09
0.038605	291.15
0.022186	270.558
0.012906	253.133
0.008622	237.926
0.004339	225.888
0.001484	212.898
5.6e-05	199.909
-0.002086	188.821
-0.001372	177.099
5.6e-05	165.694
