Adsorption isotherm of Nitrogen on CoPc-PDQ-COF (12 M HCl)
DOI: 10.1002/anie.202005274
Article source: Figure S11
Adsorbate Nitrogen: InChIKey IJGRMHOSHXDMSA-UHFFFAOYSA-N
Kind: experiment
Temperature: 77 K
Tabular data in the source: 0
pressure (bar)	uptake (cm3(STP)/g)
0.00077	17.4275
0.00077	33.2679
0.002198	48.1579
5.6e-05	63.9984
0.00077	77.3043
-0.000658	90.6103
0.002198	107.084
0.002198	119.757
-0.001015	132.429
0.00077	143.517
0.003625	154.289
0.004339	168.862
0.002911	180.901
0.005767	189.771
0.007909	203.077
0.010407	215.75
0.01933	226.838
0.024684	237.451
0.033965	252.816
0.047171	264.538
0.061449	274.042
0.159249	294.952
0.204936	298.437
0.242771	300.338
0.282034	301.13
0.318441	299.387
0.36984	300.971
0.421238	301.922
0.471923	301.288
0.521894	301.605
0.571151	302.872
0.622549	303.506
0.674662	304.773
0.724632	304.615
0.776745	307.941
0.824574	310.159
0.874545	313.327
0.926657	325.682
0.969846	340.255
0.991619	357.363
1.00661	386.826
1.00268	385.876
0.970917	355.462
0.931654	332.652
0.89025	321.564
0.841707	318.237
0.790308	315.544
0.739624	312.693
0.689653	311.267
0.637897	312.376
0.586856	311.743
0.537599	310.475
0.4862	309.842
0.43623	310.159
0.386259	309.525
0.33486	309.208
0.284176	308.891
0.244199	307.307
0.202795	305.723
0.162818	302.872
0.122127	300.021
0.091431	297.486
0.067873	293.368
0.040033	279.745
0.020044	261.053
0.012192	243.312
0.006481	230.006
0.001484	217.334
-0.000658	203.711
-0.002086	184.386
5.6e-05	170.763
