Adsorption isotherm of Nitrogen on CoPc-PDQ-COF
DOI: 10.1002/anie.202005274
Article source: Figure 2
Adsorbate Nitrogen: InChIKey IJGRMHOSHXDMSA-UHFFFAOYSA-N
Kind: experiment
Temperature: 77 K
Tabular data in the source: 0
pressure (bar)	uptake (cm3(STP)/g)
0	17.0481
0.000761	33.7806
0.001523	50.1973
0.001523	64.7198
-0.001523	81.1365
0.001523	97.2376
0	112.076
-0.001523	125.967
0.001523	139.858
0	151.855
0.001523	164.483
0.003045	179.006
0.004568	190.371
0.004568	203.631
0.00609	216.259
0.008374	224.467
0.01218	237.096
0.022838	247.83
0.031973	266.772
0.048721	278.769
0.076888	293.923
0.093481	298.986
0.119033	303.005
0.158682	305.197
0.201856	309.034
0.239744	309.582
0.281155	309.217
0.322567	309.948
0.374552	309.948
0.423012	311.775
0.474997	312.871
0.524779	313.236
0.57368	313.602
0.626546	314.698
0.675007	315.063
0.724789	317.438
0.776333	319.448
0.826996	322.371
0.875897	325.66
0.929204	335.891
0.968413	355.257
0.99044	370.604
0.995286	385.22
1.00057	396.913
1.00454	403.125
0.969294	369.508
0.931406	346.122
0.892638	333.333
0.840653	331.141
0.789549	328.218
0.738446	324.929
0.689104	323.833
0.638	325.112
0.587778	323.467
0.537996	322.737
0.48557	321.641
0.435348	322.554
0.384244	320.91
0.335783	320.544
0.28468	320.91
0.244149	319.448
0.202737	317.986
0.163528	314.515
0.122557	311.775
0.090838	308.121
0.069691	303.736
0.040615	290.581
0.024755	269.754
0.016825	253.676
0.010658	238.329
0.005812	224.444
