Adsorption isotherm of Nitrogen on CoPc-PDQ-COF (14 M NaOH)
DOI: 10.1002/anie.202005274
Article source: Figure S11
Adsorbate Nitrogen: InChIKey IJGRMHOSHXDMSA-UHFFFAOYSA-N
Kind: experiment
Temperature: 77 K
Tabular data in the source: 0
pressure (bar)	uptake (cm3(STP)/g)
0.001484	15.8435
0.001484	31.0503
0.002911	47.0491
0.00077	61.1471
5.6e-05	76.9875
0.00077	91.5607
5.6e-05	105.5
0.00077	117.539
0.002198	130.845
0.003625	142.25
0.004339	153.338
0.00541	166.011
0.008622	179
0.011478	190.088
0.012906	202.919
0.018617	216.383
0.025398	230.323
0.033608	246.163
0.0461	260.42
0.077154	273.092
0.095	278.161
0.122127	281.329
0.16139	285.131
0.204222	287.665
0.242057	288.616
0.28132	288.932
0.324866	289.249
0.372695	289.883
0.42338	290.2
0.473351	290.833
0.525463	291.15
0.575434	292.101
0.627546	293.685
0.676803	294.635
0.725346	295.269
0.778886	297.169
0.827073	300.338
0.878828	303.822
0.930583	313.01
0.970917	331.543
0.991619	345.641
1.0009	360.531
1.01018	374.312
0.998044	371.936
1.00804	377.322
0.969489	345.008
0.931654	323.781
0.892035	312.535
0.840279	309.367
0.791022	306.832
0.739624	303.822
0.689653	301.605
0.638968	303.506
0.58757	301.922
0.536885	301.288
0.486914	300.021
0.434088	300.654
0.384831	300.338
0.335574	299.704
0.283819	298.437
0.243128	298.278
0.203508	296.219
0.16139	293.685
0.1207	291.784
0.092145	288.932
0.068587	283.864
0.04146	271.825
0.025755	253.767
0.017189	235.709
0.009336	222.719
0.006481	210.998
0.006481	198.325
0.003625	189.138
0.002911	177.416
0.002911	166.961
0.002911	153.972
