Adsorption isotherm of Nitrogen on NDA-TN
DOI: 10.1002/anie.202007895
Article source: Figure 3
Adsorbate Nitrogen: InChIKey IJGRMHOSHXDMSA-UHFFFAOYSA-N
Kind: experiment
Temperature: 77 K
Tabular data in the source: 0
pressure (bar)	uptake (cm3(STP)/g)
0.001664	7.88132
0.002496	20.051
0.000832	30.4822
0.001664	39.1748
0.000832	50.1854
0.000832	80.0301
0.001664	107.557
0.001664	136.822
0.002912	164.059
0.003328	188.688
0.004159	214.766
0.003744	236.787
0.005407	256.491
0.007487	268.66
0.010815	280.25
0.029116	301.692
0.077366	323.134
0.101491	329.219
0.120625	332.986
0.143918	335.883
0.163884	339.36
0.182185	342.837
0.203815	345.155
0.252065	350.371
0.305306	355.007
0.353556	358.484
0.40555	362.251
0.455879	366.597
0.507457	368.336
0.556539	370.654
0.608116	374.71
0.658862	377.608
0.709608	381.085
0.759106	384.562
0.810267	390.357
0.830649	392.385
0.861845	397.311
0.886386	401.368
0.911759	408.322
0.935052	417.014
0.960009	429.764
0.984134	454.103
0.992453	466.852
1.00243	491.771
1.00618	514.951
1.00576	514.951
0.975815	466.273
0.93006	428.605
0.875155	412.378
0.822746	403.975
0.772	399.05
0.720422	393.834
0.669677	390.936
0.620595	388.618
0.606453	386.88
0.557371	384.562
0.506625	382.244
0.455879	379.346
0.405134	376.449
0.35522	374.131
0.304474	368.915
0.25456	365.438
0.203399	359.933
0.165963	355.586
0.128944	350.371
0.089845	342.837
0.056153	332.986
