Adsorption isotherm of Nitrogen on BDA-TN
DOI: 10.1002/anie.202007895
Article source: Figure 3
Adsorbate Nitrogen: InChIKey IJGRMHOSHXDMSA-UHFFFAOYSA-N
Kind: experiment
Temperature: 77 K
Tabular data in the source: 0
pressure (bar)	uptake (cm3(STP)/g)
0.001553	7.45098
0.001553	17.6471
0.001937	28.297
0.003735	38.2825
0.003735	49.1757
0.002536	59.6151
0.002536	70.0545
0.004334	77.7705
0.004633	85.4866
0.004334	94.5643
0.002836	103.188
0.005532	111.358
0.005532	120.89
0.003435	128.606
0.003135	146.307
0.003735	161.739
0.003135	177.171
0.003735	194.419
0.003735	208.489
0.006731	221.198
0.008529	237.992
0.012124	247.977
0.0319	277.026
0.072949	292.004
0.084934	294.728
0.104409	298.359
0.123586	301.536
0.145758	305.167
0.167331	306.075
0.185009	310.16
0.206283	311.521
0.254223	315.606
0.304561	317.876
0.357295	322.415
0.406434	325.592
0.455573	329.677
0.505911	332.854
0.558046	337.393
0.608983	341.932
0.657522	345.563
0.708459	351.463
0.758797	356.91
0.809134	365.08
0.830707	369.619
0.861269	376.881
0.885239	385.051
0.910408	396.398
0.935577	413.646
0.958349	437.248
0.980521	474.466
0.991308	502.153
1.0009	531.656
1.00689	557.073
0.982918	516.678
0.950558	462.665
0.916401	428.17
0.883442	406.837
0.864265	398.214
0.839097	389.136
0.81273	381.874
0.760894	371.888
0.710856	364.172
0.65932	358.272
0.608383	353.733
0.558346	349.648
0.507109	345.109
0.460967	336.031
0.405236	330.131
0.318943	324.684
0.267707	320.599
0.254823	319.691
0.205084	315.379
0.166133	311.975
0.129578	307.436
0.091226	301.536
0.052874	291.55
