Adsorption isotherm of Nitrogen on NDA-TN-AO
DOI: 10.1002/anie.202007895
Article source: Figure S9
Adsorbate Nitrogen: InChIKey IJGRMHOSHXDMSA-UHFFFAOYSA-N
Kind: experiment
Temperature: 77 K
Tabular data in the source: 0
pressure (bar)	uptake (cm3(STP)/g)
0.000542	10.2209
0.000521	19.0601
0.000498	28.6792
0.000474	38.8182
0.000906	48.957
0.000425	59.6162
0.001267	88.9929
0.001199	117.85
0.000225	144.368
0.001988	169.845
0.006039	191.68
0.008302	198.438
0.010103	208.057
0.028287	228.585
0.079305	243.116
0.10118	245.185
0.122141	247.773
0.143561	249.322
0.163611	252.171
0.182753	253.2
0.203262	254.489
0.252484	257.323
0.302619	259.636
0.355488	262.728
0.404255	265.301
0.455759	266.834
0.505894	269.407
0.556029	271.46
0.607076	274.033
0.658578	276.345
0.708258	278.658
0.758847	281.751
0.809433	285.884
0.830398	287.432
0.85956	291.576
0.885989	295.462
0.911504	300.388
0.935189	307.655
0.958863	320.121
0.983423	342.986
0.991133	359.62
0.998815	387.693
1.00466	422.786
1.00557	423.046
0.986993	375.221
0.96337	341.436
0.930599	321.176
0.87776	305.605
0.823077	298.875
0.771582	293.703
0.720994	290.09
0.671771	287.257
0.658099	286.224
0.607508	284.171
0.556917	281.858
0.50587	279.286
0.456651	275.152
0.403326	272.581
0.316273	268.728
0.304422	268.474
0.252464	265.902
0.202331	262.549
0.164504	259.969
0.126679	256.61
0.088399	252.471
0.055595	246.249
