Adsorption isotherm of Nitrogen on BDA-TN-AO
DOI: 10.1002/anie.202007895
Article source: Figure S9
Adsorbate Nitrogen: InChIKey IJGRMHOSHXDMSA-UHFFFAOYSA-N
Kind: experiment
Temperature: 77 K
Tabular data in the source: 0
pressure (bar)	uptake (cm3(STP)/g)
0.000446	8.92389
0.000436	17.8478
0.000425	27.2966
0.000415	35.958
0.000405	44.6194
0.000397	51.9685
-7.1e-05	61.9423
-8.1e-05	70.3412
-9e-05	78.7402
-9.9e-05	86.6142
-0.000118	102.887
0.00032	119.16
0.000759	134.383
0.000743	148.294
0.001639	163.78
0.002993	177.69
0.005263	189.501
0.006621	199.213
0.009806	209.449
0.028958	232.546
0.072781	244.094
0.080085	245.669
0.101542	249.081
0.122545	250.919
0.142176	254.068
0.162265	256.168
0.18418	258.793
0.203357	260.367
0.253582	263.517
0.303808	265.617
0.354489	269.816
0.405171	272.441
0.455397	275.066
0.506079	277.69
0.556762	279.79
0.606988	281.89
0.658583	285.564
0.708351	288.714
0.75949	291.864
0.808343	296.588
0.830715	299.213
0.859935	302.362
0.884587	307.612
0.910151	313.648
0.934799	322.31
0.960813	333.858
0.983162	356.43
0.992278	371.129
1.00047	395.801
1.00637	423.622
1.00592	423.622
0.982752	382.327
0.941893	340.77
0.90481	325.459
0.85155	314.523
0.799042	307.506
0.76029	303.709
0.710087	299.278
0.659002	296.367
0.607477	293.076
0.557272	290.798
0.506628	287.76
0.458192	279.153
0.403804	276.115
0.316606	271.812
0.304055	271.052
0.25341	268.014
0.203648	264.217
0.165335	260.926
0.127463	257.382
0.089153	252.319
0.050845	244.977
