Adsorption isotherm of 1-Propanol on TetZB
DOI: 10.1039/c5cc00113g
Article source: Figure 1
Adsorbate 1-Propanol: InChIKey BDERNNFJNOPAEC-UHFFFAOYSA-N
Kind: experiment
Temperature: 298 K
Tabular data in the source: 0
pressure (bar)	uptake (wt%)
0	0
0.000726	2.6881
0.00121	4.07256
0.001889	5.21188
0.003542	6.18531
0.003979	6.99926
0.004512	8.46509
0.005379	13.9245
0.007162	24.1095
0.007988	24.9223
0.01013	24.6715
0.01407	25.5568
0.018107	26.0341
0.02414	26.8317
