Adsorption isotherm of 2-Propanol on TetZB
DOI: 10.1039/c5cc00113g
Article source: Figure 1
Adsorbate 2-Propanol: InChIKey KFZMGEQAYNKOFK-UHFFFAOYSA-N
Kind: experiment
Temperature: 298 K
Tabular data in the source: 0
pressure (bar)	uptake (wt%)
0	0
0.002063	5.37762
0.002789	6.0288
0.00518	6.75924
0.007363	7.24539
0.011939	7.97284
0.015683	8.6199
0.01776	9.92141
0.020967	15.1344
0.024599	18.3088
0.030105	20.747
0.044451	24.9665
