Adsorption isotherm of Methanol on TetZB
DOI: 10.1039/c5cc00113g
Article source: Figure 1
Adsorbate Methanol: InChIKey OKKJLVBELUTLKV-UHFFFAOYSA-N
Kind: experiment
Temperature: 298 K
Tabular data in the source: 0
pressure (bar)	uptake (wt%)
0	0
0.009393	4.97283
0.019961	7.41848
0.026418	7.33696
0.030528	8.2337
0.038747	15.8152
0.047846	20.462
0.059294	24.538
0.065459	25.2717
0.080136	25.2717
0.098335	26.25
0.118589	26.8207
0.135027	27.3913
