Adsorption isotherm of Water on TetZB
DOI: 10.1039/c5cc00113g
Article source: Figure 1
Adsorbate Water: InChIKey XLYOFNOQVPJJNP-UHFFFAOYSA-N
Kind: experiment
Temperature: 298 K
Tabular data in the source: 0
pressure (bar)	uptake (wt%)
0	0
0.001751	0.244565
0.002189	0.244565
0.003174	0.407609
0.006293	0.733696
0.009357	1.05978
0.012477	1.38587
0.015706	1.54891
0.018825	1.95652
0.022053	2.52717
