Adsorption isotherm of Ethanol on TetZB
DOI: 10.1039/c5cc00113g
Article source: Figure 1
Adsorbate Ethanol: InChIKey LFQSCWFLJHTTHZ-UHFFFAOYSA-N
Kind: experiment
Temperature: 298 K
Tabular data in the source: 0
pressure (bar)	uptake (wt%)
0	0
0.001752	2.6087
0.00445	5.95109
0.008786	6.92935
0.010002	7.90761
0.01321	18.5054
0.018739	25.7609
0.020906	26.4946
0.024706	26.25
0.029723	26.7391
0.034469	27.0652
0.039487	27.3098
0.044233	27.6359
0.049252	27.7174
0.05427	27.962
0.059288	28.2065
0.064306	28.3696
