Adsorption isotherm of Nitrogen on HKUST-1@TiO2
DOI: 10.1021/acs.iecr.6b01400
Article source: Figure 3
Adsorbate Nitrogen: InChIKey IJGRMHOSHXDMSA-UHFFFAOYSA-N
Kind: experiment
Temperature: 77 K
Tabular data in the source: 0
pressure (bar)	uptake (cm3(STP)/g)
-0.000907	107.994
0.011194	130.237
0.019012	133.734
0.028574	136.28
0.044229	138.192
0.053793	140.102
0.083365	143.29
0.11033	145.207
0.135561	145.852
0.16514	146.817
0.188628	148.097
0.211249	148.423
0.240829	149.388
0.26519	149.715
0.292159	150.996
0.317387	152.277
0.363496	153.883
0.409607	154.854
0.461807	156.463
0.512267	157.753
0.561855	159.679
0.614056	160.97
0.662774	162.895
0.710625	164.185
0.758468	167.38
0.811529	171.531
0.856753	177.267
0.909764	195.078
0.967858	251.014
0.984373	255.786
0.998288	257.38
1.00177	257.699
0.992201	256.424
0.969587	254.192
0.960018	253.553
0.949579	252.913
0.931312	251.635
0.909566	250.038
0.884336	249.234
0.861721	247.161
0.812261	209.654
0.761872	188.667
0.711428	182.611
0.665321	180.369
0.612254	178.125
0.555703	176.832
0.50616	162.199
0.454845	156.778
0.403519	154.216
0.351318	152.925
0.304335	152.272
0.277367	150.99
0.250397	150.344
0.225166	149.699
0.200807	148.737
0.174706	148.409
0.150348	147.129
0.124247	146.483
0.099893	144.25
0.081624	143.289
0.061617	142.011
