Adsorption isotherm of Nitrogen on CuBTC
DOI: 10.1021/acs.iecr.6b01400
Article source: Figure 3
Adsorbate Nitrogen: InChIKey IJGRMHOSHXDMSA-UHFFFAOYSA-N
Kind: experiment
Temperature: 77 K
Tabular data in the source: 0
pressure (bar)	uptake (cm3(STP)/g)
-0.000889	236.985
-0.000938	250.663
0.001465	254.414
0.005683	257.725
0.014729	262.362
0.031028	266.78
0.043103	269.433
0.052767	270.319
0.085982	275.185
0.111957	277.181
0.138537	278.736
0.163306	280.069
0.187471	281.182
0.212847	281.633
0.240033	282.967
0.266614	284.301
0.291387	284.311
0.318575	284.983
0.367515	285.885
0.410413	286.563
0.463579	288.128
0.513124	288.81
0.566296	288.83
0.615235	289.732
0.665386	289.752
0.719161	290.214
0.769309	291.116
0.81946	291.135
0.865379	291.594
0.916135	291.394
0.973533	292.519
0.991658	292.967
1.00495	293.634
0.985012	292.965
0.962657	292.515
0.944533	291.846
0.92399	291.617
0.902842	291.388
0.879882	291.38
0.851484	290.927
0.798918	290.465
0.751788	290.668
0.697409	289.985
0.648467	289.966
0.597108	289.725
0.545752	288.822
0.496208	288.141
0.446057	287.901
0.395911	286.558
0.346972	285.656
0.295615	284.974
0.272656	284.303
0.247283	283.19
0.223721	282.299
0.197138	281.406
0.173579	279.852
0.148809	278.96
0.125247	278.069
0.101084	276.294
0.079339	274.3
0.060012	271.866
