Adsorption isotherm of Nitrogen on COF-112-Co
DOI: 10.1021/jacs.7b07457
Article source: Figure S6
Adsorbate Nitrogen: InChIKey IJGRMHOSHXDMSA-UHFFFAOYSA-N
Kind: experiment
Temperature: 77 K
Tabular data in the source: 0
pressure (bar)	uptake (cm3(STP)/g)
0.002471	2.95809
0.007414	5.32457
0.015446	6.70501
0.02842	7.69104
0.038924	8.67708
0.05993	9.4659
0.071669	10.0575
0.08279	10.8463
0.095147	11.438
0.103796	11.6352
0.136542	12.424
0.169905	13.2128
0.205121	14.1988
0.229217	14.5933
0.255166	15.1849
0.279879	15.7765
0.305829	16.3681
0.330542	16.5653
0.356491	17.7486
0.381822	18.143
0.406536	18.9318
0.45658	20.115
0.507861	21.4955
0.558523	22.6787
0.60795	24.4536
0.658613	26.0312
0.706804	28.0033
0.758084	30.1726
0.809982	33.1306
0.87053	37.8636
0.918721	44.1742
0.960734	56.5982
1.00275	217.716
0.008032	5.32457
0.053134	9.26869
0.097	11.2408
0.130363	12.2268
0.20265	14.7905
0.252077	15.5793
0.297179	16.7625
0.330542	17.5514
0.362669	18.3402
0.394179	19.129
0.420128	19.5234
0.448548	20.5094
0.481912	21.4955
0.486236	21.4955
0.590651	24.6508
0.694447	28.0033
0.795772	32.9334
0.87918	39.8357
1.00213	217.913
