Adsorption isotherm of Nitrogen on LZU-1
DOI: 10.1021/jacs.7b07457
Article source: Figure S21
Adsorbate Nitrogen: InChIKey IJGRMHOSHXDMSA-UHFFFAOYSA-N
Kind: experiment
Temperature: 77 K
Tabular data in the source: 0
pressure (bar)	uptake (cm3(STP)/g)
0.009106	22.3587
0.01904	55.3645
0.032285	72.3997
0.039735	80.4914
0.052153	87.5184
0.063742	93.4808
0.074504	98.3784
0.085265	102.424
0.095199	106.257
0.107616	109.664
0.12914	115.414
0.154802	120.524
0.20116	128.403
0.251657	135.856
0.303809	143.096
0.354306	148.632
0.405631	155.02
0.4553	160.344
0.507453	165.242
0.557122	169.926
0.608447	175.037
0.659771	179.296
0.709441	184.406
0.759937	189.091
0.81209	193.776
0.860104	199.099
0.9106	204.636
0.958614	213.792
0.985104	228.272
0.100994	138.837
0.206955	161.622
0.301326	172.907
0.399009	181.425
0.500002	188.665
0.600169	194.627
0.703646	199.525
0.805468	204.636
0.906461	211.024
0.98676	229.762
