Adsorption isotherm of Water on C76H116N14O42Zn3
DOI: 10.1071/Ch12270
Adsorbate Water: InChIKey XLYOFNOQVPJJNP-UHFFFAOYSA-N
Temperature: 298 K
Tabular data in the source: 0
pressure (bar)	uptake (cm3(STP)/g)
0.00763756	4.98551
0.0280044	15.7906
0.0509171	24.1081
0.0763756	34.9173
0.101834	43.2369
0.13493	54.8823
0.162935	61.5442
0.188393	69.034
0.216398	74.866
0.236764	78.2022
0.259677	82.3704
0.287682	86.5427
0.300411	89.8726
0.318232	92.3768
0.341144	95.7151
0.366603	100.715
0.402245	106.554
0.437887	111.562
0.468437	115.736
0.488804	119.902
0.504079	123.234
0.524446	125.741
0.55245	130.743
0.585546	137.409
0.605913	141.575
0.618643	144.075
0.644101	147.416
0.65683	150.745
0.679743	152.424
0.702656	159.082
0.723023	162.418
0.756119	168.254
0.786669	174.918
0.807036	178.254
0.837586	184.088
0.855407	189.912
0.883411	195.744
0.911416	204.066
0.934329	208.234
0.957241	214.892
0.9827	224.041
0.997975	231.523
