Adsorption isotherm of Carbon Dioxide on C76H116N14O42Zn3
DOI: 10.1071/Ch12270
Adsorbate Carbon Dioxide: InChIKey CURLTUGMZLYLDI-UHFFFAOYSA-N
Temperature: 195 K
Tabular data in the source: 0
pressure (bar)	uptake (cm3(STP)/g)
0	7.46888
0.00509171	20.7511
0.0152751	26.5685
0.0254585	34.8756
0.0458254	37.3819
0.0687381	41.5501
0.0967425	41.573
0.13493	47.4134
0.157843	49.9218
0.221489	49.9739
0.264769	51.6691
0.310594	51.7067
0.364057	52.5803
0.414974	52.622
0.468437	52.6658
0.516808	54.3652
0.570271	53.5791
0.623734	53.6229
0.674651	54.4945
0.720477	55.3619
0.776486	57.0675
0.822311	56.2752
0.875774	57.1488
0.921599	57.1863
0.992883	57.2447
1.0158	58.9232
