Adsorption isotherm of Nitrogen on C76H116N14O42Zn3
DOI: 10.1071/Ch12270
Adsorbate Nitrogen: InChIKey IJGRMHOSHXDMSA-UHFFFAOYSA-N
Temperature: 77 K
Tabular data in the source: 0
pressure (bar)	uptake (cm3(STP)/g)
0.0305503	0.0250214
0.0611005	0.0500427
0.117109	0.925791
0.160389	0.961238
0.211306	1.00294
0.264769	0.216852
0.315686	1.08843
0.364057	1.12805
0.41752	1.17183
0.468437	1.21354
0.519354	2.08511
0.570271	1.29694
0.621188	2.16852
0.672106	2.21022
0.717931	2.24775
0.77394	2.29363
0.822311	3.16312
0.870682	2.37286
0.919053	3.24235
0.967425	4.94172
0.992883	10.7717
1.00561	16.5913
