Adsorption isotherm of Nitrogen on TPB2-COF
DOI: 10.1021/acssuschemeng.8b05887
Article source: Figure 2
Adsorbate Nitrogen: InChIKey IJGRMHOSHXDMSA-UHFFFAOYSA-N
Kind: experiment
Temperature: 77 K
Tabular data in the source: 0
pressure (bar)	uptake (cm3(STP)/g)
1.00451	469
0	9.5
0	26
0	45
0	63
0	79.5
0	96
0	110.5
0	125
0.003279	139
0.009837	154
0.01421	167
0.022954	181
0.03935	192
0.056838	195
0.073234	200
0.088536	202
0.109304	203
0.147561	209
0.179259	209
0.217515	215
0.242655	223
0.272167	216
0.303866	228
0.325727	226
0.324633	215
0.353053	228
0.36289	222
0.381472	229
0.390216	220
0.400053	231
0.415356	223
0.4241	232
0.437217	223
0.454706	234
0.466729	227
0.484218	236
0.504985	238
0.492962	227
0.512637	227
0.521381	239
0.534498	228
0.551986	242
0.561824	231
0.582591	242
0.592429	232
0.602266	244
0.613197	233
0.621941	245
0.63615	236
0.653639	250
0.666756	238
0.683151	250
0.692989	241
0.702826	249
0.715943	240
0.723594	253
0.735617	245
0.753106	254
0.767316	246
0.78699	257
0.799014	248
0.808851	262
0.817595	251
0.830712	265
0.835084	257
0.860224	274
0.862957	258.5
0.886457	278
0.890829	264
0.90176	286
0.91269	273
0.925807	300
0.961877	304
0.967342	308
0.96297	339
0.989203	348
0.969528	362
0.983738	395
0.990296	380
1.00232	426
0.995761	445
