Adsorption isotherm of Nitrogen on TPB2-COF after 5 runs
DOI: 10.1021/acssuschemeng.8b05887
Article source: Figure 3e
Adsorbate Nitrogen: InChIKey IJGRMHOSHXDMSA-UHFFFAOYSA-N
Kind: experiment
Temperature: 77 K
Tabular data in the source: 0
pressure (bar)	uptake (cm3(STP)/g)
0.002007	71.5093
0.000868	57.2472
-8.1e-05	47.5459
0.000185	36.9357
0.000868	26.9448
0.000868	17.3633
0.009979	85.9485
0.039591	96.3237
0.069203	101.908
0.098815	105.65
0.128427	108.825
0.158039	111.575
0.18765	113.928
0.217262	115.969
0.246874	117.811
0.276486	119.285
0.306098	121.043
0.335709	122.517
0.365321	124.076
0.394933	125.465
0.424545	126.627
0.454157	127.789
0.483769	129.093
0.51338	130.256
0.542992	131.531
0.572604	132.807
0.602216	133.998
0.631828	135.16
0.66144	136.039
0.691051	136.917
0.720663	138.505
0.750275	139.951
0.779887	141.056
0.839111	143.069
0.868722	144.741
0.898334	147.094
0.983981	159.678
0.948838	151.904
0.824969	142.685
1.01697	174.749
0.001239	64.9299
0.004955	79.7595
0.052025	127.054
0.08547	132.265
0.121392	135.872
0.159791	137.876
0.194475	140.281
0.232874	141.483
0.267557	142.285
0.30348	143.086
0.315866	143.086
0.355505	144.689
0.392665	145.09
0.445929	146.293
0.481851	146.693
0.497954	149.098
0.531399	152.705
0.57723	153.106
0.606959	152.705
0.641642	153.507
0.678803	154.309
0.712248	154.709
0.749409	155.11
0.786569	155.511
0.822491	155.912
0.855936	157.114
0.893097	157.515
0.930258	159.118
0.972373	163.527
0	10.8216
0	4.40882
