Adsorption isotherm of Nitrogen on Tfp2-COF
DOI: 10.1021/acssuschemeng.8b05887
Article source: Figure 2
Adsorbate Nitrogen: InChIKey IJGRMHOSHXDMSA-UHFFFAOYSA-N
Kind: experiment
Temperature: 77 K
Tabular data in the source: 0
pressure (bar)	uptake (cm3(STP)/g)
1.00232	386
1.0056	372
1.00232	343
0.994668	303
0.98811	285
0.956412	243
0.915969	222
0.888643	220
0.864596	212
0.835084	210
0.818689	206
0.792456	206
0.765129	205
0.733431	200
0.717036	200
0.696268	197
0.667849	198
0.63943	194
0.61429	193
0.592429	193
0.567289	192
0.536684	191
0.515916	191
0.492962	191
0.466729	188
0.451426	190
0.435031	187
0.4241	190
0.401146	190
0.41317	182
0.382565	188
0.390216	183
0.355239	188
0.361797	184
0.324633	185
0.324633	181
0.30168	186
0.268888	181
0.245934	182
0.220794	179
0.190189	181
0.166142	179
0.179259	175
0.142095	177
0.146468	172
0.102746	175
0.109304	169
0.089629	169
0.07542	167
0.06121	166
0.045908	163
0.043722	166
0.069955	169
0.028419	152
0.015303	150
0.007651	139
0.007651	133
0.002186	122
0.002186	108
0.001093	99
0.001093	90
0.001093	85
0.001093	76
0	69
0.000547	58
0	47
0	36.5
0	26
0	16
0.000547	4
0.99904	369
0.987017	331
0.9739	304
0.958598	270
0.931272	248
0.902853	231
0.88755	228
0.864596	223
0.818689	216
0.802293	215
0.781525	213
0.752013	210
0.723594	206
0.706105	205
0.684244	205
0.655825	205
0.620848	204
0.602266	201
0.581498	202
0.554172	198
0.525753	198
0.504985	197
0.486404	196
0.00164	114.5
