Adsorption isotherm of Nitrogen on Tfp2-COF after 5 runs
DOI: 10.1021/acssuschemeng.8b05887
Article source: Figure 3f
Adsorbate Nitrogen: InChIKey IJGRMHOSHXDMSA-UHFFFAOYSA-N
Kind: experiment
Temperature: 77 K
Tabular data in the source: 0
pressure (bar)	uptake (cm3(STP)/g)
0.001512	53.9904
0.000967	37.1606
0.000967	25.6401
0.00157	12.3454
0.002775	74.3208
0.000208	5.7513
0.008936	88.7184
0.05447	122.473
0.084068	130.606
0.113665	135.234
0.143262	138.739
0.17286	141.461
0.202457	143.843
0.232054	145.783
0.261652	147.757
0.291249	149.73
0.320846	151.364
0.350444	152.691
0.380041	154.086
0.409639	155.447
0.439236	156.468
0.468833	157.795
0.498431	159.054
0.528028	160.416
0.557625	161.573
0.587223	162.287
0.61682	162.525
0.703791	165.142
0.735209	166.983
0.764807	168.515
0.794404	170.897
0.883196	177.771
0.912794	180.935
0.943672	186.098
0.967977	195.831
0.836451	174.076
0.659652	163.684
1.01176	233.256
0.002229	63.5104
0.000743	46.1894
0.054971	150.693
0.087657	160.508
0.121828	163.395
0.161942	167.148
0.191656	168.88
0.231027	171.189
0.264455	172.633
0.304569	173.788
0.337255	173.788
0.377369	175.52
0.410054	175.52
0.439768	175.52
0.484339	178.118
0.518511	184.18
0.552682	184.758
0.586853	185.335
0.626967	185.912
0.658167	185.912
0.693824	187.644
0.729481	187.644
0.769595	188.222
0.800794	188.799
0.839423	189.954
0.876565	193.418
0.915194	195.727
0.946393	201.501
0.973136	209.007
0.011886	97.5751
0.004457	81.9861
