Adsorption isotherm of Benzene on AlPO4-5
DOI: 10.1007/s10450-005-5400-2
Adsorbate Benzene: InChIKey UHOVQNZJYSORNB-UHFFFAOYSA-N
Temperature: 323 K
Tabular data in the source: 0
pressure (bar)	uptake (mmol/g)
0.00374465	0.934135
0.00549289	0.972636
0.00828339	1.0111
0.0124586	1.03236
0.0152404	1.04082
0.0194106	1.04493
0.0235808	1.04905
0.0267088	1.05321
0.0312252	1.05303
0.0350493	1.06145
0.0440821	1.06109
0.0506842	1.06511
0.0579787	1.06053
0.0621477	1.06036
0.0663167	1.06019
0.0715292	1.06427
0.076393	1.06407
0.0829939	1.06381
0.0875103	1.06363
0.0916793	1.06346
0.0944586	1.06335
0.0979328	1.06321
0.10245	1.06731
