Adsorption isotherm of Benzene on Silicalite MFI
DOI: 10.1007/s10450-005-5400-2
Adsorbate Benzene: InChIKey UHOVQNZJYSORNB-UHFFFAOYSA-N
Temperature: 395 K
Tabular data in the source: 0
pressure (bar)	uptake (mmol/g)
0.0011102	0.0852665
0.00221469	0.145455
0.0036828	0.205643
0.00551337	0.260815
0.00808027	0.356113
0.0102744	0.411285
0.0124652	0.451411
0.0157513	0.511599
0.0193977	0.55674
0.0230428	0.596865
0.0270505	0.631975
0.031057	0.662069
0.037611	0.702194
0.04489	0.732288
0.0499862	0.757367
0.0558073	0.772414
0.0616284	0.787461
0.067812	0.797492
0.0714515	0.812539
0.076542	0.812539
0.0845448	0.827586
0.0889103	0.837618
0.0961847	0.847649
