Adsorption isotherm of Benzene on Silicalite MFI
DOI: 10.1007/s10450-005-5400-2
Adsorbate Benzene: InChIKey UHOVQNZJYSORNB-UHFFFAOYSA-N
Temperature: 373 K
Tabular data in the source: 0
pressure (bar)	uptake (mmol/g)
0.00113641	0.200627
0.00187844	0.265831
0.0033625	0.396238
0.00593511	0.516614
0.00849517	0.581818
0.0114234	0.667085
0.0150731	0.727273
0.0187172	0.762382
0.0216295	0.777429
0.0249088	0.807524
0.0296425	0.837618
0.0358283	0.85768
0.042379	0.882759
0.0514725	0.897806
0.0576573	0.912853
0.0663861	0.922884
0.0729322	0.9279
0.0794782	0.932915
0.0885707	0.942947
0.0936611	0.942947
