Adsorption isotherm of Benzene on Silicalite MFI
DOI: 10.1007/s10450-005-5400-2
Adsorbate Benzene: InChIKey UHOVQNZJYSORNB-UHFFFAOYSA-N
Temperature: 323 K
Tabular data in the source: 0
pressure (bar)	uptake (mmol/g)
0.000841196	0.501567
0.000859433	0.581818
0.00163224	0.782445
0.00310604	0.867712
0.00457415	0.9279
0.00749782	0.993103
0.0104158	1.03323
0.0151518	1.07335
0.0198844	1.09843
0.0235261	1.12351
0.030079	1.15862
0.0369944	1.18871
0.0428167	1.20878
0.0475447	1.21379
0.0519114	1.22884
0.0566394	1.23386
0.0628241	1.2489
0.0697349	1.25893
0.0726449	1.26395
0.0788274	1.26897
0.0853746	1.279
0.0901026	1.28401
0.0933762	1.28903
0.0962862	1.29404
