Adsorption isotherm of Benzene on EU-1
DOI: 10.1007/s10450-005-5400-2
Adsorbate Benzene: InChIKey UHOVQNZJYSORNB-UHFFFAOYSA-N
Temperature: 362 K
Tabular data in the source: 0
pressure (bar)	uptake (mmol/g)
0.000882583	0.645161
0.00301175	0.791398
0.00513469	0.916129
0.00724142	0.984946
0.0114349	1.05376
0.0156197	1.09247
0.0229334	1.12688
0.0267642	1.14409
0.033027	1.15269
0.0375509	1.16129
0.0410289	1.16129
0.0476408	1.17419
0.0525112	1.17849
0.0577281	1.17849
0.0643388	1.1871
0.0709457	1.1828
0.0772073	1.1871
0.0834677	1.1871
0.0893815	1.1914
0.0959896	1.1914
