Adsorption isotherm of Benzene on Silicalite MFI
DOI: 10.1007/s10450-005-5400-2
Adsorbate Benzene: InChIKey UHOVQNZJYSORNB-UHFFFAOYSA-N
Temperature: 373 K
Tabular data in the source: 0
pressure (bar)	uptake (mmol/g)
0.00126943	0.193365
0.00208581	0.232898
0.00372003	0.316361
0.00454376	0.377872
0.00616769	0.430566
0.0102099	0.509553
0.0178661	0.588422
0.0255092	0.62773
0.030734	0.640745
0.0367619	0.653733
0.043593	0.666695
0.0504212	0.670865
0.0568478	0.675049
0.0636774	0.683615
0.0676931	0.683482
0.0729135	0.68331
0.0813493	0.691823
0.0837573	0.687348
