Adsorption isotherm of Benzene on Silicalite MFI
DOI: 10.1007/s10450-005-5400-2
Adsorbate Benzene: InChIKey UHOVQNZJYSORNB-UHFFFAOYSA-N
Temperature: 373 K
Tabular data in the source: 0
pressure (bar)	uptake (mmol/g)
0.00150686	0.230721
0.00335453	0.361129
0.00408972	0.396238
0.00483289	0.466458
0.00703276	0.546708
0.0092258	0.596865
0.0106882	0.631975
0.0143357	0.682132
0.01689	0.722257
0.0194421	0.752351
0.0234486	0.782445
0.0281824	0.812539
0.0310958	0.832602
0.036192	0.85768
0.0391031	0.867712
0.0427414	0.877743
0.0460162	0.887774
0.0496545	0.897806
0.0529292	0.907837
0.056204	0.917868
0.0594776	0.922884
0.0631148	0.9279
0.0682076	0.937931
0.0718448	0.942947
0.075482	0.947962
0.0787556	0.952978
0.0823928	0.957994
0.0860311	0.968025
0.0893047	0.973041
0.0929408	0.973041
0.096578	0.978056
