Adsorption isotherm of Benzene on Silicalite MFI
DOI: 10.1007/s10450-005-5400-2
Adsorbate Benzene: InChIKey UHOVQNZJYSORNB-UHFFFAOYSA-N
Temperature: 303 K
Tabular data in the source: 0
pressure (bar)	uptake (mmol/g)
0.00040097	0.0709677
0.000801939	0.522581
0.00120291	0.606452
0.00280679	0.690323
0.00601454	0.735484
0.00801939	0.748387
0.0104252	0.787097
0.0108262	0.987097
0.0148359	1.04516
0.0176427	1.09677
0.0212514	1.14194
0.0224543	1.16774
0.0252611	1.1871
0.026865	1.23871
0.0304737	1.31613
0.0340824	1.34839
0.040097	1.36129
0.052928	1.39355
0.06616	1.41935
0.079392	1.43871
0.0974356	1.48387
