Adsorption isotherm of Benzene on AlPO4-5
DOI: 10.1007/s10450-005-5400-2
Adsorbate Benzene: InChIKey UHOVQNZJYSORNB-UHFFFAOYSA-N
Temperature: 323 K
Tabular data in the source: 0
pressure (bar)	uptake (mmol/g)
0.00090204	0.715678
0.00127675	0.809949
0.00198647	0.861349
0.00792232	0.963967
0.0141857	0.998001
0.0207941	1.02345
0.0312228	1.04446
0.0527725	1.07788
0.0791835	1.10253
0.104199	1.10581
