Adsorption isotherm of Benzene on Silicalite MFI
DOI: 10.1007/s10450-005-5400-2
Adsorbate Benzene: InChIKey UHOVQNZJYSORNB-UHFFFAOYSA-N
Temperature: 415 K
Tabular data in the source: 0
pressure (bar)	uptake (mmol/g)
0.00365089	0.10977
0.00688992	0.188784
0.00931405	0.23266
0.0121397	0.276523
0.0157671	0.315964
0.019393	0.351009
0.0230174	0.381659
0.0274435	0.407886
0.0310664	0.434141
0.035491	0.455973
0.0403158	0.473396
0.0471498	0.495149
0.0523761	0.512559
0.0576023	0.529969
0.0636288	0.538562
0.0684506	0.547194
0.0752817	0.560155
0.0825129	0.568708
0.0877362	0.577327
0.0937612	0.581524
0.100589	0.585695
0.107822	0.598643
