Adsorption isotherm of Benzene on EU-1
DOI: 10.1007/s10450-005-5400-2
Adsorbate Benzene: InChIKey UHOVQNZJYSORNB-UHFFFAOYSA-N
Temperature: 383 K
Tabular data in the source: 0
pressure (bar)	uptake (mmol/g)
0.00146723	0.262366
0.00148094	0.309677
0.00184245	0.356989
0.00220396	0.404301
0.00291576	0.460215
0.00362383	0.503226
0.00398658	0.554839
0.00504743	0.615054
0.00576172	0.67957
0.00787593	0.774194
0.00962738	0.817204
0.0113813	0.868817
0.0138296	0.916129
0.0173213	0.963441
0.0218527	0.997849
0.0277739	1.02796
0.0343908	1.05806
0.0476158	1.08817
0.0643176	1.11398
0.0789288	1.12688
0.0952778	1.13548
