Adsorption isotherm of Benzene on Silicalite MFI
DOI: 10.1007/s10450-005-5400-2
Adsorbate Benzene: InChIKey UHOVQNZJYSORNB-UHFFFAOYSA-N
Temperature: 323 K
Tabular data in the source: 0
pressure (bar)	uptake (mmol/g)
0.000535425	0.399982
0.00136504	0.479076
0.0021976	0.566961
0.0030228	0.632867
0.00504241	0.667966
0.00947144	0.702984
0.0142991	0.729199
0.0183177	0.737858
0.0219392	0.759716
0.0259593	0.772771
0.0295778	0.785838
0.0335979	0.798892
0.0356131	0.820804
