Adsorption isotherm of Benzene on AlPO4-5
DOI: 10.1007/s10450-005-5400-2
Adsorbate Benzene: InChIKey UHOVQNZJYSORNB-UHFFFAOYSA-N
Temperature: 273 K
Tabular data in the source: 0
pressure (bar)	uptake (mmol/g)
0.000630312	0.977118
0.000991376	1.02425
0.00135368	1.07566
0.00310441	1.12273
0.00589118	1.14833
0.00867547	1.16537
0.012502	1.18235
0.0163323	1.2122
