Adsorption isotherm of Benzene on EU-1
DOI: 10.1007/s10450-005-5400-2
Adsorbate Benzene: InChIKey UHOVQNZJYSORNB-UHFFFAOYSA-N
Temperature: 461 K
Tabular data in the source: 0
pressure (bar)	uptake (mmol/g)
0.01048	0.15914
0.0216407	0.266667
0.0251262	0.292473
0.0286141	0.326882
0.0348845	0.36129
0.0435956	0.417204
0.0512584	0.455914
0.0585721	0.490323
0.0662349	0.529032
0.0742429	0.55914
0.0801617	0.580645
0.0867736	0.593548
0.093388	0.615054
0.0996533	0.632258
