Adsorption isotherm of Benzene on Silicalite MFI
DOI: 10.1007/s10450-005-5400-2
Adsorbate Benzene: InChIKey UHOVQNZJYSORNB-UHFFFAOYSA-N
Temperature: 273 K
Tabular data in the source: 0
pressure (bar)	uptake (mmol/g)
6.04e-05	6.04e-05
0.000120745	0.427149
0.000181117	0.876018
0.000301862	0.977376
0.000603724	1.06425
0.000845214	1.13665
0.00132819	1.18009
0.00163005	1.24525
0.00205266	1.28145
0.00253564	1.34661
0.00362234	1.44796
0.00482979	1.5276
0.00591649	1.58552
0.00730506	1.61448
0.00959921	1.65792
0.0137649	1.68688
