Adsorption isotherm of Benzene on EU-1
DOI: 10.1007/s10450-005-5400-2
Adsorbate Benzene: InChIKey UHOVQNZJYSORNB-UHFFFAOYSA-N
Temperature: 423 K
Tabular data in the source: 0
pressure (bar)	uptake (mmol/g)
0.00563083	0.227957
0.00773756	0.296774
0.00949151	0.348387
0.0122951	0.421505
0.0147434	0.468817
0.0175407	0.52043
0.0203356	0.563441
0.0238285	0.615054
0.0276667	0.658065
0.0318515	0.696774
0.0381281	0.752688
0.0437016	0.782796
0.0489273	0.812903
0.0555454	0.847312
0.0618145	0.877419
0.0670364	0.894624
0.0739986	0.916129
0.0813086	0.937634
0.0910544	0.963441
0.0980128	0.972043
0.104974	0.989247
