Adsorption isotherm of Benzene on EU-1
DOI: 10.1007/s10450-005-5400-2
Adsorbate Benzene: InChIKey UHOVQNZJYSORNB-UHFFFAOYSA-N
Temperature: 441 K
Tabular data in the source: 0
pressure (bar)	uptake (mmol/g)
0.00560714	0.146237
0.00805295	0.184946
0.0111993	0.24086
0.0146923	0.292473
0.018882	0.348387
0.0223712	0.387097
0.0276056	0.447312
0.0349268	0.507527
0.0401563	0.550538
0.0481731	0.610753
0.0561824	0.645161
0.0634973	0.683871
0.0739437	0.726882
0.0819493	0.748387
0.0885649	0.774194
0.0937856	0.787097
