Adsorption isotherm of Benzene on Silicalite MFI
DOI: 10.1007/s10450-005-5400-2
Adsorbate Benzene: InChIKey UHOVQNZJYSORNB-UHFFFAOYSA-N
Temperature: 323 K
Tabular data in the source: 0
pressure (bar)	uptake (mmol/g)
0.000877671	0.662069
0.00237199	0.837618
0.00494003	0.937931
0.0209798	1.1185
0.027894	1.14357
0.034081	1.16865
0.0409941	1.18871
0.0537283	1.22382
0.0602766	1.23887
0.0682794	1.25392
0.0733721	1.26395
0.0788297	1.279
0.0962896	1.30909
