Adsorption isotherm of Benzene on EU-1
DOI: 10.1007/s10450-005-5400-2
Adsorbate Benzene: InChIKey UHOVQNZJYSORNB-UHFFFAOYSA-N
Temperature: 481 K
Tabular data in the source: 0
pressure (bar)	uptake (mmol/g)
0.00767897	0.0946237
0.0104651	0.107527
0.0139493	0.129032
0.0160386	0.137634
0.0202196	0.163441
0.0268365	0.193548
0.0334534	0.223656
0.0425073	0.262366
0.0484261	0.283871
0.0564342	0.313978
0.0654881	0.352688
0.0741918	0.382796
0.0881162	0.425806
0.10552	0.473118
