Adsorption isotherm of Benzene on EU-1
DOI: 10.1007/s10450-005-5400-2
Adsorbate Benzene: InChIKey UHOVQNZJYSORNB-UHFFFAOYSA-N
Temperature: 481 K
Tabular data in the source: 0
pressure (bar)	uptake (mmol/g)
0.0122066	0.116129
0.0177801	0.146237
0.0243982	0.180645
0.0292773	0.215054
0.0365898	0.245161
0.0435545	0.275269
0.0505191	0.305376
0.056787	0.331183
0.062358	0.352688
0.0689711	0.369892
0.0752352	0.382796
0.0828942	0.408602
0.0902017	0.421505
0.0975104	0.43871
0.101339	0.447312
0.105166	0.451613
