Adsorption isotherm of Benzene on EU-1
DOI: 10.1007/s10450-005-5400-2
Adsorbate Benzene: InChIKey UHOVQNZJYSORNB-UHFFFAOYSA-N
Temperature: 383 K
Tabular data in the source: 0
pressure (bar)	uptake (mmol/g)
0.0025555	0.417204
0.00362258	0.498925
0.0046909	0.584946
0.00610453	0.662366
0.00751691	0.735484
0.00997019	0.8
0.0124222	0.860215
0.0152221	0.92043
0.0197571	0.967742
0.0242885	1.00215
0.0288186	1.03226
0.035433	1.05376
0.0423976	1.08387
0.047273	1.10538
0.0514466	1.10538
0.0594497	1.11828
0.0678006	1.13118
0.0733666	1.13548
0.0803238	1.13978
0.0872822	1.14839
0.0935426	1.14839
