Adsorption isotherm of Benzene on Silicalite MFI
DOI: 10.1007/s10450-005-5400-2
Adsorbate Benzene: InChIKey UHOVQNZJYSORNB-UHFFFAOYSA-N
Temperature: 348 K
Tabular data in the source: 0
pressure (bar)	uptake (mmol/g)
0.00117859	0.386207
0.00156271	0.476489
0.0023036	0.536677
0.00268316	0.606897
0.00342406	0.667085
0.00526033	0.747335
0.00708976	0.797492
0.0111054	0.867712
0.0151142	0.907837
0.0202138	0.947962
0.0249475	0.978056
0.0296801	1.00313
0.0355012	1.01818
0.0435051	1.03824
0.0496898	1.05329
0.0551462	1.06332
0.062057	1.07335
0.0667839	1.07335
0.0736958	1.0884
0.0791499	1.0884
