Adsorption isotherm of Benzene on Silicalite MFI
DOI: 10.1007/s10450-005-5400-2
Adsorbate Benzene: InChIKey UHOVQNZJYSORNB-UHFFFAOYSA-N
Temperature: 323 K
Tabular data in the source: 0
pressure (bar)	uptake (mmol/g)
0.000113263	0.338458
0.000944349	0.421947
0.00137534	0.509845
0.0026124	0.606507
0.00544692	0.676743
0.0106761	0.702945
0.0155067	0.73795
0.02395	0.768441
0.0303824	0.790207
0.0356117	0.816408
0.0392376	0.851454
0.043268	0.895277
0.0476985	0.934691
0.0537396	0.987239
0.060175	1.0178
0.0650042	1.04841
0.0686242	1.06587
0.0718411	1.07895
0.0758642	1.1008
0.0806859	1.10943
0.0867183	1.1356
0.0919431	1.14862
