Adsorption isotherm of Benzene on Silicalite MFI
DOI: 10.1007/s10450-005-5400-2
Adsorbate Benzene: InChIKey UHOVQNZJYSORNB-UHFFFAOYSA-N
Temperature: 348 K
Tabular data in the source: 0
pressure (bar)	uptake (mmol/g)
0.0011991	0.476489
0.00193885	0.531661
0.00305475	0.642006
0.004899	0.757367
0.00600236	0.812539
0.00856242	0.877743
0.0111156	0.912853
0.0140313	0.942947
0.018039	0.978056
0.0227681	0.988088
0.0256793	0.998119
0.0358648	1.01818
0.0431392	1.02821
0.0485933	1.02821
0.0544122	1.03323
0.0598674	1.03824
0.064959	1.04326
0.0700495	1.04326
0.0751412	1.04828
0.0802305	1.04326
