Adsorption isotherm of Benzene on Silicalite MFI
DOI: 10.1007/s10450-005-5400-2
Adsorbate Benzene: InChIKey UHOVQNZJYSORNB-UHFFFAOYSA-N
Temperature: 435 K
Tabular data in the source: 0
pressure (bar)	uptake (mmol/g)
0.0014624	0.0351097
0.00474512	0.0802508
0.0083903	0.120376
0.0364427	0.361129
0.0662881	0.491536
0.107036	0.596865
