Adsorption isotherm of Benzene on Silicalite MFI
DOI: 10.1007/s10450-005-5400-2
Adsorbate Benzene: InChIKey UHOVQNZJYSORNB-UHFFFAOYSA-N
Temperature: 323 K
Tabular data in the source: 0
pressure (bar)	uptake (mmol/g)
0.000859433	0.581818
0.00125268	0.712226
0.00164706	0.847649
0.00275497	0.922884
0.00386745	1.01818
0.00533327	1.06834
0.00934662	1.12853
0.0126225	1.14357
0.0162643	1.16865
0.0191743	1.17367
0.0231762	1.1837
0.0268123	1.1837
0.030087	1.19373
0.0337219	1.18871
0.0402691	1.19875
0.0446324	1.19875
0.0486321	1.19875
0.0555406	1.19875
0.0617219	1.19875
0.0660863	1.20376
0.0704496	1.20376
0.0769957	1.20878
0.0839042	1.20878
0.0911775	1.21379
0.0955396	1.20878
