Adsorption isotherm of Benzene on Silicalite MFI
DOI: 10.1007/s10450-005-5400-2
Adsorbate Benzene: InChIKey UHOVQNZJYSORNB-UHFFFAOYSA-N
Temperature: 348 K
Tabular data in the source: 0
pressure (bar)	uptake (mmol/g)
0.0017166	0.329614
0.00214464	0.408721
0.00337141	0.474614
0.00500711	0.562472
0.00743565	0.619535
0.01066	0.654594
0.0134798	0.680874
0.0199122	0.70264
0.0263403	0.711219
0.0323668	0.719812
0.0371885	0.728444
0.0436151	0.732628
0.0528497	0.727928
0.0588762	0.73652
0.066506	0.736269
0.0721294	0.740479
0.0789561	0.740254
0.0849796	0.740055
0.0893984	0.744305
0.0942172	0.744146
0.099036	0.743988
0.102247	0.739486
