Adsorption isotherm of Benzene on Silicalite MFI
DOI: 10.1007/s10450-005-5400-2
Adsorbate Benzene: InChIKey UHOVQNZJYSORNB-UHFFFAOYSA-N
Temperature: 435 K
Tabular data in the source: 0
pressure (bar)	uptake (mmol/g)
0.000809022	0.0175557
0.00202255	0.0438894
0.0040407	0.0745921
0.00565727	0.105308
0.0112969	0.157869
0.0209625	0.241067
0.0350454	0.324119
0.0535425	0.398235
0.072834	0.44595
0.0941319	0.489204
0.11181	0.514995
