Adsorption isotherm of Benzene on EU-1
DOI: 10.1007/s10450-005-5400-2
Adsorbate Benzene: InChIKey UHOVQNZJYSORNB-UHFFFAOYSA-N
Temperature: 441 K
Tabular data in the source: 0
pressure (bar)	uptake (mmol/g)
0.00630648	0.15914
0.00805295	0.184946
0.0118962	0.245161
0.0139929	0.27957
0.0174821	0.31828
0.0216694	0.365591
0.026207	0.421505
0.0356212	0.503226
0.0401538	0.541935
0.0492127	0.597849
0.0565289	0.64086
0.0634973	0.683871
0.0729003	0.726882
0.0875216	0.774194
0.0955284	0.8
