Adsorption isotherm of Benzene on Silicalite MFI
DOI: 10.1007/s10450-005-5400-2
Adsorbate Benzene: InChIKey UHOVQNZJYSORNB-UHFFFAOYSA-N
Temperature: 395 K
Tabular data in the source: 0
pressure (bar)	uptake (mmol/g)
0.00165335	0.140605
0.00449228	0.224028
0.00894631	0.333771
0.0141961	0.42151
0.0278892	0.53974
0.0419603	0.587628
0.0528115	0.613643
0.0688801	0.630696
0.0994096	0.660459
