Adsorption isotherm of Benzene on Silicalite MFI
DOI: 10.1007/s10450-005-5400-2
Adsorbate Benzene: InChIKey UHOVQNZJYSORNB-UHFFFAOYSA-N
Temperature: 348 K
Tabular data in the source: 0
pressure (bar)	uptake (mmol/g)
0.00131356	0.325231
0.00214611	0.413116
0.00337436	0.483405
0.00418926	0.518543
0.00500417	0.553681
0.00581613	0.580028
0.00783133	0.60194
0.0110542	0.632603
0.0138725	0.654488
0.0170895	0.667568
0.0207065	0.67624
0.0235219	0.689334
0.0275391	0.693598
0.0319593	0.702243
0.0359779	0.710902
0.0403967	0.715152
0.0448169	0.723797
0.0504418	0.732403
0.0536543	0.732297
0.0580745	0.740942
0.063698	0.745153
0.067315	0.753825
0.0709291	0.753705
0.0765526	0.757916
0.0793665	0.766614
0.0837838	0.766468
0.0902118	0.775048
0.0962368	0.779245
0.100656	0.783495
