Adsorption isotherm of Benzene on EU-1
DOI: 10.1007/s10450-005-5400-2
Adsorbate Benzene: InChIKey UHOVQNZJYSORNB-UHFFFAOYSA-N
Temperature: 423 K
Tabular data in the source: 0
pressure (bar)	uptake (mmol/g)
0.00387688	0.176344
0.00493399	0.223656
0.00668793	0.275269
0.0112405	0.382796
0.0143918	0.455914
0.0171892	0.507527
0.0206821	0.55914
0.0234757	0.597849
0.0269661	0.64086
0.0335955	0.713978
0.0402198	0.769892
0.0482329	0.817204
0.060073	0.868817
0.0726074	0.916129
0.0781784	0.937634
0.106713	0.989247
