Adsorption isotherm of Benzene on AlPO4-5
DOI: 10.1007/s10450-005-5400-2
Adsorbate Benzene: InChIKey UHOVQNZJYSORNB-UHFFFAOYSA-N
Temperature: 303 K
Tabular data in the source: 0
pressure (bar)	uptake (mmol/g)
0.000641478	1.01569
0.00378063	1.05842
0.00830572	1.08824
0.0225547	1.10481
0.0270724	1.10891
0.0364526	1.10854
0.0395793	1.10841
0.0475712	1.11237
0.0510453	1.11223
0.0541721	1.11211
0.0593833	1.1119
0.0638985	1.10743
0.0670277	1.11588
0.0722389	1.11567
0.0760592	1.11123
0.0826601	1.11096
0.0868279	1.10651
0.0909981	1.11063
0.0969054	1.11468
0.101074	1.11451
