Adsorption isotherm of Benzene on Silicalite MFI
DOI: 10.1007/s10450-005-5400-2
Adsorbate Benzene: InChIKey UHOVQNZJYSORNB-UHFFFAOYSA-N
Temperature: 373 K
Tabular data in the source: 0
pressure (bar)	uptake (mmol/g)
0.00126354	0.175783
0.0020961	0.263667
0.00453641	0.355894
0.00697671	0.448122
0.0126296	0.540243
0.02028	0.601529
0.0279201	0.632047
0.0407791	0.657996
0.0544383	0.675128
0.0660868	0.683535
0.0849635	0.691704
