Adsorption isotherm of Benzene on EU-1
DOI: 10.1007/s10450-005-5400-2
Adsorbate Benzene: InChIKey UHOVQNZJYSORNB-UHFFFAOYSA-N
Temperature: 461 K
Tabular data in the source: 0
pressure (bar)	uptake (mmol/g)
0.00803799	0.133333
0.0104788	0.154839
0.0136165	0.180645
0.0167566	0.215054
0.0202421	0.24086
0.0268664	0.296774
0.0331392	0.339785
0.0397599	0.382796
0.0474239	0.425806
0.0533464	0.460215
0.0637965	0.516129
0.0721536	0.550538
0.08399	0.589247
0.0996583	0.649462
