Adsorption isotherm of Benzene on Silicalite MFI
DOI: 10.1007/s10450-005-5400-2
Adsorbate Benzene: InChIKey UHOVQNZJYSORNB-UHFFFAOYSA-N
Temperature: 348 K
Tabular data in the source: 0
pressure (bar)	uptake (mmol/g)
5.74e-05	0.171427
0.000907575	0.312058
0.00298308	0.514187
0.00581172	0.566841
0.00944349	0.619469
0.0154817	0.663226
0.0227159	0.68057
0.0343717	0.710955
0.0476293	0.7281
0.060887	0.745245
0.0741432	0.757995
0.0869978	0.770758
0.102663	0.783428
