Adsorption isotherm of Benzene on Silicalite MFI
DOI: 10.1007/s10450-005-5400-2
Adsorbate Benzene: InChIKey UHOVQNZJYSORNB-UHFFFAOYSA-N
Temperature: 348 K
Tabular data in the source: 0
pressure (bar)	uptake (mmol/g)
7.29e-05	0.321003
0.00489102	0.722257
0.0100123	0.85768
0.0191218	0.942947
0.0344093	1.01317
0.0598742	1.06834
0.0813339	1.09843
