Adsorption isotherm of Benzene on AlPO4-5
DOI: 10.1007/s10450-005-5400-2
Adsorbate Benzene: InChIKey UHOVQNZJYSORNB-UHFFFAOYSA-N
Temperature: 273 K
Tabular data in the source: 0
pressure (bar)	uptake (mmol/g)
0.000636515	0.998546
0.00135368	1.07566
0.00275451	1.11418
0.00415038	1.13555
0.00658973	1.16116
0.00971896	1.16961
0.0142366	1.17371
0.017712	1.17786
0.0215336	1.17771
