Adsorption isotherm of Benzene on Silicalite MFI
DOI: 10.1007/s10450-005-5400-2
Adsorbate Benzene: InChIKey UHOVQNZJYSORNB-UHFFFAOYSA-N
Temperature: 323 K
Tabular data in the source: 0
pressure (bar)	uptake (mmol/g)
5.88e-05	0.175822
0.000506006	0.312071
0.00136504	0.479076
0.00220789	0.597729
0.00383476	0.659214
0.00866683	0.698615
0.0138975	0.729212
0.0191253	0.751018
0.0275685	0.781509
0.0352101	0.816422
0.0424545	0.864534
0.0493136	0.961012
0.0625947	1.04849
0.0690301	1.07904
0.0798843	1.11385
0.0951586	1.1573
