Adsorption isotherm of Benzene on Silicalite MFI
DOI: 10.1007/s10450-005-5400-2
Adsorbate Benzene: InChIKey UHOVQNZJYSORNB-UHFFFAOYSA-N
Temperature: 415 K
Tabular data in the source: 0
pressure (bar)	uptake (mmol/g)
0.000816376	0.0395335
0.00243883	0.0878317
0.00446433	0.140512
0.0109277	0.254585
0.0181824	0.333466
0.0306619	0.425363
0.0495621	0.50386
0.0660412	0.547273
0.0853268	0.577407
0.110231	0.598564
