Adsorption isotherm of Benzene on Silicalite MFI
DOI: 10.1007/s10450-005-5400-2
Adsorbate Benzene: InChIKey UHOVQNZJYSORNB-UHFFFAOYSA-N
Temperature: 395 K
Tabular data in the source: 0
pressure (bar)	uptake (mmol/g)
0.00125913	0.162596
0.0032758	0.188903
0.00571464	0.276735
0.00935376	0.35134
0.0117794	0.399612
0.0154082	0.443448
0.0198387	0.482862
0.0238647	0.513499
0.0307046	0.552834
0.0351277	0.57027
0.0391464	0.578929
0.0439711	0.596352
0.0499961	0.600549
0.0552209	0.613564
0.0604442	0.622183
0.0660677	0.626393
0.0708894	0.635025
0.0761113	0.639249
0.0817347	0.643459
0.0857519	0.647722
0.0909738	0.651946
0.0978004	0.651721
