Adsorption isotherm of Benzene on EU-1
DOI: 10.1007/s10450-005-5400-2
Adsorbate Benzene: InChIKey UHOVQNZJYSORNB-UHFFFAOYSA-N
Temperature: 344 K
Tabular data in the source: 0
pressure (bar)	uptake (mmol/g)
0.00270509	0.933333
0.00411747	1.00645
0.00657948	1.10108
0.0111158	1.15269
0.0142535	1.17849
0.018432	1.1957
0.0250439	1.2086
0.0320036	1.22151
0.038264	1.22151
0.0455702	1.23011
0.0535708	1.23441
0.0612211	1.23011
0.0706141	1.23871
0.0754833	1.23871
0.0800046	1.23871
0.0869606	1.23871
0.0907864	1.23871
0.0946134	1.24301
