Adsorption isotherm of Benzene on AlPO4-5
DOI: 10.1007/s10450-005-5400-2
Adsorbate Benzene: InChIKey UHOVQNZJYSORNB-UHFFFAOYSA-N
Temperature: 373 K
Tabular data in the source: 0
pressure (bar)	uptake (mmol/g)
0.00109808	0.192813
0.00181649	0.274213
0.00184006	0.35564
0.00324958	0.424155
0.00501768	0.531227
0.00678205	0.625442
0.00993113	0.702458
0.0137738	0.775161
0.0189999	0.826379
0.0259606	0.868957
0.0301346	0.885932
0.0339599	0.898635
0.0405682	0.924084
0.0482139	0.932348
0.0575978	0.944828
0.0666319	0.948751
0.075321	0.961259
0.0829641	0.960952
0.0906085	0.964931
0.0930404	0.964833
