Adsorption isotherm of Benzene on AlPO4-5
DOI: 10.1007/s10450-005-5400-2
Adsorbate Benzene: InChIKey UHOVQNZJYSORNB-UHFFFAOYSA-N
Temperature: 373 K
Tabular data in the source: 0
pressure (bar)	uptake (mmol/g)
0.00110801	0.227098
0.00431292	0.49697
0.00538122	0.586927
0.00714064	0.663999
0.00958619	0.711043
0.0116843	0.758102
0.0172566	0.805021
0.022479	0.843382
0.0287412	0.873131
0.0381314	0.907039
0.053775	0.940696
0.0708021	0.952869
0.0728891	0.961357
0.0944338	0.977634
