Adsorption isotherm of Benzene on Silicalite MFI
DOI: 10.1007/s10450-005-5400-2
Adsorbate Benzene: InChIKey UHOVQNZJYSORNB-UHFFFAOYSA-N
Temperature: 273 K
Tabular data in the source: 0
pressure (bar)	uptake (mmol/g)
1.19e-05	0.314864
8.06e-05	0.52694
8.45e-05	0.629753
0.000937262	0.745758
0.000999568	0.790763
0.00106236	0.848619
0.00112613	0.932179
0.0011916	1.06072
0.00131864	1.21499
0.00144204	1.27287
0.0015647	1.31147
0.00205025	1.33094
0.00247519	1.35039
0.00283953	1.36982
0.00302158	1.37631
0.00411266	1.38318
0.00550675	1.39016
0.00859794	1.40426
0.00902288	1.4237
0.0110831	1.41811
0.0134473	1.43833
0.0137508	1.45131
