Adsorption isotherm of Benzene on Silicalite MFI
DOI: 10.1007/s10450-005-5400-2
Adsorbate Benzene: InChIKey UHOVQNZJYSORNB-UHFFFAOYSA-N
Temperature: 395 K
Tabular data in the source: 0
pressure (bar)	uptake (mmol/g)
0.00147152	0.0752351
0.00148406	0.130408
0.00698033	0.315987
0.0153855	0.501567
0.0266846	0.621944
0.0474364	0.737304
0.0663576	0.797492
0.0805462	0.832602
0.0976426	0.862696
