Adsorption isotherm of Benzene on EU-1
DOI: 10.1007/s10450-005-5400-2
Adsorbate Benzene: InChIKey UHOVQNZJYSORNB-UHFFFAOYSA-N
Temperature: 405 K
Tabular data in the source: 0
pressure (bar)	uptake (mmol/g)
0.00320497	0.258065
0.00391179	0.296774
0.00461985	0.339785
0.006026	0.391398
0.0070831	0.43871
0.00814145	0.490323
0.00919482	0.524731
0.0105997	0.572043
0.0127027	0.627957
0.0148032	0.675269
0.017603	0.735484
0.0203991	0.782796
0.0263316	0.851613
0.0336528	0.911828
0.0406213	0.954839
0.0475834	0.976344
0.0597663	1.01075
0.0716002	1.04086
0.0848214	1.05806
0.0949113	1.07097
