Adsorption isotherm of Benzene on Silicalite MFI
DOI: 10.1007/s10450-005-5400-2
Adsorbate Benzene: InChIKey UHOVQNZJYSORNB-UHFFFAOYSA-N
Temperature: 415 K
Tabular data in the source: 0
pressure (bar)	uptake (mmol/g)
0.00219874	0.0752351
0.0062212	0.175549
0.0120606	0.270846
0.0204497	0.386207
0.0339294	0.501567
0.05468	0.611912
0.092519	0.717241
