Adsorption isotherm of Benzene on EU-1
DOI: 10.1007/s10450-005-5400-2
Adsorbate Benzene: InChIKey UHOVQNZJYSORNB-UHFFFAOYSA-N
Temperature: 344 K
Tabular data in the source: 0
pressure (bar)	uptake (mmol/g)
0.000897542	0.696774
0.00125531	0.731183
0.00128772	0.843011
0.00161932	0.787097
0.00199828	0.894624
0.00271756	0.976344
0.00307034	0.993548
0.00447774	1.04946
0.0069198	1.07527
0.010758	1.11828
0.0177265	1.16129
0.0302634	1.2172
0.0525311	1.24731
0.0963574	1.26022
