Adsorption isotherm of Benzene on Silicalite MFI
DOI: 10.1007/s10450-005-5400-2
Adsorbate Benzene: InChIKey UHOVQNZJYSORNB-UHFFFAOYSA-N
Temperature: 373 K
Tabular data in the source: 0
pressure (bar)	uptake (mmol/g)
0.00113185	0.180564
0.00225231	0.310972
0.00335795	0.376176
0.00666688	0.536677
0.0117836	0.652038
0.0205352	0.762382
0.0405586	0.872727
0.0954872	0.978056
