Adsorption isotherm of Benzene on EU-1
DOI: 10.1007/s10450-005-5400-2
Adsorbate Benzene: InChIKey UHOVQNZJYSORNB-UHFFFAOYSA-N
Temperature: 405 K
Tabular data in the source: 0
pressure (bar)	uptake (mmol/g)
0.00320871	0.270968
0.00391553	0.309677
0.00497138	0.352688
0.00602974	0.404301
0.00744087	0.473118
0.0113003	0.589247
0.0137548	0.658065
0.0179496	0.731183
0.0221419	0.795699
0.0277216	0.847312
0.0326045	0.894624
0.0392251	0.937634
0.0458444	0.976344
0.0538488	0.993548
0.0615078	1.01935
0.0667285	1.03226
0.072297	1.04516
0.0792554	1.05376
0.0872585	1.06667
0.0931748	1.07957
