Adsorption isotherm of Benzene on Silicalite MFI
DOI: 10.1007/s10450-005-5400-2
Adsorbate Benzene: InChIKey UHOVQNZJYSORNB-UHFFFAOYSA-N
Temperature: 435 K
Tabular data in the source: 0
pressure (bar)	uptake (mmol/g)
0.00182487	0.030094
0.0047474	0.0902821
0.00766195	0.115361
0.0116707	0.155486
0.0149523	0.195611
0.0218745	0.255799
0.025155	0.290909
0.0317079	0.326019
0.0393561	0.381191
0.0466362	0.416301
0.0550072	0.451411
0.0608283	0.466458
0.06738	0.496552
0.0721092	0.506583
0.0768418	0.531661
0.0852093	0.551724
0.0924837	0.561755
0.0993945	0.571787
0.105217	0.59185
