Adsorption isotherm of Benzene on EU-1
DOI: 10.1007/s10450-005-5400-2
Adsorbate Benzene: InChIKey UHOVQNZJYSORNB-UHFFFAOYSA-N
Temperature: 362 K
Tabular data in the source: 0
pressure (bar)	uptake (mmol/g)
0.00192473	0.64086
0.00230618	0.756989
0.00371607	0.821505
0.00443037	0.886022
0.00548622	0.929032
0.00653959	0.963441
0.00933942	1.02366
0.0135255	1.06667
0.0201448	1.10538
0.0333699	1.13548
0.0521609	1.16989
0.0991235	1.2043
