Adsorption isotherm of Benzene on AlPO4-5
DOI: 10.1007/s10450-005-5400-2
Adsorbate Benzene: InChIKey UHOVQNZJYSORNB-UHFFFAOYSA-N
Temperature: 303 K
Tabular data in the source: 0
pressure (bar)	uptake (mmol/g)
0.000555865	0.719978
0.000931819	0.818534
0.00095043	0.882819
0.00236367	0.964191
0.00411316	1.00698
0.00864197	1.04965
0.0135145	1.07946
0.0204678	1.09632
0.0308964	1.11733
0.0472324	1.14239
0.0660016	1.17163
0.103185	1.20443
