Adsorption isotherm of Benzene on Silicalite MFI
DOI: 10.1007/s10450-005-5400-2
Adsorbate Benzene: InChIKey UHOVQNZJYSORNB-UHFFFAOYSA-N
Temperature: 415 K
Tabular data in the source: 0
pressure (bar)	uptake (mmol/g)
0.00329298	0.0902821
0.00512469	0.15047
0.00731772	0.200627
0.0106016	0.250784
0.0138866	0.305956
0.017534	0.356113
0.0226371	0.411285
0.0266447	0.446395
0.031016	0.481505
0.0357508	0.516614
0.0419413	0.55674
0.0463091	0.576803
0.0524961	0.601881
0.0575923	0.626959
0.064869	0.647022
0.0721457	0.667085
0.0786952	0.687147
0.0859696	0.697179
0.0914271	0.712226
