Adsorption isotherm of Benzene on Silicalite MFI
DOI: 10.1007/s10450-005-5400-2
Adsorbate Benzene: InChIKey UHOVQNZJYSORNB-UHFFFAOYSA-N
Temperature: 435 K
Tabular data in the source: 0
pressure (bar)	uptake (mmol/g)
0.00560514	0.0882353
0.0104096	0.136765
0.0128118	0.167647
0.0176162	0.211765
0.0248228	0.273529
0.0296272	0.3
0.0376345	0.344118
0.0416382	0.357353
0.0492452	0.388235
0.0568522	0.410294
0.062057	0.423529
0.0692636	0.436765
0.0756695	0.45
0.0800735	0.458824
0.0856786	0.467647
0.0912838	0.476471
0.0972893	0.485294
0.103295	0.498529
0.106898	0.502941
0.110101	0.502941
