Adsorption isotherm of Nitrogen on MOF-74-Ni
DOI: 10.1021/Jp300961j
Adsorbate Nitrogen: InChIKey IJGRMHOSHXDMSA-UHFFFAOYSA-N
Temperature: 77 K
Tabular data in the source: 0
pressure (bar)	uptake (cm3(STP)/g)
0.00784908	3.11284
0.00835449	267.704
0.00904867	156.42
0.00942621	204.669
0.0179451	293.385
0.0649726	303.502
0.158882	305.058
0.407781	314.397
0.603399	314.397
0.653471	313.619
0.755211	315.953
0.853802	315.953
0.952424	319.844
