Adsorption isotherm of Carbon Dioxide on MOF-74-Ni
DOI: 10.1021/Jp300961j
Adsorbate Carbon Dioxide: InChIKey CURLTUGMZLYLDI-UHFFFAOYSA-N
Temperature: 298 K
Tabular data in the source: 0
pressure (bar)	uptake (mmol/g)
0.00734644	0.0228571
0.013571	2.37714
0.146121	3.81714
0.416094	4.62857
0.641894	4.99429
0.709823	5.12
0.731876	5.23429
0.76309	5.30286
0.836522	5.42857
0.946663	5.58857
1.08981	5.66857
