Adsorption isotherm of Carbon Dioxide on PCN-426(Ni)
DOI: 10.1107/S205252061501584x
Article source: Figure 6b
Adsorbate Carbon Dioxide: InChIKey CURLTUGMZLYLDI-UHFFFAOYSA-N
Kind: experiment
Temperature: 273 K
Tabular data in the source: 0
pressure (bar)	uptake (cm3(STP)/g)
0.008712	1.54026
0.017684	8.57507
0.02246	2.64199
0.039073	4.18388
0.045759	11.8776
0.069319	6.60769
0.073602	14.7404
0.097046	9.25077
0.101214	17.1637
0.121908	11.4537
0.128941	19.8068
0.156436	22.0103
0.15742	13.8786
0.179533	15.8612
0.184049	24.4335
0.206914	17.8448
0.214178	26.6375
0.236927	19.829
0.238924	28.6207
0.267173	22.2529
0.269054	30.8247
0.28917	24.0156
0.296434	32.8083
0.319183	25.9998
0.32118	34.7915
0.346563	27.9835
0.351195	36.7757
0.373944	29.9672
0.378458	38.5395
0.403957	31.9514
0.405839	40.5232
0.428589	33.7147
0.433103	42.287
0.458602	35.6989
0.460367	44.0509
0.485867	37.4628
0.490381	46.0351
0.510613	39.4459
0.520164	47.5797
0.54051	41.2103
0.542045	49.1227
0.567659	42.7543
0.569425	51.1063
0.594923	44.5182
0.599207	52.6509
0.621204	54.4137
0.622303	46.5019
0.65087	55.7385
0.652086	48.0465
0.676716	49.8098
0.68317	57.0639
0.70673	51.794
0.707802	58.8272
0.731361	53.5573
0.73495	60.3712
0.761143	55.1019
0.761983	61.6955
0.788407	56.8658
0.789131	63.2395
0.818306	58.6302
0.818914	64.7841
0.845106	59.5148
0.84583	65.8886
0.869968	61.7177
0.872979	67.4326
0.894629	68.536
0.897233	63.4816
0.9269	64.8064
0.927045	70.0811
0.951531	66.5697
0.956711	71.4059
0.983744	72.7302
0.984063	68.3346
1.00814	74.0539
1.00858	69.8782
1.03561	71.2024
1.03769	75.1589
1.06287	72.9663
1.06724	76.2639
1.08991	74.2905
1.09885	76.2704
1.11969	75.8351
