Adsorption isotherm of Nitrogen on PCN-426(Ni)
DOI: 10.1107/S205252061501584x
Article source: Figure 6a
Adsorbate Nitrogen: InChIKey IJGRMHOSHXDMSA-UHFFFAOYSA-N
Kind: experiment
Temperature: 77 K
Tabular data in the source: 0
pressure (bar)	uptake (mmol/g)
0.006005	249.513
0.006937	288.231
0.007765	322.647
0.008697	361.364
0.009526	395.78
0.01025	425.893
0.011182	464.611
0.014521	503.349
0.01535	537.765
0.016178	572.18
0.017731	636.71
0.018766	679.729
0.019517	610.918
0.022002	714.165
0.022727	744.279
0.026169	787.319
0.029508	826.057
0.030233	856.171
0.033469	890.607
0.034401	929.324
0.03774	968.062
0.041079	1006.8
0.044418	1045.54
0.047757	1084.28
0.050889	1114.41
0.054228	1153.15
0.059871	1187.61
0.068025	1226.38
0.075971	1256.56
0.083193	1256.62
0.096161	1295.44
0.105687	1291.22
0.120648	1312.85
0.125463	1312.89
0.137809	1325.9
0.142624	1325.94
0.161985	1330.41
0.167007	1339.05
0.181657	1347.78
0.186472	1347.82
0.203531	1356.57
0.205937	1356.59
0.217663	1343.78
0.225403	1365.35
0.239432	1348.27
0.247171	1369.84
0.263505	1348.47
0.266533	1374.31
0.290295	1361.6
0.290813	1383.11
0.309761	1370.37
0.310071	1383.28
0.326714	1374.82
0.329536	1392.04
0.348483	1379.3
0.348897	1396.51
0.367949	1388.07
0.370666	1401
0.389614	1388.25
0.392331	1401.18
0.406361	1384.1
0.409286	1405.63
0.430537	1388.6
0.430951	1405.81
0.449899	1393.07
0.45272	1410.3
0.469157	1393.23
0.469675	1414.74
0.490926	1397.72
0.49134	1414.92
0.512591	1397.9
0.513109	1419.41
0.532057	1406.67
0.532368	1419.57
0.551314	1406.83
0.551729	1424.04
0.57298	1407.01
0.573394	1424.22
0.592239	1407.18
0.595059	1424.41
0.609192	1411.62
0.612014	1428.85
0.633368	1416.13
0.638598	1433.38
0.65493	1412.01
0.655345	1429.22
0.674396	1420.78
0.674706	1433.69
0.693654	1420.94
0.693965	1433.85
0.715319	1421.13
0.718037	1434.05
0.734991	1438.5
0.737088	1425.61
0.753939	1425.76
0.754352	1442.96
0.778115	1430.26
0.778529	1447.47
0.797373	1430.43
0.800091	1443.35
0.817045	1447.8
0.819142	1434.91
0.833896	1447.94
0.835785	1426.45
0.855665	1452.43
0.857762	1439.54
0.879427	1439.72
0.879634	1448.33
0.898788	1444.19
0.898893	1448.49
0.917943	1440.05
0.91815	1448.66
0.937305	1444.52
0.939919	1453.14
0.961584	1453.32
0.963889	1449.04
0.98325	1453.51
0.985554	1449.23
1.0001	1453.65
