Adsorption isotherm of Nitrogen on PCN-427(Cu)
DOI: 10.1107/S205252061501584x
Article source: Figure 6a
Adsorbate Nitrogen: InChIKey IJGRMHOSHXDMSA-UHFFFAOYSA-N
Kind: experiment
Temperature: 77 K
Tabular data in the source: 0
pressure (bar)	uptake (mmol/g)
0.004881	4.3956
0.014565	8.79121
0.031372	8.79121
0.052982	8.79121
0.067388	8.79121
0.084275	13.1868
0.101082	13.1868
0.117969	17.5824
0.137178	17.5824
0.151584	17.5824
0.170792	17.5824
0.1876	17.5824
0.202007	17.5824
0.218813	17.5824
0.238023	17.5824
0.252429	17.5824
0.271637	17.5824
0.286044	17.5824
0.302851	17.5824
0.322139	21.978
0.338946	21.978
0.355754	21.978
0.372561	21.978
0.386967	21.978
0.408577	21.978
0.422983	21.978
0.442192	21.978
0.454197	21.978
0.473406	21.978
0.492694	26.3736
0.509422	21.978
0.526308	26.3736
0.545517	26.3736
0.562324	26.3736
0.576731	26.3736
0.593539	26.3736
0.612747	26.3736
0.629555	26.3736
0.643961	26.3736
0.660768	26.3736
0.677655	30.7692
0.694462	30.7692
0.71127	30.7692
0.725676	30.7692
0.742483	30.7692
0.761692	30.7692
0.778499	30.7692
0.795307	30.7692
0.812115	30.7692
0.831323	30.7692
0.848131	30.7692
0.864938	30.7692
0.879344	30.7692
0.898553	30.7692
0.91536	30.7692
0.929766	30.7692
0.948975	30.7692
0.968184	30.7692
0.98259	30.7692
0.999398	30.7692
1.01381	30.7692
