Adsorption isotherm of Methane on PCN-426(Ni)
DOI: 10.1107/S205252061501584x
Article source: Figure 6a
Adsorbate Methane: InChIKey VNWKTOKETHGBQD-UHFFFAOYSA-N
Kind: experiment
Temperature: 273 K
Tabular data in the source: 0
pressure (bar)	uptake (cm3(STP)/g)
0.010649	0.224441
0.018922	1.11505
0.03758	1.56339
0.045589	1.78728
0.067151	2.90288
0.072431	2.90398
0.093993	4.01958
0.096546	3.79789
0.11802	4.69126
0.1233	4.69236
0.147679	6.25299
0.150232	6.0313
0.177073	7.148
0.179715	7.14855
0.198548	8.04137
0.203741	7.82023
0.227855	8.71414
0.228031	9.15862
0.257338	9.83139
0.257513	10.2759
0.281541	10.9475
0.286732	10.7264
0.310848	11.6203
0.311024	12.0648
0.340243	12.5153
0.343146	13.1826
0.366996	13.4098
0.36726	14.0765
0.393664	14.082
0.394016	14.971
0.422971	14.7548
0.423235	15.4215
0.447349	16.3154
0.449726	15.6493
0.474016	16.9877
0.476303	16.0992
0.49813	17.8816
0.503147	17.2159
0.524885	18.776
0.527173	17.8876
0.55648	18.5604
0.556832	19.4493
0.583059	19.0104
0.583499	20.1216
0.609901	20.1271
0.610166	20.7938
0.636392	20.3548
0.636744	21.2438
0.660858	22.1377
0.665699	21.0276
0.687437	22.5877
0.689813	21.9215
0.714016	23.0377
0.71648	22.5937
0.743059	23.0437
0.743411	23.9327
0.770077	24.6049
0.772366	23.7165
0.799208	24.8332
0.801585	24.167
0.825611	24.8387
0.825787	25.2832
0.852278	25.5109
0.852454	25.9554
0.873664	26.182
0.876216	25.9603
0.902971	26.8548
0.905435	26.4109
0.929637	27.527
0.931838	26.4164
0.958504	27.0886
0.958768	27.7553
0.985259	27.9831
0.987723	27.5391
1.0092	28.4325
1.01166	27.9886
1.03824	28.4385
1.04106	28.8836
1.06737	28.6668
1.07283	29.1124
1.09395	29.1168
1.09659	29.1174
