Adsorption isotherm of Carbon Dioxide on TpPa-2 (mechanochemical synthesis)
DOI: 10.1021/ja4017842
Article source: Figure S14
Adsorbate Carbon Dioxide: InChIKey CURLTUGMZLYLDI-UHFFFAOYSA-N
Kind: experiment
Temperature: 273 K
Tabular data in the source: 0
pressure (bar)	uptake (cm3(STP)/g)
0.026864	4.24051
0.030168	5.38283
0.040275	6.52404
0.05377	7.82796
0.074026	9.62057
0.087576	10.2714
0.101126	10.9223
0.114662	11.7364
0.128212	12.3872
0.158714	13.6884
0.175679	14.1754
0.189243	14.663
0.209596	15.3127
0.229921	16.289
0.257035	17.4274
0.274001	17.9145
0.284177	18.2393
0.301156	18.5631
0.345319	19.2089
0.352108	19.3711
0.406434	20.5051
0.4268	20.9915
0.443766	21.4786
0.481126	22.1255
0.515098	22.6098
0.542212	23.7482
0.552389	24.0731
0.569382	24.2336
0.586333	24.8839
0.61689	25.5319
0.633842	26.1822
0.654223	26.5054
0.688181	27.153
0.694984	27.1518
0.732316	28.1253
0.752697	28.4485
0.776479	28.7712
0.800247	29.2571
0.834206	29.9046
0.851185	30.2284
0.874967	30.551
0.891932	31.0381
0.922476	31.8494
0.942829	32.4991
0.963195	32.9856
0.046551	12.7271
0.056602	14.5214
0.087034	16.6389
0.120924	18.1027
0.148038	19.2411
0.188771	20.2141
0.229421	22.1666
0.266754	23.1401
0.300657	24.4407
0.3312	25.2521
0.378764	25.8973
0.405934	26.3827
0.433103	26.8681
0.473879	27.3512
0.514571	28.8139
0.545128	29.462
0.589332	29.6181
0.633467	30.5905
0.653862	30.7504
0.698024	31.3962
0.749004	31.8777
0.813617	32.0304
0.854434	32.0238
0.905413	32.5052
0.966597	32.985
0.980202	32.9828
0.990407	32.9812
0.786405	32.0349
