Adsorption isotherm of Nitrogen on TpBD (mechanochemical synthesis)
DOI: 10.1021/ja4017842
Article source: Figure 4a
Adsorbate Nitrogen: InChIKey IJGRMHOSHXDMSA-UHFFFAOYSA-N
Kind: experiment
Temperature: 77 K
Tabular data in the source: 0
pressure (bar)	uptake (cm3(STP)/g)
0.01114	6.45161
0.045197	8.60215
0.079351	8.60215
0.111131	10.7527
0.145187	12.9032
0.181521	15.0538
0.227011	16.129
0.263589	12.9032
0.295467	12.9032
0.343283	12.9032
0.377438	12.9032
0.416146	12.9032
0.454659	17.2043
0.493416	16.129
0.520691	17.2043
0.554845	17.2043
0.588951	18.2796
0.623007	20.4301
0.663993	20.4301
0.693593	20.4301
0.736856	20.4301
0.766456	20.4301
0.800464	23.6559
0.834569	24.7312
0.870952	25.8065
0.904813	32.2581
0.938771	36.5591
0.968127	41.9355
0.997091	55.914
1.00818	62.3656
0.043888	5.07611
0.074201	4.51437
0.121507	8.70516
0.150808	11.8547
0.191247	11.8124
0.21615	18.1468
0.247444	12.8137
0.312627	13.8056
0.34408	13.7727
0.371071	14.8045
0.416003	14.7575
0.458688	14.7128
0.474446	15.7564
0.497071	21.0331
0.54194	18.866
0.582442	20.9438
0.625254	25.1393
0.658953	25.104
0.712777	21.8675
0.742141	27.1371
0.789288	26.0277
0.832037	28.1031
0.85001	28.0843
0.897347	33.3352
0.93342	37.5377
0.967341	44.9227
1.00598	59.7233
