Adsorption isotherm of Nitrogen on TpPa-2 (mechanochemical synthesis)
DOI: 10.1021/ja4017842
Article source: Figure 4a
Adsorbate Nitrogen: InChIKey IJGRMHOSHXDMSA-UHFFFAOYSA-N
Kind: experiment
Temperature: 77 K
Tabular data in the source: 0
pressure (bar)	uptake (cm3(STP)/g)
0.010944	10.7527
0.042724	12.9032
0.079106	13.9785
0.108658	15.0538
0.147366	15.0538
0.181521	15.0538
0.208844	15.0538
0.245276	15.0538
0.279381	16.129
0.304281	19.3548
0.343038	18.2796
0.377046	21.5054
0.408826	23.6559
0.436247	21.5054
0.474711	26.8817
0.563414	29.0323
0.631626	31.1828
0.718052	33.3333
0.770178	38.7097
0.806658	37.6344
0.836063	41.9355
0.860963	45.1613
0.88809	49.4624
0.919576	58.0645
0.946557	65.5914
0.962153	73.1183
0.979732	87.0968
0.99523	96.7742
0.994643	109.677
1.00311	123.656
0.04294	10.9075
0.090118	10.8581
0.130684	15.056
0.162137	15.0231
0.193525	12.8701
0.231781	14.9502
0.261019	15.9797
0.298183	19.121
0.342087	22.2553
0.375881	25.4002
0.407461	29.6074
0.438882	28.5145
0.456854	28.4957
0.490585	29.5204
0.526499	28.4228
0.566906	27.3204
0.605035	25.1604
0.629779	26.1946
0.670282	28.2724
0.715341	32.4655
0.749135	35.6104
0.773848	35.5845
0.803212	40.8541
0.839285	45.0567
0.86634	48.2086
0.882129	50.3122
0.920671	61.9327
0.943327	68.2694
0.968326	77.7839
0.977471	83.0747
0.99592	98.9564
1.00766	115.905
