Adsorption isotherm of Carbon Dioxide on TpBD
DOI: 10.1021/ja4017842
Article source: Figure S13
Adsorbate Carbon Dioxide: InChIKey CURLTUGMZLYLDI-UHFFFAOYSA-N
Kind: experiment
Temperature: 273 K
Tabular data in the source: 0
pressure (bar)	uptake (cm3(STP)/g)
0.002132	0.001735
0.006533	2.55436
0.025809	4.1733
0.04506	5.32714
0.055758	6.01983
0.072877	7.17466
0.094236	7.8624
0.122003	8.77972
0.14123	9.46845
0.158312	9.92562
0.179695	11.0785
0.196777	11.5356
0.216003	12.2244
0.237362	12.9121
0.258746	14.065
0.275852	14.9872
0.28443	15.9135
0.303669	16.8348
0.331449	17.9846
0.318644	17.758
0.346473	19.8381
0.3657	20.5268
0.376385	20.987
0.393492	21.9093
0.40631	22.3684
0.412743	23.0631
0.440511	23.9804
0.455448	24.206
0.470386	24.4316
0.502442	25.8121
0.504574	25.8111
0.48536	25.3549
0.519536	26.5018
0.534523	27.6576
0.55375	28.3463
0.568687	28.572
0.581517	29.2637
0.600719	29.4873
0.617813	30.177
0.630619	30.4036
0.64982	30.6272
0.656241	31.0894
0.684021	32.2392
0.694707	32.6994
0.713933	33.3881
0.722474	33.6167
0.748085	34.0699
0.765167	34.5271
0.784368	34.7507
0.792922	35.2118
0.822871	37.0584
0.835726	38.2152
0.863419	37.7372
0.884802	38.89
0.899764	39.5808
0.916871	40.503
0.936073	40.7267
0.955287	41.1828
0.968092	41.4094
0.980922	42.1012
0.99586	42.3268
1.00656	43.0195
0.040995	11.9512
0.071973	14.3902
0.105265	16.0976
0.134119	17.561
0.158496	19.1463
0.182954	20
0.198497	20.7317
0.225174	21.7073
0.26293	23.4146
0.28732	24.878
0.316311	25.122
0.336264	26.3415
0.360818	26.3415
0.400724	28.7805
0.423018	29.0244
0.454078	30.7317
0.483068	30.9756
0.534544	29.7561
0.503239	30.2439
0.55447	31.2195
0.59669	32.9268
0.621189	33.4146
0.652385	33.9024
0.683498	35.122
0.714776	34.878
0.7258	36.0976
0.754655	37.561
0.7791	38.5366
0.819278	38.5366
0.859239	40.4878
0.888257	40.4878
0.906059	40.9756
0.934996	41.7073
