Adsorption isotherm of Carbon Dioxide on TpPA-1
DOI: 10.1021/ja4017842
Article source: Figure S13
Adsorbate Carbon Dioxide: InChIKey CURLTUGMZLYLDI-UHFFFAOYSA-N
Kind: experiment
Temperature: 273 K
Tabular data in the source: 0
pressure (bar)	uptake (cm3(STP)/g)
0.008838	5.8091
0.026131	10.2197
0.043436	14.8628
0.056378	17.6475
0.071439	20.1986
0.080005	20.8923
0.101512	24.3706
0.11438	25.76
0.129429	28.0786
0.144428	29.467
0.155163	30.8573
0.17227	31.7796
0.186209	33.2847
0.200136	34.5573
0.210871	35.9477
0.223701	36.6394
0.230185	38.2643
0.253713	39.6487
0.269766	40.804
0.279422	41.9623
0.302963	43.5793
0.315793	44.271
0.332887	44.9607
0.341465	45.8869
0.354332	47.2763
0.365043	48.2016
0.375741	48.8943
0.39498	49.8155
0.405665	50.2757
0.431288	50.9614
0.437709	51.4236
0.454841	52.811
0.469815	53.7342
0.489054	54.6555
0.49974	55.1157
0.514714	56.0389
0.531796	56.4961
0.544601	56.7227
0.553155	57.1838
0.561745	58.3426
0.57672	59.2659
0.58955	59.9576
0.600248	60.6503
0.610946	61.343
0.634461	62.4949
0.63875	62.958
0.655857	63.8803
0.664398	64.1088
0.679348	64.567
0.698587	65.4883
0.702876	65.9514
0.730681	67.5664
0.715706	66.6431
0.752064	68.7192
0.769158	69.409
0.78412	70.0997
0.79907	70.5578
0.807624	71.019
0.818322	71.7117
0.831127	71.9383
0.852485	72.626
0.873856	73.5463
0.897347	74.233
0.903768	74.6952
0.916598	75.3869
0.925139	75.6155
0.937945	75.8421
0.959291	76.2973
0.03536	22.439
0.061629	27.0732
0.094567	31.9512
0.116534	35.122
0.1296	38.0488
0.180368	43.1707
0.204677	45.3659
0.224603	46.8293
0.266768	49.0244
0.291159	50.4878
0.317754	52.1951
0.342144	53.6585
0.366453	55.8537
0.393075	57.3171
0.413055	58.2927
0.446347	60
0.475174	61.7073
0.50852	62.9268
0.528392	64.8781
0.552864	65.6098
0.575049	66.8293
0.586128	67.561
0.635154	68.2927
0.664035	69.5122
0.7019	70.2439
0.741888	71.9512
0.746352	71.9512
0.779698	73.1707
0.804143	74.1463
0.830874	74.6341
0.859838	75.1219
0.88431	75.8537
0.911041	76.3415
0.939923	77.561
