Adsorption isotherm of Nitrogen on TpBD
DOI: 10.1021/ja4017842
Article source: Figure 4a
Adsorbate Nitrogen: InChIKey IJGRMHOSHXDMSA-UHFFFAOYSA-N
Kind: experiment
Temperature: 77 K
Tabular data in the source: 0
pressure (bar)	uptake (cm3(STP)/g)
0.000392	9.67742
0.003477	24.7312
0.011018	59.1398
0.014054	92.4731
0.027177	104.301
0.040496	111.828
0.051489	120.43
0.057879	130.108
0.071247	136.559
0.093478	148.387
0.1114	154.839
0.136055	163.441
0.154075	167.742
0.172144	170.968
0.199418	172.043
0.219911	172.043
0.242632	173.118
0.266442	175.269
0.297083	177.419
0.326488	181.72
0.351485	182.796
0.376434	184.946
0.408214	187.097
0.428657	188.172
0.453704	188.172
0.474099	190.323
0.501324	192.473
0.533251	191.398
0.56503	193.548
0.592256	195.699
0.62171	198.925
0.651163	202.151
0.673933	202.151
0.692051	204.301
0.712544	204.301
0.735215	206.452
0.755708	206.452
0.776005	210.753
0.791944	210.753
0.828228	213.979
0.853079	218.28
0.884761	222.581
0.907334	226.882
0.925158	235.484
0.954367	244.086
0.971995	256.989
0.990774	294.624
0.996234	324.731
0.057824	132.8
0.083077	150.795
0.103709	164.554
0.135479	175.122
0.176045	179.319
0.19867	184.596
0.245848	184.547
0.266099	185.586
0.30657	186.603
0.335808	187.633
0.367292	188.66
0.389758	188.637
0.410073	191.795
0.443803	192.82
0.466269	192.797
0.524618	190.616
0.542591	190.597
0.502374	198.059
0.576671	203.282
0.623976	207.473
0.671123	206.363
0.680173	208.474
0.709443	210.564
0.743173	211.588
0.796997	208.352
0.774626	211.555
0.824146	214.684
0.862561	222.064
0.887369	225.218
0.905627	234.74
0.939676	246.365
0.976479	274.948
1.0162	325.79
