Adsorption isotherm of Carbon Dioxide on TpBD (mechanochemical synthesis)
DOI: 10.1021/ja4017842
Article source: Figure S14
Adsorbate Carbon Dioxide: InChIKey CURLTUGMZLYLDI-UHFFFAOYSA-N
Kind: experiment
Temperature: 273 K
Tabular data in the source: 0
pressure (bar)	uptake (cm3(STP)/g)
0.006747	0.815227
0.016729	3.42584
0.023463	4.24107
0.053964	5.54221
0.081065	6.84391
0.104791	7.81963
0.118313	8.79701
0.155618	10.097
0.169182	10.5846
0.192908	11.5603
0.250621	12.857
0.281206	13.1786
0.328756	13.9871
0.359341	14.3087
0.376321	14.6324
0.406864	15.4438
0.420442	15.7681
0.440836	15.928
0.464618	16.2507
0.478196	16.575
0.498563	17.0615
0.529162	17.2197
0.563134	17.704
0.593678	18.5153
0.61746	18.838
0.627636	19.1628
0.705813	19.8031
0.719391	20.1274
0.739758	20.6139
0.79747	21.9106
0.811034	22.3982
0.841592	23.0463
0.858571	23.37
0.88574	23.8554
0.916325	24.1769
0.963903	24.659
0.980883	24.9827
0.675214	19.6449
0.654833	19.3217
0.039928	10.6057
0.080551	12.8848
0.117814	14.6746
0.138153	15.4877
0.172083	16.4617
0.199239	17.1103
0.223007	17.5962
0.253551	18.4076
0.284108	19.0557
0.314693	19.3772
0.341876	19.6993
0.392828	20.5073
0.44378	21.3153
0.481167	21.6357
0.51514	22.12
0.542323	22.4421
0.566119	22.6015
0.600092	23.0857
0.637493	23.2429
0.651085	23.4039
0.695234	24.213
0.725847	24.208
0.793833	24.6867
0.827847	24.6812
0.88227	24.6723
0.923087	24.6656
0.943495	24.6623
0.970734	24.3313
