Adsorption isotherm of Nitrogen on TpPa-1 (mechanochemical synthesis)
DOI: 10.1021/ja4017842
Article source: Figure 4a
Adsorbate Nitrogen: InChIKey IJGRMHOSHXDMSA-UHFFFAOYSA-N
Kind: experiment
Temperature: 77 K
Tabular data in the source: 0
pressure (bar)	uptake (cm3(STP)/g)
0.031388	11.828
0.044658	20.4301
0.07634	24.7312
0.101337	25.8065
0.13772	26.8817
0.180884	29.0323
0.237808	29.0323
0.285478	32.2581
0.30597	32.2581
0.331066	31.1828
0.387745	36.5591
0.4219	36.5591
0.462885	36.5591
0.490209	36.5591
0.519614	40.8602
0.551491	40.8602
0.58332	41.9355
0.617376	44.086
0.656036	45.1613
0.687717	49.4624
0.728654	50.5376
0.751374	51.6129
0.783203	52.6882
0.814983	54.8387
0.849039	56.9892
0.892008	63.4409
0.914484	69.8925
0.941464	77.4194
0.956864	89.2473
0.972412	97.8495
0.985584	108.602
0.994251	118.28
0.027277	13.044
0.049997	21.5008
0.110655	21.4374
0.079393	27.8305
0.124262	25.6634
0.166947	25.6187
0.19166	25.5929
0.229947	28.733
0.263583	26.5777
0.297346	28.6625
0.326583	29.692
0.360282	29.6568
0.398538	31.7369
0.42999	31.704
0.470461	32.7217
0.501913	32.6888
0.549219	36.8796
0.592	40.015
0.623484	41.0422
0.663859	38.8798
0.697876	49.4449
0.733885	51.5274
0.772141	53.6075
0.796885	54.6417
0.844255	60.9525
0.878049	64.0974
0.907382	68.307
0.930007	73.5837
0.961777	84.1511
0.969088	103.225
0.992062	120.162
