Adsorption isotherm of Carbon Dioxide on TpPa-2
DOI: 10.1021/ja4017842
Article source: Figure S13
Adsorbate Carbon Dioxide: InChIKey CURLTUGMZLYLDI-UHFFFAOYSA-N
Kind: experiment
Temperature: 273 K
Tabular data in the source: 0
pressure (bar)	uptake (cm3(STP)/g)
0.0194	3.94372
0.040895	7.18954
0.062365	9.97025
0.081666	12.0543
0.105244	14.3689
0.118111	15.7583
0.143833	18.3044
0.163084	19.4583
0.186587	20.3776
0.208045	22.9257
0.229441	24.3111
0.248705	25.6975
0.263704	27.0859
0.289352	28.2368
0.314987	29.1551
0.334263	30.774
0.35349	31.4627
0.372741	32.6166
0.394099	33.3043
0.41552	35.1548
0.441155	36.0731
0.456118	36.7639
0.475381	38.1502
0.496765	39.3031
0.5224	40.2214
0.545891	40.9081
0.567249	41.5959
0.584344	42.2856
0.607872	43.67
0.624954	44.1272
0.64206	45.0495
0.661312	46.2033
0.68267	46.891
0.693356	47.3512
0.719003	48.502
0.73823	49.1908
0.761733	50.1101
0.772431	50.8028
0.795909	51.257
0.827916	51.7072
0.84925	51.9298
0.868538	53.7813
0.887802	55.1677
0.902752	55.6259
0.921966	56.0821
0.936916	56.5402
0.953985	56.7648
0.983885	57.6812
1.00526	58.6015
0.045405	12.439
0.089422	18.0488
0.133575	22.439
0.164498	25.3659
0.197681	28.0488
0.239846	30.2439
0.270824	32.6829
0.315195	35.122
0.348405	37.561
0.386079	40
0.426094	41.4634
0.463986	41.9512
0.506179	43.9024
0.550659	45.3659
0.588415	47.0732
0.619583	47.8049
0.657366	49.2683
0.708542	50.7317
0.744093	52.1951
0.788654	52.9268
0.822027	53.9024
0.862124	54.6341
0.906658	55.6098
0.942236	56.8293
