Adsorption isotherm of Nitrogen on TpPA-1
DOI: 10.1021/ja4017842
Article source: Figure 4a
Adsorbate Nitrogen: InChIKey IJGRMHOSHXDMSA-UHFFFAOYSA-N
Kind: experiment
Temperature: 77 K
Tabular data in the source: 0
pressure (bar)	uptake (cm3(STP)/g)
0.004211	8.60215
0.003134	32.2581
0.008153	72.043
0.005191	87.0968
0.004407	104.301
0.003158	120.43
0.001004	129.032
0.004725	147.312
0.024386	165.591
0.039982	173.118
0.06706	178.495
0.08508	182.796
0.114632	183.871
0.139629	184.946
0.169034	189.247
0.200618	195.699
0.221111	195.699
0.243684	200
0.26403	203.226
0.293631	203.226
0.320709	208.602
0.357141	208.602
0.377634	208.602
0.402533	211.828
0.420651	213.979
0.452431	216.129
0.479656	218.28
0.500051	220.43
0.518169	222.581
0.5546	222.581
0.584005	226.882
0.611133	231.183
0.633805	233.333
0.65202	233.333
0.690582	236.559
0.711026	237.634
0.73617	235.484
0.763298	239.785
0.792605	246.237
0.80825	252.688
0.826172	259.14
0.85325	264.516
0.875579	274.194
0.900087	286.022
0.933409	304.301
0.956644	344.086
0.988448	395.699
0.038875	175.223
0.063905	185.797
0.097731	190.002
0.113648	196.346
0.147379	197.371
0.178863	198.398
0.214872	200.48
0.230662	202.584
0.260058	208.914
0.278126	212.075
0.309611	213.102
0.338785	212.011
0.363593	215.166
0.392989	221.495
0.413304	224.654
0.446844	219.319
0.473962	224.591
0.518958	226.664
0.534747	228.768
0.56177	230.859
0.597938	238.242
0.625056	243.514
0.667741	243.469
0.699289	246.617
0.744221	246.57
0.762258	248.671
0.771498	257.142
0.807698	265.584
0.828203	275.104
0.864339	281.426
0.902881	293.047
0.921171	303.628
0.955759	333.274
1.00918	391.522
