Adsorption isotherm of Carbon Dioxide on TpPa-1 (mechanochemical synthesis)
DOI: 10.1021/ja4017842
Article source: Figure S14
Adsorbate Carbon Dioxide: InChIKey CURLTUGMZLYLDI-UHFFFAOYSA-N
Kind: experiment
Temperature: 273 K
Tabular data in the source: 0
pressure (bar)	uptake (cm3(STP)/g)
0.023588	2.77166
0.03375	3.2598
0.043843	4.56427
0.064141	5.86708
0.074276	6.68175
0.077635	7.171
0.08777	7.98567
0.10132	8.63652
0.121618	9.93933
0.13178	10.4275
0.138541	10.9162
0.172458	12.0535
0.213234	12.5366
0.230199	13.0236
0.253981	13.3463
0.264157	13.6712
0.281137	13.9949
0.298116	14.3187
0.328701	14.6402
0.342279	14.9645
0.372864	15.2861
0.393244	15.6093
0.413597	16.259
0.440753	16.9076
0.461148	17.0676
0.488345	17.2264
0.515528	17.5485
0.525691	18.0366
0.539269	18.3609
0.556248	18.6847
0.5732	19.335
0.593553	19.9847
0.607144	20.1458
0.630926	20.4684
0.654722	20.6278
0.678504	20.9505
0.70566	21.5991
0.709048	21.7618
0.732816	22.2477
0.759958	23.0596
0.790529	23.5444
0.821128	23.7027
0.848311	24.0248
0.875508	24.1836
0.906093	24.5051
0.923073	24.8289
0.933263	24.9905
0.974038	25.4736
0.97744	25.4731
1.01484	25.6302
0.053492	11.0933
0.066973	12.5605
0.083883	13.7006
0.107609	14.6763
0.138139	15.6509
0.165308	16.1363
0.192464	16.7849
0.229796	17.7584
0.253565	18.2443
0.284149	18.5659
0.328312	19.2117
0.358897	19.5332
0.396229	20.5067
0.430188	21.1543
0.460745	21.8023
0.484527	22.125
0.51514	22.12
0.562746	22.2755
0.600119	22.7592
0.630677	23.4072
0.674853	23.8898
0.715642	24.2097
0.759861	24.2025
0.787044	24.5246
0.821003	25.1721
0.851588	25.4936
0.888989	25.6508
0.909384	25.8107
0.943398	25.8052
0.960405	25.8024
0.977426	25.6363
0.997848	25.4697
