Adsorption isotherm of Nitrogen on TpPa-2
DOI: 10.1021/ja4017842
Article source: Figure 4a
Adsorbate Nitrogen: InChIKey IJGRMHOSHXDMSA-UHFFFAOYSA-N
Kind: experiment
Temperature: 77 K
Tabular data in the source: 0
pressure (bar)	uptake (cm3(STP)/g)
0.008275	19.3548
0.007737	31.1828
0.007149	44.086
0.011164	55.914
0.010577	68.8172
0.023847	77.4194
0.050828	84.9462
0.07563	90.3226
0.111963	92.4731
0.134733	92.4731
0.157307	96.7742
0.184581	97.8495
0.200422	100
0.218589	101.075
0.252645	103.226
0.277594	105.376
0.302494	108.602
0.336648	108.602
0.354815	109.677
0.384318	111.828
0.408128	113.978
0.427384	116.129
0.452333	118.28
0.479558	120.43
0.509061	122.581
0.527081	126.882
0.554307	129.032
0.581483	132.258
0.59965	133.333
0.619996	136.559
0.645043	136.559
0.681376	138.71
0.701722	141.935
0.724394	144.086
0.747065	146.237
0.776568	148.387
0.803696	152.688
0.8331	156.989
0.855674	161.29
0.880378	168.817
0.907408	175.269
0.929688	186.021
0.95826	208.602
0.9765	258.065
0.985633	307.527
0.040764	88.2949
0.081394	94.6128
0.124206	98.8083
0.153539	103.018
0.176037	104.054
0.205338	107.204
0.240192	108.228
0.286406	113.48
0.308968	116.636
0.331497	118.733
0.36295	118.7
0.394529	122.907
0.4194	128.181
0.437373	128.163
0.459903	130.259
0.489172	132.349
0.513917	133.383
0.547647	134.408
0.570177	136.504
0.606281	141.767
0.653682	149.138
0.669504	152.301
0.721271	155.428
0.76633	159.621
0.779905	162.787
0.818256	168.047
0.838602	172.266
0.87477	179.649
0.895212	187.048
0.93157	200.791
0.938437	205.024
0.694185	151.216
0.973057	235.729
1.00426	302.481
1.01167	324.735
