Adsorption isotherm of Hydrogen on Zn(bdc)(ted)0.5
DOI: 10.1021/Jp710011b
Adsorbate Hydrogen: InChIKey UFHFLCQGNIYNRP-UHFFFAOYSA-N
Temperature: 77 K
Tabular data in the source: 0
pressure (bar)	uptake (wt%)
0.217533	2.23385
0.224439	2.4
0.357568	2.60308
0.364473	2.76923
0.497602	2.97231
0.753885	3.13846
0.889315	3.39692
1.1456	3.56308
1.65356	3.78462
1.90831	3.91385
2.41703	4.15385
3.04585	4.28308
4.17802	4.52308
4.93152	4.65231
6.68252	4.78154
7.43296	4.83692
9.18013	4.87385
10.1792	4.91077
11.8009	4.92923
12.7984	4.92923
14.4201	4.94769
15.4184	4.96615
16.9146	4.96615
17.7875	4.96615
19.5331	4.96615
20.4059	4.96615
21.9022	4.96615
22.7742	4.94769
24.6445	4.94769
25.3919	4.92923
27.2615	4.91077
28.0096	4.91077
29.6298	4.89231
30.5018	4.87385
32.3721	4.87385
33.2442	4.85538
34.7397	4.83692
35.7364	4.81846
37.4813	4.8
38.2294	4.8
39.7242	4.76308
40.7217	4.76308
42.3411	4.72615
43.4625	4.70769
44.8333	4.68923
45.83	4.67077
47.5741	4.63385
48.6963	4.63385
50.1911	4.59692
