Adsorption isotherm of Hydrogen on Zn(bdc)(ted)0.5
DOI: 10.1021/Jp710011b
Adsorbate Hydrogen: InChIKey UFHFLCQGNIYNRP-UHFFFAOYSA-N
Temperature: 77 K
Tabular data in the source: 0
pressure (bar)	uptake (wt%)
0.100483	0.0763359
0.19084	0.648855
0.196812	0.356234
0.28561	1.00509
0.381679	1.29771
0.57901	1.6285
0.77738	1.9084
1.07727	2.21374
1.68276	2.54453
2.39082	2.84987
3.40448	3.18066
5.33702	3.48601
6.04975	3.56234
7.6798	3.68957
8.49509	3.74046
10.2287	3.79135
11.1466	3.81679
12.7787	3.84224
13.5945	3.86768
15.2267	3.89313
16.2468	3.90585
17.7774	3.90585
18.8996	3.91858
20.2259	3.9313
21.3481	3.94402
22.7767	3.94402
23.8991	3.94402
25.4297	3.94402
26.3481	3.94402
27.6746	3.94402
28.8994	3.9313
30.3282	3.91858
31.2466	3.91858
32.7772	3.91858
33.7981	3.89313
35.2269	3.88041
36.3496	3.86768
38.0846	3.85496
38.9009	3.85496
40.8405	3.81679
41.3507	3.81679
43.392	3.79135
44.1066	3.77863
48.0872	3.72774
49.1076	3.72774
