Adsorption isotherm of Hydrogen on Zn(bdc)(ted)0.5
DOI: 10.1021/Jp710011b
Adsorbate Hydrogen: InChIKey UFHFLCQGNIYNRP-UHFFFAOYSA-N
Temperature: 77 K
Tabular data in the source: 0
pressure (bar)	uptake (wt%)
7.57075	4.03308
11.5483	4.13486
14.5067	4.17303
16.4449	4.19847
17.7715	4.19847
19.7097	4.22392
21.5465	4.22392
23.3832	4.22392
24.9143	4.19847
25.935	4.18575
27.2615	4.18575
28.2819	4.18575
29.3026	4.17303
30.6294	4.16031
31.65	4.14758
32.6707	4.13486
33.5893	4.12214
34.6098	4.12214
35.6304	4.10941
36.6511	4.09669
37.6718	4.08397
38.5904	4.07125
39.6111	4.05852
40.6317	4.0458
41.6524	4.03308
42.571	4.02036
43.5917	4.00763
44.6123	3.99491
45.633	3.98219
46.5516	3.96947
47.5723	3.95674
48.593	3.94402
49.6136	3.9313
