Adsorption isotherm of Hydrogen on Zn(bdc)(ted)0.5
DOI: 10.1021/Jp710011b
Adsorbate Hydrogen: InChIKey UFHFLCQGNIYNRP-UHFFFAOYSA-N
Temperature: 298 K
Tabular data in the source: 0
pressure (bar)	uptake (wt%)
0.414108	0.00616967
1.14417	0.0092545
4.68453	0.0323907
5.72625	0.0385604
6.97556	0.0470437
8.01944	0.0501285
8.95602	0.0570694
10.1072	0.0562982
10.8367	0.0601542
14.9044	0.0771208
15.9488	0.0794344
17.3059	0.0832905
18.1422	0.0840617
19.1861	0.0871465
20.5459	0.0871465
21.2755	0.0910026
22.4191	0.101028
23.6695	0.107969
24.5047	0.110283
25.2348	0.113368
26.5897	0.120308
27.4244	0.123393
36.285	0.167352
37.7473	0.170437
38.7906	0.174293
39.732	0.174293
40.9878	0.173522
41.8241	0.174293
42.7676	0.171208
44.0153	0.182005
45.0571	0.188175
46.8299	0.195887
47.9768	0.201285
49.0255	0.197429
49.8586	0.202828
50.3767	0.209769
