Adsorption isotherm of Hydrogen on Zn(bdc)(ted)0.5
DOI: 10.1021/Jp710011b
Adsorbate Hydrogen: InChIKey UFHFLCQGNIYNRP-UHFFFAOYSA-N
Temperature: 77 K
Tabular data in the source: 0
pressure (bar)	uptake (wt%)
0.400114	0.394402
0.405048	0.152672
0.479566	1.50127
0.488394	1.0687
0.494106	0.788804
0.576673	1.743
0.5868	1.24682
0.873449	2.20102
0.878382	1.95929
0.971595	2.39186
1.17412	2.46819
1.88061	2.84987
2.28566	3.00254
2.58763	3.20611
3.19676	3.35878
3.90793	3.51145
4.8237	3.63868
5.84151	3.7659
7.67539	3.90585
9.30675	3.96947
10.1223	4.00763
11.5498	4.05852
13.2843	4.07125
15.12	4.12214
17.0587	4.12214
19.5075	4.13486
21.3444	4.12214
23.4873	4.12214
24.8144	4.09669
25.6307	4.09669
31.0399	4.0458
32.8777	3.99491
34.5103	3.99491
36.4501	3.94402
36.9603	3.94402
39.2057	3.91858
40.9407	3.90585
42.5739	3.88041
44.2073	3.84224
46.1463	3.82952
47.8818	3.79135
48.801	3.75318
