Adsorption isotherm of Hydrogen on Zn(bdc)(ted)0.5
DOI: 10.1021/Jp710011b
Adsorbate Hydrogen: InChIKey UFHFLCQGNIYNRP-UHFFFAOYSA-N
Temperature: 298 K
Tabular data in the source: 0
pressure (bar)	uptake (wt%)
1.35553	0.00616967
2.60377	0.0161954
3.64657	0.0208226
5.833	0.0354756
8.54299	0.0493573
8.85411	0.0532134
9.79338	0.0562982
11.5646	0.0663239
13.3359	0.0763496
15.6285	0.0886889
16.4627	0.092545
18.0274	0.0987147
18.7564	0.103342
20.8414	0.113368
21.675	0.117995
23.4474	0.126478
24.3861	0.130334
25.8457	0.137275
26.7844	0.141131
29.1822	0.152699
32.2076	0.164267
33.7718	0.171208
34.7111	0.174293
36.3794	0.182005
37.3186	0.18509
38.9874	0.192031
39.9267	0.195116
41.596	0.201285
42.5353	0.20437
44.1	0.21054
45.0399	0.212853
46.7092	0.219023
47.6485	0.222108
49.2143	0.226735
49.9438	0.230591
