Adsorption isotherm of Hydrogen on Zn(bdc)(ted)0.5
DOI: 10.1021/Jp710011b
Adsorbate Hydrogen: InChIKey UFHFLCQGNIYNRP-UHFFFAOYSA-N
Temperature: 298 K
Tabular data in the source: 0
pressure (bar)	uptake (wt%)
1.56043	0.0123393
2.60269	0.0177378
3.64173	0.0277635
7.07586	0.0532134
8.74359	0.0616967
9.47204	0.0670951
10.5132	0.074036
11.2417	0.0794344
12.0753	0.0840617
12.8037	0.0894602
13.5327	0.0940874
14.3658	0.0994859
15.0948	0.104113
15.9278	0.109512
16.7614	0.114139
17.4904	0.118766
18.2194	0.123393
19.053	0.128021
19.8866	0.132648
20.7196	0.138046
21.5532	0.142674
22.2822	0.147301
23.1158	0.151928
23.9494	0.156555
24.6784	0.161183
25.512	0.16581
26.4502	0.170437
27.2843	0.174293
28.1179	0.17892
28.9515	0.183548
29.7851	0.188175
30.6187	0.192802
31.4528	0.196658
32.2864	0.201285
33.12	0.205913
33.9541	0.209769
34.8923	0.214396
35.7265	0.218252
36.5601	0.222879
37.3936	0.227506
38.2278	0.231362
39.166	0.23599
40.0006	0.239075
40.9388	0.243702
41.773	0.247558
42.6071	0.251414
43.5458	0.25527
44.4846	0.259126
45.3187	0.262982
46.2574	0.266838
47.091	0.271465
48.0303	0.27455
48.969	0.278406
49.9078	0.282262
