Adsorption isotherm of Hydrogen on Zn(bdc)(ted)0.5
DOI: 10.1021/Jp710011b
Adsorbate Hydrogen: InChIKey UFHFLCQGNIYNRP-UHFFFAOYSA-N
Temperature: 77 K
Tabular data in the source: 0
pressure (bar)	uptake (wt%)
0.635824	2.27684
0.761443	2.66593
0.999584	2.88213
1.11781	2.95421
1.47183	3.14163
1.70796	3.27139
2.41163	3.45891
2.64708	3.55984
3.46831	3.79062
4.16963	3.87728
5.45572	4.05056
6.62325	4.13736
8.13975	4.19543
8.95662	4.23889
10.7056	4.26821
11.638	4.26848
13.3866	4.2834
14.2031	4.31245
15.8348	4.31292
16.7675	4.3276
18.5161	4.34251
19.4482	4.32837
21.1968	4.34328
21.8961	4.34349
23.8771	4.32965
24.343	4.31537
26.2078	4.31591
26.9071	4.31611
28.7713	4.28783
29.354	4.288
31.3351	4.27416
32.034	4.25995
33.6657	4.26042
34.4809	4.23184
36.3454	4.21797
38.093	4.18965
39.9578	4.19019
40.6564	4.16157
42.5209	4.1477
43.2202	4.1479
45.3175	4.11969
45.7837	4.11982
47.4144	4.07706
48.3468	4.07733
49.9775	4.03458
