Adsorption isotherm of Nitrogen on MCM-41 powder
DOI: 10.1007/s10450-019-00176-5
Article source: Figure 7
Adsorbate Nitrogen: InChIKey IJGRMHOSHXDMSA-UHFFFAOYSA-N
Kind: experiment
Temperature: 77 K
Tabular data in the source: 0
pressure (bar)	uptake (cm3(STP)/g)
0.003779	79.2079
0.003779	102.97
0.006302	126.733
0.008825	150.495
0.016384	174.257
0.028989	194.059
0.044107	209.901
0.059235	221.782
0.074352	229.703
0.084434	233.663
0.099562	245.545
0.117203	253.465
0.138633	265.347
0.160053	273.267
0.177694	281.188
0.197857	289.109
0.223067	297.03
0.249533	310.891
0.273476	324.752
0.297419	334.653
0.328931	368.317
0.349095	409.901
0.375561	499.01
0.438575	542.574
0.467554	542.574
0.482682	546.535
0.502846	550.495
0.528045	550.495
0.553255	558.416
0.578464	562.376
0.60492	566.337
0.631386	566.337
0.654073	570.297
0.679283	574.257
0.708262	574.257
0.732215	578.218
0.759937	582.178
0.790183	582.178
0.807824	586.139
0.835556	590.099
0.858233	590.099
0.885966	594.059
0.908652	594.059
0.936375	598.02
0.959061	603.96
0.981748	613.861
0.99183	617.822
1.00317	627.723
0.308768	340.594
0.359177	453.465
0.409586	530.693
0.42975	530.693
0.44739	538.614
0.459995	544.554
0.468821	550.495
0.486461	558.416
0.507881	570.297
0.533091	574.257
0.558301	574.257
0.5835	578.218
0.60871	580.198
0.633909	582.178
0.659119	584.158
0.684319	586.139
0.710785	590.099
0.734728	590.099
0.759937	590.099
0.785147	594.059
0.810347	598.02
0.835556	594.059
0.860756	598.02
0.870838	598.02
0.896047	598.02
0.922513	601.98
0.954015	609.901
0.984261	609.901
0.994343	619.802
1.00569	625.743
