Adsorption isotherm of Nitrogen on MCM-41 Granulates
DOI: 10.1007/s10450-019-00176-5
Article source: Figure 7
Adsorbate Nitrogen: InChIKey IJGRMHOSHXDMSA-UHFFFAOYSA-N
Kind: experiment
Temperature: 77 K
Tabular data in the source: 0
pressure (bar)	uptake (cm3(STP)/g)
0.008825	114.851
0.016384	130.693
0.023943	146.535
0.036548	158.416
0.04663	166.337
0.059235	178.218
0.069316	182.178
0.079398	186.139
0.094516	194.059
0.117203	203.96
0.134843	205.941
0.156274	215.842
0.175181	221.782
0.197857	229.703
0.223067	237.624
0.245754	249.505
0.273476	265.347
0.297419	281.188
0.321362	302.97
0.347828	326.733
0.394458	340.594
0.40454	344.554
0.424704	348.515
0.449913	356.436
0.462518	356.436
0.482682	356.436
0.4978	360.396
0.525532	362.376
0.548209	364.356
0.575941	368.317
0.603664	368.317
0.628874	368.317
0.652817	368.317
0.680539	372.277
0.704482	376.238
0.727169	380.198
0.754892	380.198
0.776322	380.198
0.802788	380.198
0.81287	384.158
0.827987	384.158
0.85572	384.158
0.88092	388.119
0.903606	392.079
0.92377	400
0.94898	400
0.96662	407.921
0.984261	431.683
0.996866	447.525
1.00191	477.228
0.308768	293.069
0.333967	316.832
0.359177	336.634
0.384376	344.554
0.409586	352.475
0.422191	352.475
0.432273	352.475
0.44739	352.475
0.457472	352.475
0.471334	356.436
0.487718	364.356
0.4978	368.317
0.509148	370.297
0.533091	372.277
0.559557	372.277
0.586023	374.257
0.60871	376.238
0.621305	376.238
0.633909	376.238
0.646514	380.198
0.660376	380.198
0.671724	380.198
0.686842	380.198
0.712051	380.198
0.737251	382.178
0.761194	384.158
0.788927	384.158
0.814126	386.139
0.840592	388.119
0.865802	390.099
0.888489	392.079
0.913688	396.04
0.92377	396.04
0.936375	400
0.94898	407.921
0.964097	413.861
0.979225	427.723
0.989307	443.564
0.994343	455.446
1.00191	471.287
