Adsorption isotherm of Ethene on UTSA-35a
DOI: 10.1039/C2cc31792c
Adsorbate Ethene: InChIKey VGGSQFUCUMXWEO-UHFFFAOYSA-N
Temperature: 296 K
Tabular data in the source: 0
pressure (bar)	uptake (mmol/g)
0.00130837	0.0120567
0.005153	0.022112
0.00930829	0.0461278
0.0128514	0.0580868
0.0177431	0.0700459
0.0187228	0.0824931
0.0238468	0.119688
0.0303732	0.156883
0.0320509	0.144241
0.0386857	0.181534
0.0492731	0.231273
0.0610928	0.281062
0.0778126	0.330802
0.0939204	0.418274
0.126231	0.518095
0.160778	0.630559
0.165158	0.617966
0.194061	0.718031
0.221975	0.780511
0.228022	0.818097
0.24717	0.86813
0.282724	0.955699
0.332201	1.05576
0.458647	1.34371
0.524619	1.45637
0.600081	1.53139
0.650474	1.64415
0.764307	1.81948
0.898064	1.95718
1.02724	2.08239
1.20701	2.25772
1.34402	2.37043
1.49657	2.48314
1.66644	2.59585
1.85559	2.70855
2.06621	2.79617
