Adsorption isotherm of Ethane on UTSA-35a
DOI: 10.1039/C2cc31792c
Adsorbate Ethane: InChIKey OTMSDBZUPAUEDD-UHFFFAOYSA-N
Temperature: 296 K
Tabular data in the source: 0
pressure (bar)	uptake (mmol/g)
0.00145687	0.000685833
0.00206624	0.0139126
0.0027034	0.0269924
0.00529346	0.0282171
0.00638925	0.04115
0.00835949	0.0668197
0.0090615	0.0543767
0.0132014	0.0802424
0.0139306	0.0929303
0.0168143	0.118453
0.0177431	0.118551
0.0232145	0.156811
0.0287833	0.207562
0.0329238	0.207807
0.03766	0.220642
0.0466939	0.296574
0.0644674	0.385291
0.0964806	0.537105
0.126231	0.676084
0.156514	0.814965
0.183904	0.915979
0.228022	1.04227
0.24717	1.14314
0.275226	1.24405
0.306465	1.3072
0.360097	1.4208
0.446483	1.62263
0.497162	1.73614
0.584167	1.9001
0.705097	2.0767
0.785131	2.17762
0.92253	2.30381
1.14384	2.46787
1.2399	2.51838
1.41824	2.63193
1.62225	2.7329
1.90615	2.8465
