Adsorption isotherm of Ethene on UTSA-35a
DOI: 10.1039/C2cc31792c
Adsorbate Ethene: InChIKey VGGSQFUCUMXWEO-UHFFFAOYSA-N
Temperature: 273 K
Tabular data in the source: 0
pressure (bar)	uptake (mmol/g)
0.00529346	0.0722424
0.00956181	0.133893
0.0132014	0.170941
0.0172723	0.220632
0.0329238	0.382543
0.0644674	0.632219
0.0939204	0.844797
0.126231	1.03243
0.156514	1.19512
0.188914	1.35787
0.221975	1.50811
0.24717	1.62082
0.282724	1.74602
0.323391	1.84614
0.350548	1.94635
0.379985	2.04656
0.411895	2.13423
0.471142	2.28452
0.497162	2.34715
0.568675	2.47235
0.668195	2.64769
0.806519	2.84806
0.92253	2.97326
1.08398	3.11096
