Adsorption isotherm of Ethene on UTSA-35a
DOI: 10.1039/C2cc31792c
Adsorbate Ethene: InChIKey VGGSQFUCUMXWEO-UHFFFAOYSA-N
Temperature: 273 K
Tabular data in the source: 0
pressure (bar)	uptake (mmol/g)
0.00206624	0.0237717
0.00344318	0.0479338
0.00750741	0.0966975
0.0109373	0.133649
0.0132014	0.158396
0.0182264	0.220535
0.0232145	0.282819
0.0295679	0.345104
0.0312004	0.382641
0.0386857	0.43243
0.0466939	0.507357
0.059473	0.632365
0.0717844	0.694748
0.0843471	0.794813
0.110358	0.969952
0.12967	1.1202
0.174279	1.32038
0.216088	1.50816
0.260821	1.72108
0.323391	1.90886
0.369907	2.04661
0.434642	2.22194
0.510706	2.38473
0.584167	2.54757
0.686398	2.67273
0.785131	2.83556
1	3.06093
1.2399	3.22362
1.41824	3.33628
1.62225	3.4364
