Adsorption isotherm of Acetylene on UTSA-35a
DOI: 10.1039/C2cc31792c
Adsorbate Acetylene: InChIKey HSFWRNGVRCDJHI-UHFFFAOYSA-N
Temperature: 273 K
Tabular data in the source: 0
pressure (bar)	uptake (mmol/g)
0.00133414	0.0806452
0.00540717	0.258065
0.00979941	0.354839
0.0129613	0.419355
0.0171396	0.516129
0.033282	0.741935
0.0645714	1.08065
0.091464	1.33871
0.12961	1.54839
0.15418	1.74194
0.18997	1.91935
0.218233	2.09677
0.242135	2.24194
0.288182	2.37097
0.308819	2.48387
0.330892	2.6129
0.380265	2.74194
0.421755	2.93548
0.501834	3.09677
0.537702	3.22581
0.617857	3.37097
0.685528	3.51613
0.760801	3.62903
0.815179	3.75806
0.904688	3.87097
1.0039	4
