Adsorption isotherm of N-propane on UTSA-35a
DOI: 10.1039/C2cc31792c
Adsorbate N-propane: InChIKey ATUOYWHBWRKTHZ-UHFFFAOYSA-N
Temperature: 296 K
Tabular data in the source: 0
pressure (bar)	uptake (mmol/g)
0.00105502	0.0755396
0.00137889	0.100719
0.00175465	0.113309
0.00229335	0.138489
0.00291823	0.188849
0.00371338	0.239209
0.00447878	0.302158
0.00569915	0.327338
0.00706057	0.415468
0.00851589	0.503597
0.0114325	0.616906
0.0134249	0.705036
0.0185114	0.868705
0.0223275	0.956835
0.026218	1.05755
0.0291823	1.14568
0.0371339	1.28417
0.0436044	1.38489
0.0512035	1.48561
0.061759	1.59892
0.0765103	1.73741
0.0922826	1.83813
0.127248	2.05216
0.166314	2.17806
0.206041	2.29137
0.248513	2.3795
0.29974	2.45504
0.371336	2.54317
0.447881	2.61871
0.554863	2.69424
0.687399	2.78237
0.829096	2.8705
1	2.95863
1.27248	2.98381
1.61921	3.04676
1.95298	3.10971
