Adsorption isotherm of Hydrogen on UTSA-35a
DOI: 10.1039/C2cc31792c
Adsorbate Hydrogen: InChIKey UFHFLCQGNIYNRP-UHFFFAOYSA-N
Temperature: 77 K
Tabular data in the source: 0
pressure (bar)	uptake (cm3(STP)/g)
0.00722288	4.98662
0.00963051	8.82135
0.0433373	24.5523
0.0601907	32.9929
0.0866746	40.2867
0.115566	47.5815
0.144458	52.9593
0.173349	58.3371
0.199833	62.5638
0.226317	67.174
0.252801	70.2506
0.281692	73.3281
0.310584	76.789
0.337068	79.8656
0.363552	82.1754
0.390036	84.4852
0.418927	86.796
0.447819	89.1067
0.474303	91.0331
0.498379	93.3421
0.524863	94.8851
0.553754	96.8125
0.580238	98.3555
0.606722	100.282
0.633206	101.825
0.662098	102.986
0.686174	104.528
0.715065	106.072
0.768033	108.774
0.796925	109.935
0.823409	111.095
0.873969	113.03
0.926937	115.349
0.960643	116.511
0.987127	117.288
1.0112	118.83
1.0401	119.224
1.06176	120.765
