Adsorption isotherm of Methane on UTSA-35a
DOI: 10.1039/C2cc31792c
Adsorbate Methane: InChIKey VNWKTOKETHGBQD-UHFFFAOYSA-N
Temperature: 296 K
Tabular data in the source: 0
pressure (bar)	uptake (mmol/g)
0.00153465	0.00337409
0.00585289	0.00627414
0.00922678	0.00603712
0.0166272	0.00932755
0.0324668	0.0161733
0.0617206	0.0230331
0.0946738	0.044393
0.123692	0.0586423
0.157336	0.0729055
0.189677	0.0907937
0.254466	0.115821
0.298611	0.140917
0.369689	0.165986
0.445467	0.20186
0.508837	0.234165
0.646492	0.291594
0.758279	0.334676
0.865817	0.38137
0.96295	0.410092
1.04248	0.446021
