Adsorption isotherm of Acetylene on UTSA-35a
DOI: 10.1039/C2cc31792c
Adsorbate Acetylene: InChIKey HSFWRNGVRCDJHI-UHFFFAOYSA-N
Temperature: 273 K
Tabular data in the source: 0
pressure (bar)	uptake (mmol/g)
0.000483459	0.016129
0.00081741	0.0322581
0.00158964	0.0645161
0.0025053	0.112903
0.00438521	0.177419
0.00644184	0.258065
0.0108835	0.370968
0.015982	0.5
0.0218953	0.548387
0.0289534	0.645161
0.0321366	0.741935
0.0440159	0.822581
0.05426	0.935484
0.0623563	1.06452
0.0796196	1.16129
0.0914871	1.30645
0.112781	1.41935
0.125149	1.54839
0.148893	1.72581
0.177164	1.8871
0.203548	2.04839
0.268722	2.35484
0.342599	2.64516
0.393571	2.82258
0.662018	3.5
0.76061	3.66129
0.873992	3.80645
1.03942	4.03226
1.0402	3.93548
1.23708	4.16129
1.47216	4.30645
1.69161	4.45161
