Adsorption isotherm of Hydrogen on UTSA-35a
DOI: 10.1039/C2cc31792c
Adsorbate Hydrogen: InChIKey UFHFLCQGNIYNRP-UHFFFAOYSA-N
Temperature: 77 K
Tabular data in the source: 0
pressure (bar)	uptake (cm3(STP)/g)
0.00481525	3.45221
0.0120381	8.05545
0.0216686	13.8097
0.0288915	17.6462
0.0529678	28.3896
0.0674136	32.9955
0.0890822	39.9042
0.110751	44.896
0.137235	51.4231
0.163719	56.4167
0.19261	61.0277
0.219094	64.8711
0.245578	68.7145
0.269654	72.1736
0.322622	77.9434
0.349106	81.0201
0.37559	83.3299
0.404481	86.024
0.430965	88.3338
0.459857	90.2611
0.483933	92.9535
0.512825	94.4974
0.534493	96.0388
0.565792	97.967
0.61876	101.436
0.676543	104.524
0.729511	107.227
0.787294	109.548
0.835447	111.482
0.89323	114.187
0.94379	115.739
0.975089	116.9
1.00157	118.443
1.05213	119.611
