Adsorption isotherm of Propene on UTSA-35a
DOI: 10.1039/C2cc31792c
Adsorbate Propene: InChIKey QQONPFPTGQHPMA-UHFFFAOYSA-N
Temperature: 273 K
Tabular data in the source: 0
pressure (bar)	uptake (mmol/g)
0.00127248	0.27093
0.00170828	0.356035
0.00217375	0.41268
0.00269296	0.497951
0.00333626	0.583223
0.00413314	0.68278
0.00498506	0.810963
0.0061759	0.881949
0.00744886	0.995847
0.00898442	1.09546
0.0105502	1.20941
0.0185114	1.53682
0.0223275	1.63643
0.0269296	1.76462
0.032481	1.86423
0.039176	1.97813
0.0460034	2.0778
0.0554868	2.17741
0.0744886	2.36251
0.102714	2.53328
0.137891	2.71838
0.211632	2.9175
0.276605	3.08837
0.371336	3.23062
0.472519	3.30155
0.56992	3.38688
0.725212	3.47209
0.898439	3.54308
1.14325	3.59972
1.45476	3.64208
1.90138	3.69867
