Adsorption isotherm of N-propane on UTSA-35a
DOI: 10.1039/C2cc31792c
Adsorbate N-propane: InChIKey ATUOYWHBWRKTHZ-UHFFFAOYSA-N
Temperature: 273 K
Tabular data in the source: 0
pressure (bar)	uptake (mmol/g)
0.00102714	0.264388
0.00120615	0.352518
0.00153479	0.390288
0.00190139	0.453237
0.00235554	0.541367
0.00284112	0.629496
0.00342673	0.717626
0.00402393	0.805755
0.00554868	0.982014
0.00651553	1.08273
0.00947851	1.30935
0.0111304	1.41007
0.0145476	1.58633
0.0190138	1.73741
0.0229335	1.83813
0.0269296	1.92626
0.0307872	2.05216
0.0381417	2.11511
0.0460034	2.20324
0.0554868	2.29137
0.0651553	2.40468
0.0829087	2.46763
0.1	2.58094
0.123886	2.63129
0.170828	2.78237
0.235555	2.88309
0.284111	2.90827
0.351975	2.97122
0.436049	3.03417
0.540204	3.09712
0.706052	3.13489
0.874703	3.19784
1.11304	3.22302
1.45476	3.23561
1.90138	3.26079
