Adsorption isotherm of Ethane on UTSA-35a
DOI: 10.1039/C2cc31792c
Adsorbate Ethane: InChIKey OTMSDBZUPAUEDD-UHFFFAOYSA-N
Temperature: 273 K
Tabular data in the source: 0
pressure (bar)	uptake (mmol/g)
0.001344	0.0131288
0.00201141	0.0390435
0.00301023	0.0649582
0.00501637	0.103659
0.00930829	0.180325
0.0132014	0.231322
0.0155117	0.307155
0.0168143	0.319892
0.0192331	0.332727
0.0238468	0.408658
0.0287833	0.484541
0.0312004	0.522458
0.03766	0.58575
0.0442497	0.674174
0.0534109	0.775236
0.0698811	0.951985
0.0799319	1.05295
0.101808	1.24224
0.126231	1.44407
0.160778	1.64595
0.194061	1.82255
0.260821	2.08748
0.298338	2.22621
0.350548	2.35241
0.390337	2.46591
0.483977	2.60479
0.568675	2.75617
0.633222	2.8319
0.744038	2.93291
0.898064	3.02139
1.02724	3.10976
1.2399	3.18564
1.49657	3.27412
1.85559	3.36264
2.01142	3.38796
