Adsorption isotherm of N-propane on UTSA-35a
DOI: 10.1039/C2cc31792c
Adsorbate N-propane: InChIKey ATUOYWHBWRKTHZ-UHFFFAOYSA-N
Temperature: 273 K
Tabular data in the source: 0
pressure (bar)	uptake (mmol/g)
0.00127248	0.339928
0.00512035	0.893885
0.00874702	1.20863
0.0134249	1.48561
0.0157641	1.6241
0.0307872	2.06475
0.0651553	2.41727
0.102714	2.59353
0.145476	2.69424
0.166314	2.75719
0.185115	2.79496
0.217375	2.83273
0.269298	2.90827
0.342676	2.98381
0.413313	3.03417
0.56992	3.13489
0.706052	3.14748
0.851594	3.17266
1.05501	3.17266
