Adsorption isotherm of Ethane on UTSA-35a
DOI: 10.1039/C2cc31792c
Adsorbate Ethane: InChIKey OTMSDBZUPAUEDD-UHFFFAOYSA-N
Temperature: 273 K
Tabular data in the source: 0
pressure (bar)	uptake (mmol/g)
0.001344	0.0131288
0.00501637	0.103659
0.00930829	0.180325
0.0132014	0.231322
0.0168143	0.294712
0.0329238	0.522555
0.0610928	0.85102
0.0939204	1.12878
0.122884	1.36848
0.156514	1.57036
0.183904	1.74691
0.216088	1.89829
0.24717	2.01184
0.282724	2.16317
0.314814	2.2389
0.369907	2.39027
0.400971	2.49114
0.458647	2.60469
0.538912	2.73089
0.616429	2.81926
0.705097	2.92023
0.874247	3.03393
1.05523	3.09722
