Adsorption isotherm of N-propane on UTSA-35a
DOI: 10.1039/C2cc31792c
Adsorbate N-propane: InChIKey ATUOYWHBWRKTHZ-UHFFFAOYSA-N
Temperature: 296 K
Tabular data in the source: 0
pressure (bar)	uptake (mmol/g)
0.00127248	0.113309
0.0047252	0.327338
0.00922826	0.516187
0.0123885	0.616906
0.016192	0.755396
0.0342673	1.19604
0.0651553	1.64928
0.102714	1.93885
0.137891	2.08993
0.175463	2.21583
0.200598	2.2536
0.217375	2.31655
0.255257	2.39209
0.307873	2.46763
0.424529	2.59353
0.651558	2.78237
0.829096	2.8705
1.05501	2.98381
