Adsorption isotherm of Acetylene on UTSA-35a
DOI: 10.1039/C2cc31792c
Adsorbate Acetylene: InChIKey HSFWRNGVRCDJHI-UHFFFAOYSA-N
Temperature: 296 K
Tabular data in the source: 0
pressure (bar)	uptake (mmol/g)
0.000556224	8.88e-16
0.00108186	0.016129
0.00217947	0.016129
0.00320287	0.0483871
0.00454548	0.0645161
0.00645075	0.0806452
0.00947763	0.145161
0.0154671	0.209677
0.0227269	0.258065
0.0300608	0.322581
0.0383875	0.403226
0.0473456	0.451613
0.0648306	0.564516
0.0857176	0.677419
0.121512	0.83871
0.178324	1.04839
0.22752	1.24194
0.290178	1.48387
0.38338	1.69355
0.472313	1.8871
0.542584	2.06452
0.645445	2.25806
0.74166	2.40323
0.822786	2.56452
1.24785	3.04839
1.38452	3.19355
1.5907	3.35484
1.76492	3.5
2.1003	3.64516
