Adsorption isotherm of Propene on UTSA-35a
DOI: 10.1039/C2cc31792c
Adsorbate Propene: InChIKey QQONPFPTGQHPMA-UHFFFAOYSA-N
Temperature: 296 K
Tabular data in the source: 0
pressure (bar)	uptake (mmol/g)
0.00134249	0.113677
0.00512035	0.325194
0.00922826	0.50969
0.0123885	0.637652
0.0166314	0.751329
0.032481	1.1928
0.0669237	1.73416
0.102714	2.06185
0.130701	2.26135
0.166314	2.38942
0.180225	2.4464
0.211632	2.5175
0.235555	2.57442
0.29974	2.67392
0.361526	2.78782
0.460035	2.90161
0.56992	3.00116
0.725212	3.10066
0.851594	3.20033
1.05501	3.29989
