Adsorption isotherm of Propene on UTSA-35a
DOI: 10.1039/C2cc31792c
Adsorbate Propene: InChIKey QQONPFPTGQHPMA-UHFFFAOYSA-N
Temperature: 273 K
Tabular data in the source: 0
pressure (bar)	uptake (mmol/g)
0.00134249	0.270819
0.00485344	0.83959
0.01	1.36667
0.0137889	1.35172
0.0175465	1.40836
0.0316228	1.66429
0.0669237	2.14845
0.0947851	2.46202
0.123886	2.66146
0.149424	2.74679
0.185115	2.87492
0.217375	2.93173
0.248513	3.03145
0.307873	3.13101
0.371336	3.21633
0.436049	3.28743
0.49851	3.35858
0.634346	3.42951
0.765105	3.51484
0.94786	3.55725
1.05501	3.55703
