Adsorption isotherm of Acetylene on UTSA-35a
DOI: 10.1039/C2cc31792c
Adsorbate Acetylene: InChIKey HSFWRNGVRCDJHI-UHFFFAOYSA-N
Temperature: 296 K
Tabular data in the source: 0
pressure (bar)	uptake (mmol/g)
0.00124451	0.016129
0.00541527	0.0645161
0.00947873	0.129032
0.0134487	0.177419
0.0171803	0.209677
0.0333864	0.33871
0.0648381	0.548387
0.0952138	0.677419
0.125842	0.83871
0.16066	0.951613
0.191237	1.06452
0.243965	1.27419
0.280439	1.37097
0.333645	1.54839
0.397193	1.64516
0.440696	1.79032
0.524306	1.96774
0.602238	2.16129
0.741566	2.41935
0.822683	2.58065
0.945081	2.75806
1.04846	2.91935
