Adsorption isotherm of Methane on UTSA-35a
DOI: 10.1039/C2cc31792c
Adsorbate Methane: InChIKey VNWKTOKETHGBQD-UHFFFAOYSA-N
Temperature: 273 K
Tabular data in the source: 0
pressure (bar)	uptake (mmol/g)
0.00669129	0.00620443
0.00922571	0.00963429
0.0166242	0.0165219
0.0412895	0.0376309
0.053956	0.0446858
0.066819	0.058963
0.0850002	0.069629
0.120262	0.109017
0.152943	0.130474
0.179475	0.155571
0.216326	0.180653
0.240641	0.202181
0.274901	0.230888
0.331152	0.277554
0.358643	0.299095
0.388414	0.320636
0.420657	0.342178
0.480267	0.392468
0.533992	0.431981
0.562987	0.457134
0.642953	0.496633
0.69599	0.53616
0.753402	0.575687
0.794387	0.597242
0.859916	0.636769
0.906433	0.669116
0.955191	0.712254
1.00686	0.744601
1.11863	0.812891
1.17903	0.848835
1.24269	0.884779
1.30991	0.917126
1.38064	0.953069
1.41688	0.98543
