Adsorption isotherm of Methane on UTSA-35a
DOI: 10.1039/C2cc31792c
Adsorbate Methane: InChIKey VNWKTOKETHGBQD-UHFFFAOYSA-N
Temperature: 273 K
Tabular data in the source: 0
pressure (bar)	uptake (mmol/g)
0.00569823	0.00628808
0.0105473	0.00956457
0.0166242	0.0165219
0.0316002	0.0269788
0.0616666	0.0554076
0.094591	0.0767676
0.120262	0.109017
0.152943	0.130474
0.179475	0.155571
0.216326	0.180653
0.240641	0.202181
0.274901	0.230888
0.331152	0.277554
0.358643	0.299095
0.388414	0.320636
0.420657	0.342178
0.480267	0.392468
0.533992	0.431981
0.562987	0.457134
0.642953	0.496633
0.69599	0.53616
0.753402	0.575687
0.794387	0.597242
0.859916	0.636769
0.906433	0.669116
0.955191	0.712254
1.00686	0.744601
