Adsorption isotherm of Nitrogen on UTSA-35a
DOI: 10.1039/C2cc31792c
Adsorbate Nitrogen: InChIKey IJGRMHOSHXDMSA-UHFFFAOYSA-N
Temperature: 77 K
Tabular data in the source: 0
pressure (bar)	uptake (cm3(STP)/g)
0.00044415	156.386
0.00243648	160.746
0.00260145	144.547
0.00645286	166.351
0.0125187	170.708
0.0287492	176.929
0.063304	183.76
0.0978969	186.853
0.110105	188.091
0.126399	188.081
0.158955	191.175
0.220038	193.005
0.25465	194.229
0.285188	195.456
0.299446	195.447
0.315733	196.059
0.348308	197.284
0.38089	197.887
0.413471	198.489
0.446053	199.091
0.476604	199.071
0.505112	199.676
0.541767	200.276
0.572325	199.633
0.60287	200.236
0.635457	200.216
0.665996	201.442
0.696547	201.422
0.761723	201.381
0.792274	201.361
0.85745	201.319
0.888001	201.3
0.924662	201.276
