Adsorption isotherm of Ethene on UTSA-35a
DOI: 10.1039/C2cc31792c
Adsorbate Ethene: InChIKey VGGSQFUCUMXWEO-UHFFFAOYSA-N
Temperature: 296 K
Tabular data in the source: 0
pressure (bar)	uptake (mmol/g)
0.00130837	0.0120567
0.005153	0.022112
0.00930829	0.0461278
0.0128514	0.0580868
0.0177431	0.0700459
0.0320509	0.144241
0.0610928	0.281062
0.0939204	0.418274
0.126231	0.518095
0.165158	0.617966
0.194061	0.705487
0.221975	0.780511
0.24717	0.86813
0.306465	1.01828
0.390337	1.16838
0.458647	1.33116
0.538912	1.48141
0.633222	1.60656
0.764307	1.76931
0.851062	1.89456
0.92253	2.01986
1.05523	2.15761
