Adsorption isotherm of Propene on UTSA-35a
DOI: 10.1039/C2cc31792c
Adsorbate Propene: InChIKey QQONPFPTGQHPMA-UHFFFAOYSA-N
Temperature: 296 K
Tabular data in the source: 0
pressure (bar)	uptake (mmol/g)
0.00141631	0.0992802
0.00180223	0.141639
0.00235554	0.169657
0.00299737	0.212016
0.0039176	0.254319
0.00485344	0.325305
0.0061759	0.367663
0.00765103	0.452935
0.00922826	0.50969
0.0185114	0.879679
0.0223275	0.979291
0.026218	1.09324
0.0371339	1.29252
0.0436044	1.40648
0.0512035	1.52043
0.0634352	1.7057
0.0785869	1.77669
0.0922826	1.89064
0.108364	2.04745
0.145476	2.17542
0.175463	2.3036
0.206041	2.44612
0.248513	2.53145
0.291821	2.6454
0.361526	2.77353
0.424529	2.8732
0.49851	2.97287
0.601271	3.07248
0.744891	3.18632
0.973581	3.2572
1.20613	3.35676
1.49424	3.44203
1.85115	3.51301
