Adsorption isotherm of Benzene on Reconstructed HKUST-1
DOI: 10.1039/c5cc02809d
Article source: Figure 3- M4
Adsorbate Benzene: InChIKey UHOVQNZJYSORNB-UHFFFAOYSA-N
Kind: experiment
Temperature: 298 K
Tabular data in the source: 0
pressure (bar)	uptake (mmol/g)
1e-06	1.2806
2e-06	2.2364
2e-06	2.1445
8e-06	2.4375
8e-06	2.445
1.7e-05	2.5739
0.000164	2.9931
0.000603	3.3964
0.003118	3.6748
0.006912	3.8074
0.011021	3.8893
0.016483	3.9754
0.024985	4.0641
0.033649	4.1461
0.042232	4.2289
0.050662	4.3252
0.058807	4.4258
0.06633	4.5507
0.073962	4.6631
0.08101	4.8091
0.086801	5.0092
0.092781	5.2261
0.098323	5.4447
0.103536	5.7096
