Adsorption isotherm of Benzene on Reconstructed HKUST-1
DOI: 10.1039/c5cc02809d
Article source: Figure 3- L2
Adsorbate Benzene: InChIKey UHOVQNZJYSORNB-UHFFFAOYSA-N
Kind: experiment
Temperature: 298 K
Tabular data in the source: 0
pressure (bar)	uptake (mmol/g)
2.8e-05	0.8528
2.8e-05	0.854
0.000759	1.6566
0.004048	1.8699
0.009281	1.9542
0.015129	2.0224
0.024156	2.0923
0.03319	2.1589
0.041018	2.2195
0.049738	2.2919
0.060271	2.4107
0.069737	2.5506
0.077952	2.709
0.084582	2.8818
0.091189	3.063
0.097278	3.2712
0.10227	3.5443
