Adsorption isotherm of Nitrogen on Reconstructed HKUST-1
DOI: 10.1039/c5cc02809d
Article source: Figure S1- M2
Adsorbate Nitrogen: InChIKey IJGRMHOSHXDMSA-UHFFFAOYSA-N
Kind: experiment
Temperature: 77 K
Tabular data in the source: 0
pressure (bar)	uptake (cm3(STP)/g)
0.001672	142.4
0.010923	151.53
0.021988	154.26
0.033711	156.756
0.040226	158.628
0.050713	159.602
0.085954	162.601
0.121975	164.859
0.158776	166.649
0.192518	168.009
0.228468	169.526
0.263384	170.925
0.298554	172.052
0.333724	172.944
0.369157	174.226
0.404398	175.079
0.439963	175.893
0.476765	177.488
0.51083	178.692
0.546851	179.662
0.581636	180.749
0.617262	181.72
0.65309	182.69
0.68826	184.44
0.723886	186.425
0.758934	188.176
0.794489	190.551
0.830186	193.16
0.865103	197.057
0.899817	203.92
0.933031	220.539
0.970866	288.007
0.059569	162.957
0.075599	164.593
0.10478	166.735
0.138319	168.681
0.174279	169.846
0.209712	171.519
0.244751	172.372
0.280316	173.732
0.316012	174.664
0.351638	175.751
0.386687	176.214
0.423032	177.691
0.466217	179.323
0.499167	192.743
0.528673	201.558
0.563782	202.528
0.600259	203.576
0.636078	205.131
0.670934	206.062
0.707076	207.501
0.741273	209.408
0.777163	211.275
0.814744	214.431
0.856237	219.497
0.892187	234.087
0.943376	295.074
0.979124	381.43
1.00653	427.045
