Adsorption isotherm of Nitrogen on CuBTC
DOI: 10.1039/c5cc02809d
Article source: Figure 2- fresh
Adsorbate Nitrogen: InChIKey IJGRMHOSHXDMSA-UHFFFAOYSA-N
Kind: experiment
Temperature: 77 K
Tabular data in the source: 0
pressure (bar)	uptake (cm3(STP)/g)
5.1e-05	187.65
5.1e-05	107.06
7.1e-05	50.13
0.000132	132.12
0.000132	137.85
0.000142	189.2
0.000193	214.49
0.000294	160.94
0.000415	240.44
0.004215	263.23
0.004661	275.03
0.009069	280.55
0.015857	283.79
0.01914	282.26
0.028462	286.77
0.040023	290.58
0.053672	296.29
0.064787	298.64
0.085893	302.25
0.109168	305.17
0.120658	304.47
0.144013	308.47
0.156618	307.14
0.179669	311.64
0.192649	311.01
0.215245	315.13
0.22867	314.12
0.251499	317.67
0.265157	317.74
0.286111	320.47
0.301999	319.64
0.322963	322.43
0.337514	322.62
0.358103	325.22
0.369887	324.59
0.392786	327.32
0.405918	327.38
0.428818	329.54
0.441351	329.67
0.464768	332.14
0.477302	332.01
0.499309	335.31
0.512664	333.92
0.536536	337.22
0.547651	336.46
0.570703	339.44
0.585618	338.3
0.606653	342.23
0.619481	341.28
0.642238	344.01
0.654549	344.2
0.67834	346.74
0.689304	346.67
0.714301	349.97
0.724818	349.28
0.748832	352.7
0.760768	352.77
0.785836	356.07
0.796131	356.07
0.821867	360.7
0.829842	360.38
0.860128	366.41
0.865954	365.9
0.901012	370.98
0.905339	376.88
0.935321	386.27
0.945018	403.09
0.9674	413.31
0.979681	577.22
0.981991	625.32
