Adsorption isotherm of Nitrogen on Degraded HKUST-1
DOI: 10.1039/c5cc02809d
Article source: Figure 2- degraded
Adsorbate Nitrogen: InChIKey IJGRMHOSHXDMSA-UHFFFAOYSA-N
Kind: experiment
Temperature: 77 K
Tabular data in the source: 0
pressure (bar)	uptake (cm3(STP)/g)
0.00686	10.72
0.014175	11.86
0.021633	11.48
0.029911	12.56
0.040206	12.82
0.054381	13.51
0.061991	17.26
0.08026	17.26
0.095783	14.21
0.110181	18.27
0.121073	15.42
0.144489	18.72
0.155686	16.75
0.180004	19.99
0.190663	16.62
0.215508	20.62
0.226401	17.64
0.250344	21
0.261084	18.08
0.285483	22.71
0.297196	18.46
0.321585	24.11
0.332994	19.86
0.357019	24.3
0.369178	20.05
0.392523	25.95
0.404763	21.38
0.427358	26.46
0.440571	21.06
0.463471	27.15
0.47563	23.35
0.499198	27.98
0.510982	22.9
0.5353	28.87
0.546719	25.5
0.571108	30.26
0.582072	26.52
0.606167	30.52
0.617586	26.9
0.643171	30.71
0.653394	26.9
0.677408	31.85
0.688453	28.61
0.713287	34.26
0.72344	30.2
0.748579	34.45
0.759319	30.26
0.784681	35.66
0.795047	32.17
0.820185	36.35
0.830034	32.48
0.856662	38.76
0.866288	35.4
0.893443	42
0.901651	37.12
0.932231	46.7
0.937824	41.75
0.971251	49.42
0.977736	55.39
1.00601	68.52
