Adsorption isotherm of Nitrogen on Reconstructed HKUST-1
DOI: 10.1039/c5cc02809d
Article source: Figure 2- M4
Adsorbate Nitrogen: InChIKey IJGRMHOSHXDMSA-UHFFFAOYSA-N
Kind: experiment
Temperature: 77 K
Tabular data in the source: 0
pressure (bar)	uptake (cm3(STP)/g)
2e-05	89.36
4.1e-05	176.5
8.1e-05	29.07
0.000111	147.05
0.000182	117.54
0.000203	206.2
0.000314	58.96
0.00155	231.9
0.007366	245.36
0.016921	250.88
0.021248	253.36
0.029678	254.88
0.039598	258.57
0.055931	261.11
0.061899	264.6
0.080776	267.02
0.089055	264.42
0.105469	269.63
0.122998	268.68
0.139028	271.86
0.159546	271.1
0.174086	275.04
0.193784	273.96
0.209601	277.14
0.229582	276.07
0.244953	278.74
0.264641	277.92
0.280539	280.33
0.298514	278.69
0.315293	282.05
0.334464	280.98
0.350726	283.59
0.369968	281.88
0.386758	285.25
0.404874	282.97
0.422404	286.52
0.441503	283.8
0.457766	287.74
0.476633	286.22
0.493422	289.78
0.512887	287.75
0.528775	290.87
0.54675	288.71
0.564735	292.84
0.582558	289.55
0.600087	293.93
0.617768	292.09
0.635298	295.27
0.65305	293.12
0.671319	297.57
0.688706	295.16
0.706681	299.42
0.725031	297.83
0.741436	301.14
0.760464	299.62
0.777244	303.05
0.795067	301.47
0.813498	305.92
0.831402	304.65
0.851393	309.61
0.867048	308.47
0.896888	318.95
0.90316	313.81
0.935382	325.43
0.939496	348.09
0.966266	352.22
0.972092	363.65
0.978759	494.7
0.991688	576.89
