Adsorption isotherm of Benzene on CuBTC
DOI: 10.1039/c5cc02809d
Article source: Figure 3- fresh
Adsorbate Benzene: InChIKey UHOVQNZJYSORNB-UHFFFAOYSA-N
Kind: experiment
Temperature: 298 K
Tabular data in the source: 0
pressure (bar)	uptake (mmol/g)
0	0.6188
1e-06	0.6431
8e-06	1.2964
9e-06	1.6622
1.6e-05	1.942
1.7e-05	1.9634
1.7e-05	2.5945
1.7e-05	2.7293
2.3e-05	0.9854
6.1e-05	3.5688
6.9e-05	3.5528
0.000208	3.8731
0.000333	4.1842
0.001415	4.437
0.003864	4.6088
0.006949	4.6964
0.010874	4.7721
0.015056	4.8326
0.021576	4.8955
0.028331	4.9467
0.034983	5.0012
0.04151	5.0515
0.04806	5.0992
0.054478	5.1521
0.060838	5.2142
0.067132	5.2847
0.073155	5.3687
0.078704	5.4587
0.083982	5.5689
0.088982	5.6968
0.093763	5.8374
0.098127	6.0184
0.101987	6.2138
0.105503	6.4345
