Adsorption isotherm of Nitrogen on Reconstructed HKUST-1
DOI: 10.1039/c5cc02809d
Article source: Figure S1- M3
Adsorbate Nitrogen: InChIKey IJGRMHOSHXDMSA-UHFFFAOYSA-N
Kind: experiment
Temperature: 77 K
Tabular data in the source: 0
pressure (bar)	uptake (cm3(STP)/g)
0.009677	186.535
0.020812	191.06
0.031948	193.673
0.039436	195.194
0.050125	196.519
0.095914	201.117
0.12314	203.259
0.158118	205.283
0.192447	206.956
0.228133	208.745
0.263374	209.95
0.298412	211.193
0.334109	212.749
0.36863	213.641
0.405239	214.962
0.440997	216.166
0.476298	216.824
0.512259	218.341
0.5475	219.467
0.583186	220.437
0.61862	221.641
0.653921	222.65
0.688777	224.245
0.724859	225.605
0.759897	227.044
0.796374	229.146
0.831027	231.365
0.8664	234.559
0.901955	240.095
0.934591	253.319
0.968262	295.422
0.059245	200.888
0.076176	202.837
0.104902	205.174
0.138319	207.432
0.174005	209.105
0.209054	210.426
0.24468	211.865
0.27985	212.835
0.315739	214.312
0.350848	215.556
0.38694	216.487
0.421917	217.379
0.462235	218.778
0.497212	226.811
0.528602	234.65
0.564553	235.581
0.599408	236.513
0.635551	237.717
0.671055	238.999
0.706813	240.203
0.742246	241.798
0.778267	243.704
0.81442	246.079
0.854666	249.82
0.901174	260.622
0.942201	291.952
0.978729	373.898
0.991556	443.984
