Adsorption isotherm of Nitrogen on Reconstructed HKUST-1
DOI: 10.1039/c5cc02809d
Article source: Figure S1- M1
Adsorbate Nitrogen: InChIKey IJGRMHOSHXDMSA-UHFFFAOYSA-N
Kind: experiment
Temperature: 77 K
Tabular data in the source: 0
pressure (bar)	uptake (cm3(STP)/g)
0.007549	70.711
0.020832	74.377
0.024409	75.508
0.030337	77.068
0.039983	78.394
0.057502	80.108
0.087525	82.562
0.12238	84.43
0.158199	86.298
0.192791	87.658
0.228224	89.292
0.263202	90.418
0.298828	92.091
0.333805	93.139
0.369299	94.421
0.405391	95.859
0.439061	97.727
0.474566	98.932
0.510648	100.604
0.545888	102.355
0.581251	104.652
0.616552	107.222
0.652057	110.651
0.688331	115.094
0.723967	120.513
0.758154	128.156
0.795219	136.619
0.830652	143.326
0.86569	148.003
0.900212	149.832
0.934997	153.105
0.969386	162.817
0.05887	83.425
0.075609	84.476
0.104527	86.384
0.138917	87.823
0.174228	89.378
0.209327	90.738
0.245217	92.372
0.27987	93.381
0.315506	94.742
0.351648	96.141
0.388125	97.774
0.428767	100.266
0.473319	112.278
0.494679	140.841
0.527701	145.753
0.564117	146.684
0.600462	147.849
0.635115	148.663
0.671521	149.477
0.706174	150.057
0.741608	150.949
0.776849	151.646
0.812414	152.382
0.848891	153.742
0.885884	155.259
0.929201	159.467
0.978435	181.976
1.00416	201.914
