Adsorption isotherm of Nitrogen on Reconstructed HKUST-1
DOI: 10.1039/c5cc02809d
Article source: Figure 2- L2
Adsorbate Nitrogen: InChIKey IJGRMHOSHXDMSA-UHFFFAOYSA-N
Kind: experiment
Temperature: 77 K
Tabular data in the source: 0
pressure (bar)	uptake (cm3(STP)/g)
7e-06	59.27
0.000375	29.95
0.000537	39.46
0.002027	118.03
0.015898	136.12
0.022991	137.07
0.030367	138.53
0.040885	139.55
0.050804	140.95
0.059903	144.95
0.078922	147.42
0.085782	142.41
0.102936	148.13
0.122998	146.54
0.137843	149.72
0.158655	147.94
0.172668	150.93
0.194149	149.28
0.208324	151.95
0.229501	150.68
0.244416	153.22
0.264924	151.7
0.280214	154.18
0.299608	152.91
0.315121	155.2
0.333765	154.06
0.351	156.22
0.368519	154.44
0.386494	156.73
0.404094	155.59
0.421694	158.13
0.440115	156.35
0.459286	159.15
0.476592	156.99
0.49479	162.83
0.51157	157.69
0.528795	168.93
0.54752	158.59
0.564816	170.27
0.583764	159.67
0.598385	171.41
0.618964	161.2
0.635075	173.07
0.654762	161.9
0.671846	174.09
0.688696	163.17
0.706823	175.55
0.725315	164.38
0.742773	178.41
0.760292	166.1
0.778196	181.53
0.796465	168.07
0.817652	186.99
0.832111	171.12
0.859043	198.8
0.866572	174.62
0.901033	182.43
0.902157	186.13
0.932575	201.98
0.943103	262.01
0.970845	254.08
0.97883	313.35
1.00359	351.24
