Adsorption isotherm of Benzene on Reconstructed HKUST-1
DOI: 10.1039/c5cc02809d
Article source: Figure 3- M5
Adsorbate Benzene: InChIKey UHOVQNZJYSORNB-UHFFFAOYSA-N
Kind: experiment
Temperature: 298 K
Tabular data in the source: 0
pressure (bar)	uptake (mmol/g)
4.4e-05	0.4393
6e-05	2.5253
6.1e-05	2.5095
9.6e-05	1.256
9.6e-05	1.2683
0.000178	2.921
0.000186	3.3714
0.00042	3.755
0.001721	4.1033
0.005895	4.2956
0.011772	4.4094
0.01827	4.4811
0.028525	4.562
0.038876	4.6371
0.04897	4.7197
0.058977	4.8091
0.068216	4.912
0.076805	5.0537
0.084918	5.2071
0.092374	5.3969
0.099442	5.6169
0.103316	5.8008
