Adsorption isotherm of Nitrogen on Reconstructed HKUST-1
DOI: 10.1039/c5cc02809d
Article source: Figure S1- L1
Adsorbate Nitrogen: InChIKey IJGRMHOSHXDMSA-UHFFFAOYSA-N
Kind: experiment
Temperature: 77 K
Tabular data in the source: 0
pressure (bar)	uptake (cm3(STP)/g)
0.008906	103.647
0.018877	106.573
0.023497	107.548
0.030529	108.99
0.040824	110.042
0.051311	110.587
0.086613	113.196
0.122765	114.127
0.159435	115.761
0.194341	116.614
0.229653	117.623
0.265147	118.281
0.300905	118.783
0.33569	119.441
0.371062	120.333
0.406293	120.952
0.441929	121.415
0.477616	121.761
0.512988	122.497
0.548685	122.413
0.583399	123.032
0.618964	123.768
0.654661	124.114
0.69055	124.967
0.725659	126.054
0.76011	126.907
0.796323	128.463
0.831564	130.135
0.867322	133.486
0.901519	139.373
0.932453	154.939
0.970167	198.29
0.059194	113.24
0.077169	114.603
0.104324	115.925
0.13839	117.013
0.173438	118.061
0.209135	118.875
0.244436	119.299
0.279799	120.191
0.315688	120.732
0.350797	121.429
0.386494	121.853
0.421796	122.511
0.459316	122.895
0.494689	125.855
0.527579	131.041
0.562749	132.05
0.599033	132.63
0.635176	133.327
0.670873	134.453
0.706894	135.774
0.74181	138.032
0.778672	140.68
0.817298	144.928
0.859246	153.585
0.900607	174.456
0.942414	205.943
0.97882	248.903
1.00421	283.709
