Adsorption isotherm of Benzene on Degraded HKUST-1
DOI: 10.1039/c5cc02809d
Article source: Figure 3- degraded
Adsorbate Benzene: InChIKey UHOVQNZJYSORNB-UHFFFAOYSA-N
Kind: experiment
Temperature: 298 K
Tabular data in the source: 0
pressure (bar)	uptake (mmol/g)
0.003107	0.1477
0.005666	0.1697
0.008283	0.1875
0.010878	0.2069
0.01359	0.2188
0.018955	0.2451
0.024365	0.2773
0.029591	0.3128
0.034737	0.3458
0.039708	0.3839
0.044657	0.4355
0.049431	0.4972
0.053919	0.5572
0.058415	0.6282
0.062647	0.7067
0.06677	0.7852
0.070323	0.8857
0.074081	0.9895
0.077107	1.1136
0.080287	1.2233
0.083358	1.3533
0.086618	1.4689
0.089959	1.5812
0.093424	1.7078
0.097547	1.8842
0.10072	2.0141
0.103666	2.1542
