Adsorption isotherm of Nitrogen on Reconstructed HKUST-1
DOI: 10.1039/c5cc02809d
Article source: Figure 2- M5
Adsorbate Nitrogen: InChIKey IJGRMHOSHXDMSA-UHFFFAOYSA-N
Kind: experiment
Temperature: 77 K
Tabular data in the source: 0
pressure (bar)	uptake (cm3(STP)/g)
3e-05	50.72
4.1e-05	59.69
0.000172	207.32
0.000182	150.33
0.000243	91.66
0.000436	175.7
0.000446	176.31
0.0023	260.6
0.006404	261.56
0.013415	268.66
0.022291	271.96
0.032444	274.18
0.040571	275.51
0.055638	278.68
0.061454	281.09
0.080705	281.92
0.105692	285.4
0.122998	286.29
0.138957	287.94
0.158655	288.82
0.174238	289.78
0.193632	290.98
0.209824	291.68
0.228691	291.93
0.245703	293.32
0.264347	293.89
0.280913	293.89
0.298888	294.97
0.315597	295.67
0.335213	296.3
0.35103	295.47
0.369968	297.63
0.38698	298.14
0.404662	298.45
0.423457	298.64
0.441281	300.61
0.45956	300.42
0.475964	300.54
0.500961	303.01
0.512593	301.17
0.528937	316.08
0.546608	301.42
0.56436	316.9
0.582558	302.18
0.599793	317.15
0.617616	304.78
0.635379	318.1
0.653425	302.94
0.670731	318.16
0.688625	303.38
0.706235	319.11
0.723987	303.57
0.741962	320.13
0.760008	304.58
0.777244	321.33
0.795067	305.15
0.812606	322.09
0.830581	308.58
0.848333	323.61
0.86795	309.97
0.8863	326.4
0.901063	312.38
0.933821	333.37
0.936425	318.59
0.968201	334.26
0.977259	447.24
1.00553	455.17
