Adsorption isotherm of Nitrogen on Fe₃O₄@ZIF-8
DOI: 10.1039/c4tb02007c
Article source: Figure  3c
Adsorbate Nitrogen: InChIKey IJGRMHOSHXDMSA-UHFFFAOYSA-N
Kind: experiment
Temperature: 77 K
Tabular data in the source: 0
pressure (bar)	uptake (cm3(STP)/g)
0.003009	4.069
0.003121	6.697
0.003698	15.242
0.003931	12.471
0.004043	9.634
0.004053	25.309
0.004053	25.899
0.004053	26.36
0.004175	32.958
0.004398	23.654
0.004418	29.146
0.004428	30.753
0.004529	63.012
0.004549	85.808
0.004641	48.199
0.004661	83.367
0.004752	29.956
0.004752	26.56
0.004772	71.952
0.004772	75.678
0.004772	80.629
0.004772	82.623
0.004783	92.241
0.004874	38.797
0.004884	59.68
0.004985	45.296
0.004995	45.901
0.005097	32.826
0.005107	53.709
0.005218	50.525
0.005218	51.267
0.005573	65.948
0.005705	97.421
0.005816	94.419
0.006515	100.093
0.007326	101.842
0.007559	103.59
0.008136	106.031
0.008714	108.638
0.009058	112.003
0.010214	114.114
0.010913	117.055
0.011723	117.743
0.021653	123.913
0.032515	129.127
0.040145	140.311
0.053206	145.162
0.057472	146.515
0.088315	149.454
0.09409	150.016
0.120435	152.13
0.1239	152.229
0.154277	154.178
0.159242	154.179
0.190086	156.392
0.194129	156.195
0.225083	158.177
0.229592	157.947
0.260547	159.665
0.265401	159.633
0.297277	161.384
0.300976	161.451
0.334241	163.136
0.337129	163.269
0.370515	165.085
0.37167	165.152
0.404824	167.069
0.406901	166.937
0.44121	169.377
0.442476	169.481
0.477484	170.54
0.478061	170.589
0.512482	173.531
0.512826	173.546
0.546902	173.582
0.547824	173.64
0.583287	175.4
0.584098	176.885
0.618863	177.921
0.619795	178.01
0.653516	179.399
0.653982	179.729
0.689213	181.646
0.690368	181.943
0.724909	183.628
0.725943	183.702
0.758985	186.106
0.76164	186.7
0.795948	188.353
0.79687	188.463
0.830713	191.622
0.832912	193.569
0.866754	195.354
0.871496	199.214
0.894598	203.769
0.901185	201.065
0.937459	208.128
0.94439	215.749
0.970156	226.309
0.972234	220.305
1.00424	249.075
1.0047	249.505
