Adsorption isotherm of Cs(I), Sr2+, Water on irradiated Saccharomyces cerevisia
DOI: 10.1007/s10967-017-5598-y
Article source: Figure 7
Adsorbate Cs(I): InChIKey NCMHKCKGHRPLCM-UHFFFAOYSA-N
Adsorbate Sr2+: InChIKey PWYYWQHXAPXYMF-UHFFFAOYSA-N
Adsorbate Water: InChIKey XLYOFNOQVPJJNP-UHFFFAOYSA-N
Kind: experiment
Temperature: 305 K
Tabular data in the source: 0
pressure (bar)	Cs(I) fraction	Cs(I) uptake (mg/g)	Sr2+ fraction	Sr2+ uptake (mg/g)	Water fraction	Water uptake (mg/g)	total uptake (mg/g)
1.01325	10.63	1.791					
1.01325	24.69	5.129					
1.01325	93.94	10.68					
1.01325	275.73	12.473					
1.01325	458.17	14.231					
