Adsorption isotherm of Sr2+, Water on irradiated Saccharomyces cerevisia
DOI: 10.1007/s10967-017-5598-y
Article source: Figure 6
Adsorbate Sr2+: InChIKey PWYYWQHXAPXYMF-UHFFFAOYSA-N
Adsorbate Water: InChIKey XLYOFNOQVPJJNP-UHFFFAOYSA-N
Kind: experiment
Temperature: 305 K
Tabular data in the source: 0
pressure (bar)	Sr2+ fraction	Sr2+ uptake (mg/g)	Water fraction	Water uptake (mg/g)	total uptake (mg/g)
1.01325	1.126	2.441			
1.01325	3.163	4.785			
1.01325	3.205	7.324			
1.01325	5.502	9.531			
1.01325	8.839	14.277			
1.01325	10.788	18.945			
1.01325	16.685	23.516			
1.01325	21.02	28.047			
1.01325	31.604	31.973			
1.01325	42.882	35.84			
1.01325	61.32	38.984			
1.01325	84.401	41.738			
1.01325	143.799	45.645			
