Adsorption isotherm of Cs(I), Sr2+, Water on irradiated Saccharomyces cerevisiae
DOI: 10.1007/s10967-017-5598-y
Article source: Figure 7
Adsorbate Cs(I): InChIKey NCMHKCKGHRPLCM-UHFFFAOYSA-N
Adsorbate Sr2+: InChIKey PWYYWQHXAPXYMF-UHFFFAOYSA-N
Adsorbate Water: InChIKey XLYOFNOQVPJJNP-UHFFFAOYSA-N
Kind: experiment
Temperature: 305 K
Tabular data in the source: 0
pressure (bar)	Cs(I) fraction	Cs(I) uptake (mg/g)	Sr2+ fraction	Sr2+ uptake (mg/g)	Water fraction	Water uptake (mg/g)	total uptake (mg/g)
1.01325			2.56	3.594			
1.01325			5.79	7.774			
1.01325			16.8	18.419			
1.01325			57.74	34.281			
1.01325			151.51	44.834			
