Adsorption isotherm of Cs(I), Sr2+, Water on irradiated Saccharomyces cerevisia
DOI: 10.1007/s10967-017-5598-y
Article source: Figure 7
Adsorbate Cs(I): InChIKey NCMHKCKGHRPLCM-UHFFFAOYSA-N
Adsorbate Sr2+: InChIKey PWYYWQHXAPXYMF-UHFFFAOYSA-N
Adsorbate Water: InChIKey XLYOFNOQVPJJNP-UHFFFAOYSA-N
Kind: experiment
Temperature: 305 K
Tabular data in the source: 0
pressure (bar)	Cs(I) fraction	Cs(I) uptake (mg/g)	Sr2+ fraction	Sr2+ uptake (mg/g)	Water fraction	Water uptake (mg/g)	total uptake (mg/g)
1.01325	14.48	1.18					
1.01325	48.33	2.698					
1.01325	150.74	5.05					
1.01325	332.36	6.824					
1.01325	521.84	7.761					
