Adsorption isotherm of Cs(I), Water on irradiated Saccharomyces cerevisia
DOI: 10.1007/s10967-017-5598-y
Article source: Figure 6
Adsorbate Cs(I): InChIKey NCMHKCKGHRPLCM-UHFFFAOYSA-N
Adsorbate Water: InChIKey XLYOFNOQVPJJNP-UHFFFAOYSA-N
Kind: experiment
Temperature: 305 K
Tabular data in the source: 0
pressure (bar)	Cs(I) fraction	Cs(I) uptake (mg/g)	Water fraction	Water uptake (mg/g)	total uptake (mg/g)
1.01325	5.24	2.005			
1.01325	11.13	3.987			
1.01325	17.01	5.825			
1.01325	29.14	7.105			
1.01325	40.9	10.94			
1.01325	70.26	12.998			
1.01325	116.07	13.431			
1.01325	158.43	14.176			
1.01325	194.42	15.517			
1.01325	239.72	16.026			
1.01325	286.68	16.344			
1.01325	331.21	16.861			
1.01325	432.51	16.69			
