Adsorption isotherm of Copper(II) Ion, Water on Kaolinite
DOI: 10.1016/j.chemosphere.2017.03.073
Article source: Figure 3
Adsorbate Copper(II) Ion: InChIKey JPVYNHNXODAKFH-UHFFFAOYSA-N
Adsorbate Water: InChIKey XLYOFNOQVPJJNP-UHFFFAOYSA-N
Kind: experiment
Temperature: 298 K
Tabular data in the source: 0
pressure (bar)	Copper(II) Ion fraction	Copper(II) Ion uptake (mg/g)	Water fraction	Water uptake (mg/g)	total uptake (mg/g)
1.01325	0.007619	0.059131			
1.01325	0.025849	0.302613			
1.01325	0.106864	0.537299			
1.01325	0.420126	2.82667			
1.01325	0.615389	5.80663			
