Adsorption isotherm of Water on Ni-DOBDC
DOI: 10.1021/acs.iecr.5b04739
Article source: Figure 5
Adsorbate Water: InChIKey XLYOFNOQVPJJNP-UHFFFAOYSA-N
Kind: experiment
Temperature: 298 K
Tabular data in the source: 0
pressure (bar)	uptake (wt%)
0.001618	16.3375
0.0023	32.1005
0.003156	35.4758
0.006249	39.6768
0.009404	41.939
0.01256	43.3752
1.57482	44.632
0.018841	45.4219
0.021981	46.8582
0.028277	48.5817
0.029847	49.7307
0.025216	48.3662
0.022076	47.6481
0.015701	45.4219
0.01256	44.0574
0.009484	42.5494
0.004694	38.9587
0.001586	32.6391
