Adsorption isotherm of Carbon Dioxide on UiO-66-CH3
DOI: 10.1021/acs.iecr.5b04739
Article source: Figure 6
Adsorbate Carbon Dioxide: InChIKey CURLTUGMZLYLDI-UHFFFAOYSA-N
Kind: experiment
Temperature: 298 K
Tabular data in the source: 0
pressure (bar)	uptake (mmol/g)
0.001441	0.007164
0.10951	0.752239
0.229587	1.08179
0.311239	1.28955
0.425552	1.49373
0.460134	1.57254
0.540826	1.76239
0.655139	1.98448
0.782901	2.23164
0.891451	2.40358
0.936599	2.48239
0.824207	2.29254
0.699328	2.05254
0.597502	1.85194
0.505283	1.66209
0.417867	1.45075
0.330932	1.31821
0.243516	1.07284
