Adsorption isotherm of Water on UiO-66-CH3
DOI: 10.1021/acs.iecr.5b04739
Article source: Figure 5
Adsorbate Water: InChIKey XLYOFNOQVPJJNP-UHFFFAOYSA-N
Kind: experiment
Temperature: 298 K
Tabular data in the source: 0
pressure (bar)	uptake (wt%)
0.000301	0.10772
0.001491	0.718133
0.003156	1.11311
0.00628	2.1903
0.00942	3.7702
0.012529	8.6535
0.015764	14.1113
0.018841	21.149
0.022013	23.5907
0.025089	24.8115
0.028229	25.7092
0.029815	26.4632
0.025153	24.9551
0.021981	23.8779
0.015669	18.5637
0.012529	11.6697
0.00942	6.17594
0.004694	2.33393
0.00157	1.18492
