Adsorption isotherm of Nitrogen on UiO-66-CH3
DOI: 10.1021/acs.iecr.5b04739
Article source: Figure 6
Adsorbate Nitrogen: InChIKey IJGRMHOSHXDMSA-UHFFFAOYSA-N
Kind: experiment
Temperature: 298 K
Tabular data in the source: 0
pressure (bar)	uptake (mmol/g)
0.110471	0.021493
0.210375	0.035821
0.230067	0.044776
0.320365	0.046567
0.398655	0.050149
0.441402	0.060896
0.548991	0.071642
0.673391	0.082388
0.789625	0.10209
0.883766	0.105672
0.93756	0.114627
0.805956	0.103881
0.689721	0.089552
0.588857	0.08597
0.49952	0.078806
0.411143	0.064478
0.320845	0.060896
0.229587	0.042985
