Adsorption isotherm of Water on UiO-66
DOI: 10.1021/acs.iecr.5b04739
Article source: Figure 5
Adsorbate Water: InChIKey XLYOFNOQVPJJNP-UHFFFAOYSA-N
Kind: experiment
Temperature: 298 K
Tabular data in the source: 0
pressure (bar)	uptake (wt%)
0.000317	0.10772
0.001491	1.25673
0.00314	1.97486
0.006312	3.91382
0.00942	7.25314
0.012529	22.2262
0.015764	27.9713
0.018841	29.1921
0.022013	30.2693
0.025153	31.4183
0.028166	33.07
0.029831	35.5476
0.025121	31.7056
0.022044	30.772
0.015605	28.6176
0.012529	26.8223
0.009389	17.702
0.004663	7.07361
0.001554	3.84201
