Adsorption isotherm of Water on [Co(pca)(bdc)0.5]
DOI: 10.1007/s12039-015-0820-3
Article source: Figure 5
Adsorbate Water: InChIKey XLYOFNOQVPJJNP-UHFFFAOYSA-N
Kind: experiment
Temperature: 298 K
Tabular data in the source: 0
pressure (bar)	uptake (ml/g)
0	0
0.000193	4.07191
0.000387	9.5025
0.00071	16.9684
0.000903	21.7196
0.001417	26.4639
0.002123	27.8074
0.002316	31.1999
0.002894	33.2255
0.003072	226.836
0.003088	39.3354
0.003729	41.3596
0.004435	44.0617
0.004612	234.275
0.005013	46.7666
0.005463	49.4743
0.00604	50.8205
0.006426	54.2089
0.006793	237.625
0.00694	58.9532
0.007517	59.6201
0.008031	63.0057
0.008226	73.871
0.008868	76.5746
0.008929	65.0243
0.009125	78.607
0.009699	68.4044
0.010151	79.9435
0.010216	84.0182
0.010405	71.1065
0.010473	86.7301
0.010834	244.331
0.010854	71.7762
0.011051	88.0763
0.011692	90.7798
0.012463	96.1979
0.012786	102.984
0.013489	97.5344
0.013685	109.758
0.01381	98.8862
0.014327	112.462
0.01484	111.772
0.015226	117.198
0.015901	248.977
0.015995	117.861
0.016381	123.287
0.017151	125.308
0.017986	130.046
0.018436	135.471
0.019079	142.93
0.019205	134.775
0.019403	156.51
0.019466	151.074
0.021201	165.302
0.021716	172.764
0.021993	252.921
0.022743	180.215
0.022937	185.645
0.023004	194.475
0.023778	214.839
0.023903	202.608
0.024033	208.719
0.024933	218.89
0.025192	227.716
0.02552	256.242
0.025963	233.134
0.027054	239.225
0.027954	245.999
0.029173	251.407
0.030586	258.17
