Adsorption isotherm of Tetrahydrofuran on [Co(pca)(bdc)0.5]
DOI: 10.1007/s12039-015-0820-3
Article source: Figure 5
Adsorbate Tetrahydrofuran: InChIKey WYURNTSHIVDZCO-UHFFFAOYSA-N
Kind: experiment
Temperature: 298 K
Tabular data in the source: 0
pressure (bar)	uptake (ml/g)
0	0
0.011837	0.037536
0.036388	0.79659
0.041658	6.26289
0.043402	0.818833
0.051305	7.65588
0.0548	0.854979
0.060511	7.68508
0.064883	0.886954
0.07235	9.08502
0.077596	0.92727
0.08331	9.11977
0.088118	0.960635
0.093395	10.5142
0.099955	1.67937
0.104357	11.9113
0.108723	1.70718
0.11488	12.6259
0.120561	2.42592
0.12628	14.0244
0.131524	4.50428
0.136803	14.739
0.140732	5.21468
0.147763	14.7738
0.153448	7.2986
0.158285	15.4883
0.163096	8.69159
0.16881	17.5653
0.172305	10.7644
0.179334	18.9611
0.184147	13.5267
0.190294	18.9958
0.194232	14.9211
0.203447	19.7187
0.206515	19.7285
0.210463	21.1034
