Adsorption isotherm of Ethanol on [Co(pca)(bdc)0.5]
DOI: 10.1007/s12039-015-0820-3
Article source: Figure 5
Adsorbate Ethanol: InChIKey LFQSCWFLJHTTHZ-UHFFFAOYSA-N
Kind: experiment
Temperature: 298 K
Tabular data in the source: 0
pressure (bar)	uptake (ml/g)
0	0
0.019103	1.19557
0.045846	1.64321
0.054442	1.56814
0.065584	0.78963
0.069724	2.79707
0.071477	4.82536
0.072116	8.90697
0.072271	2.09363
0.072438	14.3538
0.073546	5.48849
0.073867	8.89168
0.07403	14.3399
0.074032	18.427
