Adsorption isotherm of Methanol on [Co(pca)(bdc)0.5]
DOI: 10.1007/s12039-015-0820-3
Article source: Figure 5
Adsorbate Methanol: InChIKey OKKJLVBELUTLKV-UHFFFAOYSA-N
Kind: experiment
Temperature: 298 K
Tabular data in the source: 0
pressure (bar)	uptake (ml/g)
0	0
0.002059	4.74255
0.003775	6.09756
0.006177	8.13008
0.008579	10.1626
0.012354	12.1951
0.013726	29.8103
0.018874	14.2276
0.023335	31.8428
0.026423	16.9377
0.0326	18.2927
0.040493	34.5528
0.045983	21.0027
0.05765	24.3902
0.064857	24.3902
0.072749	25.7453
0.075151	37.2629
0.083387	27.7778
0.089564	29.1328
0.092652	37.2629
0.099172	30.4878
0.102604	37.9404
0.106722	31.1653
0.115987	31.8428
0.116673	36.5854
0.123193	33.1978
0.132802	34.5528
0.138978	34.5528
0.142753	38.6179
0.152705	36.5854
