Adsorption isotherm of Nitrogen on LZU-111
DOI: 10.1126/science.aat7679
Article source: Figure 4b
Adsorbate Nitrogen: InChIKey IJGRMHOSHXDMSA-UHFFFAOYSA-N
Kind: experiment
Isotherm type: excess
Temperature: 77 K
Tabular data in the source: 0
pressure (bar)	uptake (cm3(STP)/g)
0.005045	4.86322
0.005045	11.5502
0.005045	15.8055
0.005045	22.4924
0.005045	29.7872
0.005045	41.3374
0.005045	49.2401
0.005045	56.535
0.004324	60.7903
0.004324	65.0456
0.005045	79.0274
0.005045	84.4985
0.005045	91.1854
0.005045	108.815
0.004324	123.404
0.004324	136.17
0.004324	151.976
0.004324	162.31
0.004324	175.076
0.005045	186.018
0.004324	199.392
0.005045	219.453
0.005045	232.219
0.005045	242.553
0.005045	249.848
0.005045	258.359
0.005045	268.085
0.005045	276.596
0.005045	285.106
0.005045	296.049
0.005765	304.559
0.005765	314.286
0.005045	324.012
0.005045	333.739
0.005045	341.641
0.005045	347.72
0.005765	355.015
0.005045	390.274
0.005045	410.942
0.005765	437.082
0.019458	505.167
0.028826	515.502
0.037474	522.796
0.046843	528.267
0.056212	533.739
0.064139	536.778
0.081435	542.249
0.104496	546.505
0.126836	551.368
0.146294	553.799
0.165031	555.623
0.183769	559.271
0.203947	560.486
0.252232	564.742
0.304119	568.389
0.357448	570.821
0.40285	574.468
0.454737	575.684
0.505904	576.292
0.556351	579.331
0.606076	581.155
0.657243	580.547
0.706969	582.371
0.758136	583.587
0.808582	584.195
0.828761	584.802
0.858308	585.41
0.883531	586.626
0.909475	587.842
0.935419	589.058
0.959921	589.666
0.985144	592.705
0.999557	593.921
0.002162	246.201
0.003603	386.018
0.005045	426.748
0.005045	451.672
0.006486	465.654
0.007207	475.988
0.008648	485.106
0.009369	491.793
0.02162	514.894
0.030988	524.012
0.041078	531.307
0.051888	537.386
0.061977	540.426
0.072787	544.681
0.096569	550.152
0.14125	558.055
0.157104	560.486
0.172959	561.702
0.201785	564.742
0.214757	566.565
0.22845	567.781
0.252232	568.389
0.304119	571.429
0.334387	573.252
0.401408	576.292
0.45762	578.723
0.505184	584.195
0.55563	585.41
0.607518	586.626
0.657964	587.234
0.706969	588.45
0.758857	589.666
0.807861	590.881
0.832364	590.881
0.839571	591.489
0.861911	591.489
0.887855	592.097
0.913078	592.705
0.938301	593.313
0.979379	594.529
1.00388	596.353
