Adsorption isotherm of Hydrogen on Carbon
DOI: 10.1039/C2jm15890f
Adsorbate Hydrogen: InChIKey UFHFLCQGNIYNRP-UHFFFAOYSA-N
Temperature: 87 K
Tabular data in the source: 0
pressure (bar)	uptake (wt%)
0.130112	0.454545
0.260223	0.787879
0.416357	1.15152
0.624535	1.4697
0.910781	1.78788
1.22305	2.09091
1.66543	2.36364
2.15985	2.60606
2.6803	2.83333
3.3829	3.06061
4.05948	3.24242
4.86617	3.42424
5.75093	3.60606
6.71375	3.75758
7.75465	3.87879
8.84758	4
9.99257	4.10606
10.8513	4.16667
11.7361	4.24242
12.6989	4.30303
13.5836	4.36364
14.5204	4.42424
14.9368	4.42424
