Adsorption isotherm of Hydrogen on DUT-23(Co)
DOI: 10.1039/C2jm15890f
Adsorbate Hydrogen: InChIKey UFHFLCQGNIYNRP-UHFFFAOYSA-N
Temperature: 77 K
Tabular data in the source: 0
pressure (bar)	uptake (mmol/g)
0.0408163	1.31206
0.285714	3.80389
0.530612	6.29571
0.816327	8.5248
1.22449	11.0155
1.63265	13.3751
2.08163	15.4719
2.61224	17.4369
3.14286	19.4019
3.67347	21.3669
4.36735	23.3308
4.97959	24.9016
5.63265	26.7346
6.32653	28.3048
7.10204	29.8746
7.7551	31.1826
8.61224	32.6205
9.38776	33.9278
10.2041	35.1035
10.9796	36.2795
11.8367	37.455
12.6531	38.4995
13.5102	39.5438
14.3265	40.5883
15.2653	41.632
16.0816	42.414
17.0612	43.5887
17.8776	44.2395
18.8163	45.152
19.7551	46.0644
20.6122	46.715
20.9388	47.1065
