Adsorption isotherm of Hydrogen on Mg-Formate
DOI: 10.1039/C2jm15890f
Adsorbate Hydrogen: InChIKey UFHFLCQGNIYNRP-UHFFFAOYSA-N
Temperature: 77 K
Tabular data in the source: 0
pressure (bar)	uptake (wt%)
0.0376869	0.215161
0.0756332	0.479968
0.186187	0.645544
0.332959	0.744956
0.625983	0.84449
0.882358	0.927444
1.24816	0.960844
1.65053	0.994273
2.23563	1.01131
2.8209	1.06144
3.55208	1.04549
4.21039	1.07913
4.86853	1.07968
5.59979	1.08028
6.2581	1.11393
6.98928	1.09798
7.61094	1.11504
8.37877	1.11568
10.4263	1.11737
12.1814	1.13537
13.7171	1.13665
15.0333	1.12119
16.1303	1.13864
17.1176	1.15601
18.0316	1.15676
18.6899	1.17386
19.3479	1.15785
19.8964	1.15831
