Adsorption isotherm of Hydrogen on DUT-23(Co)
DOI: 10.1039/C2jm15890f
Adsorbate Hydrogen: InChIKey UFHFLCQGNIYNRP-UHFFFAOYSA-N
Temperature: 77 K
Tabular data in the source: 0
pressure (bar)	uptake (mmol/g)
0.0816327	1.44303
0.244898	3.67292
0.571429	6.03297
0.816327	8.26233
1.26531	10.3591
1.63265	12.3252
2.12245	14.1593
2.61224	15.9933
3.14286	17.5646
3.63265	19.2674
4.32653	20.7064
4.97959	22.277
5.67347	23.4535
6.32653	24.4991
7.10204	25.6751
7.7551	26.5894
8.65306	27.6334
9.38776	28.5472
10.2041	29.198
10.9796	30.1116
11.8367	30.6309
12.6531	31.1505
13.551	31.932
14.2857	32.1896
15.2653	32.8394
16.0816	33.0965
17.0612	33.615
17.8776	34.0033
18.8571	34.2593
19.7143	34.5162
20.9388	34.7706
