Adsorption isotherm of Hydrogen on Carbon
DOI: 10.1039/C2jm15890f
Adsorbate Hydrogen: InChIKey UFHFLCQGNIYNRP-UHFFFAOYSA-N
Temperature: 77 K
Tabular data in the source: 0
pressure (bar)	uptake (wt%)
0.0407122	0.79436
0.0791771	1.15846
0.263808	1.50613
0.338664	1.83716
0.559772	2.16831
0.780793	2.48292
1.07494	2.79758
1.44196	3.06266
1.91858	3.31128
2.39502	3.5268
3.05437	3.75903
3.71329	3.90851
4.55519	4.09124
5.39684	4.22432
6.20201	4.37393
7.18982	4.49058
8.17754	4.59069
9.2384	4.69086
10.2259	4.75787
11.3233	4.84152
12.4206	4.92517
13.5543	4.97575
14.7613	5.04295
15.9316	5.11011
17.0287	5.14411
18.199	5.19473
19.2961	5.24528
20.5028	5.26283
