Adsorption isotherm of Hydrogen on Mg-Formate
DOI: 10.1039/C2jm15890f
Adsorbate Hydrogen: InChIKey UFHFLCQGNIYNRP-UHFFFAOYSA-N
Temperature: 298 K
Tabular data in the source: 0
pressure (bar)	uptake (wt%)
1.50469	0.0190385
1.90827	0.0031579
3.63306	0.00601215
5.43133	0.0255365
10.0919	0.033249
12.0736	0.0365284
14.1287	0.0564778
16.1104	0.0597572
18.1654	0.0466094
20.1838	0.0664981
