Adsorption isotherm of Hydrogen on DUT-23(Co)
DOI: 10.1039/C2jm15890f
Adsorbate Hydrogen: InChIKey UFHFLCQGNIYNRP-UHFFFAOYSA-N
Temperature: 77 K
Tabular data in the source: 0
pressure (bar)	uptake (wt%)
0.260264	0.827639
0.702135	1.42375
1.21687	1.97027
1.73144	2.4837
2.39208	2.96415
3.08894	3.37844
3.85885	3.77624
4.55519	4.09124
5.54413	4.42303
6.34981	4.67192
7.15542	4.90427
8.07062	5.12015
8.949	5.28636
10.0105	5.50237
10.8521	5.63546
11.7303	5.76857
12.7181	5.88523
13.5962	6.00179
14.5839	6.08535
15.4619	6.18537
16.4861	6.26896
17.4371	6.33594
18.4613	6.41953
19.4123	6.48651
20.4729	6.53703
