Adsorption isotherm of Hydrogen on Carbon
DOI: 10.1039/C2jm15890f
Adsorbate Hydrogen: InChIKey UFHFLCQGNIYNRP-UHFFFAOYSA-N
Temperature: 298 K
Tabular data in the source: 0
pressure (bar)	uptake (wt%)
0.844044	0.00139676
1.43129	0.018917
2.01845	0.0198887
2.6791	0.0375304
3.26626	0.0385021
3.9269	0.0561438
4.55076	0.0571762
4.95443	0.0578442
5.61499	0.0589373
6.05545	0.0762147
6.71591	0.0607592
7.15646	0.0945852
7.74362	0.0955568
8.18399	0.0962856
8.88124	0.0974394
9.3217	0.114717
9.87217	0.115628
10.3493	0.132966
11.0099	0.134059
11.4136	0.134727
12.1475	0.135941
12.588	0.153219
12.9549	0.153826
13.5422	0.171346
14.1293	0.155769
14.6431	0.173168
15.1569	0.174018
15.4872	0.191114
16.111	0.175597
16.5882	0.192936
16.9184	0.193482
17.5056	0.194454
17.9461	0.211731
18.2396	0.212217
18.9002	0.21331
19.3773	0.214099
19.6708	0.214585
20.3315	0.232227
20.7352	0.232895
