Adsorption isotherm of Hydrogen on DUT-23(Co)
DOI: 10.1039/C2jm15890f
Adsorbate Hydrogen: InChIKey UFHFLCQGNIYNRP-UHFFFAOYSA-N
Temperature: 87 K
Tabular data in the source: 0
pressure (bar)	uptake (wt%)
0.156134	0.242424
0.546468	0.681818
0.884758	1.0303
1.4052	1.39394
1.9777	1.72727
2.57621	2.06061
3.17472	2.33333
3.87732	2.63636
4.57993	2.87879
5.30855	3.12121
5.98513	3.36364
6.86989	3.57576
7.65056	3.75758
8.48327	3.95455
9.26394	4.10606
10.1747	4.27273
10.9814	4.42424
11.9182	4.51515
12.803	4.66667
13.7918	4.78788
14.7026	4.90909
14.9368	4.92424
