Adsorption isotherm of Hydrogen on MIL-101
DOI: 10.1166/jnn.2013.6930
Adsorbate Hydrogen: InChIKey UFHFLCQGNIYNRP-UHFFFAOYSA-N
Temperature: 77 K
Tabular data in the source: 0
pressure (bar)	uptake (wt%)
0.0337876	0.0197488
0.078858	0.0591854
0.152097	0.107073
0.230971	0.138059
0.352097	0.166228
0.452097	0.19158
0.598576	0.216932
0.649281	0.225383
0.698576	0.228199
0.749281	0.239467
0.849281	0.256369
0.899985	0.253552
0.980266	0.262002
