Adsorption isotherm of Hydrogen on Carbon
DOI: 10.1166/jnn.2013.6930
Adsorbate Hydrogen: InChIKey UFHFLCQGNIYNRP-UHFFFAOYSA-N
Temperature: 77 K
Tabular data in the source: 0
pressure (bar)	uptake (wt%)
0.0126608	0.0253826
0.0394214	0.166228
0.0732242	0.284538
0.149281	0.422566
0.205619	0.515523
0.268999	0.60003
0.346464	0.690171
0.446464	0.771861
0.498576	0.822566
0.598576	0.898622
0.701393	0.963411
0.797168	1.02257
0.843647	1.05073
0.902802	1.0789
0.949281	1.10426
0.97745	1.11834
