Adsorption isotherm of Hydrogen on Carbon
DOI: 10.1166/jnn.2013.6930
Adsorbate Hydrogen: InChIKey UFHFLCQGNIYNRP-UHFFFAOYSA-N
Temperature: 77 K
Tabular data in the source: 0
pressure (bar)	uptake (wt%)
0.0126608	0.10989
0.0394214	0.245101
0.0732242	0.39158
0.126745	0.543692
0.178858	0.678904
0.229562	0.785946
0.299985	0.901439
0.346464	0.977495
0.445055	1.12397
0.546464	1.23383
0.652097	1.34088
0.74083	1.43102
0.843647	1.50144
0.902802	1.55496
0.974633	1.60285
