Adsorption isotherm of Hydrogen on Ni-GO-MIL-101
DOI: 10.1166/jnn.2013.6930
Adsorbate Hydrogen: InChIKey UFHFLCQGNIYNRP-UHFFFAOYSA-N
Temperature: 77 K
Tabular data in the source: 0
pressure (bar)	uptake (wt%)
0.0323791	0.0169319
0.0816749	0.0451009
0.150689	0.0620023
0.230971	0.0760868
0.347872	0.0929882
0.447872	0.104256
0.546464	0.112707
0.601393	0.115523
0.697168	0.123974
0.752097	0.132425
0.799985	0.126791
0.843647	0.135242
0.905619	0.135242
0.981675	0.143692
