Adsorption isotherm of Nitrogen on Ni-GO-MIL-101
DOI: 10.1166/jnn.2013.6930
Adsorbate Nitrogen: InChIKey IJGRMHOSHXDMSA-UHFFFAOYSA-N
Temperature: 77 K
Tabular data in the source: 0
pressure (bar)	uptake (cm3(STP)/g)
0.00515504	18.0573
0.00515504	148.2
0.00801532	258.321
0.0137359	315.527
0.0409086	389.894
0.075232	448.53
0.15103	524.328
0.193934	557.221
0.232548	585.824
0.289753	595.835
0.366981	605.846
0.471382	617.287
0.577212	623.008
0.677322	631.589
0.777432	638.739
0.876112	645.89
0.923307	648.75
0.971932	654.471
0.997674	664.482
