Adsorption isotherm of Nitrogen on MIL-101
DOI: 10.1166/jnn.2013.6930
Adsorbate Nitrogen: InChIKey IJGRMHOSHXDMSA-UHFFFAOYSA-N
Temperature: 77 K
Tabular data in the source: 0
pressure (bar)	uptake (cm3(STP)/g)
0.00801532	18.0573
0.0108756	358.431
0.0237469	418.497
0.0423388	491.435
0.075232	585.824
0.0995445	654.471
0.15246	710.247
0.193934	771.743
0.229687	823.228
0.285463	833.239
0.362691	848.97
0.471382	868.992
0.564341	880.434
0.667311	899.025
0.770282	914.757
0.917586	943.36
0.984803	983.404
0.994814	1009.15
