Adsorption isotherm of Carbon Dioxide on GP-d
DOI: 10.1021/Cm404239s
Adsorbate Carbon Dioxide: InChIKey CURLTUGMZLYLDI-UHFFFAOYSA-N
Temperature: 273 K
Tabular data in the source: 0
pressure (bar)	uptake (cm3(STP)/g)
0.0415891	36.5682
0.0533215	43.2363
0.063031	51.2177
0.114977	83.2043
0.142487	93.9136
0.165224	101.294
0.198883	108.725
0.219273	114.772
0.241767	120.167
0.272919	124.941
0.293147	129.664
0.317501	132.422
0.375192	139.965
0.419451	144.799
0.474553	149.022
0.523181	153.877
0.576098	158.09
0.628773	160.318
0.672708	162.506
0.727729	166.068
0.775953	167.614
0.823934	167.174
0.874423	169.392
0.922647	170.938
0.981795	172.535
