Adsorption isotherm of Nitrogen on GB-e
DOI: 10.1021/Cm404239s
Adsorbate Nitrogen: InChIKey IJGRMHOSHXDMSA-UHFFFAOYSA-N
Temperature: 298 K
Tabular data in the source: 0
pressure (bar)	uptake (cm3(STP)/g)
0.122839	4.62824
0.178645	4.5397
0.255748	2.80964
0.321789	-2.1183
0.371487	1.01828
0.422834	-0.670908
0.44859	-0.711775
0.497791	-2.39756
0.577207	-2.52357
0.624593	-0.991036
0.671647	-2.67341
0.729599	-2.76537
0.780945	-4.45456
0.832459	-4.53629
0.883805	-6.22548
0.930694	-9.51531
0.984353	-9.60045
1.02745	-8.06111
