Adsorption isotherm of Nitrogen on GB-i
DOI: 10.1021/Cm404239s
Adsorbate Nitrogen: InChIKey IJGRMHOSHXDMSA-UHFFFAOYSA-N
Temperature: 77 K
Tabular data in the source: 0
pressure (bar)	uptake (cm3(STP)/g)
0.00206716	41.8006
0.0115576	75.5627
0.0121982	102.894
0.0134662	115.756
0.0148994	151.125
0.0190139	172.026
0.0226728	250.804
0.0263118	266.881
0.0315489	340.836
0.0316943	300.643
0.0323283	307.074
0.0326519	331.19
0.106944	438.907
0.126063	445.338
0.145025	450.161
0.192742	454.984
0.217548	456.592
0.244249	456.592
0.293702	458.199
0.316454	459.807
0.34126	461.415
0.394662	461.415
0.440325	466.238
0.489303	463.023
0.513951	463.023
0.536544	463.023
0.587735	461.415
0.639242	463.023
0.688378	461.415
0.735619	461.415
0.782861	461.415
0.834209	461.415
0.881291	459.807
0.930744	461.415
0.990941	467.846
1.01038	477.492
