Adsorption isotherm of Carbon Dioxide on GB-i
DOI: 10.1021/Cm404239s
Adsorbate Carbon Dioxide: InChIKey CURLTUGMZLYLDI-UHFFFAOYSA-N
Temperature: 273 K
Tabular data in the source: 0
pressure (bar)	uptake (cm3(STP)/g)
0.0156971	3.37955
0.0290477	5.42549
0.0382717	9.43644
0.0561534	12.8261
0.069504	14.872
0.0763007	16.8876
0.0874666	18.9235
0.0987944	22.2828
0.107857	24.9702
0.119589	31.6383
0.132859	33.0225
0.159641	37.7761
0.184319	43.1814
0.211101	47.935
0.23578	53.3402
0.258111	57.4119
0.285136	64.1508
0.311757	67.5809
0.354236	75.7141
0.369852	78.4319
0.405615	85.2112
0.436767	89.985
0.467999	95.4206
0.488146	99.4822
0.512663	103.564
0.563719	110.414
0.612752	118.578
0.663889	126.089
0.712922	134.253
0.763978	141.103
0.817218	147.963
0.868193	154.152
0.919168	160.34
0.972328	166.539
0.999029	170.63
