Adsorption isotherm of Nitrogen on GB-i
DOI: 10.1021/Cm404239s
Adsorbate Nitrogen: InChIKey IJGRMHOSHXDMSA-UHFFFAOYSA-N
Temperature: 298 K
Tabular data in the source: 0
pressure (bar)	uptake (cm3(STP)/g)
0.107048	1.60772
0.132535	-1.13687e-13
0.156049	-1.13687e-13
0.183839	-1.13687e-13
0.207518	1.60772
0.228894	1.60772
0.252409	1.60772
0.280198	1.60772
0.310125	1.60772
0.363731	3.21543
0.515505	3.21543
0.564672	3.21543
0.622224	1.60772
0.667115	1.60772
0.714143	1.60772
0.76775	3.21543
0.818888	1.60772
0.868054	1.60772
0.923633	1.60772
0.972964	3.21543
0.998617	3.21543
1.02624	1.60772
