Adsorption isotherm of Nitrogen on HB-e
DOI: 10.1021/Cm404239s
Adsorbate Nitrogen: InChIKey IJGRMHOSHXDMSA-UHFFFAOYSA-N
Temperature: 77 K
Tabular data in the source: 0
pressure (bar)	uptake (cm3(STP)/g)
0.0817751	287.781
0.110689	289.389
0.131228	289.389
0.156193	292.605
0.180365	287.781
0.330462	289.389
0.38197	290.997
0.42921	290.997
0.476451	290.997
0.527641	289.389
0.572829	289.389
0.624177	289.389
0.671101	286.174
0.720555	287.781
0.770008	289.389
0.919788	287.781
0.969242	289.389
1.00447	292.605
