Adsorption isotherm of Carbon Dioxide on GB-e
DOI: 10.1021/Cm404239s
Adsorbate Carbon Dioxide: InChIKey CURLTUGMZLYLDI-UHFFFAOYSA-N
Temperature: 273 K
Tabular data in the source: 0
pressure (bar)	uptake (cm3(STP)/g)
0.119589	31.6383
0.144753	41.0141
0.175985	46.4497
0.196213	51.1729
0.223157	57.2501
0.249939	62.0037
0.272595	68.7223
0.297354	74.7893
0.324136	79.543
0.368962	89.0097
0.418076	97.835
0.482968	110.702
0.532325	121.512
0.576988	129.655
0.628125	137.167
0.67732	146.654
0.730723	154.838
0.784044	162.36
0.832996	169.862
0.888502	177.394
0.941824	184.916
0.992718	190.442
1.03706	195.939
