Adsorption isotherm of Carbon Dioxide on HP-e
DOI: 10.1021/Cm404239s
Adsorbate Carbon Dioxide: InChIKey CURLTUGMZLYLDI-UHFFFAOYSA-N
Temperature: 298 K
Tabular data in the source: 0
pressure (bar)	uptake (cm3(STP)/g)
0.0285088	9.50684
0.0454439	14.2587
0.0599111	20.2024
0.0827394	27.9269
0.10578	36.8418
0.131396	45.1599
0.162373	53.4748
0.190562	61.1961
0.215859	67.7287
0.241261	74.8564
0.271919	81.3858
0.297002	86.728
0.321979	91.475
0.371934	100.969
0.42425	108.676
0.476565	116.383
0.528562	122.304
0.580559	128.226
0.632343	132.957
0.68402	137.093
0.738378	141.227
0.78995	144.768
0.841414	147.713
0.892986	151.254
0.944238	153.009
0.992915	155.361
1.0387	156.525
