Adsorption isotherm of Carbon Dioxide on HB-d
DOI: 10.1021/Cm404239s
Adsorbate Carbon Dioxide: InChIKey CURLTUGMZLYLDI-UHFFFAOYSA-N
Temperature: 298 K
Tabular data in the source: 0
pressure (bar)	uptake (cm3(STP)/g)
0.0583154	11.2748
0.0775057	13.6443
0.0993766	16.0123
0.12146	19.5706
0.151692	23.7192
0.178818	25.4888
0.200902	29.0471
0.228454	33.1973
0.255686	35.5621
0.28045	39.1188
0.326979	44.4482
0.370934	50.3744
0.422824	55.7007
0.47214	61.6237
0.526817	67.5436
0.576027	72.8714
0.627917	78.1977
0.679808	83.5239
0.731592	88.255
0.786163	93.5797
0.838053	98.9059
0.884475	103.64
0.939046	108.965
0.99083	113.696
1.03179	117.838
