Adsorption isotherm of Nitrogen on HB-d
DOI: 10.1021/Cm404239s
Adsorbate Nitrogen: InChIKey IJGRMHOSHXDMSA-UHFFFAOYSA-N
Temperature: 298 K
Tabular data in the source: 0
pressure (bar)	uptake (cm3(STP)/g)
0.54642	1.60772
0.597998	3.21543
0.703131	4.82315
0.80167	4.82315
0.898069	4.82315
1.00534	6.43087
