Adsorption isotherm of Nitrogen on HB-d
DOI: 10.1021/Cm404239s
Adsorbate Nitrogen: InChIKey IJGRMHOSHXDMSA-UHFFFAOYSA-N
Temperature: 77 K
Tabular data in the source: 0
pressure (bar)	uptake (cm3(STP)/g)
0.0421556	406.752
0.0431066	416.399
0.0440643	446.945
0.0446917	432.476
0.0503912	469.453
0.103008	482.315
0.136189	485.531
0.191962	488.746
0.247577	490.354
0.290711	490.354
0.346326	491.961
0.42248	493.569
0.467509	491.961
0.516804	491.961
0.568311	493.569
0.617448	491.961
0.662476	490.354
0.713666	488.746
0.756958	490.354
0.80799	487.138
0.859497	488.746
0.906738	488.746
0.957928	487.138
1.00548	490.354
