Adsorption isotherm of Carbon Dioxide on GP-d
DOI: 10.1021/Cm404239s
Adsorbate Carbon Dioxide: InChIKey CURLTUGMZLYLDI-UHFFFAOYSA-N
Temperature: 298 K
Tabular data in the source: 0
pressure (bar)	uptake (cm3(STP)/g)
0.0395507	11.286
0.0456567	15.449
0.0598047	19.6073
0.0877816	26.1382
0.113397	34.4563
0.1358	39.8001
0.16399	47.5214
0.18886	51.6733
0.216518	56.4187
0.244282	61.7594
0.269153	65.9112
0.293917	69.4679
0.318788	73.6198
0.370891	80.1364
0.422782	85.4626
0.474672	90.7889
0.526456	95.52
0.578027	99.0607
0.626811	102.008
0.678276	104.953
0.729634	107.304
0.786354	109.651
0.832351	112.005
0.883497	113.165
0.931962	114.326
0.983107	115.486
1.01002	116.065
