Adsorption isotherm of Carbon Dioxide on GB-i
DOI: 10.1021/Cm404239s
Adsorbate Carbon Dioxide: InChIKey CURLTUGMZLYLDI-UHFFFAOYSA-N
Temperature: 298 K
Tabular data in the source: 0
pressure (bar)	uptake (cm3(STP)/g)
0.0137225	1.77755
0.0355935	4.14548
0.0576772	7.70376
0.0795481	10.0717
0.0904836	11.2557
0.104206	13.0332
0.183541	21.9146
0.213561	24.8729
0.229964	26.6488
0.257303	29.6087
0.287322	32.5671
0.311874	34.9334
0.363658	39.6645
0.412761	44.3972
0.434525	46.1699
0.464545	49.1282
0.48899	50.8994
0.519116	54.4529
0.562645	57.9984
0.616897	61.5376
0.666	66.2702
0.717678	70.4061
0.766568	73.9485
0.820926	78.0828
0.869817	81.6251
0.921494	85.761
0.973066	89.3017
1.00277	90.4745
