Adsorption isotherm of Nitrogen on GB-e
DOI: 10.1021/Cm404239s
Adsorbate Nitrogen: InChIKey IJGRMHOSHXDMSA-UHFFFAOYSA-N
Temperature: 77 K
Tabular data in the source: 0
pressure (bar)	uptake (cm3(STP)/g)
-0.000310405	17.6849
0.007278	32.1543
0.00807712	61.0932
0.0126672	86.8167
0.0152098	133.441
0.0172836	196.141
0.0202753	163.987
0.0209226	212.219
0.0225076	228.296
0.0236172	239.55
0.0296337	279.743
0.0331209	315.113
0.0386684	371.383
0.0391374	355.305
0.0405706	390.675
0.0483175	406.752
0.0680711	419.614
0.0797673	434.084
0.0865632	440.514
0.103946	450.161
0.127807	463.023
0.144715	467.846
0.176316	475.884
0.215659	479.1
0.240623	482.315
0.263217	482.315
0.288023	483.923
0.321045	485.531
0.357856	483.923
0.514432	488.746
0.563886	490.354
0.611285	491.961
0.656473	491.961
0.703714	491.961
0.753167	493.569
0.806411	491.961
0.853652	491.961
0.901052	493.569
0.950347	493.569
0.993952	498.392
1.01813	514.469
