Adsorption isotherm of Nitrogen on GP-d
DOI: 10.1021/Cm404239s
Adsorbate Nitrogen: InChIKey IJGRMHOSHXDMSA-UHFFFAOYSA-N
Temperature: 77 K
Tabular data in the source: 0
pressure (bar)	uptake (cm3(STP)/g)
0.0373674	254.019
0.0811345	260.45
0.103728	260.45
0.128534	262.058
0.159501	263.666
0.332351	266.881
0.379433	265.273
0.430782	265.273
0.478181	266.881
0.525422	266.881
0.574559	265.273
0.619746	265.273
0.668882	263.666
0.72039	265.273
0.919464	263.666
0.968759	263.666
1.004	266.881
