Adsorption isotherm of Nitrogen on HP-e
DOI: 10.1021/Cm404239s
Adsorbate Nitrogen: InChIKey IJGRMHOSHXDMSA-UHFFFAOYSA-N
Temperature: 293 K
Tabular data in the source: 0
pressure (bar)	uptake (cm3(STP)/g)
0.107274	1.60772
0.139902	6.43087
0.161159	4.82315
0.186866	4.82315
0.216856	4.82315
0.266291	6.43087
0.291997	6.43087
0.315727	8.03859
0.336983	6.43087
0.369116	6.43087
0.386253	6.43087
0.433546	8.03859
0.47639	8.03859
0.480509	6.43087
0.529944	8.03859
0.534229	8.03859
0.57493	8.03859
0.585641	8.03859
0.628485	8.03859
0.677755	8.03859
0.729167	8.03859
0.776461	9.6463
0.827707	8.03859
0.876647	4.82315
0.936958	8.03859
0.981944	8.03859
1.02232	4.82315
