Adsorption isotherm of Carbon Dioxide on HB-d
DOI: 10.1021/Cm404239s
Adsorbate Carbon Dioxide: InChIKey CURLTUGMZLYLDI-UHFFFAOYSA-N
Temperature: 273 K
Tabular data in the source: 0
pressure (bar)	uptake (cm3(STP)/g)
0.360385	90.2928
0.409661	100.442
0.434097	103.862
0.508294	121.401
0.564123	131.58
0.613237	140.405
0.675702	151.276
0.722469	158.768
0.747714	168.806
0.775953	167.614
0.824905	175.115
0.871753	183.269
0.927017	188.816
0.980338	196.338
1.02007	199.828
