Adsorption isotherm of Carbon Dioxide on GB-e
DOI: 10.1021/Cm404239s
Adsorbate Carbon Dioxide: InChIKey CURLTUGMZLYLDI-UHFFFAOYSA-N
Temperature: 298 K
Tabular data in the source: 0
pressure (bar)	uptake (cm3(STP)/g)
0.199838	23.0953
0.241219	29.6183
0.287535	33.7574
0.336213	36.1094
0.377274	40.8469
0.461758	48.5347
0.508499	55.0545
0.579261	60.9647
0.633832	66.2894
0.682935	71.0221
0.737187	74.5612
0.788971	79.2923
0.840755	84.0234
0.892539	88.7544
0.94411	92.2952
0.99332	97.623
1.03942	100.572
