Adsorption isotherm of Carbon Dioxide on HP-e
DOI: 10.1021/Cm404239s
Adsorbate Carbon Dioxide: InChIKey CURLTUGMZLYLDI-UHFFFAOYSA-N
Temperature: 273 K
Tabular data in the source: 0
pressure (bar)	uptake (cm3(STP)/g)
0.0168298	12.6441
0.041751	37.8917
0.0541306	49.8538
0.0792135	76.4249
0.10551	95.0652
0.119508	102.405
0.138199	112.412
0.145319	117.075
0.165871	124.445
0.179707	130.462
0.195728	136.488
0.216361	144.52
0.250101	152.613
0.268306	158.65
0.301723	164.095
0.330852	170.183
0.375273	176.341
0.428514	183.201
0.481431	187.414
0.530059	192.269
0.580872	197.134
0.631443	200.013
0.679748	202.221
0.734687	205.121
0.780808	207.319
0.833401	208.885
0.883809	210.441
0.936403	212.007
0.984546	212.891
1.01295	213.023
