Adsorption isotherm of Nitrogen on Zn(2-2H)*H2O
DOI: 10.1002/adma.200702605
Adsorbate Nitrogen: InChIKey IJGRMHOSHXDMSA-UHFFFAOYSA-N
Temperature: 77 K
Tabular data in the source: 0
pressure (bar)	uptake (cm3(STP)/g)
0.00656653	0.43695
0.0274102	2.73107
0.0945733	3.9546
0.240479	4.26048
0.379437	4.56636
0.520711	4.7193
0.701356	5.33107
0.85421	5.63695
0.916741	6.24871
0.956113	7.47224
0.97464	9.00166
