Adsorption isotherm of Carbon Dioxide on Zn(2-2H)*H2O
DOI: 10.1002/adma.200702605
Adsorbate Carbon Dioxide: InChIKey CURLTUGMZLYLDI-UHFFFAOYSA-N
Temperature: 258 K
Tabular data in the source: 0
pressure (bar)	uptake (cm3(STP)/g)
0.041306	4.26048
0.108469	8.69577
0.18258	12.6722
0.298378	16.4958
0.432704	20.0134
0.548503	22.7664
0.682829	25.3664
0.798627	27.3546
0.909793	29.3428
1.00475	31.0252
