Adsorption isotherm of Hydrogen on Zn(2-2H)*H2O
DOI: 10.1002/adma.200702605
Adsorbate Hydrogen: InChIKey UFHFLCQGNIYNRP-UHFFFAOYSA-N
Temperature: 77 K
Tabular data in the source: 0
pressure (bar)	uptake (cm3(STP)/g)
0.00888249	5.02518
0.0111985	9.46048
0.0575178	32.2487
0.129313	42.6487
0.217319	49.2252
0.323854	54.5781
0.421125	57.484
0.529975	59.6252
0.682829	62.0722
0.837998	63.6017
0.9978	64.5193
