Adsorption isotherm of Carbon Dioxide on Cr-MIL(101)
DOI: 10.1021/Jp308525k
Adsorbate Carbon Dioxide: InChIKey CURLTUGMZLYLDI-UHFFFAOYSA-N
Temperature: 303 K
Tabular data in the source: 0
pressure (bar)	uptake (cm3(STP)/cm3)
0.0711848	0.436772
1.54853	1.16917
3.9429	1.9579
7.04149	2.69029
9.85839	3.29593
15.1401	4.21142
19.9992	5.04241
24.9288	5.80297
29.9992	6.52128
34.9288	7.21142
39.9288	7.83114
45.0697	8.47903
49.9992	9.05649
