Adsorption isotherm of Carbon Dioxide on Carbon
DOI: 10.1021/Jp308525k
Adsorbate Carbon Dioxide: InChIKey CURLTUGMZLYLDI-UHFFFAOYSA-N
Temperature: 303 K
Tabular data in the source: 0
pressure (bar)	uptake (cm3(STP)/cm3)
6.90065	5.57762
23.1683	9.09874
33.3795	9.91565
