Adsorption isotherm of Methane on MIL-47(V)
DOI: 10.1021/Jp308525k
Adsorbate Methane: InChIKey VNWKTOKETHGBQD-UHFFFAOYSA-N
Temperature: 303 K
Tabular data in the source: 0
pressure (bar)	uptake (mmol/g)
0.0336809	0.141607
0.0674837	1.6909
0.191427	2.39513
0.191427	4.29654
0.664667	11.9726
1.25058	16.7613
1.79143	20.6346
2.24213	22.6064
2.62523	24.367
3.06467	25.705
