Adsorption isotherm of Carbon Dioxide on MIL-47
DOI: 10.1021/Jp308525k
Adsorbate Carbon Dioxide: InChIKey CURLTUGMZLYLDI-UHFFFAOYSA-N
Temperature: 303 K
Tabular data in the source: 0
pressure (bar)	uptake (cm3(STP)/cm3)
0.492195	0.310012
1.19642	1.60579
2.11191	2.87339
2.67529	3.63396
3.02741	3.94381
5.91473	5.7748
8.87248	6.73255
12.1823	7.25367
18.3795	7.88748
24.4359	8.28184
30.4218	8.52128
36.4781	8.69029
42.3936	8.84522
45.5626	8.94381
48.5204	9.00015
