Adsorption isotherm of Carbon Dioxide on MOF-177
DOI: 10.1021/Jp308525k
Adsorbate Carbon Dioxide: InChIKey CURLTUGMZLYLDI-UHFFFAOYSA-N
Temperature: 303 K
Tabular data in the source: 0
pressure (bar)	uptake (cm3(STP)/cm3)
0.985153	0.126913
3.02741	0.521279
5.28093	1.01424
7.3936	1.54945
9.43586	2.141
11.3373	2.9579
13.5204	3.85931
15.5626	4.7748
17.5344	5.52128
19.7175	6.02832
21.9006	6.4086
25.9147	6.81705
30.4218	7.11283
33.9429	7.25367
38.3091	7.3241
42.2528	7.35227
