Adsorption isotherm of Carbon Dioxide on CuBTC
DOI: 10.1021/Jp308525k
Adsorbate Carbon Dioxide: InChIKey CURLTUGMZLYLDI-UHFFFAOYSA-N
Temperature: 303 K
Tabular data in the source: 0
pressure (bar)	uptake (cm3(STP)/cm3)
1.40769	3.57762
2.53445	4.43677
3.9429	5.33818
7.04149	6.69029
11.4781	7.74663
19.2246	8.42269
28.5204	8.94381
36.4781	9.19734
42.5345	9.25367
48.8725	9.39452
