Adsorption isotherm of Carbon Dioxide on DUT-9
DOI: 10.1021/Jp308525k
Adsorbate Carbon Dioxide: InChIKey CURLTUGMZLYLDI-UHFFFAOYSA-N
Temperature: 303 K
Tabular data in the source: 0
pressure (bar)	uptake (cm3(STP)/cm3)
0.280928	0.0846595
1.68938	0.479026
3.44994	0.901561
6.54853	1.63396
9.64713	2.29593
13.0274	2.94381
16.1964	3.61987
19.5767	4.19734
26.4077	5.38043
29.8584	5.78888
37.1119	6.26776
44.5767	6.5917
46.6894	6.71846
