Adsorption isotherm of Methane on MIL-47(V)
DOI: 10.1021/Jp308525k
Adsorbate Methane: InChIKey VNWKTOKETHGBQD-UHFFFAOYSA-N
Temperature: 303 K
Tabular data in the source: 0
pressure (bar)	uptake (mmol/g)
1.52759	0.302496
3.02924	0.714377
4.95993	0.937479
6.03254	1.00613
8.13485	1.12626
9.93683	1.16058
11.9104	1.17774
13.7553	1.17774
15.5573	1.21207
17.6596	1.19491
19.5045	1.16058
21.3065	1.19491
23.1514	1.21207
25.0391	1.24639
26.7124	1.24639
28.6002	1.24639
