Adsorption isotherm of Carbon Dioxide on MIL-47(V)
DOI: 10.1021/Jp308525k
Adsorbate Carbon Dioxide: InChIKey CURLTUGMZLYLDI-UHFFFAOYSA-N
Temperature: 303 K
Tabular data in the source: 0
pressure (bar)	uptake (mmol/g)
0.633041	0.473422
1.19642	1.4368
1.61896	2.43399
2.18234	3.39737
2.95698	4.22553
5.84431	6.69314
9.22459	7.80863
12.1119	8.40018
18.2387	9.12694
24.4359	9.56638
30.5626	9.8199
36.5485	10.0565
42.5345	10.2255
45.633	10.31
48.7316	10.4115
