Adsorption isotherm of Carbon Dioxide on Carbon
DOI: 10.1021/Jp308525k
Adsorbate Carbon Dioxide: InChIKey CURLTUGMZLYLDI-UHFFFAOYSA-N
Temperature: 303 K
Tabular data in the source: 0
pressure (bar)	uptake (mmol/g)
0.0696603	0.0640663
6.83022	5.26125
9.78797	6.27533
23.6612	8.36688
33.4499	9.25421
42.8161	9.50773
49.3654	9.82463
