Adsorption isotherm of Carbon Dioxide on MIL-47(V)
DOI: 10.1021/Jp308525k
Adsorbate Carbon Dioxide: InChIKey CURLTUGMZLYLDI-UHFFFAOYSA-N
Temperature: 303 K
Tabular data in the source: 0
pressure (bar)	uptake (mmol/g)
2.02771	2.18046
3.0418	3.19455
4.09813	4.07342
5.99954	5.34103
7.98546	6.27061
9.97137	6.89596
11.915	7.3692
15.6333	8.06215
17.3657	8.28187
21.084	8.6537
24.7601	8.87342
28.0981	9.04244
