Adsorption isotherm of Carbon Dioxide on MIL-47(V)
DOI: 10.1021/Jp308525k
Adsorbate Carbon Dioxide: InChIKey CURLTUGMZLYLDI-UHFFFAOYSA-N
Temperature: 303 K
Tabular data in the source: 0
pressure (bar)	uptake (mmol/g)
0.168557	0.118493
0.80236	0.726943
1.26715	1.26779
2.02771	2.28187
3.0418	3.39737
3.97137	4.29314
5.99954	5.52694
8.02771	6.42272
9.97137	7.04807
13.6897	7.80863
15.5488	8.04525
17.3657	8.24807
21.084	8.6199
22.901	8.80582
24.7179	8.89032
28.1404	9.07624
