Adsorption isotherm of Methane on MIL-47(V)
DOI: 10.1021/Jp308525k
Adsorbate Methane: InChIKey VNWKTOKETHGBQD-UHFFFAOYSA-N
Temperature: 303 K
Tabular data in the source: 0
pressure (bar)	uptake (mmol/g)
0.140083	0.0226572
0.844308	0.383221
3.09783	1.46491
6.26684	2.56914
9.36543	3.35787
12.2528	4.00012
15.3514	4.54097
18.2387	4.93533
24.1542	5.58885
30.2809	6.05083
36.126	6.44519
42.3936	6.77195
48.7316	7.08745
