Adsorption isotherm of Carbon Dioxide on MIL-47(V)
DOI: 10.1021/Jp308525k
Adsorbate Carbon Dioxide: InChIKey CURLTUGMZLYLDI-UHFFFAOYSA-N
Temperature: 303 K
Tabular data in the source: 0
pressure (bar)	uptake (mmol/g)
0.760106	0.92976
1.18264	1.4537
1.98546	2.5861
3.08405	3.71849
4.05588	4.61427
5.99954	5.84807
7.9432	6.57483
9.88687	7.13258
11.8305	7.48751
15.5488	7.92694
19.3094	8.29877
22.8164	8.5861
26.4502	8.78892
28.1404	8.89032
