Adsorption isotherm of Carbon Dioxide on MIL-47(V)
DOI: 10.1021/Jp308525k
Adsorbate Carbon Dioxide: InChIKey CURLTUGMZLYLDI-UHFFFAOYSA-N
Temperature: 303 K
Tabular data in the source: 0
pressure (bar)	uptake (mmol/g)
0.257752	0.456951
0.972823	1.45233
1.47337	2.44771
2.47447	3.85497
3.11804	4.66157
5.83531	6.41207
8.98162	7.61339
12.1279	8.29986
18.3491	9.12362
24.2842	9.51834
42.447	10.1705
45.4503	10.222
48.6681	10.2906
