Adsorption isotherm of Methane on MIL-47(V)
DOI: 10.1021/Jp308525k
Adsorbate Methane: InChIKey VNWKTOKETHGBQD-UHFFFAOYSA-N
Temperature: 303 K
Tabular data in the source: 0
pressure (bar)	uptake (mmol/g)
1.09813	0.152296
3.0418	0.338211
4.01363	0.388915
6.0418	0.422718
7.90095	0.405817
9.97137	0.422718
11.8305	0.422718
13.6474	0.405817
15.6756	0.43962
17.408	0.422718
19.3094	0.422718
21.0418	0.405817
22.8587	0.405817
24.6333	0.422718
28.1404	0.388915
