Adsorption isotherm of Carbon Dioxide on MIL-53(Al)
DOI: 10.1021/Jp308525k
Adsorbate Carbon Dioxide: InChIKey CURLTUGMZLYLDI-UHFFFAOYSA-N
Temperature: 303 K
Tabular data in the source: 0
pressure (bar)	uptake (mmol/g)
5.56262	3.42322
7.04149	5.83167
9.50628	8.11336
12.1823	8.93731
14.4359	9.38097
18.5204	9.76125
21.619	10.0782
25.0697	10.3951
27.8866	10.5852
30.3514	10.5218
31.4077	10.6486
