Adsorption isotherm of Methane on MIL-47(V)
DOI: 10.1021/Jp308525k
Adsorbate Methane: InChIKey VNWKTOKETHGBQD-UHFFFAOYSA-N
Temperature: 303 K
Tabular data in the source: 0
pressure (bar)	uptake (mmol/g)
0.0562161	0.564143
0.18016	3.02893
0.518188	9.22611
1.02523	16.2684
1.47593	21.1979
1.93791	24.9303
2.44495	28.2402
2.95199	30.9163
3.42523	32.8881
3.8872	34.9303
4.85622	37.8881
5.81396	40.2825
6.73791	42.3247
7.78579	44.2965
