Adsorption isotherm of Carbon Dioxide on MOF-177
DOI: 10.1021/Jp308525k
Adsorbate Carbon Dioxide: InChIKey CURLTUGMZLYLDI-UHFFFAOYSA-N
Temperature: 303 K
Tabular data in the source: 0
pressure (bar)	uptake (mmol/g)
0.985153	0.82463
5.06966	4.50069
7.32318	7.22604
9.36543	10.0782
11.4781	13.9443
13.4499	17.9373
15.4922	21.9936
17.5344	25.5429
19.788	27.9514
21.6894	29.4091
26.0556	31.3739
30.7739	32.7049
34.0837	33.2753
38.4499	33.5922
42.6753	33.719
