Adsorption isotherm of Carbon Dioxide on MIL-47(V)
DOI: 10.1021/Jp308525k
Adsorbate Carbon Dioxide: InChIKey CURLTUGMZLYLDI-UHFFFAOYSA-N
Temperature: 303 K
Tabular data in the source: 0
pressure (bar)	uptake (mmol/g)
0.548838	0.980465
0.80236	1.3692
1.05588	1.92694
1.56292	3.04244
1.98546	3.8537
3.0418	5.42554
5.02771	6.71004
5.99954	7.16638
7.90095	7.67342
9.6756	8.23117
11.746	8.5692
13.4784	8.6199
15.4643	8.89032
18.9714	9.19455
22.3517	9.44807
25.8587	9.73539
27.3798	9.66779
