Adsorption isotherm of Carbon Dioxide on MIL-47(V)
DOI: 10.1021/Jp308525k
Adsorbate Carbon Dioxide: InChIKey CURLTUGMZLYLDI-UHFFFAOYSA-N
Temperature: 303 K
Tabular data in the source: 0
pressure (bar)	uptake (mmol/g)
0.717853	1.11568
1.05588	1.52131
2.06997	2.87342
3.08405	4.02272
5.06997	5.57765
5.99954	6.10159
7.8587	7.03117
9.80236	7.55511
11.746	8.06215
13.4784	8.41708
15.2531	8.72131
17.0277	8.90723
25.6897	9.58328
