Adsorption isotherm of Methane on MIL-47(V)
DOI: 10.1021/Jp308525k
Adsorbate Methane: InChIKey VNWKTOKETHGBQD-UHFFFAOYSA-N
Temperature: 303 K
Tabular data in the source: 0
pressure (bar)	uptake (mmol/g)
2.06997	0.135394
3.0418	0.135394
5.06997	0.152296
5.95729	0.169197
7.9432	0.186098
9.76011	0.169197
11.6193	0.169197
13.4784	0.203
17.1545	0.236803
20.5348	0.186098
23.915	0.203
25.7742	0.169197
27.3798	0.186098
