Adsorption isotherm of Carbon Dioxide on MIL-53(Al)
DOI: 10.1021/Jp308525k
Adsorbate Carbon Dioxide: InChIKey CURLTUGMZLYLDI-UHFFFAOYSA-N
Temperature: 303 K
Tabular data in the source: 0
pressure (bar)	uptake (cm3(STP)/cm3)
0.703463	1.84522
2.11191	2.23959
6.90065	2.92973
7.74572	3.39452
8.16825	3.5917
12.2528	4.39452
14.3654	4.54945
18.0274	4.80297
21.4781	4.92973
24.9288	5.08466
27.7457	5.16917
30.2809	5.25367
31.3373	5.28184
