Adsorption isotherm of Carbon Dioxide on MIL-47(V)
DOI: 10.1021/Jp308525k
Adsorbate Carbon Dioxide: InChIKey CURLTUGMZLYLDI-UHFFFAOYSA-N
Temperature: 303 K
Tabular data in the source: 0
pressure (bar)	uptake (mmol/g)
0.35135	0.203
0.773886	1.21708
1.68938	3.803
4.99924	7.52131
8.9429	8.603
12.8161	9.14384
14.9992	9.39737
18.9429	9.43117
20.0697	9.7523
25.2105	10.0227
30.1401	10.1748
35.0697	10.2931
40.1401	10.4284
45.0697	10.4791
50.1401	10.5805
