Adsorption isotherm of Carbon Dioxide on MIL-47(V)
DOI: 10.1021/Jp308525k
Adsorbate Carbon Dioxide: InChIKey CURLTUGMZLYLDI-UHFFFAOYSA-N
Temperature: 303 K
Tabular data in the source: 0
pressure (bar)	uptake (mmol/g)
5.13155	2.99689
6.07544	3.49458
8.00614	4.26685
9.93683	4.919
11.8675	5.39953
13.7553	5.91438
15.7289	6.15464
17.6167	6.51504
19.5045	6.78962
21.3494	6.96124
23.1084	7.1157
24.9533	7.20151
26.7982	7.39028
28.686	7.45893
