Adsorption isotherm of Methane on MIL-47(V)
DOI: 10.1021/Jp308525k
Adsorbate Methane: InChIKey VNWKTOKETHGBQD-UHFFFAOYSA-N
Temperature: 303 K
Tabular data in the source: 0
pressure (bar)	uptake (mmol/g)
1.48468	0.43979
2.08534	0.628569
5.04574	1.00613
9.97973	1.26355
11.8675	1.26355
15.6431	1.3322
17.5738	1.34936
19.4616	1.31504
21.3494	1.31504
23.1514	1.26355
24.9533	1.3322
26.7982	1.31504
28.6431	1.3322
