Adsorption isotherm of Carbon Dioxide on MIL-47(V)
DOI: 10.1021/Jp308525k
Adsorbate Carbon Dioxide: InChIKey CURLTUGMZLYLDI-UHFFFAOYSA-N
Temperature: 303 K
Tabular data in the source: 0
pressure (bar)	uptake (mmol/g)
0.295317	0.253704
0.760106	0.895958
1.52067	2.19737
2.15447	3.00863
3.08405	4.19173
4.98546	5.78046
5.83053	6.32131
7.81644	7.06497
9.76011	7.65652
11.6615	8.07906
13.4784	8.33258
15.2531	8.603
17.07	8.77201
18.7601	8.94103
22.2249	9.24525
25.7319	9.48187
27.3798	9.51568
