Adsorption isotherm of Carbon Dioxide on Zeolite NaY
DOI: 10.1021/Jp308525k
Adsorbate Carbon Dioxide: InChIKey CURLTUGMZLYLDI-UHFFFAOYSA-N
Temperature: 303 K
Tabular data in the source: 0
pressure (bar)	uptake (mmol/g)
2.11191	4.81759
4.99924	5.64153
9.78797	5.95843
19.8584	6.21195
24.9992	6.40209
29.7175	6.40209
34.7175	6.52885
