Adsorption isotherm of Methane on MIL-47(V)
DOI: 10.1021/Jp308525k
Adsorbate Methane: InChIKey VNWKTOKETHGBQD-UHFFFAOYSA-N
Temperature: 303 K
Tabular data in the source: 0
pressure (bar)	uptake (mmol/g)
0.412077	0.0279085
1.05564	0.199526
1.91373	0.525598
2.94343	0.765862
5.00284	1.05761
7.96323	1.21207
9.97973	1.24639
11.8675	1.29788
13.7982	1.24639
15.686	1.31504
17.488	1.31504
19.3758	1.24639
21.2636	1.26355
23.1514	1.28071
24.9962	1.31504
26.8411	1.29788
28.6431	1.31504
