Adsorption isotherm of Carbon Dioxide on MIL-47(V)
DOI: 10.1021/Jp308525k
Adsorbate Carbon Dioxide: InChIKey CURLTUGMZLYLDI-UHFFFAOYSA-N
Temperature: 303 K
Tabular data in the source: 0
pressure (bar)	uptake (mmol/g)
0.0259382	0.0965554
1.09855	0.559922
1.48468	0.868833
3.02924	1.89854
5.00284	3.13418
5.98963	3.61471
7.96323	4.43847
9.89392	5.09061
13.7124	6.01735
17.5738	6.58368
19.4187	6.85827
23.1943	7.16718
24.9962	7.27015
26.7982	7.47609
28.6431	7.5619
