Adsorption isotherm of Carbon Dioxide on CuBTC
DOI: 10.1021/Jp308525k
Adsorbate Carbon Dioxide: InChIKey CURLTUGMZLYLDI-UHFFFAOYSA-N
Temperature: 303 K
Tabular data in the source: 0
pressure (bar)	uptake (mmol/g)
1.05558	4.50069
1.61896	6.21195
2.53445	7.41618
7.11191	11.1556
11.6894	12.8669
19.3654	14.0711
28.5204	14.5148
36.4781	14.9584
42.5345	15.0852
49.0837	15.2753
