Adsorption isotherm of Carbon Dioxide on MIL-47(V)
DOI: 10.1021/Jp308525k
Adsorbate Carbon Dioxide: InChIKey CURLTUGMZLYLDI-UHFFFAOYSA-N
Temperature: 303 K
Tabular data in the source: 0
pressure (bar)	uptake (mmol/g)
0.114738	0.0450702
0.758302	1.1091
1.25885	2.1388
1.97392	2.96256
2.47447	3.78632
2.97502	4.52428
5.97832	6.60085
8.7671	7.80217
12.271	8.45431
15.2027	8.84903
18.2776	9.10646
21.2809	9.34672
24.5702	9.50118
27.4305	9.68995
30.3623	9.77576
33.5801	9.91306
39.6582	10.1018
45.5218	10.2906
48.5251	10.3593
