Adsorption isotherm of Carbon Dioxide on MIL-47(V)
DOI: 10.1021/Jp308525k
Adsorbate Carbon Dioxide: InChIKey CURLTUGMZLYLDI-UHFFFAOYSA-N
Temperature: 303 K
Tabular data in the source: 0
pressure (bar)	uptake (mmol/g)
0.0259382	0.0279085
1.87082	1.09193
3.02924	1.67543
5.08864	2.79094
8.13485	3.9751
9.85102	4.50712
11.9104	5.02197
13.8411	5.46817
15.5573	5.60547
17.6167	5.96586
19.29	6.18896
21.3923	6.32626
23.2372	6.49788
25.082	6.60085
26.7124	6.72098
28.6431	6.85827
