Adsorption isotherm of Carbon Dioxide on MIL-47
DOI: 10.1021/Jp308525k
Adsorbate Carbon Dioxide: InChIKey CURLTUGMZLYLDI-UHFFFAOYSA-N
Temperature: 303 K
Tabular data in the source: 0
pressure (bar)	uptake (mmol/g)
1.61896	2.02886
5.91473	6.90914
9.01332	7.92322
12.1823	8.43026
14.9992	8.87393
18.3091	9.12745
21.4077	9.31759
27.464	9.69787
33.5204	9.95139
39.4359	10.2049
42.7457	10.2683
45.7035	10.3317
48.5204	10.5218
