Adsorption isotherm of Carbon Dioxide on DUT-9
DOI: 10.1021/Jp308525k
Adsorbate Carbon Dioxide: InChIKey CURLTUGMZLYLDI-UHFFFAOYSA-N
Temperature: 303 K
Tabular data in the source: 0
pressure (bar)	uptake (mmol/g)
0.914731	1.39505
2.74572	4.37393
3.59079	5.32463
6.68938	9.19083
9.85839	12.9303
12.957	16.3528
16.4077	20.0289
19.6471	23.2612
23.0978	26.4936
26.4781	29.4725
30.0697	31.6908
33.6612	33.0852
37.2528	34.4162
40.9852	35.2401
44.5063	36.1908
46.9006	36.888
