Adsorption isotherm of Carbon Dioxide on CuBTC
DOI: 10.1021/Jp308525k
Adsorbate Carbon Dioxide: InChIKey CURLTUGMZLYLDI-UHFFFAOYSA-N
Temperature: 303 K
Tabular data in the source: 0
pressure (bar)	uptake (mmol/g)
3.44994	8.49364
4.99924	9.76125
5.77389	10.1415
