Adsorption isotherm of Carbon Dioxide on Cr-MIL(101)
DOI: 10.1021/Jp308525k
Adsorbate Carbon Dioxide: InChIKey CURLTUGMZLYLDI-UHFFFAOYSA-N
Temperature: 303 K
Tabular data in the source: 0
pressure (bar)	uptake (mmol/g)
1.61896	5.19787
4.08375	8.55702
7.04149	11.5993
10.0697	14.5148
15.0697	18.381
19.9992	21.9936
25.0697	25.4162
29.9992	28.3951
35.1401	31.3739
45.1401	36.8246
50.3513	39.55
