Adsorption isotherm of Carbon Dioxide on MIL-47(V)
DOI: 10.1021/Jp308525k
Adsorbate Carbon Dioxide: InChIKey CURLTUGMZLYLDI-UHFFFAOYSA-N
Temperature: 303 K
Tabular data in the source: 0
pressure (bar)	uptake (mmol/g)
0.472273	0.765862
0.758302	1.40085
0.901316	1.88137
1.54488	2.79094
2.04543	3.47741
5.83531	6.29193
8.91012	7.45893
12.0564	8.17972
15.4173	8.71174
18.4921	9.08929
27.359	9.7586
33.4371	10.0504
36.4404	10.1533
42.5185	10.3421
48.6681	10.4451
