Adsorption isotherm of Carbon Dioxide on Zeolite Na-Y
DOI: 10.1021/Jp308525k
Adsorbate Carbon Dioxide: InChIKey CURLTUGMZLYLDI-UHFFFAOYSA-N
Temperature: 303 K
Tabular data in the source: 0
pressure (bar)	uptake (cm3(STP)/cm3)
0.140083	1.3241
0.35135	2.02832
0.633041	2.69029
1.7598	3.47903
4.78797	3.87339
10.0697	4.16917
19.6471	4.38043
24.788	4.45086
29.9992	4.45086
