Adsorption isotherm of Nitrogen on COF-PEG-B1-Li
DOI: 10.1021/acsaem.1c02426
Article source: Figure S4
Adsorbate Nitrogen: InChIKey IJGRMHOSHXDMSA-UHFFFAOYSA-N
Kind: experiment
Temperature: 77 K
Tabular data in the source: 0
pressure (bar)	uptake (cm3(STP)/g)
0.006601	0.151751
0.037406	0.280156
0.055008	0.303502
0.090213	0.350195
0.112217	0.396887
0.138621	0.44358
0.154023	0.490272
0.169425	0.536965
0.191428	0.536965
0.213432	0.63035
0.26734	0.688716
0.317947	0.793774
0.356453	0.817121
0.40596	0.88716
0.456568	0.968872
0.509375	1.05058
0.558883	1.23735
0.61059	1.34241
0.661198	1.45914
0.711805	1.64591
0.762413	1.78599
0.81302	1.94942
0.863628	2.13619
0.915336	2.41634
0.964843	2.96498
1.00115	4.68093
1.00225	6.07004
