Adsorption isotherm of Nitrogen on PEG-B6
DOI: 10.1021/acsaem.1c02426
Article source: Figure 2
Adsorbate Nitrogen: InChIKey IJGRMHOSHXDMSA-UHFFFAOYSA-N
Kind: experiment
Temperature: 77 K
Tabular data in the source: 0
pressure (bar)	uptake (cm3(STP)/g)
0.016716	0.206897
0.036004	0.413793
0.060435	0.62069
0.079723	0.62069
0.10544	0.827586
0.142729	0.931034
0.165875	0.982759
0.18902	0.982759
0.200593	1.08621
0.230167	1.18965
0.259742	1.24138
0.280315	1.2931
0.304747	1.39655
0.344608	1.34483
0.367753	1.39655
0.396042	1.55172
0.421759	1.60345
0.44619	1.65517
0.474479	1.65517
0.492481	1.81035
0.524627	1.91379
0.541343	1.91379
0.572203	1.91379
0.596635	1.96552
0.617208	2.01724
0.646783	2.01724
0.671214	2.06897
0.696931	2.06897
0.726505	2.37931
0.762509	2.43103
0.819087	2.63793
0.869235	2.89655
0.915525	3.36207
0.97146	4.47414
1.00425	9.36207
