Adsorption isotherm of Nitrogen on PEG-B1
DOI: 10.1021/acsaem.1c02426
Article source: Figure 2
Adsorbate Nitrogen: InChIKey IJGRMHOSHXDMSA-UHFFFAOYSA-N
Kind: experiment
Temperature: 77 K
Tabular data in the source: 0
pressure (bar)	uptake (cm3(STP)/g)
0.023145	0.258621
0.050148	0.465517
0.069436	0.62069
0.106726	0.827586
0.138872	1.08621
0.153016	1.13793
0.180019	1.44828
0.211522	1.99138
0.264885	2.37931
0.32082	3
0.356181	3.49138
0.408257	4.06035
0.459049	4.86207
0.509197	5.32759
0.559345	6
0.610779	6.77586
0.660927	7.44828
0.709146	8.12069
0.763795	8.71552
0.8133	9.5431
0.862806	10.2414
0.91424	11.2759
0.965674	12.9569
1.00039	16.681
