Adsorption isotherm of Nitrogen on COF-PEG-B6-Li
DOI: 10.1021/acsaem.1c02426
Article source: Figure S4
Adsorbate Nitrogen: InChIKey IJGRMHOSHXDMSA-UHFFFAOYSA-N
Kind: experiment
Temperature: 77 K
Tabular data in the source: 0
pressure (bar)	uptake (cm3(STP)/g)
0.019803	0.198444
0.044007	0.18677
0.063809	0.18677
0.088013	0.256809
0.113317	0.303502
0.138621	0.350195
0.156223	0.420233
0.179327	0.420233
0.213432	0.548638
0.264039	0.618677
0.316847	0.723735
0.356453	0.85214
0.40706	0.980545
0.457668	1.05058
0.508275	1.20234
0.558883	1.36576
0.60949	1.54086
0.660098	1.65759
0.711805	1.8677
0.762413	1.99611
0.81302	2.19455
0.864728	2.32296
0.914235	2.5214
0.965943	2.74319
1.00555	3.26848
