Adsorption isotherm of Nitrogen on COF-PEG-B3-Li
DOI: 10.1021/acsaem.1c02426
Article source: Figure S4
Adsorbate Nitrogen: InChIKey IJGRMHOSHXDMSA-UHFFFAOYSA-N
Kind: experiment
Temperature: 77 K
Tabular data in the source: 0
pressure (bar)	uptake (cm3(STP)/g)
0.007701	0.035019
0.022003	0.116732
0.041806	0.070039
0.057208	0.081712
0.074811	0.116732
0.090213	0.116732
0.112217	0.18677
0.138621	0.210117
0.155123	0.245136
0.181527	0.326848
0.213432	0.350195
0.265139	0.396887
0.319047	0.501946
0.356453	0.583658
0.40596	0.688716
0.457668	0.758755
0.508275	0.88716
0.558883	0.992218
0.61059	1.10895
0.660098	1.19066
0.710705	1.33074
0.763513	1.49416
0.81302	1.63424
0.864728	1.78599
0.915336	1.97276
0.965943	2.22957
1.00445	3.02335
