Adsorption isotherm of Methane on MCM-41-N2
DOI: 10.1039/c5cp00581g
Article source: Figure 6
Adsorbate Methane: InChIKey VNWKTOKETHGBQD-UHFFFAOYSA-N
Kind: experiment
Temperature: 303 K
Tabular data in the source: 0
pressure (bar)	uptake (mmol/g)
0	0
1.87623	0.095508
3.85477	0.152631
5.88342	0.241713
7.81067	0.324422
9.17955	0.407251
13.2378	0.540657
17.1435	0.680489
20.8969	0.826748
24.6496	1.00498
28.5039	1.18318
