Adsorption isotherm of Methane on MCM-41
DOI: 10.1039/c5cp00581g
Article source: Figure 6
Adsorbate Methane: InChIKey VNWKTOKETHGBQD-UHFFFAOYSA-N
Kind: experiment
Temperature: 303 K
Tabular data in the source: 0
pressure (bar)	uptake (mmol/g)
0	0
1.87506	0.153053
3.80102	0.299701
5.92963	0.465488
7.90609	0.624913
11.7079	0.886252
15.3577	1.13483
19.1593	1.40257
22.9097	1.69588
26.6091	2.002
29.1391	2.39788
