Adsorption isotherm of Carbon Dioxide on MCM-41-methylaminopyridine
DOI: 10.1039/c5cp00581g
Article source: Figure 5
Adsorbate Carbon Dioxide: InChIKey CURLTUGMZLYLDI-UHFFFAOYSA-N
Kind: experiment
Temperature: 303 K
Tabular data in the source: 0
pressure (bar)	uptake (mmol/g)
0	0
1.3668	0.472138
2.73615	0.664705
4.16055	0.835727
5.64038	0.942193
7.01033	1.07024
8.49016	1.17671
11.3407	1.3252
14.1915	1.45219
17.042	1.60069
19.8924	1.77069
22.7428	1.94069
25.6478	2.13215
28.4429	2.3452
30.1409	2.58054
