Adsorption isotherm of Nitrogen on MCM-41-N3
DOI: 10.1039/c5cp00581g
Article source: Figure 3
Adsorbate Nitrogen: InChIKey IJGRMHOSHXDMSA-UHFFFAOYSA-N
Kind: experiment
Temperature: 77 K
Tabular data in the source: 0
pressure (bar)	uptake (cm3(STP)/g)
0.009579	25.1343
0.030258	34.2352
0.062156	41.024
0.079031	43.2728
0.101545	47.7958
0.122185	52.323
0.139041	52.2849
0.144718	59.1328
0.161574	59.0948
0.180323	61.3394
0.200944	63.5797
0.206621	70.4276
0.253443	70.322
0.255374	77.1783
0.305962	79.351
0.309668	74.7689
0.337821	81.566
0.365855	74.642
0.399645	83.7134
0.425807	76.7936
0.453939	81.3039
0.459519	76.7175
0.508447	104.05
0.510106	78.8903
0.558801	78.7804
0.559054	108.51
0.609369	78.6662
0.609622	108.395
0.66019	108.281
0.66183	80.8347
0.710778	110.454
0.712397	80.7206
0.750108	110.365
0.75362	82.9145
0.781947	110.293
0.783586	82.8468
0.811913	110.226
0.813553	82.7792
0.832534	112.466
0.834173	85.0196
0.853136	112.42
0.854775	84.9731
0.873524	87.2176
0.873738	112.373
0.890399	89.4665
0.890613	114.622
0.903743	116.879
0.909148	91.7111
0.914999	119.141
0.920385	91.6857
0.927876	91.6688
0.933534	96.2298
0.933787	125.959
0.942917	98.4955
0.950429	100.765
0.950682	130.495
0.954213	105.331
0.961743	109.888
0.961958	135.043
0.967382	112.162
0.969508	141.887
0.971167	116.727
0.974932	119.005
0.982676	148.718
0.984335	123.558
0.9881	125.836
0.993758	130.397
0.993972	155.553
0.997523	132.676
0.997777	162.405
1.00135	141.815
1.00513	146.38
1.00706	153.236
1.00712	160.097
1.00905	166.953
1.00907	169.24
