Adsorption isotherm of Carbon Dioxide on MCM-41-aminopyridine
DOI: 10.1039/c5cp00581g
Article source: Figure 5
Adsorbate Carbon Dioxide: InChIKey CURLTUGMZLYLDI-UHFFFAOYSA-N
Kind: experiment
Temperature: 303 K
Tabular data in the source: 0
pressure (bar)	uptake (mmol/g)
0	0
1.47983	0.106466
2.90541	0.148455
4.33079	0.211949
5.97555	0.275286
7.34608	0.33882
8.9358	0.423702
11.8416	0.529146
14.6377	0.634668
17.4885	0.761657
20.339	0.910151
23.1892	1.10166
26.0394	1.29316
28.8891	1.52768
