Adsorption isotherm of Carbon Dioxide on MCM-41-guanidine
DOI: 10.1039/c5cp00581g
Article source: Figure 5
Adsorbate Carbon Dioxide: InChIKey CURLTUGMZLYLDI-UHFFFAOYSA-N
Kind: experiment
Temperature: 303 K
Tabular data in the source: 0
pressure (bar)	uptake (mmol/g)
0	0
1.36601	0.558161
2.73321	0.987288
4.10118	1.33039
5.46956	1.63049
7.05692	1.97344
8.53498	2.27345
11.437	2.7875
14.23	3.23711
16.9679	3.70827
19.8157	4.15784
22.5533	4.672
25.3456	5.18613
28.1376	5.74327
29.9434	6.19359
