Adsorption isotherm of Nitrogen on MCM-41-N2
DOI: 10.1039/c5cp00581g
Article source: Figure 3
Adsorbate Nitrogen: InChIKey IJGRMHOSHXDMSA-UHFFFAOYSA-N
Kind: experiment
Temperature: 77 K
Tabular data in the source: 0
pressure (bar)	uptake (cm3(STP)/g)
0.009851	57.1503
0.028697	70.8292
0.064418	86.7569
0.07942	89.0099
0.100081	95.824
0.120722	100.351
0.141362	104.878
0.14144	114.026
0.162002	109.406
0.182643	113.933
0.19589	129.911
0.203304	120.747
0.25034	145.797
0.265284	141.189
0.304809	163.969
0.319753	159.361
0.340452	170.749
0.35725	163.851
0.398531	172.905
0.422839	168.276
0.449118	175.078
0.47528	168.158
0.509285	202.385
0.525848	168.044
0.557707	170.259
0.559871	204.558
0.610148	170.141
0.61044	204.443
0.658862	172.318
0.661027	206.616
0.711323	174.486
0.711595	206.502
0.752526	174.393
0.752798	206.409
0.782512	176.612
0.782784	208.628
0.812478	176.545
0.81275	208.561
0.833099	178.785
0.833352	208.514
0.853701	178.738
0.853973	210.754
0.872449	180.983
0.874594	212.995
0.889324	183.232
0.889597	215.248
0.904327	185.485
0.904599	217.501
0.917456	187.742
0.921475	219.75
0.926859	192.295
0.928986	222.02
0.93837	224.285
0.940009	196.839
0.945881	226.555
0.949393	199.105
0.949646	228.834
0.953158	201.383
0.955265	228.821
0.956923	203.661
0.957156	231.104
0.960708	208.227
0.960922	233.382
0.964687	235.661
0.966366	212.788
0.968452	237.939
0.970131	215.066
0.970345	240.222
0.973896	217.345
0.97411	242.5
0.976003	244.783
0.977681	221.91
0.977895	247.065
0.981465	226.475
0.98166	249.344
0.98525	231.04
0.985444	253.909
0.990908	235.601
0.991102	258.47
0.993014	263.039
0.994692	240.167
0.99676	263.031
0.99678	265.318
0.998458	242.445
0.998672	267.6
1.00037	247.015
1.00056	269.883
1.0023	253.871
1.00417	253.867
1.00433	272.162
1.00624	276.731
1.00798	260.719
1.01001	279.009
1.01192	283.579
