Adsorption isotherm of Carbon Dioxide on MCM-41-N3
DOI: 10.1039/c5cp00581g
Article source: Figure 5
Adsorbate Carbon Dioxide: InChIKey CURLTUGMZLYLDI-UHFFFAOYSA-N
Kind: experiment
Temperature: 303 K
Tabular data in the source: 0
pressure (bar)	uptake (mmol/g)
0	0
1.19519	1.24646
2.56297	1.61107
3.98599	1.93263
5.35495	2.1682
6.83321	2.44671
8.31167	2.70372
11.1054	3.06731
13.9538	3.45236
16.6929	3.79449
19.4865	4.17958
22.2794	4.62919
25.0726	5.0573
27.8658	5.4854
29.7822	5.82811
