Adsorption isotherm of Methane on MCM-41-aminopyridine
DOI: 10.1039/c5cp00581g
Article source: Figure 6
Adsorbate Methane: InChIKey VNWKTOKETHGBQD-UHFFFAOYSA-N
Kind: experiment
Temperature: 303 K
Tabular data in the source: 0
pressure (bar)	uptake (mmol/g)
0	0
1.92894	0.000411
3.85788	0.000822
5.83759	0.001244
7.66501	0.001634
9.49217	0.010765
13.299	0.022741
17.1056	0.047505
20.9627	0.085046
24.8192	0.154557
28.6753	0.243249
