Adsorption isotherm of Methane on MCM-41-N3
DOI: 10.1039/c5cp00581g
Article source: Figure 6
Adsorbate Methane: InChIKey VNWKTOKETHGBQD-UHFFFAOYSA-N
Kind: experiment
Temperature: 303 K
Tabular data in the source: 0
pressure (bar)	uptake (mmol/g)
0	0
1.92725	0.08271
3.80388	0.159036
5.83266	0.241724
7.65839	0.324455
8.77358	0.400943
12.6795	0.534382
16.4836	0.68063
20.4401	0.826846
24.2436	1.00506
28.0473	1.17049
