Adsorption isotherm of Carbon Dioxide on MCM-41
DOI: 10.1039/c5cp00581g
Article source: Figure 5
Adsorbate Carbon Dioxide: InChIKey CURLTUGMZLYLDI-UHFFFAOYSA-N
Kind: experiment
Temperature: 303 K
Tabular data in the source: 0
pressure (bar)	uptake (mmol/g)
0	0
1.36464	0.708699
2.73085	1.24535
4.15229	1.73896
5.51909	2.2111
6.88629	2.64022
8.25348	3.06935
9.18309	3.36976
11.9733	4.12045
14.7097	4.76365
17.4456	5.44986
20.2362	6.15754
23.027	6.84371
25.8172	7.5944
28.6071	8.3881
30.1926	8.92459
