Adsorption isotherm of Carbon Dioxide on MCM-41-N2
DOI: 10.1039/c5cp00581g
Article source: Figure 5
Adsorbate Carbon Dioxide: InChIKey CURLTUGMZLYLDI-UHFFFAOYSA-N
Kind: experiment
Temperature: 303 K
Tabular data in the source: 0
pressure (bar)	uptake (mmol/g)
0	0
1.25023	1.22491
2.6184	1.54651
4.09666	1.82502
5.46543	2.0821
6.83478	2.27467
8.36848	2.48862
11.2719	2.85213
14.1759	3.15113
16.9699	3.49321
19.8187	3.83526
22.6124	4.19884
25.406	4.58394
28.2542	4.9905
30.0057	5.37634
