Adsorption isotherm of Methane on MCM-41-methylaminopyridine
DOI: 10.1039/c5cp00581g
Article source: Figure 6
Adsorbate Methane: InChIKey VNWKTOKETHGBQD-UHFFFAOYSA-N
Kind: experiment
Temperature: 303 K
Tabular data in the source: 0
pressure (bar)	uptake (mmol/g)
0	0
1.92894	-0.000411
3.85763	0.011966
5.78631	0.024342
7.76549	0.049496
11.5725	0.055078
15.4805	0.086215
19.2868	0.123767
23.1939	0.19966
27.0496	0.307534
29.5846	0.460447
