Adsorption isotherm of Methane on MCM-41-guanidine
DOI: 10.1039/c5cp00581g
Article source: Figure 6
Adsorbate Methane: InChIKey VNWKTOKETHGBQD-UHFFFAOYSA-N
Kind: experiment
Temperature: 303 K
Tabular data in the source: 0
pressure (bar)	uptake (mmol/g)
0	0
1.92687	0.101891
3.8031	0.197399
5.7806	0.305673
7.60594	0.407586
8.72075	0.503256
12.7273	0.681431
16.6323	0.859627
20.4354	1.05703
24.3395	1.27998
28.0914	1.49657
