Adsorption isotherm of Nitrogen on Cu-MOF-74-eth-80
DOI: 10.1021/acs.iecr.6b03568
Article source: Figure 3
Adsorbate Nitrogen: InChIKey IJGRMHOSHXDMSA-UHFFFAOYSA-N
Kind: experiment
Temperature: 77 K
Tabular data in the source: 0
pressure (bar)	uptake (cm3(STP)/g)
0.001368	2.90381
0.001368	6.35209
0.001368	9.43739
0.001368	11.9782
0.00228	14.882
0.00228	18.5118
0.001824	21.4156
0.001824	24.3194
0.00228	27.2232
0.001824	30.49
0.001824	33.3938
0.00228	36.4791
0.001824	39.5644
0.001368	42.4682
0.001824	45.5535
0.001824	48.4574
0.001824	51.3612
0.001368	54.8094
0.001368	57.8947
0.001368	60.6171
0.001824	63.7024
0.001824	66.6062
0.00228	69.873
0.001824	72.9583
0.001824	75.8621
0.001824	79.1289
0.001824	81.8512
0.001824	84.755
0.001824	87.8403
0.001368	91.1071
0.001368	93.8294
0.001824	96.7332
0.00228	100.181
0.001824	103.085
0.001368	106.171
0.001824	109.256
0.001368	112.16
0.001368	115.064
0.001824	118.149
0.001824	121.234
0.00228	124.319
0.001824	127.405
0.001824	130.672
0.001824	133.394
0.001368	136.661
0.00228	139.746
0.00228	142.65
0.00228	145.554
0.001824	148.457
0.001824	151.724
0.00228	154.628
0.00228	157.532
0.001824	160.436
0.00228	163.521
0.001824	166.425
0.00228	169.51
0.001824	172.595
0.001368	175.681
0.00228	178.584
0.00228	181.67
0.00228	184.755
0.00228	187.659
0.001824	190.926
0.001824	194.011
0.00228	196.915
0.00228	200.363
0.00228	203.267
0.001824	206.171
0.10397	214.272
0.00912	208.711
0.030097	211.797
0.064753	213.793
0.079345	214.156
0.101234	214.882
0.121298	215.245
0.142275	215.789
0.162339	216.334
0.183315	216.878
0.204292	217.06
0.246244	217.786
0.306893	218.33
0.368455	219.056
0.405847	219.419
0.45692	219.964
0.507081	220.327
0.557698	221.053
0.607859	221.416
0.658476	222.505
0.709549	222.505
0.760166	223.593
0.810782	224.319
0.831303	224.682
0.861399	225.59
0.88648	226.497
0.912016	227.949
0.937553	229.401
0.963089	230.309
0.98817	231.76
0.993186	231.942
1.00413	232.668
1.00869	233.031
1.00823	232.668
0.99273	232.305
0.976769	231.579
0.955337	231.397
0.937097	230.853
0.912016	230.49
0.88648	229.946
0.861399	229.583
0.836319	229.401
0.810782	229.038
0.76427	228.131
0.709549	227.042
0.658476	226.497
0.607403	225.771
0.55633	225.045
0.507993	222.868
0.45464	220.871
0.403111	219.601
0.355686	219.238
0.304157	218.875
0.252628	218.33
0.202924	217.423
0.141363	216.334
