Adsorption isotherm of Nitrogen on Cu-MOF-74-eth-65
DOI: 10.1021/acs.iecr.6b03568
Article source: Figure 3
Adsorbate Nitrogen: InChIKey IJGRMHOSHXDMSA-UHFFFAOYSA-N
Kind: experiment
Temperature: 77 K
Tabular data in the source: 0
pressure (bar)	uptake (cm3(STP)/g)
0.001368	2.90381
0.001368	6.35209
0.001368	9.43739
0.001368	11.9782
0.00228	14.882
0.00228	18.5118
0.001824	21.4156
0.001824	24.3194
0.00228	27.2232
0.001824	30.49
0.001824	33.3938
0.00228	36.4791
0.001824	39.5644
0.001368	42.4682
0.001824	45.5535
0.001824	48.4574
0.001824	51.3612
0.001368	54.8094
0.001368	57.8947
0.001368	60.6171
0.001824	63.7024
0.001824	66.6062
0.00228	69.873
0.001824	72.9583
0.001824	75.8621
0.001824	79.1289
0.001824	81.8512
0.001824	84.755
0.001824	87.8403
0.001368	91.1071
0.001368	93.8294
0.001824	96.7332
0.00228	100.181
0.001824	103.085
0.001368	106.171
0.001824	109.256
0.001368	112.16
0.001368	115.064
0.001824	118.149
0.001824	121.234
0.00228	124.319
0.001824	127.405
0.001824	130.672
0.001824	133.394
0.001368	136.661
0.00228	139.746
0.00228	142.65
0.00228	145.554
0.001824	148.457
0.001824	151.724
0.00228	154.628
0.00228	157.532
0.001824	160.436
0.00228	163.521
0.001824	166.425
0.00228	169.51
0.001824	172.595
0.001368	175.681
0.00228	178.584
0.00228	181.67
0.00228	184.755
0.00228	187.659
0.001824	190.926
0.001824	194.011
0.00228	196.915
0.00228	200.363
0.00228	203.267
0.001824	206.171
0.00228	209.256
0.00228	212.341
0.00228	215.245
0.001824	218.33
0.00228	221.234
0.00228	224.138
0.00228	227.223
0.001824	230.127
0.00228	233.394
0.00228	236.298
0.00228	239.02
0.00228	242.105
0.010944	243.557
0.033745	247.005
0.065209	248.639
0.086642	249.909
0.10397	250.272
0.122666	250.635
0.142275	251.18
0.162339	251.543
0.182859	251.906
0.20338	252.45
0.252172	253.176
0.303245	253.539
0.353406	254.083
0.404023	254.809
0.45464	255.172
0.505713	255.717
0.555874	256.443
0.606035	256.987
0.656652	257.532
0.707269	258.258
0.757885	259.347
0.808046	260.98
0.830847	261.887
0.860487	262.976
0.885568	263.884
0.911104	264.791
0.936641	266.243
0.961265	268.058
0.982697	272.414
0.993186	275.862
1.00231	282.396
1.00459	294.011
1.00413	293.466
1.00185	285.118
0.989994	278.04
0.979961	274.047
0.967193	271.143
0.943025	268.784
0.900616	266.425
0.871887	265.699
0.845439	264.973
0.819447	264.791
0.792998	264.791
0.761078	264.428
0.711373	264.247
0.6603	264.065
0.609683	264.065
0.55861	263.884
0.508449	263.339
0.458288	257.169
0.404935	256.08
0.337446	255.172
0.285917	254.809
0.253541	254.446
0.20338	253.902
0.141819	253.176
