Adsorption isotherm of Nitrogen on Cu-MOF-74-iso-80
DOI: 10.1021/acs.iecr.6b03568
Article source: Figure 3
Adsorbate Nitrogen: InChIKey IJGRMHOSHXDMSA-UHFFFAOYSA-N
Kind: experiment
Temperature: 77 K
Tabular data in the source: 0
pressure (bar)	uptake (cm3(STP)/g)
0.001368	2.90381
0.001368	6.35209
0.001368	9.43739
0.001368	11.9782
0.00228	14.882
0.00228	18.5118
0.001824	21.4156
0.001824	24.3194
0.00228	27.2232
0.001824	30.49
0.001824	33.3938
0.00228	36.4791
0.001824	39.5644
0.001368	42.4682
0.001824	45.5535
0.001824	48.4574
0.001824	51.3612
0.001368	54.8094
0.001368	57.8947
0.001368	60.6171
0.001824	63.7024
0.001824	66.6062
0.00228	69.873
0.001824	72.9583
0.001824	75.8621
0.001824	79.1289
0.001824	81.8512
0.001824	84.755
0.001824	87.8403
0.001368	91.1071
0.001368	93.8294
0.001824	96.7332
0.00228	100.181
0.001824	103.085
0.001368	106.171
0.001824	109.256
0.001368	112.16
0.001368	115.064
0.001824	118.149
0.001824	121.234
0.00228	124.319
0.001824	127.405
0.001824	130.672
0.001824	133.394
0.001368	136.661
0.00228	139.746
0.00228	142.65
0.00228	145.554
0.001824	148.457
0.001824	151.724
0.00228	154.628
0.00228	157.532
0.001824	160.436
0.00228	163.521
0.001824	166.425
0.00228	169.51
0.001824	172.595
0.001368	175.681
0.00228	178.584
0.00228	181.67
0.00228	184.755
0.00228	187.659
0.001824	190.926
0.001824	194.011
0.00228	196.915
0.00228	200.363
0.00228	203.267
0.001824	206.171
0.10397	250.272
0.00228	209.256
0.001824	212.341
0.001824	215.245
0.001824	218.149
0.00228	221.234
0.00228	224.138
0.00228	227.223
0.001824	230.127
0.00228	233.212
0.001824	236.298
0.00228	239.02
0.00228	242.468
0.001824	245.191
0.001824	248.094
0.009576	256.806
0.030553	260.073
0.064297	262.069
0.079801	262.432
0.100778	262.976
0.121754	263.521
0.141363	264.065
0.162339	264.065
0.183771	264.428
0.204748	264.791
0.247156	265.336
0.305525	265.699
0.367087	266.425
0.404935	266.606
0.456008	267.151
0.506625	267.332
0.557242	267.695
0.607859	267.877
0.658476	267.877
0.709093	268.421
0.760622	268.421
0.810326	268.784
0.831303	268.966
0.861399	269.147
0.88648	269.51
0.912016	269.51
0.937097	269.691
0.962177	269.873
0.987258	270.962
0.992274	271.143
1.00322	271.688
1.00823	272.051
1.00869	271.869
0.99273	271.143
0.977225	271.143
0.954881	270.78
0.937553	270.417
0.912016	270.236
0.887392	269.873
0.861399	270.054
0.835863	269.328
0.811238	269.51
0.764726	269.328
0.709549	269.147
0.658476	269.328
0.606947	268.966
0.556786	268.966
0.506625	268.603
0.456008	268.421
0.404935	268.058
0.354318	267.695
0.303701	267.514
0.253084	267.151
0.202468	266.606
0.141363	265.88
