Adsorption isotherm of Nitrogen on COF-5
DOI: 10.1016/j.micromeso.2010.02.010
Adsorbate Nitrogen: InChIKey IJGRMHOSHXDMSA-UHFFFAOYSA-N
Temperature: 77 K
Tabular data in the source: 0
pressure (bar)	uptake (cm3(STP)/g)
0.0013582	444.01
0.021085	492.91
0.0456044	508.557
0.0701298	526.161
0.106891	543.765
0.136335	569.193
0.180413	578.973
0.202444	580.929
0.229368	582.885
0.258734	582.885
0.280765	584.841
0.339502	586.797
0.376209	586.797
0.415376	590.709
0.452083	590.709
0.513268	592.665
0.552422	592.665
0.594024	592.665
0.635632	594.621
0.672345	596.577
0.711511	600.489
0.755548	596.577
0.787373	600.489
0.831428	602.445
0.853458	604.401
0.892619	606.357
0.909749	606.357
0.946492	618.093
0.963646	625.917
