Adsorption isotherm of Nitrogen on COF-5
DOI: 10.1016/j.micromeso.2010.02.010
Adsorbate Nitrogen: InChIKey IJGRMHOSHXDMSA-UHFFFAOYSA-N
Temperature: 77 K
Tabular data in the source: 0
pressure (bar)	uptake (cm3(STP)/g)
0.00156163	510.513
0.00650979	528.117
0.0138931	541.809
0.0310711	557.457
0.0482311	567.237
0.0752156	588.753
0.102188	606.357
0.129161	623.961
0.143879	635.697
0.158574	639.609
0.183058	643.521
0.205082	643.521
0.219771	645.477
0.236907	647.433
0.258932	647.433
0.278521	651.345
0.298098	651.345
0.317675	651.345
0.337258	653.301
0.376419	655.257
0.398443	655.257
0.437598	655.257
0.457175	655.257
0.476752	655.257
0.513465	657.213
0.557514	657.213
0.596681	661.125
0.633394	663.081
0.652971	663.081
0.714156	665.037
0.755758	665.037
0.775341	666.993
0.812054	668.949
0.85855	668.949
0.912393	670.905
0.936877	674.817
0.966261	680.685
