Adsorption isotherm of Nitrogen on COF-5
DOI: 10.1016/j.micromeso.2010.02.010
Adsorbate Nitrogen: InChIKey IJGRMHOSHXDMSA-UHFFFAOYSA-N
Temperature: 77 K
Tabular data in the source: 0
pressure (bar)	uptake (cm3(STP)/g)
0.00523535	111.491
0.0666296	181.907
0.113233	217.115
0.135359	250.367
0.19174	281.663
0.2187	295.355
0.255407	295.355
0.331281	299.267
0.407161	305.134
0.483023	305.134
0.556437	305.134
0.571126	307.09
0.600498	309.046
0.649441	309.046
0.698384	309.046
0.725303	309.046
0.796282	312.958
0.847678	314.914
0.896628	316.87
0.92354	314.914
0.950465	316.87
0.967601	318.826
