Adsorption isotherm of Nitrogen on COF-5
DOI: 10.1016/j.micromeso.2010.02.010
Adsorbate Nitrogen: InChIKey IJGRMHOSHXDMSA-UHFFFAOYSA-N
Temperature: 77 K
Tabular data in the source: 0
pressure (bar)	uptake (cm3(STP)/g)
0.00281213	119.315
0.0715538	191.687
0.130477	254.279
0.16731	295.355
0.206488	303.178
0.260332	305.134
0.311728	307.09
0.363136	312.958
0.407179	311.002
0.470811	312.958
0.514866	314.914
0.563815	316.87
0.666607	320.782
0.87218	324.694
0.96519	330.562
