Adsorption isotherm of Nitrogen on COF-5
DOI: 10.1016/j.micromeso.2010.02.010
Adsorbate Nitrogen: InChIKey IJGRMHOSHXDMSA-UHFFFAOYSA-N
Temperature: 77 K
Tabular data in the source: 0
pressure (bar)	uptake (cm3(STP)/g)
0.00145992	477.262
0.0015018	490.954
0.00402673	516.381
0.0139171	549.633
0.0286718	573.105
0.0384903	582.885
0.0409494	586.797
0.0605805	604.401
0.0752934	614.181
0.087571	627.873
0.0973955	639.609
0.119516	670.905
0.126899	684.597
0.144131	717.848
0.16372	721.76
0.183309	725.672
0.212675	725.672
0.222476	729.584
0.259195	733.496
0.335075	739.364
0.386471	741.32
0.432979	745.232
0.479475	745.232
0.518635	747.188
0.555348	749.144
0.577379	751.1
0.60185	751.1
0.638564	753.056
0.677724	755.012
0.697295	753.056
0.734008	755.012
0.753586	755.012
0.795193	756.968
0.817218	756.968
0.856378	758.924
0.880856	760.88
0.893097	762.836
0.912675	762.836
0.932264	766.748
0.951841	766.748
0.968989	772.616
