Adsorption isotherm of Nitrogen on COF-5
DOI: 10.1016/j.micromeso.2010.02.010
Adsorbate Nitrogen: InChIKey IJGRMHOSHXDMSA-UHFFFAOYSA-N
Temperature: 77 K
Tabular data in the source: 0
pressure (bar)	uptake (cm3(STP)/g)
0.00770644	119.315
0.0273794	150.611
0.0764541	193.643
0.130477	254.279
0.152561	273.839
0.177093	293.399
0.2236	297.311
0.294586	303.178
0.372913	309.046
0.426756	311.002
0.524648	312.958
0.600516	314.914
0.649465	316.87
0.725333	318.826
0.747363	320.782
0.774282	320.782
0.85015	322.738
0.921117	322.738
0.945601	326.65
