Adsorption isotherm of Nitrogen on {[Ni(tipb)(atpa)](solvents)}n
DOI: 10.1021/Cg500975j
Adsorbate Nitrogen: InChIKey IJGRMHOSHXDMSA-UHFFFAOYSA-N
Temperature: 77 K
Tabular data in the source: 0
pressure (bar)	uptake (cm3(STP)/g)
0.0411489	0.851788
0.0649973	0.903321
0.0841579	1.04769
0.115299	1.28815
0.132041	1.38517
0.153546	1.48312
0.194061	1.53791
0.198824	1.53884
0.251321	1.68972
0.308541	1.79464
0.365726	1.85269
0.406317	2.00124
0.460971	1.87129
0.511011	1.92794
0.563286	1.79753
0.61087	1.75995
0.663217	1.7233
0.718021	1.78088
0.770406	1.79111
0.813341	1.89324
0.837188	1.94478
0.868181	1.99771
0.889723	2.14254
0.911301	2.33425
0.942702	2.90289
0.969454	3.61124
0.994753	5.49118
1.00502	6.43068
1.00796	7.13438
1.01384	8.54178
1.02009	10.418
