Adsorption isotherm of Nitrogen on {[Ni(tipb)(pta)](solvents)}n
DOI: 10.1021/Cg500975j
Adsorbate Nitrogen: InChIKey IJGRMHOSHXDMSA-UHFFFAOYSA-N
Temperature: 77 K
Tabular data in the source: 0
pressure (bar)	uptake (cm3(STP)/g)
0.038688	0.746528
0.0695505	1.05796
0.09524	1.22223
0.133796	1.54008
0.177437	1.71931
0.187695	1.72785
0.244204	2.06066
0.326225	1.98616
0.428851	2.21455
0.508397	2.4237
0.613543	2.51133
0.731424	2.32386
0.831529	2.693
0.852178	3.13878
0.875259	3.15801
0.898339	3.17725
0.929246	3.63158
0.944765	4.07308
0.957632	4.22666
0.980977	5.10326
1.00193	6.5493
1.01246	7.41521
1.02307	8.56691
1.02855	9.71433
1.03124	10.1452
