Adsorption isotherm of Hydrogen on {[Ni(tipb)(pta)](solvents)}n
DOI: 10.1021/Cg500975j
Adsorbate Hydrogen: InChIKey UFHFLCQGNIYNRP-UHFFFAOYSA-N
Temperature: 77 K
Tabular data in the source: 0
pressure (bar)	uptake (cm3(STP)/g)
0.00778713	0.437238
0.015611	1.01778
0.0286995	2.17641
0.0339643	2.75451
0.0520609	3.48812
0.0752757	4.22663
0.0856952	4.95292
0.101379	6.25729
0.122035	6.99336
0.13761	7.86783
0.160897	8.89294
0.191863	9.92539
0.222902	11.2444
0.261653	12.7141
0.29781	14.038
0.351991	15.809
0.411216	17.2982
0.478301	19.5113
0.560741	21.7391
0.650893	24.1174
0.761445	26.2288
0.887536	29.0713
1.03662	31.7925
