Adsorption isotherm of Hydrogen on {[Ni(tipb)(atpa)](solvents)}n
DOI: 10.1021/Cg500975j
Adsorbate Hydrogen: InChIKey UFHFLCQGNIYNRP-UHFFFAOYSA-N
Temperature: 77 K
Tabular data in the source: 0
pressure (bar)	uptake (cm3(STP)/g)
0.00011191	0.141018
0.00264233	0.329603
0.0125029	0.754896
0.0175264	1.08506
0.027275	1.36933
0.041786	1.65473
0.0490789	1.84443
0.0731147	2.13206
0.0829007	2.46335
0.0973743	2.70173
0.111923	3.03414
0.126284	3.13151
0.14072	3.32289
0.16472	3.56351
0.193555	3.89927
0.224772	4.23559
0.263281	4.76161
0.306479	5.19474
0.352095	5.67543
0.41449	6.30106
0.479305	6.97426
0.558445	7.69782
0.654289	8.4723
0.757352	9.34247
0.886683	10.3128
1.03529	11.5697
1.21035	13.1617
