Adsorption isotherm of Carbon Dioxide on {[Ni(tipb)(pta)](solvents)}n
DOI: 10.1021/Cg500975j
Adsorbate Carbon Dioxide: InChIKey CURLTUGMZLYLDI-UHFFFAOYSA-N
Temperature: 195 K
Tabular data in the source: 0
pressure (bar)	uptake (cm3(STP)/g)
0.0035212	3.13599
0.0048772	7.55275
0.00636442	12.3969
0.0126195	16.1044
0.0163157	19.8103
0.0257857	25.6563
0.0499531	29.3744
0.0578922	30.2338
0.0838748	31.5313
0.114931	32.6893
0.156311	34.1384
0.383155	39.6861
0.416596	40.2758
0.452683	41.1519
0.488726	41.8855
0.529843	42.4798
0.550489	43.0618
0.583975	43.7939
0.61221	44.0956
0.694619	45.8539
