Adsorption isotherm of Nitrogen on Cr-MIL(101)
DOI: 10.1016/j.aca.2013.03.071
Adsorbate Nitrogen: InChIKey IJGRMHOSHXDMSA-UHFFFAOYSA-N
Temperature: 77 K
Tabular data in the source: 0
pressure (bar)	uptake (cm3(STP)/g)
0.00944547	121.207
0.0537799	170.976
0.0995445	200.151
0.142449	213.88
0.199654	229.326
0.228257	232.758
0.302625	237.906
0.399875	243.055
0.498554	243.055
0.598664	246.487
0.700205	251.636
0.791734	255.068
0.8518	260.217
0.893274	267.081
0.939038	280.811
0.969071	301.405
0.987663	342.593
