Adsorption isotherm of Nitrogen on Cr-MIL(101)
DOI: 10.1016/j.aca.2013.03.071
Adsorbate Nitrogen: InChIKey IJGRMHOSHXDMSA-UHFFFAOYSA-N
Temperature: 77 K
Tabular data in the source: 0
pressure (bar)	uptake (cm3(STP)/g)
0.0108756	385.497
0.0308976	479.887
0.0609306	555.398
0.100975	648.071
0.135298	735.596
0.162471	764.771
0.205375	804.243
0.25543	902.065
0.304055	910.646
0.404165	920.943
0.520007	931.24
0.65015	941.537
0.75169	946.685
0.873252	955.266
0.949049	963.847
0.971932	972.428
0.989093	989.59
