Adsorption isotherm of Nitrogen on Cr-MIL(101)
DOI: 10.1016/j.aca.2013.03.071
Adsorbate Nitrogen: InChIKey IJGRMHOSHXDMSA-UHFFFAOYSA-N
Temperature: 77 K
Tabular data in the source: 0
pressure (bar)	uptake (cm3(STP)/g)
0.0103389	5.03104
0.0683076	7.27499
0.101967	6.15301
0.138431	6.15301
0.18144	6.15301
0.227254	6.15301
0.278678	6.15301
0.332907	6.15301
0.380591	6.15301
0.43108	6.15301
0.481569	6.15301
0.564782	7.27499
0.64706	6.15301
0.746168	7.27499
0.822836	5.03104
0.915399	3.90906
0.990198	8.39696
