Adsorption isotherm of Carbon Dioxide on C16H10CuN4O4
DOI: 10.1002/anie.201102329
Adsorbate Carbon Dioxide: InChIKey CURLTUGMZLYLDI-UHFFFAOYSA-N
Temperature: 273 K
Tabular data in the source: 0
pressure (bar)	uptake (mmol/g)
0.00587486	0.233397
0.0168202	0.53935
0.0313723	0.912613
0.0670627	1.8763
0.0952267	2.51304
0.135219	3.30094
0.181107	4.1702
0.257165	5.16672
0.365166	6.40138
0.508519	7.19504
0.736284	8.08709
0.967126	8.74242
1.42784	9.45086
1.95002	10.2167
2.93559	10.4177
3.85597	10.4177
5.16455	10.8315
6.39868	11.0446
7.47773	11.4834
9.82218	11.7093
13.1555	11.9396
16.9467	12.4139
21.8304	12.1745
27.5792	12.4139
33.5104	12.6581
