Adsorption isotherm of Hydrogen on C16H10CuN4O4
DOI: 10.1002/anie.201102329
Adsorbate Hydrogen: InChIKey UFHFLCQGNIYNRP-UHFFFAOYSA-N
Temperature: 77 K
Tabular data in the source: 0
pressure (bar)	uptake (mmol/g)
0.00900319	1.78771
0.0168983	0.893855
0.02604	3.01676
0.03472	4.02235
0.0516183	4.9162
0.0684704	5.69832
0.0769195	6.14525
0.102175	7.26257
0.160626	8.71508
0.202456	9.94413
0.268895	10.7263
0.310494	11.3966
0.352048	11.9553
0.41013	12.514
0.459809	12.7374
0.50958	13.1844
0.567524	13.4078
0.617203	13.6313
0.666882	13.8547
0.716607	14.1899
0.76624	14.3017
0.815919	14.5251
0.865599	14.7486
0.931807	14.9721
0.973175	15.0838
1.01454	15.1955
