Adsorption isotherm of Nitrogen on C16H10CuN4O4
DOI: 10.1002/anie.201102329
Adsorbate Nitrogen: InChIKey IJGRMHOSHXDMSA-UHFFFAOYSA-N
Temperature: 77 K
Tabular data in the source: 0
pressure (bar)	uptake (cm3(STP)/g)
0	27.6596
0.00202606	45.7447
0.0202606	52.1277
0.0384952	53.1915
0.0486255	53.1915
0.0850946	54.2553
0.109407	55.3191
0.13372	56.383
0.145876	55.3191
0.158033	55.3191
0.184372	55.3191
0.206658	55.3191
0.235023	55.3191
0.259336	55.3191
0.285675	56.383
0.309987	57.4468
0.358613	57.4468
0.409264	57.4468
0.45789	57.4468
0.510567	57.4468
0.561219	59.5745
0.61187	58.5106
0.662522	59.5745
0.711147	59.5745
0.757747	59.5745
0.810424	60.6383
0.85905	60.6383
0.907675	62.766
0.956301	65.9574
0.980614	72.3404
0.988718	79.7872
