Adsorption isotherm of Argon on C16H10CuN4O4
DOI: 10.1002/anie.201102329
Adsorbate Argon: InChIKey XKRFYHLGVUSROY-UHFFFAOYSA-N
Temperature: 77 K
Tabular data in the source: 0
pressure (bar)	uptake (cm3(STP)/g)
0	396.277
0.00168367	405.585
0.0044898	457.447
0.0207653	464.096
0.0286224	462.766
0.0336735	464.096
0.0381633	464.096
0.0426531	462.766
0.0477041	464.096
0.0521939	464.096
0.0578061	465.426
0.0617347	464.096
0.0656633	464.096
0.0763265	462.766
0.0808163	464.096
0.0847449	464.096
0.0897959	464.096
0.0948469	462.766
0.0993367	465.426
0.136939	465.426
0.141429	464.096
0.14648	464.096
0.151531	465.426
0.155459	464.096
0.165561	465.426
0.170051	465.426
0.175102	465.426
0.179592	465.426
0.184643	465.426
0.189133	466.755
0.211582	466.755
0.212704	466.755
0.225051	466.755
0.232347	468.085
0.235153	468.085
