Adsorption isotherm of Argon on C16H10CuN4O4
DOI: 10.1002/anie.201102329
Adsorbate Argon: InChIKey XKRFYHLGVUSROY-UHFFFAOYSA-N
Temperature: 87 K
Tabular data in the source: 0
pressure (bar)	uptake (cm3(STP)/g)
0.00202103	352.865
0.00404206	368.49
0.00808412	376.302
0.0202103	380.208
0.0383996	381.51
0.0485047	382.812
0.0586099	424.479
0.0727571	427.083
0.0848832	428.385
0.0970094	429.688
0.127325	430.99
0.155619	429.688
0.179872	430.99
0.230398	432.292
0.284965	433.594
0.33347	434.896
0.381975	434.896
0.434521	437.5
0.485047	436.198
0.533551	437.5
0.586099	440.104
0.636624	440.104
0.68715	441.406
0.737676	441.406
0.790222	442.708
0.838727	444.01
0.891274	445.312
0.937757	447.917
0.959989	450.521
0.988283	451.823
1.01254	466.146
