Adsorption isotherm of Hydrogen on C16H10CuN4O4
DOI: 10.1002/anie.201102329
Adsorbate Hydrogen: InChIKey UFHFLCQGNIYNRP-UHFFFAOYSA-N
Temperature: 87 K
Tabular data in the source: 0
pressure (bar)	uptake (mmol/g)
0.0120724	0.12766
0.0321932	0.510638
0.0442656	0.765957
0.056338	0.93617
0.0643863	1.06383
0.0764588	1.23404
0.102616	1.61702
0.152918	2.25532
0.203219	2.85106
0.253521	3.40426
0.303823	3.91489
0.356137	4.42553
0.408451	4.80851
0.45674	5.23404
0.507042	5.57447
0.555332	6
0.607646	6.25532
0.657948	6.55319
0.708249	6.80851
0.760563	7.10638
0.810865	7.40426
0.863179	7.61702
0.913481	7.87234
0.961771	8.04255
