Adsorption isotherm of Carbon Dioxide on C16H10CuN4O4
DOI: 10.1002/anie.201102329
Adsorbate Carbon Dioxide: InChIKey CURLTUGMZLYLDI-UHFFFAOYSA-N
Temperature: 273 K
Tabular data in the source: 0
pressure (bar)	uptake (mmol/g)
0.0001	0.00405922
0.00018	0.00728181
0.000287	0.0116219
0.000476	0.0189135
0.000821	0.0301863
0.00165617	0.0632826
0.00274829	0.101
0.00474175	0.17426
0.0075679	0.267495
0.0113929	0.443886
0.0164957	0.583055
0.0243539	0.827918
0.0313723	1.06651
0.0454238	1.51441
0.0847227	2.46456
0.137878	3.63863
0.211648	4.87344
0.337793	6.15679
0.518522	7.19504
0.94847	9.08974
1.57391	9.82632
3.17348	11.4834
5.06492	11.2619
7.92774	11.4834
11.9346	12.1745
19.0477	12.4139
32.23	12.6581
37.6651	12.9071
