Adsorption isotherm of Carbon Dioxide on C16H10CuN4O4
DOI: 10.1002/anie.201102329
Adsorbate Carbon Dioxide: InChIKey CURLTUGMZLYLDI-UHFFFAOYSA-N
Temperature: 298 K
Tabular data in the source: 0
pressure (bar)	uptake (mmol/g)
0.236686	1.34043
0.315582	1.89894
0.394477	3.3883
0.552268	4.28191
1.26233	6.62766
1.42012	7.07447
2.05128	7.81915
3.4714	9.04787
5.04931	9.64362
10.0197	10.5745
14.9901	10.9468
20.0394	11.0957
25.0099	11.1702
29.9803	11.1702
35.0296	11.0957
39.7633	11.0213
