Adsorption isotherm of Carbon Dioxide on C16H10CuN4O4
DOI: 10.1002/anie.201102329
Adsorbate Carbon Dioxide: InChIKey CURLTUGMZLYLDI-UHFFFAOYSA-N
Temperature: 323 K
Tabular data in the source: 0
pressure (bar)	uptake (mmol/g)
0.000102	0.000525
0.000163	0.000871
0.00025	0.00126139
0.000424	0.00217634
0.00076	0.00398092
0.00116635	0.00611083
0.00197353	0.0103399
0.00308903	0.0161843
0.00447259	0.0234332
0.00686557	0.0332743
0.0107462	0.0541509
0.0216675	0.102987
0.0319894	0.164368
0.0491047	0.233397
0.0814854	0.387304
0.143356	0.630303
0.211648	0.986566
0.283473	1.24636
0.470401	1.98921
0.72208	2.71669
1.06606	3.56843
1.42784	4.33587
2.10804	5.47766
2.99334	6.5273
4.59487	7.33657
7.05326	8.08709
12.1693	9.08974
17.9665	9.45086
28.1216	9.63676
45.7654	9.82632
