Adsorption isotherm of Hydrogen on C16H10CuN4O4
DOI: 10.1002/anie.201102329
Adsorbate Hydrogen: InChIKey UFHFLCQGNIYNRP-UHFFFAOYSA-N
Temperature: 77 K
Tabular data in the source: 0
pressure (bar)	uptake (mmol/g)
0.260223	10.1333
0.520446	8.2963
2.08178	17.1852
5.20446	19.0222
10.4089	19.8519
20.2974	20.4444
29.6654	20.563
40.3346	20.2667
47.6208	20.1481
60.8922	19.4963
78.8476	18.7259
98.8848	17.6593
121.264	16.5926
