Adsorption isotherm of Carbon Dioxide on C16H10CuN4O4
DOI: 10.1002/anie.201102329
Adsorbate Carbon Dioxide: InChIKey CURLTUGMZLYLDI-UHFFFAOYSA-N
Temperature: 298 K
Tabular data in the source: 0
pressure (bar)	uptake (mmol/g)
0.000102	0.00128621
0.000166	0.0020528
0.000281	0.00347347
0.000415	0.00493221
0.000663	0.00818462
0.000979	0.0120836
0.00162422	0.0204462
0.00297099	0.0332743
0.00493013	0.0596905
0.00834209	0.0952669
0.0130573	0.155038
0.0181832	0.220149
0.0295915	0.337935
0.0551928	0.655344
0.0990099	1.08749
0.154973	1.70217
0.267382	2.51304
0.426745	3.56843
0.549727	4.25223
0.843848	5.37199
1.48457	7.19504
3.17348	8.57377
5.69287	9.63676
12.1693	10.8315
20.9963	11.2619
36.9385	11.2619
