Adsorption isotherm of Nitrogen on C16H10CuN4O4
DOI: 10.1002/anie.201102329
Adsorbate Nitrogen: InChIKey IJGRMHOSHXDMSA-UHFFFAOYSA-N
Temperature: 77 K
Tabular data in the source: 0
pressure (bar)	uptake (cm3(STP)/g)
0	0
0.00395526	337.24
0.0197763	347.656
0.0415302	354.167
0.104814	358.073
0.122613	361.979
0.298622	368.49
0.348063	372.396
0.389593	369.792
0.448922	371.094
0.496385	372.396
0.543848	372.396
0.644707	373.698
0.743589	373.698
0.796985	377.604
0.852358	373.698
0.941352	378.906
0.994748	414.062
