Adsorption isotherm of Carbon Dioxide on C16H10CuN4O4
DOI: 10.1002/anie.201102329
Adsorbate Carbon Dioxide: InChIKey CURLTUGMZLYLDI-UHFFFAOYSA-N
Temperature: 323 K
Tabular data in the source: 0
pressure (bar)	uptake (mmol/g)
0.00565038	0.0373997
0.0200433	0.109184
0.0326186	0.17426
0.0573855	0.289171
0.0880885	0.452618
0.135219	0.642701
0.199634	0.895008
0.262224	1.15294
0.372349	1.60555
0.489089	2.06824
0.750767	2.82462
1.00555	3.56843
1.4003	4.50813
1.9124	5.16672
3.36446	6.6557
5.06492	7.93108
8.91063	8.74242
14.2215	9.26854
19.8045	9.26854
27.5792	9.63676
39.1614	9.45086
