Adsorption isotherm of Carbon Dioxide on C16H10CuN4O4
DOI: 10.1002/anie.201102329
Adsorbate Carbon Dioxide: InChIKey CURLTUGMZLYLDI-UHFFFAOYSA-N
Temperature: 298 K
Tabular data in the source: 0
pressure (bar)	uptake (mmol/g)
0.0788955	0.37234
0.710059	1.78723
1.7357	2.08511
3.15582	2.42021
7.81065	2.75532
11.6765	2.90426
16.0947	3.01596
23.5108	3.09043
31.0848	3.09043
36.4497	3.05319
