Adsorption isotherm of Nitrogen on C16H10CuN4O4
DOI: 10.1002/anie.201102329
Adsorbate Nitrogen: InChIKey IJGRMHOSHXDMSA-UHFFFAOYSA-N
Temperature: 77 K
Tabular data in the source: 0
pressure (bar)	uptake (cm3(STP)/g)
0.00197763	0.00197763
0.00593289	333.333
0.0197763	345.052
0.0395526	351.562
0.0711947	356.771
0.0929486	360.677
0.124591	360.677
0.160188	361.979
0.203696	363.281
0.243248	364.583
0.280823	365.885
0.312465	367.188
0.363884	367.188
0.377727	367.188
0.444967	368.49
0.559669	369.792
0.640752	369.792
0.711947	372.396
0.763365	369.792
0.804895	369.792
0.818739	371.094
0.840493	369.792
0.872135	372.396
0.927508	372.396
0.95915	373.698
0.988815	377.604
