Adsorption isotherm of Hydrogen on C16H10CuN4O4
DOI: 10.1002/anie.201102329
Adsorbate Hydrogen: InChIKey UFHFLCQGNIYNRP-UHFFFAOYSA-N
Temperature: 77 K
Tabular data in the source: 0
pressure (bar)	uptake (mmol/g)
0.00603622	0.808511
0.00804829	1.06383
0.0120724	1.3617
0.0241449	2.42553
0.0301811	3.23404
0.0422535	4.04255
0.0462777	4.29787
0.0503018	4.6383
0.0523139	4.97872
0.0643863	5.40426
0.0724346	5.82979
0.0764588	6.08511
0.102616	7.2766
0.152918	8.85106
0.203219	10
0.253521	10.8511
0.305835	11.5319
0.358149	12.0426
0.406439	12.4255
0.458753	12.8936
0.507042	13.234
0.559356	13.4894
0.61167	13.7872
0.65996	14
0.710262	14.2553
0.760563	14.383
0.810865	14.5957
0.861167	14.766
0.909457	14.9362
0.961771	15.0213
