Adsorption isotherm of Hydrogen on C16H10CuN4O4
DOI: 10.1002/anie.201102329
Adsorbate Hydrogen: InChIKey UFHFLCQGNIYNRP-UHFFFAOYSA-N
Temperature: 87 K
Tabular data in the source: 0
pressure (bar)	uptake (mmol/g)
0.0100604	0.468085
0.0201207	0.893617
0.0301811	1.23404
0.0402414	1.57447
0.0523139	2.04255
0.0623742	2.25532
0.0704225	2.51064
0.0784708	2.7234
0.100604	3.48936
0.152918	4.59574
0.203219	5.48936
0.253521	6.25532
0.303823	6.97872
0.354125	7.57447
0.406439	8.08511
0.454728	8.59574
0.507042	8.97872
0.559356	9.40426
0.609658	9.74468
0.65996	10.0851
0.708249	10.3404
0.760563	10.5532
0.812877	10.8511
0.865191	11.0638
0.911469	11.2766
0.961771	11.4894
