Adsorption isotherm of Nitric oxide on Fe2(dobdc)
DOI: 10.1021/ja5132243
Article source: Figure 1
Adsorbate Nitric oxide: InChIKey MWUXSHHQAYIFBG-UHFFFAOYSA-N
Kind: experiment
Temperature: 298 K
Tabular data in the source: 0
pressure (bar)	uptake (mmol/g)
0	0
0	0.424876
0.001211	0.670949
0.001614	0.894599
0.001978	1.09588
0.003027	1.67737
0.003521	0.201344
0.004762	2.63907
0.007628	4.22698
0.009968	5.52415
0.011381	6.30692
0.014377	6.21752
0.024013	6.30716
0.03045	6.37437
0.049317	6.32999
0.087213	6.3307
0.153491	6.30957
0.163086	6.37684
0.178795	6.33241
0.210416	6.35536
0.260944	6.3563
0.311512	6.37961
0.311552	6.40197
0.40945	6.4038
0.463217	6.44953
0.510547	6.42805
0.611643	6.45229
0.71274	6.47654
0.747478	6.47719
0.813796	6.47843
0.895944	6.50232
0.911734	6.50261
1.01279	6.5045
1.04757	6.52751
1.11389	6.52875
1.21182	6.55294
