Adsorption isotherm of Nitrogen on MOFMC
DOI: 10.1021/Cm803502y
Adsorbate Nitrogen: InChIKey IJGRMHOSHXDMSA-UHFFFAOYSA-N
Temperature: 77 K
Tabular data in the source: 0
pressure (bar)	uptake (mmol/g)
0.00892662	29.0365
0.0273985	32.4902
0.0611976	33.712
0.0814866	34.2217
0.0983991	34.528
0.122077	34.9366
0.140691	35.0401
0.1593	35.2451
0.176221	35.3484
0.196523	35.5535
0.242209	35.8629
0.294656	36.376
0.343735	36.4826
0.389416	36.8935
0.436803	37
0.485878	37.2081
0.534962	37.2133
0.580664	37.1165
0.631432	37.3249
0.680515	37.33
0.717751	37.3339
0.748221	37.2355
0.815918	37.3441
0.836229	37.3463
0.865002	37.3493
0.880235	37.3509
0.914081	37.4559
0.924236	37.457
0.949624	37.4596
0.961472	37.4609
