Adsorption isotherm of Nitrogen on MWCNT
DOI: 10.1021/Cm803502y
Adsorbate Nitrogen: InChIKey IJGRMHOSHXDMSA-UHFFFAOYSA-N
Temperature: 77 K
Tabular data in the source: 0
pressure (bar)	uptake (mmol/g)
0.0101037	1.21933
0.0354874	1.32351
0.0676413	1.42839
0.0794848	1.53115
0.0964058	1.63444
0.121794	1.63709
0.145481	1.84261
0.175946	1.8458
0.19456	1.94927
0.243639	2.05592
0.292714	2.26409
0.341793	2.37074
0.389176	2.57874
0.438251	2.78691
0.485638	2.89339
0.53302	3.10139
0.58548	3.30991
0.631178	3.31469
0.678557	3.62421
0.719165	3.93302
0.747929	4.13907
0.776698	4.2436
0.793619	4.34689
0.813917	4.65358
0.834214	4.96027
0.849434	5.26643
0.866351	5.47124
0.886648	5.77793
0.903531	6.79493
0.920413	7.81192
0.937291	8.93043
0.942322	10.0477
0.94904	11.2667
0.950694	12.1806
0.952348	13.0944
0.955686	14.2115
0.957331	15.3285
0.960682	16.141
0.962306	17.7655
