Adsorption isotherm of Hydrogen on MOFMC
DOI: 10.1021/Cm803502y
Adsorbate Hydrogen: InChIKey UFHFLCQGNIYNRP-UHFFFAOYSA-N
Temperature: 77 K
Tabular data in the source: 0
pressure (bar)	uptake (wt%)
0.024024	0.103276
0.042042	0.188337
0.0600601	0.22473
0.0690691	0.273344
0.0870871	0.309736
0.111111	0.370427
0.138138	0.437182
0.171171	0.509985
0.216216	0.588799
0.27027	0.679725
0.342342	0.807043
0.429429	0.916019
0.537538	1.0492
0.675676	1.20654
0.843844	1.3576
1.06907	1.54483
