Adsorption isotherm of Hydrogen on MOFMC
DOI: 10.1021/Cm803502y
Adsorbate Hydrogen: InChIKey UFHFLCQGNIYNRP-UHFFFAOYSA-N
Temperature: 298 K
Tabular data in the source: 0
pressure (bar)	uptake (wt%)
1.33333	0.0208185
10.9333	0.164225
20.5333	0.217285
30.1333	0.295827
50.4	0.378755
72.5333	0.477856
94.6667	0.604757
