Adsorption isotherm of Hydrogen on MWCNT
DOI: 10.1021/Cm803502y
Adsorbate Hydrogen: InChIKey UFHFLCQGNIYNRP-UHFFFAOYSA-N
Temperature: 77 K
Tabular data in the source: 0
pressure (bar)	uptake (wt%)
0.018018	0.0181413
0.042042	0.0240788
0.0660661	0.0239327
0.0840841	0.0481577
0.105105	0.0419461
0.141141	0.0538942
0.171171	0.0597952
0.216216	0.0716884
0.273273	0.0835086
0.339339	0.095274
0.426426	0.106911
0.537538	0.112319
0.672673	0.123664
0.84985	0.134754
1.09009	0.14546
