Adsorption isotherm of Hydrogen on MWCNT
DOI: 10.1021/Cm803502y
Adsorbate Hydrogen: InChIKey UFHFLCQGNIYNRP-UHFFFAOYSA-N
Temperature: 298 K
Tabular data in the source: 0
pressure (bar)	uptake (wt%)
1.33333	0.0115521
17.0667	0.0413035
30.9333	0.0896309
50.4	0.116979
70.1333	0.151271
98.9333	0.201569
