Adsorption isotherm of Hydrogen on IRMOF-1
DOI: 10.1021/Cm803502y
Adsorbate Hydrogen: InChIKey UFHFLCQGNIYNRP-UHFFFAOYSA-N
Temperature: 298 K
Tabular data in the source: 0
pressure (bar)	uptake (wt%)
1.06667	0.0254579
10.4	0.0623073
20	0.0945174
29.0667	0.117473
49.3333	0.167969
68	0.230085
93.6	0.296673
