Adsorption isotherm of Hydrogen on IRMOF-1
DOI: 10.1021/Cm803502y
Adsorbate Hydrogen: InChIKey UFHFLCQGNIYNRP-UHFFFAOYSA-N
Temperature: 77 K
Tabular data in the source: 0
pressure (bar)	uptake (wt%)
0.024024	0.170196
0.033033	0.224894
0.045045	0.267407
0.0510511	0.309956
0.0690691	0.370682
0.0840841	0.413177
0.105105	0.473885
0.135135	0.528455
0.171171	0.582989
0.216216	0.643552
0.273273	0.716208
0.342342	0.776625
0.429429	0.855182
0.534535	0.927547
0.675676	1.01186
0.846847	1.09599
1.06907	1.19806
