Adsorption isotherm of Nitrogen on IRMOF-1
DOI: 10.1021/Cm803502y
Adsorbate Nitrogen: InChIKey IJGRMHOSHXDMSA-UHFFFAOYSA-N
Temperature: 77 K
Tabular data in the source: 0
pressure (bar)	uptake (mmol/g)
0.0110917	17.8692
0.0279268	20.0029
0.0617475	20.7171
0.0820493	20.9223
0.0972822	20.9239
0.109117	21.2297
0.120956	21.434
0.137886	21.3342
0.154803	21.539
0.176806	21.5413
0.195411	21.8478
0.207263	21.7475
0.244494	21.853
0.293573	21.9596
0.305413	22.1639
0.34264	22.3708
0.386646	22.3754
0.410341	22.3779
0.439106	22.584
0.4848	22.6903
0.506807	22.591
0.535576	22.6956
0.582971	22.599
0.601581	22.804
0.628665	22.7053
0.679437	22.8121
0.696354	23.0169
0.718357	23.0192
0.745442	22.9205
0.775912	22.8222
0.79791	22.926
0.833449	23.0313
0.855452	23.0336
0.887611	23.0369
0.926539	23.041
0.941763	23.2456
0.962065	23.4508
