Adsorption isotherm of Nitrogen on Zeolite H
DOI: 10.1063/1.1997285
Adsorbate Nitrogen: InChIKey IJGRMHOSHXDMSA-UHFFFAOYSA-N
Temperature: 77 K
Tabular data in the source: 0
pressure (bar)	uptake (cm3(STP)/g)
0.00944547	78.7301
0.0108756	2.0744
0.0123058	33.5375
0.0137359	100.468
0.0137359	127.927
0.0223168	154.242
0.0537799	167.399
0.106695	175.98
0.186783	183.417
0.281173	190.853
0.378422	196.574
0.471382	201.722
0.562911	205.727
0.65301	209.731
0.761701	216.024
0.844649	225.749
0.898994	237.19
0.939038	253.78
0.967641	274.946
0.993384	289.247
