Adsorption isotherm of Nitrogen on Carbon
DOI: 10.1016/j.jcis.2007.12.023
Adsorbate Nitrogen: InChIKey IJGRMHOSHXDMSA-UHFFFAOYSA-N
Temperature: 77 K
Tabular data in the source: 0
pressure (bar)	uptake (micromoles/m2)
1.57e-06	0.00416672
7.04e-06	0.0168046
1.42e-05	0.0321454
6.23e-05	0.119548
0.000272	0.506176
0.00113823	2.73335
0.00246288	4.74387
0.00520948	6.24958
0.01053	7.11523
0.0504325	8.3678
