Adsorption isotherm of Nitrogen on Carbon
DOI: 10.1016/j.jcis.2007.12.023
Adsorbate Nitrogen: InChIKey IJGRMHOSHXDMSA-UHFFFAOYSA-N
Temperature: 77 K
Tabular data in the source: 0
pressure (bar)	uptake (micromoles/m2)
0.002572	0.845883
0.00914477	7.30598
0.0279241	8.35762
0.0542152	10.0102
0.109614	11.4374
0.209145	13.9163
0.402572	17.9726
0.457971	18.9492
0.519943	20.3764
0.59506	21.8036
0.680506	24.2074
0.779098	26.6111
0.887079	29.6158
