Adsorption isotherm of Nitrogen on Carbon
DOI: 10.1016/j.jcis.2007.12.023
Adsorbate Nitrogen: InChIKey IJGRMHOSHXDMSA-UHFFFAOYSA-N
Temperature: 77 K
Tabular data in the source: 0
pressure (bar)	uptake (micromoles/m2)
2.88e-05	0.430407
5.95e-05	0.585709
0.00012	0.797048
0.000279	1.0672
0.00055	1.52467
0.00235356	4.0997
0.0053291	5.67019
0.00983674	6.56111
0.0208067	7.97048
0.0450209	8.92854
0.0910014	9.68259
0.196906	10.5003
