Adsorption isotherm of Nitrogen on Carbon
DOI: 10.1016/j.jcis.2007.12.023
Adsorbate Nitrogen: InChIKey IJGRMHOSHXDMSA-UHFFFAOYSA-N
Temperature: 77 K
Tabular data in the source: 0
pressure (bar)	uptake (micromoles/m2)
0.00163303	9.18391
0.002572	0.0195924
0.0129006	10.1604
0.0326189	11.137
0.0570321	11.5126
0.112431	12.7895
0.210084	16.2449
0.402572	21.6534
0.460788	23.4562
0.523699	25.1088
0.598816	28.1135
0.683323	31.5689
0.779098	37.8036
0.890835	51.7003
