Adsorption isotherm of Nitrogen on Carbon
DOI: 10.1016/j.jcis.2007.12.023
Adsorbate Nitrogen: InChIKey IJGRMHOSHXDMSA-UHFFFAOYSA-N
Temperature: 77 K
Tabular data in the source: 0
pressure (bar)	uptake (micromoles/m2)
0.00206155	7.07543
0.00396841	1.98412
0.00492184	9.13483
0.0287576	10.7366
0.107892	12.1095
0.208002	15.9995
0.410129	21.8917
0.456847	23.2074
0.52168	24.752
0.599861	28.1271
0.680903	31.6739
0.778153	37.2228
0.88875	52.4968
