Adsorption isotherm of Nitrogen on Carbon
DOI: 10.1016/j.jcis.2007.12.023
Adsorbate Nitrogen: InChIKey IJGRMHOSHXDMSA-UHFFFAOYSA-N
Temperature: 77 K
Tabular data in the source: 0
pressure (bar)	uptake (micromoles/m2)
0.0157175	10.1555
0.03168	10.7753
0.207267	15.564
0.407267	21.2541
0.459849	23.0006
