Adsorption isotherm of Nitrogen on Carbon
DOI: 10.1016/j.jcis.2007.12.023
Adsorbate Nitrogen: InChIKey IJGRMHOSHXDMSA-UHFFFAOYSA-N
Temperature: 77 K
Tabular data in the source: 0
pressure (bar)	uptake (micromoles/m2)
0.402572	18.6487
0.456093	19.9257
0.525577	21.428
0.593182	22.705
0.682384	25.0337
0.776281	27.3623
0.88614	31.5689
