Adsorption isotherm of Nitrogen on Carbon
DOI: 10.1016/j.jcis.2007.12.023
Adsorbate Nitrogen: InChIKey IJGRMHOSHXDMSA-UHFFFAOYSA-N
Temperature: 77 K
Tabular data in the source: 0
pressure (bar)	uptake (micromoles/m2)
-0.00400077	4.22617
-0.00306181	6.25433
0.00444993	10.4609
0.0129006	11.0618
0.0251072	11.3623
0.0617269	11.9633
0.109614	13.09
0.211962	15.1182
0.401633	20.0008
0.454215	20.5266
0.519943	21.9539
0.598816	23.306
0.681445	25.7849
0.77722	27.2121
0.885201	29.9914
