Adsorption isotherm of Nitrogen on Carbon
DOI: 10.1016/j.jcis.2007.12.023
Adsorbate Nitrogen: InChIKey IJGRMHOSHXDMSA-UHFFFAOYSA-N
Temperature: 77 K
Tabular data in the source: 0
pressure (bar)	uptake (micromoles/m2)
1.65e-06	0.0326709
1.39e-05	0.204143
2.88e-05	0.282345
0.000126	0.506176
0.000526	1.05003
0.00124643	1.73585
0.00235356	2.91652
0.00486651	4.30407
0.00983674	5.57898
0.0450209	7.59203
0.196906	10.0018
0.655835	11.5733
3.00164	17.0793
8.72446	31.6283
