Adsorption isotherm of Nitrogen on Carbon
DOI: 10.1016/j.jcis.2007.12.023
Adsorbate Nitrogen: InChIKey IJGRMHOSHXDMSA-UHFFFAOYSA-N
Temperature: 77 K
Tabular data in the source: 0
pressure (bar)	uptake (micromoles/m2)
0.00587527	0.61118
0.00873556	5.98852
0.0144561	7.53307
0.023037	8.61998
0.0611741	10.4506
0.112659	12.1667
0.208956	14.3978
0.403455	19.0886
0.459707	21.0336
0.52454	23.0358
0.597001	24.9236
0.68281	28.4704
0.776246	34.0193
0.887797	50.6662
