Adsorption isotherm of Nitrogen on Carbon
DOI: 10.1016/j.jcis.2007.12.023
Adsorbate Nitrogen: InChIKey IJGRMHOSHXDMSA-UHFFFAOYSA-N
Temperature: 77 K
Tabular data in the source: 0
pressure (bar)	uptake (micromoles/m2)
1.54e-06	0.00585709
7.21e-06	0.0236219
3.15e-05	0.090745
0.000126	0.360093
0.000243	0.759203
0.00055	1.9445
0.0011911	5.14451
0.00251943	7.34976
0.00475727	8.64363
0.0208067	9.37362
0.0996517	10.672
0.416497	11.204
0.822974	13.6107
1.74076	15.7492
3.43964	22.1384
5.05963	28.6961
7.61348	37.8043
9.1297	50.6176
