Adsorption isotherm of Ammonia on Carbon
DOI: 10.1016/j.jcis.2007.12.023
Adsorbate Ammonia: InChIKey QGZKDVFQNNGYKY-UHFFFAOYSA-N
Temperature: 240 K
Tabular data in the source: 0
pressure (bar)	uptake (micromoles/m2)
0.409176	0.391399
0.469242	0.448604
0.523587	0.563016
0.55791	0.648824
0.58842	0.620222
0.645626	0.763236
0.701878	0.849045
0.761944	1.10647
0.81629	1.16368
0.872542	1.30669
0.933561	1.50691
