Adsorption isotherm of Ammonia on Carbon
DOI: 10.1016/j.jcis.2007.12.023
Adsorbate Ammonia: InChIKey QGZKDVFQNNGYKY-UHFFFAOYSA-N
Temperature: 240 K
Tabular data in the source: 0
pressure (bar)	uptake (micromoles/m2)
0.379979	0.670431
0.428993	0.970761
0.457001	1.3569
0.475673	2.42951
0.495512	11.611
0.524687	12.5978
0.572534	14.1853
0.622715	16.2876
0.667061	17.8321
0.716075	22.2513
0.763921	25.3404
