Adsorption isotherm of Ammonia on Carbon
DOI: 10.1016/j.jcis.2007.12.023
Adsorbate Ammonia: InChIKey QGZKDVFQNNGYKY-UHFFFAOYSA-N
Temperature: 240 K
Tabular data in the source: 0
pressure (bar)	uptake (micromoles/m2)
0.000865	0.0697713
0.521437	0.670431
0.584363	0.799144
0.641569	0.842049
0.701635	1.18528
0.763131	1.3998
0.818906	1.91466
0.873252	2.42951
0.936178	4.44601
