Adsorption isotherm of Nitrogen on Carbon
DOI: 10.1016/j.jcis.2007.12.023
Adsorbate Nitrogen: InChIKey IJGRMHOSHXDMSA-UHFFFAOYSA-N
Temperature: 77 K
Tabular data in the source: 0
pressure (bar)	uptake (micromoles/m2)
1.54e-06	0.0531408
6.43e-06	0.157492
1.42e-05	0.273335
6.37e-05	0.734976
0.000138	1.01653
0.000266	1.33917
0.00214925	3.60093
0.0107718	5.67019
0.0420569	7.59203
0.215623	10.0018
0.880975	12.1502
3.59941	19.1323
8.72446	49.0024
