Adsorption isotherm of Ammonia on Carbon
DOI: 10.1016/j.jcis.2007.12.023
Adsorbate Ammonia: InChIKey QGZKDVFQNNGYKY-UHFFFAOYSA-N
Temperature: 240 K
Tabular data in the source: 0
pressure (bar)	uptake (micromoles/m2)
0.587223	1.09947
0.604385	1.09947
0.641569	2.08627
0.701635	3.24469
0.761701	6.63413
0.816046	7.3635
0.877542	9.20839
0.934748	10.281
