Adsorption isotherm of Ammonia on Carbon
DOI: 10.1016/j.jcis.2007.12.023
Adsorbate Ammonia: InChIKey QGZKDVFQNNGYKY-UHFFFAOYSA-N
Temperature: 240 K
Tabular data in the source: 0
pressure (bar)	uptake (micromoles/m2)
0.465428	0.563016
0.522634	0.648824
0.563631	0.677427
0.58842	0.791839
0.605582	0.763236
0.648486	0.877647
0.701878	0.934853
0.761944	1.10647
0.817243	1.22088
0.877309	1.50691
0.939282	1.85014
