Adsorption isotherm of Nitrogen on Carbon
DOI: 10.1016/j.jcis.2007.12.023
Adsorbate Nitrogen: InChIKey IJGRMHOSHXDMSA-UHFFFAOYSA-N
Temperature: 77 K
Tabular data in the source: 0
pressure (bar)	uptake (micromoles/m2)
1.69e-06	0.0548925
3.48e-06	0.10672
1.49e-05	0.311196
6.52e-05	0.85046
0.000285	1.68046
0.00121845	2.47995
0.00486651	3.37478
0.0227845	5.22861
0.097415	7.46991
0.188166	8.64363
1.48499	14.2891
3.28696	18.8245
5.6678	24.4006
7.96713	34.2995
