Adsorption isotherm of Ammonia on Carbon
DOI: 10.1016/j.jcis.2007.12.023
Adsorbate Ammonia: InChIKey QGZKDVFQNNGYKY-UHFFFAOYSA-N
Temperature: 240 K
Tabular data in the source: 0
pressure (bar)	uptake (micromoles/m2)
0.00303951	0.026867
0.144246	0.112676
0.238773	0.198484
0.330966	0.327197
0.38348	0.45591
0.428993	0.498814
0.478007	0.584623
0.496679	0.584623
0.528188	0.75624
0.572534	0.842049
0.621548	1.09947
0.670562	1.314
0.717241	1.52852
0.766255	1.78594
