Adsorption isotherm of Nitrogen on Carbon
DOI: 10.1016/j.jcis.2007.12.023
Adsorbate Nitrogen: InChIKey IJGRMHOSHXDMSA-UHFFFAOYSA-N
Temperature: 77 K
Tabular data in the source: 0
pressure (bar)	uptake (micromoles/m2)
0.0278041	10.3362
0.105985	12.2811
0.210862	14.6838
0.402502	20.3472
0.458754	21.9489
0.522634	23.9511
0.597001	25.4385
0.678042	30.8158
0.777199	36.708
0.889704	51.8675
