Adsorption isotherm of Nitrogen on Carbon
DOI: 10.1016/j.jcis.2007.12.023
Adsorbate Nitrogen: InChIKey IJGRMHOSHXDMSA-UHFFFAOYSA-N
Temperature: 77 K
Tabular data in the source: 0
pressure (bar)	uptake (micromoles/m2)
0.00351096	1.82241
0.00632787	5.20269
0.0260462	6.93039
0.0560931	8.95856
0.107736	10.6863
0.208206	13.09
0.406328	16.6205
0.459849	17.8975
0.523699	19.0994
0.597877	20.6769
0.68614	22.7802
0.780976	25.1839
0.888018	28.2637
