Adsorption isotherm of Nitrogen on Carbon
DOI: 10.1016/j.jcis.2007.12.023
Adsorbate Nitrogen: InChIKey IJGRMHOSHXDMSA-UHFFFAOYSA-N
Temperature: 77 K
Tabular data in the source: 0
pressure (bar)	uptake (micromoles/m2)
2.88e-05	0.0823321
0.000126	0.337478
0.000254	0.711523
0.000526	1.65343
0.00116437	4.23484
0.00246288	6.14906
0.00983674	9.0745
0.0952284	11.0238
0.371806	11.7625
