Adsorption isotherm of Nitrogen on Carbon
DOI: 10.1016/j.jcis.2007.12.023
Adsorbate Nitrogen: InChIKey IJGRMHOSHXDMSA-UHFFFAOYSA-N
Temperature: 77 K
Tabular data in the source: 0
pressure (bar)	uptake (micromoles/m2)
1.44e-06	0.0342995
1.46e-05	0.228682
2.94e-05	0.384223
5.95e-05	0.635175
0.000123	0.984088
0.000272	1.52467
0.00116437	2.36219
0.00497825	3.16283
0.0217732	4.59249
0.0930909	5.95284
0.389076	8.64363
1.82162	13.1763
4.03206	16.0067
9.55377	29.1652
