Adsorption isotherm of Ammonia on Carbon
DOI: 10.1016/j.jcis.2007.12.023
Adsorbate Ammonia: InChIKey QGZKDVFQNNGYKY-UHFFFAOYSA-N
Temperature: 240 K
Tabular data in the source: 0
pressure (bar)	uptake (micromoles/m2)
0.0077075	0.0697713
0.189759	0.15558
0.337968	0.413006
0.457001	0.799144
0.522353	0.842049
0.571367	0.970761
0.615713	1.44271
0.668228	2.3437
0.714908	3.3305
0.762754	5.3899
