Adsorption isotherm of Nitrogen on Carbon
DOI: 10.1016/j.jcis.2007.12.023
Adsorbate Nitrogen: InChIKey IJGRMHOSHXDMSA-UHFFFAOYSA-N
Temperature: 77 K
Tabular data in the source: 0
pressure (bar)	uptake (micromoles/m2)
1.72e-06	0.0451862
3.41e-06	0.0823321
7.21e-06	0.142891
1.39e-05	0.228682
6.37e-05	0.540096
0.000254	0.984088
0.00116437	3.16283
0.00246288	5.06176
0.0100626	7.59203
0.0889588	9.37362
0.822974	11.7625
3.21318	18.8245
7.61348	36.5979
