Adsorption isotherm of Ammonia on Carbon
DOI: 10.1016/j.jcis.2007.12.023
Adsorbate Ammonia: InChIKey QGZKDVFQNNGYKY-UHFFFAOYSA-N
Temperature: 240 K
Tabular data in the source: 0
pressure (bar)	uptake (micromoles/m2)
0.00537351	0.0697713
0.143079	0.198484
0.23994	0.284293
0.336801	0.584623
0.38348	0.713336
0.428993	1.01367
0.457001	1.57142
0.478007	1.52852
0.50018	11.0962
0.524687	12.7694
0.571367	14.1853
0.620381	15.8586
0.669395	18.7331
0.713741	21.8652
0.763921	25.5978
