Adsorption isotherm of Ammonia on Carbon
DOI: 10.1016/j.jcis.2007.12.023
Adsorbate Ammonia: InChIKey QGZKDVFQNNGYKY-UHFFFAOYSA-N
Temperature: 240 K
Tabular data in the source: 0
pressure (bar)	uptake (micromoles/m2)
0.00420651	0.026867
0.190926	0.198484
0.334467	0.498814
0.431327	0.799144
0.493178	1.01367
0.525854	1.91466
0.574868	3.97406
0.620381	9.89485
0.668228	15.5153
0.712574	19.5054
0.765088	24.0104
