Adsorption isotherm of Ammonia on Carbon
DOI: 10.1016/j.jcis.2007.12.023
Adsorbate Ammonia: InChIKey QGZKDVFQNNGYKY-UHFFFAOYSA-N
Temperature: 240 K
Tabular data in the source: 0
pressure (bar)	uptake (micromoles/m2)
0.015166	0.0697713
0.118136	0.112676
0.235408	0.284293
0.35268	0.45591
0.459941	0.75624
0.564341	1.314
0.585793	2.47241
0.610106	11.611
0.640139	12.4262
0.701635	14.314
0.75598	16.2018
0.818906	17.918
0.874682	22.1655
0.933318	25.3833
