Adsorption isotherm of Nitrogen on Carbon
DOI: 10.1016/j.jcis.2007.12.023
Adsorbate Nitrogen: InChIKey IJGRMHOSHXDMSA-UHFFFAOYSA-N
Temperature: 77 K
Tabular data in the source: 0
pressure (bar)	uptake (micromoles/m2)
0.000144	0.864363
0.000266	1.1204
0.00121845	2.0086
0.00520948	3.3205
0.0100626	4.30407
0.0217732	5.31408
0.0401901	6.24958
0.0869621	7.59203
0.192487	8.3678
