Adsorption isotherm of Ammonia on Carbon
DOI: 10.1016/j.jcis.2007.12.023
Adsorbate Ammonia: InChIKey QGZKDVFQNNGYKY-UHFFFAOYSA-N
Temperature: 240 K
Tabular data in the source: 0
pressure (bar)	uptake (micromoles/m2)
0.561481	1.01367
0.584363	1.314
0.604385	1.44271
0.641569	2.72984
0.703065	5.69023
0.760271	8.90806
0.818906	10.71
0.873252	12.3404
0.934748	14.1853
