Adsorption isotherm of Nitrogen on Carbon
DOI: 10.1016/j.jcis.2007.12.023
Adsorbate Nitrogen: InChIKey IJGRMHOSHXDMSA-UHFFFAOYSA-N
Temperature: 77 K
Tabular data in the source: 0
pressure (bar)	uptake (micromoles/m2)
0.00396841	0.267946
0.00968898	8.61998
0.0258973	10.1073
0.0516398	10.9654
0.105032	12.0523
0.202282	14.5122
0.398688	20.1755
0.458754	21.8345
0.52168	23.3791
0.593187	25.7817
0.68281	29.5573
0.780059	35.049
0.889704	51.2954
