Adsorption isotherm of Nitrogen on Carbon
DOI: 10.1016/j.jcis.2007.12.023
Adsorbate Nitrogen: InChIKey IJGRMHOSHXDMSA-UHFFFAOYSA-N
Temperature: 77 K
Tabular data in the source: 0
pressure (bar)	uptake (micromoles/m2)
1.65e-06	0.00656111
3.65e-06	0.0133917
7.04e-06	0.0244006
1.46e-05	0.0459249
6.37e-05	0.179307
0.000279	0.823321
0.000563	2.04143
0.00113823	5.31408
0.00230073	6.88818
0.0102936	8.78493
0.0460547	9.37362
0.36346	11.5733
0.786444	11.7625
1.70169	16.2684
3.7666	22.5003
6.06725	31.1196
8.92478	52.2861
