Adsorption isotherm of Nitrogen on MICN
DOI: 10.1039/c5ra06043e
Article source: Figure 4b
Adsorbate Nitrogen: InChIKey IJGRMHOSHXDMSA-UHFFFAOYSA-N
Kind: experiment
Temperature: 77 K
Tabular data in the source: 0
pressure (bar)	uptake (cm3(STP)/g)
0	0
0	8.94737
0.009074	15.7848
0.027222	18.9332
0.042345	19.4517
0.08469	20.4823
0.108887	21.5224
0.133083	22.0361
0.154256	23.0778
0.175428	23.5931
0.199625	25.1595
0.248019	25.6606
0.302462	26.1587
0.350857	27.7125
0.4053	28.7368
0.453694	30.2907
0.505112	31.3166
0.556532	32.3425
0.604925	34.4226
0.653319	35.4501
0.707762	37.5271
0.756157	40.6599
0.804551	43.7926
0.828747	45.8853
0.858994	49.5538
0.883191	53.7518
0.910412	59.0008
0.931585	68.9898
0.955783	83.1877
0.986028	108.962
0.992077	131.064
1.00418	158.952
