Adsorption isotherm of Nitrogen on Pd/MIL-101(Al)-NH2 (Pd 0.9 wt%)
DOI: 10.1021/cs5012926
Article source: Figure 3- Pd MIL 101 Al NH2 0.9 wt
Adsorbate Nitrogen: InChIKey IJGRMHOSHXDMSA-UHFFFAOYSA-N
Kind: experiment
Temperature: 77 K
Tabular data in the source: 0
pressure (bar)	uptake (cm3(STP)/g)
0.001712	123.24
0.003354	156.73
0.007042	179.14
0.009991	185
0.051078	253.59
0.052314	242.2
0.099471	293.65
0.103737	284.41
0.14991	314.96
0.151055	304.24
0.202802	333.36
0.204362	332.38
0.254721	340.15
0.255795	340.81
0.301148	358.24
0.304674	346.59
0.354871	353.83
0.355691	354.31
0.402605	369.11
0.406952	358.12
0.455669	379.03
0.457057	379.18
0.506605	367.65
0.509472	386.14
0.556386	388.29
0.558027	386.58
0.605184	394.99
0.609287	376.24
0.658744	381.33
0.660467	382.75
0.707623	401.7
0.710167	386.83
0.760282	393.27
0.763646	408
0.808503	414.57
0.810559	399.04
0.859682	423.15
0.860918	423.01
0.910861	441.51
0.912999	420.48
0.962861	458.94
0.964908	459.31
1.00055	888.95
1.00252	909.21
