Adsorption isotherm of Nitrogen on recovered Pd/MIL-101(Al)-NH2 (Pd 4.4 wt%)
DOI: 10.1021/cs5012926
Article source: Figure 3- Pd MIL 101 Al NH2 4.4 wt
Adsorbate Nitrogen: InChIKey IJGRMHOSHXDMSA-UHFFFAOYSA-N
Kind: experiment
Temperature: 77 K
Tabular data in the source: 0
pressure (bar)	uptake (cm3(STP)/g)
8.1e-05	25.42
0.000162	25.28
0.000324	25.45
0.004337	87.52
0.009018	90.56
0.051666	131.55
0.103574	155
0.150083	163.45
0.203805	178.86
0.255552	183.42
0.303205	188.12
0.355539	189.46
0.405482	194.43
0.456003	199.12
0.507598	197.79
0.509807	203.28
0.557217	205.16
0.55746	205.1
0.606835	204.3
0.608477	203.83
0.659079	207.97
0.659818	208.12
0.708373	209.74
0.710096	207.19
0.761853	209.34
0.76316	209.58
0.809587	218.46
0.81139	218.04
0.857888	222.48
0.860766	218.6
0.911611	225.83
0.912513	225.97
0.962223	243.66
0.965333	276.62
1.00092	471.8
1.00435	490.29
