Adsorption isotherm of Nitrogen on Pd/MIL-101(Al)-NH2 (Pd 3.0 wt%)
DOI: 10.1021/cs5012926
Article source: Figure 3- Pd MIL 101 Al NH2 3.0 wt
Adsorbate Nitrogen: InChIKey IJGRMHOSHXDMSA-UHFFFAOYSA-N
Kind: experiment
Temperature: 77 K
Tabular data in the source: 0
pressure (bar)	uptake (cm3(STP)/g)
0.009666	129.94
0.050835	179.91
0.100129	211.94
0.105216	198.54
0.150893	220.78
0.150984	226.54
0.202488	245.84
0.203967	246.24
0.255055	251.3
0.255957	251.74
0.301148	251.49
0.30361	250.94
0.354384	257.11
0.35635	263.41
0.403182	266.76
0.406465	260.87
0.456165	271.06
0.457401	271.04
0.506686	265.44
0.510212	275.89
0.556558	268.09
0.556963	268.12
0.605356	281.66
0.609125	271.21
0.658015	276.31
0.661206	286.36
0.707056	288.1
0.710096	279.67
0.759958	284.23
0.76398	293.74
0.808918	287.57
0.810478	287.85
0.859368	302.46
0.861414	294.82
0.911195	317.74
0.913252	305.81
0.962952	330.87
0.964837	330.96
1.00066	640.59
1.00377	665.05
1.00672	695.24
