Adsorption isotherm of Nitrogen on recovered Pd/MIL-101(Al)-NH2 (Pd 2.8 wt%)
DOI: 10.1021/cs5012926
Article source: Figure 3- recovered Pd MIL 101 Al NH2 2.8 wt
Adsorbate Nitrogen: InChIKey IJGRMHOSHXDMSA-UHFFFAOYSA-N
Kind: experiment
Temperature: 77 K
Tabular data in the source: 0
pressure (bar)	uptake (cm3(STP)/g)
0.001793	104.95
0.007042	113.6
0.050186	161.56
0.102511	184.21
0.150002	194.66
0.203309	214.49
0.255065	219.59
0.304269	220.54
0.355043	227.51
0.403679	233.01
0.405645	232.51
0.457067	235.02
0.507425	235.43
0.508743	243.34
0.556234	246.96
0.558118	239.06
0.606673	247.1
0.60872	239.33
0.658835	242.15
0.660396	251.93
0.708779	252.87
0.711403	247.11
0.760373	248.59
0.762754	256.23
0.808847	252.66
0.810732	252.75
0.860351	261.41
0.86109	261.6
0.911368	275.41
0.913496	268.98
0.962466	290.68
0.965414	329.93
1.00018	495.11
1.00608	552.04
