Adsorption isotherm of Nitrogen on MIL-101(Al)-NH2
DOI: 10.1021/cs5012926
Article source: Figure 3- MIL 101 Al NH2
Adsorbate Nitrogen: InChIKey IJGRMHOSHXDMSA-UHFFFAOYSA-N
Kind: experiment
Temperature: 77 K
Tabular data in the source: 0
pressure (bar)	uptake (cm3(STP)/g)
0.00228	176.29
0.002442	169.8
0.002938	149.5
0.00687	254.28
0.007853	257.1
0.00917	260.68
0.050987	356.87
0.05198	358.68
0.100038	414.48
0.103726	399.34
0.150306	427.29
0.151207	427.88
0.202802	469.72
0.20419	468.48
0.254224	479.6
0.25545	480.74
0.3013	491.59
0.303519	490.46
0.355428	498.24
0.355762	498.45
0.403243	522.76
0.406779	508.56
0.456064	532.81
0.457138	514.33
0.507	520.9
0.509462	543.94
0.555798	524.55
0.557683	524.52
0.603856	553.86
0.609358	532.57
0.658319	539
0.660457	561.37
0.707694	567.81
0.710075	547.58
0.760019	553.08
0.762977	576.39
0.80907	584.17
0.811532	562.73
0.859094	596.36
0.861891	575.33
0.911013	594.01
0.913556	593.42
0.96276	648.49
0.965546	648.69
1.00094	1253.45
1.00323	1287.1
