Adsorption isotherm of Nitrogen on IBU/Zn2(bdc)2(dabco)
DOI: 10.1016/j.micromeso.2013.11.036
Adsorbate Nitrogen: InChIKey IJGRMHOSHXDMSA-UHFFFAOYSA-N
Temperature: 77 K
Tabular data in the source: 0
pressure (bar)	uptake (cm3(STP)/g)
0.0651988	2.93207
0.0925361	2.97198
0.113565	3.00269
0.134598	4.45184
0.149319	4.47333
0.193468	1.70091
0.218703	1.73775
0.24605	4.61456
0.288103	3.25752
0.319646	3.30357
0.346988	4.76193
0.395354	4.83254
0.450028	4.91237
0.500498	4.98606
0.563593	7.91506
0.647708	8.03787
0.738141	11.0068
0.805453	16.7788
0.883269	19.7293
0.89168	19.7416
0.900092	19.7539
0.93586	25.4799
0.950595	29.7567
0.969547	36.8766
