Adsorption isotherm of Nitrogen on Zn2(bdc)2(dabco)
DOI: 10.1016/j.micromeso.2013.11.036
Adsorbate Nitrogen: InChIKey IJGRMHOSHXDMSA-UHFFFAOYSA-N
Temperature: 77 K
Tabular data in the source: 0
pressure (bar)	uptake (cm3(STP)/g)
0.287491	428.789
0.331647	427.435
0.390536	430.357
0.443134	437.526
0.531509	453.258
0.628251	456.236
0.731296	457.805
0.809107	459.337
0.891154	469.386
0.950153	503.515
