Adsorption isotherm of Nitrogen on Zn2(bdc)2(dabco)
DOI: 10.1016/j.micromeso.2013.11.036
Adsorbate Nitrogen: InChIKey IJGRMHOSHXDMSA-UHFFFAOYSA-N
Temperature: 77 K
Tabular data in the source: 0
pressure (bar)	uptake (cm3(STP)/g)
0.00323633	323.409
0.00334073	353.196
0.00764589	381.571
0.0161568	409.953
0.0855962	422.82
0.133967	424.309
0.16551	424.355
0.2202	428.69
0.358989	428.893
0.447319	431.859
0.493597	436.182
0.558821	446.206
0.638755	453.415
0.739708	457.818
0.811209	459.34
0.897467	470.814
0.964973	531.905
