Adsorption isotherm of Nitrogen on IBU/Zn2(bdc)2(dabco)
DOI: 10.1016/j.micromeso.2013.11.036
Adsorbate Nitrogen: InChIKey IJGRMHOSHXDMSA-UHFFFAOYSA-N
Temperature: 77 K
Tabular data in the source: 0
pressure (bar)	uptake (cm3(STP)/g)
0.153524	0.158025
0.174548	3.09172
0.193479	4.5378
0.214508	4.5685
0.256565	4.62991
0.277598	6.07906
0.29652	4.68824
0.317553	6.13739
0.338582	6.1681
0.35961	6.1988
0.380639	6.2295
0.399565	6.25713
0.420593	6.28783
0.441622	6.31854
0.462655	7.76769
0.483685	7.79839
0.504713	7.82909
0.525742	7.85979
0.567804	9.33964
0.588832	9.37035
0.609862	9.40105
0.641409	10.8655
0.65613	10.887
0.677163	12.3362
0.698192	12.3669
0.71922	12.3976
0.744455	12.4344
0.765484	12.4651
0.786517	13.9143
0.807551	15.3634
0.828579	15.3941
0.84751	16.8402
0.88748	21.1539
0.906406	21.1815
0.925342	24.0461
0.946385	28.3321
