Adsorption isotherm of Hydrogen on CTC-COF
DOI: 10.1039/c2jm15159f
Article source: Figure 4
Adsorbate Hydrogen: InChIKey UFHFLCQGNIYNRP-UHFFFAOYSA-N
Kind: experiment
Temperature: 77 K
Tabular data in the source: 0
pressure (bar)	uptake (cm3(STP)/g)
0.091946	20.4357
0.152608	27.9649
0.210473	34.573
0.273455	41.6682
0.326428	47.5039
0.384321	53.4325
0.441049	59.5037
0.499316	65.3591
0.556743	71.2181
0.613797	76.8502
0.668229	82.1612
0.72399	87.4996
0.778061	92.7329
0.833204	97.9624
0.901896	104.242
0.957219	109.293
1.01769	114.949
1.0743	120.404
1.12448	125.253
0.033451	11.3131
0.025732	9.69697
0.018655	7.67677
0.012223	5.65657
0.007076	3.53535
0.002573	1.0101
1.07945	122.222
1.00482	116.566
0.961722	113.838
0.901896	109.091
0.84014	104.444
0.786103	100.404
0.726921	95.5556
0.667738	91.1111
0.034738	31.1111
0.091348	39.798
0.15053	46.2626
0.208427	51.9192
0.26375	57.5758
0.32036	62.2222
0.379543	66.8687
0.441299	72.1212
0.495335	77.1717
0.553232	81.8182
0.613701	86.4646
