Adsorption isotherm of Nitrogen on CTC-COF
DOI: 10.1039/c2jm15159f
Article source: Figure 3
Adsorbate Nitrogen: InChIKey IJGRMHOSHXDMSA-UHFFFAOYSA-N
Kind: experiment
Temperature: 77 K
Tabular data in the source: 0
pressure (bar)	uptake (cm3(STP)/g)
0.002789	103.123
0.002312	82.5136
0.001043	41.4218
0.000498	19.3488
0.000498	1.35122
0.004312	238.969
0.004192	211.542
0.003583	193.656
0.003103	166.169
0.003103	142.141
0.003103	123.505
0.007869	258.63
0.002498	62.5263
0.015178	281.207
0.022169	300.417
0.041235	339.55
0.030167	319.181
0.050768	356.516
0.060301	382.747
0.067927	424.103
0.087538	497.105
0.10733	510.006
0.098804	516.45
0.157537	532.184
0.207109	541.757
0.260494	549.894
0.310065	557.074
0.359637	563.536
0.413022	568.083
0.462594	574.944
0.514072	578.422
0.563643	583.4
0.617028	586.464
0.6666	591.825
0.716172	596.037
0.765743	601.015
0.819128	605.993
0.8687	611.737
0.918271	620.544
0.96403	636.627
0.193461	545.186
0.220061	550.043
0.170487	537.901
0.145095	531.83
0.118495	524.545
0.077384	483.261
0.243035	553.686
0.268427	557.329
0.297446	560.971
0.320419	563.4
0.345811	568.257
0.373621	569.471
0.396594	571.899
0.418359	573.114
0.444959	575.542
0.472769	579.185
0.49937	584.042
0.522344	587.684
0.547735	590.113
0.574336	592.541
0.59731	593.755
0.623911	597.398
0.648093	598.612
0.675903	598.612
0.701295	602.255
0.725477	602.255
0.74966	604.683
0.778679	610.755
0.800443	614.397
0.828253	614.397
0.853645	618.04
0.879037	622.897
0.911683	631.396
0.935866	638.682
0.966094	650.824
0.993904	700.607
1.006	723.677
0.054411	371.552
