Adsorption isotherm of Nitrogen on Silicalite MOLSIV
DOI: 10.1021/je700183y
Article source: Figure 1
Adsorbate Nitrogen: InChIKey IJGRMHOSHXDMSA-UHFFFAOYSA-N
Kind: experiment
Temperature: 313 K
Tabular data in the source: 0
pressure (bar)	uptake (mmol/g)
0.0985	0.0292
0.277	0.06
0.5	0.102
0.777	0.162
1.12	0.229
1.41	0.281
1.86	0.36
2.43	0.443
3.07	0.522
3.86	0.612
4.73	0.724
