Adsorption isotherm of Nitrogen on Silicalite MOLSIV
DOI: 10.1021/je700183y
Article source: Figure 1
Adsorbate Nitrogen: InChIKey IJGRMHOSHXDMSA-UHFFFAOYSA-N
Kind: experiment
Temperature: 373 K
Tabular data in the source: 0
pressure (bar)	uptake (mmol/g)
0.117	0.013
0.307	0.039
0.526	0.0714
0.803	0.104
1.12	0.143
1.49	0.196
1.97	0.248
2.51	0.313
3.19	0.398
3.98	0.489
4.91	0.601
