Adsorption isotherm of Carbon Dioxide, Nitrogen on Silicalite MOLSIV
DOI: 10.1021/je700183y
Article source: Figure 4b
Adsorbate Carbon Dioxide: InChIKey CURLTUGMZLYLDI-UHFFFAOYSA-N
Adsorbate Nitrogen: InChIKey IJGRMHOSHXDMSA-UHFFFAOYSA-N
Kind: experiment
Temperature: 343 K
Tabular data in the source: 0
pressure (bar)	Carbon Dioxide fraction	Carbon Dioxide uptake (mmol/g)	Nitrogen fraction	Nitrogen uptake (mmol/g)	total uptake (mmol/g)
1	0.036	0.1153	0.964	0.0743	
1	0.089	0.182	0.911	0.0385	
1	0.156	0.2423	0.844	0.0194	
1	0.235	0.3051	0.765	0.0131	
1	0.326	0.3795	0.674	0.0055	
1	0.446	0.4744	0.554	0.0044	
1	0.592	0.6129	0.408	0.0008	
1	0.735	0.7681	0.265	0.0048	
1	0.856	0.9078	0.145	0.0049	
1	0.947	1.0258	0.053	0	
