Adsorption isotherm of Carbon Dioxide, Nitrogen on Silicalite MOLSIV
DOI: 10.1021/je700183y
Article source: Figure 4a
Adsorbate Carbon Dioxide: InChIKey CURLTUGMZLYLDI-UHFFFAOYSA-N
Adsorbate Nitrogen: InChIKey IJGRMHOSHXDMSA-UHFFFAOYSA-N
Kind: experiment
Temperature: 313 K
Tabular data in the source: 0
pressure (bar)	Carbon Dioxide fraction	Carbon Dioxide uptake (mmol/g)	Nitrogen fraction	Nitrogen uptake (mmol/g)	total uptake (mmol/g)
1	0.037	0.1865	0.963	0.0665	
1	0.091	0.2984	0.909	0.0374	
1	0.157	0.4023	0.843	0.0197	
1	0.235	0.5159	0.765	0.0134	
1	0.326	0.6441	0.674	0.0135	
1	0.446	0.7967	0.554	0.0153	
1	0.59	0.9752	0.41	0.0188	
1	0.738	1.1457	0.262	0.0109	
1	0.854	1.2869	0.146	0.0062	
1	0.947	1.3973	0.053	0.0064	
