Adsorption isotherm of Carbon Dioxide on Silicalite MOLSIV
DOI: 10.1021/je700183y
Article source: Figure 1
Adsorbate Carbon Dioxide: InChIKey CURLTUGMZLYLDI-UHFFFAOYSA-N
Kind: experiment
Temperature: 313 K
Tabular data in the source: 0
pressure (bar)	uptake (mmol/g)
0.0182	0.107
0.0584	0.275
0.15	0.478
0.296	0.704
0.485	0.968
0.748	1.24
1.12	1.51
1.61	1.79
2.34	2.03
3.3	2.24
4.57	2.41
