Adsorption isotherm of Carbon Dioxide on Silicalite MOLSIV
DOI: 10.1021/je700183y
Article source: Figure 1
Adsorbate Carbon Dioxide: InChIKey CURLTUGMZLYLDI-UHFFFAOYSA-N
Kind: experiment
Temperature: 343 K
Tabular data in the source: 0
pressure (bar)	uptake (mmol/g)
0.0182	0.0955
0.0985	0.238
0.19	0.381
0.328	0.555
0.536	0.75
0.814	0.965
1.19	1.2
1.69	1.46
2.4	1.7
3.37	1.94
4.64	2.19
