Adsorption isotherm of Carbon Dioxide, Nitrogen on Silicalite MOLSIV
DOI: 10.1021/je700183y
Article source: Figure 4c
Adsorbate Carbon Dioxide: InChIKey CURLTUGMZLYLDI-UHFFFAOYSA-N
Adsorbate Nitrogen: InChIKey IJGRMHOSHXDMSA-UHFFFAOYSA-N
Kind: experiment
Temperature: 373 K
Tabular data in the source: 0
pressure (bar)	Carbon Dioxide fraction	Carbon Dioxide uptake (mmol/g)	Nitrogen fraction	Nitrogen uptake (mmol/g)	total uptake (mmol/g)
1	0.036	0.0544	0.964	0.0765	
1	0.088	0.0953	0.912	0.0426	
1	0.154	0.1311	0.846	0.0222	
1	0.236	0.1685	0.764	0.0113	
1	0.327	0.2111	0.673	0.0079	
1	0.447	0.2767	0.553	0.0046	
1	0.593	0.3644	0.407	0.0039	
1	0.737	0.475	0.263	0.0023	
1	0.857	0.5788	0.143	0.0016	
1	0.948	0.6707	0.052	0.0017	
