Adsorption isotherm of Nitrogen on Silicalite MOLSIV
DOI: 10.1021/je700183y
Article source: Figure 1
Adsorbate Nitrogen: InChIKey IJGRMHOSHXDMSA-UHFFFAOYSA-N
Kind: experiment
Temperature: 343 K
Tabular data in the source: 0
pressure (bar)	uptake (mmol/g)
0.113	0.0227
0.292	0.0487
0.504	0.0892
0.785	0.133
1.11	0.187
1.47	0.245
1.92	0.31
2.48	0.388
3.14	0.471
3.93	0.57
4.85	0.688
