Adsorption isotherm of Carbon Dioxide on Silicalite MOLSIV
DOI: 10.1021/je700183y
Article source: Figure 1
Adsorbate Carbon Dioxide: InChIKey CURLTUGMZLYLDI-UHFFFAOYSA-N
Kind: experiment
Temperature: 373 K
Tabular data in the source: 0
pressure (bar)	uptake (mmol/g)
0.0255	0.0696
0.117	0.164
0.219	0.267
0.383	0.377
0.588	0.499
0.865	0.656
1.26	0.818
1.76	1.03
2.44	1.28
3.39	1.53
4.65	1.81
