Adsorption isotherm of Zn(II), Cadmium(II) Ion, Water on Aquacarb 207EA
DOI: 10.1007/s11356-017-9562-8
Article source: Figure 1
Adsorbate Zn(II): InChIKey PTFCDOFLOPIGGS-UHFFFAOYSA-N
Adsorbate Cadmium(II) Ion: InChIKey WLZRMCYVCSSEQC-UHFFFAOYSA-N
Adsorbate Water: InChIKey XLYOFNOQVPJJNP-UHFFFAOYSA-N
Kind: experiment
Temperature: 293 K
Tabular data in the source: 0
pressure (bar)	Zn(II) fraction	Zn(II) uptake (mmol/g)	Cadmium(II) Ion fraction	Cadmium(II) Ion uptake (mmol/g)	Water fraction	Water uptake (mmol/g)	total uptake (mmol/g)
1.01325	0.02603	0.007854	0.02583	0.003141			
1.01325	0.03677	0.015818	0.04022	0.003871			
1.01325	0.05195	0.015662	0.06319	0.00499			
1.01325	0.1111	0.030483	0.14255	0.007863			
1.01325	0.18385	0.043421	0.22851	0.009802			
1.01325	0.26272	0.048192	0.32906	0.009702			
1.01325	0.29002	0.051877	0.36573	0.010042			
1.01325	0.36169	0.055482	0.39491	0.010491			
1.01325	0.41019	0.058574	0.41749	0.011377			
