Adsorption isotherm of Cadmium(II) Ion, Water on Aquacarb 207EA
DOI: 10.1007/s11356-017-9562-8
Article source: Figure 1
Adsorbate Cadmium(II) Ion: InChIKey WLZRMCYVCSSEQC-UHFFFAOYSA-N
Adsorbate Water: InChIKey XLYOFNOQVPJJNP-UHFFFAOYSA-N
Kind: experiment
Temperature: 293 K
Tabular data in the source: 0
pressure (bar)	Cadmium(II) Ion fraction	Cadmium(II) Ion uptake (mmol/g)	Water fraction	Water uptake (mmol/g)	total uptake (mmol/g)
1.01325	0.01233	0.002201			
1.01325	0.02651	0.007606			
1.01325	0.08323	0.01752			
1.01325	0.09343	0.022924			
1.01325	0.17519	0.031174			
1.01325	0.25238	0.037455			
1.01325	0.30355	0.043218			
1.01325	0.40123	0.050161			
1.01325	0.44211	0.056997			
