Adsorption isotherm of Zn(II), Water on Aquacarb 207EA
DOI: 10.1007/s11356-017-9562-8
Article source: Figure 1
Adsorbate Zn(II): InChIKey PTFCDOFLOPIGGS-UHFFFAOYSA-N
Adsorbate Water: InChIKey XLYOFNOQVPJJNP-UHFFFAOYSA-N
Kind: experiment
Temperature: 293 K
Tabular data in the source: 0
pressure (bar)	Zn(II) fraction	Zn(II) uptake (mmol/g)	Water fraction	Water uptake (mmol/g)	total uptake (mmol/g)
1.01325	0.02088	0.008429			
1.01325	0.03837	0.017001			
1.01325	0.10509	0.030369			
1.01325	0.12422	0.033375			
1.01325	0.22569	0.044792			
1.01325	0.30133	0.048801			
1.01325	0.32774	0.054617			
1.01325	0.39435	0.058482			
1.01325	0.42397	0.064513			
