Adsorption isotherm of Nitrogen on MMM-I_C10
DOI: 10.1039/c4ta05225k
Article source: Figure 1- MMM I C10
Adsorbate Nitrogen: InChIKey IJGRMHOSHXDMSA-UHFFFAOYSA-N
Kind: experiment
Temperature: 77 K
Tabular data in the source: 0
pressure (bar)	uptake (cm3(STP)/g)
0.001307	216.686
0.004742	229.92
0.005796	235.291
0.009636	241.22
0.017316	251.833
0.023041	255.141
0.028918	257.418
0.035454	260.296
0.04436	262.015
0.052456	263.862
0.061028	264.764
0.071323	266.74
0.079408	267.771
0.090362	268.802
0.103676	269.918
0.150326	272.881
0.202123	275.113
0.250901	277.259
0.303681	279.062
0.352621	280.65
0.405726	282.194
0.454169	282.966
0.506949	283.952
0.554663	285.668
0.557277	284.809
0.606876	286.096
0.656951	288.07
0.660224	286.91
0.708748	287.724
0.758752	289.827
0.76014	289.914
0.809901	290.814
0.86031	292.831
0.862762	292.616
0.913333	294.547
0.960146	300.733
1.00843	368.877
