Adsorption isotherm of Nitrogen on MMM-I_SA
DOI: 10.1039/c4ta05225k
Article source: Figure 1- MMM I SA
Adsorbate Nitrogen: InChIKey IJGRMHOSHXDMSA-UHFFFAOYSA-N
Kind: experiment
Temperature: 77 K
Tabular data in the source: 0
pressure (bar)	uptake (cm3(STP)/g)
2e-05	142.714
0.000193	144.112
0.005917	159.198
0.007873	168.396
0.008532	171.878
0.010082	178.024
0.010822	182.408
0.012706	186.535
0.016465	189.372
0.022595	193.112
0.027581	194.961
0.033052	196.594
0.040743	199.131
0.050713	200.852
0.059458	202.443
0.066895	203.304
0.071961	203.82
0.080138	204.853
0.100322	205.973
0.150265	209.804
0.200036	212.217
0.252107	215.19
0.302212	217.087
0.354354	219.716
0.403557	220.968
0.455537	223.167
0.505237	225.021
0.557054	227.005
0.606339	229.074
0.657832	231.445
0.708424	233.385
0.762612	235.842
0.809941	240.232
0.812069	239.158
0.863563	242.861
0.911783	252.146
0.912766	252.623
0.963439	263.289
