Adsorption isotherm of Nitrogen on MMM-I_PA
DOI: 10.1039/c4ta05225k
Article source: Figure 1- MMM I PA
Adsorbate Nitrogen: InChIKey IJGRMHOSHXDMSA-UHFFFAOYSA-N
Kind: experiment
Temperature: 77 K
Tabular data in the source: 0
pressure (bar)	uptake (cm3(STP)/g)
0.000111	160.652
0.000182	163.129
0.001327	174.167
0.00304	192.593
0.006951	208.914
0.007843	213.939
0.01528	221.626
0.020184	224.675
0.025493	227.982
0.029739	229.27
0.037176	231.116
0.044279	232.704
0.052527	234.808
0.062822	236.052
0.072873	236.867
0.081942	238.841
0.10098	239.999
0.153426	243.815
0.19959	246.171
0.25236	248.956
0.303347	251.097
0.354323	252.68
0.404489	254.606
0.455881	255.974
0.505632	257.428
0.557429	258.839
0.605549	260.594
0.658167	262.262
0.709305	264.06
0.762086	264.912
0.807591	267.183
0.81135	267.44
0.862985	268.722
0.910456	273.011
0.962577	277.858
1.0074	344.684
