Adsorption isotherm of Nitrogen on MMM-I
DOI: 10.1039/c4ta05225k
Article source: Figure 1- MMM I
Adsorbate Nitrogen: InChIKey IJGRMHOSHXDMSA-UHFFFAOYSA-N
Kind: experiment
Temperature: 77 K
Tabular data in the source: 0
pressure (bar)	uptake (cm3(STP)/g)
3e-05	135.361
0.000111	151.26
0.000172	188.99
0.000243	205.51
0.000253	203.6
0.000496	176.902
0.000588	179.149
0.00228	245.669
0.005542	252.115
0.014115	261.482
0.018117	263.33
0.023507	266.596
0.028736	268.959
0.045323	273.341
0.061981	276.22
0.068354	277.552
0.07799	280.043
0.090321	280.602
0.102906	282.793
0.149789	286.4
0.151592	286.615
0.201495	290.394
0.250921	293.615
0.302627	296.32
0.35254	298.896
0.405138	301.086
0.453987	303.447
0.505125	305.722
0.555362	307.74
0.607231	309.757
0.656738	311.947
0.711383	314.824
0.759248	317.142
0.812839	320.148
0.861688	323.283
0.912573	327.879
0.961909	341.241
0.964036	337.76
1.00762	438.269
