Adsorption isotherm of Carbon Dioxide on MIL-53(Al)
DOI: 10.1016/j.fluid.2013.10.050
Adsorbate Carbon Dioxide: InChIKey CURLTUGMZLYLDI-UHFFFAOYSA-N
Temperature: 300 K
Tabular data in the source: 0
pressure (bar)	uptake (mmol/g)
0.909386	0.441076
2.21024	0.991814
4.94023	2.2317
5.85083	2.61722
10.0932	3.7404
14.9362	4.4169
20.0423	5.06466
24.9564	5.4909
30.0693	5.83308
