Adsorption isotherm of Carbon Dioxide on MIL-53(Al)-type A
DOI: 10.1016/j.fluid.2013.10.050
Adsorbate Carbon Dioxide: InChIKey CURLTUGMZLYLDI-UHFFFAOYSA-N
Temperature: 300 K
Tabular data in the source: 0
pressure (bar)	uptake (mmol/g)
0.940686	0.353583
1.41318	0.579276
2.08962	0.934296
2.6885	1.02887
3.22993	1.3194
4.49519	1.54079
5.88683	1.63105
7.74522	1.8166
10.4826	9.9539
13.5947	10.1
17.83	10.2401
23.3793	10.2099
30.6578	10.4312
