Adsorption isotherm of Methane on MIL-53(Al)-type B
DOI: 10.1016/j.fluid.2013.10.050
Adsorbate Methane: InChIKey VNWKTOKETHGBQD-UHFFFAOYSA-N
Temperature: 300 K
Tabular data in the source: 0
pressure (bar)	uptake (mmol/g)
0.193702	0.772686
0.260167	1.16649
0.288938	0.961957
0.292169	1.3561
0.3094	1.4582
0.407098	1.66205
0.555721	1.79265
0.64111	1.92358
0.792194	2.06875
1.00159	2.18442
1.14775	2.30043
1.54931	2.42966
1.88764	2.55924
2.21858	2.64506
3.11862	2.72783
3.70496	2.82688
4.9261	2.93714
6.27371	3.04671
8.00072	3.15425
10.5498	3.2574
13.7336	3.37174
17.9366	3.52443
23.4043	3.67034
30.7665	3.79152
