Adsorption isotherm of Carbon Dioxide on MIL-53(Al)
DOI: 10.1016/j.fluid.2013.10.050
Adsorbate Carbon Dioxide: InChIKey CURLTUGMZLYLDI-UHFFFAOYSA-N
Temperature: 300 K
Tabular data in the source: 0
pressure (bar)	uptake (mmol/g)
0.0686743	-0.138416
0.256572	0.274657
0.380629	0.60526
0.503477	0.991085
0.510727	0.659757
0.695	1.23849
1.08409	1.4572
1.14672	1.5949
1.40571	1.75911
1.9261	1.9771
2.51396	2.11189
3.36444	2.24523
4.2137	2.43379
5.5894	2.56423
7.62224	2.66344
9.89212	6.93004
12.9706	7.24433
17.1676	7.44202
22.7421	7.68731
29.9591	7.86832
