Adsorption isotherm of Methane on MIL-53(Al)-type D
DOI: 10.1016/j.fluid.2013.10.050
Adsorbate Methane: InChIKey VNWKTOKETHGBQD-UHFFFAOYSA-N
Temperature: 300 K
Tabular data in the source: 0
pressure (bar)	uptake (mmol/g)
-0.0287707	0.204534
-0.0115391	0.306631
0.00076927	0.379558
0.0106159	0.437899
0.0229243	0.510826
0.0352326	0.583753
0.125545	0.743854
0.208472	0.860198
0.223242	0.94771
0.303708	1.04947
0.381712	1.13664
0.469563	1.28216
0.691266	1.47075
0.73973	1.3829
0.842351	1.61593
1.11006	1.70209
1.24637	1.75975
1.57239	1.8164
1.7087	1.87407
1.97149	1.93105
2.17103	1.98838
2.36812	2.03112
2.94707	2.08641
3.66973	2.24313
4.88594	2.32421
6.17524	2.4633
7.96302	2.55592
10.3224	2.66007
13.6352	2.78833
17.8308	2.89726
23.3592	3.02825
30.595	3.1501
