Adsorption isotherm of Carbon Dioxide on MIL-53(Al)
DOI: 10.1016/j.fluid.2013.10.050
Adsorbate Carbon Dioxide: InChIKey CURLTUGMZLYLDI-UHFFFAOYSA-N
Temperature: 300 K
Tabular data in the source: 0
pressure (bar)	uptake (mmol/g)
0.147925	0.357892
0.356168	0.585021
0.501221	0.877711
0.573029	1.00776
0.715209	1.23524
1.05271	1.39645
1.32558	1.59062
1.59845	1.78479
2.06807	1.94528
2.73876	2.1699
3.47408	2.36155
4.47077	2.48657
5.92992	2.60908
7.78113	2.63162
10.4811	9.9213
13.6593	10.0671
17.8285	10.2075
23.3218	10.4059
30.5314	10.5623
