Adsorption isotherm of Methane on MIL-53(Al)-type C
DOI: 10.1016/j.fluid.2013.10.050
Adsorbate Methane: InChIKey VNWKTOKETHGBQD-UHFFFAOYSA-N
Temperature: 300 K
Tabular data in the source: 0
pressure (bar)	uptake (mmol/g)
-0.0583107	0.0295092
0.0196933	0.116683
0.156008	0.174347
0.297246	0.261183
0.569875	0.376512
0.854813	0.564767
0.998513	0.666188
1.46084	0.780502
2.00118	0.981989
2.66798	1.1828
3.52695	1.39718
4.63885	1.61021
5.99877	1.79271
7.93518	2.01592
10.2485	2.22251
13.5079	2.40945
17.7208	2.62047
23.2566	2.79522
30.5679	2.98966
