Adsorption isotherm of Methane on MIL-53(Al)-type A
DOI: 10.1016/j.fluid.2013.10.050
Adsorbate Methane: InChIKey VNWKTOKETHGBQD-UHFFFAOYSA-N
Temperature: 300 K
Tabular data in the source: 0
pressure (bar)	uptake (mmol/g)
-0.000923124	0.74453
0.417868	0.975865
0.454793	1.19465
0.742192	1.39749
1.08129	1.90662
1.56331	2.13762
1.8581	2.38421
2.32535	2.5277
2.94369	2.81636
3.86343	3.01582
4.85379	3.25869
7.84133	3.70985
10.6047	3.95783
13.6259	4.23363
16.5059	4.4226
19.3835	4.59697
22.1296	4.74286
25.063	4.87314
28.0621	5.01767
30.9125	5.03161
