Adsorption isotherm of Methane on MIL-53(Al)
DOI: 10.1016/j.fluid.2013.10.050
Adsorbate Methane: InChIKey VNWKTOKETHGBQD-UHFFFAOYSA-N
Temperature: 300 K
Tabular data in the source: 0
pressure (bar)	uptake (mmol/g)
-0.00240205	0.109774
0.0596509	0.273954
0.249413	0.601834
0.311466	0.766014
0.437373	1.01204
0.628937	1.25759
0.882553	1.66732
1.00906	1.88591
1.46265	2.15698
1.84998	2.45598
2.49993	2.75305
3.2824	2.99428
4.19678	3.2071
5.70026	3.49792
7.53143	3.81379
10.021	4.04253
13.2303	4.37575
17.295	4.6204
22.7354	4.99218
30.0154	5.29562
