Adsorption isotherm of Carbon Dioxide on MIL-53(Al)-type D
DOI: 10.1016/j.fluid.2013.10.050
Adsorbate Carbon Dioxide: InChIKey CURLTUGMZLYLDI-UHFFFAOYSA-N
Temperature: 300 K
Tabular data in the source: 0
pressure (bar)	uptake (mmol/g)
0.199627	0.0315238
0.468189	0.12789
0.669252	0.192015
1.06994	0.287663
1.33707	0.351429
2.07238	0.543085
2.60376	0.605414
3.4712	0.796352
4.46647	0.888769
5.99311	1.04352
7.84863	1.16387
10.2571	4.83556
13.4985	4.91577
17.5973	4.95871
23.0849	5.02671
30.359	5.15022
