Adsorption isotherm of Carbon Dioxide on MIL-53(Al)
DOI: 10.1016/j.fluid.2013.10.050
Adsorbate Carbon Dioxide: InChIKey CURLTUGMZLYLDI-UHFFFAOYSA-N
Temperature: 300 K
Tabular data in the source: 0
pressure (bar)	uptake (mmol/g)
0.186619	0.471531
0.624291	1.46991
1.00725	1.96849
2.04976	2.32574
3.09288	2.65521
3.87887	2.73563
4.8612	2.84311
5.90979	2.92256
7.21794	3.13993
8.11882	3.96993
8.74919	5.16204
9.96312	6.68532
12.5144	7.09254
15.0006	7.47222
17.5555	7.71276
19.8478	7.95427
24.8975	8.18556
27.0621	8.26088
29.8827	8.36155
