Adsorption isotherm of Carbon Dioxide on MIL-53(Al)-type B
DOI: 10.1016/j.fluid.2013.10.050
Adsorbate Carbon Dioxide: InChIKey CURLTUGMZLYLDI-UHFFFAOYSA-N
Temperature: 300 K
Tabular data in the source: 0
pressure (bar)	uptake (mmol/g)
1.15037	0.613313
1.61999	0.773804
2.15999	1.03174
2.76318	1.22411
3.43099	1.38353
4.55838	1.47523
5.88396	1.56585
7.80411	1.65324
10.4136	6.88906
13.5229	6.96998
17.6907	7.07777
23.1768	7.11317
30.4452	7.10628
