Adsorption isotherm of Methane on MIL-53(Al)
DOI: 10.1016/j.fluid.2013.10.050
Adsorbate Methane: InChIKey VNWKTOKETHGBQD-UHFFFAOYSA-N
Temperature: 300 K
Tabular data in the source: 0
pressure (bar)	uptake (mmol/g)
0.169086	0.626832
0.254475	0.757762
0.412944	0.946695
0.571414	1.13563
0.800503	1.36798
1.03205	1.61491
1.33176	1.89068
1.88194	2.15051
2.30812	2.4256
3.00446	2.80144
3.67127	3.00225
4.84886	3.22952
6.28678	3.49919
8.10165	3.75225
10.7509	4.07384
13.8378	4.36389
18.0629	4.64784
23.6332	5.02678
31.0324	5.36674
