Adsorption isotherm of Carbon Dioxide on MIL-53(Al)-type C
DOI: 10.1016/j.fluid.2013.10.050
Adsorbate Carbon Dioxide: InChIKey CURLTUGMZLYLDI-UHFFFAOYSA-N
Temperature: 300 K
Tabular data in the source: 0
pressure (bar)	uptake (mmol/g)
10.3002	5.81359
13.5416	5.8938
17.5758	5.9697
23.1998	6.13478
30.4064	6.22605
