Adsorption isotherm of Carbon Dioxide on Treated [Cu@Mg-MOF]
DOI: 10.1021/Ic3017547
Adsorbate Carbon Dioxide: InChIKey CURLTUGMZLYLDI-UHFFFAOYSA-N
Temperature: 195 K
Tabular data in the source: 0
pressure (bar)	uptake (cm3(STP)/g)
0.0104532	2.91462
0.0249604	3.30575
0.0435952	3.30931
0.0663912	3.8962
0.0933283	4.48388
0.116104	4.48824
0.157535	5.07869
0.196895	5.66875
0.254877	5.87402
0.300449	6.46527
0.374995	6.67371
0.404009	7.45596
0.482703	7.85937
0.515839	8.05989
0.55936	9.23327
0.631842	9.63549
0.664971	9.64183
0.731228	9.65451
0.760216	9.66006
0.830607	9.47936
0.859595	9.48491
0.923795	9.88554
