Adsorption isotherm of Carbon Dioxide on [Cu@Mg-MOF]
DOI: 10.1021/Ic3017547
Adsorbate Carbon Dioxide: InChIKey CURLTUGMZLYLDI-UHFFFAOYSA-N
Temperature: 195 K
Tabular data in the source: 0
pressure (bar)	uptake (cm3(STP)/g)
0.00413261	0.00413261
0.0227294	12.8199
0.026862	14.5682
0.0351272	16.7058
0.0495914	20.0095
0.0578566	22.5353
0.0723207	24.674
0.080586	26.0348
0.0929838	27.3964
0.101249	28.9514
0.157039	32.8456
0.200432	35.3782
0.256222	37.3306
0.305813	38.6993
0.359537	39.6805
0.415328	40.8562
0.464919	40.2832
0.51451	42.4286
0.566168	42.2443
0.655019	42.8438
0.683947	43.2377
0.712876	43.8258
0.768666	44.2248
0.824456	44.6238
0.867849	45.2146
0.919506	45.8071
0.969098	46.5932
