Adsorption isotherm of Carbon Dioxide on Desolvated {[Mg(DHT)]2DMSO}n
DOI: 10.1021/Ic3017547
Adsorbate Carbon Dioxide: InChIKey CURLTUGMZLYLDI-UHFFFAOYSA-N
Temperature: 195 K
Tabular data in the source: 0
pressure (bar)	uptake (cm3(STP)/g)
0.00413261	7.57361
0.00826523	17.6715
0.0144641	20.3911
0.0206631	22.5282
0.0289283	23.3065
0.0351272	24.4727
0.0454587	26.0281
0.0516577	27.1944
0.0599229	27.3901
0.0764533	28.3641
0.111581	29.7301
0.171503	33.6251
0.208697	34.9914
0.266554	37.5267
0.305813	39.0877
0.369869	42.2067
0.40293	43.3781
0.473184	45.5275
0.508311	46.8934
0.570301	48.847
0.607494	50.4075
0.667417	52.1666
0.723207	54.119
0.760401	55.8737
0.816191	57.6319
0.86165	59.194
0.921573	61.7298
