Adsorption isotherm of Carbon Dioxide on Arg-Asp-36-BCD
DOI: 10.1021/Jp4053538
Adsorbate Carbon Dioxide: InChIKey CURLTUGMZLYLDI-UHFFFAOYSA-N
Temperature: 300 K
Tabular data in the source: 0
pressure (bar)	uptake (mmol/g)
1.20421	2.66713
1.22103	2.69164
1.23598	2.71615
1.2528	2.74066
1.26775	2.76516
1.28457	2.78968
1.29952	2.81418
1.31633	2.8387
1.33315	2.86321
1.3481	2.88771
1.36492	2.91223
1.38174	2.93674
1.39669	2.96125
1.4135	2.98087
1.43032	3.00538
1.44713	3.0299
1.46395	3.05441
1.4789	3.07403
1.49384	3.09364
1.51067	3.12304
1.52748	3.14267
1.5443	3.16718
1.56111	3.1868
1.57793	3.21132
1.59288	3.23582
1.60969	3.25545
1.62651	3.27996
1.64332	3.29958
1.66014	3.3241
1.67695	3.34372
1.69376	3.36334
1.71058	3.38786
1.72739	3.40748
1.74421	3.43199
1.76102	3.45162
1.77784	3.47613
1.79465	3.49576
1.81147	3.52027
1.82828	3.53989
1.84323	3.5644
1.86005	3.58402
1.87686	3.60854
1.89368	3.62816
1.91049	3.65267
1.92731	3.6723
1.94412	3.69681
1.96094	3.71643
1.97775	3.74095
1.99456	3.75568
2.00951	3.78019
2.02633	3.79981
2.04128	3.82432
2.05809	3.84394
2.07491	3.86845
2.09172	3.88808
2.10854	3.91259
2.12535	3.93221
2.14217	3.95673
2.15898	3.97635
2.1758	4.00086
2.19261	4.02538
2.20756	4.04499
2.22438	4.06951
2.24119	4.09402
2.25801	4.11364
2.27482	4.13816
2.29164	4.16267
2.30659	4.18718
2.3234	4.2068
2.34022	4.23131
2.35704	4.25582
2.37385	4.27545
2.3888	4.29995
