Adsorption isotherm of Carbon Dioxide on Thr-MTV-MOF
DOI: 10.1021/Jp4053538
Adsorbate Carbon Dioxide: InChIKey CURLTUGMZLYLDI-UHFFFAOYSA-N
Temperature: 300 K
Tabular data in the source: 0
pressure (bar)	uptake (mmol/g)
1.05263	1.54087
1.47368	2.01922
1.89474	2.44449
2.31579	2.86975
2.73684	3.40118
5.63158	7.86417
6.10526	8.50183
6.52632	9.24557
6.73684	9.98899
7.15789	10.4673
7.47368	10.9986
9.36842	14.4516
10.0526	15.2488
10.5263	15.8865
11.1579	16.4713
11.5789	16.8435
12.1053	17.322
12.7895	17.7476
13.4211	18.3855
14.2105	18.9706
14.8421	19.3431
15.4737	19.7687
18.6842	21.1536
19.5789	21.4204
20.1579	21.5805
28.4211	22.6015
29.9474	22.8161
30.6316	22.8702
31.4737	22.8715
32.6316	22.9263
33.3158	22.8743
