Adsorption isotherm of Carbon Dioxide on Arg-Asp-36-ABF
DOI: 10.1021/Jp4053538
Adsorbate Carbon Dioxide: InChIKey CURLTUGMZLYLDI-UHFFFAOYSA-N
Temperature: 300 K
Tabular data in the source: 0
pressure (bar)	uptake (mmol/g)
1.21354	2.65739
1.23035	2.67701
1.24158	2.71128
1.25839	2.7309
1.27334	2.75541
1.28642	2.77502
1.30884	2.80444
1.32192	2.81916
1.33314	2.84854
1.34996	2.87306
1.36864	2.89269
1.38359	2.91719
1.39853	2.93681
1.41535	2.95643
1.42656	2.97603
1.44711	3.00056
1.46393	3.02508
1.47701	3.04957
1.49569	3.06432
1.50877	3.08881
1.52558	3.10844
1.5424	3.12806
1.55548	3.14767
1.5723	3.17707
1.59097	3.18693
1.60779	3.21633
1.62273	3.23106
1.63582	3.25555
1.6545	3.28007
1.67318	3.30459
1.68813	3.32421
1.70494	3.34383
1.71989	3.36345
1.73483	3.37818
1.75165	3.40269
1.77033	3.42232
1.78341	3.44193
1.80209	3.46156
1.81891	3.48608
1.83012	3.50079
1.84694	3.53019
1.86562	3.54982
1.88429	3.56945
1.89737	3.58417
1.91233	3.61357
1.931	3.62831
1.94594	3.63815
1.9609	3.67243
1.97398	3.69204
1.99826	3.7117
2.0132	3.73131
2.02815	3.75582
2.0431	3.77055
2.06178	3.79996
2.0786	3.81958
2.08981	3.83918
2.11036	3.86371
2.1197	3.87841
2.13465	3.89314
2.14585	3.90296
2.1608	3.91769
2.17575	3.9422
2.18883	3.9667
2.20565	3.99121
2.22246	4.01572
2.23928	4.03535
2.25049	4.05006
2.26918	4.08436
2.28599	4.09909
2.29908	4.12848
2.31589	4.14321
2.33644	4.17263
2.34765	4.18734
2.36633	4.21186
2.37941	4.22658
2.39624	4.26576
