Adsorption isotherm of Carbon Dioxide on Cys-MTV-MOF
DOI: 10.1021/Jp4053538
Adsorbate Carbon Dioxide: InChIKey CURLTUGMZLYLDI-UHFFFAOYSA-N
Temperature: 300 K
Tabular data in the source: 0
pressure (bar)	uptake (mmol/g)
6	7.65241
6.26316	8.39591
6.52632	8.92709
6.89474	9.35228
7.15789	9.77731
7.42105	10.5739
7.73684	11.3175
8.10526	11.8488
8.47368	12.4332
8.89474	13.0708
9.05263	13.5488
9.47368	14.2925
13.2105	18.1198
13.4737	18.3856
14	18.6518
14.5789	19.0242
15.1579	19.2905
15.7895	19.663
16.4211	19.8763
17.2105	20.249
17.6316	20.462
18.2105	20.7283
18.7368	20.9414
19.1579	21.1012
19.6842	21.2613
20.2105	21.4213
29.2105	22.6027
30.0526	22.657
30.9474	22.7115
32.1053	22.8725
33	22.8738
