Adsorption isotherm of Carbon Dioxide on Ser-MTV-MOF
DOI: 10.1021/Jp4053538
Adsorbate Carbon Dioxide: InChIKey CURLTUGMZLYLDI-UHFFFAOYSA-N
Temperature: 300 K
Tabular data in the source: 0
pressure (bar)	uptake (mmol/g)
1.84211	2.44441
2.15789	2.97567
2.36842	3.34754
2.63158	3.87873
2.89474	4.30375
3.15789	4.78186
3.52632	5.10089
3.78947	5.41976
4	5.84471
4.31579	6.37597
4.63158	6.85416
4.94737	7.33234
5.31579	7.96984
5.63158	8.55419
5.78947	9.13829
6.10526	9.51032
6.47368	10.1478
6.78947	10.8914
7.05263	11.5287
7.31579	12.0068
7.68421	12.4851
7.94737	12.9632
8.26316	13.4945
8.52632	13.9726
8.84211	14.3446
9.47368	15.0356
9.73684	15.7791
13.2105	18.9691
13.7368	19.2353
14.1579	19.5013
14.6316	19.7143
15.0526	20.0334
15.3684	20.1401
15.8421	20.4062
16.5263	20.7257
16.8947	20.9386
17.4737	21.0987
17.8947	21.2586
18.3684	21.4185
18.7368	21.5252
19.2632	21.5791
19.7895	21.633
20.4211	21.8463
21.0526	22.0064
21.7368	22.0606
22.7368	22.3275
23.5263	22.4348
24.4737	22.5955
25.7895	22.7567
26.5263	22.864
27.3684	22.8653
29.2105	22.9742
29.9474	23.0815
30.7368	23.0827
31.5789	23.1901
32.5263	23.2977
33.4737	23.2992
34.2105	23.3534
34.9474	23.4606
