Adsorption isotherm of Carbon Dioxide on Phe-MTV-MOF
DOI: 10.1021/Jp4053538
Adsorbate Carbon Dioxide: InChIKey CURLTUGMZLYLDI-UHFFFAOYSA-N
Temperature: 300 K
Tabular data in the source: 0
pressure (bar)	uptake (mmol/g)
2.15789	2.07334
2.52632	2.44544
2.84211	2.87055
3.15789	3.29566
3.47368	3.72077
3.78947	4.0928
4.10526	4.5179
4.42105	4.94301
4.73684	5.4212
5	5.84622
5.31579	6.27133
5.57895	6.74944
5.84211	7.17446
6.10526	7.65257
6.36842	8.13068
6.63158	8.5557
6.89474	9.03381
7.15789	9.51192
7.42105	9.93694
7.52632	10.2025
7.63158	10.5742
7.78947	10.9991
8.05263	11.371
8.42105	11.6901
8.68421	12.2743
8.94737	12.7524
9.21053	13.1774
9.47368	13.6556
9.78947	14.0807
10.4211	14.8247
10.7895	15.1968
11.1579	15.622
11.4737	15.994
11.8421	16.3662
12.2632	16.6853
12.6842	17.0575
13.0526	17.3234
13.5263	17.6426
13.9474	17.9617
14.3684	18.2277
14.8421	18.4938
15.3158	18.7069
15.7895	18.973
16.2632	19.186
16.7368	19.346
17.2632	19.506
17.7368	19.666
18.2105	19.879
18.7368	20.039
19.2105	20.199
19.6316	20.4119
20.1579	20.5189
20.6316	20.5727
21.1579	20.6796
21.6316	20.7865
22.1579	20.8404
22.6842	20.9474
23.7368	21.0551
24.2632	21.109
25.3158	21.4291
25.8421	21.4298
26.3684	21.5368
26.8421	21.5906
27.3684	21.6445
27.8947	21.6984
28.4211	21.7522
28.8947	21.806
29.4211	21.8599
29.9474	21.9138
30.4737	21.9677
