Adsorption isotherm of Carbon Dioxide on His-MTV-MOF
DOI: 10.1021/Jp4053538
Adsorbate Carbon Dioxide: InChIKey CURLTUGMZLYLDI-UHFFFAOYSA-N
Temperature: 300 K
Tabular data in the source: 0
pressure (bar)	uptake (mmol/g)
0.526316	1.2216
1.10526	2.07174
1.57895	2.65632
2	3.2939
2.31579	3.82517
2.73684	4.56891
3.15789	5.25957
3.68421	5.89731
3.84211	6.32217
4.31579	7.11907
4.78947	7.75673
5.10526	8.39415
5.52632	9.24405
6.10526	9.93495
6.31579	10.7314
6.68421	11.5282
7.15789	11.9535
7.57895	12.6442
7.94737	13.2286
8.42105	13.8663
8.84211	14.5569
9.36842	15.1947
9.78947	15.8323
10.3158	16.4169
10.9474	16.9487
11.4737	17.4802
11.9474	17.9056
12.2632	18.2776
12.6842	18.6498
13.4211	19.0225
14	19.3418
14.8947	19.6617
15.7895	20.0876
16.6842	20.3544
17.8421	20.7808
18.7368	21.1537
19.6316	21.3674
20.6316	21.5812
21.9474	21.7955
22.9474	22.1155
24.1053	22.1172
24.8421	22.2245
26	22.3324
26.7895	22.4398
27.7895	22.6005
32.4737	22.9261
33.4211	22.9275
34.1053	22.8755
34.8947	22.9298
