Adsorption isotherm of Carbon Dioxide on Ala-MTV-MOF
DOI: 10.1021/Jp4053538
Adsorbate Carbon Dioxide: InChIKey CURLTUGMZLYLDI-UHFFFAOYSA-N
Temperature: 300 K
Tabular data in the source: 0
pressure (bar)	uptake (mmol/g)
0.210526	0.212633
0.578947	0.584742
1	0.903852
1.36842	1.22288
2.15789	2.07334
2.52632	2.44544
2.84211	2.87055
3.15789	3.29566
3.47368	3.72077
3.78947	4.0928
4.10526	4.5179
4.42105	4.94301
4.73684	5.4212
5	5.84622
5.31579	6.27133
5.57895	6.74944
5.84211	7.17446
6.10526	7.65257
6.36842	8.13068
6.63158	8.5557
6.89474	9.03381
7.15789	9.51192
7.42105	9.93694
7.68421	10.2558
7.89474	10.6808
8.21053	11.1589
8.47368	11.584
8.73684	12.009
9	12.4871
9.26316	12.9121
9.52632	13.3902
9.78947	13.8153
10.4211	14.8247
10.7895	15.1968
11.1579	15.622
11.4737	15.994
11.8421	16.3662
12.1053	16.685
12.4211	17.1101
12.6842	17.429
13.1053	17.7481
13.4211	18.2263
13.8421	18.5454
14.3158	18.9708
14.9474	19.1309
15.1579	19.5028
15.8421	19.7162
16.2105	20.0352
16.6316	20.142
17.1053	20.4612
17.4737	20.5679
18.1053	20.7281
18.6842	20.8882
19.2105	21.1013
19.7895	21.2084
20.3684	21.3685
20.8421	21.5815
21.4737	21.6886
22	21.7956
22.7368	21.9028
23.5789	22.1695
24.2632	22.4359
24.8421	22.543
25.4737	22.6501
25.9474	22.5977
26.5789	22.6518
27.3158	22.759
27.8421	22.866
28.3684	22.8668
28.6316	22.8672
29.0526	22.8678
29.8947	22.9753
30.5789	23.0825
31.3684	23.0837
32.3158	23.1913
