Adsorption isotherm of Carbon Dioxide on Tyr-MTV-MOF
DOI: 10.1021/Jp4053538
Adsorbate Carbon Dioxide: InChIKey CURLTUGMZLYLDI-UHFFFAOYSA-N
Temperature: 300 K
Tabular data in the source: 0
pressure (bar)	uptake (mmol/g)
1.21053	1.64727
1.52632	2.0193
1.89474	2.44449
2.21053	2.86959
2.89474	3.61373
3.21053	4.03884
3.47368	4.51695
3.78947	4.94205
4.05263	5.36708
4.36842	5.79219
4.63158	6.27029
4.94737	6.6954
5.21053	7.17351
5.47368	7.59853
5.68421	7.9704
5.84211	8.39527
6.10526	8.87338
6.42105	9.40464
6.68421	9.88275
6.94737	10.3078
7.21053	10.7859
7.47368	11.264
7.78947	11.8483
7.89474	12.22
8.42105	12.9109
8.68421	13.4951
9.15789	13.9205
9.68421	14.5582
9.94737	15.3017
10.6316	15.9928
11.3684	16.6308
11.9474	17.1094
12.4737	17.5879
13.0526	17.9603
13.5789	18.1204
13.9474	18.3333
14.4211	18.5463
14.8947	18.7593
15.3684	19.0254
15.8421	19.2385
16.3158	19.4515
16.7895	19.6645
17.3158	19.8776
17.7895	20.0376
18.3158	20.1976
18.7895	20.3045
19.3158	20.4115
19.6316	20.4119
20.1579	20.5189
20.6316	20.5727
21.1579	20.6796
21.6316	20.7865
22.1579	20.8404
22.6842	20.9474
23	20.9478
23.6842	21.1612
24.2105	21.2681
24.8421	21.3753
25.3158	21.4291
25.8421	21.4298
26.3684	21.5368
26.8421	21.5906
27.3684	21.6445
27.8947	21.6984
28.4211	21.7522
28.8947	21.806
29.4211	21.8599
29.9474	21.9138
30.4737	21.9677
30.9474	22.0215
31.4737	22.0753
32	22.1292
32.5263	22.1831
33.0526	22.1839
33.5263	22.2377
34.0526	22.2916
34.5789	22.2924
