Adsorption isotherm of Carbon Dioxide on Arg-Asp-24-AF
DOI: 10.1021/Jp4053538
Adsorbate Carbon Dioxide: InChIKey CURLTUGMZLYLDI-UHFFFAOYSA-N
Temperature: 300 K
Tabular data in the source: 0
pressure (bar)	uptake (mmol/g)
1.23176	2.14413
1.25419	2.17844
1.26539	2.18827
1.28034	2.20788
1.29342	2.22749
1.30837	2.24711
1.32331	2.26672
1.34386	2.28147
1.36068	2.31577
1.37936	2.33051
1.39991	2.36481
1.42046	2.38445
1.43915	2.41386
1.46156	2.43351
1.47838	2.46291
1.49892	2.48255
1.52322	2.51687
1.54376	2.53651
1.56244	2.56103
1.5886	2.59536
1.60728	2.6101
1.62223	2.63461
1.63344	2.65421
1.65212	2.67873
1.67079	2.68858
1.682	2.69841
1.70255	2.72783
1.72684	2.75726
1.74366	2.78177
1.7642	2.80141
1.77915	2.81614
1.7941	2.84553
1.80906	2.87493
1.82586	2.87988
1.84267	2.9044
1.85388	2.91422
1.86136	2.92892
1.87442	2.93386
1.89125	2.96326
1.90246	2.98286
1.91553	2.99269
1.93047	3.00742
1.94916	3.03194
1.96037	3.04665
1.97159	3.07114
1.98092	3.07607
1.99213	3.08589
2.00335	3.11038
2.01456	3.1251
2.02949	3.13493
2.04444	3.15455
2.06312	3.17907
2.07433	3.19378
2.08741	3.21339
2.10049	3.233
2.11357	3.24772
2.12479	3.27221
2.13785	3.27227
2.15841	3.30168
2.17336	3.32619
2.1939	3.34583
2.21259	3.37524
2.22754	3.39485
2.24249	3.41936
2.25744	3.44386
2.27612	3.46838
2.2948	3.48313
2.30789	3.51251
2.32097	3.53701
2.33777	3.54197
2.35458	3.56159
2.36393	3.58119
2.38075	3.6057
2.39009	3.6204
2.39944	3.63511
