Adsorption isotherm of Carbon Dioxide on Arg-Asp-MTV-MOF
DOI: 10.1021/Jp4053538
Adsorbate Carbon Dioxide: InChIKey CURLTUGMZLYLDI-UHFFFAOYSA-N
Temperature: 300 K
Tabular data in the source: 0
pressure (bar)	uptake (mmol/g)
0.105263	1.16789
0.263158	1.64583
0.473684	2.17694
0.631579	2.65489
0.842105	3.18599
1	3.66394
1.21053	4.14196
1.47368	4.62007
1.68421	5.0981
2	5.5232
2.26316	6.00131
2.57895	6.42642
2.84211	6.90452
3.10526	7.32955
3.36842	7.80766
3.63158	8.23268
3.94737	8.71087
4.21053	9.1359
4.47368	9.614
4.78947	10.0391
5.05263	10.5172
5.31579	10.9422
5.63158	11.4204
5.89474	11.8455
6.21053	12.2706
6.47368	12.7487
6.78947	13.1738
7.05263	13.5988
7.36842	14.077
7.63158	14.502
7.94737	14.9271
8.26316	15.3522
8.52632	15.8303
8.84211	16.2554
9.15789	16.6806
9.47368	17.1057
9.78947	17.4777
10.1579	17.9029
10.5263	18.275
10.8947	18.6471
11.2632	19.0192
11.6316	19.3382
12.0526	19.6573
12.4737	19.9765
12.9474	20.2426
13.4211	20.4556
13.8947	20.6156
14.4211	20.8287
14.8947	20.9886
15.3684	21.2017
15.8421	21.3616
16.3158	21.6277
16.7895	21.7877
17.3158	21.9477
17.7895	22.1077
18.2632	22.2676
18.7895	22.4276
19.3158	22.5346
19.7895	22.6415
20.3158	22.7484
20.7895	22.8022
21.3158	22.9092
21.8421	22.9631
22.3684	23.0169
22.8421	23.0707
