Adsorption isotherm of Carbon Dioxide on Arg-Asp-24-CD
DOI: 10.1021/Jp4053538
Adsorbate Carbon Dioxide: InChIKey CURLTUGMZLYLDI-UHFFFAOYSA-N
Temperature: 300 K
Tabular data in the source: 0
pressure (bar)	uptake (mmol/g)
1.20377	2.14402
1.22058	2.16364
1.2374	2.18815
1.25422	2.21267
1.27103	2.23229
1.28785	2.2568
1.30279	2.27642
1.31961	2.30093
1.33642	2.32056
1.35324	2.34507
1.37005	2.36469
1.38687	2.38921
1.40368	2.40883
1.4205	2.42845
1.43731	2.44808
1.45412	2.4677
1.47094	2.49221
1.48775	2.51184
1.50457	2.53146
1.51951	2.55108
1.53819	2.57071
1.555	2.59034
1.57182	2.60996
1.58863	2.62958
1.60545	2.6541
1.62226	2.67372
1.63907	2.69334
1.65589	2.71297
1.6727	2.73259
1.68951	2.75222
1.70632	2.77184
1.72314	2.79146
1.73808	2.81108
1.75676	2.83071
1.77358	2.85034
1.78852	2.86995
1.80534	2.88958
1.82215	2.9092
1.83896	2.92883
1.85577	2.94845
1.87259	2.96807
1.89127	2.99259
1.90808	3.01222
1.9249	3.03184
1.93984	3.05146
1.95852	3.07109
1.97533	3.09071
1.99215	3.11034
2.00709	3.12995
2.02391	3.14958
2.04072	3.17409
2.05754	3.19372
2.07435	3.21334
2.09117	3.23785
2.10798	3.25748
2.12479	3.2771
2.14161	3.30161
2.15842	3.32124
2.17524	3.34086
2.19205	3.36538
2.20887	3.385
2.22382	3.4095
2.2425	3.42914
2.25745	3.45364
