Adsorption isotherm of Carbon Dioxide on IRMOF-1
DOI: 10.1021/Jp4053538
Adsorbate Carbon Dioxide: InChIKey CURLTUGMZLYLDI-UHFFFAOYSA-N
Temperature: 300 K
Tabular data in the source: 0
pressure (bar)	uptake (mmol/g)
1.78947	1.64815
2.15789	1.9141
2.52632	2.28621
2.94737	2.55224
3.36842	2.97751
3.78947	3.45585
4.21053	3.82804
4.57895	4.20015
5.05263	4.57242
5.36842	4.99753
5.78947	5.42279
6.15789	5.74182
6.47368	6.32617
6.73684	6.69811
7.26316	7.01738
7.57895	7.44249
7.89474	7.97376
8.21053	8.45194
8.57895	8.87713
8.89474	9.30224
9.21053	9.78042
9.42105	10.2584
9.84211	10.7368
10.1579	11.1088
10.3684	11.5868
10.8947	12.0123
11.1053	12.5434
11.4737	12.8624
11.7895	13.3937
12.1579	13.7127
12.6316	14.1911
12.8947	14.5631
13.3158	14.9883
13.6842	15.4135
14.1053	15.7326
14.5263	16.211
15	16.4771
15.4737	16.7963
15.9474	17.0624
16.3158	17.3814
16.8421	17.7007
17.3684	17.9669
17.8947	18.18
18.3158	18.393
18.9474	18.6593
19.4211	18.8193
19.9474	19.0324
20.4211	19.2454
21	19.4586
21.4211	19.4592
22.0526	19.6725
22.5263	19.8325
23.0526	19.9925
23.5789	20.1525
24.1579	20.3126
24.5789	20.3133
25.3158	20.5267
25.7895	20.5274
26.3158	20.6875
26.8421	20.7413
27.3684	20.8483
28	20.9554
28.4737	21.0092
29.0526	21.1162
29.5789	21.1701
30	21.2769
30.7368	21.3311
31.1579	21.3318
31.7895	21.4389
32.3158	21.5989
32.8421	21.5997
33.4211	21.6006
34	21.7076
34.5263	21.7615
34.9474	21.8152
