Adsorption isotherm of Carbon Dioxide on Arg-Asp-36-ACF
DOI: 10.1021/Jp4053538
Adsorbate Carbon Dioxide: InChIKey CURLTUGMZLYLDI-UHFFFAOYSA-N
Temperature: 300 K
Tabular data in the source: 0
pressure (bar)	uptake (mmol/g)
1.20601	2.57914
1.21908	2.59386
1.23964	2.62816
1.25459	2.64778
1.27887	2.67721
1.3013	2.71641
1.32373	2.75562
1.34427	2.77525
1.36296	2.80466
1.37605	2.83405
1.38913	2.84877
1.40781	2.8684
1.42089	2.8929
1.43584	2.91741
1.45452	2.93215
1.47133	2.95177
1.48628	2.97139
1.50311	3.01057
1.52553	3.03999
1.55541	3.06945
1.56477	3.09882
1.58531	3.11846
1.60587	3.14788
1.62269	3.17728
1.64323	3.19203
1.66564	3.21656
1.68059	3.23129
1.69741	3.26558
1.71048	3.27541
1.72357	3.3048
1.73664	3.31463
1.75347	3.34403
1.77214	3.35878
1.78896	3.38329
1.8039	3.4029
1.81139	3.42249
1.82447	3.4421
1.84314	3.45684
1.85436	3.48133
1.86557	3.50093
1.87677	3.50098
1.89545	3.52061
1.90667	3.5451
1.92162	3.56472
1.92909	3.57941
1.94217	3.59902
1.95338	3.60885
1.9702	3.63336
1.98141	3.65296
2.00009	3.67259
2.0113	3.69219
2.02625	3.71181
2.0412	3.73632
2.04868	3.7559
2.06361	3.75596
2.08417	3.79027
2.09912	3.81477
2.11034	3.83438
2.12341	3.8491
2.13463	3.8687
2.15331	3.89322
2.16825	3.90794
2.18134	3.93244
2.20188	3.95208
2.2131	3.98146
2.23365	4.0011
2.24673	4.0256
2.25982	4.0501
2.2729	4.06482
2.28037	4.07462
2.29345	4.09912
