Adsorption isotherm of Nitrogen on Cr-MIL(101)
DOI: 10.1002/chem.201101705
Adsorbate Nitrogen: InChIKey IJGRMHOSHXDMSA-UHFFFAOYSA-N
Temperature: 77 K
Tabular data in the source: 0
pressure (bar)	uptake (cm3(STP)/g)
0.00110812	270.793
0.0125493	427.537
0.0506864	583.137
0.0840564	664.369
0.117426	741.024
0.160331	870.309
0.192747	905.777
0.228024	965.271
0.260441	1036.21
0.31574	1051.08
0.352923	1061.38
0.646579	1108.29
0.822964	1138.03
0.85538	1140.32
0.887797	1149.47
0.929748	1154.05
0.962164	1173.5
