Adsorption isotherm of Nitrogen on Pd@MIL-101(Cr)
DOI: 10.1002/chem.201101705
Adsorbate Nitrogen: InChIKey IJGRMHOSHXDMSA-UHFFFAOYSA-N
Temperature: 77 K
Tabular data in the source: 0
pressure (bar)	uptake (cm3(STP)/g)
0.00206155	3.07069
0.0154096	358.89
0.0487796	471.013
0.0869167	540.804
0.128868	624.325
0.195608	678.098
0.235652	742.169
0.271882	751.322
0.32146	757.042
0.404408	762.763
0.471148	767.339
0.575072	773.06
0.68281	779.924
0.789594	783.357
0.925934	790.221
0.958351	805.095
0.997441	837.13
