Adsorption isotherm of Carbon Dioxide on MIL-101-NH2
DOI: 10.1039/C3ce41737a
Adsorbate Carbon Dioxide: InChIKey CURLTUGMZLYLDI-UHFFFAOYSA-N
Temperature: 303 K
Tabular data in the source: 0
pressure (bar)	uptake (molecules/unitcell)
0.0313253	75.3873
0.0746988	137.265
0.101205	174.929
0.154217	217.913
0.2	252.83
0.257831	295.801
0.301205	328.029
0.354217	354.84
0.416867	389.712
0.462651	411.152
0.508434	432.592
0.573494	472.848
0.698795	531.809
0.778313	566.635
0.853012	598.779
0.939759	636.281
1	663.073
