Adsorption isotherm of Nitrogen on MIL-101-NO2
DOI: 10.1039/C3ce41737a
Adsorbate Nitrogen: InChIKey IJGRMHOSHXDMSA-UHFFFAOYSA-N
Temperature: 303 K
Tabular data in the source: 0
pressure (bar)	uptake (molecules/unitcell)
0.0191638	0.00991913
0.0365854	1.05413
0.0714286	3.66016
0.10453	4.71249
0.156794	7.32753
0.249129	12.0337
0.303136	14.1321
0.405923	19.3612
0.519164	25.1134
0.625436	29.8268
0.703833	33.4906
0.8223	38.2103
0.930314	41.8894
1	45.0311
