Adsorption isotherm of Nitrogen on MIL-101-CN
DOI: 10.1039/C3ce41737a
Adsorbate Nitrogen: InChIKey IJGRMHOSHXDMSA-UHFFFAOYSA-N
Temperature: 303 K
Tabular data in the source: 0
pressure (bar)	uptake (molecules/unitcell)
0.00722892	8.06677
0.026506	8.01481
0.0674699	7.90439
0.0963855	13.2173
0.296386	23.4599
0.696386	52.0313
0.850602	59.7019
1	72.7763
