Adsorption isotherm of Nitrogen on MIL-101-CH3
DOI: 10.1039/C3ce41737a
Adsorbate Nitrogen: InChIKey IJGRMHOSHXDMSA-UHFFFAOYSA-N
Temperature: 303 K
Tabular data in the source: 0
pressure (bar)	uptake (molecules/unitcell)
0.0348432	1.57083
0.0644599	2.62136
0.0993031	4.19219
0.198606	9.93717
0.264808	12.5594
0.299652	14.1303
0.348432	16.2259
0.425087	19.3712
0.512195	23.0394
0.585366	25.6653
0.655052	28.807
0.700348	30.9008
0.759582	34.0371
0.801394	35.6115
0.874564	38.755
0.932056	40.8551
0.968641	42.4268
0.998258	43.4774
