Adsorption isotherm of Carbon Dioxide on MIL-101-CH3
DOI: 10.1039/C3ce41737a
Adsorbate Carbon Dioxide: InChIKey CURLTUGMZLYLDI-UHFFFAOYSA-N
Temperature: 303 K
Tabular data in the source: 0
pressure (bar)	uptake (molecules/unitcell)
0.0313253	67.301
0.0698795	131.887
0.0987952	166.85
0.127711	199.117
0.149398	220.622
0.192771	255.545
0.255422	303.894
0.301205	333.42
0.361446	365.603
0.457831	416.556
0.551807	464.82
0.607229	488.929
0.660241	518.436
0.701205	537.194
0.775904	569.337
0.910843	625.577
0.968675	649.68
1.00482	665.755
