Adsorption isotherm of Carbon Dioxide on MIL-101-NO2
DOI: 10.1039/C3ce41737a
Adsorbate Carbon Dioxide: InChIKey CURLTUGMZLYLDI-UHFFFAOYSA-N
Temperature: 303 K
Tabular data in the source: 0
pressure (bar)	uptake (molecules/unitcell)
0.0313589	10.3682
0.0627178	17.6308
0.0958188	26.9647
0.146341	35.79
0.224739	50.3234
0.271777	59.1469
0.301394	65.3734
0.372822	75.2447
0.468641	87.7167
0.580139	101.75
0.656794	112.659
0.700348	117.857
0.803136	128.262
0.933798	140.752
1	145.963
