Adsorption isotherm of Nitrogen on MIL-101-NH2
DOI: 10.1039/C3ce41737a
Adsorbate Nitrogen: InChIKey IJGRMHOSHXDMSA-UHFFFAOYSA-N
Temperature: 303 K
Tabular data in the source: 0
pressure (bar)	uptake (molecules/unitcell)
0.00722892	8.06677
0.026506	8.01481
0.0674699	7.90439
0.0963855	13.2173
0.187952	15.6659
0.296386	23.4599
0.484337	33.7349
0.616867	41.464
0.701205	43.9321
0.845783	48.9332
1.00241	61.9881
