Adsorption isotherm of Carbon Dioxide on MIL-101-NO2
DOI: 10.1039/C3ce41737a
Adsorbate Carbon Dioxide: InChIKey CURLTUGMZLYLDI-UHFFFAOYSA-N
Temperature: 303 K
Tabular data in the source: 0
pressure (bar)	uptake (molecules/unitcell)
0.101205	118.326
0.146988	158.633
0.216867	196.181
0.26506	225.701
0.298795	241.782
0.359036	265.879
0.474699	322.171
0.563855	359.666
0.626506	383.756
0.698795	415.906
0.773494	448.05
0.838554	474.829
0.922892	509.642
0.973494	528.373
1.00241	539.077
