Adsorption isotherm of Carbon Dioxide on MIL-101-NH2
DOI: 10.1039/C3ce41737a
Adsorbate Carbon Dioxide: InChIKey CURLTUGMZLYLDI-UHFFFAOYSA-N
Temperature: 303 K
Tabular data in the source: 0
pressure (bar)	uptake (molecules/unitcell)
0.0313589	12.9562
0.101045	37.3194
0.149826	50.2846
0.226481	69.993
0.299652	91.77
0.348432	99.5592
0.442509	116.171
0.576655	141.085
0.614983	149.387
0.66899	159.249
0.703833	165.478
0.764808	175.344
0.958188	206.5
0.998258	215.838
