Adsorption isotherm of Nitrogen on MIL-101-Cl
DOI: 10.1039/C3ce41737a
Adsorbate Nitrogen: InChIKey IJGRMHOSHXDMSA-UHFFFAOYSA-N
Temperature: 303 K
Tabular data in the source: 0
pressure (bar)	uptake (molecules/unitcell)
0.033101	1.05233
0.10453	4.71249
0.172474	7.33565
0.264808	12.0418
0.301394	14.1312
0.378049	16.2412
0.477352	19.9158
0.61324	24.6445
0.695122	27.7925
0.773519	30.4211
0.902439	33.5934
0.998258	36.7486
