Adsorption isotherm of Nitrogen on MIL-101-NH2
DOI: 10.1039/C3ce41737a
Adsorbate Nitrogen: InChIKey IJGRMHOSHXDMSA-UHFFFAOYSA-N
Temperature: 303 K
Tabular data in the source: 0
pressure (bar)	uptake (molecules/unitcell)
0.033101	1.56993
0.102787	4.19399
0.214286	9.42768
0.304878	12.5802
0.372822	15.7209
0.447735	17.8301
0.538328	21.5002
0.642857	25.1775
0.702091	26.7609
0.775261	29.3868
0.851916	32.0144
0.926829	34.1236
0.994774	36.2292
