Adsorption isotherm of Carbon Dioxide on MIL-101
DOI: 10.1039/C3ce41737a
Adsorbate Carbon Dioxide: InChIKey CURLTUGMZLYLDI-UHFFFAOYSA-N
Temperature: 303 K
Tabular data in the source: 0
pressure (bar)	uptake (molecules/unitcell)
0.00963855	16.1465
0.0289157	34.9625
0.0674699	67.2036
0.0987952	91.3779
0.149398	128.977
0.195181	155.808
0.255422	193.382
0.298795	222.914
0.385542	257.721
0.46506	292.547
0.546988	327.367
0.628916	367.577
0.698795	399.734
0.790361	429.136
0.877108	463.943
0.944578	485.325
1	506.739
