Adsorption isotherm of Carbon Dioxide on MIL-101-Cl
DOI: 10.1039/C3ce41737a
Adsorbate Carbon Dioxide: InChIKey CURLTUGMZLYLDI-UHFFFAOYSA-N
Temperature: 303 K
Tabular data in the source: 0
pressure (bar)	uptake (molecules/unitcell)
0.0261324	10.3655
0.0679443	22.8095
0.111498	33.7016
0.160279	47.1844
0.24216	66.3779
0.303136	78.3143
0.357143	88.1766
0.45993	104.275
0.543554	118.811
0.621951	129.722
0.700348	142.184
0.78223	152.061
0.865854	161.421
0.949477	171.816
0.996516	176.499
