Adsorption isotherm of Carbon Dioxide on MIL-101-Cl
DOI: 10.1039/C3ce41737a
Adsorbate Carbon Dioxide: InChIKey CURLTUGMZLYLDI-UHFFFAOYSA-N
Temperature: 303 K
Tabular data in the source: 0
pressure (bar)	uptake (molecules/unitcell)
0.0240964	67.3205
0.0722892	110.317
0.0987952	142.591
0.149398	180.19
0.185542	204.352
0.226506	228.5
0.26747	252.648
0.301205	271.425
0.356627	300.926
0.445783	338.421
0.513253	367.889
0.575904	394.674
0.643373	424.142
0.698795	450.947
0.773494	477.699
0.838554	501.783
0.896386	523.19
0.956627	544.591
1	560.647
