Adsorption isotherm of Carbon Dioxide on MIL-101-CN
DOI: 10.1039/C3ce41737a
Adsorbate Carbon Dioxide: InChIKey CURLTUGMZLYLDI-UHFFFAOYSA-N
Temperature: 303 K
Tabular data in the source: 0
pressure (bar)	uptake (molecules/unitcell)
0.0365854	8.30051
0.0993031	22.3081
0.181185	38.9137
0.249129	51.3712
0.303136	61.7511
0.398955	78.8814
0.519164	98.0948
0.616725	113.673
0.700348	127.174
0.743902	134.443
0.851916	148.474
0.945993	162.498
1	170.807
