Adsorption isotherm of Nitrogen on MIL-101-NO2
DOI: 10.1039/C3ce41737a
Adsorbate Nitrogen: InChIKey IJGRMHOSHXDMSA-UHFFFAOYSA-N
Temperature: 303 K
Tabular data in the source: 0
pressure (bar)	uptake (molecules/unitcell)
0.0144578	8.04728
0.026506	8.01481
0.0746988	7.88491
0.103614	7.80697
0.298795	26.1488
0.371084	28.6494
0.551807	38.9439
0.848193	51.6221
0.915663	54.1357
0.961446	59.4031
1.00482	61.9816
