Adsorption isotherm of Carbon Dioxide on MIL-101-CH3
DOI: 10.1039/C3ce41737a
Adsorbate Carbon Dioxide: InChIKey CURLTUGMZLYLDI-UHFFFAOYSA-N
Temperature: 303 K
Tabular data in the source: 0
pressure (bar)	uptake (molecules/unitcell)
0.0296167	10.8849
0.108014	35.2526
0.175958	52.8861
0.221254	65.3319
0.264808	76.224
0.297909	85.5579
0.360627	99.0479
0.494774	126.032
0.595819	148.342
0.662021	159.763
0.698606	169.099
0.768293	178.969
0.95122	204.426
1	210.663
