Adsorption isotherm of Carbon Dioxide on MIL-101
DOI: 10.1039/C3ce41737a
Adsorbate Carbon Dioxide: InChIKey CURLTUGMZLYLDI-UHFFFAOYSA-N
Temperature: 303 K
Tabular data in the source: 0
pressure (bar)	uptake (molecules/unitcell)
0.0087108	2.5925
0.0278746	4.67281
0.097561	15.0608
0.160279	22.3397
0.221254	30.1352
0.268293	35.8532
0.297909	41.0445
0.365854	48.8436
0.432056	56.1243
0.506969	64.9622
0.571429	73.7947
0.635889	80.0393
0.695122	88.3515
0.763066	95.6331
0.836237	102.4
0.91115	110.72
0.95993	115.404
0.998258	120.082
