Adsorption isotherm of Nitrogen on MIL-101
DOI: 10.1039/C3ce41737a
Adsorbate Nitrogen: InChIKey IJGRMHOSHXDMSA-UHFFFAOYSA-N
Temperature: 303 K
Tabular data in the source: 0
pressure (bar)	uptake (molecules/unitcell)
0.026506	5.31939
0.0674699	10.5998
0.0963855	10.5219
0.183133	15.6789
0.26506	15.4581
0.296386	23.4599
0.46506	28.3961
0.578313	33.4816
0.660241	38.6516
0.696386	41.2496
0.754217	41.0938
0.809639	46.3352
0.845783	51.6286
0.908434	51.4597
0.971084	53.9863
0.99759	59.3057
