Adsorption isotherm of Nitrogen on MIL-101-CN
DOI: 10.1039/C3ce41737a
Adsorbate Nitrogen: InChIKey IJGRMHOSHXDMSA-UHFFFAOYSA-N
Temperature: 303 K
Tabular data in the source: 0
pressure (bar)	uptake (molecules/unitcell)
0.0121951	0.523911
0.0278746	1.56722
0.0993031	5.22738
0.303136	15.1673
0.398955	17.8048
0.625436	26.2036
0.702091	28.8313
0.8223	32.5167
0.932056	35.1615
1	37.7847
