Adsorption isotherm of Carbon Dioxide on MIL-101-CN
DOI: 10.1039/C3ce41737a
Adsorbate Carbon Dioxide: InChIKey CURLTUGMZLYLDI-UHFFFAOYSA-N
Temperature: 303 K
Tabular data in the source: 0
pressure (bar)	uptake (molecules/unitcell)
0.0313253	43.0422
0.0698795	94.1513
0.103614	126.405
0.149398	177.495
0.238554	250.031
0.301205	295.684
0.366265	335.94
0.455422	389.608
0.542169	437.892
0.616867	486.208
0.701205	537.194
0.768675	572.052
0.891566	631.02
0.951807	660.507
1.00241	684.63
