Adsorption isotherm of Nitrogen on MIL-101
DOI: 10.1039/C3ce41737a
Adsorbate Nitrogen: InChIKey IJGRMHOSHXDMSA-UHFFFAOYSA-N
Temperature: 303 K
Tabular data in the source: 0
pressure (bar)	uptake (molecules/unitcell)
0.0156794	1.04331
0.033101	1.56993
0.0627178	3.13805
0.097561	5.74408
0.149826	7.32393
0.221254	10.9841
0.275261	13.6
0.299652	15.1655
0.357143	16.748
0.425087	18.8536
0.52439	23.0458
0.601045	26.7086
0.646341	28.2849
0.696864	31.9342
0.773519	33.5267
0.843206	36.1507
0.912892	38.7748
0.961672	40.3528
0.996516	43.4765
