Adsorption isotherm of Nitrogen on MIL-88B(V)
DOI: 10.1021/Cg4012058
Adsorbate Nitrogen: InChIKey IJGRMHOSHXDMSA-UHFFFAOYSA-N
Temperature: 77 K
Tabular data in the source: 0
pressure (bar)	uptake (cm3(STP)/g)
0.0146206	-7.40741
0.0316536	0
0.0413931	0
0.0486865	7.40741
0.058426	7.40741
0.0754815	0
0.0973842	7.40741
0.112005	0
0.158279	-7.40741
0.209411	-7.40741
0.253239	-7.40741
0.301938	-7.40741
0.348189	0
0.396886	0
0.443149	0
0.489424	-7.40741
0.538121	-7.40741
0.584373	0
0.635505	0
0.684214	-7.40741
0.747511	0
0.788915	-7.40741
0.840047	-7.40741
0.888734	0
0.934985	7.40741
0.959334	7.40741
