Adsorption isotherm of Nitrogen on MIL-101(V)
DOI: 10.1021/Cg4012058
Adsorbate Nitrogen: InChIKey IJGRMHOSHXDMSA-UHFFFAOYSA-N
Temperature: 77 K
Tabular data in the source: 0
pressure (bar)	uptake (cm3(STP)/g)
-0.002441	-0.00251256
0	58.9862
0.002441	331.779
0.00732302	368.608
0.012205	434.93
0.017087	464.386
0.0268511	508.552
0.0390561	560.072
0.0512611	589.473
0.0610252	604.145
0.0707891	640.937
0.0756711	648.274
0.0878762	677.674
0.102523	699.683
0.109845	729.12
0.117168	765.931
0.124492	787.995
0.131814	824.806
0.144019	839.46
0.153783	854.132
0.163548	876.178
0.173311	883.477
0.183075	883.403
0.202604	905.375
0.212367	912.674
0.219691	942.111
0.222131	964.213
0.227013	986.296
0.248982	1015.62
0.261187	1015.53
0.270951	1022.83
0.280716	1022.75
0.300243	1029.98
0.346623	1029.63
0.395443	1044
0.444263	1051.01
0.488201	1058.05
0.537021	1072.42
0.583401	1072.07
0.634661	1086.43
0.68104	1093.45
0.744507	1107.71
0.790885	1114.73
0.837265	1129.13
0.883644	1150.9
0.908054	1180.21
0.927582	1216.92
0.932464	1239.01
0.939787	1261.07
0.942228	1305.29
0.94711	1342.12
0.951991	1386.32
