Adsorption isotherm of Hydrogen on SWNT-MIL-101-C(Li)
DOI: 10.1007/s10934-015-0047-1
Article source: Figure 4
Adsorbate Hydrogen: InChIKey UFHFLCQGNIYNRP-UHFFFAOYSA-N
Kind: experiment
Temperature: 77 K
Tabular data in the source: 0
pressure (bar)	uptake (mmol/g)
0.004274	15.6037
0.014957	17.0898
0.021368	18.2043
0.025641	18.7616
0.034188	19.8762
0.042735	20.9907
0.047009	21.7337
0.057692	22.8483
0.066239	23.4056
0.076923	24.8916
0.083333	25.2632
0.087607	26.0062
0.098291	27.4923
0.113248	28.4211
0.121795	28.7926
0.134615	29.5356
0.143162	29.7214
0.151709	29.9071
0.162393	30.0929
0.179487	30.8359
0.196581	31.9505
0.205128	33.065
0.245726	34.3653
0.252137	34.5511
0.299145	34.5511
0.303419	34.5511
0.314103	34.5511
0.331197	34.9226
0.352564	34.9226
0.376068	34.9226
0.401709	34.9226
0.423077	35.1084
0.450855	35.2941
0.472222	35.2941
0.5	35.4799
0.523504	35.4799
0.553419	35.6656
0.574786	35.6656
0.600427	36.0372
0.626068	35.8514
0.651709	36.0372
0.675214	36.2229
0.685897	36.2229
0.700855	36.0372
0.724359	36.2229
0.741453	36.2229
0.75	36.2229
0.775641	36.4087
0.801282	36.5944
0.818376	36.7802
0.826923	36.7802
0.850427	36.7802
0.865385	36.9659
0.876068	36.9659
0.880342	37.3375
0.899573	37.3375
0.92094	37.5232
0.92735	38.452
0.946581	38.2663
0.955128	39.9381
0.972222	39.9381
0.982906	41.4241
0.989316	43.2817
0.99359	44.9536
