Adsorption isotherm of Hydrogen on SWNT-MIL-101
DOI: 10.1007/s10934-015-0047-1
Article source: Figure 6
Adsorbate Hydrogen: InChIKey UFHFLCQGNIYNRP-UHFFFAOYSA-N
Kind: experiment
Temperature: 298 K
Tabular data in the source: 0
pressure (bar)	uptake (mg/g)
1.69456	0.183333
5.08368	0.519444
7.3431	0.733333
9.97908	0.916667
14.8745	1.28333
19.7699	1.65
24.8536	1.98611
29.749	2.35278
40.1046	2.96389
44.8117	3.33056
50.0837	3.69722
59.8745	4.24722
69.8536	4.88889
79.8326	5.46944
84.9163	5.71389
90	5.98889
