Adsorption isotherm of Hydrogen on MIL-101(Li)
DOI: 10.1007/s10934-015-0047-1
Article source: Figure 6
Adsorbate Hydrogen: InChIKey UFHFLCQGNIYNRP-UHFFFAOYSA-N
Kind: experiment
Temperature: 298 K
Tabular data in the source: 0
pressure (bar)	uptake (mg/g)
2.82427	0.855556
5.08368	0.672222
7.3431	1.13056
9.97908	1.06944
14.8745	1.71111
19.7699	1.77222
24.8536	2.29167
29.749	2.475
38.41	3.14722
45	3.48333
49.8954	3.88056
59.8745	4.36944
70.0418	5.04167
74.9372	5.25556
85.1046	5.95833
90	6.23333
