Adsorption isotherm of Hydrogen on SWNT-MIL-101-B(Li)
DOI: 10.1007/s10934-015-0047-1
Article source: Figure 6
Adsorbate Hydrogen: InChIKey UFHFLCQGNIYNRP-UHFFFAOYSA-N
Kind: experiment
Temperature: 298 K
Tabular data in the source: 0
pressure (bar)	uptake (mg/g)
1.69456	0.458333
4.8954	1.03889
9.97908	1.77222
19.7699	2.87222
29.749	3.94167
44.8117	5.43889
59.8745	6.66111
74.9372	7.73056
90	8.64722
