Adsorption isotherm of Hydrogen on SWNT-MIL-101
DOI: 10.1007/s10934-015-0047-1
Article source: Figure 4
Adsorbate Hydrogen: InChIKey UFHFLCQGNIYNRP-UHFFFAOYSA-N
Kind: experiment
Temperature: 77 K
Tabular data in the source: 0
pressure (bar)	uptake (mmol/g)
0	0
0.004274	16.904
0.00641	18.0186
0.012821	20.0619
0.029915	22.8483
0.034188	23.5913
0.042735	24.7059
0.051282	25.6347
0.055556	26.3777
0.070513	28.0495
0.076923	28.4211
0.07906	28.6068
0.087607	29.5356
0.113248	31.7647
0.119658	32.6935
0.132479	34.9226
0.141026	36.4087
0.147436	36.7802
0.15812	37.1517
0.17094	37.3375
0.179487	37.709
0.185897	37.709
0.198718	38.6378
0.207265	38.8235
0.252137	40.6811
0.301282	40.8669
0.352564	40.8669
0.363248	41.2384
0.401709	41.2384
0.410256	41.4241
0.448718	41.2384
0.450855	41.2384
0.497863	41.7957
0.502137	41.6099
0.523504	41.7957
0.549145	41.7957
0.57265	41.7957
0.600427	41.7957
0.602564	41.7957
0.649573	41.9814
0.653846	41.9814
0.688034	41.7957
0.698718	41.9814
0.75	42.1672
0.754274	41.9814
0.799145	42.3529
0.848291	42.3529
0.873932	42.3529
0.901709	42.9102
0.946581	43.096
0.955128	43.4675
0.974359	44.2105
0.987179	46.0681
0.989316	44.7678
0.997863	46.6254
