Adsorption isotherm of Hydrogen on SWNT-MIL-101-B(Li)
DOI: 10.1007/s10934-015-0047-1
Article source: Figure 4
Adsorbate Hydrogen: InChIKey UFHFLCQGNIYNRP-UHFFFAOYSA-N
Kind: experiment
Temperature: 77 K
Tabular data in the source: 0
pressure (bar)	uptake (mmol/g)
0.010684	16.3467
0.025641	19.5046
0.038462	20.6192
0.047009	21.7337
0.055556	22.4768
0.059829	23.2198
0.096154	26.5635
0.102564	26.935
0.108974	27.3065
0.134615	30.0929
0.141026	30.4644
0.147436	30.8359
0.153846	31.2074
0.16453	31.5789
0.183761	32.322
0.205128	33.065
0.252137	36.4087
0.262821	36.2229
0.303419	36.5944
0.354701	36.7802
0.371795	36.9659
0.391026	37.1517
0.403846	37.1517
0.423077	37.1517
0.444444	37.5232
0.452991	37.5232
0.472222	37.3375
0.5	37.709
0.504274	37.709
0.523504	37.709
0.547009	37.8947
0.553419	37.8947
0.574786	37.8947
0.600427	38.0805
0.604701	38.0805
0.623932	38.0805
0.649573	38.2663
0.653846	38.2663
0.675214	38.452
0.685897	38.452
0.698718	38.452
0.722222	38.452
0.745726	38.6378
0.752137	38.6378
0.773504	38.8235
0.797009	39.0093
0.824786	39.195
0.826923	39.195
0.848291	39.3808
0.861111	39.3808
0.871795	39.7523
0.876068	39.3808
0.895299	39.7523
0.918803	40.1238
0.92094	40.4954
0.948718	41.0526
0.967949	43.2817
0.980769	48.1115
0.982906	47.3684
0.989316	49.0402
0.991453	49.5975
