Adsorption isotherm of Hydrogen on MIL-101
DOI: 10.1007/s10934-015-0047-1
Article source: Figure 4
Adsorbate Hydrogen: InChIKey UFHFLCQGNIYNRP-UHFFFAOYSA-N
Kind: experiment
Temperature: 77 K
Tabular data in the source: 0
pressure (bar)	uptake (mmol/g)
0.021368	22.4768
0.034188	24.3344
0.040598	26.0062
0.047009	26.7492
0.051282	26.935
0.059829	28.2353
0.068376	28.9783
0.074786	29.5356
0.081197	30.4644
0.089744	31.3932
0.096154	31.7647
0.100427	32.322
0.106838	33.065
0.113248	33.808
0.117521	34.3653
0.119658	34.9226
0.134615	37.8947
0.147436	38.8235
0.155983	39.195
0.194444	41.0526
0.202991	41.6099
0.213675	41.9814
0.24359	46.4396
0.245726	46.6254
0.303419	46.9969
0.344017	47.5542
0.354701	47.5542
0.403846	47.9257
0.440171	47.9257
0.457265	48.1115
0.467949	48.1115
0.472222	48.1115
0.497863	48.483
0.504274	48.483
0.523504	48.483
0.547009	48.6687
0.555556	48.6687
0.574786	48.6687
0.598291	48.8545
0.604701	49.0402
0.623932	49.0402
0.647436	49.0402
0.653846	49.0402
0.673077	49.226
0.690171	49.226
0.696581	49.226
0.722222	49.226
0.75	49.4118
0.752137	49.4118
0.773504	49.5975
0.797009	49.7833
0.824786	49.969
0.831197	49.969
0.848291	49.969
0.861111	49.969
0.871795	50.3406
0.878205	50.3406
0.895299	50.3406
0.925214	50.7121
0.931624	51.4551
0.946581	51.4551
0.952991	52.0124
0.974359	52.7554
0.978632	54.4272
0.980769	54.9845
0.991453	54.4272
0.99359	55.5418
