Adsorption isotherm of Hydrogen on SWNT-MIL-101-A(Li)
DOI: 10.1007/s10934-015-0047-1
Article source: Figure 6
Adsorbate Hydrogen: InChIKey UFHFLCQGNIYNRP-UHFFFAOYSA-N
Kind: experiment
Temperature: 298 K
Tabular data in the source: 0
pressure (bar)	uptake (mg/g)
1.69456	0.488889
4.8954	0.855556
9.97908	1.34444
19.9582	2.26111
29.9372	3.05556
44.8117	4.24722
59.8745	5.40833
74.749	6.56944
90	7.54722
