Adsorption isotherm of Hydrogen on SWNT-MIL-101-A(Li)
DOI: 10.1007/s10934-015-0047-1
Article source: Figure 4
Adsorbate Hydrogen: InChIKey UFHFLCQGNIYNRP-UHFFFAOYSA-N
Kind: experiment
Temperature: 77 K
Tabular data in the source: 0
pressure (bar)	uptake (mmol/g)
0.023504	20.4334
0.029915	21.9195
0.038462	23.2198
0.047009	24.1486
0.057692	25.4489
0.064103	25.6347
0.070513	26.5635
0.076923	26.935
0.07906	27.4923
0.087607	28.9783
0.098291	30.0929
0.108974	31.0217
0.115385	31.3932
0.126068	32.5077
0.138889	33.065
0.143162	33.2508
0.151709	33.6223
0.162393	33.9938
0.190171	35.1084
0.200855	36.0372
0.205128	36.9659
0.245726	38.0805
0.25641	38.2663
0.303419	38.6378
0.339744	38.8235
0.352564	39.0093
0.401709	39.195
0.431624	39.5666
0.455128	39.7523
0.459402	39.7523
0.472222	39.7523
0.5	39.9381
0.504274	39.7523
0.523504	39.7523
0.547009	39.9381
0.553419	39.9381
0.57265	40.3096
0.598291	40.1238
0.604701	40.3096
0.623932	40.1238
0.647436	40.4954
0.65812	40.4954
0.675214	40.4954
0.696581	40.4954
0.724359	40.8669
0.741453	40.8669
0.747863	40.8669
0.773504	40.8669
0.799145	41.0526
0.818376	41.4241
0.824786	41.4241
0.848291	41.4241
0.861111	41.7957
0.876068	41.7957
0.899573	41.9814
0.92094	42.9102
0.955128	45.5108
0.970085	45.5108
0.974359	46.0681
0.985043	51.8266
0.989316	52.1981
0.991453	52.7554
0.99359	52.9412
