Adsorption isotherm of Hydrogen on SWNT-MIL-101-C(Li)
DOI: 10.1007/s10934-015-0047-1
Article source: Figure 6
Adsorbate Hydrogen: InChIKey UFHFLCQGNIYNRP-UHFFFAOYSA-N
Kind: experiment
Temperature: 298 K
Tabular data in the source: 0
pressure (bar)	uptake (mg/g)
1.69456	0.916667
3.01255	3.08611
4.70711	1.61944
7.53138	3.69722
9.97908	2.59722
14.8745	4.61389
19.9582	4.27778
25.0418	5.83611
29.9372	5.775
38.41	7.15
44.8117	7.57778
50.272	8.21944
59.8745	8.89167
69.8536	9.65556
74.9372	9.86944
85.1046	10.3583
90	10.5111
