Adsorption isotherm of Hydrogen on MIL-101
DOI: 10.1007/s10934-015-0047-1
Article source: Figure 6
Adsorbate Hydrogen: InChIKey UFHFLCQGNIYNRP-UHFFFAOYSA-N
Kind: experiment
Temperature: 298 K
Tabular data in the source: 0
pressure (bar)	uptake (mg/g)
1.69456	0.091667
3.01255	0.305556
4.70711	0.458333
7.3431	0.611111
9.79079	0.702778
14.8745	1.1
19.9582	1.375
25.0418	1.74167
29.9372	2.04722
38.41	2.50556
44.8117	2.90278
49.8954	3.20833
59.8745	3.72778
70.0418	4.18611
79.8326	4.64444
84.9163	4.85833
90	5.10278
