Adsorption isotherm of Hydrogen on MIL-101(Li)
DOI: 10.1007/s10934-015-0047-1
Article source: Figure 4
Adsorbate Hydrogen: InChIKey UFHFLCQGNIYNRP-UHFFFAOYSA-N
Kind: experiment
Temperature: 77 K
Tabular data in the source: 0
pressure (bar)	uptake (mmol/g)
0	12.2601
0.002137	15.418
0.004274	18.2043
0.00641	19.8762
0.008547	21.1765
0.012821	23.4056
0.019231	25.0774
0.021368	25.6347
0.025641	26.5635
0.027778	27.1207
0.032051	28.0495
0.040598	29.1641
0.044872	29.9071
0.049145	30.6502
0.055556	31.3932
0.057692	31.7647
0.061966	32.1362
0.068376	32.8793
0.07265	33.4365
0.076923	34.1796
0.08547	34.9226
0.09188	35.8514
0.096154	36.4087
0.098291	37.1517
0.106838	38.2663
0.113248	39.195
0.121795	39.9381
0.132479	40.6811
0.138889	41.0526
0.15812	41.9814
0.181624	43.2817
0.200855	44.3963
0.202991	45.3251
0.25	49.0402
0.254274	49.0402
0.305556	49.5975
0.326923	49.7833
0.352564	49.969
0.356838	49.969
0.371795	50.1548
0.397436	50.3406
0.403846	50.1548
0.42094	50.5263
0.446581	50.7121
0.455128	50.7121
0.472222	50.8978
0.495726	51.0836
0.504274	51.0836
0.521368	51.0836
0.547009	51.2693
0.555556	51.2693
0.57265	51.4551
0.598291	51.4551
0.604701	51.6409
0.621795	51.6409
0.647436	51.8266
0.655983	51.8266
0.673077	51.8266
0.696581	52.0124
0.702991	52.0124
0.722222	52.1981
0.75	52.3839
0.771368	52.3839
0.799145	52.7554
0.82265	52.7554
0.82906	52.9412
0.846154	53.1269
0.863248	53.1269
0.873932	53.3127
0.880342	53.4985
0.899573	53.6842
0.92094	54.0557
0.923077	54.613
0.946581	54.9845
0.955128	57.2136
0.972222	57.0279
0.976496	58.3282
0.982906	63.9009
0.985043	61.4861
0.99359	65.2012
