Adsorption isotherm of Carbon Dioxide on (In3O)(OH)(ADC)2(NH2IN)2*2.67H2O
DOI: 10.1039/C0cc02808h
Adsorbate Carbon Dioxide: InChIKey CURLTUGMZLYLDI-UHFFFAOYSA-N
Temperature: 195 K
Tabular data in the source: 0
pressure (bar)	uptake (cm3(STP)/g)
0.0171192	87.2387
0.021489	177.911
0.0411528	289.34
0.0673713	328.667
0.135102	358.163
0.301153	387.659
0.43006	397.491
0.576447	408.415
0.718464	419.34
0.987203	434.634
