Adsorption isotherm of Hydrogen on (In3O)(OH)(ADC)2(IN)2*4.67H2O
DOI: 10.1039/C0cc02808h
Adsorbate Hydrogen: InChIKey UFHFLCQGNIYNRP-UHFFFAOYSA-N
Temperature: 77 K
Tabular data in the source: 0
pressure (bar)	uptake (wt%)
0.0236738	0.190395
0.0761108	0.45258
0.135102	0.714765
0.209388	0.938715
0.292413	1.15174
0.406027	1.39754
0.508716	1.56687
0.61359	1.70342
0.718464	1.83451
0.987203	2.08031
