Adsorption isotherm of Hydrogen on (In3O)(OH)(ADC)2(NH2IN)2*2.67H2O
DOI: 10.1039/C0cc02808h
Adsorbate Hydrogen: InChIKey UFHFLCQGNIYNRP-UHFFFAOYSA-N
Temperature: 77 K
Tabular data in the source: 0
pressure (bar)	uptake (wt%)
0.0258587	0.266866
0.0717411	0.561824
0.126363	0.834933
0.180985	1.0425
0.25527	1.25552
0.34922	1.49586
0.462833	1.69796
0.60485	1.92737
0.764346	2.10216
0.993758	2.32065
