Adsorption isotherm of Nitrogen on (In3O)(OH)(ADC)2(NH2IN)2*2.67H2O
DOI: 10.1039/C0cc02808h
Adsorbate Nitrogen: InChIKey IJGRMHOSHXDMSA-UHFFFAOYSA-N
Temperature: 77 K
Tabular data in the source: 0
pressure (bar)	uptake (cm3(STP)/g)
0.00182509	247.827
0.00400996	26.0622
0.00619484	362.533
0.0520772	422.617
0.248716	452.113
0.371069	460.852
0.585186	473.961
0.720649	482.701
0.921657	496.903
1.01561	507.827
