Adsorption isotherm of Carbon Dioxide on (In3O)(OH)(ADC)2(IN)2*4.67H2O
DOI: 10.1039/C0cc02808h
Adsorbate Carbon Dioxide: InChIKey CURLTUGMZLYLDI-UHFFFAOYSA-N
Temperature: 195 K
Tabular data in the source: 0
pressure (bar)	uptake (cm3(STP)/g)
0.0149343	36.9866
0.0236738	127.659
0.0302285	179.003
0.0367831	211.777
0.0411528	244.55
0.0564469	281.693
0.172245	334.129
0.301153	352.701
0.541489	366.903
0.799304	378.919
0.993758	387.659
