Adsorption isotherm of Methane on (In3O)(OH)(ADC)2(IN)2*4.67H2O
DOI: 10.1039/C0cc02808h
Adsorbate Methane: InChIKey VNWKTOKETHGBQD-UHFFFAOYSA-N
Temperature: 298 K
Tabular data in the source: 0
pressure (bar)	uptake (cm3(STP)/g)
0.0935898	15.1379
0.205018	21.6925
0.294598	26.0622
0.333926	27.1547
0.399472	31.5244
0.482497	41.3564
0.639808	50.0959
0.6988	51.1883
0.849556	65.39
0.993758	69.7597
