Adsorption isotherm of Hydrogen on (In3O)(OH)(ADC)2(NH2IN)2*2.67H2O
DOI: 10.1039/C0cc02808h
Adsorbate Hydrogen: InChIKey UFHFLCQGNIYNRP-UHFFFAOYSA-N
Temperature: 87 K
Tabular data in the source: 0
pressure (bar)	uptake (wt%)
0.0804806	0.294177
0.314262	0.692916
0.364514	0.736614
0.423506	0.818547
0.465018	0.862244
0.561153	0.971488
0.61796	1.03703
0.718464	1.11897
0.814598	1.18998
0.993758	1.28829
