Adsorption isotherm of Methane on (In3O)(OH)(ADC)2(NH2IN)2*2.67H2O
DOI: 10.1039/C0cc02808h
Adsorbate Methane: InChIKey VNWKTOKETHGBQD-UHFFFAOYSA-N
Temperature: 195 K
Tabular data in the source: 0
pressure (bar)	uptake (cm3(STP)/g)
0.08922	45.7261
0.185355	82.869
0.312077	124.382
0.392918	145.138
0.447539	158.247
0.548044	179.003
0.716279	212.869
0.759976	218.331
0.867035	236.903
1.01342	258.751
