Adsorption isotherm of Carbon Dioxide on (In3O)(OH)(ADC)2(IN)2*4.67H2O
DOI: 10.1039/C0cc02808h
Adsorbate Carbon Dioxide: InChIKey CURLTUGMZLYLDI-UHFFFAOYSA-N
Temperature: 298 K
Tabular data in the source: 0
pressure (bar)	uptake (cm3(STP)/g)
0.0914049	36.9866
0.191909	66.4824
0.294598	94.8858
0.408212	121.104
0.460649	135.306
0.561153	152.785
0.659472	171.356
0.716279	180.096
0.827707	195.39
0.980649	211.777
