Adsorption isotherm of Hydrogen on (In3O)(OH)(ADC)2(IN)2*4.67H2O
DOI: 10.1039/C0cc02808h
Adsorbate Hydrogen: InChIKey UFHFLCQGNIYNRP-UHFFFAOYSA-N
Temperature: 87 K
Tabular data in the source: 0
pressure (bar)	uptake (wt%)
0.0127495	0.0483785
0.0914049	0.245017
0.211573	0.468967
0.362329	0.665605
0.414766	0.714765
0.51964	0.829471
0.620144	0.895017
0.722834	0.982412
0.87359	1.06981
1.01124	1.12989
