Adsorption isotherm of Nitrogen on (In3O)(OH)(ADC)2(IN)2*4.67H2O
DOI: 10.1039/C0cc02808h
Adsorbate Nitrogen: InChIKey IJGRMHOSHXDMSA-UHFFFAOYSA-N
Temperature: 77 K
Tabular data in the source: 0
pressure (bar)	uptake (cm3(STP)/g)
0.00182509	51.1883
0.00182509	227.071
0.00619484	318.835
0.0105646	347.239
0.100144	378.919
0.25964	394.214
0.373254	402.953
0.52838	408.415
0.740312	425.894
0.86922	453.205
1.01342	488.163
