Adsorption isotherm of Methane on (In3O)(OH)(ADC)2(IN)2*4.67H2O
DOI: 10.1039/C0cc02808h
Adsorbate Methane: InChIKey VNWKTOKETHGBQD-UHFFFAOYSA-N
Temperature: 298 K
Tabular data in the source: 0
pressure (bar)	uptake (cm3(STP)/g)
0.0564469	2.02863
0.307707	5.30594
0.386363	6.39838
0.480312	6.39838
0.572077	9.67569
0.676951	10.7681
0.777455	10.7681
0.875775	11.8606
0.936951	16.2303
0.985018	12.953
