Adsorption isotherm of Methane on Carbotech Activated Carbon
DOI: 10.1021/je100495w
Article source: Table 4
Adsorbate Methane: InChIKey VNWKTOKETHGBQD-UHFFFAOYSA-N
Kind: experiment
Temperature: 308 K
Tabular data in the source: 1
pressure (bar)	uptake (g/g)
0.6544	0.007
1.4393	0.012
2.3956	0.017
4.9864	0.027
7.2177	0.033
9.9584	0.038
14.6385	0.045
19.6117	0.05
24.6709	0.053
29.7483	0.056
35.1964	0.059
