Adsorption isotherm of Methane on Carbotech Activated Carbon
DOI: 10.1021/je100495w
Article source: Table 4
Adsorbate Methane: InChIKey VNWKTOKETHGBQD-UHFFFAOYSA-N
Kind: experiment
Temperature: 300 K
Tabular data in the source: 1
pressure (bar)	uptake (g/g)
0.6287	0.008
1.4371	0.014
2.5845	0.021
4.7962	0.029
7.1504	0.036
10.1796	0.043
14.4722	0.048
19.2146	0.054
24.8384	0.057
29.7165	0.058
