Adsorption isotherm of Methane on KT Activated Carbon
DOI: 10.1021/je100495w
Article source: Table 3
Adsorbate Methane: InChIKey VNWKTOKETHGBQD-UHFFFAOYSA-N
Kind: experiment
Temperature: 318 K
Tabular data in the source: 1
pressure (bar)	uptake (g/g)
0.5795	0.007
1.3705	0.014
2.3815	0.019
4.7103	0.027
7.1658	0.033
10.0536	0.037
14.7886	0.042
19.9081	0.044
24.7163	0.045
29.6492	0.047
