Adsorption isotherm of Methane on KT Activated Carbon
DOI: 10.1021/je100495w
Article source: Table 3
Adsorbate Methane: InChIKey VNWKTOKETHGBQD-UHFFFAOYSA-N
Kind: experiment
Temperature: 300 K
Tabular data in the source: 1
pressure (bar)	uptake (g/g)
0.5881	0.01
1.4137	0.018
2.4666	0.024
4.6609	0.031
7.164	0.037
9.8729	0.041
14.4482	0.045
19.6204	0.048
24.4567	0.049
29.5147	0.05
34.9575	0.051
