Adsorption isotherm of Methane on KT Activated Carbon
DOI: 10.1021/je100495w
Article source: Table 3
Adsorbate Methane: InChIKey VNWKTOKETHGBQD-UHFFFAOYSA-N
Kind: experiment
Temperature: 308 K
Tabular data in the source: 1
pressure (bar)	uptake (g/g)
0.6189	0.009
1.3918	0.016
2.5058	0.022
5.0064	0.031
7.3343	0.036
9.7772	0.039
14.8174	0.044
19.8522	0.047
24.5372	0.048
30.1258	0.049
