Adsorption isotherm of Methane on Carbotech Activated Carbon
DOI: 10.1021/je100495w
Article source: Table 4
Adsorbate Methane: InChIKey VNWKTOKETHGBQD-UHFFFAOYSA-N
Kind: experiment
Temperature: 318 K
Tabular data in the source: 1
pressure (bar)	uptake (g/g)
0.6544	0.006
1.4702	0.011
2.4438	0.016
4.7722	0.024
7.1731	0.03
9.715	0.035
14.3961	0.041
19.3657	0.045
24.7885	0.049
29.4998	0.052
35.1804	0.055
