Adsorption isotherm of Carbon Dioxide, Methane on EcoSorb Activated Carbon
DOI: 10.1021/acs.jced.6b01029
Article source: Table 8
Adsorbate Carbon Dioxide: InChIKey CURLTUGMZLYLDI-UHFFFAOYSA-N
Adsorbate Methane: InChIKey VNWKTOKETHGBQD-UHFFFAOYSA-N
Kind: experiment
Isotherm type: excess
Temperature: 353 K
Tabular data in the source: 1
pressure (bar)	Carbon Dioxide fraction	Carbon Dioxide uptake (mmol/g)	Methane fraction	Methane uptake (mmol/g)	total uptake (mmol/g)
4.8	0.698	1.97	0.302	0.31	
9.3	0.725	3.17	0.275	0.51	
13.5	0.735	4.21	0.265	0.68	
18.5	0.739	5.17	0.261	0.82	
22	0.742	5.9	0.258	0.9	
24.5	0.743	6.46	0.257	0.93	
