Adsorption isotherm of Carbon Dioxide, Methane on EcoSorb Activated Carbon
DOI: 10.1021/acs.jced.6b01029
Article source: Table 7
Adsorbate Carbon Dioxide: InChIKey CURLTUGMZLYLDI-UHFFFAOYSA-N
Adsorbate Methane: InChIKey VNWKTOKETHGBQD-UHFFFAOYSA-N
Kind: experiment
Isotherm type: excess
Temperature: 323 K
Tabular data in the source: 1
pressure (bar)	Carbon Dioxide fraction	Carbon Dioxide uptake (mmol/g)	Methane fraction	Methane uptake (mmol/g)	total uptake (mmol/g)
4.1	0.74	2.1	0.26	0.63	
8	0.711	3.55	0.289	0.64	
11.9	0.727	4.84	0.273	0.81	
15.6	0.735	5.97	0.265	0.97	
18.4	0.739	6.8	0.261	1.04	
20.6	0.739	7.59	0.261	1.07	
22.4	0.742	8.12	0.258	1.09	
