Adsorption isotherm of Carbon Dioxide, Methane on EcoSorb Activated Carbon
DOI: 10.1021/acs.jced.6b01029
Article source: Table 2
Adsorbate Carbon Dioxide: InChIKey CURLTUGMZLYLDI-UHFFFAOYSA-N
Adsorbate Methane: InChIKey VNWKTOKETHGBQD-UHFFFAOYSA-N
Kind: experiment
Isotherm type: excess
Temperature: 303 K
Tabular data in the source: 1
pressure (bar)	Carbon Dioxide fraction	Carbon Dioxide uptake (mmol/g)	Methane fraction	Methane uptake (mmol/g)	total uptake (mmol/g)
5.8	0.215	0.99	0.785	1.69	
11.5	0.226	1.73	0.774	2.45	
15.7	0.233	2.29	0.767	2.85	
20.2	0.238	2.78	0.762	3.12	
24.3	0.241	3.18	0.759	3.39	
28.6	0.244	3.54	0.756	3.7	
31	0.246	3.77	0.754	3.88	
