Adsorption isotherm of Carbon Dioxide, Methane on EcoSorb Activated Carbon
DOI: 10.1021/acs.jced.6b01029
Article source: Table 4
Adsorbate Carbon Dioxide: InChIKey CURLTUGMZLYLDI-UHFFFAOYSA-N
Adsorbate Methane: InChIKey VNWKTOKETHGBQD-UHFFFAOYSA-N
Kind: experiment
Isotherm type: excess
Temperature: 353 K
Tabular data in the source: 1
pressure (bar)	Carbon Dioxide fraction	Carbon Dioxide uptake (mmol/g)	Methane fraction	Methane uptake (mmol/g)	total uptake (mmol/g)
5.8	0.227	0.58	0.773	0.97	
12.2	0.234	1.11	0.766	1.63	
15.8	0.24	1.42	0.76	1.92	
20.1	0.243	1.7	0.757	2.21	
23.7	0.245	1.91	0.755	2.4	
26.5	0.247	2.07	0.753	2.53	
31	0.247	2.27	0.753	2.78	
