Adsorption isotherm of Carbon Dioxide, Methane on EcoSorb Activated Carbon
DOI: 10.1021/acs.jced.6b01029
Article source: Table 6
Adsorbate Carbon Dioxide: InChIKey CURLTUGMZLYLDI-UHFFFAOYSA-N
Adsorbate Methane: InChIKey VNWKTOKETHGBQD-UHFFFAOYSA-N
Kind: experiment
Isotherm type: excess
Temperature: 303 K
Tabular data in the source: 1
pressure (bar)	Carbon Dioxide fraction	Carbon Dioxide uptake (mmol/g)	Methane fraction	Methane uptake (mmol/g)	total uptake (mmol/g)
4	0.679	2.97	0.321	0.51	
6.8	0.719	4.3	0.281	0.77	
9.6	0.715	5.58	0.285	0.75	
12	0.726	6.57	0.274	0.8	
15.5	0.732	7.71	0.268	0.88	
19.3	0.736	8.9	0.264	0.98	
21.7	0.74	9.73	0.26	1.06	
