Adsorption isotherm of Carbon Dioxide, Methane on EcoSorb Activated Carbon
DOI: 10.1021/acs.jced.6b01029
Article source: Table 3
Adsorbate Carbon Dioxide: InChIKey CURLTUGMZLYLDI-UHFFFAOYSA-N
Adsorbate Methane: InChIKey VNWKTOKETHGBQD-UHFFFAOYSA-N
Kind: experiment
Isotherm type: excess
Temperature: 323 K
Tabular data in the source: 1
pressure (bar)	Carbon Dioxide fraction	Carbon Dioxide uptake (mmol/g)	Methane fraction	Methane uptake (mmol/g)	total uptake (mmol/g)
5.5	0.22	0.78	0.78	1.35	
11.7	0.23	1.44	0.77	2.22	
15.5	0.236	1.87	0.764	2.59	
19.9	0.241	2.25	0.759	3	
23.9	0.244	2.58	0.756	3.28	
27.6	0.245	2.86	0.755	3.55	
30.7	0.246	3.1	0.754	3.74	
