Adsorption isotherm of Carbon Dioxide, Methane on MIL-100(Fe)
DOI: 10.1016/j.cej.2015.02.041
Article source: Table 2b
Adsorbate Carbon Dioxide: InChIKey CURLTUGMZLYLDI-UHFFFAOYSA-N
Adsorbate Methane: InChIKey VNWKTOKETHGBQD-UHFFFAOYSA-N
Kind: experiment
Temperature: 303 K
Tabular data in the source: 0
pressure (bar)	Carbon Dioxide fraction	Carbon Dioxide uptake (mmol/g)	Methane fraction	Methane uptake (mmol/g)	total uptake (mmol/g)
1	0.5	1.49	0.5	0.28	
1	0.15	0.87	0.85	1.21	
