Adsorption isotherm of Carbon Dioxide, Nitrogen on MIL-100(Cr)
DOI: 10.1016/j.cej.2015.02.041
Article source: Table 2a
Adsorbate Carbon Dioxide: InChIKey CURLTUGMZLYLDI-UHFFFAOYSA-N
Adsorbate Nitrogen: InChIKey IJGRMHOSHXDMSA-UHFFFAOYSA-N
Kind: experiment
Temperature: 303 K
Tabular data in the source: 0
pressure (bar)	Carbon Dioxide fraction	Carbon Dioxide uptake (mmol/g)	Nitrogen fraction	Nitrogen uptake (mmol/g)	total uptake (mmol/g)
1	0.5	2.55	0.5	0.38	
1	0.15	1.05	0.85	1.08	
