Adsorption isotherm of Carbon Dioxide, Methane on MIL-100(Cr)
DOI: 10.1016/j.cej.2015.02.041
Article source: Table 2b
Adsorbate Carbon Dioxide: InChIKey CURLTUGMZLYLDI-UHFFFAOYSA-N
Adsorbate Methane: InChIKey VNWKTOKETHGBQD-UHFFFAOYSA-N
Kind: experiment
Temperature: 303 K
Tabular data in the source: 0
pressure (bar)	Carbon Dioxide fraction	Carbon Dioxide uptake (mmol/g)	Methane fraction	Methane uptake (mmol/g)	total uptake (mmol/g)
1	0.5	2.44	0.5	0.54	
1	0.15	1.67	0.85	1.8	
