Adsorption isotherm of Hydrogen on UMCM-1-NH2
DOI: 10.1002/chem.200902158
Adsorbate Hydrogen: InChIKey UFHFLCQGNIYNRP-UHFFFAOYSA-N
Temperature: 77 K
Tabular data in the source: 0
pressure (bar)	uptake (wt%)
0.00793979	0.0176775
0.0767513	0.17679
0.150856	0.318152
0.198495	0.406496
0.222314	0.441807
0.296419	0.55954
0.367877	0.659566
0.436689	0.7537
0.510793	0.847804
0.582252	0.930109
0.659003	1.01238
0.727814	1.0888
0.799273	1.16519
0.868084	1.2357
0.942189	1.31208
1.01365	1.37076
