Adsorption isotherm of Hydrogen on DMOF-1-AMPh
DOI: 10.1002/chem.200902158
Adsorbate Hydrogen: InChIKey UFHFLCQGNIYNRP-UHFFFAOYSA-N
Temperature: 77 K
Tabular data in the source: 0
pressure (bar)	uptake (wt%)
0.0162012	0.151274
0.027002	0.22689
0.0378028	0.302506
0.0486036	0.378121
0.0594044	0.462148
0.0702052	0.537764
0.0864064	0.588104
0.102608	0.655266
0.118809	0.714016
0.13771	0.781157
0.153911	0.839908
0.172813	0.881815
0.191714	0.932133
0.210616	0.97404
0.253819	1.05781
0.294322	1.12478
0.326724	1.16658
0.351026	1.20004
0.375328	1.22508
0.39963	1.25853
0.423931	1.28357
0.445533	1.30864
0.472535	1.33366
0.496837	1.35029
0.521139	1.37533
0.54544	1.39196
0.572442	1.41698
0.596744	1.43361
0.623746	1.45022
0.648048	1.47526
0.67505	1.48346
0.702052	1.50007
0.726354	1.5167
0.753356	1.5249
0.780358	1.54151
0.796559	1.54979
0.823561	1.55799
0.847863	1.57462
0.874865	1.58282
0.901867	1.59943
0.926169	1.60765
0.95047	1.62428
0.974772	1.62409
1.00177	1.6407
