Adsorption isotherm of Hydrogen on DMOF-1-NH2
DOI: 10.1002/chem.200902158
Adsorbate Hydrogen: InChIKey UFHFLCQGNIYNRP-UHFFFAOYSA-N
Temperature: 77 K
Tabular data in the source: 0
pressure (bar)	uptake (wt%)
0.0162012	0.100807
0.0297022	0.16799
0.0459034	0.243563
0.0594044	0.310746
0.0756056	0.38632
0.0837062	0.428312
0.0999074	0.495474
0.116109	0.562636
0.13231	0.629798
0.159312	0.730519
0.178213	0.789249
0.194414	0.856411
0.221416	0.931899
0.294322	1.12478
0.324024	1.19184
0.345626	1.24213
0.364527	1.29245
0.378028	1.30917
0.39963	1.35105
0.423931	1.40133
0.448233	1.44319
0.472535	1.48506
0.496837	1.51851
0.521139	1.56038
0.54544	1.59383
0.569742	1.63569
0.594044	1.66915
0.618346	1.7026
0.642648	1.73605
0.666949	1.7611
0.691251	1.78614
0.718253	1.81957
0.739855	1.84463
0.766857	1.86965
0.791159	1.8947
0.81276	1.91976
0.837062	1.93639
0.864064	1.96141
0.882965	1.97808
0.907267	2.00313
0.934269	2.01974
0.955871	2.0448
0.988273	2.07819
1.01257	2.09482
