Adsorption isotherm of Hydrogen on IRMOF-3-AMPh
DOI: 10.1002/chem.200902158
Adsorbate Hydrogen: InChIKey UFHFLCQGNIYNRP-UHFFFAOYSA-N
Temperature: 77 K
Tabular data in the source: 0
pressure (bar)	uptake (molecules/fundamental unit)
0.0159805	0.343027
0.0718435	1.31006
0.146233	2.27763
0.194019	2.77729
0.217911	3.02712
0.292227	3.74556
0.363851	4.3082
0.438112	4.83978
0.509708	5.309
0.581296	5.74708
0.652883	6.18515
0.724442	6.5298
0.793364	6.90552
0.870208	7.21918
0.941767	7.56383
1.0133	7.81505
