Adsorption isotherm of Hydrogen on IRMOF-3-AMPh
DOI: 10.1002/chem.200902158
Adsorbate Hydrogen: InChIKey UFHFLCQGNIYNRP-UHFFFAOYSA-N
Temperature: 77 K
Tabular data in the source: 0
pressure (bar)	uptake (wt%)
0.0028073	0.0477093
0.0771025	0.347234
0.151284	0.57176
0.195206	0.68057
0.222647	0.741759
0.296714	0.891285
0.367995	1.00674
0.439265	1.11537
0.51325	1.21036
0.584479	1.29172
0.652962	1.36628
0.729651	1.44079
0.800848	1.5017
0.872046	1.56261
0.945979	1.6235
1.01442	1.67079
