Adsorption isotherm of Hydrogen on IRMOF-3-URPh
DOI: 10.1002/chem.200902158
Adsorbate Hydrogen: InChIKey UFHFLCQGNIYNRP-UHFFFAOYSA-N
Temperature: 77 K
Tabular data in the source: 0
pressure (bar)	uptake (wt%)
0.00278659	0.0340731
0.07703	0.299508
0.151149	0.483125
0.195061	0.585117
0.222481	0.632669
0.296518	0.761741
0.367798	0.877194
0.441793	0.978994
0.513043	1.07399
0.584272	1.15536
0.65549	1.2299
0.800641	1.36534
0.869115	1.43308
0.945782	1.49395
1.01423	1.54806
