Adsorption isotherm of Hydrogen on IRMOF-3
DOI: 10.1002/chem.200902158
Adsorbate Hydrogen: InChIKey UFHFLCQGNIYNRP-UHFFFAOYSA-N
Temperature: 77 K
Tabular data in the source: 0
pressure (bar)	uptake (molecules/fundamental unit)
0.026567	0.343336
0.0451574	0.561872
0.0611013	0.780331
0.0823292	0.967802
0.103557	1.15527
0.122138	1.34267
0.143376	1.56128
0.156636	1.65509
0.177864	1.84256
0.199074	1.96775
0.230906	2.21781
0.254772	2.37422
0.275991	2.53055
0.302512	2.71818
0.326368	2.84344
0.350233	2.99985
0.374099	3.15625
0.397955	3.28152
0.42182	3.43792
0.445677	3.56319
0.469533	3.68845
0.493389	3.81371
0.519892	3.93906
0.543748	4.06432
0.567605	4.18958
0.588796	4.25249
0.612661	4.40889
0.633862	4.50294
0.66302	4.6595
0.689514	4.7537
0.713361	4.84782
0.737217	4.97308
0.761064	5.0672
0.787567	5.19255
0.806112	5.25537
0.829959	5.34949
0.856453	5.44369
0.880309	5.56896
0.904156	5.66308
0.93065	5.75728
1.01279	6.07109
