Adsorption isotherm of Hydrogen on IRMOF-3-AMPh
DOI: 10.1002/chem.200902158
Adsorbate Hydrogen: InChIKey UFHFLCQGNIYNRP-UHFFFAOYSA-N
Temperature: 77 K
Tabular data in the source: 0
pressure (bar)	uptake (molecules/fundamental unit)
5.49e-05	0.186853
0.0718984	1.49691
0.148953	2.52684
0.194101	3.05757
0.218003	3.33855
0.292319	4.05698
0.363952	4.65077
0.435566	5.18227
0.507163	5.65149
0.581396	6.08964
0.650328	6.4965
0.724543	6.87237
0.796102	7.21702
0.870309	7.56174
0.94185	7.84411
1.0134	8.15762
