Adsorption isotherm of Hydrogen on IRMOF-3-AMPh
DOI: 10.1002/chem.200902158
Adsorbate Hydrogen: InChIKey UFHFLCQGNIYNRP-UHFFFAOYSA-N
Temperature: 77 K
Tabular data in the source: 0
pressure (bar)	uptake (molecules/fundamental unit)
0.00271073	0.218072
0.0719717	1.74605
0.146434	2.96275
0.191583	3.49348
0.21814	3.80568
0.295112	4.55533
0.366754	5.18026
0.435722	5.71168
0.509974	6.21212
0.578905	6.61898
0.653139	7.05713
0.727345	7.40186
0.796258	7.74643
0.870455	8.06002
0.941996	8.34238
1.01088	8.59353
