Adsorption isotherm of Hydrogen on IRMOF-3-AM5
DOI: 10.1002/chem.200902158
Adsorbate Hydrogen: InChIKey UFHFLCQGNIYNRP-UHFFFAOYSA-N
Temperature: 77 K
Tabular data in the source: 0
pressure (bar)	uptake (wt%)
0.00556281	0.0613281
0.0357491	0.129317
0.0577517	0.210994
0.0852136	0.285819
0.101695	0.333441
0.123635	0.37421
0.156546	0.435363
0.175762	0.482967
0.252523	0.605204
0.296373	0.666287
0.342947	0.720535
0.378561	0.761216
0.403206	0.781513
0.42786	0.808629
0.436096	0.82903
0.457984	0.835709
0.482639	0.862824
0.507293	0.889939
0.531927	0.903418
0.556582	0.930533
0.581226	0.95083
0.60586	0.964309
0.630504	0.984606
0.652424	1.01174
0.674302	1.0116
0.698946	1.0319
0.723601	1.05901
0.748224	1.06567
0.775603	1.08595
0.800237	1.09943
0.871414	1.1467
0.945305	1.18032
1.01375	1.22761
