Adsorption isotherm of Hydrogen on UMCM-1-AMPh
DOI: 10.1002/chem.200902158
Adsorbate Hydrogen: InChIKey UFHFLCQGNIYNRP-UHFFFAOYSA-N
Temperature: 77 K
Tabular data in the source: 0
pressure (bar)	uptake (wt%)
0.00793979	0.0294919
0.039699	0.117924
0.0555786	0.165093
0.0767513	0.21814
0.0873377	0.24171
0.105864	0.282958
0.12439	0.324206
0.14027	0.365468
0.158796	0.394901
0.174675	0.436163
0.193202	0.483318
0.209081	0.506859
0.230254	0.53037
0.246134	0.571633
0.267306	0.612866
0.285833	0.648206
0.304359	0.659918
0.322885	0.707072
0.344058	0.736491
0.362584	0.777739
0.38111	0.801265
0.402283	0.830683
0.426102	0.860087
0.444628	0.883613
0.465801	0.918939
0.489621	0.948343
0.510793	0.983669
0.531966	1.00718
0.553139	1.0366
0.574312	1.07192
0.595485	1.08953
0.619304	1.11893
0.640477	1.14835
0.65371	1.166
0.674882	1.18951
0.698702	1.21892
0.719875	1.24833
0.735754	1.26006
0.759574	1.28356
0.783393	1.31296
0.804566	1.33057
0.825739	1.35998
0.852205	1.38347
0.873377	1.40698
0.89455	1.43049
0.918369	1.45989
0.939542	1.4834
0.960715	1.50692
0.987181	1.5304
1.00835	1.55391
