Adsorption isotherm of Hydrogen on IRMOF-3
DOI: 10.1002/chem.200902158
Adsorbate Hydrogen: InChIKey UFHFLCQGNIYNRP-UHFFFAOYSA-N
Temperature: 77 K
Tabular data in the source: 0
pressure (bar)	uptake (wt%)
0.00822509	0.0135838
0.0796508	0.224491
0.153749	0.394472
0.20312	0.489611
0.222326	0.530397
0.299097	0.659452
0.367633	0.768104
0.441638	0.876722
0.512887	0.971721
0.584116	1.05308
0.65808	1.13443
0.732044	1.21577
0.800527	1.29034
0.871735	1.35806
0.945689	1.43259
1.01415	1.49352
