Adsorption isotherm of Hydrogen on 467-MOF
DOI: 10.1002/chem.201502615
Article source: Figure 3b- H2
Adsorbate Hydrogen: InChIKey UFHFLCQGNIYNRP-UHFFFAOYSA-N
Kind: experiment
Temperature: 195 K
Tabular data in the source: 0
pressure (bar)	uptake (cm3(STP)/g)
0.006819	0.059
0.01989	0.03
0.038514	-0.057
0.056225	0.118
0.071971	0.381
0.090807	0.732
0.107952	0.761
0.148927	1.112
0.191302	1.318
0.232075	2.165
0.272838	2.195
0.312051	2.342
0.353726	2.926
0.39231	3.248
0.433357	3.483
0.474475	3.863
0.51545	4.273
0.555717	4.39
0.595781	4.8
0.637527	5.064
0.676952	5.852
0.717786	5.941
0.756796	6.146
0.799596	6.935
0.839093	7.227
0.879086	7.433
0.920831	8.046
0.959629	8.252
0.994556	9.011
