Adsorption isotherm of Argon on 467-MOF
DOI: 10.1002/chem.201502615
Article source: Figure 3b- Ar
Adsorbate Argon: InChIKey XKRFYHLGVUSROY-UHFFFAOYSA-N
Kind: experiment
Temperature: 195 K
Tabular data in the source: 0
pressure (bar)	uptake (cm3(STP)/g)
0.008086	2.333
0.01609	3.207
0.030783	4.869
0.047937	6.91
0.063673	8.893
0.079489	11.371
0.095864	12.8
0.110981	14.929
0.144297	18.923
0.177116	22.597
0.218305	26.883
0.259635	30.499
0.299415	34.756
0.341303	38.08
0.381012	41.491
0.421705	44.669
0.462265	47.818
0.502957	50.763
0.543517	53.27
0.584625	56.245
0.624415	58.752
0.665107	61.23
0.705171	63.242
0.746289	65.808
0.785998	68.257
0.826974	70.357
0.866612	72.602
0.909209	74.759
0.948291	76.655
0.988912	78.054
