Adsorption isotherm of Nitrogen on 467-MOF
DOI: 10.1002/chem.201502615
Article source: Figure 3b- N2
Adsorbate Nitrogen: InChIKey IJGRMHOSHXDMSA-UHFFFAOYSA-N
Kind: experiment
Temperature: 195 K
Tabular data in the source: 0
pressure (bar)	uptake (cm3(STP)/g)
0.012321	2.916
0.033123	4.898
0.04668	6.771
0.065182	9.341
0.080949	11.141
0.09556	13.638
0.133455	17.603
0.167196	21.128
0.208993	25.35
0.248925	29.058
0.289749	33.023
0.329955	35.556
0.371305	38.749
0.411683	41.796
0.452771	44.365
0.49324	46.641
0.534236	47.814
0.574351	49.942
0.615266	51.372
0.655198	53.978
0.69664	55.446
0.737281	57.721
0.776514	59.408
0.818929	61.206
0.858598	63.041
0.899239	64.728
0.938644	66.673
0.979377	67.919
