Adsorption isotherm of Methane on 467-MOF
DOI: 10.1002/chem.201502615
Article source: Figure 3c- CH4
Adsorbate Methane: InChIKey VNWKTOKETHGBQD-UHFFFAOYSA-N
Kind: experiment
Temperature: 273 K
Tabular data in the source: 0
pressure (bar)	uptake (cm3(STP)/g)
0.004215	1.213
0.013142	1.584
0.02292	1.943
0.033042	2.488
0.044917	2.958
0.055182	3.391
0.066074	3.825
0.080553	4.085
0.104314	5.248
0.125187	6.226
0.147752	7.204
0.185151	8.851
0.217271	10.336
0.264296	12.218
0.301482	13.691
0.341546	15.325
0.382249	16.687
0.424562	18.185
0.46421	19.498
0.505885	20.897
0.545818	22.123
0.587634	23.411
0.627141	24.674
0.667418	25.689
0.708039	26.989
0.750707	28.166
0.789788	29.268
0.831402	30.32
0.871891	31.509
0.911246	32.413
0.951736	33.478
0.992509	34.754
