Adsorption isotherm of Methane on 467-MOF
DOI: 10.1002/chem.201502615
Article source: Figure 3b- CH4
Adsorbate Methane: InChIKey VNWKTOKETHGBQD-UHFFFAOYSA-N
Kind: experiment
Temperature: 195 K
Tabular data in the source: 0
pressure (bar)	uptake (cm3(STP)/g)
0.002817	6.355
0.006617	11.719
0.010903	17.024
0.019343	26.498
0.028199	35.33
0.04051	43.2
0.050977	50.429
0.063217	57.134
0.075021	63.401
0.087535	68.822
0.10167	73.806
0.127254	82.171
0.163174	90.886
0.193196	96.86
0.224546	101.989
0.255471	106.214
0.298281	111.022
0.339753	114.926
0.380871	118.334
0.420296	121.276
0.462538	123.926
0.501275	126.169
0.542676	128.586
0.58351	130.449
0.626037	132.429
0.666374	134.03
0.705252	135.602
0.746086	137.174
0.788612	138.425
0.826701	140.085
0.869652	141.132
0.911195	142.82
0.952029	144.071
0.989631	145.293
