Adsorption isotherm of Oxygen on 467-MOF
DOI: 10.1002/chem.201502615
Article source: Figure 3b- O2
Adsorbate Oxygen: InChIKey MYMOFIZGZYHOMD-UHFFFAOYSA-N
Kind: experiment
Temperature: 195 K
Tabular data in the source: 0
pressure (bar)	uptake (cm3(STP)/g)
0.009626	2.39
0.030712	4.924
0.047582	6.934
0.063257	9.177
0.080614	10.458
0.096086	11.943
0.13305	16.721
0.166295	20.099
0.209175	24.789
0.249168	28.72
0.289303	32.098
0.328658	35.33
0.370546	38.707
0.411319	41.619
0.452365	44.792
0.492004	47.441
0.532493	50.148
0.572628	52.651
0.614445	54.891
0.654438	57.131
0.695556	59.43
0.736248	61.758
0.776595	63.707
0.816305	65.743
0.858405	67.75
0.898469	69.728
0.938391	71.473
0.978951	73.597
