Adsorption isotherm of Oxygen on 467-MOF
DOI: 10.1002/chem.201502615
Article source: Figure 3c- O2
Adsorbate Oxygen: InChIKey MYMOFIZGZYHOMD-UHFFFAOYSA-N
Kind: experiment
Temperature: 273 K
Tabular data in the source: 0
pressure (bar)	uptake (cm3(STP)/g)
0.011176	0.223
0.02221	0.334
0.036832	0.297
0.048494	0.47
0.059741	0.556
0.070846	0.853
0.092915	0.977
0.115257	1.286
0.136556	1.409
0.17437	1.805
0.206977	2.114
0.252948	2.361
0.292231	2.732
0.332153	3.078
0.373474	3.51
0.413892	3.844
0.453875	4.413
0.494294	4.511
0.535199	5.105
0.575536	5.29
0.616228	5.636
0.657346	5.945
0.697896	6.316
0.737109	6.971
0.777457	7.144
0.820043	7.614
0.860178	7.972
0.900729	8.306
0.940722	8.8
0.983167	9.233
