Adsorption isotherm of Argon on 467-MOF
DOI: 10.1002/chem.201502615
Article source: Figure 3c- Ar
Adsorbate Argon: InChIKey XKRFYHLGVUSROY-UHFFFAOYSA-N
Kind: experiment
Temperature: 273 K
Tabular data in the source: 0
pressure (bar)	uptake (cm3(STP)/g)
0.009626	0.409
0.02144	0.632
0.03823	0.682
0.048991	0.533
0.05967	0.955
0.069509	1.054
0.095793	1.265
0.116807	1.501
0.13993	1.476
0.175768	1.873
0.207676	2.567
0.256666	2.903
0.293427	3.361
0.335872	3.759
0.375227	4.23
0.416273	4.751
0.457037	5.173
0.496746	5.57
0.539333	6.004
0.577988	6.413
0.618964	6.835
0.659443	7.133
0.700146	7.518
0.741253	8.002
0.781803	8.448
0.822566	8.808
0.862418	9.267
0.902411	9.776
0.942748	10.173
0.982954	10.471
