Adsorption isotherm of Argon on 467-MOF
DOI: 10.1002/chem.201502615
Article source: Figure 3a- Ar
Adsorbate Argon: InChIKey XKRFYHLGVUSROY-UHFFFAOYSA-N
Kind: experiment
Temperature: 87 K
Tabular data in the source: 0
pressure (bar)	uptake (cm3(STP)/g)
0	6.716
7.1e-05	53.918
0.000142	23.411
0.000213	165.661
0.000284	188.541
0.000355	172.87
0.000426	203.301
0.000638	208.348
0.000709	217.131
0.00078	216.961
0.002199	230.431
0.003334	236.654
0.003546	241.283
0.004833	247.543
0.008663	253.576
0.021086	268.147
0.028756	274.105
0.039193	280.176
0.052973	286.323
0.065679	290.801
0.077534	294.9
0.099126	300.174
0.132209	306.778
0.156071	310.535
0.195547	316.228
0.218203	318.847
0.256828	322.719
0.298149	325.3
0.339125	327.692
0.363473	328.718
0.384001	329.515
0.404307	330.313
0.425038	330.997
0.444634	331.643
0.465447	332.478
0.485823	333.01
0.505632	333.542
0.526008	333.96
0.546101	334.758
0.566336	335.328
0.586368	336.087
0.60795	336.581
0.62705	336.924
0.647639	337.19
0.668026	338.253
0.688686	338.747
0.708353	338.938
0.729439	339.166
0.74868	339.736
0.769918	339.964
0.789443	340.42
0.809607	340.763
0.830622	341.522
0.849934	342.168
0.870453	342.624
0.890343	342.966
0.911074	343.157
0.920943	343.764
0.931025	343.954
0.942171	344.031
0.952323	344.373
0.962699	344.411
0.972072	344.98
0.982508	345.436
0.992377	346.195
1.0031	346.575
1.00963	350.332
