Adsorption isotherm of Methane on 467-MOF
DOI: 10.1002/chem.201502615
Article source: Figure 3d- CH4
Adsorbate Methane: InChIKey VNWKTOKETHGBQD-UHFFFAOYSA-N
Kind: experiment
Temperature: 293 K
Tabular data in the source: 0
pressure (bar)	uptake (cm3(STP)/g)
0.006546	0.546
0.015412	0.754
0.021957	1.057
0.034339	1.256
0.043701	1.603
0.055455	1.794
0.069033	1.889
0.094931	2.253
0.11625	2.825
0.138562	3.284
0.174168	4.246
0.206814	4.869
0.240667	5.796
0.28373	6.723
0.321595	7.512
0.362764	8.396
0.40378	9.262
0.444807	10.102
0.484637	10.908
0.525309	11.627
0.566265	12.364
0.607859	13.048
0.648105	13.81
0.689628	14.555
0.729733	15.266
0.769847	16.019
0.811218	16.747
0.849296	17.432
0.890809	18.133
0.931126	18.861
0.971666	19.58
