Adsorption isotherm of Nitrogen on 467-MOF
DOI: 10.1002/chem.201502615
Article source: Figure 3c- N2
Adsorbate Nitrogen: InChIKey IJGRMHOSHXDMSA-UHFFFAOYSA-N
Kind: experiment
Temperature: 273 K
Tabular data in the source: 0
pressure (bar)	uptake (cm3(STP)/g)
0.175687	1.755
0.207747	2.386
0.239664	2.299
0.283112	2.682
0.323186	3.04
0.363463	3.299
0.404246	3.707
0.444665	4.152
0.485306	4.486
0.525299	4.782
0.566356	5.103
0.606998	5.425
0.647629	5.622
0.686791	6.055
0.727635	6.277
0.767567	6.672
0.808837	7.08
0.849326	7.463
0.889897	7.859
0.930457	8.378
0.970602	8.811
1.00434	9.107
