Adsorption isotherm of Nitrogen on 467-MOF
DOI: 10.1002/chem.201502615
Article source: Figure 3a- N2
Adsorbate Nitrogen: InChIKey IJGRMHOSHXDMSA-UHFFFAOYSA-N
Kind: experiment
Temperature: 77 K
Tabular data in the source: 0
pressure (bar)	uptake (cm3(STP)/g)
4e-06	38.847
7e-06	38.706
7.1e-05	16.014
0.000213	7.514
0.000223	12.396
0.000223	13.539
0.000294	46.333
0.000365	33.204
0.000436	76.084
0.000507	53.316
0.00073	92.743
0.000871	98.852
0.000942	113.614
0.001013	84.66
0.001084	105.531
0.001084	129.134
0.001155	121.772
0.001236	152.244
0.001236	152.998
0.001236	154.816
0.001307	166.55
0.001449	136.686
0.001449	136.12
0.001591	209.329
0.001591	209.988
0.001601	211.176
0.001672	195.466
0.001672	195.678
0.001885	202.676
0.004296	228.139
0.004661	236.715
0.008491	244.116
0.011754	248.291
0.020488	253.568
0.02986	258.313
0.039375	262.035
0.053571	265.871
0.065851	268.455
0.078132	270.317
0.099572	273.511
0.122715	276.097
0.145999	278.418
0.1751	281.082
0.197462	282.833
0.226421	285.004
0.257234	285.923
0.287398	286.841
0.317786	287.988
0.348801	288.451
0.364284	288.949
0.374923	289.065
0.385217	288.992
0.394803	289.07
0.40531	289.073
0.414825	289.227
0.4244	289.268
0.435616	289.688
0.44506	289.994
0.456064	290.073
0.465791	290.265
0.475802	290.192
0.486015	290.271
0.496239	290.387
0.505895	290.542
0.516332	290.544
0.526627	290.699
0.535776	290.739
0.546709	290.856
0.556578	290.896
0.566518	290.899
0.577097	290.902
0.588171	290.98
0.596541	290.983
0.607261	291.099
0.617272	291.102
0.626857	291.18
0.637932	291.145
0.64851	291.224
0.65766	291.264
0.668664	291.305
0.678533	291.232
0.688899	291.31
0.698839	291.237
0.708981	291.392
0.718921	291.394
0.729358	291.435
0.739652	291.817
0.749592	291.82
0.759958	291.936
0.770384	292.091
0.779969	292.397
0.790406	292.438
0.799566	292.516
0.810215	292.595
0.820216	292.635
0.830794	292.752
0.840308	292.792
0.851029	293.023
0.860969	293.063
0.871334	293.218
0.881913	293.258
0.891771	293.185
0.901924	293.15
0.912219	293.153
0.921662	293.231
0.931319	293.233
0.942312	293.426
0.953033	293.429
0.96198	293.469
0.9727	293.738
0.982569	294.044
0.992934	294.464
1.00336	295.339
1.00982	296.897
