Adsorption isotherm of Hydrogen on 467-MOF
DOI: 10.1002/chem.201502615
Article source: Figure 3a- H2 at 77 K
Adsorbate Hydrogen: InChIKey UFHFLCQGNIYNRP-UHFFFAOYSA-N
Kind: experiment
Temperature: 77 K
Tabular data in the source: 0
pressure (bar)	uptake (cm3(STP)/g)
0	6.79
0.000567	14.34
0.00078	15.021
0.003617	17.942
0.006677	23.252
0.009018	27.348
0.012635	34.593
0.015837	38.879
0.017965	44.038
0.020731	48.931
0.024004	52.458
0.026628	57.162
0.030033	60.689
0.032313	64.33
0.036426	68.009
0.039405	72.675
0.04282	75.292
0.044664	77.378
0.047714	79.388
0.050774	82.574
0.054604	85.229
0.057583	88.642
0.060998	91.107
0.06575	94.028
0.069377	96.493
0.073633	98.806
0.078537	102.296
0.082012	104.457
0.085559	106.505
0.089044	108.364
0.093229	110.374
0.096279	112.384
0.099765	114.166
0.10168	115.342
0.119715	122.547
0.14222	130.434
0.164734	137.525
0.185182	142.91
0.205984	147.535
0.234598	153.715
0.256474	157.657
0.285868	162.661
0.308666	165.959
0.336784	169.901
0.358224	172.591
0.374132	174.6
0.384782	176.382
0.395147	176.684
0.405371	177.593
0.415453	179.223
0.425393	180.132
0.436397	180.928
0.445911	181.799
0.456145	183.353
0.465659	183.921
0.476309	184.565
0.485965	185.853
0.496614	186.156
0.505136	187.634
0.515572	188.467
0.526647	189.718
0.537296	189.603
0.547094	190.361
0.556609	191.308
0.567339	192.369
0.577421	193.126
0.586581	194.111
0.597655	194.679
0.607241	194.944
0.618386	195.322
0.628114	196.534
0.638905	196.837
0.648277	198.201
0.658075	198.504
0.667803	199.489
0.679029	200.17
0.689111	200.321
0.698839	200.509
0.709062	201.343
0.718648	202.252
0.729935	202.744
0.739379	203.046
0.75017	203.69
0.7609	204.713
0.769918	204.978
0.779716	205.545
0.789656	205.886
0.80066	206.453
0.810104	207.097
0.820469	207.703
0.831047	208.271
0.840704	209.446
0.850785	209.938
0.860655	210.316
0.871456	210.884
0.881538	211.11
0.891336	211.412
0.900708	211.791
0.912705	212.055
0.920872	213.23
0.931521	213.343
0.94288	213.683
0.952891	214.25
0.963479	214.515
0.97271	215.576
0.983217	215.613
0.993583	216.143
1.00466	216.483
1.01013	216.975
