Adsorption isotherm of Hydrogen on 467-MOF
DOI: 10.1002/chem.201502615
Article source: Figure 3a- H2 at 87 K
Adsorbate Hydrogen: InChIKey UFHFLCQGNIYNRP-UHFFFAOYSA-N
Kind: experiment
Temperature: 87 K
Tabular data in the source: 0
pressure (bar)	uptake (cm3(STP)/g)
0.002128	3.186
0.00533	5.007
0.007528	7.093
0.009869	8.913
0.01299	11.341
0.016334	13.351
0.019738	16.196
0.023072	17.675
0.025281	20.14
0.02833	22.378
0.031664	24.692
0.034653	27.119
0.037561	28.712
0.040682	30.419
0.044522	32.429
0.047076	33.605
0.050906	36.146
0.055242	38.194
0.059427	40.09
0.062335	41.57
0.065537	43.125
0.069083	44.831
0.073846	47.297
0.077463	49.003
0.082499	51.051
0.085913	52.91
0.090382	54.427
0.09408	56.323
0.098265	57.764
0.102166	59.016
0.121195	65.88
0.144773	73.427
0.166568	79.608
0.194757	86.851
0.21797	91.743
0.246655	98.151
0.268167	101.45
0.297277	106.834
0.328019	111.384
0.358336	115.592
0.373676	117.412
0.384326	118.852
0.395542	120.331
0.404489	121.392
0.415139	122.605
0.424937	123.97
0.436295	125.411
0.446377	126.282
0.456672	127.344
0.466257	128.215
0.476481	129.504
0.486279	129.921
0.496796	131.21
0.507517	131.93
0.517457	133.598
0.5269	134.053
0.537478	135.076
0.546993	135.568
0.557571	136.516
0.567369	137.729
0.57809	138.297
0.587888	139.321
0.598821	139.927
0.607342	140.685
0.616927	140.874
0.627719	141.328
0.6378	142.503
0.648237	143.147
0.658744	144.171
0.668542	145.308
0.678837	146.331
0.688706	146.558
0.698575	146.975
0.710217	147.657
0.720157	148.187
0.729743	149.324
0.738902	149.589
0.74941	150.309
0.760272	151.029
0.77085	151.825
0.780152	151.9
0.791227	153.265
0.801167	153.947
0.811178	154.553
0.820834	154.931
0.831128	155.424
0.841575	155.613
0.852295	156.598
0.862235	156.863
0.870615	157.583
0.882257	158.682
0.891062	158.947
0.901853	159.174
0.912361	159.78
0.921591	160.386
0.93217	160.537
0.942677	161.598
0.953823	161.863
0.961848	163.038
0.972355	163.076
0.982863	163.72
0.993015	164.022
1.00395	164.173
1.0107	165.121
