Adsorption isotherm of Hydrogen on 467-MOF
DOI: 10.1002/chem.201502615
Article source: Figure 3c- H2
Adsorbate Hydrogen: InChIKey UFHFLCQGNIYNRP-UHFFFAOYSA-N
Kind: experiment
Temperature: 273 K
Tabular data in the source: 0
pressure (bar)	uptake (cm3(STP)/g)
0.024885	-0.483
0.037531	-0.533
0.048991	-0.421
0.059326	-0.397
0.070705	-0.063
0.093969	-0.113
0.116108	-0.026
0.137549	-0.026
0.174451	-0.039
0.206571	0.171
0.254366	0.133
0.291684	0.133
0.333369	0.206
0.373788	0.193
0.413984	0.329
0.454899	0.452
0.495733	0.501
0.536354	0.513
0.576772	0.364
0.618447	0.71
0.65844	0.623
0.698433	0.734
0.739277	0.82
0.780253	0.882
0.819537	1.017
0.861637	1.079
0.901073	1.103
0.941492	1.004
0.981829	1.102
