Adsorption isotherm of Nitrogen on 467-MOF
DOI: 10.1002/chem.201502615
Article source: Figure 3d- N2
Adsorbate Nitrogen: InChIKey IJGRMHOSHXDMSA-UHFFFAOYSA-N
Kind: experiment
Temperature: 293 K
Tabular data in the source: 0
pressure (bar)	uptake (cm3(STP)/g)
0.241143	0.806
0.28449	1.286
0.323845	1.34
0.365236	1.449
0.405037	1.667
0.445111	1.983
0.485793	1.95
0.526566	2.048
0.566194	2.2
0.60794	2.429
0.64845	2.549
0.688868	2.69
0.729996	2.974
0.769361	3.279
0.811461	3.486
0.851262	3.66
0.891599	3.9
0.931927	4.151
0.972082	4.467
