Adsorption isotherm of Hydrogen on 467-MOF
DOI: 10.1002/chem.201502615
Article source: Figure 3d- H2
Adsorbate Hydrogen: InChIKey UFHFLCQGNIYNRP-UHFFFAOYSA-N
Kind: experiment
Temperature: 293 K
Tabular data in the source: 0
pressure (bar)	uptake (cm3(STP)/g)
0.008582	0.008
0.029617	0.077
0.041442	0.068
0.052983	0.059
0.069377	0.016
0.094283	0.058
0.11546	0.049
0.136566	0.031
0.17435	0.03
0.205801	0.029
0.255055	0.071
0.292272	0.01
0.33343	0.104
0.374102	0.086
0.415118	0.128
0.454524	0.118
0.496604	0.256
0.535715	0.263
0.577228	0.202
0.617616	0.331
0.657721	0.356
0.698818	0.398
0.739338	0.397
0.780436	0.413
0.818848	0.429
0.86029	0.394
0.900891	0.401
0.943245	0.565
0.982852	0.676
