Adsorption isotherm of Oxygen on 467-MOF
DOI: 10.1002/chem.201502615
Article source: Figure 3a- O2
Adsorbate Oxygen: InChIKey MYMOFIZGZYHOMD-UHFFFAOYSA-N
Kind: experiment
Temperature: 87 K
Tabular data in the source: 0
pressure (bar)	uptake (cm3(STP)/g)
5.1e-05	100.332
6.1e-05	123.527
7.1e-05	5.967
9.1e-05	30.673
0.000203	116.01
0.000324	75.771
0.000334	76.333
0.000365	23.46
0.000375	45.136
0.000385	62.333
0.000395	84.123
0.000446	38.189
0.000456	53.64
0.000557	108.152
0.000567	134.434
0.000578	109.865
0.000608	122.744
0.000638	132.789
0.001186	232.173
0.001236	222.302
0.001256	235.475
0.001388	207.574
0.001429	155.225
0.001439	169.954
0.001459	199.829
0.001479	241.132
0.00152	183.772
0.00154	225.871
0.001581	163.386
0.001601	213.192
0.001611	223.728
0.001723	176.863
0.002472	250.091
0.002969	247.206
0.003405	254.38
0.005401	259.366
0.009342	268.024
0.021339	285.914
0.031624	296.725
0.039233	302.083
0.051048	308.686
0.062852	314.409
0.07649	318.929
0.088771	322.917
0.109441	327.894
0.133293	332.719
0.157226	336.9
0.200674	343.095
0.241711	347.355
0.283599	350.893
0.325628	353.482
0.365104	355.046
0.384559	355.505
0.404368	356.42
0.424177	357.069
0.444411	357.68
0.464717	358.254
0.485093	358.865
0.505328	359.476
0.525775	360.277
0.546152	360.736
0.566599	361.158
0.58576	361.617
0.606633	362.152
0.626229	362.535
0.647173	363.223
0.667691	363.568
0.687642	363.914
0.708586	364.297
0.727757	365.022
0.749268	365.216
0.768013	365.599
0.788319	365.868
0.809192	366.442
0.830206	366.636
0.849661	366.867
0.870888	367.402
0.890343	367.672
0.911216	367.941
0.92222	367.868
0.931663	368.135
0.941178	368.478
0.951472	368.746
0.962192	368.862
0.971555	369.205
0.979012	369.662
0.988881	369.816
0.995204	370.728
1.0013	371.716
1.0099	373.616
