Adsorption isotherm of Carbon Dioxide on 467-MOF
DOI: 10.1002/chem.201502615
Article source: Figure 3d- CO2
Adsorbate Carbon Dioxide: InChIKey CURLTUGMZLYLDI-UHFFFAOYSA-N
Kind: experiment
Temperature: 293 K
Tabular data in the source: 0
pressure (bar)	uptake (cm3(STP)/g)
0.005978	1.473
0.013091	2.522
0.022099	4.237
0.033569	6.04
0.044897	7.764
0.056995	9.445
0.066996	11.109
0.078324	12.721
0.103443	15.893
0.12462	18.882
0.147286	21.655
0.182253	25.936
0.214627	29.584
0.248327	33.206
0.291532	37.47
0.331221	41.144
0.371326	44.593
0.412494	48.016
0.453936	51.196
0.49397	54.211
0.535138	56.872
0.574614	59.359
0.615489	61.88
0.65609	64.185
0.696407	66.352
0.738416	68.588
0.77775	70.511
0.819121	72.487
0.858527	74.151
0.898986	75.91
0.939516	77.574
0.982295	79.324
