Adsorption isotherm of Oxygen on 467-MOF
DOI: 10.1002/chem.201502615
Article source: Figure 3d- O2
Adsorbate Oxygen: InChIKey MYMOFIZGZYHOMD-UHFFFAOYSA-N
Kind: experiment
Temperature: 293 K
Tabular data in the source: 0
pressure (bar)	uptake (cm3(STP)/g)
0.009008	-0.07
0.013223	-0.078
0.023355	-0.165
0.036447	-0.226
0.046792	-0.27
0.057765	-0.115
0.069651	0.11
0.094708	0.101
0.116301	0.152
0.136282	0.42
0.174563	0.652
0.206713	0.92
0.254984	1.204
0.291988	1.333
0.333785	1.487
0.374305	1.685
0.415331	1.978
0.454655	2.237
0.495682	2.426
0.53606	2.632
0.576803	2.787
0.616978	2.976
0.657569	3.104
0.697886	3.406
0.737778	3.621
0.780628	3.828
0.820246	4.104
0.860553	4.405
0.901154	4.647
0.943163	4.914
0.98263	5.189
