Adsorption isotherm of Argon on 467-MOF
DOI: 10.1002/chem.201502615
Article source: Figure 3d- Ar
Adsorbate Argon: InChIKey XKRFYHLGVUSROY-UHFFFAOYSA-N
Kind: experiment
Temperature: 293 K
Tabular data in the source: 0
pressure (bar)	uptake (cm3(STP)/g)
0.009849	0.13
0.026871	0.286
0.036376	0.303
0.047906	0.407
0.058535	0.519
0.069935	0.606
0.095397	0.762
0.116787	0.744
0.139089	0.917
0.177086	1.151
0.223726	1.635
0.265309	1.886
0.304917	2.172
0.346359	2.466
0.386524	2.786
0.427196	2.907
0.468	3.262
0.509087	3.495
0.547783	3.694
0.590411	3.885
0.629816	4.109
0.671319	4.343
0.710795	4.611
0.75174	4.853
0.79226	5.13
0.833347	5.407
0.872884	5.658
0.913556	5.909
0.952455	6.134
0.994667	6.437
