Adsorption isotherm of Carbon Dioxide on 467-MOF
DOI: 10.1002/chem.201502615
Article source: Figure 3c- CO2
Adsorbate Carbon Dioxide: InChIKey CURLTUGMZLYLDI-UHFFFAOYSA-N
Kind: experiment
Temperature: 273 K
Tabular data in the source: 0
pressure (bar)	uptake (cm3(STP)/g)
0.006465	2.437
0.012088	4.54
0.021785	7.955
0.033103	11.382
0.044208	14.908
0.055242	18.001
0.066277	21.279
0.077666	24.298
0.088416	27.341
0.112238	33.291
0.134094	38.636
0.155889	43.547
0.178028	47.976
0.214434	54.866
0.246757	60.334
0.288432	66.792
0.329833	72.259
0.371083	76.972
0.410721	81.363
0.451839	85.346
0.492531	88.871
0.532736	92.062
0.57427	95.093
0.614192	97.678
0.655654	100.225
0.696417	102.6
0.735853	104.776
0.776545	106.767
0.816669	108.857
0.857858	110.588
0.899391	112.406
0.939668	114.174
0.980076	115.695
