Adsorption isotherm of Carbon Dioxide on 467-MOF
DOI: 10.1002/chem.201502615
Article source: Figure 3b- CO2
Adsorbate Carbon Dioxide: InChIKey CURLTUGMZLYLDI-UHFFFAOYSA-N
Kind: experiment
Temperature: 195 K
Tabular data in the source: 0
pressure (bar)	uptake (cm3(STP)/g)
0	36.381
7.1e-05	48.479
0.000142	12.506
0.000496	57.021
0.000628	66.116
0.001479	75.736
0.002178	84.977
0.002878	93.81
0.003019	102.555
0.004144	111.068
0.005269	119.084
0.006819	126.809
0.008359	134.301
0.011318	140.714
0.017215	152.462
0.025655	161.906
0.03591	170.097
0.046944	177.034
0.059245	182.863
0.072113	187.731
0.085397	192.394
0.099795	196.474
0.128683	203.934
0.163691	211.656
0.193835	217.338
0.224273	222.204
0.255754	226.895
0.298838	232.022
0.338263	236.42
0.380293	240.585
0.420357	244.371
0.461748	247.749
0.502724	250.865
0.542291	253.427
0.583966	255.697
0.625581	257.647
0.666344	258.984
0.705911	260.468
0.74716	261.572
0.788136	262.647
0.826792	263.693
0.869034	264.535
0.909088	265.377
0.948595	266.394
0.989358	267.236
