Adsorption isotherm of Nitrogen on CCOF-2
DOI: 10.1021/jacs.6b07714
Article source: Figure 3C
Adsorbate Nitrogen: InChIKey IJGRMHOSHXDMSA-UHFFFAOYSA-N
Kind: experiment
Temperature: 77 K
Tabular data in the source: 0
pressure (bar)	uptake (cm3(STP)/g)
0.004568	6.464
0.002181	15.3912
0.002103	25.4285
0.002017	36.5811
0.004249	47.7286
0.008801	58.871
0.008689	73.3694
0.013283	78.9355
0.045658	90.0167
0.089662	96.6113
0.115141	99.9009
0.159179	102.034
0.191641	101.963
0.22874	101.881
0.268132	105.14
0.301753	105.066
0.335331	110.569
0.37243	110.487
0.411856	109.285
0.43968	109.224
0.479081	111.367
0.516163	113.516
0.546314	112.335
0.583405	113.368
0.618159	116.637
0.648302	116.571
0.68772	116.484
0.724802	118.633
0.759556	121.902
0.794311	125.172
0.833685	130.661
0.866112	135.051
0.905478	141.656
0.930898	152.752
0.974737	180.537
1.00373	328.8
0.042687	136.529
0.089867	135.529
0.125814	137.813
0.170747	143.426
0.206694	143.504
0.231407	142.455
0.278588	145.866
0.312288	143.734
0.332508	144.881
0.372948	146.072
0.397661	147.228
0.429115	143.988
0.480788	142.998
0.516735	155.208
0.557175	154.193
0.584135	153.149
0.626822	153.242
0.651535	154.399
0.694222	154.492
0.741402	155.697
0.757129	154.629
0.804309	159.143
0.853736	161.457
0.889683	165.947
0.936863	187.005
0.98629	223.51
1.011	331.652
