Adsorption isotherm of Nitrogen on CCOF-1
DOI: 10.1021/jacs.6b07714
Article source: Figure 3A
Adsorbate Nitrogen: InChIKey IJGRMHOSHXDMSA-UHFFFAOYSA-N
Kind: experiment
Temperature: 77 K
Tabular data in the source: 0
pressure (bar)	uptake (cm3(STP)/g)
0.01354	12.7421
0.018053	21.2242
0.018053	28.8513
0.01354	36.4709
0.02031	44.1093
0.022567	47.5029
0.049647	54.3279
0.049647	55.1753
0.072214	59.4504
0.094781	64.5729
0.164738	69.7746
0.214385	73.2475
0.259518	78.4078
0.313679	81.8882
0.367839	82.8262
0.410716	88.8302
0.464876	91.4631
0.521293	98.3372
0.56417	98.4089
0.620587	102.741
0.667978	106.21
0.719881	111.381
0.771785	113.163
0.814662	120.014
0.864309	132.809
0.918469	147.307
0.963603	177.043
1.00874	238.983
0.010051	81.3302
0.047809	86.9757
0.098442	89.3676
0.210195	95.7646
0.309392	99.7393
0.406382	105.337
0.511971	108.496
0.604867	111.665
0.705951	119.692
0.800643	128.535
0.912955	162.5
0.980809	234.607
