Adsorption isotherm of Hydrogen on MPF-1
DOI: 10.1063/1.3655373
Adsorbate Hydrogen: InChIKey UFHFLCQGNIYNRP-UHFFFAOYSA-N
Temperature: 300 K
Tabular data in the source: 0
pressure (bar)	uptake (wt%)
2.94574	0.0221814
4.96124	0.0369713
7.0155	0.050898
8.99225	0.0648213
9.96124	0.0713497
