Adsorption isotherm of Hydrogen on MPF-3
DOI: 10.1063/1.3655373
Adsorbate Hydrogen: InChIKey UFHFLCQGNIYNRP-UHFFFAOYSA-N
Temperature: 300 K
Tabular data in the source: 0
pressure (bar)	uptake (wt%)
0.620155	0.00521601
1.00775	0.00825979
1.97674	0.0165179
2.9845	0.0239128
5	0.04
6.97674	0.0552206
8.95349	0.0700088
10	0.0774054
