Adsorption isotherm of Hydrogen on IRMOF-1
DOI: 10.1063/1.3655373
Adsorbate Hydrogen: InChIKey UFHFLCQGNIYNRP-UHFFFAOYSA-N
Temperature: 77 K
Tabular data in the source: 0
pressure (bar)	uptake (wt%)
0.0772201	0.127413
0.19305	0.254703
0.30888	0.381993
0.694981	0.763739
0.888031	0.954613
1.04247	1.04986
2.00772	1.74891
2.97297	2.3203
5.01931	3.14356
6.98842	3.74365
8.99614	4.15214
9.96139	4.27672
