Adsorption isotherm of Hydrogen on MPF-3
DOI: 10.1063/1.3655373
Adsorbate Hydrogen: InChIKey UFHFLCQGNIYNRP-UHFFFAOYSA-N
Temperature: 300 K
Tabular data in the source: 0
pressure (bar)	uptake (wt%)
0.340933	0.720419
1.01932	1.51179
1.99792	2.41032
3.05025	3.09209
5.00319	4.09535
7.02929	4.77361
9.055	5.3797
10.0676	5.62862
