Adsorption isotherm of Hydrogen on IRMOF-10
DOI: 10.1063/1.3655373
Adsorbate Hydrogen: InChIKey UFHFLCQGNIYNRP-UHFFFAOYSA-N
Temperature: 300 K
Tabular data in the source: 0
pressure (bar)	uptake (wt%)
1.08527	0.00774194
1.97674	0.0133333
2.9845	0.0202151
5	0.0326882
7.0155	0.0451613
8.99225	0.0576344
10	0.0636559
