Adsorption isotherm of Hydrogen on MPF-5
DOI: 10.1063/1.3655373
Adsorbate Hydrogen: InChIKey UFHFLCQGNIYNRP-UHFFFAOYSA-N
Temperature: 300 K
Tabular data in the source: 0
pressure (bar)	uptake (wt%)
0.0764494	0.288384
0.152706	0.540686
0.266221	0.756771
0.455028	1.04475
0.71874	1.33246
0.90716	1.54827
0.982644	1.65625
1.99888	2.59073
2.97631	3.27277
4.88851	3.66277
5.00415	4.27576
7.03064	5.02618
9.01851	5.56024
10.0683	5.77295
