Adsorption isotherm of Hydrogen on IRMOF-1
DOI: 10.1063/1.3655373
Adsorbate Hydrogen: InChIKey UFHFLCQGNIYNRP-UHFFFAOYSA-N
Temperature: 300 K
Tabular data in the source: 0
pressure (bar)	uptake (wt%)
0.152091	0.00031746
0.304183	0.0015873
0.532319	0.00285714
0.760456	0.00380952
0.95057	0.00444444
1.02662	0.00507937
2.01521	0.0101587
3.0038	0.0149206
5.01901	0.0244444
6.9962	0.0339683
8.97338	0.0431746
10	0.0479365
