Adsorption isotherm of Hydrogen on MPF-5
DOI: 10.1063/1.3655373
Adsorbate Hydrogen: InChIKey UFHFLCQGNIYNRP-UHFFFAOYSA-N
Temperature: 300 K
Tabular data in the source: 0
pressure (bar)	uptake (wt%)
0.0387597	0.000866541
0.232558	0.00173979
0.465116	0.00347957
0.736434	0.00565347
0.930233	0.00695915
1.00775	0.00782736
1.97674	0.0152206
2.9845	0.0221831
5	0.0365405
6.97674	0.0504639
8.95349	0.0643872
9.96124	0.0704848
