Adsorption isotherm of Hydrogen on MPF-4
DOI: 10.1063/1.3655373
Adsorbate Hydrogen: InChIKey UFHFLCQGNIYNRP-UHFFFAOYSA-N
Temperature: 300 K
Tabular data in the source: 0
pressure (bar)	uptake (wt%)
1.97674	0.0141935
2.9845	0.0219355
5	0.036129
6.97674	0.0494624
8.95349	0.0627957
9.96124	0.0692473
