Adsorption isotherm of Hydrogen on IRMOF-10
DOI: 10.1063/1.3655373
Adsorbate Hydrogen: InChIKey UFHFLCQGNIYNRP-UHFFFAOYSA-N
Temperature: 300 K
Tabular data in the source: 0
pressure (bar)	uptake (wt%)
0.489778	0.53947
0.97859	0.898531
1.99425	1.72476
3.00875	2.3345
4.99875	3.26547
7.06249	3.97967
9.05075	4.5859
10.0631	4.79874
