Adsorption isotherm of Hydrogen on MPF-2
DOI: 10.1063/1.3655373
Adsorbate Hydrogen: InChIKey UFHFLCQGNIYNRP-UHFFFAOYSA-N
Temperature: 300 K
Tabular data in the source: 0
pressure (bar)	uptake (wt%)
0.978976	0.970694
2.03112	1.61638
3.04485	2.0818
5.03369	2.79627
7.05902	3.3302
9.04631	3.75602
10.0587	3.96886
