Adsorption isotherm of Hydrogen on MPF-1
DOI: 10.1063/1.3655373
Adsorbate Hydrogen: InChIKey UFHFLCQGNIYNRP-UHFFFAOYSA-N
Temperature: 300 K
Tabular data in the source: 0
pressure (bar)	uptake (wt%)
0.264098	0.359872
0.452904	0.64785
0.679164	0.935694
0.904844	1.11529
0.980328	1.22327
1.99598	2.0495
3.01068	2.69532
5.00068	3.62629
7.02716	4.37671
9.05268	4.94672
10.0653	5.19564
