Adsorption isotherm of Hydrogen on MPF-4
DOI: 10.1063/1.3655373
Adsorbate Hydrogen: InChIKey UFHFLCQGNIYNRP-UHFFFAOYSA-N
Temperature: 300 K
Tabular data in the source: 0
pressure (bar)	uptake (wt%)
0.189579	0.432306
0.491708	0.900288
0.680322	1.15218
0.906388	1.40395
1.99753	2.33815
3.01222	2.98398
5.00222	3.91494
7.06597	4.62914
9.05384	5.16321
10.0288	5.37618
