Adsorption isotherm of Hydrogen on MPF-2
DOI: 10.1063/1.3655373
Adsorbate Hydrogen: InChIKey UFHFLCQGNIYNRP-UHFFFAOYSA-N
Temperature: 300 K
Tabular data in the source: 0
pressure (bar)	uptake (wt%)
0.968992	0.0055914
2.0155	0.0116129
2.9845	0.0163441
4.96124	0.0266667
7.0155	0.0374194
8.99225	0.0477419
10	0.0524731
