Adsorption isotherm of Argon on Carbon
DOI: 10.1016/j.jcis.2005.02.039
Adsorbate Argon: InChIKey XKRFYHLGVUSROY-UHFFFAOYSA-N
Temperature: 87 K
Tabular data in the source: 0
pressure (bar)	uptake (mmol/g)
0.00365018	0.00374528
0.00719567	0.0640478
0.0211292	0.163678
0.0429779	0.217426
0.0779359	0.292149
0.126003	0.338031
0.200289	0.369493
0.344491	0.397023
0.466843	0.410132
0.637264	0.429796
1.01306	0.456014
1.33642	0.475678
1.78651	0.500586
1.95693	0.515006
