Adsorption isotherm of Argon on Carbon
DOI: 10.1016/j.jcis.2005.02.039
Adsorbate Argon: InChIKey XKRFYHLGVUSROY-UHFFFAOYSA-N
Temperature: 77 K
Tabular data in the source: 0
pressure (bar)	uptake (micromoles/m2)
0.00801993	0.202863
0.0123897	6.75748
0.0211292	10.6903
0.160961	11.8919
0.270205	12.2197
0.375079	13.0936
0.471213	13.3121
0.554238	14.0768
0.70718	16.0432
0.777096	18.0096
0.847012	20.0852
0.964995	21.8331
1.11357	23.144
1.32768	24.455
1.41945	25.4382
1.51121	27.4045
1.63357	29.9171
1.73844	32.7575
1.81273	35.0516
1.89138	36.144
1.97878	37.3457
