Adsorption isotherm of Argon on Carbon
DOI: 10.1016/j.jcis.2005.02.039
Adsorbate Argon: InChIKey XKRFYHLGVUSROY-UHFFFAOYSA-N
Temperature: 77 K
Tabular data in the source: 0
pressure (bar)	uptake (mol/g)
2.86e-05	0.000102
4.5e-05	0.000128
8.03e-05	0.000161
0.00012	0.000196
0.000237	0.000234
0.000363	0.000268
0.000994	0.000319
0.00278779	0.000373
0.00762491	0.000415
0.0203369	0.000478
0.0391128	0.000531
0.0791045	0.000653
0.148358	0.000878
