Adsorption isotherm of Argon on Carbon
DOI: 10.1016/j.jcis.2005.02.039
Adsorbate Argon: InChIKey XKRFYHLGVUSROY-UHFFFAOYSA-N
Temperature: 87 K
Tabular data in the source: 0
pressure (bar)	uptake (micromoles/m2)
0.000124	0.202829
0.000278	0.458226
0.000433	0.720639
0.000563	1.13333
0.000969	2.41039
0.00147793	4.75385
0.00203932	6.7267
0.00292952	8.4357
0.00535773	9.95915
0.0104084	10.7398
0.123692	13.0679
0.196495	14.7449
0.448405	23.1889
0.606405	27.3767
0.787727	40.5324
1.02327	82.389
