Adsorption isotherm of Argon on Carbon
DOI: 10.1016/j.jcis.2005.02.039
Adsorbate Argon: InChIKey XKRFYHLGVUSROY-UHFFFAOYSA-N
Temperature: 87 K
Tabular data in the source: 0
pressure (bar)	uptake (micromoles/m2)
0.000115	0.169229
0.000262	0.406109
0.000369	0.638677
0.000622	1.27877
0.00100833	2.80307
0.00128374	5.04968
0.00163437	6.62594
0.00208077	8.30934
0.00474836	9.23526
0.0202203	10.7398
0.0599405	11.5816
0.13139	13.6732
0.204564	14.9691
0.24518	17.147
0.318492	22.8416
0.422135	23.8996
0.559506	27.7931
0.888818	50.0687
