Adsorption isotherm of Argon on Carbon
DOI: 10.1016/j.jcis.2005.02.039
Adsorbate Argon: InChIKey XKRFYHLGVUSROY-UHFFFAOYSA-N
Temperature: 77 K
Tabular data in the source: 0
pressure (bar)	uptake (micromoles/m2)
0.00801993	0.202863
0.0123897	6.75748
0.0123897	10.4718
0.0473477	12.2197
0.17407	13.0936
0.322642	13.6398
0.52365	14.4045
0.69844	15.497
0.842642	17.1356
0.956255	20.4129
1.03491	23.4718
1.14852	25.1104
1.32331	27.0768
1.44567	28.497
1.56365	30.1356
1.65978	32.4298
1.81273	36.2533
1.98315	39.5306
