Adsorption isotherm of Argon on Carbon
DOI: 10.1016/j.jcis.2005.02.039
Adsorbate Argon: InChIKey XKRFYHLGVUSROY-UHFFFAOYSA-N
Temperature: 77 K
Tabular data in the source: 0
pressure (bar)	uptake (mmol/g)
0.000913	0.00589891
0.00965204	0.28884
0.0172991	0.339311
0.036963	0.391311
0.0686436	0.42037
0.130913	0.450958
0.184442	0.467781
0.220492	0.476958
0.262005	0.501428
0.311165	0.512134
0.347215	0.524369
0.406207	0.539664
0.453181	0.55037
0.500156	0.568722
