Adsorption isotherm of Argon on Carbon
DOI: 10.1016/j.jcis.2005.02.039
Adsorbate Argon: InChIKey XKRFYHLGVUSROY-UHFFFAOYSA-N
Temperature: 87 K
Tabular data in the source: 0
pressure (bar)	uptake (micromoles/m2)
0.0320797	0.312107
0.0845167	5.44656
0.0845167	9.81631
0.136954	11.2365
0.486533	12.4382
1.11578	13.4214
1.81494	14.1861
2.35679	15.1692
3.0909	17.9003
3.66771	20.4129
4.262	23.3625
4.85628	25.4382
5.46805	27.4045
5.8351	28.7155
6.342	30.5726
6.74401	32.8667
7.23342	36.4718
7.89763	41.497
