Adsorption isotherm of Argon on Carbon
DOI: 10.1016/j.jcis.2005.02.039
Adsorbate Argon: InChIKey XKRFYHLGVUSROY-UHFFFAOYSA-N
Temperature: 87 K
Tabular data in the source: 0
pressure (bar)	uptake (micromoles/m2)
0.0557535	0.374528
0.114745	9.02663
0.213064	10.993
0.861972	12.1728
1.53054	13.3527
1.98281	14.7947
2.37609	16.7611
2.78903	19.1207
3.4576	21.3493
4.02785	23.0535
4.71609	24.7577
5.5813	26.9863
5.95491	28.9527
6.32853	31.3123
6.93811	35.114
7.33138	37.4737
7.90164	40.3577
8.27525	42.5863
8.60954	46.5191
9.02248	50.1897
