Adsorption isotherm of Argon on Carbon
DOI: 10.1016/j.jcis.2005.02.039
Adsorbate Argon: InChIKey XKRFYHLGVUSROY-UHFFFAOYSA-N
Temperature: 77 K
Tabular data in the source: 0
pressure (bar)	uptake (mmol/g)
0.000913	0.00589891
0.00965204	0.28884
0.019484	0.348487
0.0325932	0.386722
0.054442	0.409664
0.0893999	0.429546
0.124358	0.443311
0.185534	0.460134
0.252173	0.478487
0.311165	0.49684
0.360324	0.52284
0.414946	0.544252
0.495786	0.587075
