Adsorption isotherm of Argon on Carbon
DOI: 10.1016/j.jcis.2005.02.039
Adsorbate Argon: InChIKey XKRFYHLGVUSROY-UHFFFAOYSA-N
Temperature: 87 K
Tabular data in the source: 0
pressure (bar)	uptake (mmol/g)
0.00365018	0.00374528
0.00719567	0.0640478
0.0211292	0.163678
0.0429779	0.217426
0.0779359	0.264619
0.165331	0.319678
0.191549	0.330165
0.34886	0.366871
0.458104	0.390468
0.584827	0.404888
0.685331	0.417997
0.951885	0.442905
1.20096	0.467813
1.60298	0.497964
1.95256	0.522871
