Adsorption isotherm of Argon on Carbon
DOI: 10.1016/j.jcis.2005.02.039
Adsorbate Argon: InChIKey XKRFYHLGVUSROY-UHFFFAOYSA-N
Temperature: 87 K
Tabular data in the source: 0
pressure (bar)	uptake (mmol/g)
0.00365018	0.00374528
0.00719567	0.0640478
0.0211292	0.163678
0.0604569	0.239712
0.121633	0.292149
0.17844	0.328855
0.222138	0.341964
0.475583	0.389157
0.637264	0.408821
0.855751	0.429796
1.166	0.453392
1.41945	0.480922
1.7297	0.508451
1.9613	0.529426
