Adsorption isotherm of Argon on Carbon
DOI: 10.1016/j.jcis.2005.02.039
Adsorbate Argon: InChIKey XKRFYHLGVUSROY-UHFFFAOYSA-N
Temperature: 87 K
Tabular data in the source: 0
pressure (bar)	uptake (mol/g)
0.000969	0.000102
0.00137841	0.000129
0.00245832	0.000173
0.00438428	0.000221
0.00822257	0.000272
0.0146645	0.000316
0.0336335	0.000368
0.0697556	0.000415
0.141079	0.000478
0.251607	0.000564
0.323568	0.00063
