Adsorption isotherm of Argon on Carbon
DOI: 10.1016/j.jcis.2005.02.039
Adsorbate Argon: InChIKey XKRFYHLGVUSROY-UHFFFAOYSA-N
Temperature: 87 K
Tabular data in the source: 0
pressure (bar)	uptake (micromoles/m2)
0.0320797	0.312107
0.0845167	5.44656
0.0845167	9.81631
0.136954	11.2365
0.486533	12.4382
1.11578	13.4214
2.00721	15.1692
2.47914	18.1188
2.98603	21.6146
3.61527	23.0348
4.73393	25.7659
5.11847	26.7491
5.73023	29.2617
6.06233	30.5726
6.53426	34.3961
7.07611	37.8919
7.583	40.8415
7.96754	42.5894
