Adsorption isotherm of Argon on Carbon
DOI: 10.1016/j.jcis.2005.02.039
Adsorbate Argon: InChIKey XKRFYHLGVUSROY-UHFFFAOYSA-N
Temperature: 77 K
Tabular data in the source: 0
pressure (bar)	uptake (micromoles/m2)
0.00801993	0.202863
0.0123897	6.75748
0.0211292	10.6903
0.0691964	11.7827
0.226507	12.7659
0.3576	13.8583
0.488692	15.1692
0.584827	18.1188
0.624154	20.1945
0.69844	22.0516
0.829533	23.3625
1.01306	24.1272
1.09609	24.5642
1.166	25.6566
1.2971	28.1693
1.38449	30.4634
1.49373	32.6482
1.64231	35.3793
1.7734	37.018
1.86079	38.4382
1.98315	41.2785
