Adsorption isotherm of Argon on Carbon
DOI: 10.1016/j.jcis.2005.02.039
Adsorbate Argon: InChIKey XKRFYHLGVUSROY-UHFFFAOYSA-N
Temperature: 77 K
Tabular data in the source: 0
pressure (bar)	uptake (mmol/g)
0.000913	0.00589891
0.00965204	0.28884
0.0151142	0.346958
0.0205764	0.391311
0.0304083	0.42037
0.0435176	0.441781
0.0730134	0.455546
0.137467	0.481546
0.21066	0.49684
0.288223	0.513664
0.384358	0.530487
0.496879	0.556487
