Adsorption isotherm of Argon on Carbon
DOI: 10.1016/j.jcis.2005.02.039
Adsorbate Argon: InChIKey XKRFYHLGVUSROY-UHFFFAOYSA-N
Temperature: 87 K
Tabular data in the source: 0
pressure (bar)	uptake (micromoles/m2)
0.0557535	0.374528
0.0557535	6.79806
0.0557535	10.0754
0.173737	11.7796
0.684997	12.9594
1.96315	14.6636
2.7497	16.4989
3.39861	19.6451
3.89021	21.8737
4.49979	24.8888
5.38466	27.1174
5.95491	29.0838
6.46617	31.4434
7.03643	35.6384
7.58701	39.5712
8.11794	43.2418
8.58987	47.1745
8.92416	52.0249
