Adsorption isotherm of Carbon Dioxide on C80H91.33CdCl6N6O20.67
DOI: 10.1039/B505916j
Adsorbate Carbon Dioxide: InChIKey CURLTUGMZLYLDI-UHFFFAOYSA-N
Temperature: 273 K
Tabular data in the source: 0
pressure (bar)	uptake (ml/g)
0.0136297	0.602353
0.0233475	1.25974
0.0350319	1.75254
0.0428001	2.3552
0.0525265	2.90294
0.0661562	3.50529
0.0875841	4.32653
0.103138	5.31255
0.128482	6.02394
0.15383	6.6805
0.179183	7.28223
0.204536	7.88397
0.229893	8.43088
0.253296	8.97789
0.278644	9.63445
0.30401	10.0717
0.329354	10.7831
0.350696	12.7008
0.377986	13.5218
0.405284	14.233
0.428678	14.8897
0.457969	15.1075
0.481398	15.3255
0.50678	15.5435
0.557567	15.7053
0.604425	16.1414
0.655199	16.4677
0.70794	16.6294
0.754823	16.7366
0.803622	17.3371
0.858304	17.6631
0.905119	18.6475
0.955751	20.783
1.00067	21
