Adsorption isotherm of Carbon Dioxide on Carbon
DOI: 10.1021/Jp106547j
Adsorbate Carbon Dioxide: InChIKey CURLTUGMZLYLDI-UHFFFAOYSA-N
Temperature: 298 K
Tabular data in the source: 0
pressure (bar)	uptake (mmol/cm3)
3.16262	0.167118
9.94164	0.613509
30.7135	1.22215
49.2354	2.1127
64.5959	2.89232
79.9628	3.95283
99.8525	5.46074
140.577	10.3863
180.365	13.7953
250.826	16.6288
