Adsorption isotherm of Carbon Dioxide on Carbon
DOI: 10.1021/Jp106547j
Adsorbate Carbon Dioxide: InChIKey CURLTUGMZLYLDI-UHFFFAOYSA-N
Temperature: 340 K
Tabular data in the source: 0
pressure (bar)	uptake (mmol/cm3)
20.7795	0.945717
38.8564	2.11737
50.6069	2.8986
58.7575	4.1309
66.0042	5.30741
69.7601	11.7664
75.2702	15.9774
101.484	17.7634
140.314	18.701
180.047	19.6944
250.465	20.6178
