Adsorption isotherm of Carbon Dioxide on Carbon
DOI: 10.1021/Jp106547j
Adsorbate Carbon Dioxide: InChIKey CURLTUGMZLYLDI-UHFFFAOYSA-N
Temperature: 298 K
Tabular data in the source: 0
pressure (bar)	uptake (mmol/g)
8.3499	11.4548
10.835	12.8997
19.9801	17.1525
28.0318	21.0645
32.4056	23.5295
34.5924	25.2281
37.2763	28.1988
40.4573	30.916
43.4394	32.0228
47.1173	32.707
51.2922	33.4768
56.7594	33.7403
