Adsorption isotherm of Carbon Dioxide on Carbon
DOI: 10.1021/Jp106547j
Adsorbate Carbon Dioxide: InChIKey CURLTUGMZLYLDI-UHFFFAOYSA-N
Temperature: 320 K
Tabular data in the source: 0
pressure (bar)	uptake (mmol/cm3)
30.2648	1.33471
48.3418	2.50636
64.6086	3.45411
79.5369	5.07661
99.9361	9.16857
140.238	15.3302
180.448	17.447
250.416	18.4268
