Adsorption isotherm of Carbon Dioxide on Carbon
DOI: 10.1021/Jp106547j
Adsorbate Carbon Dioxide: InChIKey CURLTUGMZLYLDI-UHFFFAOYSA-N
Temperature: 298 K
Tabular data in the source: 0
pressure (bar)	uptake (mmol/g)
19.0855	14.9476
20.0795	15.2883
23.3598	15.9718
26.0437	16.4001
27.9324	16.7423
30.0199	16.7458
32.1074	16.9188
34.6918	17.0927
37.2763	17.1818
39.9602	17.3559
43.4394	17.5313
47.0179	17.5373
51.2922	17.7141
56.7594	17.8928
