Adsorption isotherm of Carbon Dioxide on Carbon
DOI: 10.1021/Jp106547j
Adsorbate Carbon Dioxide: InChIKey CURLTUGMZLYLDI-UHFFFAOYSA-N
Temperature: 298 K
Tabular data in the source: 0
pressure (bar)	uptake (mmol/g)
4.67197	7.55029
5.86481	7.97604
9.64215	8.32143
12.2266	8.58005
15.6064	8.75527
19.0855	8.84591
24.5527	9.10941
30.2187	9.11901
34.5924	9.21117
37.5746	9.30097
40.2584	9.22078
43.5388	9.39583
47.3161	9.48698
51.2922	9.32422
56.5606	9.4179
