Adsorption isotherm of Carbon Dioxide on Carbon
DOI: 10.1021/Jp106547j
Adsorbate Carbon Dioxide: InChIKey CURLTUGMZLYLDI-UHFFFAOYSA-N
Temperature: 298 K
Tabular data in the source: 0
pressure (bar)	uptake (mmol/g)
1.88867	3.47778
4.17495	3.5664
8.64811	3.74347
12.4254	3.83462
15.8052	3.92509
20.2783	3.93268
24.7515	4.025
28.33	4.03107
32.505	4.03814
37.3757	3.96165
40.0596	4.05095
43.4394	4.14142
47.0179	4.14749
51.2922	4.06999
56.8588	4.16417
