Adsorption isotherm of Carbon Dioxide on Carbon
DOI: 10.1021/Jp106547j
Adsorbate Carbon Dioxide: InChIKey CURLTUGMZLYLDI-UHFFFAOYSA-N
Temperature: 298 K
Tabular data in the source: 0
pressure (bar)	uptake (mmol/g)
11.5308	11.206
13.9165	11.6338
16.7992	12.1471
20.3777	12.5769
24.5527	12.7535
28.1312	13.0138
29.8211	12.8472
34.7913	13.2793
37.3757	13.2837
40.0596	13.1187
43.4394	13.3787
47.0179	13.4695
51.2922	13.4768
56.8588	13.4862
