Adsorption isotherm of Carbon Dioxide on Carbon
DOI: 10.1021/Jp106547j
Adsorbate Carbon Dioxide: InChIKey CURLTUGMZLYLDI-UHFFFAOYSA-N
Temperature: 298 K
Tabular data in the source: 0
pressure (bar)	uptake (mmol/g)
6.75944	8.90976
9.54274	10.6094
12.326	12.0548
15.8052	13.5861
17.8926	14.8608
20.2783	15.8818
23.0616	17.3272
26.4414	19.0279
28.0318	19.6238
30.2187	19.9665
32.3062	20.4785
34.5924	20.6519
37.3757	21.0803
40.0596	21.0848
43.4394	21.4296
47.0179	21.7746
51.2922	21.7819
56.66	21.8757
