Adsorption isotherm of Carbon Dioxide on Carbon
DOI: 10.1021/Jp106547j
Adsorbate Carbon Dioxide: InChIKey CURLTUGMZLYLDI-UHFFFAOYSA-N
Temperature: 298 K
Tabular data in the source: 0
pressure (bar)	uptake (mmol/g)
9.54274	11.1179
12.326	12.3938
15.9046	13.9253
17.8926	14.8608
20.2783	15.8818
23.0616	17.3272
26.4414	19.0279
28.2306	20.5563
30.1193	21.8307
32.1074	22.851
34.5924	23.5332
37.4751	23.8771
40.0596	24.6442
43.4394	24.9041
47.1173	25.2494
51.2922	25.5954
56.66	25.774
