Adsorption isotherm of Carbon Dioxide on Carbon
DOI: 10.1021/Jp106547j
Adsorbate Carbon Dioxide: InChIKey CURLTUGMZLYLDI-UHFFFAOYSA-N
Temperature: 298 K
Tabular data in the source: 0
pressure (bar)	uptake (mmol/g)
8.4493	10.8618
13.6183	13.4977
17.7932	15.4539
21.67	17.0706
24.5527	18.3467
28.2306	20.5563
29.8211	21.7455
32.1074	23.529
34.5924	24.8891
37.3757	26.9278
40.0596	28.034
43.4394	28.6329
47.0179	29.0627
51.3917	29.5786
56.5606	29.9264
