Adsorption isotherm of Carbon Dioxide on Carbon
DOI: 10.1021/Jp106547j
Adsorbate Carbon Dioxide: InChIKey CURLTUGMZLYLDI-UHFFFAOYSA-N
Temperature: 298 K
Tabular data in the source: 0
pressure (bar)	uptake (mmol/g)
3.08151	5.34421
5.36779	5.85656
9.84095	6.45736
12.326	6.63106
15.6064	6.72137
19.0855	6.81201
24.6521	6.99094
30.2187	7.08512
34.5924	7.17728
37.0775	7.012
40.2584	7.18688
43.34	7.27685
47.2167	7.28342
51.2922	7.20558
56.66	7.38417
