Adsorption isotherm of Methane on Zeolite 13X
DOI: 10.1080/01496395.2017.1345942
Article source: Figure 3
Adsorbate Methane: InChIKey VNWKTOKETHGBQD-UHFFFAOYSA-N
Kind: experiment
Temperature: 298 K
Tabular data in the source: 0
pressure (bar)	uptake (mmol/g)
0.1335	0.122
0.3257	0.2327
0.5478	0.3881
0.7379	0.5266
0.945	0.6481
1.1372	0.7727
1.3508	0.8865
1.5451	1.0112
1.7608	1.1127
2.0085	1.2296
2.2221	1.2927
2.4804	1.3527
2.7452	1.4004
3.0015	1.4588
3.2513	1.5403
3.467	1.625
3.6763	1.7373
3.8941	1.8465
4.1247	1.9511
4.366	2.0465
4.5796	2.1618
4.8124	2.2588
5.0451	2.3495
5.2928	2.4064
5.5533	2.4588
5.8117	2.5111
6.0551	2.5634
6.3049	2.6357
6.5356	2.7264
6.7876	2.8018
7.0288	2.871
7.3064	2.9064
7.5648	2.9172
7.8189	2.948
8.0836	2.9772
8.3335	3.0403
8.5769	3.1172
8.8246	3.1787
9.0595	3.2433
9.3264	3.2956
9.6702	3.3356
9.826	3.371
