Adsorption isotherm of Carbon Dioxide on Zeolite 13X
DOI: 10.1080/01496395.2017.1345942
Article source: Figure 3
Adsorbate Carbon Dioxide: InChIKey CURLTUGMZLYLDI-UHFFFAOYSA-N
Kind: experiment
Temperature: 298 K
Tabular data in the source: 0
pressure (bar)	uptake (mmol/g)
0.1268	2.3766
0.2435	2.614
0.3551	2.9102
0.4701	3.1807
0.58	3.4162
0.6967	3.6885
0.8354	3.9534
0.9571	4.1779
1.1177	4.4189
1.2987	4.6028
1.5421	4.7647
1.7788	4.8603
2.024	4.943
2.2826	5.0276
2.5464	5.0808
2.8118	5.1323
3.0553	5.2316
3.2852	5.3658
3.4797	5.5406
3.713	5.7318
3.9379	5.9029
4.1678	6.0114
4.4282	6.0831
4.6801	6.1032
4.9911	6.1289
5.2177	6.149
5.4831	6.1765
5.7333	6.1728
6.0207	6.215
6.2929	6.2296
6.5245	6.2976
6.741	6.3417
7.0537	6.3986
7.3276	6.4408
7.5913	6.472
7.8331	6.4903
8.1509	6.5289
8.3707	6.5582
8.6226	6.5857
8.9067	6.6224
9.1721	6.6665
9.4325	6.7363
9.6776	6.8117
9.9194	6.8926
