Adsorption isotherm of Nitrogen on Zeolite 13X
DOI: 10.1080/01496395.2017.1345942
Article source: Figure 3
Adsorbate Nitrogen: InChIKey IJGRMHOSHXDMSA-UHFFFAOYSA-N
Kind: experiment
Temperature: 298 K
Tabular data in the source: 0
pressure (bar)	uptake (mmol/g)
0.1544	0.1192
0.4114	0.2126
0.6314	0.2909
0.9085	0.3694
1.147	0.472
1.3855	0.556
1.6408	0.6288
1.8927	0.7147
2.1312	0.7931
2.3696	0.8808
2.6182	0.9852
2.8567	1.0581
3.0969	1.1309
3.3858	1.2019
3.6142	1.2617
3.893	1.329
4.1315	1.3888
4.3818	1.443
4.6304	1.5084
4.8941	1.5534
5.1376	1.6188
5.3896	1.6767
5.6248	1.7198
5.9019	1.7591
6.1253	1.7929
6.4009	1.8081
6.6865	1.814
6.9149	1.8328
7.1821	1.8592
7.4424	1.8967
7.6961	1.923
7.9581	1.9661
8.2051	1.9906
8.4806	1.9946
8.7192	2.019
8.9796	2.0193
9.2467	2.0587
9.5104	2.085
9.7523	2.1114
9.9657	2.1116
