Adsorption isotherm of Carbon Dioxide on MOF-74-Ni
DOI: 10.1016/j.ces.2015.06.064
Article source: Figure 2a
Adsorbate Carbon Dioxide: InChIKey CURLTUGMZLYLDI-UHFFFAOYSA-N
Kind: experiment
Temperature: 323 K
Tabular data in the source: 0
pressure (bar)	uptake (mmol/g)
0	0
0.00127	0.054978
0.002851	0.106519
0.002862	0.140884
0.006006	0.183828
0.012284	0.235353
0.015431	0.286889
0.023283	0.364181
0.037465	0.66482
0.043759	0.767891
0.053219	0.982635
0.067376	1.19736
0.072099	1.28326
0.078387	1.36915
0.098843	1.70413
0.111404	1.82436
0.11142	1.87591
0.197818	2.82922
0.200943	2.81202
0.204103	2.90652
0.211925	2.88931
0.302933	3.56769
0.306056	3.5419
0.39857	4.03128
0.404826	4.01407
0.418936	4.08275
0.495739	4.39177
0.509828	4.39172
0.596005	4.64056
0.61323	4.65769
0.694697	4.86359
0.716613	4.86352
0.793376	5.04367
0.816855	5.03499
0.887348	5.18939
0.918657	5.18928
0.935898	5.25795
0.968775	5.26643
0.973484	5.30937
0.989136	5.30072
1.01576	5.34359
