Adsorption isotherm of Nitrogen on MOF-74-Ni
DOI: 10.1016/j.ces.2015.06.064
Article source: Figure 2b
Adsorbate Nitrogen: InChIKey IJGRMHOSHXDMSA-UHFFFAOYSA-N
Kind: experiment
Temperature: 383 K
Tabular data in the source: 0
pressure (bar)	uptake (mmol/g)
0.001078	0.000643
0.015102	-0.006105
0.050726	-0.015725
0.078314	-0.011809
0.099375	-0.015646
0.110737	-0.013692
0.206497	0.001946
0.310308	0.006952
0.392996	0.004182
0.410896	0.015824
0.48874	0.016917
0.513054	0.015021
0.587717	0.027722
0.613695	0.033571
0.685057	0.035621
0.715942	0.049219
0.785651	0.045461
0.818147	0.057126
0.884644	0.059169
0.920362	0.066968
0.933325	0.065054
0.969027	0.06995
0.972254	0.067052
0.990108	0.069984
1.01118	0.06905
