Adsorption isotherm of Carbon Dioxide on MOF-74-Ni
DOI: 10.1016/j.ces.2015.06.064
Article source: Figure 2a
Adsorbate Carbon Dioxide: InChIKey CURLTUGMZLYLDI-UHFFFAOYSA-N
Kind: experiment
Temperature: 383 K
Tabular data in the source: 0
pressure (bar)	uptake (mmol/g)
0	0
0.00939	0.003485
0.01565	0.012108
0.037559	0.037994
0.054773	0.081038
0.065728	0.089686
0.089202	0.124171
0.101721	0.150009
0.197183	0.287958
0.214397	0.322411
0.298905	0.477486
0.317684	0.486174
0.394366	0.615435
0.41784	0.632738
0.492958	0.770582
0.517997	0.779302
0.591549	0.917139
0.615023	0.925851
0.691706	1.0637
0.71518	1.06382
0.790297	1.19308
0.816901	1.19321
0.887324	1.32244
0.921753	1.33121
0.937402	1.37425
0.968701	1.40018
0.973396	1.42598
0.99374	1.43468
1.01095	1.46054
