Adsorption isotherm of Carbon Dioxide on MOF-74-Ni
DOI: 10.1016/j.ces.2015.06.064
Article source: Figure 2a
Adsorbate Carbon Dioxide: InChIKey CURLTUGMZLYLDI-UHFFFAOYSA-N
Kind: experiment
Temperature: 343 K
Tabular data in the source: 0
pressure (bar)	uptake (mmol/g)
0.003131	0.002176
0.010959	0.114067
0.020352	0.243175
0.04227	0.389588
0.059491	0.587577
0.067319	0.716672
0.081409	0.802807
0.09863	1.0008
0.101761	0.975014
0.11272	1.11274
0.195695	1.85319
0.208219	1.8791
0.300587	2.55081
0.305284	2.49924
0.400783	3.06775
0.405479	3.00757
0.496282	3.45562
0.508806	3.41271
0.593346	3.76608
0.610568	3.73181
0.691977	4.02494
0.713894	3.99931
0.790607	4.24939
0.820352	4.24963
0.887671	4.42221
0.918982	4.45687
0.9409	4.50866
0.96908	4.52609
0.975342	4.56916
0.990998	4.58649
1.01135	4.62106
