Adsorption isotherm of Nitrogen on MOF-74-Ni
DOI: 10.1016/j.ces.2015.06.064
Article source: Figure 2b
Adsorbate Nitrogen: InChIKey IJGRMHOSHXDMSA-UHFFFAOYSA-N
Kind: experiment
Temperature: 328 K
Tabular data in the source: 0
pressure (bar)	uptake (mmol/g)
0.001078	0.000643
0.04924	0.009434
0.075228	0.017218
0.096273	0.010478
0.09961	0.027903
0.197097	0.062898
0.205247	0.070654
0.291356	0.100793
0.307645	0.114367
0.392096	0.137729
0.410038	0.157113
0.491214	0.174663
0.51239	0.192117
0.588748	0.218369
0.611529	0.232922
0.689499	0.257241
0.713886	0.268893
0.788607	0.29224
0.814595	0.300024
0.886083	0.3253
0.920174	0.332129
0.936421	0.337962
0.970539	0.34963
0.973782	0.349635
0.991662	0.357406
1.01275	0.358408
