Adsorption isotherm of Water on MOF-74-Ni
DOI: 10.1016/j.ces.2015.06.064
Article source: Figure 2c
Adsorbate Water: InChIKey XLYOFNOQVPJJNP-UHFFFAOYSA-N
Kind: experiment
Temperature: 328 K
Tabular data in the source: 0
pressure (bar)	uptake (mmol/g)
6.5e-05	0.006479
0.00013	2.52232
0.000194	3.49586
0.000259	4.29242
0.000324	4.60225
0.000389	4.91208
0.000454	5.17766
0.000518	5.70873
0.000583	5.93006
0.000713	6.19574
0.000778	6.68256
0.000907	7.47921
0.000972	7.70055
0.001037	8.36436
0.001102	8.67419
0.001166	8.98402
0.001231	9.3381
0.001296	9.51519
0.001361	9.60378
0.001425	9.82511
0.00149	10.0907
0.00162	10.4449
0.001749	10.7105
0.001814	10.8876
0.001879	10.9762
0.001944	11.1091
0.002009	11.2861
0.002138	11.3748
0.002203	11.5519
0.002333	12.0388
0.002397	12.3487
0.002462	12.216
0.002592	12.6587
0.002657	12.5703
0.002721	12.8359
0.002786	12.9687
0.002851	13.1016
0.002916	13.1901
0.003045	13.3231
0.003175	13.5003
0.003305	13.6332
0.003434	13.8104
0.003564	14.0318
0.003693	14.1647
0.003758	14.2976
0.003823	14.4304
0.003952	14.5634
0.004082	14.6963
0.004147	14.7849
0.004212	14.8292
0.004341	15.0064
0.004536	15.1394
0.0046	15.3608
0.00473	15.5379
0.00486	15.7151
0.005054	15.8924
0.005119	16.0695
0.005184	16.2466
0.005313	16.4238
0.005508	16.6453
0.005637	16.911
0.005767	17.1324
0.005832	17.3537
0.005896	17.3981
0.006026	17.6195
0.006091	17.7081
0.006156	19.3011
0.00622	17.8853
0.006285	18.1951
0.00635	19.6996
0.006415	19.9652
0.006479	18.5494
0.006544	18.815
0.006674	20.2753
0.006803	19.4791
0.006868	20.3641
0.006998	19.6563
0.007063	20.5414
0.007192	20.6743
0.007257	20.8072
0.007322	20.0108
0.007451	20.9402
0.007516	20.2323
0.007646	20.321
0.007711	21.1618
0.007775	20.4982
0.00784	21.339
0.008035	21.472
0.008099	20.7642
0.008294	20.8972
0.008423	20.9416
0.008553	21.6498
0.008618	21.0747
0.008747	21.1191
0.009006	21.1637
0.009071	21.2081
0.009266	21.2969
0.00946	21.4299
0.009719	21.5188
0.009849	21.5632
0.009978	21.6076
0.010173	21.6964
0.010367	21.741
0.010626	21.7856
0.011015	22.3614
0.011404	21.9637
0.011469	22.4948
0.011922	22.1415
0.012311	22.1421
0.01257	22.7177
0.0127	22.2754
0.013218	22.3646
0.014061	22.5429
0.014579	22.6321
0.014644	23.0747
0.014903	22.6768
0.015032	23.1195
0.01581	22.7667
0.015939	23.2536
0.016458	22.9004
0.016911	22.9453
0.016976	23.3879
0.018013	23.1239
0.018726	23.1692
0.018855	23.5676
0.019309	23.1701
0.019827	23.6576
0.020346	23.3043
0.020993	23.7478
0.021058	23.3939
0.022419	23.4844
0.023067	23.5296
0.023132	23.9279
0.024428	23.6643
0.024687	24.063
0.025205	23.754
0.026631	23.8446
0.027084	24.1992
0.027473	23.8458
0.028574	24.2899
0.028834	23.9806
0.029482	24.07
0.030907	24.1164
0.031102	24.4264
0.031685	24.206
0.032592	24.5171
0.03311	24.2966
0.033758	24.3418
0.035508	24.6541
0.035637	24.4331
0.036674	24.7001
0.037192	24.5239
0.037775	24.6132
0.038812	24.659
0.039849	24.7933
