Adsorption isotherm of Water on MOF-74-Ni
DOI: 10.1016/j.ces.2015.06.064
Article source: Figure 2c
Adsorbate Water: InChIKey XLYOFNOQVPJJNP-UHFFFAOYSA-N
Kind: experiment
Temperature: 343 K
Tabular data in the source: 0
pressure (bar)	uptake (mmol/g)
0	1.03753
6.5e-05	0.33109
0.00013	2.75931
0.000194	3.15663
0.000259	4.17204
0.000324	4.52521
0.000454	4.79004
0.000583	5.05487
0.000713	5.18724
0.000843	5.31962
0.000908	5.49619
0.001037	5.67272
0.001167	5.8051
0.001297	5.93747
0.001426	6.15815
0.001556	6.42298
0.001621	6.59955
0.00175	6.77608
0.001815	6.90849
0.00201	7.17328
0.002204	7.39393
0.002334	7.70291
0.002464	7.96774
0.002528	8.1443
0.002658	8.32083
0.002723	8.49739
0.002788	8.62981
0.002917	8.80634
0.002982	8.93875
0.003112	9.11528
0.003177	9.29185
0.003306	9.38007
0.003371	9.55664
0.003501	9.77732
0.00363	9.95385
0.003825	10.2186
0.003955	10.3952
0.004084	10.5275
0.004149	10.66
0.004279	10.7923
0.004408	10.8806
0.004538	11.0571
0.004668	11.1453
0.004797	11.2777
0.004862	11.366
0.004927	11.4984
0.005057	11.5866
0.005122	11.6749
0.005251	11.8073
0.005381	11.9396
0.005511	12.0279
0.00564	12.1161
0.005705	12.2044
0.0059	12.2925
0.005964	12.3808
0.006094	12.5132
0.006159	12.5573
0.006288	12.6455
0.006418	12.7779
0.006548	13.705
0.006613	12.9103
0.006677	12.9544
0.006807	13.9256
0.006872	13.1309
0.006937	13.9697
0.007002	14.0579
0.007066	13.2632
0.007131	14.1462
0.007196	13.3073
0.007261	14.2786
0.007391	13.4396
0.007455	14.3667
0.00752	13.5279
0.00765	13.6161
0.00778	14.5873
0.007909	13.8367
0.007974	14.7197
0.008039	13.8808
0.008104	14.7637
0.008169	13.969
0.008233	14.852
0.008363	14.896
0.008428	14.9402
0.008558	14.1895
0.008622	14.2778
0.008687	15.0283
0.008752	14.366
0.008817	15.0724
0.008882	14.4543
0.008947	15.1165
0.009076	14.5866
0.009141	15.2488
0.009271	14.6306
0.009335	15.3812
0.009465	14.763
0.009595	15.5576
0.00966	15.6017
0.009724	14.9394
0.009854	15.0277
0.009919	15.7782
0.009984	15.0718
0.010049	15.8664
0.010113	15.1158
0.010178	15.1599
0.010243	15.2041
0.010308	15.2482
0.010438	16.1311
0.010502	16.2194
0.010567	15.3805
0.010632	16.3076
0.010697	16.3517
0.010762	16.44
0.010827	15.5569
0.010891	16.4399
0.010956	15.6452
0.011021	15.6893
0.011086	16.5281
0.011151	16.5722
0.011216	15.8216
0.01128	15.8657
0.011345	16.6163
0.01141	16.6604
0.011475	16.7486
0.01154	16.0863
0.011605	16.8369
0.011669	16.9251
0.011734	16.9692
0.011799	17.0134
0.011864	16.3511
0.011929	17.1016
0.011994	17.1457
0.012123	17.3664
0.012253	17.4546
0.012318	17.4987
0.012382	16.8364
0.012447	17.6311
0.012512	16.9247
0.012577	17.0129
0.012642	17.1012
0.012707	17.8076
0.012771	17.8517
0.012836	17.9841
0.012901	18.0282
0.013031	17.4983
0.013096	18.1605
0.013161	17.6307
0.013225	17.6748
0.01329	17.7631
0.013355	18.3812
0.01342	17.8955
0.013485	18.5135
0.013549	18.5576
0.013614	18.6018
0.013744	18.116
0.013874	18.8224
0.013938	18.8665
0.014003	18.9106
0.014068	18.9989
0.014133	19.1313
0.014198	18.5131
0.014263	19.2637
0.014392	18.6896
0.014457	19.4843
0.014522	18.822
0.014587	18.9103
0.014651	19.7049
0.014716	19.0868
0.014781	19.749
0.014846	19.2192
0.014911	19.9255
0.014976	19.9697
0.015041	19.3957
0.015105	19.4398
0.01517	20.0579
0.015235	19.528
0.0153	19.6163
0.015365	20.1902
0.01543	19.6604
0.015494	19.7486
0.015559	19.8369
0.015624	19.881
0.015689	19.9251
0.015818	19.9692
0.015883	20.1016
0.015948	20.4989
0.016078	20.1898
0.016143	20.2781
0.016207	20.6312
0.016272	20.3663
0.016337	20.7195
0.016467	20.4103
0.016532	20.4986
0.016596	20.8076
0.016661	20.8517
0.016726	20.5868
0.016856	20.6309
0.016921	20.675
0.01705	21.0281
0.01718	20.719
0.017245	20.7631
0.017374	20.8072
0.017439	20.8513
0.017569	20.8954
0.017698	20.9395
0.017828	20.9835
0.017893	21.0277
0.017958	21.2042
0.018087	21.0275
0.018152	21.0717
0.018347	21.1157
0.018476	21.1156
0.018541	21.1597
0.018671	21.1597
0.018736	21.2479
0.018866	21.3362
0.01906	21.3802
0.019255	21.4243
0.019319	21.4242
0.019514	21.5124
0.019643	21.5123
0.019838	21.5564
0.019968	21.6005
0.020162	21.6445
0.020292	21.6444
0.020421	21.6885
0.020681	21.7325
0.02081	21.7324
0.02107	21.7765
0.021199	21.7764
0.021588	21.9528
0.021848	21.9085
0.022301	21.9965
0.022755	22.0404
0.023144	22.0844
0.023404	22.1284
0.023468	22.2608
0.024182	22.2162
0.024765	22.2601
0.024895	22.26
0.025219	22.304
0.025478	22.5246
0.026386	22.4799
0.026839	22.5238
0.027099	22.5237
0.027682	22.5675
0.027812	22.744
0.027942	22.5674
0.028396	22.6996
0.029173	22.7874
0.029757	22.8313
0.030794	22.919
0.031248	23.007
0.031637	23.0068
0.031896	23.095
0.032804	23.0503
0.033193	23.1826
0.033517	23.0941
0.035397	23.2696
0.035981	23.2693
0.037147	23.357
0.037796	23.3566
0.039028	23.4442
0.039935	23.532
