Adsorption isotherm of Nitrogen on MOF-74-Ni
DOI: 10.1016/j.ces.2015.06.064
Article source: Figure 2b
Adsorbate Nitrogen: InChIKey IJGRMHOSHXDMSA-UHFFFAOYSA-N
Kind: experiment
Temperature: 313 K
Tabular data in the source: 0
pressure (bar)	uptake (mmol/g)
0.000534	0.001289
0.003808	0.004522
0.010331	0.011307
0.047687	0.022012
0.062339	0.032681
0.08025	0.046259
0.09632	0.019188
0.096514	0.054994
0.109544	0.065661
0.197332	0.106447
0.207151	0.122915
0.294897	0.15596
0.308032	0.185981
0.394162	0.219991
0.412105	0.239374
0.493396	0.278215
0.512981	0.301473
0.592656	0.341278
0.6138	0.352925
0.691889	0.399503
0.716282	0.412123
0.78947	0.451918
0.818701	0.459708
0.887003	0.495624
0.91952	0.511161
0.935757	0.515058
0.971538	0.53447
0.976382	0.530607
0.991008	0.536437
1.01377	0.548087
