Adsorption isotherm of Carbon Dioxide on Eucalyptus Charcoal heated to 773K
DOI: 10.1016/j.jaap.2010.03.005
Article source: Figure 7
Adsorbate Carbon Dioxide: InChIKey CURLTUGMZLYLDI-UHFFFAOYSA-N
Kind: experiment
Temperature: 273 K
Tabular data in the source: 0
pressure (bar)	uptake (cm3(STP)/g)
0.01006	7.54561
0.015757	9.2869
0.018612	10.4478
0.022898	12.4212
0.030001	13.6982
0.032855	14.859
0.038538	15.9038
0.041385	16.7164
0.047068	17.7612
0.052758	19.1542
0.059858	20.3151
0.066961	21.592
0.072644	22.6368
0.079742	23.6816
0.08684	24.7264
0.093936	25.6551
0.105292	27.2803
0.118057	28.5572
0.139335	30.8789
0.163441	33.0846
0.188963	35.2902
0.213061	37.0315
0.238571	38.6567
0.262664	40.1658
0.286754	41.5589
0.310842	42.8358
0.339178	44.2289
0.344844	44.461
0.378844	45.9701
0.411429	47.3632
0.44684	48.7562
0.480834	49.9171
0.516245	51.0779
0.550236	52.2388
0.58564	53.1675
0.619631	54.0962
0.655034	55.0249
0.689022	55.9536
0.724422	56.7662
0.75841	57.5788
0.795226	58.2753
0.827797	59.0879
0.863194	59.6683
0.898591	60.3648
0.931162	61.0614
0.967972	61.6418
1.00337	62.2222
1.03735	62.6866
