Adsorption isotherm of Carbon Dioxide on Eucalyptus Charcoal
DOI: 10.1016/j.jaap.2010.03.005
Article source: Figure 7
Adsorbate Carbon Dioxide: InChIKey CURLTUGMZLYLDI-UHFFFAOYSA-N
Kind: experiment
Temperature: 273 K
Tabular data in the source: 0
pressure (bar)	uptake (cm3(STP)/g)
1.2e-05	0.580431
3.1e-05	1.50912
0.001474	2.90216
0.002915	4.1791
0.01003	6.03648
0.012889	7.42952
0.015741	8.4743
0.025682	10.0995
0.028536	11.2604
0.032803	12.3051
0.037068	13.2338
0.042744	13.9303
0.045594	14.859
0.052696	16.136
0.059795	17.1808
0.065477	18.2255
0.072571	19.0381
0.081085	20.0829
0.086765	21.0116
0.093858	21.8242
0.105208	23.1012
0.117972	24.3781
0.13641	26.2355
0.163348	28.4411
0.188863	30.2985
0.211544	32.0398
0.238468	33.5489
0.262556	34.8259
0.286641	35.9867
0.310726	37.1476
0.340476	38.4245
0.343312	38.6567
0.377306	39.9337
0.409888	41.2106
0.445295	42.3715
0.479289	43.5323
0.51328	44.5771
0.547268	45.5058
0.584088	46.4345
0.618079	47.4793
0.653476	48.0597
0.687463	48.8723
0.722864	49.6849
0.755431	50.2653
0.792248	51.0779
0.826232	51.6584
0.863045	52.3549
0.897026	52.8192
0.932419	53.2836
0.966403	53.9801
1.0018	54.3284
1.03719	54.9088
1.06976	55.3731
