Adsorption isotherm of Carbon Dioxide on Holm-Oak Charcoal heated to 773K
DOI: 10.1016/j.jaap.2010.03.005
Article source: Figure 6
Adsorbate Carbon Dioxide: InChIKey CURLTUGMZLYLDI-UHFFFAOYSA-N
Kind: experiment
Temperature: 273 K
Tabular data in the source: 0
pressure (bar)	uptake (cm3(STP)/g)
0.004836	2.13826
0.008468	4.05145
0.01931	6.63987
0.034959	9.67846
0.046995	11.9293
0.068633	14.4051
0.089069	16.7685
0.120302	19.0193
0.191161	23.2958
0.26441	27.0096
0.341241	29.7106
0.413262	31.8489
0.517685	34.4373
0.622102	36.5756
0.726512	38.3762
0.830915	39.8392
0.93412	41.3023
1.03852	42.5402
