Adsorption isotherm of Carbon Dioxide on Eucalyptus Charcoal heated to 1273K
DOI: 10.1016/j.jaap.2010.03.005
Article source: Figure 7
Adsorbate Carbon Dioxide: InChIKey CURLTUGMZLYLDI-UHFFFAOYSA-N
Kind: experiment
Temperature: 273 K
Tabular data in the source: 0
pressure (bar)	uptake (cm3(STP)/g)
0.04565	17.6451
0.061262	19.7347
0.081143	22.9851
0.106687	26.2355
0.163413	31.6915
0.239963	37.4959
0.312231	41.5589
0.378816	44.5771
0.482223	48.6401
0.587032	52.0066
0.69183	54.7927
0.795205	57.3466
0.898574	59.4362
1.00336	61.4096
