Adsorption isotherm of Carbon Dioxide on Holm-Oak Charcoal heated to 1273K
DOI: 10.1016/j.jaap.2010.03.005
Article source: Figure 6
Adsorbate Carbon Dioxide: InChIKey CURLTUGMZLYLDI-UHFFFAOYSA-N
Kind: experiment
Temperature: 273 K
Tabular data in the source: 0
pressure (bar)	uptake (cm3(STP)/g)
0	0
2.7e-05	1.57556
0.003653	3.15113
0.007289	5.28939
0.015755	9.2283
0.030223	13.3923
0.042277	16.6559
0.060331	20.0322
0.081979	23.0707
0.106028	26.2219
0.163709	31.6238
0.239383	36.8006
0.312633	40.627
0.379871	43.6656
0.481914	47.3794
0.586344	50.3055
0.690764	52.7814
0.795185	55.0322
0.899594	56.9453
1.004	58.746
