Adsorption isotherm of Carbon Dioxide on Holm-Oak Charcoal
DOI: 10.1016/j.jaap.2010.03.005
Article source: Figure 6
Adsorbate Carbon Dioxide: InChIKey CURLTUGMZLYLDI-UHFFFAOYSA-N
Kind: experiment
Temperature: 273 K
Tabular data in the source: 0
pressure (bar)	uptake (cm3(STP)/g)
0	0
0.004811	0.675241
0.009619	1.23794
0.018021	1.46302
0.025224	1.6881
0.03123	2.13826
0.038433	2.36334
0.049236	2.70096
0.064839	3.03859
0.080442	3.37621
0.096043	3.60129
0.128445	4.16399
0.19325	5.17685
0.225651	5.62701
0.26165	5.96463
0.38404	6.86495
0.517227	7.76527
0.779994	8.89068
0.904777	9.34084
0.974366	9.56592
1.04156	9.67846
