Adsorption isotherm of Aluminum on SiO2
DOI: 10.1007/s10450-019-00141-2
Article source: Figure 4
Adsorbate Aluminum: InChIKey XAGFODPZIPBFFR-UHFFFAOYSA-N
Kind: experiment
Temperature: 297 K
Tabular data in the source: 0
pressure (bar)	uptake (mg/g)
1.01325	0.171053
1.01325	0.24812
1.01325	0.379699
1.01325	0.567669
1.01325	0.851504
