Adsorption isotherm of Aluminum on Montmorillonite K10
DOI: 10.1007/s10450-019-00141-2
Article source: Figure 4
Adsorbate Aluminum: InChIKey XAGFODPZIPBFFR-UHFFFAOYSA-N
Kind: experiment
Temperature: 297 K
Tabular data in the source: 0
pressure (bar)	uptake (mg/g)
1.01325	0.193609
1.01325	0.306391
1.01325	0.546992
1.01325	0.821429
1.01325	1.34587
