Adsorption isotherm of Aluminum on TiO2
DOI: 10.1007/s10450-019-00141-2
Article source: Figure 4
Adsorbate Aluminum: InChIKey XAGFODPZIPBFFR-UHFFFAOYSA-N
Kind: experiment
Temperature: 297 K
Tabular data in the source: 0
pressure (bar)	uptake (mg/g)
1.01325	0.073308
1.01325	0.120301
1.01325	0.259398
1.01325	0.355263
1.01325	0.586466
