Adsorption isotherm of Benzene on {[Zn(m4-TCNQ-TCNQ)bpy]*1.5benzene}n
DOI: 10.1021/Ja073505z
Adsorbate Benzene: InChIKey UHOVQNZJYSORNB-UHFFFAOYSA-N
Temperature: 298 K
Tabular data in the source: 0
pressure (bar)	uptake (ml/g)
3.41e-06	0.479042
0.009129	0.958084
0.017681	0.958084
0.025202	16.2874
0.0252362	21.0778
0.0263969	23.9521
0.0264174	26.8263
0.0270149	30.6587
0.0270319	33.0539
0.027049	35.4491
0.0270729	38.8024
0.0276704	42.6347
0.0279503	1.91617
0.0288379	46.4671
0.0294354	50.2994
0.030026	53.1737
0.030603	54.1317
0.0319447	2.39521
0.0323407	57.9641
0.035782	60.8383
0.041497	62.7545
0.0472154	65.1497
0.0517868	66.5868
0.0586318	67.0659
0.0637699	68.024
0.0689011	68.024
0.0791703	68.982
0.0871557	69.4611
0.0957145	70.4192
0.104277	71.8563
0.111706	74.2515
0.119708	77.1257
0.12601	81.4371
