Adsorption isotherm of Cyclohexane on {[Zn(m4-TCNQ-TCNQ)bpy]*1.5benzene}n
DOI: 10.1021/Ja073505z
Adsorbate Cyclohexane: InChIKey XDTMQSROBMDMFD-UHFFFAOYSA-N
Temperature: 298 K
Tabular data in the source: 0
pressure (bar)	uptake (ml/g)
0.00409527	0.0152651
0.0356909	0.614965
0.0421298	1.12089
0.0514904	1.15579
0.0561708	1.17323
0.059681	1.18632
0.0702152	1.70751
0.074899	2.2069
0.0842632	2.72373
0.0942124	3.24274
0.102991	3.75739
0.106509	4.73436
0.111203	6.67957
0.115313	8.6226
0.118837	10.5634
0.121797	15.3938
0.124173	20.2219
