Adsorption isotherm of Nitrogen on H+ mordenite
DOI: 10.1007/s10450-013-9546-z
Article source: Table 2
Adsorbate Nitrogen: InChIKey IJGRMHOSHXDMSA-UHFFFAOYSA-N
Kind: experiment
Temperature: 302 K
Tabular data in the source: 0
pressure (bar)	uptake (mmol/g)
1.073	0.166
1.075	0.165
1.076	0.166
1.076	0.167
1.095	0.168
1.532	0.228
2.079	0.296
3.039	0.399
5.03	0.587
5.034	0.587
5.04	0.592
7.029	0.737
7.526	0.77
9.027	0.881
9.028	0.868
9.03	0.917
