Adsorption isotherm of Methane on H+ mordenite
DOI: 10.1007/s10450-013-9546-z
Article source: Table 1
Adsorbate Methane: InChIKey VNWKTOKETHGBQD-UHFFFAOYSA-N
Kind: experiment
Temperature: 243 K
Tabular data in the source: 0
pressure (bar)	uptake (mmol/g)
1.061	1.488
3.044	1.918
5.039	2.114
7.033	2.233
9.017	2.353
9.025	2.343
