Adsorption isotherm of Nitrogen on H+ mordenite
DOI: 10.1007/s10450-013-9546-z
Article source: Table 2
Adsorbate Nitrogen: InChIKey IJGRMHOSHXDMSA-UHFFFAOYSA-N
Kind: experiment
Temperature: 243 K
Tabular data in the source: 0
pressure (bar)	uptake (mmol/g)
1.084	0.741
3.043	1.242
5.038	1.499
7.032	1.671
9.013	1.792
9.027	1.835
