Adsorption isotherm of Nitrogen, Methane on H+ mordenite
DOI: 10.1007/s10450-013-9546-z
Article source: Table 4
Adsorbate Nitrogen: InChIKey IJGRMHOSHXDMSA-UHFFFAOYSA-N
Adsorbate Methane: InChIKey VNWKTOKETHGBQD-UHFFFAOYSA-N
Kind: experiment
Temperature: 243 K
Tabular data in the source: 0
pressure (bar)	Nitrogen fraction	Nitrogen uptake (mmol/g)	Methane fraction	Methane uptake (mmol/g)	total uptake (mmol/g)
1.078	0.5	0.206	0.5	1.076	
3.034	0.5	0.286	0.5	1.46	
5.032	0.5	0.336	0.5	1.622	
7.025	0.51	0.367	0.49	1.731	
9.017	0.51	0.396	0.49	1.813	
9.024	0.51	0.396	0.49	1.801	
