Adsorption isotherm of Nitrogen, Methane on H+ mordenite
DOI: 10.1007/s10450-013-9546-z
Article source: Table 4
Adsorbate Nitrogen: InChIKey IJGRMHOSHXDMSA-UHFFFAOYSA-N
Adsorbate Methane: InChIKey VNWKTOKETHGBQD-UHFFFAOYSA-N
Kind: experiment
Temperature: 282 K
Tabular data in the source: 0
pressure (bar)	Nitrogen fraction	Nitrogen uptake (mmol/g)	Methane fraction	Methane uptake (mmol/g)	total uptake (mmol/g)
1.058	0.5	0.111	0.5	0.452	
5.027	0.5	0.262	0.5	1.066	
9.017	0.51	0.342	0.49	1.246	
