Adsorption isotherm of Methane on H+ mordenite
DOI: 10.1007/s10450-013-9546-z
Article source: Table 1
Adsorbate Methane: InChIKey VNWKTOKETHGBQD-UHFFFAOYSA-N
Kind: experiment
Temperature: 263 K
Tabular data in the source: 0
pressure (bar)	uptake (mmol/g)
1.056	1.106
5.024	1.831
9.015	2.078
