Adsorption isotherm of Nitrogen on H+ mordenite
DOI: 10.1007/s10450-013-9546-z
Article source: Table 2
Adsorbate Nitrogen: InChIKey IJGRMHOSHXDMSA-UHFFFAOYSA-N
Kind: experiment
Temperature: 263 K
Tabular data in the source: 0
pressure (bar)	uptake (mmol/g)
1.083	0.449
5.033	1.148
9.014	1.461
