Adsorption isotherm of Nitrogen, Methane on H+ mordenite
DOI: 10.1007/s10450-013-9546-z
Article source: Table 4
Adsorbate Nitrogen: InChIKey IJGRMHOSHXDMSA-UHFFFAOYSA-N
Adsorbate Methane: InChIKey VNWKTOKETHGBQD-UHFFFAOYSA-N
Kind: experiment
Temperature: 243 K
Tabular data in the source: 0
pressure (bar)	Nitrogen fraction	Nitrogen uptake (mmol/g)	Methane fraction	Methane uptake (mmol/g)	total uptake (mmol/g)
1.078	0.5	0.205	0.5	1.073	
3.034	0.5	0.284	0.5	1.448	
5.032	0.5	0.332	0.5	1.6	
7.025	0.51	0.36	0.49	1.699	
9.017	0.51	0.386	0.49	1.769	
9.024	0.51	0.386	0.49	1.758	
