Adsorption isotherm of Nitrogen, Methane on H+ mordenite
DOI: 10.1007/s10450-013-9546-z
Article source: Table 4
Adsorbate Nitrogen: InChIKey IJGRMHOSHXDMSA-UHFFFAOYSA-N
Adsorbate Methane: InChIKey VNWKTOKETHGBQD-UHFFFAOYSA-N
Kind: experiment
Temperature: 302 K
Tabular data in the source: 0
pressure (bar)	Nitrogen fraction	Nitrogen uptake (mmol/g)	Methane fraction	Methane uptake (mmol/g)	total uptake (mmol/g)
1.06	0.51	0.076	0.49	0.275	
1.082	0.5	0.076	0.5	0.283	
3.04	0.51	0.162	0.49	0.596	
5.031	0.51	0.217	0.49	0.793	
7.03	0.52	0.271	0.48	0.911	
9.022	0.52	0.301	0.48	1.024	
9.024	0.53	0.3	0.47	0.999	
9.029	0.51	0.29	0.49	1.033	
