Adsorption isotherm of Methane on H+ mordenite
DOI: 10.1007/s10450-013-9546-z
Article source: Table 1, Table 1 
Adsorbate Methane: InChIKey VNWKTOKETHGBQD-UHFFFAOYSA-N
Kind: experiment
Temperature: 302 K
Tabular data in the source: 0
pressure (bar)	uptake (mmol/g)
1.049	0.491
1.056	0.515
1.056	0.517
1.067	0.499
1.53	0.668
2.075	0.816
3.036	0.975
5.032	1.235
5.035	1.238
7.028	1.414
7.525	1.458
9.022	1.544
9.026	1.558
9.028	1.553
