Adsorption isotherm of Nitrogen on H+ mordenite
DOI: 10.1007/s10450-013-9546-z
Article source: Table 2
Adsorbate Nitrogen: InChIKey IJGRMHOSHXDMSA-UHFFFAOYSA-N
Kind: experiment
Temperature: 282 K
Tabular data in the source: 0
pressure (bar)	uptake (mmol/g)
1.073	0.265
5.037	0.831
9.023	1.145
