Adsorption isotherm of Nitrogen on MIL-101b
DOI: 10.1007/s10450-013-9592-6
Adsorbate Nitrogen: InChIKey IJGRMHOSHXDMSA-UHFFFAOYSA-N
Temperature: 77 K
Tabular data in the source: 0
pressure (bar)	uptake (mmol/g)
0.340613	23.4146
0.388995	23.6314
0.487695	23.8482
0.588331	24.065
0.685095	24.1734
0.77799	24.4986
0.861208	24.3902
0.882497	24.2818
