Adsorption isotherm of Nitrogen on MIL-101
DOI: 10.1007/s10450-013-9592-6
Adsorbate Nitrogen: InChIKey IJGRMHOSHXDMSA-UHFFFAOYSA-N
Temperature: 77 K
Tabular data in the source: 0
pressure (bar)	uptake (mmol/g)
0.346419	35.3388
0.388995	35.664
0.48576	35.9892
0.586396	36.0976
0.685095	36.3144
0.77412	36.5312
0.865078	36.748
