Adsorption isotherm of Ethene on BPL Carbon
DOI: 10.1007/s10450-013-9592-6
Adsorbate Ethene: InChIKey VGGSQFUCUMXWEO-UHFFFAOYSA-N
Temperature: 298 K
Tabular data in the source: 0
pressure (bar)	uptake (mmol/g)
0.0884365	0.304348
0.265795	0.73913
0.376674	1
0.509753	1.30435
0.665397	1.52174
0.820919	1.78261
0.976563	2
1.15416	2.34783
1.30981	2.56522
1.51021	2.73913
1.6883	2.91304
1.86639	3.08696
2.04435	3.30435
2.22256	3.43478
2.33368	3.6087
2.51177	3.78261
2.71217	3.95652
2.89026	4.13043
3.06847	4.26087
3.29156	4.30435
3.53649	4.52174
3.7369	4.69565
3.93743	4.82609
4.13796	4.95652
4.31604	5.13043
4.53889	5.26087
4.7393	5.43478
4.89531	5.52174
5.07339	5.69565
5.27392	5.82609
5.47445	5.95652
5.67498	6.08696
5.87551	6.21739
6.07592	6.3913
6.25412	6.52174
6.47697	6.65217
6.6775	6.78261
6.87803	6.91304
7.05612	7.08696
7.23433	7.21739
7.43498	7.30435
7.63538	7.47826
7.83579	7.65217
8.014	7.78261
