Adsorption isotherm of Ethane on MIL-101b
DOI: 10.1007/s10450-013-9592-6
Adsorbate Ethane: InChIKey OTMSDBZUPAUEDD-UHFFFAOYSA-N
Temperature: 298 K
Tabular data in the source: 0
pressure (bar)	uptake (mmol/g)
0.347826	0.857033
0.891304	1.71637
1.54348	2.66522
2.36957	3.79258
3.06522	4.71253
3.91304	5.54604
4.97826	6.67621
5.84783	7.50997
6.71739	8.2555
7.63043	9.03095
8.6087	9.83657
9.56522	10.5537
