Adsorption isotherm of Nitrogen on MIL-101
DOI: 10.1007/s10450-013-9592-6
Adsorbate Nitrogen: InChIKey IJGRMHOSHXDMSA-UHFFFAOYSA-N
Temperature: 77 K
Tabular data in the source: 0
pressure (bar)	uptake (mmol/g)
0	12.5745
0.00967649	15.2846
0.0251589	19.9458
0.0503177	23.3062
0.0696707	26.1247
0.102571	29.4851
0.150953	30.7859
0.189659	34.1463
0.239977	34.9051
0.286424	35.2304
0.435442	35.664
0.539948	35.7724
0.882497	36.748
0.928943	36.748
