Adsorption isotherm of Ethane on MIL-101
DOI: 10.1007/s10450-013-9592-6
Adsorbate Ethane: InChIKey OTMSDBZUPAUEDD-UHFFFAOYSA-N
Temperature: 298 K
Tabular data in the source: 0
pressure (bar)	uptake (mmol/g)
0.205573	1.38139
0.704673	2.34509
1.29466	3.5846
2.08872	5.145
2.7919	6.42958
3.5857	7.80555
4.40212	9.18131
5.2638	10.5566
5.98946	11.7488
6.8055	12.8479
7.59891	13.9472
8.55101	15.2756
