Adsorption isotherm of Ethene on MIL-101b
DOI: 10.1007/s10450-013-9592-6
Adsorbate Ethene: InChIKey VGGSQFUCUMXWEO-UHFFFAOYSA-N
Temperature: 298 K
Tabular data in the source: 0
pressure (bar)	uptake (mmol/g)
-5.68434e-16	1.77636e-15
0.282609	1.09156
0.826087	1.98031
1.56522	2.95959
2.34783	3.7335
3.19565	4.56701
3.95652	5.22302
4.86957	6.02788
5.8913	6.98107
6.91304	7.7578
7.58696	8.23632
7.95652	8.53478
8.23913	8.7734
