Adsorption isotherm of Ethane on MIL-101b
DOI: 10.1007/s10450-013-9592-6
Adsorbate Ethane: InChIKey OTMSDBZUPAUEDD-UHFFFAOYSA-N
Temperature: 318 K
Tabular data in the source: 0
pressure (bar)	uptake (mmol/g)
0.37037	0.437514
0.893246	0.874581
1.6122	1.22336
2.4183	1.57188
3.18083	1.86204
4.13943	2.18088
5.03268	2.41219
5.90414	2.67279
6.97168	2.99131
7.77778	3.16439
8.62745	3.33735
9.5207	3.48093
