Adsorption isotherm of Ethene on MIL-101a
DOI: 10.1007/s10450-013-9592-6
Adsorbate Ethene: InChIKey VGGSQFUCUMXWEO-UHFFFAOYSA-N
Temperature: 298 K
Tabular data in the source: 0
pressure (bar)	uptake (mmol/g)
0.709433	1.73913
0.731391	1.86957
1.35287	3.13043
1.88616	4
2.55265	5.13043
3.26402	6.17391
3.90855	7.17391
4.64261	8.08696
5.51	9.21739
6.2665	10.087
6.93372	10.9565
7.66777	11.8696
8.17947	12.4783
