Adsorption isotherm of Ethene on PILC
DOI: 10.1007/s10450-013-9592-6
Adsorbate Ethene: InChIKey VGGSQFUCUMXWEO-UHFFFAOYSA-N
Temperature: 298 K
Tabular data in the source: 0
pressure (bar)	uptake (mmol/g)
0.401179	0.217391
0.601829	0.304348
0.780158	0.391304
0.95873	0.391304
1.18182	0.434783
1.40504	0.434783
1.62801	0.521739
1.85122	0.521739
2.02967	0.565217
2.25277	0.608696
2.45366	0.608696
2.67687	0.608696
2.92217	0.695652
3.14538	0.695652
3.30163	0.695652
3.52484	0.695652
3.72574	0.695652
3.94895	0.695652
4.14972	0.73913
4.35062	0.73913
4.57383	0.73913
4.79692	0.782609
4.97549	0.782609
5.19871	0.782609
5.42192	0.782609
5.64514	0.782609
5.84591	0.826087
6.09169	0.73913
6.24782	0.782609
6.44871	0.782609
6.69412	0.826087
6.91734	0.826087
7.14031	0.913043
7.29668	0.869565
7.5199	0.869565
7.74311	0.869565
7.94388	0.913043
8.10013	0.913043
