Adsorption isotherm of Ethene on PCH1
DOI: 10.1007/s10450-013-9592-6
Adsorbate Ethene: InChIKey VGGSQFUCUMXWEO-UHFFFAOYSA-N
Temperature: 298 K
Tabular data in the source: 0
pressure (bar)	uptake (mmol/g)
0.289208	0.347826
0.422773	0.478261
0.667702	0.695652
0.846152	0.73913
1.06888	0.913043
1.24721	1
1.4703	1.04348
1.60411	1.08696
1.87172	1.17391
2.05005	1.26087
2.29523	1.3913
2.56296	1.43478
2.74129	1.52174
2.94206	1.56522
3.18748	1.6087
3.38837	1.6087
3.5667	1.69565
3.70063	1.69565
3.96848	1.69565
4.21365	1.82609
4.41443	1.86957
4.6152	1.91304
4.83829	1.95652
4.99454	1.95652
5.23983	2.04348
5.41841	2.04348
5.61906	2.13043
5.79763	2.13043
6.04304	2.17391
6.31078	2.21739
6.46691	2.26087
6.69	2.30435
6.93553	2.30435
7.09166	2.34783
7.31476	2.3913
7.49333	2.3913
