Adsorption isotherm of Nitrogen on MIL-101b
DOI: 10.1007/s10450-013-9592-6
Adsorbate Nitrogen: InChIKey IJGRMHOSHXDMSA-UHFFFAOYSA-N
Temperature: 77 K
Tabular data in the source: 0
pressure (bar)	uptake (mmol/g)
0.00387059	8.34688
0.0058059	9.6477
0.0251589	12.2493
0.0445118	14.3089
0.0696707	15.8266
0.100636	17.3442
0.145147	19.2954
0.195465	20.7046
0.239977	22.8726
0.29223	23.0894
0.439313	23.6314
0.543819	23.8482
0.932814	24.4986
