Adsorption isotherm of Ethane on MIL-101
DOI: 10.1007/s10450-013-9592-6
Adsorbate Ethane: InChIKey OTMSDBZUPAUEDD-UHFFFAOYSA-N
Temperature: 318 K
Tabular data in the source: 0
pressure (bar)	uptake (mmol/g)
0.453722	0.871897
0.974859	1.4204
1.65437	1.96745
2.22062	2.42333
2.94518	2.83163
3.6698	3.28604
4.34918	3.74087
5.16437	4.24056
6.04743	4.73962
7.04374	5.32986
8.10811	6.05779
9.12698	6.60171
