Adsorption isotherm of Ethene on PCH2
DOI: 10.1007/s10450-013-9592-6
Adsorbate Ethene: InChIKey VGGSQFUCUMXWEO-UHFFFAOYSA-N
Temperature: 298 K
Tabular data in the source: 0
pressure (bar)	uptake (mmol/g)
0.286661	1.26087
0.442061	1.56522
0.552819	1.86957
0.730784	2.08696
0.908628	2.34783
1.08684	2.47826
1.30932	2.73913
1.50973	2.91304
1.71026	3.04348
1.77722	3.04348
2.13364	3.30435
2.33441	3.34783
2.53506	3.43478
2.71339	3.52174
2.91416	3.56522
3.11469	3.69565
3.3379	3.69565
3.51623	3.78261
3.76152	3.86957
3.9845	3.95652
4.16295	4
4.38604	4.04348
4.58681	4.08696
4.8099	4.13043
4.98823	4.21739
5.21145	4.21739
5.4121	4.30435
5.63531	4.30435
5.83608	4.34783
6.05918	4.3913
6.23763	4.43478
6.46084	4.43478
6.68393	4.47826
6.90691	4.56522
7.08548	4.56522
7.30857	4.6087
7.50934	4.65217
7.73256	4.65217
8.00029	4.69565
8.1563	4.78261
8.35719	4.78261
8.58041	4.78261
8.7813	4.78261
9.00439	4.82609
9.18272	4.91304
9.40593	4.91304
