Adsorption isotherm of Ethene on MIL-101a
DOI: 10.1007/s10450-013-9592-6
Adsorbate Ethene: InChIKey VGGSQFUCUMXWEO-UHFFFAOYSA-N
Temperature: 318 K
Tabular data in the source: 0
pressure (bar)	uptake (mmol/g)
0.298089	0.62923
0.895968	1.14999
1.79326	1.72621
2.48349	2.16526
3.42737	2.52303
4.41714	2.96289
5.36095	3.34798
6.4201	3.67874
7.2951	3.92704
7.80157	4.11968
8.12383	4.25717
