Adsorption isotherm of Nitrogen on MIL-101a
DOI: 10.1007/s10450-013-9592-6
Adsorbate Nitrogen: InChIKey IJGRMHOSHXDMSA-UHFFFAOYSA-N
Temperature: 77 K
Tabular data in the source: 0
pressure (bar)	uptake (mmol/g)
0.340613	22.1138
0.387059	22.1138
0.487695	22.6558
0.584461	22.5474
0.681225	22.5474
0.779926	22.6558
0.878625	22.6558
