Adsorption isotherm of Ethane on MIL-101a
DOI: 10.1007/s10450-013-9592-6
Adsorbate Ethane: InChIKey OTMSDBZUPAUEDD-UHFFFAOYSA-N
Temperature: 318 K
Tabular data in the source: 0
pressure (bar)	uptake (mmol/g)
0.32132	0.547326
1.0344	1.0684
1.77072	1.50757
2.69118	2.02921
3.54276	2.44137
4.60166	2.88143
5.47634	3.26633
6.58145	3.65186
7.52539	3.98231
8.51547	4.28556
9.4827	4.50678
