Adsorption isotherm of Ethene on MIL-101
DOI: 10.1007/s10450-013-9592-6
Adsorbate Ethene: InChIKey VGGSQFUCUMXWEO-UHFFFAOYSA-N
Temperature: 298 K
Tabular data in the source: 0
pressure (bar)	uptake (mmol/g)
1.19832	2.52174
1.37616	2.78261
1.50985	2.86957
1.75454	3.17391
1.82138	3.21739
2.02167	3.43478
2.11071	3.52174
2.2888	3.69565
2.42248	3.78261
2.62253	4.08696
2.71193	4.04348
2.86745	4.30435
2.93442	4.30435
3.1125	4.47826
3.29059	4.65217
3.40196	4.73913
3.60248	4.86957
3.66933	4.91304
3.86974	5.08696
4.04782	5.26087
4.24835	5.3913
4.42632	5.6087
4.62684	5.73913
4.80505	5.86957
4.98302	6.08696
5.20587	6.21739
5.40615	6.43478
5.60656	6.6087
5.82941	6.73913
5.96298	6.86957
6.16338	7.04348
6.36379	7.21739
6.56432	7.34783
6.67556	7.47826
6.87609	7.6087
7.0765	7.78261
7.25459	7.95652
7.47731	8.13043
7.6332	8.26087
7.67784	8.26087
7.87837	8.3913
8.1011	8.56522
8.27931	8.69565
