Adsorption isotherm of Ethene on MIL-101
DOI: 10.1007/s10450-013-9592-6
Adsorbate Ethene: InChIKey VGGSQFUCUMXWEO-UHFFFAOYSA-N
Temperature: 318 K
Tabular data in the source: 0
pressure (bar)	uptake (mmol/g)
0.31752	0.550386
0.793344	1.0532
1.47292	1.64636
2.31073	2.14584
3.12591	2.64552
4.00897	3.14459
4.93728	3.64323
5.72964	4.0048
6.68051	4.45712
7.51819	4.86439
7.92569	5.04507
8.28787	5.18005
