Adsorption isotherm of Ethene on ETS 10 (La/H)
DOI: 10.1007/s10450-013-9592-6
Adsorbate Ethene: InChIKey VGGSQFUCUMXWEO-UHFFFAOYSA-N
Temperature: 298 K
Tabular data in the source: 0
pressure (bar)	uptake (mmol/g)
0.087466	0.652174
0.153581	0.956522
0.508904	1.6087
0.932405	1.82609
1.15538	1.91304
1.66828	2.08696
