Adsorption isotherm of Ethene on MIL-101b
DOI: 10.1007/s10450-013-9592-6
Adsorbate Ethene: InChIKey VGGSQFUCUMXWEO-UHFFFAOYSA-N
Temperature: 318 K
Tabular data in the source: 0
pressure (bar)	uptake (mmol/g)
0.261438	0.64251
0.893246	1.19622
1.59041	1.5743
2.35294	1.92294
3.18083	2.24216
4.09586	2.59036
4.94553	2.76332
5.77342	3.02405
6.75381	3.19663
7.49455	3.39914
7.93028	3.48558
8.25708	3.63083
