Adsorption isotherm of Ethene on MIL-101
DOI: 10.1007/s10450-013-9592-6
Adsorbate Ethene: InChIKey VGGSQFUCUMXWEO-UHFFFAOYSA-N
Temperature: 298 K
Tabular data in the source: 0
pressure (bar)	uptake (mmol/g)
0.000130398	0.0922178
0.295939	1.28834
0.840288	2.25162
1.5434	3.49009
2.33713	4.81995
3.1533	6.01127
4.0374	7.24807
4.89875	8.39286
5.75996	9.44544
6.68918	10.5896
7.43708	11.5049
7.93566	12.0997
8.2303	12.4659
