Adsorption isotherm of Ethane on MIL-101a
DOI: 10.1007/s10450-013-9592-6
Adsorbate Ethane: InChIKey OTMSDBZUPAUEDD-UHFFFAOYSA-N
Temperature: 298 K
Tabular data in the source: 0
pressure (bar)	uptake (mmol/g)
0.412666	0.902767
0.825459	1.75089
1.72124	2.98284
2.52548	3.94133
3.44462	5.03673
4.45623	5.99578
5.35302	6.79058
6.43388	7.69517
7.446	8.43564
8.43508	9.17605
9.37814	9.88901
