Adsorption isotherm of Ethene on MIL-101a
DOI: 10.1007/s10450-013-9592-6
Adsorbate Ethene: InChIKey VGGSQFUCUMXWEO-UHFFFAOYSA-N
Temperature: 298 K
Tabular data in the source: 0
pressure (bar)	uptake (mmol/g)
0.227958	1.0662
0.77881	1.99666
1.65243	2.84604
2.52611	3.6681
3.39986	4.46284
4.59593	5.36775
5.65413	6.10834
6.73518	6.93097
7.40237	7.36995
7.79338	7.67157
8.09248	7.86364
