Adsorption isotherm of Nitrogen on MIL-101a
DOI: 10.1007/s10450-013-9592-6
Adsorbate Nitrogen: InChIKey IJGRMHOSHXDMSA-UHFFFAOYSA-N
Temperature: 77 K
Tabular data in the source: 0
pressure (bar)	uptake (mmol/g)
0.0251589	11.8157
0.0464472	13.6585
0.0716061	14.8509
0.100636	16.477
0.150953	18.645
0.19353	19.6206
0.245783	21.897
0.29223	21.897
0.439313	22.2222
0.539948	22.439
0.921202	22.6558
