Adsorption isotherm of Nitrogen on {[Cu(bpy)2(OTf)2]*2EtOH*H2O}
DOI: 10.1021/Ja073568h
Adsorbate Nitrogen: InChIKey IJGRMHOSHXDMSA-UHFFFAOYSA-N
Temperature: 77 K
Tabular data in the source: 0
pressure (bar)	uptake (mg/g)
0.00182509	38.7034
0.00182509	74.7538
0.00400996	2.10675
0.00619484	98.2412
0.0520772	107.527
0.0935898	109.712
0.154766	120.09
0.1788	194.922
0.215943	209.67
0.279304	212.401
0.329556	214.04
0.510901	218.955
0.661657	220.594
0.803674	221.687
0.936951	220.594
1.01561	218.955
