Adsorption isotherm of Nitrogen on SALI-1
DOI: 10.1021/Ja408959g
Adsorbate Nitrogen: InChIKey IJGRMHOSHXDMSA-UHFFFAOYSA-N
Temperature: 77 K
Tabular data in the source: 0
pressure (bar)	uptake (cm3(STP)/g)
0.000865	332.689
0.0237469	381.314
0.100975	431.369
0.146739	447.1
0.193934	479.993
0.233978	521.468
0.241129	628.728
0.305485	638.739
0.398444	645.89
0.495694	651.611
0.600095	654.471
0.694484	657.331
0.797454	658.761
0.887553	661.622
0.95477	664.482
0.997674	677.353
