Adsorption isotherm of Nitrogen on SALI-3
DOI: 10.1021/Ja408959g
Adsorbate Nitrogen: InChIKey IJGRMHOSHXDMSA-UHFFFAOYSA-N
Temperature: 77 K
Tabular data in the source: 0
pressure (bar)	uptake (cm3(STP)/g)
0.065221	338.409
0.145309	378.453
0.201085	397.045
0.236838	417.067
0.246849	505.736
0.345529	517.177
0.45422	522.898
0.55147	524.328
0.645859	524.328
0.75169	527.188
0.85037	531.479
0.940469	532.909
0.993384	541.49
