Adsorption isotherm of Nitrogen on SALI-7
DOI: 10.1021/Ja408959g
Adsorbate Nitrogen: InChIKey IJGRMHOSHXDMSA-UHFFFAOYSA-N
Temperature: 77 K
Tabular data in the source: 0
pressure (bar)	uptake (cm3(STP)/g)
0.0280373	205.406
0.106695	239.729
0.142449	255.461
0.209665	302.656
0.209665	351.281
0.301195	361.292
0.394154	365.582
0.520007	365.582
0.624407	369.872
0.718796	368.442
0.818906	369.872
0.919016	368.442
0.970502	372.733
