Adsorption isotherm of Nitrogen on SALI-9
DOI: 10.1021/Ja408959g
Adsorbate Nitrogen: InChIKey IJGRMHOSHXDMSA-UHFFFAOYSA-N
Temperature: 77 K
Tabular data in the source: 0
pressure (bar)	uptake (cm3(STP)/g)
0.0266072	161.072
0.0337579	201.116
0.108125	231.149
0.149599	245.45
0.191074	274.053
0.195364	321.248
0.231118	336.979
0.305485	341.27
0.399875	345.56
0.494264	346.99
0.600095	351.281
0.701635	351.281
0.794594	351.281
0.893274	351.281
0.949049	352.711
0.994814	361.292
