Adsorption isotherm of Nitrogen on SALI-3'
DOI: 10.1021/Ja408959g
Adsorbate Nitrogen: InChIKey IJGRMHOSHXDMSA-UHFFFAOYSA-N
Temperature: 77 K
Tabular data in the source: 0
pressure (bar)	uptake (cm3(STP)/g)
0.00372489	8.04628
0.00515504	284.064
0.0208866	308.376
0.0766622	345.56
0.148169	384.174
0.195364	405.626
0.235408	428.508
0.238268	515.747
0.304055	528.618
0.398444	535.769
0.499985	541.49
0.600095	542.92
0.698774	545.78
0.793164	545.78
0.897564	550.07
0.993384	552.931
