Adsorption isotherm of Nitrogen on NU-1000
DOI: 10.1021/Ja408959g
Adsorbate Nitrogen: InChIKey IJGRMHOSHXDMSA-UHFFFAOYSA-N
Temperature: 77 K
Tabular data in the source: 0
pressure (bar)	uptake (cm3(STP)/g)
0.00229475	342.7
0.00801532	447.1
0.025177	521.468
0.0966842	578.673
0.141019	608.706
0.173912	627.298
0.242559	684.504
0.245419	841.82
0.304055	851.831
0.345529	856.121
0.448499	863.272
0.545749	868.992
0.645859	874.713
0.75169	877.573
0.846079	881.864
0.937608	886.154
0.989093	899.025
