Adsorption isotherm of Nitrogen on SALI-1'
DOI: 10.1021/Ja408959g
Adsorbate Nitrogen: InChIKey IJGRMHOSHXDMSA-UHFFFAOYSA-N
Temperature: 77 K
Tabular data in the source: 0
pressure (bar)	uptake (cm3(STP)/g)
0.00229475	3.75585
0.00229475	308.376
0.0223168	351.281
0.0995445	404.196
0.143879	431.369
0.199654	458.541
0.236838	487.144
0.242559	600.125
0.264011	625.868
0.34982	635.879
0.498554	644.46
0.595804	650.18
0.698774	648.75
0.797454	653.041
0.894704	655.901
0.940469	655.901
0.990524	660.191
