Adsorption isotherm of Arsenate, Water on IMIGAC
DOI: 10.1016/j.jtice.2017.01.004
Article source: Figure 4
Adsorbate Arsenate: InChIKey HAYXDMNJJFVXCI-UHFFFAOYSA-N
Adsorbate Water: InChIKey XLYOFNOQVPJJNP-UHFFFAOYSA-N
Kind: experiment
Temperature: 313 K
Tabular data in the source: 0
pressure (bar)	Arsenate fraction	Arsenate uptake (mg/g)	Water fraction	Water uptake (mg/g)	total uptake (mg/g)
1.01325	0.1	0.6017			
1.01325	1.25	1.3943			
1.01325	5.02	3.3034			
1.01325	76.94	9.0763			
1.01325	92.93	9.0877			
1.01325	175.73	11.0133			
1.01325	262.49	15.253			
1.01325	411.14	17.0331			
