Adsorption isotherm of As(III), Water on IMIGAC
DOI: 10.1016/j.jtice.2017.01.004
Article source: Figure 4
Adsorbate As(III): InChIKey LULLIKNODDLMDQ-UHFFFAOYSA-N
Adsorbate Water: InChIKey XLYOFNOQVPJJNP-UHFFFAOYSA-N
Kind: experiment
Temperature: 313 K
Tabular data in the source: 0
pressure (bar)	As(III) fraction	As(III) uptake (mg/g)	Water fraction	Water uptake (mg/g)	total uptake (mg/g)
1.01325	0.99	1.1751			
1.01325	1.49	2.1881			
1.01325	108.7	8.6878			
1.01325	156.19	9.7062			
1.01325	247.56	10.8688			
1.01325	325.68	11.2848			
1.01325	421.68	11.4692			
