Adsorption isotherm of As(III), Water on IMIGAC
DOI: 10.1016/j.jtice.2017.01.004
Article source: Figure 4
Adsorbate As(III): InChIKey LULLIKNODDLMDQ-UHFFFAOYSA-N
Adsorbate Water: InChIKey XLYOFNOQVPJJNP-UHFFFAOYSA-N
Kind: experiment
Temperature: 303 K
Tabular data in the source: 0
pressure (bar)	As(III) fraction	As(III) uptake (mg/g)	Water fraction	Water uptake (mg/g)	total uptake (mg/g)
1.01325	1.12	0.4805			
1.01325	1.74	1.2446			
1.01325	5.85	3.89			
1.01325	29.08	6.431			
1.01325	68.08	7.9472			
1.01325	106.82	9.1914			
1.01325	154.81	9.7756			
1.01325	243.3	12.0961			
1.01325	416.91	13.9873			
1.01325	515.16	14.8952			
