Adsorption isotherm of As(III), Water on IMIGAC
DOI: 10.1016/j.jtice.2017.01.004
Article source: Figure 4
Adsorbate As(III): InChIKey LULLIKNODDLMDQ-UHFFFAOYSA-N
Adsorbate Water: InChIKey XLYOFNOQVPJJNP-UHFFFAOYSA-N
Kind: experiment
Temperature: 293 K
Tabular data in the source: 0
pressure (bar)	As(III) fraction	As(III) uptake (mg/g)	Water fraction	Water uptake (mg/g)	total uptake (mg/g)
1.01325	0.62	0.492			
1.01325	6.1	3.9305			
1.01325	27.71	6.6162			
1.01325	64.32	8.9082			
1.01325	127.94	10.3663			
1.01325	270.66	14.4402			
1.01325	409.52	16.9165			
1.01325	507.52	17.0892			
