Adsorption isotherm of Arsenate, Water on IMIGAC
DOI: 10.1016/j.jtice.2017.01.004
Article source: Figure 4
Adsorbate Arsenate: InChIKey HAYXDMNJJFVXCI-UHFFFAOYSA-N
Adsorbate Water: InChIKey XLYOFNOQVPJJNP-UHFFFAOYSA-N
Kind: experiment
Temperature: 303 K
Tabular data in the source: 0
pressure (bar)	Arsenate fraction	Arsenate uptake (mg/g)	Water fraction	Water uptake (mg/g)	total uptake (mg/g)
1.01325	0.84	0.5785			
1.01325	1.67	1.2207			
1.01325	6.06	2.9967			
1.01325	10.45	3.2744			
1.01325	79.45	8.2895			
1.01325	126.18	9.0989			
1.01325	219.53	12.8236			
1.01325	464.25	15.7019			
1.01325	469.37	15.9564			
