Adsorption isotherm of Arsenate, Water on IMIGAC
DOI: 10.1016/j.jtice.2017.01.004
Article source: Figure 4
Adsorbate Arsenate: InChIKey HAYXDMNJJFVXCI-UHFFFAOYSA-N
Adsorbate Water: InChIKey XLYOFNOQVPJJNP-UHFFFAOYSA-N
Kind: experiment
Temperature: 293 K
Tabular data in the source: 0
pressure (bar)	Arsenate fraction	Arsenate uptake (mg/g)	Water fraction	Water uptake (mg/g)	total uptake (mg/g)
1.01325	0.42	0.5785			
1.01325	1.67	2.748			
1.01325	12.13	2.8868			
1.01325	79.34	7.4796			
1.01325	129.63	7.803			
1.01325	179.18	9.7636			
1.01325	274.2	11.3304			
1.01325	365.36	14.0021			
1.01325	470.52	13.729			
