Adsorption isotherm of Nitrogen on N3-COF (SSA)
DOI: 10.1021/acs.chemmater.6b01954
Article source: Figure 2
Adsorbate Nitrogen: InChIKey IJGRMHOSHXDMSA-UHFFFAOYSA-N
Kind: experiment
Temperature: 77 K
Tabular data in the source: 0
pressure (bar)	uptake (cm3(STP)/g)
0.006141	2.80093
0.006124	12.446
0.006099	25.7079
0.00698	34.1474
0.006955	47.4093
0.006047	53.4375
0.006029	63.0826
0.006007	75.1389
0.005987	85.9896
0.005967	96.8403
0.005942	110.102
0.005924	119.747
0.005908	128.187
0.002302	139.037
0.002288	146.271
0.00585	159.533
0.005823	174.001
0.010293	181.235
0.006693	188.468
0.009365	198.113
0.010243	207.758
0.010223	218.609
0.011102	228.254
0.016446	247.544
0.020014	257.189
0.023582	266.835
0.029834	280.096
0.035198	288.536
0.036081	295.77
0.039649	305.415
0.044121	311.443
0.051274	322.294
0.056638	330.733
0.061107	337.967
0.067356	352.434
0.073621	358.463
0.078978	370.519
0.086138	377.753
0.087908	389.809
0.102229	403.071
0.11115	427.184
0.123678	440.446
0.129909	464.558
0.137046	483.848
0.154059	495.905
0.160324	501.933
0.165692	507.961
0.185417	507.961
0.194374	512.784
0.206922	515.195
0.217677	517.606
0.228434	518.812
0.237395	521.223
0.248154	521.223
0.256221	522.429
0.266969	528.457
0.278623	529.662
0.291177	528.457
0.295653	532.074
0.307307	533.279
0.318064	534.485
0.328823	534.485
0.339575	538.102
0.350334	538.102
0.356604	541.719
0.370048	544.13
0.379012	545.336
0.387978	545.336
0.400528	546.541
0.410388	547.747
0.420244	551.364
0.430106	551.364
0.440863	552.569
0.450724	553.775
0.462379	553.775
0.46955	554.981
0.480298	561.009
0.491061	558.598
0.499126	561.009
0.511681	559.803
0.523332	562.214
0.534985	563.42
0.542154	565.831
0.553809	565.831
0.561881	564.626
0.570838	569.448
0.580703	568.243
0.590556	573.065
0.60221	574.271
0.612074	573.065
0.622829	575.476
0.631797	574.271
0.641653	577.888
0.650617	579.093
0.659578	581.505
0.67213	581.505
0.681993	581.505
0.690954	583.916
0.699916	586.327
0.711567	588.738
0.722328	587.533
0.730393	589.944
0.740254	591.15
0.750116	591.15
0.761767	593.561
0.770731	594.767
0.782387	594.767
0.792251	593.561
0.803903	595.972
0.81197	597.178
0.822729	597.178
0.834373	603.206
0.843335	605.617
0.855892	603.206
0.864853	605.617
0.873819	605.617
0.882778	609.234
0.890843	611.645
0.899804	614.057
0.910559	616.468
0.921311	620.085
0.931172	621.291
0.940133	623.702
0.95089	624.907
0.958948	630.936
0.971498	632.141
0.976871	635.758
0.992097	644.198
1.00374	649.02
0.996549	661.076
0.98668	664.693
0.970548	661.076
0.959793	658.665
0.949039	656.254
0.940086	649.02
0.928435	646.609
0.918581	641.786
0.911413	639.375
0.899766	634.552
0.889009	633.347
0.878264	626.113
0.870192	627.319
0.859444	621.291
0.848685	621.291
0.838823	621.291
0.826275	618.879
0.818212	615.262
0.808347	616.468
0.796696	614.057
0.788631	611.645
0.777872	611.645
0.767115	610.44
0.75815	610.44
0.748287	610.44
0.739328	606.823
0.728571	605.617
0.716016	606.823
0.707059	602
0.697199	600.795
0.688233	600.795
0.677474	600.795
0.667614	599.589
0.655958	599.589
0.646999	595.972
0.638925	598.383
0.627272	597.178
0.616514	596.575
0.60576	593.561
0.596794	593.561
0.58604	591.15
0.575281	591.15
0.565418	591.15
0.55556	588.738
0.546596	587.533
0.537626	589.944
0.525979	585.122
0.515216	587.533
0.505805	585.724
0.494601	583.916
0.484743	581.505
0.476687	574.271
0.465932	571.86
0.456973	568.243
0.444418	569.448
0.437255	564.626
0.425597	565.831
0.414838	565.831
0.404085	562.214
0.396018	561.009
0.38436	562.214
0.373601	562.214
0.364637	561.009
0.354784	556.186
0.344029	553.775
0.334169	552.569
0.323414	550.158
0.315345	550.158
0.304584	551.364
0.292036	548.953
0.283971	546.541
0.275007	545.336
0.264248	545.336
0.252599	541.719
0.241842	540.513
0.233771	541.719
0.223021	536.896
0.213162	534.485
0.2033	534.485
0.19255	529.662
0.181791	529.662
0.171041	524.84
0.162081	521.223
0.150439	513.989
0.140586	509.167
0.133422	504.344
0.122687	491.082
0.121815	477.82
0.11646	464.558
0.112894	453.708
0.110213	448.885
0.105746	440.446
0.095027	418.744
0.090569	405.482
0.082507	401.865
0.075372	381.37
0.067318	372.93
0.065541	364.491
0.058393	351.229
0.053916	347.612
