Adsorption isotherm of Nitrogen on NUS-15 (SSA)
DOI: 10.1021/acs.chemmater.6b01954
Article source: Figure S10
Adsorbate Nitrogen: InChIKey IJGRMHOSHXDMSA-UHFFFAOYSA-N
Kind: experiment
Temperature: 77 K
Tabular data in the source: 0
pressure (bar)	uptake (cm3(STP)/g)
0.002093	3.93811
0.00628	8.15753
0.007327	10.9705
0.007327	13.5021
0.009421	15.4712
0.010467	17.1589
0.011514	19.4093
0.009421	20.8158
0.011514	22.7848
0.015701	24.7539
0.023028	27.2855
0.030356	30.0985
0.042917	33.3333
0.050244	35.443
0.062805	37.4121
0.073272	39.3812
0.08374	41.9128
0.094207	44.7257
0.105721	45.2883
0.113049	46.6948
0.123516	47.82
0.13503	49.2264
0.143404	49.789
0.154918	52.602
0.164339	53.7271
0.174807	55.6962
0.185274	57.384
0.196788	59.353
0.205162	59.353
0.213536	61.6034
0.22505	63.2911
0.233424	64.4163
0.243892	66.3854
0.253312	67.7918
0.265873	69.4796
0.276341	70.8861
0.286285	72.8551
0.297276	75.1055
0.304603	78.1997
0.315071	81.5752
0.326585	82.7004
0.337052	85.7947
0.34752	86.9198
0.357987	88.8889
0.366361	89.7328
0.378922	90.8579
0.386249	91.4205
0.39724	91.9831
0.406137	93.9522
0.415558	93.9522
0.426026	94.2335
0.436493	95.9212
0.44696	95.9212
0.458475	97.3277
0.467895	97.609
0.477316	97.8903
0.48569	98.4529
0.499298	98.7342
0.508718	100.422
0.519186	100.141
0.528607	101.828
0.541168	102.391
0.548495	102.672
0.562103	104.079
0.568383	104.36
0.57885	104.923
0.588271	105.485
0.601879	107.454
0.610253	106.329
0.62072	107.736
0.631188	108.861
0.639562	109.142
0.653169	109.986
0.661543	110.549
0.670964	111.392
0.682478	111.674
0.692946	111.955
0.700273	112.518
0.709694	113.643
0.720161	115.049
0.731675	115.893
0.741096	115.612
0.75261	115.893
0.760984	117.3
0.773545	117.018
0.784013	118.987
0.792387	119.269
0.801807	120.675
0.812275	121.519
0.823789	122.644
0.833733	123.207
0.84263	123.488
0.855191	124.895
0.864612	126.02
0.876126	126.582
0.885547	127.707
0.896014	128.27
0.906482	129.958
0.917996	131.364
0.92323	132.208
0.932651	133.615
0.943118	135.865
0.953585	137.553
0.967193	139.803
0.978707	141.772
0.984988	144.585
0.997549	149.086
1.00592	154.712
1.00069	159.494
0.989175	158.931
0.975567	156.118
0.9651	153.024
0.954632	149.367
0.944165	145.71
0.935791	143.46
0.92323	141.491
0.913809	138.959
0.903342	137.271
0.894968	136.428
0.882407	134.74
0.874033	134.177
0.863565	133.052
0.853098	132.489
0.843677	131.927
0.832163	131.646
0.822742	130.802
0.812275	129.677
0.802854	129.677
0.790293	128.833
0.781919	128.833
0.772498	127.707
0.760984	126.864
0.75261	126.582
0.740049	126.02
0.732722	125.457
0.722255	125.176
0.711787	124.895
0.702366	124.332
0.692946	124.051
0.681432	123.488
0.670964	123.488
0.66259	123.207
0.650029	122.925
0.639562	121.8
0.631188	121.8
0.621767	121.238
0.610253	120.956
0.598739	120.394
0.589318	120.394
0.579897	119.269
0.570476	119.269
0.561056	118.987
0.548495	118.425
0.538027	118.143
0.528607	117.862
0.518139	117.3
0.508718	117.3
0.498251	116.456
0.48883	116.456
0.477316	116.174
0.467895	115.612
0.459521	115.049
0.448007	114.768
0.43754	114.487
0.428119	113.643
0.417652	113.361
0.409278	113.361
0.397763	113.361
0.388343	112.799
0.376829	111.955
0.367408	111.674
0.355894	111.111
0.34752	110.83
0.336005	110.549
0.326585	109.423
0.315071	109.142
0.30565	108.017
0.296229	105.204
0.283668	102.391
0.274247	99.5781
0.264827	95.9212
0.255406	93.6709
0.244939	91.7018
0.235518	89.4515
0.22505	87.7637
0.21563	86.3572
0.205162	84.9508
0.195741	83.263
0.184227	81.5752
0.171666	79.8875
0.163292	78.1997
0.152825	77.3558
0.143404	75.3868
0.133983	73.4177
0.124039	72.4332
0.113049	70.0422
0.102581	68.6357
0.09316	66.6667
0.079553	64.6976
0.071179	63.2911
0.061758	60.7595
0.052337	57.9466
0.040823	56.5401
0.031402	53.4459
0.020935	50.3516
0.010467	45.007
