Adsorption isotherm of Nitrogen on NUS-14 (SSA)
DOI: 10.1021/acs.chemmater.6b01954
Article source: Figure 2
Adsorbate Nitrogen: InChIKey IJGRMHOSHXDMSA-UHFFFAOYSA-N
Kind: experiment
Temperature: 77 K
Tabular data in the source: 0
pressure (bar)	uptake (cm3(STP)/g)
0.006137	5.21219
0.006128	10.0347
0.007009	18.4742
0.006998	24.5023
0.00609	30.5305
0.006973	37.7643
0.007858	43.7924
0.004256	52.2319
0.006933	59.4657
0.007809	70.3164
0.007789	81.1671
0.009569	88.4008
0.011344	98.0459
0.009535	106.485
0.012211	113.719
0.015784	120.953
0.016663	130.598
0.02024	135.421
0.021121	143.86
0.029184	147.477
0.033651	155.916
0.039017	163.15
0.044381	171.59
0.051549	174.001
0.06139	186.057
0.072122	200.525
0.079283	206.553
0.091822	213.787
0.101671	221.02
0.112421	225.843
0.120477	233.077
0.131223	240.311
0.14107	248.75
0.150921	254.778
0.16077	262.012
0.169716	272.863
0.181356	281.302
0.192108	284.919
0.202854	292.153
0.214498	298.181
0.223453	304.209
0.233304	310.237
0.242264	313.854
0.253904	322.294
0.26196	329.527
0.271806	337.967
0.283446	346.406
0.291496	357.257
0.29863	377.753
0.311165	387.398
0.321007	398.248
0.332647	406.688
0.344287	415.127
0.35414	419.95
0.365794	421.155
0.374751	425.978
0.38371	429.595
0.392665	435.623
0.404314	439.24
0.415965	441.651
0.424014	452.502
0.432079	454.913
0.443732	456.119
0.45628	458.53
0.467033	462.147
0.473307	463.353
0.484059	466.97
0.494816	468.175
0.503777	470.586
0.516332	469.381
0.525293	471.792
0.536947	472.998
0.546805	475.409
0.554874	475.409
0.565631	476.615
0.575493	476.615
0.586248	479.026
0.597902	480.231
0.604178	480.231
0.615829	482.643
0.62659	481.437
0.637349	481.437
0.648998	485.054
0.657065	486.26
0.667822	487.465
0.676775	494.699
0.689325	495.905
0.696498	495.905
0.707259	494.699
0.717117	497.11
0.727874	498.316
0.736835	500.727
0.747592	501.933
0.759248	501.933
0.767317	501.933
0.777175	504.344
0.787934	504.344
0.798687	507.961
0.807653	507.961
0.817508	511.578
0.830056	513.989
0.838119	517.606
0.849777	516.4
0.858738	518.812
0.870389	521.223
0.88114	526.046
0.891004	524.84
0.899069	527.251
0.908031	529.662
0.92057	536.896
0.929524	542.924
0.940274	547.747
0.950135	548.953
0.960876	558.598
0.968941	561.009
0.977893	568.243
0.981446	586.327
0.986803	598.383
1.00204	599.589
0.997533	614.057
0.985877	614.057
0.969748	609.234
0.957211	600.795
0.960813	592.355
0.956348	582.71
0.954571	574.271
0.947405	570.654
0.932169	567.037
0.91874	556.186
0.912469	553.775
0.901712	552.569
0.890962	547.747
0.878412	546.541
0.867659	542.924
0.859592	541.719
0.851534	535.691
0.839883	533.279
0.830023	532.074
0.820162	530.868
0.809408	528.457
0.796855	528.457
0.789689	524.84
0.778031	526.046
0.767277	523.634
0.75921	522.429
0.752037	522.429
0.739487	521.223
0.728735	517.606
0.717978	516.4
0.708115	516.4
0.699158	511.578
0.684815	510.372
0.677644	509.167
0.666885	509.167
0.657027	506.755
0.648958	506.755
0.634617	504.344
0.62655	503.138
0.618481	503.138
0.606827	501.933
0.594282	498.316
0.586212	498.316
0.57635	498.316
0.564701	494.699
0.557528	494.699
0.547668	493.493
0.536014	492.288
0.527048	492.288
0.518085	491.082
0.505537	488.671
0.495677	487.465
0.48492	486.26
0.474167	482.643
0.466098	482.643
0.455343	480.231
0.444589	477.82
0.433832	476.615
0.426659	476.615
0.415902	475.409
0.406046	471.792
0.395294	468.175
0.388121	468.175
0.37558	462.147
0.36394	453.708
0.35408	452.502
0.344233	444.062
0.335272	441.651
0.324522	436.829
0.31556	434.417
0.303021	427.184
0.294062	423.567
0.292289	412.716
0.290507	406.688
0.272611	387.398
0.264566	374.136
0.261	363.285
0.261908	357.257
0.252958	348.818
0.243106	342.789
0.234152	336.761
0.223404	330.733
0.215341	327.116
0.201904	321.088
0.192052	315.06
0.181307	307.826
0.173248	301.798
0.158914	295.77
0.152656	286.125
0.14191	278.891
0.133402	274.068
0.123109	264.423
0.110572	255.984
0.103408	251.161
0.093559	243.927
0.081921	234.282
0.072967	228.254
0.060439	214.992
0.052385	206.553
0.042543	195.702
0.033588	189.674
0.032708	181.235
0.021072	170.384
0.018407	157.122
0.014829	152.299
0.012153	145.066
