Adsorption isotherm of Nitrogen on COF-LZU1 (FS)
DOI: 10.1021/acs.chemmater.6b01954
Article source: Figure 2
Adsorbate Nitrogen: InChIKey IJGRMHOSHXDMSA-UHFFFAOYSA-N
Kind: experiment
Temperature: 77 K
Tabular data in the source: 0
pressure (bar)	uptake (cm3(STP)/g)
0.008827	5.21219
0.008811	13.6516
0.007897	23.2967
0.007879	32.9417
0.007863	41.3812
0.010528	54.6431
0.012308	61.8769
0.01318	75.1389
0.014962	81.1671
0.015845	88.4008
0.019413	98.0459
0.023883	105.28
0.028361	107.691
0.032831	114.925
0.042684	119.747
0.035518	116.13
0.029249	112.514
0.026566	108.897
0.039102	117.336
0.053439	122.159
0.062396	126.981
0.074946	128.187
0.08391	129.392
0.092876	129.392
0.105426	130.598
0.113486	135.421
0.124245	135.421
0.134105	136.626
0.14397	135.421
0.152934	136.626
0.162794	137.832
0.176241	139.037
0.186993	142.654
0.195063	142.654
0.204923	143.86
0.21479	141.449
0.225542	145.066
0.238996	142.654
0.248851	146.271
0.258714	146.271
0.26768	146.271
0.277542	146.271
0.285612	146.271
0.296368	147.477
0.307125	148.682
0.315195	148.682
0.326848	149.888
0.337612	147.477
0.348369	148.682
0.356433	151.094
0.368988	149.888
0.379743	152.299
0.38781	153.505
0.398569	153.505
0.407539	151.094
0.419193	152.299
0.42726	153.505
0.438911	155.916
0.447879	154.711
0.458641	153.505
0.468501	154.711
0.47926	154.711
0.48732	159.533
0.497187	157.122
0.508839	159.533
0.518703	158.328
0.527671	157.122
0.536631	160.739
0.548293	157.122
0.561737	159.533
0.56891	159.533
0.581463	159.533
0.590431	158.328
0.60119	158.328
0.610156	158.328
0.620913	159.533
0.629876	160.739
0.640633	161.944
0.649595	164.356
0.658561	164.356
0.670223	160.739
0.680982	160.739
0.689051	160.739
0.698909	163.15
0.709669	163.15
0.719533	161.944
0.728497	163.15
0.741047	164.356
0.748226	160.739
0.759878	163.15
0.769736	165.561
0.780497	164.356
0.792151	165.561
0.799323	165.561
0.809186	165.561
0.819945	165.561
0.830704	165.561
0.841461	166.767
0.854013	166.767
0.862078	169.178
0.872837	169.178
0.885385	171.59
0.895247	171.59
0.904216	170.384
0.914973	171.59
0.923936	172.795
0.933796	174.001
0.946349	174.001
0.953513	178.823
0.964281	174.001
0.971456	172.795
0.98041	178.823
0.99476	176.412
1.00372	177.618
1.00373	174.001
0.997452	175.206
0.985797	175.206
0.971453	174.001
0.963384	174.001
0.949935	174.001
0.940969	174.001
0.932902	172.795
0.921246	172.795
0.911379	175.206
0.900629	170.384
0.893454	171.59
0.881799	171.59
0.015829	96.8403
0.871037	172.795
0.861179	170.384
0.85311	170.384
0.84056	169.178
0.829801	169.178
0.819938	169.178
0.799317	169.178
0.809181	167.973
0.789456	167.973
0.779592	169.178
0.772423	166.767
0.759871	166.767
0.750008	166.767
0.737456	166.767
0.728492	165.561
0.719529	164.356
0.711459	164.356
0.703392	163.15
0.689939	165.561
0.678283	165.561
0.671111	165.561
0.659459	163.15
0.649597	163.15
0.639732	164.356
0.629874	161.944
0.617322	161.944
0.608354	163.15
0.601181	163.15
0.58684	160.739
0.578777	157.122
0.568908	160.739
0.55994	161.944
0.547394	158.328
0.535734	160.739
0.524083	158.328
0.516906	160.739
0.507942	159.533
0.498084	157.122
0.486428	157.122
0.475667	158.328
0.466701	158.328
0.458636	155.916
0.446985	153.505
0.43712	154.711
0.426359	155.916
0.416494	157.122
0.403946	154.711
0.395879	153.505
0.383327	153.505
0.375257	153.505
0.365397	152.299
0.351946	153.505
0.346575	148.682
0.333127	148.682
0.325949	151.094
0.315186	153.505
0.30622	153.505
0.295467	149.888
0.283816	147.477
0.273958	145.066
0.266785	145.066
0.25513	145.066
0.242575	146.271
0.234499	149.888
0.226432	148.682
0.213882	147.477
0.204024	145.066
0.193269	142.654
0.18251	142.654
0.171753	141.449
0.164581	141.449
0.152925	141.449
0.143062	141.449
0.131404	142.654
0.125131	141.449
0.113477	140.243
0.103619	137.832
0.092867	134.215
0.081213	133.009
0.070463	128.187
0.061493	130.598
0.050734	130.598
0.043563	129.392
0.031914	125.775
0.029227	124.57
0.028332	123.364
0.026541	122.159
0.025647	120.953
0.022966	116.13
0.020281	113.719
0.020287	110.102
0.0194	105.28
0.017613	101.663
