Adsorption isotherm of Nitrogen on TFPB-HZ (SSA)
DOI: 10.1021/acs.chemmater.6b01954
Article source: Figure S7
Adsorbate Nitrogen: InChIKey IJGRMHOSHXDMSA-UHFFFAOYSA-N
Kind: experiment
Temperature: 77 K
Tabular data in the source: 0
pressure (bar)	uptake (cm3(STP)/g)
0.004439	1.33929
0.003329	9.375
0.004439	14.7321
0.003329	22.7679
0.004439	17.4107
0.004439	26.7857
0.00222	30.8036
0.003329	34.8214
0.003329	41.5179
0.003329	45.5357
0.003329	53.5714
0.003329	58.9286
0.004439	64.2857
0.004439	68.3036
0.003329	72.3214
0.00222	77.6786
0.00222	81.6964
0.003329	88.3929
0.003329	92.4107
0.003329	99.1071
0.004439	105.804
0.004439	109.821
0.005641	116.071
0.004871	120.722
0.004871	128.162
0.009495	143.043
0.008724	149.554
0.014119	156.064
0.017202	170.015
0.024909	183.036
0.039552	193.266
0.0488	201.637
0.057278	208.147
0.067297	213.728
0.079628	219.308
0.090418	225.818
0.101979	228.609
0.110456	233.259
0.122017	237.909
0.129724	243.49
0.140513	247.21
0.152845	249.07
0.163634	248.14
0.171341	255.58
0.179819	258.371
0.191379	261.161
0.202169	261.161
0.212959	261.161
0.224519	263.021
0.233768	263.021
0.242245	264.881
0.254576	266.741
0.264595	267.671
0.271532	269.531
0.280009	269.531
0.290799	272.321
0.30236	274.182
0.31392	273.251
0.323168	275.112
0.333187	276.042
0.343977	279.762
0.354767	279.762
0.364015	277.902
0.374034	282.552
0.384824	283.482
0.394843	285.342
0.403321	288.132
0.412569	289.062
0.423359	285.342
0.432607	287.202
0.445709	290.923
0.455728	291.853
0.466518	290.923
0.476537	292.783
0.486556	293.713
0.495034	294.643
0.506594	297.433
0.515843	298.363
0.529715	298.363
0.535881	299.293
0.543588	300.223
0.558231	299.293
0.565938	300.223
0.576728	303.013
0.587517	303.013
0.595224	304.874
0.609867	304.874
0.617574	308.594
0.627594	309.524
0.636071	309.524
0.647632	309.524
0.658421	308.594
0.66844	308.594
0.676918	312.314
0.69002	315.104
0.697727	316.034
0.710058	313.244
0.720077	316.034
0.727013	316.964
0.739344	317.894
0.749364	317.894
0.761695	318.824
0.772484	321.615
0.780962	324.405
0.792523	327.195
0.801	326.265
0.81179	326.265
0.82335	326.265
0.833369	329.985
0.841076	331.845
0.854178	331.845
0.863427	329.985
0.871134	330.915
0.879611	333.705
0.892713	335.565
0.904274	338.356
0.91121	339.286
0.923541	342.076
0.930477	344.866
0.941267	345.796
0.95591	349.516
0.963617	349.516
0.970553	354.167
0.982114	358.817
0.992904	361.607
0.006412	134.673
1.00523	366.257
0.999069	377.418
0.988279	381.138
0.974407	375.558
0.965159	375.558
0.953598	370.908
0.942808	369.048
0.932019	364.397
0.920458	361.607
0.912751	359.747
0.903503	354.167
0.891942	355.097
0.881923	354.167
0.871904	348.586
0.862656	350.446
0.851095	347.656
0.840306	347.656
0.830287	344.866
0.821809	345.796
0.811019	343.936
0.80023	343.936
0.78944	342.076
0.780191	342.076
0.768631	340.216
0.757841	340.216
0.748593	337.426
0.738574	339.286
0.727784	339.286
0.720077	337.426
0.709287	335.565
0.699268	335.565
0.69002	334.635
0.678459	334.635
0.669211	330.915
0.658421	330.915
0.648402	328.125
0.639925	328.125
0.629135	329.985
0.618345	331.845
0.60717	329.055
0.596766	329.985
0.585976	328.125
0.577498	328.125
0.566708	324.405
0.558231	324.405
0.54667	323.475
0.538193	325.335
0.529715	324.405
0.517384	320.685
0.504282	319.754
0.496575	321.615
0.486556	318.824
0.476537	320.685
0.467289	321.615
0.45727	317.894
0.447251	315.104
0.434149	316.034
0.4249	315.104
0.417193	315.104
0.405633	314.174
0.394843	313.244
0.383283	312.314
0.376346	313.244
0.364015	312.314
0.353996	309.524
0.344748	309.524
0.333958	308.594
0.323939	310.454
0.314691	306.734
0.303901	303.943
0.295423	305.804
0.283863	303.013
0.272302	303.013
0.262283	301.153
0.252264	302.083
0.240704	299.293
0.232997	298.363
0.221436	298.363
0.212188	297.433
0.20294	293.713
0.192921	292.783
0.182902	291.853
0.172883	288.132
0.162864	289.062
0.153615	284.412
0.142825	283.482
0.133577	279.762
0.123558	275.112
0.111998	270.461
0.101208	264.881
0.091189	257.44
0.079628	251.86
0.070765	246.28
0.061902	238.839
0.051883	231.399
0.039552	223.958
0.030304	210.938
