Adsorption isotherm of Nitrogen on TpPa-1 (SSA)
DOI: 10.1021/acs.chemmater.6b01954
Article source: Figure 2
Adsorbate Nitrogen: InChIKey IJGRMHOSHXDMSA-UHFFFAOYSA-N
Kind: experiment
Temperature: 77 K
Tabular data in the source: 0
pressure (bar)	uptake (cm3(STP)/g)
0.004342	6.41782
0.00342	19.6798
0.003402	29.3248
0.00249	37.7643
0.00247	48.615
0.003337	64.2882
0.004214	75.1389
0.004194	85.9896
0.003279	95.6346
0.004156	106.485
0.004144	112.514
0.004122	124.57
0.004996	136.626
0.005875	146.271
0.00585	159.533
0.006733	166.767
0.007605	180.029
0.012075	187.263
0.014753	193.291
0.020117	201.73
0.026378	210.17
0.034427	221.02
0.046968	227.049
0.055028	231.871
0.066679	234.282
0.074744	236.694
0.083699	242.722
0.092649	251.161
0.111473	253.573
0.12492	254.778
0.137474	253.573
0.149135	251.161
0.160792	249.956
0.174246	247.544
0.184097	253.573
0.192167	253.573
0.203818	255.984
0.215471	257.189
0.226226	259.601
0.236086	260.806
0.246845	260.806
0.256705	262.012
0.265667	264.423
0.276426	264.423
0.28539	265.629
0.297043	266.835
0.305108	269.246
0.317658	270.451
0.324831	270.451
0.333797	270.451
0.347241	272.863
0.355308	274.068
0.363373	276.48
0.37413	277.685
0.386676	281.302
0.395641	281.302
0.406394	284.919
0.415358	286.125
0.427013	286.125
0.438667	287.33
0.445846	283.713
0.456605	283.713
0.464675	283.713
0.475425	288.536
0.484388	289.742
0.492451	293.358
0.505898	294.564
0.518448	295.77
0.525618	296.975
0.537269	299.387
0.548029	299.387
0.556091	303.003
0.56685	303.003
0.576711	304.209
0.586578	301.798
0.596436	304.209
0.605399	305.415
0.616154	307.826
0.625115	310.237
0.638566	309.032
0.648427	310.237
0.658289	310.237
0.667255	310.237
0.676214	313.854
0.686962	319.882
0.697724	318.677
0.708483	318.677
0.716543	323.499
0.727304	322.294
0.738059	324.705
0.74971	327.116
0.756881	328.322
0.766741	329.527
0.780186	331.939
0.78825	334.35
0.797216	334.35
0.807971	336.761
0.819622	339.172
0.828584	341.584
0.84023	346.406
0.848302	345.201
0.859951	348.818
0.869809	351.229
0.881462	352.434
0.889527	354.846
0.899381	359.668
0.908333	366.902
0.919092	366.902
0.928941	374.136
0.939696	376.547
0.950442	383.781
0.9585	389.809
0.972836	394.632
0.982694	397.043
0.993442	403.071
1.0024	409.099
0.995204	419.95
0.987135	419.95
0.969207	417.539
0.959354	412.716
0.951293	407.894
0.939647	403.071
0.929791	399.454
0.918146	393.426
0.908291	389.809
0.900219	391.015
0.889471	384.987
0.881406	382.575
0.869751	382.575
0.859888	382.575
0.850037	376.547
0.838386	374.136
0.827629	372.93
0.818663	372.93
0.809701	370.519
0.798048	369.313
0.788188	368.108
0.777435	364.491
0.76937	362.079
0.758611	362.079
0.749648	360.874
0.737098	359.668
0.728134	358.463
0.717375	358.463
0.706622	354.846
0.695865	353.64
0.686902	352.434
0.67794	350.023
0.668974	350.023
0.656424	348.818
0.647456	350.023
0.637594	350.023
0.625949	343.995
0.617882	342.789
0.60533	342.789
0.597263	341.584
0.588301	339.172
0.577538	341.584
0.56768	339.172
0.556918	340.378
0.545269	336.761
0.537202	335.556
0.526448	333.144
0.517486	330.733
0.504934	330.733
0.495977	325.91
0.487919	319.882
0.474479	315.06
0.465531	305.415
0.456578	298.181
0.445826	294.564
0.435074	290.947
0.425209	292.153
0.416247	289.742
0.406387	288.536
0.396529	286.125
0.384873	286.125
0.375013	284.919
0.366049	283.713
0.35529	283.713
0.344533	282.508
0.334673	281.302
0.325707	281.302
0.314052	281.302
0.305092	277.685
0.292545	275.274
0.28448	272.863
0.273721	272.863
0.263858	272.863
0.254	270.451
0.244137	270.451
0.233383	268.04
0.22352	268.04
0.214559	265.629
0.202903	265.629
0.194838	263.218
0.185877	260.806
0.173327	259.601
0.164363	258.395
0.152712	255.984
0.14016	255.984
0.090861	248.75
0.083686	249.956
0.072935	245.133
0.062181	242.722
0.052332	235.488
0.043368	234.282
0.022773	219.815
0.011142	206.553
0.033512	230.666
0.100716	252.367
0.110579	252.367
0.124025	253.573
