Adsorption isotherm of Nitrogen on COF-LZU1 (SSA)
DOI: 10.1021/acs.chemmater.6b01954
Article source: Figure 2
Adsorbate Nitrogen: InChIKey IJGRMHOSHXDMSA-UHFFFAOYSA-N
Kind: experiment
Temperature: 77 K
Tabular data in the source: 0
pressure (bar)	uptake (cm3(STP)/g)
0.004342	6.41782
0.005216	18.4742
0.005198	28.1192
0.006969	40.1755
0.008742	51.0262
0.013202	63.0826
0.022141	77.5502
0.031087	88.4008
0.043633	92.0177
0.052594	94.429
0.062452	96.8403
0.074998	100.457
0.085757	100.457
0.095612	104.074
0.102785	104.074
0.115333	106.485
0.127881	108.897
0.136847	108.897
0.144015	111.308
0.151183	113.719
0.159255	112.514
0.167322	113.719
0.176286	114.925
0.186148	114.925
0.198248	117.336
0.207657	119.747
0.217515	122.159
0.229171	122.159
0.240825	123.364
0.250689	122.159
0.256963	123.364
0.26772	124.57
0.28027	125.775
0.290133	125.775
0.2982	126.981
0.308957	128.187
0.319716	128.187
0.328677	130.598
0.340333	130.598
0.347506	130.598
0.36095	133.009
0.36992	130.598
0.378877	135.421
0.389637	135.421
0.401294	134.215
0.410256	136.626
0.420112	140.243
0.429075	141.449
0.439837	140.243
0.452382	143.86
0.46224	146.271
0.472101	147.477
0.48286	147.477
0.491823	148.682
0.501681	151.094
0.511539	153.505
0.523191	155.916
0.539327	157.122
0.551879	157.122
0.566225	157.122
0.576083	159.533
0.588631	161.944
0.594909	160.739
0.605668	160.739
0.617322	161.944
0.634361	159.533
0.647806	161.944
0.659464	160.739
0.669324	161.944
0.680083	161.944
0.692633	163.15
1.00282	182.44
0.992062	181.235
0.977714	182.44
0.965168	178.823
0.954414	176.412
0.946344	176.412
0.932902	172.795
0.923035	175.206
0.916763	172.795
0.906899	174.001
0.890762	172.795
0.884486	172.795
0.871035	174.001
0.859379	174.001
0.85042	170.384
0.838764	170.384
0.82621	171.59
0.81366	170.384
0.80111	169.178
0.790353	167.973
0.777807	164.356
0.769738	164.356
0.759878	163.15
0.725809	161.944
0.716846	160.739
0.705188	161.944
0.739254	164.356
0.750912	163.15
1.00727	196.908
0.999198	200.525
0.987547	198.113
0.973202	198.113
0.962447	195.702
0.951692	193.291
0.940936	192.085
0.928386	190.88
0.922109	190.88
0.910451	192.085
0.902384	190.88
0.889832	190.88
0.879972	189.674
0.870112	188.468
0.860251	187.263
0.848596	187.263
0.841425	186.057
0.82708	186.057
0.819909	184.851
0.810047	184.851
0.801085	182.44
0.793009	186.057
0.781362	181.235
0.770605	180.029
0.759846	180.029
0.749988	177.618
0.739227	178.823
0.732052	180.029
0.720396	180.029
0.708743	178.823
0.698885	176.412
0.690813	177.618
0.680953	176.412
0.668403	175.206
0.657644	175.206
0.648682	172.795
0.640613	172.795
0.629852	174.001
0.620888	172.795
0.610129	172.795
0.600273	169.178
0.590404	172.795
0.58144	171.59
0.57158	170.384
0.559922	171.59
0.550064	169.178
0.541096	170.384
0.531235	169.178
0.520476	169.178
0.510614	169.178
0.499857	167.973
0.488206	165.561
0.481033	165.561
0.469382	163.15
0.46042	160.739
0.449659	161.944
0.441594	159.533
0.429042	159.533
0.420975	158.328
0.41111	159.533
0.400351	159.533
0.391387	158.328
0.379727	160.739
0.369867	159.533
0.360901	159.533
0.348353	157.122
0.338493	155.916
0.329529	154.711
0.317873	154.711
0.307114	154.711
0.299052	151.094
0.289185	153.505
0.276634	152.299
0.267669	152.299
0.259597	153.505
0.249732	154.711
0.237182	153.505
0.228223	149.888
0.219257	149.888
0.207599	151.094
0.198638	148.682
0.189676	146.271
0.178025	143.86
0.16816	145.066
0.157403	143.86
0.148437	143.86
0.136784	142.654
0.128719	140.243
0.119755	139.037
0.034604	125.775
0.047152	128.187
0.057906	130.598
0.068665	130.598
0.077629	131.804
0.087483	136.626
0.098244	135.421
0.109003	135.421
