Adsorption isotherm of Carbon Dioxide, Hydrogen on AC AP3-60
DOI: 10.1021/la4004998
Article source: Figure 9
Adsorbate Carbon Dioxide: InChIKey CURLTUGMZLYLDI-UHFFFAOYSA-N
Adsorbate Hydrogen: InChIKey UFHFLCQGNIYNRP-UHFFFAOYSA-N
Kind: experiment
Temperature: 298 K
Tabular data in the source: 0
pressure (bar)	Carbon Dioxide fraction	Carbon Dioxide uptake (mmol/g)	Hydrogen fraction	Hydrogen uptake (mmol/g)	total uptake (mmol/g)
30	0.08626	2.539	0.91657	1.0245	3.6255
30	0.29131	5.2483	0.7101	0.5075	5.7421
30	0.5897	6.7438	0.4103	0.1923	6.8755
