Adsorption isotherm of Hydrogen on Phenol-Formaldehyde Resin-based Activated Carbon
DOI: 10.1021/la4004998
Article source: Figure 1c
Adsorbate Hydrogen: InChIKey UFHFLCQGNIYNRP-UHFFFAOYSA-N
Kind: experiment
Temperature: 318 K
Tabular data in the source: 0
pressure (bar)	uptake (mmol/g)
2.526	0.10203
3.961	0.13913
6.899	0.22261
9.289	0.30145
10.587	0.33855
13.185	0.40348
15.986	0.48696
18.311	0.53333
21.387	0.59826
24.739	0.65391
28.769	0.78377
30.887	0.83942
32.938	0.88116
37.38	0.9971
39.637	1.0342
