Adsorption isotherm of Hydrogen on Carbon
DOI: 10.1021/la4004998
Adsorbate Hydrogen: InChIKey UFHFLCQGNIYNRP-UHFFFAOYSA-N
Temperature: 298 K
Tabular data in the source: 0
pressure (bar)	uptake (mmol/g)
0.337418	0.0248009
1.18249	0.0462094
2.19657	0.0676178
2.92897	0.108181
5.18249	0.156632
7.267	0.193815
10.4219	0.279449
14.8726	0.381984
25.2388	0.638885
30.0839	0.706491
