Adsorption isotherm of Carbon Dioxide on Carbon
DOI: 10.1021/la4004998
Adsorbate Carbon Dioxide: InChIKey CURLTUGMZLYLDI-UHFFFAOYSA-N
Temperature: 298 K
Tabular data in the source: 0
pressure (bar)	uptake (mmol/g)
0.19665	0.070575
0.295241	0.662124
0.837495	1.25367
1.42904	1.83114
1.82341	2.28184
2.85862	2.85931
5.17552	4.09874
7.68961	4.91565
10.0065	5.60579
12.6192	6.21142
15.2812	6.74663
17.8938	7.11283
20.1121	7.35227
24.9431	7.9579
30.2178	8.54945
