Adsorption isotherm of Carbon Dioxide on Carbon
DOI: 10.1021/la4004998
Adsorbate Carbon Dioxide: InChIKey CURLTUGMZLYLDI-UHFFFAOYSA-N
Temperature: 298 K
Tabular data in the source: 0
pressure (bar)	uptake (mmol/g)
0.098058	0.152296
0.295241	0.794549
0.689607	1.74103
1.33045	2.36638
1.47834	2.6368
4.2389	4.90159
6.75299	6.2199
9.31637	7.03117
10.7459	7.48751
13.3586	8.09596
15.8727	8.51849
18.4854	8.89032
21.0488	9.24525
24.9924	9.7692
28.8375	10.1241
30.0206	10.2593
