Adsorption isotherm of Nitrogen on Carbon
DOI: 10.1021/la4004998
Adsorbate Nitrogen: InChIKey IJGRMHOSHXDMSA-UHFFFAOYSA-N
Temperature: 298 K
Tabular data in the source: 0
pressure (bar)	uptake (mmol/g)
0.098058	0.0225962
0.689607	0.270484
1.52764	0.490202
4.04172	1.12682
6.70369	1.57189
9.46426	1.92682
11.0417	2.1071
13.6544	2.37753
16.0206	2.58598
18.584	2.80006
21.3938	2.99161
25.1896	3.19443
29.5769	3.40851
