Adsorption isotherm of Nitrogen on Carbon
DOI: 10.1021/la4004998
Adsorbate Nitrogen: InChIKey IJGRMHOSHXDMSA-UHFFFAOYSA-N
Temperature: 318 K
Tabular data in the source: 0
pressure (bar)	uptake (mmol/g)
0.330591	0.0627527
1.03136	0.174304
1.8823	0.285855
2.63312	0.371664
5.13587	0.697736
9.94115	1.10533
30.1634	2.11787
