Adsorption isotherm of Hydrogen on AC AP3-60
DOI: 10.1021/la4004998
Article source: Figure 7c
Adsorbate Hydrogen: InChIKey UFHFLCQGNIYNRP-UHFFFAOYSA-N
Kind: experiment
Temperature: 318 K
Tabular data in the source: 0
pressure (bar)	uptake (mmol/g)
2.667	0.06026
5.031	0.10805
7.516	0.16416
10.001	0.20779
12.606	0.25351
15.091	0.3013
20.061	0.40935
25.091	0.50078
29.998	0.57766
