Adsorption isotherm of Carbon Dioxide on Carbon
DOI: 10.1021/la4004998
Adsorbate Carbon Dioxide: InChIKey CURLTUGMZLYLDI-UHFFFAOYSA-N
Temperature: 338 K
Tabular data in the source: 0
pressure (bar)	uptake (mmol/g)
0.330591	0.233849
1.08142	1.05761
3.93455	2.79094
6.8878	3.87213
9.4406	4.42131
10.8421	4.86751
13.5952	5.39953
15.8476	5.7256
18.5506	6.12032
21.3036	6.42923
25.1078	6.80679
29.3124	7.23583
