Adsorption isotherm of Carbon Dioxide on Carbon
DOI: 10.1021/la4004998
Adsorbate Carbon Dioxide: InChIKey CURLTUGMZLYLDI-UHFFFAOYSA-N
Temperature: 338 K
Tabular data in the source: 0
pressure (bar)	uptake (mmol/g)
0.098058	0.372014
0.738903	0.760746
1.18256	1.08187
1.42904	1.4537
3.99242	2.87342
6.90088	3.87061
9.31637	4.59737
10.7952	4.93539
13.4079	5.49314
15.922	5.89877
18.3868	6.28751
21.1966	6.57483
24.8938	6.96356
29.4783	7.3523
