Adsorption isotherm of Hydrogen on Carbon
DOI: 10.1021/la4004998
Adsorbate Hydrogen: InChIKey UFHFLCQGNIYNRP-UHFFFAOYSA-N
Temperature: 338 K
Tabular data in the source: 0
pressure (bar)	uptake (mmol/g)
3.86551	0.0293202
6.52748	0.0653765
9.3796	0.139743
10.7106	0.178053
13.3092	0.184813
15.781	0.184813
18.3162	0.234391
21.0416	0.2727
24.781	0.308757
29.0909	0.376362
31.8796	0.394391
33.1472	0.419179
37.5204	0.489038
39.7388	0.531855
