Adsorption isotherm of Nitrogen on Phenol-Formaldehyde Resin-based Activated Carbon
DOI: 10.1021/la4004998
Article source: Figure 1b
Adsorbate Nitrogen: InChIKey IJGRMHOSHXDMSA-UHFFFAOYSA-N
Kind: experiment
Temperature: 298 K
Tabular data in the source: 0
pressure (bar)	uptake (mmol/g)
0.159	0
0.526	0
0.896	0
1.375	0
3.972	0
6.628	0
9.232	0
10.775	0
13.382	0
15.617	0
18.546	0
21.103	0
24.778	0
29.413	0
