Adsorption isotherm of Hydrogen on Carbon
DOI: 10.1021/la4004998
Adsorbate Hydrogen: InChIKey UFHFLCQGNIYNRP-UHFFFAOYSA-N
Temperature: 298 K
Tabular data in the source: 0
pressure (bar)	uptake (mmol/g)
0.126075	2.44e-05
1.26692	0.110447
3.73875	0.252419
6.52748	0.407912
10.7106	0.549884
12.9289	0.63101
15.9078	0.725658
18.443	0.809038
21.1683	0.910447
25.1613	1.03439
28.774	1.16059
32.8303	1.24622
37.1402	1.37693
39.8655	1.45355
