Adsorption isotherm of Carbon Dioxide on Carbon
DOI: 10.1021/la4004998
Adsorbate Carbon Dioxide: InChIKey CURLTUGMZLYLDI-UHFFFAOYSA-N
Temperature: 318 K
Tabular data in the source: 0
pressure (bar)	uptake (mmol/g)
1.48186	1.79557
4.13477	3.64903
7.08802	4.83319
9.39055	5.63979
10.9423	5.9487
13.3949	6.37774
15.8977	6.89259
18.4505	7.27015
21.1535	7.59623
25.2079	7.99094
29.5127	8.31702
