Adsorption isotherm of Nitrogen on Carbon
DOI: 10.1021/la4004998
Adsorbate Nitrogen: InChIKey IJGRMHOSHXDMSA-UHFFFAOYSA-N
Temperature: 338 K
Tabular data in the source: 0
pressure (bar)	uptake (mmol/g)
0.738903	0.0620328
4.14031	0.585976
6.80228	0.895836
9.41496	1.13246
10.4502	1.23386
13.5065	1.47612
16.1192	1.63386
18.5347	1.79161
21.1966	1.93246
25.091	2.10147
29.4783	2.28738
