Adsorption isotherm of Carbon Dioxide on AC AP3-60
DOI: 10.1021/la4004998
Article source: Figure 7a
Adsorbate Carbon Dioxide: InChIKey CURLTUGMZLYLDI-UHFFFAOYSA-N
Kind: experiment
Temperature: 318 K
Tabular data in the source: 0
pressure (bar)	uptake (mmol/g)
0.325	0.4442
0.757	0.8883
0.92	1.1937
1.298	1.4156
1.675	1.5542
1.945	1.6929
2.268	1.8593
2.484	1.998
2.807	2.0811
3.184	2.2475
5.124	3.107
7.224	3.6609
9.216	4.1594
12.176	4.7959
15.082	5.2658
15.405	5.2656
19.601	5.8456
30.091	6.865
