Adsorption isotherm of Hydrogen on Carbon
DOI: 10.1021/la4004998
Adsorbate Hydrogen: InChIKey UFHFLCQGNIYNRP-UHFFFAOYSA-N
Temperature: 298 K
Tabular data in the source: 0
pressure (bar)	uptake (mmol/g)
0.0626943	0.0127035
1.20354	0.111577
4.18241	0.266225
6.71762	0.403126
9.3796	0.491858
13.119	0.623689
15.9078	0.737774
18.5697	0.821436
20.9782	0.920309
24.9711	1.02679
29.0275	1.1713
32.7669	1.24482
37.4571	1.37665
39.9289	1.46538
