Adsorption isotherm of Hydrogen on Carbon
DOI: 10.1021/la4004998
Adsorbate Hydrogen: InChIKey UFHFLCQGNIYNRP-UHFFFAOYSA-N
Temperature: 338 K
Tabular data in the source: 0
pressure (bar)	uptake (mmol/g)
1.57685	0.0180404
3.267	0.0529699
5.12615	0.090153
10.0276	0.170153
20.2811	0.325646
35.605	0.546491
