Adsorption isotherm of Hydrogen on Carbon
DOI: 10.1021/la4004998
Adsorbate Hydrogen: InChIKey UFHFLCQGNIYNRP-UHFFFAOYSA-N
Temperature: 298 K
Tabular data in the source: 0
pressure (bar)	uptake (mmol/g)
0.189455	0.011292
1.26692	0.128475
3.99227	0.256926
6.90776	0.416926
9.50636	0.50256
13.119	0.628757
16.1613	0.721151
18.7599	0.813546
21.2951	0.9127
25.1613	1.02538
29.0275	1.15833
31.6895	1.21467
37.0134	1.37693
39.8021	1.46481
