Adsorption isotherm of Nitrogen on Phenol-Formaldehyde Resin-based Activated Carbon
DOI: 10.1021/la4004998
Article source: Figure 1b
Adsorbate Nitrogen: InChIKey IJGRMHOSHXDMSA-UHFFFAOYSA-N
Kind: experiment
Temperature: 318 K
Tabular data in the source: 0
pressure (bar)	uptake (mmol/g)
1.218	0
3.98	0
6.531	0
9.137	0
10.627	0
13.289	0
15.898	0
18.134	0
21.064	0
24.9	0
29.429	0
