Adsorption isotherm of Carbon Dioxide on AC AP3-60
DOI: 10.1021/la4004998
Article source: Figure 7a
Adsorbate Carbon Dioxide: InChIKey CURLTUGMZLYLDI-UHFFFAOYSA-N
Kind: experiment
Temperature: 298 K
Tabular data in the source: 0
pressure (bar)	uptake (mmol/g)
0.162	0.7929
0.166	0.8054
0.436	1.1108
0.652	1.3328
0.922	1.5548
1.138	1.6935
1.3	1.8601
1.463	2.0544
1.894	2.2485
2.11	2.5261
2.273	2.7227
2.65	2.9146
5.13	4.1626
7.5	4.994
9.977	5.631
12.614	6.24
15.036	6.7658
15.413	6.7933
17.673	7.0971
19.932	7.4286
25.151	8.0634
30.315	8.5315
