Adsorption isotherm of Carbon Dioxide on Carbon
DOI: 10.1021/la4004998
Adsorbate Carbon Dioxide: InChIKey CURLTUGMZLYLDI-UHFFFAOYSA-N
Temperature: 338 K
Tabular data in the source: 0
pressure (bar)	uptake (mmol/g)
0.245945	0.270605
0.738903	0.726943
1.52764	1.3692
4.04172	2.89032
6.85158	3.88751
9.26707	4.58046
10.8938	4.9523
13.3586	5.42554
15.9713	5.88187
18.4361	6.203
21.1474	6.52413
24.9431	6.89596
29.6262	7.28469
