Adsorption isotherm of Hydrogen on Carbon
DOI: 10.1021/la4004998
Adsorbate Hydrogen: InChIKey UFHFLCQGNIYNRP-UHFFFAOYSA-N
Temperature: 318 K
Tabular data in the source: 0
pressure (bar)	uptake (mmol/g)
1.20354	0.0563624
2.40776	0.0969258
4.24579	0.130729
6.65424	0.209602
9.06269	0.288475
10.7106	0.329038
13.4993	0.403405
16.2247	0.473264
18.443	0.529602
21.3585	0.590447
24.8444	0.658053
28.9007	0.779743
30.9289	0.824813
33.0838	0.874391
37.6472	0.991574
39.9923	1.03439
