Adsorption isotherm of Nitrogen on Carbon
DOI: 10.1021/la4004998
Adsorbate Nitrogen: InChIKey IJGRMHOSHXDMSA-UHFFFAOYSA-N
Temperature: 318 K
Tabular data in the source: 0
pressure (bar)	uptake (mmol/g)
0.245945	0.0451314
1.28116	0.343723
3.94313	0.845131
6.50651	1.20006
9.06989	1.48175
10.4502	1.63386
13.4572	1.90429
15.922	2.07893
18.3375	2.24795
21.0981	2.40006
24.8938	2.60851
29.6262	2.80006
