Adsorption isotherm of Carbon Dioxide on Phenol-Formaldehyde Resin-based Activated Carbon
DOI: 10.1021/la4004998
Article source: Figure 6b
Adsorbate Carbon Dioxide: InChIKey CURLTUGMZLYLDI-UHFFFAOYSA-N
Kind: experiment
Temperature: 318 K
Tabular data in the source: 0
pressure (bar)	uptake (mmol/g)
3.0332	1.5526
5.0237	2.0526
10.0474	3.2368
15.0711	3.9474
20.0474	4.3947
