Adsorption isotherm of Carbon Dioxide, Hydrogen on AC AP3-60
DOI: 10.1021/la4004998
Article source: Figure 9
Adsorbate Carbon Dioxide: InChIKey CURLTUGMZLYLDI-UHFFFAOYSA-N
Adsorbate Hydrogen: InChIKey UFHFLCQGNIYNRP-UHFFFAOYSA-N
Kind: experiment
Temperature: 298 K
Tabular data in the source: 0
pressure (bar)	Carbon Dioxide fraction	Carbon Dioxide uptake (mmol/g)	Hydrogen fraction	Hydrogen uptake (mmol/g)	total uptake (mmol/g)
20	0.07354	1.7574	0.92788	0.8663	2.7228
20	0.24465	3.8119	0.75677	0.4208	4.2574
20	0.55293	5.5446	0.44848	0.1733	5.7673
