Adsorption isotherm of Nitrogen on Carbon
DOI: 10.1021/la4004998
Adsorbate Nitrogen: InChIKey IJGRMHOSHXDMSA-UHFFFAOYSA-N
Temperature: 318 K
Tabular data in the source: 0
pressure (bar)	uptake (mmol/g)
0.689607	0.152174
1.57693	0.338089
4.2389	0.856399
6.80228	1.21133
9.26707	1.52119
10.7459	1.65077
13.4572	1.89302
16.1685	2.09584
18.5347	2.24795
21.2459	2.41133
25.091	2.60851
29.7248	2.8226
