Adsorption isotherm of Nitrogen on AC AP3-60
DOI: 10.1021/la4004998
Article source: Figure 7b
Adsorbate Nitrogen: InChIKey IJGRMHOSHXDMSA-UHFFFAOYSA-N
Kind: experiment
Temperature: 318 K
Tabular data in the source: 0
pressure (bar)	uptake (mmol/g)
0.474	0.1236
2.747	0.3626
5.071	0.6923
9.776	1.0962
29.985	2.1264
