Adsorption isotherm of Carbon Dioxide on AC AP3-60
DOI: 10.1021/la4004998
Article source: Figure 7a
Adsorbate Carbon Dioxide: InChIKey CURLTUGMZLYLDI-UHFFFAOYSA-N
Kind: experiment
Temperature: 338 K
Tabular data in the source: 0
pressure (bar)	uptake (mmol/g)
0.647	0.3884
0.971	0.6659
1.51	0.8877
1.834	1.1374
2.212	1.3871
2.697	1.5812
4.528	2.1909
5.067	2.3849
5.928	2.5231
7.543	2.9107
10.126	3.3809
15.076	4.1825
20.133	4.7618
30.515	5.698
