Adsorption isotherm of Carbon Dioxide on Carbon
DOI: 10.1021/la4004998
Adsorbate Carbon Dioxide: InChIKey CURLTUGMZLYLDI-UHFFFAOYSA-N
Temperature: 318 K
Tabular data in the source: 0
pressure (bar)	uptake (mmol/g)
1.28116	1.87624
4.09102	3.70159
6.6544	4.91849
9.26707	5.62835
10.8938	6.05089
13.1614	6.55793
15.7741	6.99737
18.3868	7.3692
21.1966	7.67342
24.9924	8.04525
29.5769	8.38328
