Adsorption isotherm of Carbon Dioxide on Carbon
DOI: 10.1021/la4004998
Adsorbate Carbon Dioxide: InChIKey CURLTUGMZLYLDI-UHFFFAOYSA-N
Temperature: 298 K
Tabular data in the source: 0
pressure (bar)	uptake (mmol/g)
0.098058	0.000183
0.344537	0.811451
0.640311	1.75793
1.18256	2.29877
1.47834	2.67061
4.09102	4.90159
6.70369	6.28751
9.16848	7.06497
10.6474	7.4199
13.1614	8.01145
15.8234	8.53539
18.5347	8.94103
21.0981	9.31286
24.9924	9.66779
28.9361	10.0734
30.2178	10.2255
