Adsorption isotherm of Nitrogen on Carbon
DOI: 10.1021/la4004998
Adsorbate Nitrogen: InChIKey IJGRMHOSHXDMSA-UHFFFAOYSA-N
Temperature: 298 K
Tabular data in the source: 0
pressure (bar)	uptake (mmol/g)
0.54172	0.219779
1.33045	0.422596
4.09102	1.08175
6.6544	1.54372
9.36566	1.92682
10.7459	2.0733
13.6051	2.35499
15.5769	2.53527
18.4361	2.77753
21.1474	2.94091
24.9431	3.17189
29.2812	3.36344
