Adsorption isotherm of Hydrogen on Carbon
DOI: 10.1021/la4004998
Adsorbate Hydrogen: InChIKey UFHFLCQGNIYNRP-UHFFFAOYSA-N
Temperature: 318 K
Tabular data in the source: 0
pressure (bar)	uptake (mmol/g)
1.20354	0.0558021
2.53453	0.109042
3.92889	0.14707
6.781	0.230732
10.774	0.347351
16.1613	0.479182
18.3796	0.532422
21.2317	0.583126
25.0345	0.664253
28.9641	0.780873
30.9289	0.823971
33.274	0.874675
37.6472	1.00144
40.119	1.04453
