Adsorption isotherm of Nitrogen on AC AP3-60
DOI: 10.1021/la4004998
Article source: Figure 7b
Adsorbate Nitrogen: InChIKey IJGRMHOSHXDMSA-UHFFFAOYSA-N
Kind: experiment
Temperature: 298 K
Tabular data in the source: 0
pressure (bar)	uptake (mmol/g)
0.263	0.1071
0.685	0.206
1.054	0.2802
1.212	0.3214
1.793	0.4038
1.952	0.4286
2.268	0.478
2.691	0.5306
5.119	0.9478
10.247	1.4423
30.189	2.5797
