Adsorption isotherm of Nitrogen on AC AP3-60
DOI: 10.1021/la4004998
Article source: Figure 7b
Adsorbate Nitrogen: InChIKey IJGRMHOSHXDMSA-UHFFFAOYSA-N
Kind: experiment
Temperature: 338 K
Tabular data in the source: 0
pressure (bar)	uptake (mmol/g)
0.846	0.0495
1.375	0.1236
1.903	0.1648
2.273	0.2308
2.643	0.272
4.915	0.544
10.151	0.8984
29.568	1.772
