Adsorption isotherm of Hydrogen on AC AP3-60
DOI: 10.1021/la4004998
Article source: Figure 7c
Adsorbate Hydrogen: InChIKey UFHFLCQGNIYNRP-UHFFFAOYSA-N
Kind: experiment
Temperature: 338 K
Tabular data in the source: 0
pressure (bar)	uptake (mmol/g)
1.515	0.02286
3.151	0.05818
5.09	0.09558
10.119	0.17662
20.237	0.33247
35.201	0.55481
