Adsorption isotherm of Hydrogen on Carbon
DOI: 10.1021/la4004998
Adsorbate Hydrogen: InChIKey UFHFLCQGNIYNRP-UHFFFAOYSA-N
Temperature: 318 K
Tabular data in the source: 0
pressure (bar)	uptake (mmol/g)
5.01347	0.102547
7.37967	0.155505
10.1402	0.201702
12.5064	0.246773
14.929	0.291843
19.9994	0.403392
25.1825	0.49804
29.9712	0.569026
