Adsorption isotherm of Carbon Dioxide, Nitrogen on AC AP3-60
DOI: 10.1021/la4004998
Article source: Figure 8
Adsorbate Carbon Dioxide: InChIKey CURLTUGMZLYLDI-UHFFFAOYSA-N
Adsorbate Nitrogen: InChIKey IJGRMHOSHXDMSA-UHFFFAOYSA-N
Kind: experiment
Temperature: 298 K
Tabular data in the source: 0
pressure (bar)	Carbon Dioxide fraction	Carbon Dioxide uptake (mmol/g)	Nitrogen fraction	Nitrogen uptake (mmol/g)	total uptake (mmol/g)
20	0.10417	1.7598	0.89306	1.4443	3.2905
20	0.28889	3.5766	0.7125	0.8073	4.4268
20	0.57222	5.4037	0.42917	0.3023	5.7195
