Adsorption isotherm of Carbon Dioxide on Phenol-Formaldehyde Resin-based Activated Carbon
DOI: 10.1021/la4004998
Article source: Figure 1a
Adsorbate Carbon Dioxide: InChIKey CURLTUGMZLYLDI-UHFFFAOYSA-N
Kind: experiment
Temperature: 318 K
Tabular data in the source: 0
pressure (bar)	uptake (mmol/g)
1	1.4909
1.477	1.8681
4.128	3.8039
6.839	4.9065
9.34	5.6756
10.777	6.0436
13.174	6.5125
15.731	6.9816
18.395	7.3842
21.06	7.6867
24.898	8.057
29.482	8.4947
