Adsorption isotherm of Carbon Dioxide on Carbon
DOI: 10.1021/la4004998
Adsorbate Carbon Dioxide: InChIKey CURLTUGMZLYLDI-UHFFFAOYSA-N
Temperature: 318 K
Tabular data in the source: 0
pressure (bar)	uptake (mmol/g)
1.52764	1.77483
4.09102	3.68469
6.70369	4.86779
9.31637	5.59455
11.0417	6.08469
13.3586	6.49032
15.8727	6.98046
18.5347	7.31849
21.2952	7.63962
24.7952	8.11286
29.6755	8.46779
