Adsorption isotherm of Carbon Dioxide on Carbon
DOI: 10.1021/la4004998
Adsorbate Carbon Dioxide: InChIKey CURLTUGMZLYLDI-UHFFFAOYSA-N
Temperature: 298 K
Tabular data in the source: 0
pressure (bar)	uptake (mmol/g)
0.180426	0.0107468
0.781086	1.64111
1.33169	2.34474
1.58197	2.68797
4.13477	4.919
6.73763	6.13748
9.14027	7.01273
13.1447	8.00811
15.8476	8.48864
18.4004	8.84903
21.1034	9.26091
24.9076	9.65563
30.1634	10.2048
