Adsorption isotherm of Nitrogen on Carbon
DOI: 10.1021/la4004998
Adsorbate Nitrogen: InChIKey IJGRMHOSHXDMSA-UHFFFAOYSA-N
Temperature: 338 K
Tabular data in the source: 0
pressure (bar)	uptake (mmol/g)
0.54172	0.0902018
1.52764	0.236681
4.04172	0.614146
6.6544	0.924005
9.21778	1.16626
10.5981	1.2733
13.4079	1.50992
15.922	1.64513
18.4854	1.80288
20.9995	1.92119
24.9924	2.11274
29.3305	2.29302
