Adsorption isotherm of Nitrogen on Carbon
DOI: 10.1021/la4004998
Adsorbate Nitrogen: InChIKey IJGRMHOSHXDMSA-UHFFFAOYSA-N
Temperature: 298 K
Tabular data in the source: 0
pressure (bar)	uptake (mmol/g)
-0.000534	0.0338638
0.492424	0.242315
0.936086	0.388793
1.28116	0.467667
4.09102	1.09302
6.80228	1.58316
9.26707	1.93809
10.7952	2.11274
13.4079	2.36626
15.6755	2.55781
18.6333	2.80006
21.2459	2.95781
24.8938	3.17753
29.5769	3.40851
