Adsorption isotherm of Nitrogen on Carbon
DOI: 10.1021/la4004998
Adsorbate Nitrogen: InChIKey IJGRMHOSHXDMSA-UHFFFAOYSA-N
Temperature: 338 K
Tabular data in the source: 0
pressure (bar)	uptake (mmol/g)
0.788199	0.118371
4.14031	0.608512
6.75299	0.918371
9.46426	1.17753
10.6474	1.26767
13.5065	1.49865
16.1192	1.66203
18.6826	1.81978
21.3445	1.94936
25.0417	2.13527
29.6755	2.30992
