Adsorption isotherm of Nitrogen on Phenol-Formaldehyde Resin-based Activated Carbon
DOI: 10.1021/la4004998
Article source: Figure 1b
Adsorbate Nitrogen: InChIKey IJGRMHOSHXDMSA-UHFFFAOYSA-N
Kind: experiment
Temperature: 338 K
Tabular data in the source: 0
pressure (bar)	uptake (mmol/g)
0.638	0.093
0.956	0.1604
1.328	0.2091
3.986	0.5926
6.538	0.9297
9.306	1.1741
10.37	1.2556
13.352	1.5001
15.909	1.6516
18.519	1.8148
21.023	1.9432
24.913	2.1184
29.39	2.3054
