Adsorption isotherm of Hydrogen on Carbon
DOI: 10.1021/la4004998
Adsorbate Hydrogen: InChIKey UFHFLCQGNIYNRP-UHFFFAOYSA-N
Temperature: 338 K
Tabular data in the source: 0
pressure (bar)	uptake (mmol/g)
1.45706	0.0270666
4.11903	0.0135455
6.781	0.0653765
9.18946	0.123968
10.7106	0.162278
13.4359	0.180306
15.8444	0.184813
18.3162	0.229884
21.0416	0.270447
24.8444	0.315517
29.2176	0.378616
31.7528	0.396644
33.3373	0.4327
37.4571	0.486785
39.9289	0.527348
