Adsorption isotherm of Hydrogen on Carbon
DOI: 10.1021/la4004998
Adsorbate Hydrogen: InChIKey UFHFLCQGNIYNRP-UHFFFAOYSA-N
Temperature: 318 K
Tabular data in the source: 0
pressure (bar)	uptake (mmol/g)
1.0134	0.0450948
2.47114	0.101433
3.80213	0.130729
6.65424	0.216362
9.31622	0.290729
10.5838	0.329038
13.4359	0.401151
16.1613	0.47101
18.5064	0.531855
21.3585	0.58594
25.0345	0.660306
28.774	0.770729
30.9289	0.82932
33.0838	0.876644
37.5204	0.996081
39.9923	1.03664
