Adsorption isotherm of Carbon Dioxide on Phenol-Formaldehyde Resin-based Activated Carbon
DOI: 10.1021/la4004998
Article source: Figure 1a
Adsorbate Carbon Dioxide: InChIKey CURLTUGMZLYLDI-UHFFFAOYSA-N
Kind: experiment
Temperature: 338 K
Tabular data in the source: 0
pressure (bar)	uptake (mmol/g)
0.424	0.3004
0.899	0.8675
1.27	1.2346
1.587	1.5348
4.029	2.9038
6.848	3.9065
9.296	4.6089
10.787	4.9769
13.396	5.4794
15.954	5.8819
18.458	6.2509
21.069	6.5867
24.855	6.9237
29.439	7.328
