Adsorption isotherm of Hydrogen on Phenol-Formaldehyde Resin-based Activated Carbon
DOI: 10.1021/la4004998
Article source: Figure 1c
Adsorbate Hydrogen: InChIKey UFHFLCQGNIYNRP-UHFFFAOYSA-N
Kind: experiment
Temperature: 338 K
Tabular data in the source: 0
pressure (bar)	uptake (mmol/g)
1.298	0.04174
3.901	0.03246
6.638	0.06957
9.233	0.15304
10.669	0.18087
13.203	0.18551
15.737	0.19478
18.267	0.2458
20.867	0.27826
24.836	0.32
29.077	0.38029
31.747	0.39884
33.251	0.4313
37.355	0.49623
39.817	0.53797
