Adsorption isotherm of Carbon Dioxide on Phenol-Formaldehyde Resin-based Activated Carbon
DOI: 10.1021/la4004998
Article source: Figure 6a
Adsorbate Carbon Dioxide: InChIKey CURLTUGMZLYLDI-UHFFFAOYSA-N
Kind: experiment
Temperature: 318 K
Tabular data in the source: 0
pressure (bar)	uptake (mmol/g)
3.0236	0.9029
5.0551	1.6885
9.9685	2.4722
15.0709	2.9016
20.0315	3.4688
