Adsorption isotherm of Nitrogen on Carbon
DOI: 10.1021/la4004998
Adsorbate Nitrogen: InChIKey IJGRMHOSHXDMSA-UHFFFAOYSA-N
Temperature: 338 K
Tabular data in the source: 0
pressure (bar)	uptake (mmol/g)
0.380646	0.0413006
1.23158	0.122819
2.03246	0.204337
2.83334	0.281565
5.03576	0.543281
10.2415	0.907967
29.5627	1.77034
