Adsorption isotherm of Carbon Dioxide, Nitrogen on AC AP3-60
DOI: 10.1021/la4004998
Article source: Figure 8
Adsorbate Carbon Dioxide: InChIKey CURLTUGMZLYLDI-UHFFFAOYSA-N
Adsorbate Nitrogen: InChIKey IJGRMHOSHXDMSA-UHFFFAOYSA-N
Kind: experiment
Temperature: 298 K
Tabular data in the source: 0
pressure (bar)	Carbon Dioxide fraction	Carbon Dioxide uptake (mmol/g)	Nitrogen fraction	Nitrogen uptake (mmol/g)	total uptake (mmol/g)
30	0.11309	2.1101	0.88423	1.4994	3.7164
30	0.31248	4.3408	0.68814	0.7425	5.2084
30	0.61481	6.2729	0.38484	0.2648	6.5939
