Adsorption isotherm of Hydrogen on AC AP3-60
DOI: 10.1021/la4004998
Article source: Figure 7c
Adsorbate Hydrogen: InChIKey UFHFLCQGNIYNRP-UHFFFAOYSA-N
Kind: experiment
Temperature: 298 K
Tabular data in the source: 0
pressure (bar)	uptake (mmol/g)
0.243	0.01039
0.729	0.0374
1.214	0.04571
2.123	0.06442
2.913	0.10597
5.034	0.15584
7.216	0.19532
10.068	0.27095
10.308	0.27429
14.976	0.40654
15.16	0.41143
25.223	0.64623
30.009	0.71481
