Adsorption isotherm of Hydrogen on Carbon
DOI: 10.1021/la4004998
Adsorbate Hydrogen: InChIKey UFHFLCQGNIYNRP-UHFFFAOYSA-N
Temperature: 338 K
Tabular data in the source: 0
pressure (bar)	uptake (mmol/g)
3.92889	0.0355204
6.71762	0.0684781
9.31622	0.131858
10.8373	0.174957
13.3726	0.172422
16.0345	0.190168
18.6331	0.228196
20.9782	0.266225
24.7176	0.301718
29.3444	0.38538
32.0064	0.38538
33.0838	0.423408
37.3303	0.486788
40.1824	0.522281
