Adsorption isotherm of Nitrogen on Carbon
DOI: 10.1021/la4004998
Adsorbate Nitrogen: InChIKey IJGRMHOSHXDMSA-UHFFFAOYSA-N
Temperature: 318 K
Tabular data in the source: 0
pressure (bar)	uptake (mmol/g)
0.689607	0.124005
4.18961	0.822596
6.80228	1.17189
9.26707	1.46485
10.4995	1.59443
13.5558	1.84795
15.9713	2.0226
18.3375	2.19724
21.2459	2.40006
24.8445	2.56344
29.429	2.80006
