Adsorption isotherm of Hydrogen on Phenol-Formaldehyde Resin-based Activated Carbon
DOI: 10.1021/la4004998
Article source: Figure 1c
Adsorbate Hydrogen: InChIKey UFHFLCQGNIYNRP-UHFFFAOYSA-N
Kind: experiment
Temperature: 298 K
Tabular data in the source: 0
pressure (bar)	uptake (mmol/g)
0.542	0
1.222	0
3.882	0
6.676	0
9.478	0
10.433	0
13.233	0
15.965	0
18.56	0
21.086	0
24.911	0
28.736	0
31.812	0
32.633	0
37.211	0
39.738	0
