Adsorption isotherm of Carbon Dioxide on Phenol-Formaldehyde Resin-based Activated Carbon
DOI: 10.1021/la4004998
Article source: Figure 1a
Adsorbate Carbon Dioxide: InChIKey CURLTUGMZLYLDI-UHFFFAOYSA-N
Kind: experiment
Temperature: 298 K
Tabular data in the source: 0
pressure (bar)	uptake (mmol/g)
0.313	0
0.678	0
1.048	0
1.1	0
1.31	0
4.064	0
6.667	0
9.167	0
10.444	0
13.107	0
15.77	0
18.274	0
20.992	0
24.829	0
28.668	0
30	0
