Adsorption isotherm of Nitrogen on Carbon
DOI: 10.1021/la4004998
Adsorbate Nitrogen: InChIKey IJGRMHOSHXDMSA-UHFFFAOYSA-N
Temperature: 298 K
Tabular data in the source: 0
pressure (bar)	uptake (mmol/g)
0.0487622	0.05075
0.295241	0.126806
0.689607	0.223989
1.28116	0.333849
1.77411	0.409905
2.51355	0.523989
5.02764	0.938074
9.95721	1.41976
30.3657	2.57751
