Adsorption isotherm of Carbon Dioxide on Carbon
DOI: 10.1021/la4004998
Adsorbate Carbon Dioxide: InChIKey CURLTUGMZLYLDI-UHFFFAOYSA-N
Temperature: 338 K
Tabular data in the source: 0
pressure (bar)	uptake (mmol/g)
0.344537	0.197336
1.13327	0.591702
2.11918	1.15508
2.66144	1.39452
4.92904	2.18325
6.11214	2.46494
7.68961	2.87339
10.253	3.42269
15.0347	4.12691
20.3093	4.7748
30.6121	5.70438
