Adsorption isotherm of Carbon Dioxide on Carbon
DOI: 10.1021/la4004998
Adsorbate Carbon Dioxide: InChIKey CURLTUGMZLYLDI-UHFFFAOYSA-N
Temperature: 318 K
Tabular data in the source: 0
pressure (bar)	uptake (mmol/g)
0.393833	0.36635
1.37975	1.07057
2.26707	1.61987
3.40087	2.21142
5.22482	3.00015
7.29524	3.64804
9.21778	4.141
12.422	4.7748
15.2812	5.21142
19.6685	5.7748
30.1192	6.80297
