Adsorption isotherm of Nitrogen on Cu-MOF-2
DOI: 10.1016/j.memsci.2014.05.014
Adsorbate Nitrogen: InChIKey IJGRMHOSHXDMSA-UHFFFAOYSA-N
Temperature: 298 K
Tabular data in the source: 0
pressure (bar)	uptake (cm3(STP)/g)
0.0143717	-0.00262663
0.0479278	0.0838331
0.081484	0.170293
0.12939	0.161537
0.182108	0.244495
0.227596	0.143589
0.280315	0.226546
0.330638	0.309942
0.38573	0.299873
0.428845	0.291993
0.481586	0.467539
0.534282	0.457908
0.586978	0.448277
0.637278	0.439084
0.690019	0.61463
0.740299	0.512849
0.78816	0.318916
0.840878	0.401874
0.88641	0.486145
0.939085	0.383925
0.991781	0.374294
1.03254	0.552029
