Adsorption isotherm of Carbon Dioxide on Cu-MOF-1
DOI: 10.1016/j.memsci.2014.05.014
Adsorbate Carbon Dioxide: InChIKey CURLTUGMZLYLDI-UHFFFAOYSA-N
Temperature: 298 K
Tabular data in the source: 0
pressure (bar)	uptake (cm3(STP)/g)
0.781757	1.57182
5.04283	2.67062
8.23583	3.30955
11.4302	4.04106
14.3201	4.68087
17.8162	5.31892
21.4626	5.86394
24.1994	6.41159
27.3938	7.14311
30.5854	7.68945
33.9286	8.23535
37.2689	8.59607
40.462	9.235
43.6521	9.68874
46.9925	10.0495
49.8809	10.5967
53.3743	11.0496
56.2599	11.4116
60.9673	11.9536
