Adsorption isotherm of Carbon Dioxide on Cu-MOF-2
DOI: 10.1016/j.memsci.2014.05.014
Adsorbate Carbon Dioxide: InChIKey CURLTUGMZLYLDI-UHFFFAOYSA-N
Temperature: 298 K
Tabular data in the source: 0
pressure (bar)	uptake (cm3(STP)/g)
0.632985	1.75743
5.36283	3.78081
8.4155	5.16088
11.4695	6.63354
14.8281	8.19792
18.1839	9.57711
21.5411	11.0489
24.5952	12.5216
27.8008	13.9938
31.0037	15.2808
34.3623	16.8452
37.4135	18.1327
40.7679	19.4193
44.1237	20.7985
47.0248	22.179
50.3778	23.373
53.5806	24.6601
56.935	25.9467
61.6579	27.5071
