Adsorption isotherm of Nitrogen on Cu-MOF-1
DOI: 10.1016/j.memsci.2014.05.014
Adsorbate Nitrogen: InChIKey IJGRMHOSHXDMSA-UHFFFAOYSA-N
Temperature: 298 K
Tabular data in the source: 0
pressure (bar)	uptake (cm3(STP)/g)
0.0147044	1.3862
0.0745644	1.28267
0.132029	1.17957
0.177562	1.26384
0.227863	1.25465
0.280514	1.05984
0.328442	1.14368
0.381139	1.13405
0.429045	1.12529
0.481741	1.11566
0.532041	1.10647
0.584716	1.00425
0.632599	0.902902
0.685295	0.893271
0.735574	0.79149
0.788271	0.781859
0.838549	0.680077
0.886433	0.578733
