Adsorption isotherm of Carbon Dioxide on Cu-MOF-1
DOI: 10.1016/j.memsci.2014.05.014
Adsorbate Carbon Dioxide: InChIKey CURLTUGMZLYLDI-UHFFFAOYSA-N
Temperature: 298 K
Tabular data in the source: 0
pressure (bar)	uptake (cm3(STP)/g)
3.193	0.638927
6.84633	1.64689
10.0408	2.37841
13.5355	2.92387
16.2738	3.56411
19.7727	4.38734
24.3342	5.30009
27.8317	6.03073
30.8717	6.57751
34.2177	7.30858
37.4093	7.85492
40.9041	8.40039
44.0984	9.1319
47.2901	9.67824
50.1771	10.1329
53.5188	10.5862
56.7091	11.0399
60.2052	11.678
63.0922	12.1326
65.9792	12.5872
