Adsorption isotherm of Carbon Dioxide on Cu-MOF-2
DOI: 10.1016/j.memsci.2014.05.014
Adsorbate Carbon Dioxide: InChIKey CURLTUGMZLYLDI-UHFFFAOYSA-N
Temperature: 298 K
Tabular data in the source: 0
pressure (bar)	uptake (cm3(STP)/g)
3.05265	1.38007
5.03862	2.39286
8.08848	3.58775
11.2941	5.05997
14.6541	6.71694
17.7068	8.09701
21.0639	9.5688
24.1208	11.2266
27.3264	12.6989
30.6836	14.1706
34.0423	15.735
37.5496	17.1138
40.4549	18.7721
43.6563	19.9665
46.862	21.4387
50.3694	22.8175
53.5722	24.1045
56.6234	25.392
59.8291	26.8642
63.1834	28.1509
65.7728	28.9767
