Adsorption isotherm of Nitrogen on Cu-MOF-1
DOI: 10.1016/j.memsci.2014.05.014
Adsorbate Nitrogen: InChIKey IJGRMHOSHXDMSA-UHFFFAOYSA-N
Temperature: 298 K
Tabular data in the source: 0
pressure (bar)	uptake (cm3(STP)/g)
0.0527185	0.0829576
0.103019	0.0737644
0.158111	0.0636957
0.208412	0.0545025
0.261086	-0.047717
0.308992	-0.0564724
0.388036	-0.0709189
0.440732	-0.0805498
0.488638	-0.0893053
0.541401	0.178829
0.589285	0.0774854
0.637168	-0.0238585
0.694677	0.0582235
0.747418	0.23377
0.795301	0.132426
0.850392	0.122357
0.900716	0.205752
0.951017	0.196559
0.9989	0.0952152
1.03967	0.27295
