Adsorption isotherm of Nitrogen on Cu-MOF-2
DOI: 10.1016/j.memsci.2014.05.014
Adsorbate Nitrogen: InChIKey IJGRMHOSHXDMSA-UHFFFAOYSA-N
Temperature: 298 K
Tabular data in the source: 0
pressure (bar)	uptake (cm3(STP)/g)
0.00969203	0.461192
0.0791775	0.541085
0.131873	0.531454
0.182174	0.522261
0.232498	0.605656
0.282799	0.596463
0.3331	0.58727
0.383445	0.763254
0.436119	0.661034
0.486399	0.559252
0.534304	0.550497
0.584627	0.633892
0.637345	0.71685
0.685207	0.522917
0.737881	0.420698
0.788204	0.504093
0.840923	0.587051
0.891246	0.670446
0.967873	0.563849
