Adsorption isotherm of Lead, Water on Large Surface Area Hydroxyapatite (LHAP)
DOI: 10.1016/j.jes.2016.04.005
Article source: Figure 4
Adsorbate Lead: InChIKey WABPQHHGFIMREM-UHFFFAOYSA-N
Adsorbate Water: InChIKey XLYOFNOQVPJJNP-UHFFFAOYSA-N
Kind: experiment
Temperature: 298 K
Tabular data in the source: 0
pressure (bar)	Lead fraction	Lead uptake (mmol/g)	Water fraction	Water uptake (mmol/g)	total uptake (mmol/g)
1.01325	0.0358	0.77574			
1.01325	0.1092	1.21317			
1.01325	0.281	1.71103			
1.01325	1.0944	1.90211			
1.01325	3.1013	1.92184			
1.01325	5.3055	1.94887			
