Adsorption isotherm of Cadmium, Water on Small Surface Area Hydroxyapatite (SHAP)
DOI: 10.1016/j.jes.2016.04.005
Article source: Figure 4
Adsorbate Cadmium: InChIKey BDOSMKKIYDKNTQ-UHFFFAOYSA-N
Adsorbate Water: InChIKey XLYOFNOQVPJJNP-UHFFFAOYSA-N
Kind: experiment
Temperature: 298 K
Tabular data in the source: 0
pressure (bar)	Cadmium fraction	Cadmium uptake (mmol/g)	Water fraction	Water uptake (mmol/g)	total uptake (mmol/g)
1.01325	0.0099	0.00423			
1.01325	0.2816	0.26421			
1.01325	0.5921	0.3617			
1.01325	1.0951	0.48055			
1.01325	1.4927	0.52021			
1.01325	1.9027	0.53552			
1.01325	2.2755	0.52341			
