Adsorption isotherm of Cadmium, Lead, Water on Small Surface Area Hydroxyapatite (SHAP)
DOI: 10.1016/j.jes.2016.04.005
Article source: Figure 4
Adsorbate Cadmium: InChIKey BDOSMKKIYDKNTQ-UHFFFAOYSA-N
Adsorbate Lead: InChIKey WABPQHHGFIMREM-UHFFFAOYSA-N
Adsorbate Water: InChIKey XLYOFNOQVPJJNP-UHFFFAOYSA-N
Kind: experiment
Temperature: 298 K
Tabular data in the source: 0
pressure (bar)	Cadmium fraction	Cadmium uptake (mmol/g)	Lead fraction	Lead uptake (mmol/g)	Water fraction	Water uptake (mmol/g)	total uptake (mmol/g)
1.01325			0.0865	0.38492			
1.01325			0.5874	1.02468			
1.01325			1.0724	1.33767			
1.01325			1.4596	1.52026			
1.01325			3.5749	1.59867			
1.01325			5.9833	1.62341			
