Adsorption isotherm of Cadmium, Water on Large Surface Area Hydroxyapatite (LHAP)
DOI: 10.1016/j.jes.2016.04.005
Article source: Figure 4
Adsorbate Cadmium: InChIKey BDOSMKKIYDKNTQ-UHFFFAOYSA-N
Adsorbate Water: InChIKey XLYOFNOQVPJJNP-UHFFFAOYSA-N
Kind: experiment
Temperature: 298 K
Tabular data in the source: 0
pressure (bar)	Cadmium fraction	Cadmium uptake (mmol/g)	Water fraction	Water uptake (mmol/g)	total uptake (mmol/g)
1.01325	0.2004	0.50777			
1.01325	0.6844	0.94936			
1.01325	1.3922	1.25398			
1.01325	2.709	1.50391			
1.01325	4.1067	1.62903			
1.01325	5.5791	1.65977			
