Adsorption isotherm of Nitrogen on Small Surface Area Hydroxyapatite (SHAP)
DOI: 10.1016/j.jes.2016.04.005
Article source: Figure 1
Adsorbate Nitrogen: InChIKey IJGRMHOSHXDMSA-UHFFFAOYSA-N
Kind: experiment
Temperature: 77 K
Tabular data in the source: 0
pressure (bar)	uptake (cm3(STP)/g)
0.024976	9.77
0.027155	9.98
0.052901	11.24
0.074716	11.45
0.098709	11.45
0.10264	12.28
0.125762	12.49
0.129248	12.49
0.151934	13.12
0.175491	13.33
0.177244	13.75
0.200802	14.79
0.202545	14.79
0.229598	14.58
0.252284	15
0.254463	15.21
0.280209	15.21
0.283259	15.21
0.301142	15.42
0.303331	15.42
0.32776	16.47
0.330809	16.89
0.35612	16.47
0.380549	17.3
0.382727	17.72
0.404542	18.77
0.43116	18.35
0.457777	19.19
0.480899	20.65
0.484385	21.28
0.507071	21.91
0.531946	22.54
0.558117	22.74
0.560732	22.74
0.580804	22.74
0.584299	22.95
0.607857	23.79
0.610907	24
0.627919	25.05
0.630979	25.05
0.655408	26.09
0.659339	26.09
0.682025	28.39
0.68464	28.39
0.70384	29.02
0.710821	29.23
0.73219	30.9
0.7383	31.74
0.757501	32.37
0.759679	33
0.784544	34.88
0.808973	38.65
0.810726	37.39
0.835155	42.2
0.836026	40.32
0.860455	44.09
0.861327	46.81
0.885756	51.41
0.887073	48.06
0.911492	56.01
0.912799	62.71
0.935921	65.43
0.939406	80.91
0.961636	114.6
0.962528	86.98
0.972529	139.29
0.974737	99.11
0.981263	119.62
0.984728	175.06
0.990848	150.58
0.994728	225.07
0.997373	172.97
0.997768	250.18
1.00124	269.43
1.0039	216.7
1.0043	271.73
