Adsorption isotherm of Cadmium, Lead, Water on Large Surface Area Hydroxyapatite (LHAP)
DOI: 10.1016/j.jes.2016.04.005
Article source: Figure 4
Adsorbate Cadmium: InChIKey BDOSMKKIYDKNTQ-UHFFFAOYSA-N
Adsorbate Lead: InChIKey WABPQHHGFIMREM-UHFFFAOYSA-N
Adsorbate Water: InChIKey XLYOFNOQVPJJNP-UHFFFAOYSA-N
Kind: experiment
Temperature: 298 K
Tabular data in the source: 0
pressure (bar)	Cadmium fraction	Cadmium uptake (mmol/g)	Lead fraction	Lead uptake (mmol/g)	Water fraction	Water uptake (mmol/g)	total uptake (mmol/g)
1.01325	0.3353	0.14676					
1.01325	0.683	0.29412					
1.01325	1.0212	0.32459					
1.01325	1.6947	0.35874					
1.01325	2.4922	0.39655					
1.01325	3.6032	0.39785					
