Adsorption isotherm of Cadmium, Lead, Water on Small Surface Area Hydroxyapatite (SHAP)
DOI: 10.1016/j.jes.2016.04.005
Article source: Figure 4
Adsorbate Cadmium: InChIKey BDOSMKKIYDKNTQ-UHFFFAOYSA-N
Adsorbate Lead: InChIKey WABPQHHGFIMREM-UHFFFAOYSA-N
Adsorbate Water: InChIKey XLYOFNOQVPJJNP-UHFFFAOYSA-N
Kind: experiment
Temperature: 298 K
Tabular data in the source: 0
pressure (bar)	Cadmium fraction	Cadmium uptake (mmol/g)	Lead fraction	Lead uptake (mmol/g)	Water fraction	Water uptake (mmol/g)	total uptake (mmol/g)
1.01325	0.0111	0.00435					
1.01325	0.3868	0.1131					
1.01325	0.7292	0.2233					
1.01325	1.9362	0.32197					
1.01325	2.8179	0.33557					
1.01325	3.9263	0.34049					
