Adsorption isotherm of Nitrogen on Large Surface Area Hydroxyapatite (LHAP)
DOI: 10.1016/j.jes.2016.04.005
Article source: Figure 1
Adsorbate Nitrogen: InChIKey IJGRMHOSHXDMSA-UHFFFAOYSA-N
Kind: experiment
Temperature: 77 K
Tabular data in the source: 0
pressure (bar)	uptake (cm3(STP)/g)
0.025483	17.43
0.028431	21.03
0.05133	21.73
0.05133	18.14
0.077928	20.28
0.103187	20.81
0.127819	21.08
0.129278	22.22
0.153322	23.92
0.179403	23.91
0.204612	23.89
0.228362	25.88
0.255324	25.29
0.278192	26.71
0.304567	28.69
0.330657	27.54
0.354691	28.95
0.38372	30.93
0.406873	33.21
0.431788	31.77
0.455528	34.04
0.459054	34.32
0.481031	34.02
0.481619	34.02
0.508297	38.86
0.51005	46.28
0.530862	69.11
0.534094	35.99
0.556365	38.27
0.558411	75.66
0.581574	36.82
0.583914	80.5
0.605618	39.1
0.610005	81.92
0.632286	39.94
0.634039	84.76
0.658964	39.64
0.661011	90.46
0.685055	42.48
0.685632	96.72
0.710852	41.61
0.711419	103.56
0.734886	45.59
0.737216	109.26
0.762435	51
0.766823	117.52
0.785294	122.37
0.785598	52.7
0.813147	53.55
0.813431	131.49
0.839218	139.75
0.839826	54.96
0.863272	60.94
0.863546	152.02
0.887893	67.49
0.88993	166.56
0.911036	184.25
0.913103	74.33
0.936235	210.22
0.937136	82.31
0.962903	263.31
0.962933	103.71
0.970553	118.84
0.975801	297.27
0.983735	147.1
0.984292	355.51
0.99487	197.05
0.995701	467.42
0.996907	242.73
0.998923	528.51
1.00506	581.61
1.00627	356.93
