Adsorption isotherm of Lead, Water on Small Surface Area Hydroxyapatite (SHAP)
DOI: 10.1016/j.jes.2016.04.005
Article source: Figure 4
Adsorbate Lead: InChIKey WABPQHHGFIMREM-UHFFFAOYSA-N
Adsorbate Water: InChIKey XLYOFNOQVPJJNP-UHFFFAOYSA-N
Kind: experiment
Temperature: 298 K
Tabular data in the source: 0
pressure (bar)	Lead fraction	Lead uptake (mmol/g)	Water fraction	Water uptake (mmol/g)	total uptake (mmol/g)
1.01325	0.0637	0.57777			
1.01325	0.0757	0.82136			
1.01325	0.1249	1.17456			
1.01325	0.2176	1.4821			
1.01325	1.404	1.70156			
1.01325	3.5907	1.82379			
1.01325	5.6038	1.79375			
1.01325	5.6845	1.80594			
