Adsorption isotherm of Copper(II) Ion on Electrospun poly(acrylic acid)/poly(vinyl alcohol) nanofibrous adsorbents
DOI: 10.1039/c7ra01362k
Article source: Figure 4d
Adsorbate Copper(II) Ion: InChIKey JPVYNHNXODAKFH-UHFFFAOYSA-N
Kind: experiment
Temperature: 303 K
Tabular data in the source: 0
pressure (bar)	uptake (mg/g)
1.01325	22.74
1.01325	29.226
1.01325	32.695
1.01325	37.784
1.01325	40.253
1.01325	44.828
1.01325	46.841
1.01325	46.636
