Adsorption isotherm of Hydrogen on IRMOF-1
DOI: 10.1016/j.micromeso.2010.02.023
Adsorbate Hydrogen: InChIKey UFHFLCQGNIYNRP-UHFFFAOYSA-N
Temperature: 77 K
Tabular data in the source: 0
pressure (bar)	uptake (mg/g)
0.481196	0.749056
0.743381	10.7121
1.52994	23.5591
2.31649	36.9306
4.41397	49.2533
7.298	60.265
14.9014	74.9474
19.8829	82.2886
39.2846	93.5625
60.2593	100.117
100.111	105.885
120.037	108.507
