Adsorption isotherm of Nitrogen on Activated Carbon
DOI: 10.1016/j.jhazmat.2011.06.072
Adsorbate Nitrogen: InChIKey IJGRMHOSHXDMSA-UHFFFAOYSA-N
Temperature: 77 K
Tabular data in the source: 0
pressure (bar)	uptake (cm3(STP)/g)
0.00417858	0.00417858
0.0125357	518.517
0.0208929	568.35
0.0417858	621.464
0.0626787	671.254
0.0835716	721.044
0.110732	767.488
0.133715	800.651
0.150429	827.186
0.17759	853.686
0.213108	886.805
0.250715	909.945
0.290411	923.106
0.32384	936.288
0.35309	939.512
0.392787	942.7
0.451287	955.797
0.490983	955.661
0.545305	965.447
0.641412	971.767
0.695734	978.229
0.754234	988.001
0.819002	987.779
0.862877	1004.25
0.906752	1007.42
0.94227	1013.95
0.965252	1027.17
