Adsorption isotherm of Nitrogen on Fe3O4@PAA@MOF-199(L)
DOI: 10.1039/C4ra06515h
Adsorbate Nitrogen: InChIKey IJGRMHOSHXDMSA-UHFFFAOYSA-N
Temperature: 77 K
Tabular data in the source: 0
pressure (bar)	uptake (cm3(STP)/g)
0.089559	111.337
0.0915059	215.454
0.120709	256.639
0.138233	259.155
0.163543	263.552
0.192747	265.459
0.227791	268.622
0.258942	269.285
0.288146	269.946
0.31735	271.854
0.350448	271.896
0.377706	273.178
0.414697	274.472
0.426379	274.487
0.441954	274.507
0.469211	274.542
0.506203	274.59
0.543194	276.508
0.566557	277.784
0.595761	277.822
0.62886	279.111
0.661958	279.777
0.693109	280.441
0.722313	279.231
0.753463	280.518
0.770986	281.164
0.811871	279.346
0.862492	281.282
0.899484	281.952
0.936475	291.352
0.961785	316.945
