Adsorption isotherm of Nitrogen on DBT adsorbed Fe3O4@PAA@MOF-99(L)
DOI: 10.1039/C4ra06515h
Adsorbate Nitrogen: InChIKey IJGRMHOSHXDMSA-UHFFFAOYSA-N
Temperature: 77 K
Tabular data in the source: 0
pressure (bar)	uptake (cm3(STP)/g)
0.0915059	137.524
0.105134	228.564
0.132392	237.95
0.173277	243.614
0.196641	244.891
0.225844	246.799
0.255048	248.083
0.274518	248.731
0.286199	249.37
0.293987	249.38
0.301775	249.39
0.315403	250.031
0.338766	251.308
0.346554	251.318
0.360182	250.088
0.379653	250.113
0.395228	250.133
0.428326	250.799
0.461423	251.465
0.490627	250.879
0.519831	249.67
0.550982	249.71
0.580186	249.747
0.611338	249.164
0.642489	248.58
0.673639	249.244
0.70479	248.66
0.735941	247.453
0.767092	248.117
0.80019	246.912
0.829393	246.95
0.854704	247.606
0.876121	248.257
0.905325	249.541
0.936475	252.075
0.957892	265.194
0.967626	279.546
