Adsorption isotherm of Nitrogen on Regenerated Fe3O4@PAA@MOF-99(L)
DOI: 10.1039/C4ra06515h
Adsorbate Nitrogen: InChIKey IJGRMHOSHXDMSA-UHFFFAOYSA-N
Temperature: 77 K
Tabular data in the source: 0
pressure (bar)	uptake (cm3(STP)/g)
0.0876121	118.816
0.089559	226.05
0.130445	254.157
0.161596	258.562
0.1908	261.093
0.223897	263.006
0.249208	263.661
0.286199	264.332
0.31735	265.619
0.354342	267.537
0.371865	267.56
0.403016	268.846
0.422485	268.248
0.453636	268.911
0.471158	269.557
0.504256	268.353
0.549035	269.034
0.595761	269.717
0.638595	271.019
0.658064	269.797
0.687268	269.211
0.720366	271.124
0.751516	271.164
0.776826	270.573
0.811871	271.241
0.837181	272.521
0.868333	273.808
0.909218	276.977
0.942316	281.384
0.953998	292.621
0.961785	308.84
