Adsorption isotherm of Nitrogen on Fe3O4@PAA@MOF-99(H)
DOI: 10.1039/C4ra06515h
Adsorbate Nitrogen: InChIKey IJGRMHOSHXDMSA-UHFFFAOYSA-N
Temperature: 77 K
Tabular data in the source: 0
pressure (bar)	uptake (cm3(STP)/g)
0.089559	120.689
0.0915059	226.053
0.132392	243.561
0.161596	247.963
0.173277	249.225
0.196641	252.372
0.220004	254.272
0.255048	256.188
0.288146	258.1
0.323191	259.392
0.352395	260.053
0.369918	260.699
0.385493	261.343
0.401069	261.986
0.41275	262.001
0.426379	262.642
0.440007	262.659
0.473105	263.949
0.506203	265.238
0.53346	267.144
0.597708	267.849
0.623019	267.882
0.658064	269.174
0.693109	270.466
0.724259	271.129
0.745676	272.403
0.778773	273.069
0.817712	275.613
0.843022	278.139
0.876121	281.299
0.911165	287.578
0.934528	298.207
0.952051	325.661
0.961785	343.753
