Adsorption isotherm of Carbon Dioxide on PPN-6-SO3NH4
DOI: 10.1039/C3ee42226g
Adsorbate Carbon Dioxide: InChIKey CURLTUGMZLYLDI-UHFFFAOYSA-N
Temperature: 295 K
Tabular data in the source: 0
pressure (bar)	uptake (mmol/g)
0.00219011	0.217237
0.00743381	0.400767
0.0336523	0.829002
0.0598708	1.11741
0.0860893	1.31841
0.117551	1.51068
0.14377	1.66799
0.169988	1.81657
0.225047	2.04379
0.303703	2.32346
0.421686	2.61186
0.529182	2.83909
0.639299	3.03136
0.728442	3.16245
0.849047	3.3285
0.977518	3.47707
1.07977	3.59942
