Adsorption isotherm of Nitrogen on PPN-6-SO3NH4
DOI: 10.1039/C3ee42226g
Adsorbate Nitrogen: InChIKey IJGRMHOSHXDMSA-UHFFFAOYSA-N
Temperature: 77 K
Tabular data in the source: 0
pressure (bar)	uptake (cm3(STP)/g)
0.00182509	6.49162
0.00619484	118.357
0.0324133	135.836
0.124178	142.828
0.663842	156.811
0.956615	167.298
