Adsorption isotherm of Nitrogen on PPN-6-SO3Li
DOI: 10.1039/C3ee42226g
Adsorbate Nitrogen: InChIKey IJGRMHOSHXDMSA-UHFFFAOYSA-N
Temperature: 77 K
Tabular data in the source: 0
pressure (bar)	uptake (cm3(STP)/g)
0.00182509	6.49162
0.00182509	223.231
0.0236738	265.181
0.113254	289.651
0.51527	314.122
0.808044	321.113
0.952245	328.105
