Adsorption isotherm of Nitrogen on PPN-6-SO3H
DOI: 10.1039/C3ee42226g
Adsorbate Nitrogen: InChIKey IJGRMHOSHXDMSA-UHFFFAOYSA-N
Temperature: 77 K
Tabular data in the source: 0
pressure (bar)	uptake (cm3(STP)/g)
0.00182509	6.49162
0.00182509	223.231
0.0258587	275.668
0.235607	317.618
0.475943	342.088
0.729388	349.08
0.930396	363.063
