Adsorption isotherm of Carbon Dioxide on PPN-6-SO3Li
DOI: 10.1039/C3ee42226g
Adsorbate Carbon Dioxide: InChIKey CURLTUGMZLYLDI-UHFFFAOYSA-N
Temperature: 295 K
Tabular data in the source: 0
pressure (bar)	uptake (mmol/g)
0.00743381	0.208498
0.0231649	0.418246
0.0598708	0.785305
0.138526	1.27472
0.219804	1.64178
0.327299	2.01757
0.461014	2.41959
0.615703	2.76917
0.804476	3.14497
1.02209	3.50329
1.09026	3.59942
