Adsorption isotherm of Nitrogen on PPN-6
DOI: 10.1039/C3ee42226g
Adsorbate Nitrogen: InChIKey IJGRMHOSHXDMSA-UHFFFAOYSA-N
Temperature: 77 K
Tabular data in the source: 0
pressure (bar)	uptake (cm3(STP)/g)
0.00182509	6.49162
0.00619484	380.542
0.0127495	565.819
0.0324133	716.139
0.0564469	821.013
0.106699	953.853
0.180985	1058.73
0.261825	1142.63
0.375439	1226.53
0.574262	1341.89
0.87796	1492.21
0.939136	1523.67
