Adsorption isotherm of Carbon Dioxide on PPN-6-SO3NH4
DOI: 10.1039/C3ee42226g
Adsorbate Carbon Dioxide: InChIKey CURLTUGMZLYLDI-UHFFFAOYSA-N
Temperature: 295 K
Tabular data in the source: 0
pressure (bar)	uptake (mmol/g)
0.00481196	0.1648
0.0126775	0.400767
0.0336523	0.820263
0.0624926	1.1611
0.11493	1.5369
0.164745	1.84278
0.2434	2.2011
0.374493	2.59438
0.508207	2.87404
0.69698	3.22362
0.925081	3.52077
1.08501	3.67808
