Adsorption isotherm of Carbon Dioxide on PPN-6-SO3NH4
DOI: 10.1039/C3ee42226g
Adsorbate Carbon Dioxide: InChIKey CURLTUGMZLYLDI-UHFFFAOYSA-N
Temperature: 313 K
Tabular data in the source: 0
pressure (bar)	uptake (mmol/g)
0.0179212	0.260935
0.0624926	0.671691
0.141148	1.11741
0.219804	1.42329
0.324677	1.74665
0.458392	2.04379
0.568509	2.2448
0.736308	2.47203
0.932946	2.70799
1.07715	2.85657
