Adsorption isotherm of Carbon Dioxide on PPN-6
DOI: 10.1039/C3ee42226g
Adsorbate Carbon Dioxide: InChIKey CURLTUGMZLYLDI-UHFFFAOYSA-N
Temperature: 295 K
Tabular data in the source: 0
pressure (bar)	uptake (mmol/g)
0.0415178	0.0424475
0.125417	0.147321
0.301081	0.34833
0.547535	0.636733
0.793988	0.942616
0.995871	1.17858
1.07977	1.2922
