Adsorption isotherm of Carbon Dioxide on PPN-6-SO3H
DOI: 10.1039/C3ee42226g
Adsorbate Carbon Dioxide: InChIKey CURLTUGMZLYLDI-UHFFFAOYSA-N
Temperature: 295 K
Tabular data in the source: 0
pressure (bar)	uptake (mmol/g)
0.0231649	0.208498
0.0782237	0.593036
0.128039	0.898918
0.209316	1.25724
0.311568	1.65051
0.440039	2.00883
0.565888	2.35841
0.76777	2.80413
0.922459	3.11875
1.0352	3.33724
1.10861	3.45959
