Adsorption isotherm of Carbon Dioxide on PPN-6-SO3NH4
DOI: 10.1039/C3ee42226g
Adsorbate Carbon Dioxide: InChIKey CURLTUGMZLYLDI-UHFFFAOYSA-N
Temperature: 313 K
Tabular data in the source: 0
pressure (bar)	uptake (wt%)
0.020543	1.18857
0.0441397	2.25915
0.091333	3.78857
0.149014	5.07327
0.2434	6.69445
0.353518	7.94857
0.513451	9.29445
0.641921	10.2121
0.804476	11.2215
0.917215	11.7109
1.04044	12.2615
1.08239	12.445
