Adsorption isotherm of Carbon Dioxide on PPN-6-SO3NH4
DOI: 10.1039/C3ee42226g
Adsorbate Carbon Dioxide: InChIKey CURLTUGMZLYLDI-UHFFFAOYSA-N
Temperature: 423 K
Tabular data in the source: 0
pressure (bar)	uptake (wt%)
0.0598708	0.0873899
0.201451	0.270919
0.405955	0.546213
0.733686	0.94386
0.985383	1.24974
1.08239	1.40268
