Adsorption isotherm of N-propane, Propene on ZIF-67
DOI: 10.1016/j.cej.2018.11.118
Article source: Table 1
Adsorbate N-propane: InChIKey ATUOYWHBWRKTHZ-UHFFFAOYSA-N
Adsorbate Propene: InChIKey QQONPFPTGQHPMA-UHFFFAOYSA-N
Kind: experiment
Temperature: 298 K
Tabular data in the source: 0
pressure (bar)	N-propane fraction	N-propane uptake (ml/g)	Propene fraction	Propene uptake (ml/g)	total uptake (ml/g)
1.75	0.5	26.3	0.5	21	47.3
1.75	0.5	26.2	0.5	19.8	46
