Adsorption isotherm of N-propane on ZIF-67
DOI: 10.1016/j.cej.2018.11.118
Article source: Figure 2c
Adsorbate N-propane: InChIKey ATUOYWHBWRKTHZ-UHFFFAOYSA-N
Kind: experiment
Temperature: 298 K
Tabular data in the source: 0
pressure (bar)	uptake (ml/g)
0.0207	5.04
0.0267	6.96
0.0459	11.9
0.0533	14.1
0.0711	19.1
0.077	20.9
0.0933	25.9
0.104	29.2
0.121	33.9
0.133	36.9
0.155	42.2
0.182	47.4
0.2	50.2
0.241	55.4
0.268	58.1
0.33	62.7
0.398	66.1
0.48	69
0.542	70.8
0.615	72.4
0.662	73.5
0.727	74.5
0.795	75.6
0.862	76.4
0.93	77.2
0.995	77.9
1.06	78.5
1.13	79.1
1.2	79.6
