Adsorption isotherm of Propene on ZIF-67
DOI: 10.1016/j.cej.2018.11.118
Article source: Figure 2c
Adsorbate Propene: InChIKey QQONPFPTGQHPMA-UHFFFAOYSA-N
Kind: experiment
Temperature: 298 K
Tabular data in the source: 0
pressure (bar)	uptake (ml/g)
0.0267	2.37
0.0518	4.44
0.0785	6.22
0.107	8
0.129	9.48
0.195	13.6
0.267	18.4
0.317	23.4
0.33	25.2
0.364	31.1
0.394	34.4
0.44	39.7
0.463	43.6
0.5	49
0.529	52.1
0.58	57
0.6	58.7
0.66	63
0.731	66.8
0.806	69.8
0.875	72.1
0.928	73.6
0.997	75.4
1.06	76.6
1.13	77.8
1.2	79
