Adsorption isotherm of N-propane, Propene on ZIF-67
DOI: 10.1016/j.cej.2018.11.118
Article source: Table 2
Adsorbate N-propane: InChIKey ATUOYWHBWRKTHZ-UHFFFAOYSA-N
Adsorbate Propene: InChIKey QQONPFPTGQHPMA-UHFFFAOYSA-N
Kind: experiment
Temperature: 298 K
Tabular data in the source: 0
pressure (bar)	N-propane fraction	N-propane uptake (ml/g)	Propene fraction	Propene uptake (ml/g)	total uptake (ml/g)
1.6	0.5	23.9	0.5	18.5	42.4
1.6	0.5	25	0.5	22.6	47.6
1.6	0.125	5.9	0.875	31.6	37.5
1.6	0.125	6	0.875	31.1	37.1
