Adsorption isotherm of Hydrogen on [Bmim]2[Mg6(NDC)5(HNDC)2(HCOO)2]
DOI: 10.1039/c5ce00591d
Article source: Figure 5
Adsorbate Hydrogen: InChIKey UFHFLCQGNIYNRP-UHFFFAOYSA-N
Kind: experiment
Temperature: 77 K
Tabular data in the source: 0
pressure (bar)	uptake (cm3(STP)/g)
0.000292	3.4798
0.003004	6.2749
0.004853	7.6033
0.007613	8.497
0.011318	10.0318
0.011323	10.0299
0.019224	11.7268
0.024553	12.9882
0.031217	14.0572
0.038262	17.1817
0.038827	17.451
0.050829	16.6365
0.064253	18.062
0.065104	20.4829
0.078344	19.1989
0.092055	20.3698
0.105766	21.3201
0.118716	22.2138
0.131856	23.1415
0.136611	25.4323
0.158231	24.6404
0.185179	26.0829
0.199553	28.5095
0.21365	27.3556
0.239838	28.4891
0.265681	29.5479
0.267574	29.598
0.331738	31.8486
0.332649	31.8653
0.397797	35.0349
0.399462	35.0959
0.466427	35.7174
0.467331	36.7949
0.533323	38.2319
0.533605	38.2389
0.599603	38.6986
0.600507	39.6684
0.665223	40.1057
0.665941	40.8968
0.733732	42.1802
0.733834	42.1871
0.780341	42.9623
0.799198	42.6512
0.848192	43.99
0.866669	43.8902
0.915141	44.9878
0.933618	45.0662
1.01281	46.3705
1.01425	46.3954
