Adsorption isotherm of Nitrogen on [Bmim]2[Mg6(NDC)5(HNDC)2(HCOO)2]
DOI: 10.1039/c5ce00591d
Article source: Figure 5
Adsorbate Nitrogen: InChIKey IJGRMHOSHXDMSA-UHFFFAOYSA-N
Kind: experiment
Temperature: 77 K
Tabular data in the source: 0
pressure (bar)	uptake (cm3(STP)/g)
0.000845	27.732
0.000851	26.961
0.000852	26.606
0.001	9.949
0.00222	34.794
0.006773	41.494
0.013296	45.216
0.031048	51.078
0.051076	56.103
0.068977	58.15
0.081267	59.639
0.102354	63.082
0.122685	65.222
0.143014	67.083
0.153331	69.13
0.163799	69.223
0.184129	71.643
0.204719	74.668
0.256258	79.985
0.30924	85.229
0.34487	88.811
0.35913	89.927
0.41003	95.697
0.460507	100.26
0.465382	103.425
0.511449	106.473
0.511642	106.577
0.562232	113.737
0.5632	114.069
0.613254	121.891
0.61614	141.664
0.664003	155.76
0.664843	156.041
0.715406	145.865
0.721818	176.347
0.766924	162.571
0.769799	208.746
0.778499	203.722
0.818155	182.15
0.818739	182.62
0.839255	193.609
0.839662	192.702
0.869548	210.414
0.872182	219.463
0.878554	273.844
0.894777	228.621
0.9042	301.853
0.920119	254.676
0.927238	331.511
0.939089	283.056
0.948577	312.627
0.949562	299.154
0.964033	329.577
0.972657	355.318
0.976889	429.764
0.981213	382.053
0.989889	411.817
0.995074	440.03
0.99821	462.777
