Adsorption isotherm of Carbon Dioxide on [Bmim]2[Mg6(NDC)5(HNDC)2(HCOO)2]
DOI: 10.1039/c5ce00591d
Article source: Figure 5
Adsorbate Carbon Dioxide: InChIKey CURLTUGMZLYLDI-UHFFFAOYSA-N
Kind: experiment
Temperature: 273 K
Tabular data in the source: 0
pressure (bar)	uptake (cm3(STP)/g)
0.000556	0.2329
0.001919	0.4887
0.004641	0.8657
0.006154	1.3189
0.008726	1.5567
0.011906	3.078
0.012659	2.0458
0.016289	2.3106
0.019769	2.7234
0.022567	2.9029
0.02597	3.0824
0.031037	3.5536
0.038072	4.0068
0.044726	4.451
0.05002	4.7966
0.058718	5.2587
0.065735	5.6484
0.065827	5.6312
0.078756	6.2114
0.091962	6.7243
0.106663	7.2959
0.132677	8.1215
0.133296	9.6427
0.159684	8.9189
0.185694	9.6255
0.199704	11.4686
0.212467	10.3321
0.239239	10.954
0.266107	12.9061
0.266491	12.9101
0.319232	12.568
0.332317	14.1161
0.372771	13.5595
0.399165	15.2153
0.426006	14.4478
0.466376	16.2395
0.478283	15.2896
0.532496	16.0969
0.53259	16.0979
0.598901	17.0604
0.599567	17.0645
0.665879	18.7774
0.665972	18.7793
0.732486	18.846
0.733209	18.8684
0.779903	20.0426
0.799586	19.5795
0.847052	20.6704
0.866635	20.446
0.914826	21.3207
0.933213	21.2415
1.01372	22.1345
