Adsorption isotherm of Nitrogen on C14H18N4O11Cd2
DOI: 10.1021/Cg2002095
Adsorbate Nitrogen: InChIKey IJGRMHOSHXDMSA-UHFFFAOYSA-N
Temperature: 77 K
Tabular data in the source: 0
pressure (bar)	uptake (cm3(STP)/g)
0.0195599	9.91353
0.030629	13.7589
0.0394843	20.0076
0.054981	26.9774
0.0749054	33.4665
0.0970437	43.8009
0.114754	50.0497
0.134679	57.0194
0.165672	65.6715
0.18781	70.7186
0.236515	74.5639
0.305143	77.2076
0.391482	77.9286
0.460111	77.9286
0.548664	78.89
0.608437	79.3707
0.670424	79.8513
0.730197	80.5723
0.787757	81.2934
0.851957	81.774
0.911731	82.7354
0.96929	83.4564
