Adsorption isotherm of Hydrogen on C14H18N4O11Cd2
DOI: 10.1021/Cg2002095
Adsorbate Hydrogen: InChIKey UFHFLCQGNIYNRP-UHFFFAOYSA-N
Temperature: 77 K
Tabular data in the source: 0
pressure (bar)	uptake (cm3(STP)/g)
0.00627692	0.0820617
0.017346	0.189995
0.0328428	0.302079
0.0394843	0.397558
0.0638363	0.476431
0.0815469	0.563608
0.12361	0.692297
0.161245	0.83344
0.201093	0.941373
0.243156	1.0161
0.278577	1.07836
0.316212	1.14894
0.36713	1.22366
0.404765	1.29008
0.444614	1.3565
0.482249	1.38556
0.530953	1.41047
0.570802	1.44783
0.595154	1.47273
0.646072	1.48934
0.685921	1.51425
0.72577	1.53915
0.776688	1.55161
0.809895	1.56406
0.887379	1.57652
0.936083	1.57236
1.01357	1.58067
