Adsorption isotherm of Nitrogen on TpPa-1-nc
DOI: 10.1021/acsami.7b08032
Article source: Figure 4B
Adsorbate Nitrogen: InChIKey IJGRMHOSHXDMSA-UHFFFAOYSA-N
Kind: experiment
Temperature: 298 K
Tabular data in the source: 0
pressure (bar)	uptake (cm3(STP)/g)
0.001771	0.092676
0.02008	0.092676
0.05807	0.1582
0.099723	0.180041
0.117116	0.245565
0.168838	0.245565
0.217814	0.332929
0.268163	0.376612
0.318055	0.463976
0.367946	0.485818
0.418295	0.551341
0.467729	0.5295
0.517621	0.595023
0.56797	0.573182
0.617403	0.573182
0.667295	0.595023
0.717644	0.660547
0.767078	0.660547
0.817427	0.682388
0.867318	0.704229
0.917209	0.747912
0.969389	0.791594
1.01974	0.769753
