Adsorption isotherm of Nitrogen on TpPa-1-nc
DOI: 10.1021/acsami.7b08032
Article source: Figure 4B
Adsorbate Nitrogen: InChIKey IJGRMHOSHXDMSA-UHFFFAOYSA-N
Kind: experiment
Temperature: 273 K
Tabular data in the source: 0
pressure (bar)	uptake (cm3(STP)/g)
0.003144	0.092676
0.057155	0.223723
0.096976	0.267406
0.116658	0.311088
0.168381	0.398453
0.218272	0.376612
0.267248	0.442135
0.317597	0.5295
0.367489	0.638706
0.417838	0.638706
0.467729	0.682388
0.517621	0.769753
0.56797	0.813435
0.618319	0.878959
0.667752	0.9008
0.718102	0.944482
0.768451	0.966323
0.818342	0.966323
0.868691	1.01001
0.918583	1.07553
0.969389	1.11921
1.01928	1.11921
