Adsorption isotherm of Carbon Dioxide on TpPa-1-nc
DOI: 10.1021/acsami.7b08032
Article source: Figure 4B
Adsorbate Carbon Dioxide: InChIKey CURLTUGMZLYLDI-UHFFFAOYSA-N
Kind: experiment
Temperature: 298 K
Tabular data in the source: 0
pressure (bar)	uptake (cm3(STP)/g)
0.002229	0.354771
0.015502	1.75261
0.034727	2.84466
0.054866	3.80568
0.095146	5.24719
0.116201	5.90243
0.166092	7.12553
0.215983	8.0647
0.265417	8.91651
0.317597	9.70279
0.366115	10.2707
0.416465	10.8822
0.467729	11.5375
0.517163	12.018
0.566596	12.4548
0.616946	12.979
0.667295	13.4158
0.717186	13.8526
0.767535	14.2458
0.817427	14.6389
0.867776	15.0102
0.918125	15.3378
0.968474	15.6654
1.01837	16.0804
