Adsorption isotherm of Carbon Dioxide on TpPa-1-nc
DOI: 10.1021/acsami.7b08032
Article source: Figure 4A
Adsorbate Carbon Dioxide: InChIKey CURLTUGMZLYLDI-UHFFFAOYSA-N
Kind: experiment
Temperature: 195 K
Tabular data in the source: 0
pressure (bar)	uptake (cm3(STP)/g)
0.001742	1.33779
0.001742	8.3612
0.005226	14.0468
0.008711	19.7324
0.017422	24.0803
0.027875	28.4281
0.045296	33.1104
0.081882	39.1304
0.108014	42.4749
0.156794	47.1572
0.207317	51.505
0.25784	55.8528
0.310105	59.1973
0.360627	62.5418
0.409408	65.2174
0.45993	68.5619
0.510453	71.2375
0.560976	73.913
0.609756	76.9231
0.662021	79.9331
0.710801	82.9431
0.761324	85.6187
0.810105	88.2943
0.858885	91.6388
0.909408	94.6488
0.961672	97.6589
1.01045	100.669
