Adsorption isotherm of Carbon Dioxide on TpPa-1-nc
DOI: 10.1021/acsami.7b08032
Article source: Figure 4B
Adsorbate Carbon Dioxide: InChIKey CURLTUGMZLYLDI-UHFFFAOYSA-N
Kind: experiment
Temperature: 273 K
Tabular data in the source: 0
pressure (bar)	uptake (cm3(STP)/g)
0	0.597826
0.012298	3.32517
0.032896	5.50929
0.053493	7.23474
0.093315	9.37518
0.116201	10.358
0.164719	11.9306
0.215983	13.2847
0.266333	14.355
0.317139	15.3378
0.366573	16.1896
0.416465	17.0414
0.467271	17.6748
0.516705	18.4174
0.567512	19.0508
0.617403	19.6187
0.66821	20.2302
0.717644	20.7763
0.768451	21.3223
0.817884	21.8465
0.867776	22.327
0.916294	22.7857
0.968932	23.2662
1.01928	23.7685
