Adsorption isotherm of Nitrogen on TpPa-1-nc
DOI: 10.1021/acsami.7b08032
Article source: Figure 4A
Adsorbate Nitrogen: InChIKey IJGRMHOSHXDMSA-UHFFFAOYSA-N
Kind: experiment
Temperature: 195 K
Tabular data in the source: 0
pressure (bar)	uptake (cm3(STP)/g)
0.003484	0.334448
0.020906	0.334448
0.055749	0.668896
0.095819	1.00334
0.116725	1.33779
0.165505	1.33779
0.216028	1.67224
0.266551	1.67224
0.317073	2.00669
0.367596	2.34114
0.416376	2.67559
0.466899	2.67559
0.515679	3.01003
0.566202	3.01003
0.616725	3.34448
0.665505	3.34448
0.716028	3.67893
0.766551	3.67893
0.815331	3.67893
0.865854	4.01338
0.916376	4.01338
0.965157	4.34783
1.01568	4.34783
