Adsorption isotherm of Water on MIL-53(Al)it
DOI: 10.1039/C3cc42287a
Adsorbate Water: InChIKey XLYOFNOQVPJJNP-UHFFFAOYSA-N
Temperature: 298 K
Tabular data in the source: 0
pressure (bar)	uptake (a.u.)
0.00142168	0.0305344
0.00217537	0.0343511
0.0030122	0.0458015
0.00476932	0.0725191
0.00619226	0.0877863
0.00794938	0.114504
0.00937169	0.137405
0.0109609	0.167939
0.0125499	0.20229
0.0141378	0.248092
0.0157258	0.293893
0.0172299	0.339695
0.0188144	0.427481
0.0203828	0.706107
0.022469	0.805344
0.0235572	0.816794
0.0252308	0.839695
0.0267366	0.866412
0.028242	0.896947
0.0306627	1.00382
