Adsorption isotherm of Water on MIL-53(Al)ht
DOI: 10.1039/C3cc42287a
Adsorbate Water: InChIKey XLYOFNOQVPJJNP-UHFFFAOYSA-N
Temperature: 298 K
Tabular data in the source: 0
pressure (bar)	uptake (a.u.)
0.00150418	0.0458015
0.00217153	0.0801527
0.00308286	0.20229
0.00480353	0.664122
0.00628981	0.923664
0.00770892	0.984733
0.00929975	0.996183
0.0110588	1
0.0126506	1
0.0140748	1
0.0156666	1
0.0172584	1
0.0187664	1
0.0203582	1
0.0218662	1
0.0235418	1
0.0250498	1
0.0266416	1
0.0282334	1
0.0296576	1
0.0309143	1
