Adsorption isotherm of Water on MIL-53(Al)it
DOI: 10.1039/C3cc42287a
Adsorbate Water: InChIKey XLYOFNOQVPJJNP-UHFFFAOYSA-N
Temperature: 298 K
Tabular data in the source: 0
pressure (bar)	uptake (cm3(STP)/g)
0.000314184	0.922519
0.000601166	2.89752
0.000891897	4.82156
0.00121033	4.88272
0.00152186	5.85111
0.00217328	7.7675
0.00314355	11.5315
0.00490788	16.2333
0.00633131	20.8968
0.00816836	27.4054
0.0096401	32.9737
0.0113781	40.3869
0.0129271	48.7151
0.0145027	58.8857
0.0160655	69.9764
0.0177958	80.1444
0.0194751	102.303
0.0210901	167.817
0.023378	191.823
0.024918	195.526
0.026225	200.148
0.0279552	205.696
0.0294269	214.009
0.0313802	226.937
