Adsorption isotherm of Water on MIL-53(Al)ht
DOI: 10.1039/C3cc42287a
Adsorbate Water: InChIKey XLYOFNOQVPJJNP-UHFFFAOYSA-N
Temperature: 298 K
Tabular data in the source: 0
pressure (bar)	uptake (cm3(STP)/g)
0.000395016	0.0458711
0.000632492	1.06268
0.000962442	1.14678
0.00119483	1.1901
0.00160087	0.326194
0.00220036	1.31242
0.00314546	23.5242
0.00498543	74.3545
0.00651676	88.2458
0.00809203	92.9017
0.00967092	95.7049
0.0115568	96.6631
0.0131246	96.6886
0.0147174	97.6341
0.0160896	99.4969
0.0178133	99.5173
0.0192263	99.5326
0.021286	99.553
0.0229765	101.413
0.024176	101.424
0.0260948	102.361
0.0278099	103.297
0.0304	103.314
