Adsorption isotherm of Water on MIL-53(Al)ht
DOI: 10.1039/C3cc42287a
Adsorbate Water: InChIKey XLYOFNOQVPJJNP-UHFFFAOYSA-N
Temperature: 298 K
Tabular data in the source: 0
pressure (bar)	uptake (a.u.)
0.00308095	0.225191
0.0047997	0.709924
0.00629681	0.839695
0.007801	0.885496
0.0093912	0.90458
0.0110652	0.923664
0.0126567	0.927481
0.0141644	0.931298
0.015588	0.938931
0.0172629	0.946565
0.0186865	0.954198
0.0203617	0.958015
0.0218691	0.965649
0.0235444	0.969466
0.0250521	0.973282
0.0266432	0.980916
0.0282347	0.984733
0.0296583	0.992366
