Adsorption isotherm of Water on MIL-53(Al)it
DOI: 10.1039/C3cc42287a
Adsorbate Water: InChIKey XLYOFNOQVPJJNP-UHFFFAOYSA-N
Temperature: 298 K
Tabular data in the source: 0
pressure (bar)	uptake (a.u.)
0.000333837	0.0152672
0.000584853	0.019084
0.000919965	0.019084
0.0011713	0.019084
0.00142264	0.019084
0.00217633	0.0229008
0.00309789	0.0229008
0.00477249	0.0343511
0.00619578	0.0458015
0.008037	0.0687023
0.00929177	0.0916031
0.0110476	0.133588
0.0124674	0.187023
0.0141375	0.251908
0.0157223	0.335878
0.0172229	0.423664
0.0188064	0.522901
0.0203902	0.618321
0.0224754	0.729008
0.02356	0.782443
0.0251467	0.843511
0.0267344	0.89313
0.0282398	0.923664
0.0297462	0.942748
0.0307506	0.954198
