Adsorption isotherm of Hydrogen on Li-doped Corrole
DOI: 10.1021/Jp210975x
Adsorbate Hydrogen: InChIKey UFHFLCQGNIYNRP-UHFFFAOYSA-N
Temperature: 298 K
Tabular data in the source: 0
pressure (bar)	uptake (wt%)
1.20724	0.190859
2.41449	0.318227
3.82294	0.382166
5.03018	0.477787
6.23742	0.509917
8.2495	0.574047
10.0604	0.66986
12.0724	0.702245
14.0845	0.766376
15.2918	0.830251
16.2978	0.830571
18.3099	0.862956
20.1207	0.927022
24.3461	1.0236
26.3581	1.05599
28.169	1.12005
29.7787	1.18406
31.1871	1.1845
33.1992	1.21689
35.0101	1.28096
37.0221	1.31334
39.0342	1.34573
40.2414	1.34611
42.6559	1.44211
44.4668	1.44269
46.4789	1.50682
48.2897	1.53914
50.3018	1.57152
52.3139	1.60391
56.338	1.66868
58.3501	1.70106
59.5573	1.73319
61.5694	1.76558
63.5815	1.79796
65.1911	1.83022
66.1972	1.83054
68.2093	1.86292
70.2213	1.89531
71.2274	1.92737
73.2394	1.92801
75.2515	1.99214
77.2636	1.99278
80.2817	2.02549
84.507	2.09032
85.5131	2.09064
86.5191	2.1227
88.5312	2.15509
89.336	2.18709
91.3481	2.18773
93.3602	2.22011
94.9698	2.22063
96.3783	2.25282
98.3903	2.2852
99.7988	2.3174
100.402	2.31759
