Adsorption isotherm of Hydrogen on Li-doped Corrole
DOI: 10.1021/Jp210975x
Adsorbate Hydrogen: InChIKey UFHFLCQGNIYNRP-UHFFFAOYSA-N
Temperature: 77 K
Tabular data in the source: 0
pressure (bar)	uptake (wt%)
1.00604	3.52413
1.40845	3.84172
2.21328	4.19118
2.8169	4.41359
3.62173	4.63607
4.22535	4.92198
4.62777	5.04909
5.03018	5.1762
6.03622	5.24001
6.63984	5.52592
7.84708	5.78027
9.05433	6.06637
9.85915	6.32059
11.2676	6.47977
12.6761	6.67069
14.0845	6.86161
15.493	6.98905
16.7002	7.14816
18.5111	7.33921
19.9195	7.46664
21.1268	7.53052
22.9376	7.68982
24.3461	7.849
26.1569	7.91307
27.9678	8.00888
29.7787	8.10469
31.3883	8.16869
33.4004	8.26457
35.4125	8.3287
37.2233	8.39277
39.0342	8.48858
41.0463	8.52097
42.8571	8.61678
44.668	8.71259
46.4789	8.71317
48.2897	8.80898
50.3018	8.87311
52.3139	8.9055
54.1247	8.96956
56.1368	9.00195
58.1489	9.03433
59.9598	9.06665
61.167	9.09878
63.1791	9.13117
64.9899	9.19523
67.002	9.22762
69.0141	9.26
71.0262	9.29239
72.837	9.32471
74.8491	9.35709
76.66	9.35767
78.672	9.39005
80.6841	9.42244
82.6962	9.45482
84.7082	9.48721
86.5191	9.48778
88.5312	9.52017
90.3421	9.55249
92.3541	9.58487
94.3662	9.61726
96.3783	9.64964
98.1891	9.68196
100.201	9.6826
