Adsorption isotherm of Hydrogen on Corrole
DOI: 10.1021/Jp210975x
Adsorbate Hydrogen: InChIKey UFHFLCQGNIYNRP-UHFFFAOYSA-N
Temperature: 298 K
Tabular data in the source: 0
pressure (bar)	uptake (wt%)
2.8169	0.000894254
4.22535	0.0648334
5.23139	0.0968989
10.0604	0.161924
15.2918	0.258823
20.1207	0.323848
25.1509	0.388937
26.1569	0.452748
28.169	0.453387
30.1811	0.485772
30.7847	0.454217
32.5956	0.518284
35.2113	0.582607
37.0221	0.646674
39.0342	0.647312
40.6439	0.711316
42.6559	0.680208
44.668	0.680847
46.0765	0.744786
48.0885	0.777171
50.1006	0.809556
55.1308	0.874645
60.161	0.97148
60.7646	1.00342
62.7767	0.97231
64.9899	1.0365
67.002	1.03714
69.0141	1.10127
69.8189	1.10153
75.2515	1.135
78.672	1.23132
80.2817	1.23184
82.0926	1.23241
86.1167	1.29718
88.1288	1.32956
91.1469	1.36227
93.159	1.39465
95.171	1.42704
95.9759	1.39555
97.9879	1.42793
100.201	1.46038
