Adsorption isotherm of Hydrogen on Li-doped Corrole
DOI: 10.1021/Jp210975x
Adsorbate Hydrogen: InChIKey UFHFLCQGNIYNRP-UHFFFAOYSA-N
Temperature: 77 K
Tabular data in the source: 0
pressure (bar)	uptake (wt%)
1.06571	3.48164
1.38408	3.79246
1.70455	3.99965
2.99779	4.26881
3.64126	4.55883
4.28388	4.8903
4.93029	5.03525
9.94554	5.88395
14.9675	6.40104
20.1581	6.60722
24.5379	6.77212
29.7319	6.81249
34.602	6.81148
39.96	6.76892
44.9942	6.68498
49.8656	6.62179
54.9006	6.49639
59.6114	6.35034
64.8079	6.26636
69.6814	6.09955
75.042	5.93263
79.4268	5.84882
84.9505	5.64042
90.147	5.55645
95.0205	5.38963
100.056	5.24351
