Adsorption isotherm of Hydrogen on Corrole
DOI: 10.1021/Jp210975x
Adsorbate Hydrogen: InChIKey UFHFLCQGNIYNRP-UHFFFAOYSA-N
Temperature: 77 K
Tabular data in the source: 0
pressure (bar)	uptake (wt%)
1.00604	1.74635
1.40845	2.19092
2.01207	2.54032
2.61569	2.85797
3.21932	3.04864
3.62173	3.36623
4.22535	3.52515
4.62777	3.71575
5.23139	3.87468
7.24346	4.415
9.85915	5.08249
15.0905	5.84606
19.9195	6.38728
24.9497	6.80157
30.1811	7.12069
31.1871	7.1845
33.1992	7.28038
34.6076	7.43956
41.0463	7.66382
43.0584	7.72796
45.0704	7.82383
50.1006	7.98416
50.9054	8.01616
52.9175	8.08029
61.167	8.27339
62.7767	8.33739
64.9899	8.43333
65.996	8.4654
68.008	8.46603
70.2213	8.49848
75.2515	8.62706
80.2817	8.66041
84.9095	8.78886
86.9215	8.7895
88.9336	8.82188
89.9396	8.8222
90.9457	8.88601
92.9577	8.88665
95.5734	9.01447
97.1831	8.98323
98.994	8.98381
100	8.98413
