Adsorption isotherm of Hydrogen on Corrole
DOI: 10.1021/Jp210975x
Adsorbate Hydrogen: InChIKey UFHFLCQGNIYNRP-UHFFFAOYSA-N
Temperature: 77 K
Tabular data in the source: 0
pressure (bar)	uptake (wt%)
1.10104	1.7407
1.57838	2.21729
2.22185	2.50731
2.7034	2.77664
3.02345	3.00455
3.66859	3.21167
4.15267	3.35665
4.63632	3.52236
5.44464	3.68799
7.54495	4.18496
9.97077	4.64042
12.7255	4.88855
15.1555	5.13676
20.0185	5.48808
25.2104	5.63208
30.0793	5.69325
35.2737	5.7129
39.9811	5.73265
45.178	5.62794
49.8862	5.60624
55.0836	5.48081
59.9563	5.35545
65.1532	5.25075
70.0259	5.12538
75.0613	4.97926
80.0963	4.85387
85.1309	4.7492
89.8421	4.58242
95.0398	4.43626
100.075	4.31087
