Adsorption isotherm of Benzene on Silicalite MFI
DOI: 10.1021/Jp074918p
Adsorbate Benzene: InChIKey UHOVQNZJYSORNB-UHFFFAOYSA-N
Temperature: 323 K
Tabular data in the source: 0
pressure (bar)	uptake (molecules/unitcell)
0.0014654	3.4084
0.0040895	3.76017
0.00810612	3.95899
0.0103202	4.09664
0.0200489	4.29546
0.0352206	4.66252
0.0439471	4.99899
0.049587	5.47311
0.0631308	5.99311
0.0820078	6.37546
0.0982902	6.62017
