Adsorption isotherm of Propene on Silicalite MFI
DOI: 10.1021/Jp074918p
Adsorbate Propene: InChIKey QQONPFPTGQHPMA-UHFFFAOYSA-N
Temperature: 298 K
Tabular data in the source: 0
pressure (bar)	uptake (molecules/unitcell)
0.00109948	0.73764
0.00138636	0.979292
0.00300264	1.8922
0.00739724	4.33557
0.0108864	5.73179
0.0156139	6.9132
0.0305062	8.52421
0.051067	9.46397
0.0854855	10.0815
0.135916	10.4574
0.422206	11.2092
1.04014	11.5046
