Adsorption isotherm of Benzene on Silicalite MFI
DOI: 10.1021/Jp074918p
Adsorbate Benzene: InChIKey UHOVQNZJYSORNB-UHFFFAOYSA-N
Temperature: 423 K
Tabular data in the source: 0
pressure (bar)	uptake (molecules/unitcell)
0.0198317	1.78036
0.0515806	2.68926
0.101729	3.28355
0.200633	3.65061
0.496227	3.91279
0.954363	4.07011
