Adsorption isotherm of Propene on Zeolite FAU
DOI: 10.1021/Jp074918p
Adsorbate Propene: InChIKey QQONPFPTGQHPMA-UHFFFAOYSA-N
Temperature: 423 K
Tabular data in the source: 0
pressure (bar)	uptake (molecules/unitcell)
0.0967378	0.421351
0.18605	0.858325
0.4839	1.62303
0.978674	3.15244
