Adsorption isotherm of Propene on MCM22
DOI: 10.1021/Jp074918p
Adsorbate Propene: InChIKey QQONPFPTGQHPMA-UHFFFAOYSA-N
Temperature: 423 K
Tabular data in the source: 0
pressure (bar)	uptake (molecules/unitcell)
0.00484837	0.0568017
0.00956212	0.117978
0.0193391	0.240331
0.0515806	0.760331
0.0967378	1.34151
0.200633	2.53445
0.52183	5.13445
1.08227	7.64268
