Adsorption isotherm of Benzene on Silicalite MFI
DOI: 10.1021/Jp074918p
Adsorbate Benzene: InChIKey UHOVQNZJYSORNB-UHFFFAOYSA-N
Temperature: 423 K
Tabular data in the source: 0
pressure (bar)	uptake (molecules/unitcell)
0.00112715	0.883312
0.00265101	1.29844
0.00449596	1.62617
0.0111199	2.20516
0.0198317	2.62029
0.0443548	3.23205
0.0752233	3.51608
0.101729	3.73457
0.210985	4.106
