Adsorption isotherm of Propene on Silicalite MFI
DOI: 10.1021/Jp074918p
Adsorbate Propene: InChIKey QQONPFPTGQHPMA-UHFFFAOYSA-N
Temperature: 303 K
Tabular data in the source: 0
pressure (bar)	uptake (molecules/unitcell)
0.00013	0.0932338
0.000354	0.254335
0.000807	0.495988
0.00157693	1.00614
0.00277934	1.6774
0.00465257	2.53661
0.00684711	3.39582
0.0108864	4.55038
0.0235783	6.9132
0.0394698	8.25571
0.062754	9.08807
0.107791	10.001
0.167021	10.5111
0.302055	10.887
0.763553	11.1824
