Adsorption isotherm of Benzene on Silicalite MFI
DOI: 10.1021/Jp074918p
Adsorbate Benzene: InChIKey UHOVQNZJYSORNB-UHFFFAOYSA-N
Temperature: 423 K
Tabular data in the source: 0
pressure (bar)	uptake (molecules/unitcell)
9.96e-06	0.0639838
2.23e-05	0.0749082
6.91e-05	0.107681
0.000175	0.184152
0.000412	0.271547
0.00134417	0.632051
0.00316142	1.09087
0.0230625	2.64214
0.0556237	3.23205
0.141079	3.60348
0.437581	3.90936
1.02917	4.08415
