Adsorption isotherm of Propene on Silicalite MFI
DOI: 10.1021/Jp074918p
Adsorbate Propene: InChIKey QQONPFPTGQHPMA-UHFFFAOYSA-N
Temperature: 423 K
Tabular data in the source: 0
pressure (bar)	uptake (molecules/unitcell)
0.00124647	0.00748956
0.00293163	0.0162291
0.00801832	0.051187
0.0166299	0.0774055
0.0327981	0.156061
0.0811195	0.243456
0.152137	0.383288
0.258016	0.52312
0.416111	0.724128
0.654407	0.898918
0.954363	1.09119
