Adsorption isotherm of Benzene on Mordenite
DOI: 10.1021/Jp074918p
Adsorbate Benzene: InChIKey UHOVQNZJYSORNB-UHFFFAOYSA-N
Temperature: 423 K
Tabular data in the source: 0
pressure (bar)	uptake (mol/g)
0.00109915	0.0142004
0.00509853	0.136553
0.0100555	0.266553
0.0198317	0.4042
0.0490499	0.58773
0.099202	0.671847
0.205744	0.771259
0.4839	0.832436
1.05539	0.870671
