Adsorption isotherm of Benzene on Silicalite MFI
DOI: 10.1021/Jp074918p
Adsorbate Benzene: InChIKey UHOVQNZJYSORNB-UHFFFAOYSA-N
Temperature: 395 K
Tabular data in the source: 0
pressure (bar)	uptake (molecules/unitcell)
0.00417263	1.26722
0.00827089	1.87899
0.0288006	3.04134
0.0413725	3.33193
0.0726805	3.6684
0.0982902	3.76017
