Adsorption isotherm of Benzene on MCM22
DOI: 10.1021/Jp074918p
Adsorbate Benzene: InChIKey UHOVQNZJYSORNB-UHFFFAOYSA-N
Temperature: 423 K
Tabular data in the source: 0
pressure (bar)	uptake (mol/g)
1.1e-05	-0.0010937
2.12e-05	0.0142004
5.24e-05	0.0753769
0.000109	0.190083
0.000204	0.419495
0.000517	0.740671
0.00101926	0.878318
0.00206143	0.97773
0.0052284	1.08479
0.0203369	1.16891
0.101729	1.26067
0.52183	1.35244
0.954363	1.38302
