Adsorption isotherm of Benzene on Mordenite
DOI: 10.1021/Jp074918p
Adsorbate Benzene: InChIKey UHOVQNZJYSORNB-UHFFFAOYSA-N
Temperature: 373 K
Tabular data in the source: 0
pressure (bar)	uptake (molecules/unitcell)
1.07e-05	0.0187264
2.07e-05	0.025281
4.98e-05	0.0514995
9.82e-05	0.0908272
0.000214	0.130155
0.00053	0.30713
0.00101926	0.595533
0.00201022	1.01503
0.0098057	1.99822
0.0213862	2.23419
0.0478315	2.45049
0.10432	2.58814
0.210985	2.6799
0.535122	2.72579
1.0036	2.752
