Adsorption isotherm of Benzene on Silicalite MFI
DOI: 10.1021/Jp074918p
Adsorbate Benzene: InChIKey UHOVQNZJYSORNB-UHFFFAOYSA-N
Temperature: 395 K
Tabular data in the source: 0
pressure (bar)	uptake (molecules/unitcell)
0.000118	-0.0480697
0.000249	0.0284008
0.000447	0.120166
0.00077	0.227224
0.00165346	0.502518
0.00296373	0.946048
0.0056429	1.43546
0.00933232	1.98605
0.0154339	2.49075
0.0265732	2.90369
0.0359365	3.17899
0.0618731	3.50017
0.0982902	3.71428
