Adsorption isotherm of Propene on Mordenite
DOI: 10.1021/Jp074918p
Adsorbate Propene: InChIKey QQONPFPTGQHPMA-UHFFFAOYSA-N
Temperature: 373 K
Tabular data in the source: 0
pressure (bar)	uptake (mol/g)
0.0101687	0.0163838
0.0201561	0.0326975
0.0498521	0.0839692
0.0998151	0.170199
0.203915	0.291387
0.484448	0.494143
0.960262	0.643297
