Adsorption isotherm of Benzene on Zeolite FAU
DOI: 10.1021/Jp074918p
Adsorbate Benzene: InChIKey UHOVQNZJYSORNB-UHFFFAOYSA-N
Temperature: 373 K
Tabular data in the source: 0
pressure (bar)	uptake (molecules/unitcell)
0.10432	34.0684
0.200633	38.9844
0.496227	43.6819
1.02917	45.8667
