Adsorption isotherm of Benzene on Silicalite MFI
DOI: 10.1021/Jp074918p
Adsorbate Benzene: InChIKey UHOVQNZJYSORNB-UHFFFAOYSA-N
Temperature: 373 K
Tabular data in the source: 0
pressure (bar)	uptake (molecules/unitcell)
1.02e-05	0.140454
2.23e-05	0.216925
6.74e-05	0.468185
0.000184	0.872387
0.000412	1.40768
0.00127822	2.34718
0.00300631	2.98079
0.0074355	3.46146
0.0224896	3.81104
0.0556237	3.97491
