Adsorption isotherm of Propene on Mordenite
DOI: 10.1021/Jp074918p
Adsorbate Propene: InChIKey QQONPFPTGQHPMA-UHFFFAOYSA-N
Temperature: 423 K
Tabular data in the source: 0
pressure (bar)	uptake (molecules/unitcell)
0.020855	0.0187264
0.0528946	0.0842726
0.101729	0.156373
0.205744	0.30713
0.52183	0.680743
1.02917	1.06091
