Adsorption isotherm of Benzene on Silicalite MFI
DOI: 10.1021/Jp074918p
Adsorbate Benzene: InChIKey UHOVQNZJYSORNB-UHFFFAOYSA-N
Temperature: 473 K
Tabular data in the source: 0
pressure (bar)	uptake (molecules/unitcell)
0.00112715	0.435412
0.00271854	0.610202
0.00449596	0.741295
0.0105743	1.04718
0.0188587	1.29844
0.0454847	1.83373
0.0733547	2.18331
0.0967378	2.43457
0.216359	2.93709
