Adsorption isotherm of Benzene on Silicalite MFI
DOI: 10.1021/Jp074918p
Adsorbate Benzene: InChIKey UHOVQNZJYSORNB-UHFFFAOYSA-N
Temperature: 373 K
Tabular data in the source: 0
pressure (bar)	uptake (molecules/unitcell)
0.00509853	2.33968
0.0105743	2.96893
0.020855	3.4933
0.0528946	3.80792
0.101729	3.98271
0.210985	4.14002
0.535122	4.34977
0.978674	4.71683
