Adsorption isotherm of Benzene on Silicalite MFI
DOI: 10.1021/Jp074918p
Adsorbate Benzene: InChIKey UHOVQNZJYSORNB-UHFFFAOYSA-N
Temperature: 323 K
Tabular data in the source: 0
pressure (bar)	uptake (molecules/unitcell)
9.97e-06	0.0742832
1.9e-05	0.196636
3.76e-05	0.410754
6.35e-05	0.670754
0.000121	1.19075
0.000249	1.95546
0.000605	2.72017
0.00115102	3.17899
0.00202203	3.53075
0.00341204	3.71428
0.00662854	3.91311
0.0148251	4.09664
0.0288006	4.21899
0.0476309	4.37193
0.102327	4.83075
