Adsorption isotherm of Propene on Silicalite MFI
DOI: 10.1021/Jp074918p
Adsorbate Propene: InChIKey QQONPFPTGQHPMA-UHFFFAOYSA-N
Temperature: 373 K
Tabular data in the source: 0
pressure (bar)	uptake (molecules/unitcell)
0.000994	0.0202863
0.00191159	0.0421351
0.00427538	0.0967569
0.00822257	0.162303
0.0198317	0.238774
0.0362698	0.337093
0.0752233	0.500959
0.134157	0.719446
0.227523	0.992555
0.357819	1.29844
0.548754	1.64802
0.780403	1.9976
0.978674	2.30348
