Adsorption isotherm of Propene on MCM22
DOI: 10.1021/Jp074918p
Adsorbate Propene: InChIKey QQONPFPTGQHPMA-UHFFFAOYSA-N
Temperature: 373 K
Tabular data in the source: 0
pressure (bar)	uptake (molecules/unitcell)
0.00104522	0.0873899
0.00196028	0.117978
0.0052284	0.301508
0.0100555	0.576802
0.0198317	1.18857
0.0556237	2.77915
0.10432	4.76739
0.190789	6.90857
0.52183	9.75327
0.978674	11.3744
