Adsorption isotherm of Propene on Silicalite MFI
DOI: 10.1021/Jp074918p
Adsorbate Propene: InChIKey QQONPFPTGQHPMA-UHFFFAOYSA-N
Temperature: 373 K
Tabular data in the source: 0
pressure (bar)	uptake (molecules/unitcell)
2.17e-05	0.00936194
9.82e-05	0.0202863
0.00022	0.0202863
0.000517	0.0312107
0.00104522	0.0639838
0.00206143	0.0967569
0.00578185	0.140454
0.0105743	0.260622
0.0203369	0.511883
0.0502994	1.0144
0.101729	1.69171
0.205744	2.52197
0.47188	3.7455
0.978674	4.68499
