Adsorption isotherm of Propene on Zeolite FAU
DOI: 10.1021/Jp074918p
Adsorbate Propene: InChIKey QQONPFPTGQHPMA-UHFFFAOYSA-N
Temperature: 373 K
Tabular data in the source: 0
pressure (bar)	uptake (mol/g)
0.00105699	0.00473111
0.00199235	7e-05
0.0049775	0.00240058
0.0201561	0.00240058
0.0508655	0.0280364
0.0998151	0.0746471
0.201873	0.158546
0.504343	0.382277
0.989689	0.729527
