Adsorption isotherm of Benzene on Zeolite BEA
DOI: 10.1021/Jp074918p
Adsorbate Benzene: InChIKey UHOVQNZJYSORNB-UHFFFAOYSA-N
Temperature: 423 K
Tabular data in the source: 0
pressure (bar)	uptake (molecules/unitcell)
1.07e-05	-0.0468223
5.11e-05	-0.00312485
0.000209	0.0624214
0.000517	0.149816
0.000922	0.237211
0.00172861	0.324606
0.00461049	0.95822
0.0103116	2.13805
0.0478315	6.02713
0.0943347	7.07587
0.190789	7.62209
0.496227	8.12461
0.930656	8.45234
