Adsorption isotherm of Propene on Silicalite MFI
DOI: 10.1021/Jp074918p
Adsorbate Propene: InChIKey QQONPFPTGQHPMA-UHFFFAOYSA-N
Temperature: 373 K
Tabular data in the source: 0
pressure (bar)	uptake (molecules/unitcell)
2.07e-05	0.0324581
0.000106	0.0499371
0.000204	0.0499371
0.000994	0.0674161
0.00196028	0.0848951
0.00536159	0.189769
0.0103116	0.242206
0.0198317	0.434475
0.054242	1.02876
0.101729	1.69296
0.205744	2.497
0.535122	3.77296
1.10984	4.62943
