Adsorption isotherm of Propene on Silicalite MFI
DOI: 10.1021/Jp074918p
Adsorbate Propene: InChIKey QQONPFPTGQHPMA-UHFFFAOYSA-N
Temperature: 423 K
Tabular data in the source: 0
pressure (bar)	uptake (molecules/unitcell)
2.12e-05	0.0848951
0.000103	0.0674161
0.000543	0.102374
0.00211394	0.0848951
0.0052284	0.119853
0.0108437	0.119853
0.0203369	0.17229
0.0502994	0.329601
0.0943347	0.486912
0.200633	0.888929
0.4839	1.64053
1.0036	2.47952
