Adsorption isotherm of Benzene on Silicalite MFI
DOI: 10.1021/Jp074918p
Adsorbate Benzene: InChIKey UHOVQNZJYSORNB-UHFFFAOYSA-N
Temperature: 323 K
Tabular data in the source: 0
pressure (bar)	uptake (molecules/unitcell)
1.08e-05	0.119853
2.18e-05	0.259685
5.3e-05	0.609265
0.000101	1.02876
0.000204	1.72792
0.000515	2.65431
0.001	3.17868
0.00206313	3.58069
0.00520648	3.89532
0.00991306	4.01767
0.0208723	4.10506
0.0526728	4.41968
0.100288	4.85666
