Adsorption isotherm of Benzene on Silicalite MFI
DOI: 10.1021/Jp074918p
Adsorbate Benzene: InChIKey UHOVQNZJYSORNB-UHFFFAOYSA-N
Temperature: 523 K
Tabular data in the source: 0
pressure (bar)	uptake (molecules/unitcell)
0.0012155	0.238774
0.00449596	0.358942
0.0203369	0.632051
0.099202	1.13457
0.205744	1.5497
0.376281	1.84466
