Adsorption isotherm of Benzene on Silicalite MFI
DOI: 10.1021/Jp074918p
Adsorbate Benzene: InChIKey UHOVQNZJYSORNB-UHFFFAOYSA-N
Temperature: 435 K
Tabular data in the source: 0
pressure (bar)	uptake (molecules/unitcell)
0.000592	-0.0480697
0.00135207	0.0589891
0.00273451	0.196636
0.0054203	0.441342
0.0101146	0.716636
0.0181298	1.19075
0.0299834	1.68017
0.0485991	2.23075
0.0982902	2.81193
