Adsorption isotherm of Benzene on Zeolite BEA
DOI: 10.1021/Jp074918p
Adsorbate Benzene: InChIKey UHOVQNZJYSORNB-UHFFFAOYSA-N
Temperature: 423 K
Tabular data in the source: 0
pressure (bar)	uptake (mol/g)
5.37e-05	0.0142004
0.000209	0.0142004
0.000504	0.0142004
0.00101926	0.0524357
0.00211394	0.113612
0.0052284	0.243612
0.0103116	0.549495
0.0203369	1.01597
0.0502994	1.5742
0.101729	1.85714
0.195649	1.99479
0.52183	2.12479
0.954363	2.21655
