Adsorption isotherm of Propene on Silicalite MFI
DOI: 10.1021/Jp074918p
Adsorbate Propene: InChIKey QQONPFPTGQHPMA-UHFFFAOYSA-N
Temperature: 323 K
Tabular data in the source: 0
pressure (bar)	uptake (molecules/unitcell)
0.000303	0.105399
0.000714	0.210273
0.00134994	0.350105
0.00259625	0.717164
0.00561514	1.38137
0.0119424	2.53498
0.0184692	3.67111
0.028563	4.71985
0.0480368	6.17061
0.0706449	7.20187
0.122862	8.61767
0.244352	9.68389
0.624971	10.453
0.999496	10.7501
