Adsorption isotherm of Benzene on Silicalite MFI
DOI: 10.1021/Jp074918p
Adsorbate Benzene: InChIKey UHOVQNZJYSORNB-UHFFFAOYSA-N
Temperature: 423 K
Tabular data in the source: 0
pressure (bar)	uptake (molecules/unitcell)
1.13e-05	0.0162291
5.37e-05	0.0162291
0.000209	0.033708
0.000504	0.0774055
0.00107185	0.147321
0.00191159	0.243456
0.0052284	0.610515
0.0103116	1.09119
0.0203369	1.72043
0.0490499	2.58564
0.101729	3.17119
0.205744	3.52077
0.496227	3.73051
1.0036	3.82665
