Adsorption isotherm of Propene on Mordenite
DOI: 10.1021/Jp074918p
Adsorbate Propene: InChIKey QQONPFPTGQHPMA-UHFFFAOYSA-N
Temperature: 423 K
Tabular data in the source: 0
pressure (bar)	uptake (molecules/unitcell)
5.24e-05	-0.000937
0.000101	0.00561717
0.000204	0.0121718
0.000517	0.0121718
0.00109915	0.00561717
0.00211394	0.00561717
0.00497188	0.00561717
0.0100555	0.0121718
0.020855	0.0187264
0.0490499	0.0187264
0.210985	0.0318357
1.02917	0.0318357
