Adsorption isotherm of Benzene on Silicalite MFI
DOI: 10.1021/Jp074918p
Adsorbate Benzene: InChIKey UHOVQNZJYSORNB-UHFFFAOYSA-N
Temperature: 423 K
Tabular data in the source: 0
pressure (bar)	uptake (molecules/unitcell)
1.16e-05	0.102374
5.37e-05	0.119853
0.000106	0.119853
0.000209	0.119853
0.000517	0.17229
0.000994	0.224727
0.00216779	0.364559
0.00497188	0.714139
0.0098057	1.15111
0.0203369	1.72792
0.0967378	3.1612
0.210985	3.54574
0.52183	3.77296
1.0036	3.8254
