Adsorption isotherm of Propene on MCM22
DOI: 10.1021/Jp074918p
Adsorbate Propene: InChIKey QQONPFPTGQHPMA-UHFFFAOYSA-N
Temperature: 373 K
Tabular data in the source: 0
pressure (bar)	uptake (molecules/unitcell)
1.13e-05	0.0873899
2.17e-05	0.0873899
5.37e-05	0.0873899
0.000209	0.0568017
0.00053	0.0568017
0.00107185	0.0873899
0.00201022	0.0873899
0.00497188	0.0568017
0.0103116	0.0568017
0.0203369	0.0873899
0.0515806	0.179155
0.0967378	0.240331
0.195649	0.393272
0.548754	0.882684
1.02917	1.46386
