Adsorption isotherm of Benzene on Silicalite MFI
DOI: 10.1021/Jp074918p
Adsorbate Benzene: InChIKey UHOVQNZJYSORNB-UHFFFAOYSA-N
Temperature: 435 K
Tabular data in the source: 0
pressure (bar)	uptake (molecules/unitcell)
0.00587464	0.563695
0.0114126	0.930754
0.0208723	1.38958
0.0359365	1.80252
0.0526728	2.27664
0.0726805	2.53664
