Adsorption isotherm of Propene on Zeolite BEA
DOI: 10.1021/Jp074918p
Adsorbate Propene: InChIKey QQONPFPTGQHPMA-UHFFFAOYSA-N
Temperature: 423 K
Tabular data in the source: 0
pressure (bar)	uptake (molecules/unitcell)
0.0490499	0.127968
0.0967378	0.390152
0.195649	0.739732
0.47188	1.72293
0.954363	2.99015
