Adsorption isotherm of Benzene on Zeolite BEA
DOI: 10.1021/Jp074918p
Adsorbate Benzene: InChIKey UHOVQNZJYSORNB-UHFFFAOYSA-N
Temperature: 373 K
Tabular data in the source: 0
pressure (bar)	uptake (molecules/unitcell)
1.02e-05	0.0405726
2.12e-05	0.0624214
5.24e-05	0.0624214
0.000101	0.171665
0.000194	0.25906
0.000479	0.521245
0.00101926	1.3078
0.00211394	2.90276
0.00497188	5.72124
0.0100555	7.09772
0.0198317	7.68763
0.0967378	8.62713
0.195649	9.08595
0.907538	9.69772
