Adsorption isotherm of Benzene on Silicalite MFI
DOI: 10.1021/Jp074918p
Adsorbate Benzene: InChIKey UHOVQNZJYSORNB-UHFFFAOYSA-N
Temperature: 373 K
Tabular data in the source: 0
pressure (bar)	uptake (molecules/unitcell)
2.4e-05	0.0530594
4.5e-05	0.0858325
0.000101	0.118606
0.000184	0.173227
0.000491	0.402639
0.000945	0.741295
0.0018641	1.28751
0.00472794	2.22701
0.00932459	2.90432
0.0193391	3.30852
0.0490499	3.54886
0.118302	3.73457
0.307693	3.82197
0.654407	3.80012
0.907538	3.7455
