Adsorption isotherm of Benzene on Zeolite FAU
DOI: 10.1021/Jp074918p
Adsorbate Benzene: InChIKey UHOVQNZJYSORNB-UHFFFAOYSA-N
Temperature: 423 K
Tabular data in the source: 0
pressure (bar)	uptake (mol/g)
1.07e-05	0.0142004
0.000103	0.0142004
0.000517	0.00655336
0.00216779	0.0142004
0.0100555	0.0142004
0.020855	0.0524357
0.0515806	0.174789
0.109703	0.419495
0.210985	1.24538
0.52183	2.59891
1.0036	3.08067
