Adsorption isotherm of Benzene on Zeolite FAU
DOI: 10.1021/Jp074918p
Adsorbate Benzene: InChIKey UHOVQNZJYSORNB-UHFFFAOYSA-N
Temperature: 423 K
Tabular data in the source: 0
pressure (bar)	uptake (molecules/unitcell)
1.1e-05	0.202863
4.98e-05	0.202863
0.000204	0.0936194
0.00101926	0.202863
0.00484837	0.0936194
0.0105743	0.421351
0.0193391	0.749082
0.0502994	2.06001
0.0943347	5.00959
0.200633	14.623
0.508867	28.934
1.02917	34.7239
