Adsorption isotherm of Benzene on Silicalite MFI
DOI: 10.1021/Jp074918p
Adsorbate Benzene: InChIKey UHOVQNZJYSORNB-UHFFFAOYSA-N
Temperature: 373 K
Tabular data in the source: 0
pressure (bar)	uptake (molecules/unitcell)
1.02e-05	0.0324581
5.24e-05	0.0848951
0.000106	0.137332
0.000214	0.189769
0.000479	0.469433
0.000969	0.819013
0.00211394	1.4133
0.0108437	2.95145
0.020855	3.42338
0.0515806	3.72053
0.101729	3.87784
0.210985	3.89532
0.52183	4.00019
1.0036	4.00019
