Adsorption isotherm of Propene on Zeolite BEA
DOI: 10.1021/Jp074918p
Adsorbate Propene: InChIKey QQONPFPTGQHPMA-UHFFFAOYSA-N
Temperature: 373 K
Tabular data in the source: 0
pressure (bar)	uptake (molecules/unitcell)
5.11e-05	0.0405726
0.000103	0.0405726
0.000204	0.0842701
0.000504	0.0624214
0.00101926	0.0624214
0.00201022	0.0405726
0.00472794	0.0624214
0.00956212	0.0624214
0.0193391	0.0624214
0.0466433	0.0624214
0.0967378	0.0624214
0.195649	0.0624214
0.954363	0.0624214
