Adsorption isotherm of Benzene on Silicalite MFI
DOI: 10.1021/Jp074918p
Adsorbate Benzene: InChIKey UHOVQNZJYSORNB-UHFFFAOYSA-N
Temperature: 323 K
Tabular data in the source: 0
pressure (bar)	uptake (molecules/unitcell)
1.12e-05	0.137332
2.06e-05	0.259685
5.19e-05	0.766576
0.000103	1.51817
0.000208	3.23111
0.000558	5.95784
0.00104084	7.02405
0.00214786	7.53095
0.0050011	7.84557
0.0101146	7.95044
0.0196495	8.03784
0.0526728	8.16019
0.104407	8.3175
