Adsorption isotherm of Propene on Zeolite BEA
DOI: 10.1021/Jp074918p
Adsorbate Propene: InChIKey QQONPFPTGQHPMA-UHFFFAOYSA-N
Temperature: 373 K
Tabular data in the source: 0
pressure (bar)	uptake (mol/g)
0.0100669	0.0187143
0.0205658	0.0583333
0.0513799	0.144563
0.100825	0.293717
0.203915	0.543084
0.489347	1.07445
0.960262	1.50326
