Adsorption isotherm of Benzene on Silicalite MFI
DOI: 10.1021/Jp074918p
Adsorbate Benzene: InChIKey UHOVQNZJYSORNB-UHFFFAOYSA-N
Temperature: 373 K
Tabular data in the source: 0
pressure (bar)	uptake (molecules/unitcell)
0.00118531	2.24886
0.00278779	2.96987
0.00438428	3.34129
0.0105743	3.85474
0.0193391	4.1497
0.0454847	4.49928
0.0733547	4.64129
0.099202	4.75054
0.210985	4.97995
