Adsorption isotherm of Benzene on Silicalite MFI
DOI: 10.1021/Jp074918p
Adsorbate Benzene: InChIKey UHOVQNZJYSORNB-UHFFFAOYSA-N
Temperature: 373 K
Tabular data in the source: 0
pressure (bar)	uptake (molecules/unitcell)
0.000642	0.777813
0.00115102	1.49664
0.00362437	1.95546
0.0091464	2.65899
0.0128772	3.02605
0.0174146	3.25546
0.0276645	3.69899
0.0405483	3.9284
