Adsorption isotherm of Benzene on Zeolite BEA
DOI: 10.1021/Jp074918p
Adsorbate Benzene: InChIKey UHOVQNZJYSORNB-UHFFFAOYSA-N
Temperature: 373 K
Tabular data in the source: 0
pressure (bar)	uptake (molecules/unitcell)
0.00201022	2.92461
0.00484837	5.67755
0.0103116	6.98847
0.0478315	8.212
0.101729	8.67083
0.195649	9.0641
