Adsorption isotherm of Benzene on Silicalite MFI
DOI: 10.1021/Jp074918p
Adsorbate Benzene: InChIKey UHOVQNZJYSORNB-UHFFFAOYSA-N
Temperature: 373 K
Tabular data in the source: 0
pressure (bar)	uptake (molecules/unitcell)
1.07e-05	0.0312107
2.17e-05	0.0312107
5.24e-05	0.0639838
0.000103	0.12953
0.000214	0.184152
0.000504	0.435412
0.000994	0.850538
0.00211394	1.40768
0.00509853	2.33625
0.0103116	2.99171
0.0213862	3.42869
0.0490499	3.76735
0.101729	3.86566
0.195649	3.92029
0.496227	3.98583
1.0036	3.98583
