Adsorption isotherm of Benzene on MCM22
DOI: 10.1021/Jp074918p
Adsorbate Benzene: InChIKey UHOVQNZJYSORNB-UHFFFAOYSA-N
Temperature: 373 K
Tabular data in the source: 0
pressure (bar)	uptake (molecules/unitcell)
2.17e-05	5.68504
5.37e-05	7.27563
0.000103	8.19327
0.000543	9.50857
0.00104522	9.78386
0.0203369	11.0074
0.0528946	11.558
0.109703	11.8639
0.205744	12.2615
0.496227	12.7203
0.978674	13.1486
