Adsorption isotherm of Propene on Silicalite MFI
DOI: 10.1021/Jp074918p
Adsorbate Propene: InChIKey QQONPFPTGQHPMA-UHFFFAOYSA-N
Temperature: 423 K
Tabular data in the source: 0
pressure (bar)	uptake (molecules/unitcell)
2.23e-05	-0.00998944
0.000103	0.00748956
0.000504	0.0162291
0.00104522	0.00748956
0.00201022	0.00748956
0.00497188	0.033708
0.0103116	0.0599265
0.020855	0.121103
0.0515806	0.269674
0.10432	0.479422
0.205744	0.811523
0.508867	1.58934
1.0036	2.42833
