Adsorption isotherm of Propene on Zeolite BEA
DOI: 10.1021/Jp074918p
Adsorbate Propene: InChIKey QQONPFPTGQHPMA-UHFFFAOYSA-N
Temperature: 373 K
Tabular data in the source: 0
pressure (bar)	uptake (molecules/unitcell)
0.00956212	0.0842701
0.0193391	0.237211
0.0466433	0.521245
0.0919914	1.08931
0.195649	2.09435
0.4839	4.23553
0.930656	5.85234
