Adsorption isotherm of Benzene on MCM22
DOI: 10.1021/Jp074918p
Adsorbate Benzene: InChIKey UHOVQNZJYSORNB-UHFFFAOYSA-N
Temperature: 423 K
Tabular data in the source: 0
pressure (bar)	uptake (molecules/unitcell)
1.02e-05	0.148566
1.96e-05	0.301508
4.98e-05	0.821508
9.58e-05	1.8921
0.000204	3.9721
0.000517	6.5721
0.00101926	7.76504
0.00201022	8.71327
0.00497188	9.53916
0.00956212	9.84504
0.020855	10.1203
0.0502994	10.6403
0.0919914	10.9462
0.200633	11.3439
0.52183	11.8944
1.0036	12.0168
