Adsorption isotherm of Benzene on Silicalite MFI
DOI: 10.1021/Jp074918p
Adsorbate Benzene: InChIKey UHOVQNZJYSORNB-UHFFFAOYSA-N
Temperature: 373 K
Tabular data in the source: 0
pressure (bar)	uptake (molecules/unitcell)
0.0024235	1.49664
0.00417263	2.01664
0.00662854	2.50605
0.0123692	3.11781
0.0276645	3.60722
0.0397405	3.76017
0.0570879	3.85193
0.0820078	3.95899
