Adsorption isotherm of Benzene on Mordenite
DOI: 10.1021/Jp074918p
Adsorbate Benzene: InChIKey UHOVQNZJYSORNB-UHFFFAOYSA-N
Temperature: 423 K
Tabular data in the source: 0
pressure (bar)	uptake (molecules/unitcell)
0.0515806	1.76226
0.0943347	2.07032
0.205744	2.28007
0.548754	2.45705
0.978674	2.52915
