Adsorption isotherm of Benzene on Silicalite MFI
DOI: 10.1021/Jp074918p
Adsorbate Benzene: InChIKey UHOVQNZJYSORNB-UHFFFAOYSA-N
Temperature: 423 K
Tabular data in the source: 0
pressure (bar)	uptake (molecules/unitcell)
0.000117	0.00748956
0.000312	0.033708
0.000793	0.0948845
0.00160296	0.199758
0.00316142	0.357069
0.00623505	0.715389
0.012297	1.22228
0.02365	1.79909
0.0443548	2.45455
0.099202	3.06631
0.195649	3.31976
0.315531	3.46833
0.654407	3.53825
0.978674	3.53825
