Adsorption isotherm of Benzene on Silicalite MFI
DOI: 10.1021/Jp074918p
Adsorbate Benzene: InChIKey UHOVQNZJYSORNB-UHFFFAOYSA-N
Temperature: 323 K
Tabular data in the source: 0
pressure (bar)	uptake (molecules/unitcell)
9.97e-06	0.441342
1.82e-05	0.548401
3.27e-05	0.716636
5.63e-05	0.961342
8.94e-05	1.17546
0.00026	1.94017
0.000696	2.79664
0.00117441	3.17899
0.00308544	3.6684
0.00553048	3.82134
0.00718416	3.95899
