Adsorption isotherm of Benzene on Silicalite MFI
DOI: 10.1021/Jp074918p
Adsorbate Benzene: InChIKey UHOVQNZJYSORNB-UHFFFAOYSA-N
Temperature: 523 K
Tabular data in the source: 0
pressure (bar)	uptake (molecules/unitcell)
9.96e-06	0.0312107
2.46e-05	0.0530594
7.45e-05	0.0530594
0.000189	0.0530594
0.000373	0.0421351
0.00134417	0.0749082
0.00308288	0.0858325
0.00781914	0.162303
0.0224896	0.424488
0.0528946	0.774068
0.130824	1.23289
0.978674	2.74045
