Adsorption isotherm of Benzene on Silicalite MFI
DOI: 10.1021/Jp074918p
Adsorbate Benzene: InChIKey UHOVQNZJYSORNB-UHFFFAOYSA-N
Temperature: 373 K
Tabular data in the source: 0
pressure (bar)	uptake (molecules/unitcell)
3.08e-05	0.043695
9.49e-05	0.043695
0.000184	0.104871
0.000484	0.380166
0.00115102	0.900166
0.00284681	1.72605
0.0061159	2.52134
0.0163944	3.24017
0.0324966	3.68369
0.092532	3.89781
