Adsorption isotherm of Benzene on Silicalite MFI
DOI: 10.1021/Jp074918p
Adsorbate Benzene: InChIKey UHOVQNZJYSORNB-UHFFFAOYSA-N
Temperature: 473 K
Tabular data in the source: 0
pressure (bar)	uptake (molecules/unitcell)
0.000412	0.107681
0.00127822	0.184152
0.00308288	0.337093
0.00801832	0.566505
0.0224896	1.15642
0.0570406	1.81188
0.137574	2.51104
0.437581	3.27575
1.02917	3.60348
