Adsorption isotherm of Benzene on Mordenite
DOI: 10.1021/Jp074918p
Adsorbate Benzene: InChIKey UHOVQNZJYSORNB-UHFFFAOYSA-N
Temperature: 423 K
Tabular data in the source: 0
pressure (bar)	uptake (molecules/unitcell)
1.05e-05	0.0121718
2.23e-05	0.00561717
5.24e-05	0.0121718
0.000103	0.0187264
0.000199	0.0187264
0.000517	0.0449449
0.00107185	0.0908272
0.00201022	0.182592
0.0052284	0.438222
0.0100555	0.792172
0.0528946	1.74915
0.10432	2.05721
0.210985	2.26041
0.562732	2.45049
1.0036	2.5357
