Adsorption isotherm of Benzene on Silicalite MFI
DOI: 10.1021/Jp074918p
Adsorbate Benzene: InChIKey UHOVQNZJYSORNB-UHFFFAOYSA-N
Temperature: 323 K
Tabular data in the source: 0
pressure (bar)	uptake (molecules/unitcell)
0.0014654	3.4059
0.00425745	3.77296
0.00827089	4.01767
0.0145298	4.20994
0.0188743	4.29733
0.0282268	4.47212
0.0352206	4.62943
0.0422135	5.04893
0.0516234	5.53834
0.0594324	5.97532
0.0820078	6.37733
0.0963321	6.62204
