Adsorption isotherm of Benzene on Silicalite MFI
DOI: 10.1021/Jp074918p
Adsorbate Benzene: InChIKey UHOVQNZJYSORNB-UHFFFAOYSA-N
Temperature: 415 K
Tabular data in the source: 0
pressure (bar)	uptake (molecules/unitcell)
0.000254	-0.0480697
0.000412	-0.0174815
0.000739	0.0895773
0.0014362	0.181342
0.00257432	0.410754
0.00480381	0.747224
0.00896418	1.16017
0.0154339	1.71075
0.0288006	2.29193
0.0430716	2.72017
0.0982902	3.33193
