Adsorption isotherm of Benzene on MCM22
DOI: 10.1021/Jp074918p
Adsorbate Benzene: InChIKey UHOVQNZJYSORNB-UHFFFAOYSA-N
Temperature: 373 K
Tabular data in the source: 0
pressure (bar)	uptake (molecules/unitcell)
1.13e-05	3.60504
2.23e-05	5.5321
5.51e-05	7.21445
0.000103	8.10151
0.000214	8.77445
0.00053	9.47798
0.00107185	9.84504
0.00206143	10.0592
0.0052284	10.365
0.0108437	10.6097
0.0515806	11.5886
0.200633	12.1697
0.978674	12.8427
