Adsorption isotherm of Propene on Mordenite
DOI: 10.1021/Jp074918p
Adsorbate Propene: InChIKey QQONPFPTGQHPMA-UHFFFAOYSA-N
Temperature: 373 K
Tabular data in the source: 0
pressure (bar)	uptake (molecules/unitcell)
2.07e-05	0.025281
5.11e-05	0.0383903
0.000106	0.0318357
0.000209	0.025281
0.000517	0.025281
0.000994	0.025281
0.00201022	0.025281
0.00497188	0.025281
0.0108437	0.025281
0.0528946	0.025281
0.10432	0.0318357
0.205744	0.025281
1.05539	0.0318357
