Adsorption isotherm of Propene on Zeolite FAU
DOI: 10.1021/Jp074918p
Adsorbate Propene: InChIKey QQONPFPTGQHPMA-UHFFFAOYSA-N
Temperature: 373 K
Tabular data in the source: 0
pressure (bar)	uptake (molecules/unitcell)
0.0515806	0.530594
0.106978	0.858325
0.216359	1.62303
0.52183	4.46337
1.05539	8.61463
