Adsorption isotherm of Propene on Zeolite FAU
DOI: 10.1021/Jp074918p
Adsorbate Propene: InChIKey QQONPFPTGQHPMA-UHFFFAOYSA-N
Temperature: 423 K
Tabular data in the source: 0
pressure (bar)	uptake (molecules/unitcell)
0.00206143	0.202863
0.00484837	0.202863
0.0100555	0.0936194
0.0188587	0.0936194
0.0490499	-0.0156243
0.101729	0.202863
0.200633	0.858325
0.4839	1.40454
0.978674	1.51379
