Adsorption isotherm of Propene on Mordenite
DOI: 10.1021/Jp074918p
Adsorbate Propene: InChIKey QQONPFPTGQHPMA-UHFFFAOYSA-N
Temperature: 373 K
Tabular data in the source: 0
pressure (bar)	uptake (molecules/unitcell)
0.0052284	0.0383903
0.0108437	0.0711634
0.0203369	0.130155
0.0490499	0.267802
0.106978	0.510323
0.195649	0.851163
0.535122	1.42797
1.0036	1.86058
