Adsorption isotherm of Benzene on Zeolite BEA
DOI: 10.1021/Jp074918p
Adsorbate Benzene: InChIKey UHOVQNZJYSORNB-UHFFFAOYSA-N
Temperature: 423 K
Tabular data in the source: 0
pressure (bar)	uptake (molecules/unitcell)
0.0454847	6.20192
0.0967378	7.20696
0.195649	7.73133
0.4839	8.2557
