Adsorption isotherm of Benzene on Silicalite MFI
DOI: 10.1021/Jp074918p
Adsorbate Benzene: InChIKey UHOVQNZJYSORNB-UHFFFAOYSA-N
Temperature: 423 K
Tabular data in the source: 0
pressure (bar)	uptake (mol/g)
0.00112715	-0.0010937
0.00509853	0.0677298
0.0103116	0.151847
0.020855	0.281847
0.0515806	0.442436
0.101729	0.518906
0.205744	0.58773
0.496227	0.641259
0.978674	0.6642
