Adsorption isotherm of Propene on Silicalite MFI
DOI: 10.1021/Jp074918p
Adsorbate Propene: InChIKey QQONPFPTGQHPMA-UHFFFAOYSA-N
Temperature: 323 K
Tabular data in the source: 0
pressure (bar)	uptake (molecules/unitcell)
1.07e-05	0.0395333
1.93e-05	0.0663836
4.75e-05	0.0663836
0.000201	0.0932338
0.000508	0.0932338
0.000992	0.200635
0.00193782	0.495988
0.00477398	1.19409
0.0103397	2.18755
0.105049	8.33626
0.200025	9.49082
0.492777	10.4037
0.987906	10.7259
