Adsorption isotherm of Propene on Silicalite MFI
DOI: 10.1021/Jp074918p
Adsorbate Propene: InChIKey QQONPFPTGQHPMA-UHFFFAOYSA-N
Temperature: 373 K
Tabular data in the source: 0
pressure (bar)	uptake (molecules/unitcell)
0.00208771	0.0819188
0.00507766	0.186793
0.0104431	0.373235
0.020855	0.679181
0.0502994	1.62305
0.099202	2.91649
0.221871	4.75179
0.4839	7.16389
1.02917	8.57969
