Adsorption isotherm of Benzene on Silicalite MFI
DOI: 10.1021/Jp074918p
Adsorbate Benzene: InChIKey UHOVQNZJYSORNB-UHFFFAOYSA-N
Temperature: 303 K
Tabular data in the source: 0
pressure (bar)	uptake (molecules/unitcell)
5.63e-05	1.09868
0.000103	1.72792
0.000151	2.14742
0.000254	2.84658
0.000337	3.19616
0.000569	3.54574
0.000725	3.68557
0.0014362	4.00019
0.00214786	4.14002
0.00896418	4.66439
0.00971557	5.20624
0.0101146	5.73061
0.0116446	6.06271
0.019258	6.42977
0.0299834	7.42607
0.036667	7.74069
0.045752	7.86305
0.0698134	7.96792
