Adsorption isotherm of Benzene on Silicalite MFI
DOI: 10.1021/Jp074918p
Adsorbate Benzene: InChIKey UHOVQNZJYSORNB-UHFFFAOYSA-N
Temperature: 415 K
Tabular data in the source: 0
pressure (bar)	uptake (molecules/unitcell)
0.00434399	0.762518
0.0114126	1.37428
0.0181298	1.8484
0.0288006	2.42958
0.0485991	2.85781
0.0684226	3.08722
0.0871111	3.28605
