Adsorption isotherm of Propene on Zeolite BEA
DOI: 10.1021/Jp074918p
Adsorbate Propene: InChIKey QQONPFPTGQHPMA-UHFFFAOYSA-N
Temperature: 423 K
Tabular data in the source: 0
pressure (bar)	uptake (molecules/unitcell)
0.000204	0.0405726
0.00053	0.0405726
0.00104522	0.0187239
0.00191159	0.0187239
0.00497188	0.0405726
0.00956212	0.0405726
0.0203369	0.0405726
0.0490499	0.0624214
0.099202	0.0842701
0.200633	0.106119
0.47188	0.0842701
0.930656	0.149816
