Adsorption isotherm of Propene on Silicalite MFI
DOI: 10.1021/Jp074918p
Adsorbate Propene: InChIKey QQONPFPTGQHPMA-UHFFFAOYSA-N
Temperature: 373 K
Tabular data in the source: 0
pressure (bar)	uptake (mol/g)
0.00209514	0.00939217
0.00507868	0.030367
0.0100669	0.0606639
0.0195568	0.121258
0.0508655	0.268081
0.102874	0.498804
0.201873	0.82974
0.489347	1.2469
0.979781	1.47763
