Adsorption isotherm of Benzene on Silicalite MFI
DOI: 10.1021/Jp074918p
Adsorbate Benzene: InChIKey UHOVQNZJYSORNB-UHFFFAOYSA-N
Temperature: 403 K
Tabular data in the source: 0
pressure (bar)	uptake (molecules/unitcell)
1.79e-05	0.0589891
0.000101	0.0589891
0.0002	0.227224
0.001	0.39546
0.00122265	0.410754
0.00214786	0.594283
0.00400803	0.91546
0.00553048	1.19075
0.0074792	1.34369
0.00952202	1.51193
