Adsorption isotherm of Propene on Silicalite MFI
DOI: 10.1021/Jp074918p
Adsorbate Propene: InChIKey QQONPFPTGQHPMA-UHFFFAOYSA-N
Temperature: 423 K
Tabular data in the source: 0
pressure (bar)	uptake (molecules/unitcell)
0.00549817	0.119853
0.0100555	0.154811
0.020855	0.242206
0.0515806	0.469433
0.0967378	0.836492
0.200633	1.51817
0.496227	3.17868
1.0036	4.96153
