Adsorption isotherm of Benzene on Zeolite FAU
DOI: 10.1021/Jp074918p
Adsorbate Benzene: InChIKey UHOVQNZJYSORNB-UHFFFAOYSA-N
Temperature: 423 K
Tabular data in the source: 0
pressure (bar)	uptake (molecules/unitcell)
0.200633	14.7323
0.496227	29.9171
0.954363	35.4886
