Adsorption isotherm of Benzene on Mordenite
DOI: 10.1021/Jp074918p
Adsorbate Benzene: InChIKey UHOVQNZJYSORNB-UHFFFAOYSA-N
Temperature: 373 K
Tabular data in the source: 0
pressure (bar)	uptake (molecules/unitcell)
0.0515806	2.43738
0.106978	2.56847
0.205744	2.64713
0.535122	2.76511
0.954363	2.83721
