Adsorption isotherm of Propene on Zeolite FAU
DOI: 10.1021/Jp074918p
Adsorbate Propene: InChIKey QQONPFPTGQHPMA-UHFFFAOYSA-N
Temperature: 373 K
Tabular data in the source: 0
pressure (bar)	uptake (molecules/unitcell)
0.00509853	-0.0156243
0.0105743	0.0936194
0.0203369	0.202863
0.0528946	0.639838
0.101729	0.749082
0.195649	1.07681
0.496227	1.18606
0.978674	1.2953
