Adsorption isotherm of Propene on MCM22
DOI: 10.1021/Jp074918p
Adsorbate Propene: InChIKey QQONPFPTGQHPMA-UHFFFAOYSA-N
Temperature: 373 K
Tabular data in the source: 0
pressure (bar)	uptake (mol/g)
0.00201249	0.00473111
0.00502784	0.0233754
0.0104803	0.0653249
0.0195568	0.13291
0.0493531	0.298378
0.0998151	0.538423
0.197851	0.822748
0.494295	1.10474
0.989689	1.30517
