Adsorption isotherm of Propene on Silicalite MFI
DOI: 10.1021/Jp074918p
Adsorbate Propene: InChIKey QQONPFPTGQHPMA-UHFFFAOYSA-N
Temperature: 303 K
Tabular data in the source: 0
pressure (bar)	uptake (molecules/unitcell)
2.03e-05	0.0663836
0.000206	0.120084
0.000508	0.415437
0.00107152	0.657089
0.00214815	1.19409
0.00515755	2.88566
0.0202016	7.0206
0.0485026	8.90012
0.0997742	9.86673
0.200025	10.4037
0.492777	11.0213
1.01368	11.3435
