Adsorption isotherm of Benzene on Zeolite FAU
DOI: 10.1021/Jp074918p
Adsorbate Benzene: InChIKey UHOVQNZJYSORNB-UHFFFAOYSA-N
Temperature: 373 K
Tabular data in the source: 0
pressure (bar)	uptake (molecules/unitcell)
1.1e-05	0.202863
2.12e-05	0.0936194
0.000106	0.0936194
0.000517	0.0936194
0.00201022	0.312107
0.00536159	0.749082
0.0100555	1.62303
0.0213862	4.02639
0.0515806	22.4886
0.101729	33.6314
0.210985	38.1104
0.562732	42.5894
1.02917	45.102
