Adsorption isotherm of Ethane, Methane on Activated carbon: WV1050
DOI: 10.1260/026361708787548783
Article source: Table 5
Adsorbate Ethane: InChIKey OTMSDBZUPAUEDD-UHFFFAOYSA-N
Adsorbate Methane: InChIKey VNWKTOKETHGBQD-UHFFFAOYSA-N
Kind: experiment
Temperature: 303 K
Tabular data in the source: 0
pressure (bar)	Ethane fraction	Ethane uptake (mmol/g)	Methane fraction	Methane uptake (mmol/g)	total uptake (mmol/g)
34.3	0.08	2.77111	0.92	3.95489	6.726
35.77	0.049	1.93452	0.951	4.64548	6.58
34.82	0.029	1.33749	0.971	5.03151	6.369
