Adsorption isotherm of Carbon Dioxide on Activated carbon: WV1050
DOI: 10.1260/026361708787548783
Article source: Figure 2
Adsorbate Carbon Dioxide: InChIKey CURLTUGMZLYLDI-UHFFFAOYSA-N
Kind: experiment
Temperature: 303 K
Tabular data in the source: 0
pressure (bar)	uptake (mmol/g)
0.718	1.5
2.28	3.09
5.34	5.13
9.8	7.33
12.8	8.36
15.6	9.42
19.5	10.3
27	12
37.1	14.2
