Adsorption isotherm of N-propane, Methane on Activated carbon: WV1050
DOI: 10.1260/026361708787548783
Article source: Table 5
Adsorbate N-propane: InChIKey ATUOYWHBWRKTHZ-UHFFFAOYSA-N
Adsorbate Methane: InChIKey VNWKTOKETHGBQD-UHFFFAOYSA-N
Kind: experiment
Temperature: 303 K
Tabular data in the source: 0
pressure (bar)	N-propane fraction	N-propane uptake (mmol/g)	Methane fraction	Methane uptake (mmol/g)	total uptake (mmol/g)
39.23	0.044	4.09015	0.956	2.69285	6.783
37.79	0.031	3.16787	0.969	3.41813	6.586
36.5	0.012	1.97378	0.988	4.33222	6.306
