Adsorption isotherm of Methane on Activated carbon: WV1050
DOI: 10.1260/026361708787548783
Article source: Figure 2
Adsorbate Methane: InChIKey VNWKTOKETHGBQD-UHFFFAOYSA-N
Kind: experiment
Temperature: 303 K
Tabular data in the source: 0
pressure (bar)	uptake (mmol/g)
0.358	0.302
1.07	0.669
3.24	1.52
5.07	2.05
7.26	2.59
10	3.18
15.2	4.01
20.6	4.7
25.3	5.15
30	5.56
35.1	5.91
40.1	6.17
46.2	6.43
50.4	6.56
59.8	6.77
