Adsorption isotherm of Nitrogen, Methane on Activated carbon: WV1050
DOI: 10.1260/026361708787548783
Article source: Table 5
Adsorbate Nitrogen: InChIKey IJGRMHOSHXDMSA-UHFFFAOYSA-N
Adsorbate Methane: InChIKey VNWKTOKETHGBQD-UHFFFAOYSA-N
Kind: experiment
Temperature: 303 K
Tabular data in the source: 0
pressure (bar)	Nitrogen fraction	Nitrogen uptake (mmol/g)	Methane fraction	Methane uptake (mmol/g)	total uptake (mmol/g)
29.52	0.168	0.349405	0.832	4.86559	5.215
35.3	0.131	0.308286	0.869	5.40071	5.709
34.88	0.064	0.14585	0.936	5.68815	5.834
