Adsorption isotherm of N-propane on Activated carbon: WV1050
DOI: 10.1260/026361708787548783
Article source: Figure 2
Adsorbate N-propane: InChIKey ATUOYWHBWRKTHZ-UHFFFAOYSA-N
Kind: experiment
Temperature: 303 K
Tabular data in the source: 0
pressure (bar)	uptake (mmol/g)
0.105	0.773
0.184	1.48
0.212	2.28
0.265	2.75
0.42	3.48
0.523	3.82
0.703	4.53
1.01	5.4
1.19	5.76
1.34	5.97
1.55	6.28
1.73	6.54
1.93	6.79
2.14	7.05
2.34	7.26
2.57	7.49
2.83	7.76
3.11	8
3.36	8.21
3.72	8.53
3.95	8.66
4.08	8.75
4.41	9
4.61	9.12
4.94	9.28
5.2	9.48
5.73	9.73
6.09	9.88
6.4	10
