Adsorption isotherm of Carbon Dioxide, Methane on Activated carbon: WV1050
DOI: 10.1260/026361708787548783
Article source: Table 5
Adsorbate Carbon Dioxide: InChIKey CURLTUGMZLYLDI-UHFFFAOYSA-N
Adsorbate Methane: InChIKey VNWKTOKETHGBQD-UHFFFAOYSA-N
Kind: experiment
Temperature: 303 K
Tabular data in the source: 0
pressure (bar)	Carbon Dioxide fraction	Carbon Dioxide uptake (mmol/g)	Methane fraction	Methane uptake (mmol/g)	total uptake (mmol/g)
33.88	0.116	2.42452	0.884	4.54248	6.967
35.7	0.054	1.28384	0.946	5.36816	6.652
34.92	0.02	0.550616	0.98	5.70638	6.257
