Adsorption isotherm of Ethane on Activated carbon: WV1050
DOI: 10.1260/026361708787548783
Article source: Figure 2
Adsorbate Ethane: InChIKey OTMSDBZUPAUEDD-UHFFFAOYSA-N
Kind: experiment
Temperature: 303 K
Tabular data in the source: 0
pressure (bar)	uptake (mmol/g)
0.49	1.73
1.05	2.71
1.56	3.41
2.02	3.93
2.99	4.8
4.96	5.98
7.53	6.98
10.6	7.89
12.7	8.34
15.1	8.86
17.4	9.31
20	9.66
22.4	9.85
25	10.1
27.5	10.3
29.9	10.4
32.2	10.4
