Adsorption isotherm of Nitrogen on Activated carbon: WV1050
DOI: 10.1260/026361708787548783
Article source: Figure 2
Adsorbate Nitrogen: InChIKey IJGRMHOSHXDMSA-UHFFFAOYSA-N
Kind: experiment
Temperature: 303 K
Tabular data in the source: 0
pressure (bar)	uptake (mmol/g)
0.612	0.0946
1.22	0.208
1.86	0.321
2.83	0.472
5.07	0.784
6.19	0.916
9.52	1.32
11.3	1.51
14.8	1.82
15.3	1.89
20.2	2.29
21	2.34
26.2	2.7
34.4	3.21
