Adsorption isotherm of Hydrogen on Pt/IRMOF-8 Pt WT % 7.7
DOI: 10.1021/Jp111800c
Adsorbate Hydrogen: InChIKey UFHFLCQGNIYNRP-UHFFFAOYSA-N
Temperature: 298 K
Tabular data in the source: 0
pressure (bar)	uptake (wt%)
20.0368	0.152969
40.0735	0.258909
62.1324	0.37965
80.3309	0.441081
90.8088	0.460624
