Adsorption isotherm of Hydrogen on IRMOF-8
DOI: 10.1021/Jp111800c
Adsorbate Hydrogen: InChIKey UFHFLCQGNIYNRP-UHFFFAOYSA-N
Temperature: 298 K
Tabular data in the source: 0
pressure (bar)	uptake (wt%)
19.6691	0.133177
40.2574	0.236627
62.6838	0.335082
77.5735	0.384218
89.3382	0.416105
