Adsorption isotherm of Nitrogen on IRMOF-8
DOI: 10.1021/Jp111800c
Adsorbate Nitrogen: InChIKey IJGRMHOSHXDMSA-UHFFFAOYSA-N
Temperature: 77 K
Tabular data in the source: 0
pressure (bar)	uptake (cm3(STP)/g)
0.00196062	309.722
0.00392125	331.944
0.0117637	347.222
0.0294093	363.889
0.0529368	373.611
0.0803855	381.944
0.113716	388.889
0.139204	393.056
0.15881	395.833
0.174495	394.444
0.192141	395.833
0.21959	400
0.239196	401.389
0.270566	402.778
0.290172	405.556
0.323503	406.944
0.343109	408.333
0.40977	411.111
0.429376	412.5
0.458786	413.889
0.478392	413.889
0.507801	416.667
0.527408	416.667
0.558778	418.056
0.578384	418.056
0.607793	420.833
0.627399	420.833
0.658769	422.222
0.678376	422.222
0.707785	423.611
0.727391	423.611
0.758761	425
0.778367	425
0.809737	426.389
0.829344	426.389
0.858753	427.778
0.878359	429.167
0.907768	430.556
0.927375	431.944
0.946981	433.333
0.970508	437.5
0.990115	445.833
