Adsorption isotherm of Nitrogen on Pt/IRMOF-8 Pt WT % 7.7
DOI: 10.1021/Jp111800c
Adsorbate Nitrogen: InChIKey IJGRMHOSHXDMSA-UHFFFAOYSA-N
Temperature: 77 K
Tabular data in the source: 0
pressure (bar)	uptake (cm3(STP)/g)
0.0137244	248.611
0.0294093	261.111
0.0490156	268.056
0.0803855	273.611
0.12744	280.556
0.15881	284.722
0.172535	284.722
0.192141	287.5
0.215669	290.278
0.235275	293.056
0.319582	298.611
0.339188	300
0.415652	304.167
0.435258	305.556
0.515644	311.111
0.53525	312.5
0.617596	313.889
0.637202	315.278
0.717588	318.056
0.737194	318.056
0.81954	323.611
0.839147	323.611
0.868556	325
0.907768	329.167
0.939138	336.111
0.966587	343.056
1.0058	358.333
