Adsorption isotherm of Hydrogen on Pt/IRMOF-8 Pt WT % 4.8
DOI: 10.1021/Jp111800c
Adsorbate Hydrogen: InChIKey UFHFLCQGNIYNRP-UHFFFAOYSA-N
Temperature: 298 K
Tabular data in the source: 0
pressure (bar)	uptake (wt%)
20.7721	0.239585
40.625	0.427212
62.3162	0.617269
77.7574	0.723323
89.1544	0.797298
96.875	0.82681
