Adsorption isotherm of Nitrogen on Pt/IRMOF-8 Pt WT % 4.8
DOI: 10.1021/Jp111800c
Adsorbate Nitrogen: InChIKey IJGRMHOSHXDMSA-UHFFFAOYSA-N
Temperature: 77 K
Tabular data in the source: 0
pressure (bar)	uptake (cm3(STP)/g)
0.00196062	261.111
0.00784249	279.167
0.0254881	297.222
0.047055	304.167
0.0725431	312.5
0.0960705	315.278
0.123519	319.444
0.143125	320.833
0.152929	320.833
0.172535	322.222
0.192141	325
0.215669	326.389
0.235275	329.167
0.266645	330.556
0.286251	331.944
0.319582	333.333
0.339188	334.722
0.370558	336.111
0.390164	337.5
0.413691	340.278
0.433298	340.278
0.462707	340.278
0.480353	343.056
0.497998	340.278
0.513683	344.444
0.533289	345.833
0.562699	347.222
0.582305	347.222
0.613675	348.611
0.633281	350
0.664651	351.389
0.684257	351.389
0.715627	352.778
0.735234	354.167
0.764643	355.556
0.784249	355.556
0.813659	354.167
0.831304	356.944
0.864635	359.722
0.884241	359.722
0.91365	361.111
0.933257	362.5
0.952863	365.278
0.978351	368.056
0.997957	379.167
