Adsorption isotherm of Hydrogen on Pt/IRMOF-8 Pt WT % 6.2
DOI: 10.1021/Jp111800c
Adsorbate Hydrogen: InChIKey UFHFLCQGNIYNRP-UHFFFAOYSA-N
Temperature: 298 K
Tabular data in the source: 0
pressure (bar)	uptake (wt%)
20.4044	0.165337
40.625	0.313351
61.5809	0.466298
76.6544	0.564934
86.9485	0.606759
94.4853	0.631325
