Adsorption isotherm of Nitrogen on Pt/IRMOF-8 Pt WT % 6.2
DOI: 10.1021/Jp111800c
Adsorbate Nitrogen: InChIKey IJGRMHOSHXDMSA-UHFFFAOYSA-N
Temperature: 77 K
Tabular data in the source: 0
pressure (bar)	uptake (cm3(STP)/g)
0.00784249	251.389
0.0196062	273.611
0.0548974	286.111
0.0784249	291.667
0.103913	293.056
0.150968	300
0.199984	302.778
0.260763	306.944
0.299975	309.722
0.317621	308.333
0.337227	309.722
0.366637	311.111
0.398006	312.5
0.415652	311.111
0.435258	311.111
0.460746	315.278
0.50388	315.278
0.550935	315.278
0.637202	316.667
0.75484	320.833
0.825422	323.611
0.896005	326.389
0.950902	338.889
0.982272	345.833
1.0058	359.722
