Adsorption isotherm of Methane on Gas Coal
DOI: 10.1007/s10450-019-00028-2
Article source: Figure 5b
Adsorbate Methane: InChIKey VNWKTOKETHGBQD-UHFFFAOYSA-N
Kind: experiment
Temperature: 323 K
Tabular data in the source: 0
pressure (bar)	uptake (mmol/g)
0	0.002618
1.30435	0.054974
3.15217	0.112565
5.54348	0.170157
8.69565	0.222513
11.5217	0.26178
15.5435	0.306283
19.8913	0.34555
24.5652	0.384817
29.0217	0.41623
33.587	0.442408
