Adsorption isotherm of Methane on Gas Coal
DOI: 10.1007/s10450-019-00028-2
Article source: Figure 5b
Adsorbate Methane: InChIKey VNWKTOKETHGBQD-UHFFFAOYSA-N
Kind: experiment
Temperature: 313 K
Tabular data in the source: 0
pressure (bar)	uptake (mmol/g)
0	0.002618
0.978261	0.052356
2.71739	0.112565
5.54348	0.183246
8.36957	0.240838
11.5217	0.287958
15.4348	0.335079
19.6739	0.379581
24.2391	0.418848
28.6957	0.45288
33.2609	0.489529
