Adsorption isotherm of Methane on Anthracite
DOI: 10.1007/s10450-019-00028-2
Article source: Figure 5a
Adsorbate Methane: InChIKey VNWKTOKETHGBQD-UHFFFAOYSA-N
Kind: experiment
Temperature: 313 K
Tabular data in the source: 0
pressure (bar)	uptake (mmol/g)
0.107527	0
0.967742	0.197605
1.93548	0.347305
3.65591	0.508982
5.5914	0.640719
7.63441	0.742515
9.56989	0.814371
12.3656	0.91018
15.0538	0.976048
19.5699	1.06587
24.086	1.13174
28.7097	1.18563
33.2258	1.23353
