Adsorption isotherm of Methane on Anthracite
DOI: 10.1007/s10450-019-00028-2
Article source: Figure 5a
Adsorbate Methane: InChIKey VNWKTOKETHGBQD-UHFFFAOYSA-N
Kind: experiment
Temperature: 303 K
Tabular data in the source: 0
pressure (bar)	uptake (mmol/g)
0.107527	0.005988
1.07527	0.269461
2.15054	0.419162
3.54839	0.57485
5.48387	0.706587
7.74193	0.826347
9.46237	0.898204
12.1505	0.988024
15.0538	1.05389
20	1.14371
24.086	1.20359
28.3871	1.2515
32.5806	1.28743
