Adsorption isotherm of Methane on Lignite
DOI: 10.1007/s10450-019-00028-2
Article source: Figure 5c
Adsorbate Methane: InChIKey VNWKTOKETHGBQD-UHFFFAOYSA-N
Kind: experiment
Temperature: 313 K
Tabular data in the source: 0
pressure (bar)	uptake (mmol/g)
0	0
1.08696	0.037453
2.6087	0.074906
5.76087	0.134831
8.47826	0.179775
11.5217	0.21161
15	0.250936
19.7826	0.292135
24.3478	0.327715
28.6957	0.357678
33.1522	0.38015
