Adsorption isotherm of Methane on Lignite
DOI: 10.1007/s10450-019-00028-2
Article source: Figure 5c
Adsorbate Methane: InChIKey VNWKTOKETHGBQD-UHFFFAOYSA-N
Kind: experiment
Temperature: 303 K
Tabular data in the source: 0
pressure (bar)	uptake (mmol/g)
0	0
0.978261	0.043071
2.71739	0.088015
5.65217	0.146067
8.47826	0.192884
11.413	0.230337
15.1087	0.271536
19.5652	0.318352
24.0217	0.353933
28.587	0.389513
33.1522	0.41573
