Adsorption isotherm of Methane on Anthracite
DOI: 10.1007/s10450-019-00028-2
Article source: Figure 5a
Adsorbate Methane: InChIKey VNWKTOKETHGBQD-UHFFFAOYSA-N
Kind: experiment
Temperature: 323 K
Tabular data in the source: 0
pressure (bar)	uptake (mmol/g)
0.107527	0.005988
1.07527	0.173653
1.93548	0.287425
3.54839	0.431138
5.69893	0.568862
7.74193	0.658683
9.89247	0.742515
12.1505	0.820359
15.1613	0.898204
19.6774	1
23.9785	1.07186
28.7097	1.13174
33.3333	1.17964
