Adsorption isotherm of Carbon Dioxide on ZIF-8
DOI: 10.1021/ie400380w
Adsorbate Carbon Dioxide: InChIKey CURLTUGMZLYLDI-UHFFFAOYSA-N
Temperature: 273 K
Tabular data in the source: 0
pressure (bar)	uptake (mmol/g)
0.0390938	0.0352722
0.111394	0.136681
0.185009	0.254991
0.266512	0.367667
0.371676	0.514145
0.454493	0.638089
0.541253	0.778934
0.646418	0.942315
0.72792	1.07753
0.801535	1.19584
0.88961	1.33668
0.960596	1.47189
1.03158	1.58457
1.11571	1.72541
1.2051	1.90006
