Adsorption isotherm of Carbon Dioxide on Carbon
DOI: 10.1021/ie400380w
Adsorbate Carbon Dioxide: InChIKey CURLTUGMZLYLDI-UHFFFAOYSA-N
Temperature: 273 K
Tabular data in the source: 0
pressure (bar)	uptake (mmol/g)
0.0062299	0.0578075
0.0417229	0.316962
0.082474	0.547948
0.162662	0.908512
0.246793	1.23527
0.348014	1.5395
0.438718	1.78738
0.52285	2.0071
0.60961	2.22119
0.705573	2.45781
0.810737	2.68879
0.908014	2.88598
1.0329	3.11696
1.14726	3.32541
