Adsorption isotherm of Nitrogen on Zeolite 13A
DOI: 10.1021/ie400380w
Adsorbate Nitrogen: InChIKey IJGRMHOSHXDMSA-UHFFFAOYSA-N
Temperature: 77 K
Tabular data in the source: 0
pressure (bar)	uptake (mmol/g)
0.00372489	2.98459
0.0108756	4.33608
0.0466292	4.93674
0.15246	5.03685
0.25257	5.18701
0.35268	5.23707
0.45279	5.38723
0.55433	5.43729
0.65444	5.63751
0.75455	5.73762
0.85609	6.088
0.903285	6.38833
0.927597	6.68866
0.95477	7.5396
0.966211	8.14026
0.974792	8.89108
0.984803	10.1425
