Adsorption isotherm of Nitrogen on Carbon
DOI: 10.1021/ie400380w
Adsorbate Nitrogen: InChIKey IJGRMHOSHXDMSA-UHFFFAOYSA-N
Temperature: 77 K
Tabular data in the source: 0
pressure (bar)	uptake (mmol/g)
0.00372489	2.43399
0.00372489	7.33938
0.00944547	10.5429
0.0194565	11.8443
0.0523498	13.5462
0.0995445	14.8977
0.15532	16.0489
0.249709	17.4004
0.348389	18.6018
0.497124	20.2035
0.604385	21.5049
0.701635	22.9565
0.804605	25.4092
0.85609	27.2613
0.904715	29.4637
0.9562	31.3157
0.986233	32.3669
