Adsorption isotherm of Nitrogen on Zeolite 13X
DOI: 10.1021/ie400380w
Adsorbate Nitrogen: InChIKey IJGRMHOSHXDMSA-UHFFFAOYSA-N
Temperature: 77 K
Tabular data in the source: 0
pressure (bar)	uptake (mmol/g)
0.00372489	5.38723
0.00658518	6.33828
0.025177	6.73872
0.0523498	7.03905
0.105265	7.18921
0.201085	7.13916
0.304055	7.23927
0.402735	7.33938
0.499985	7.43949
0.601525	7.5396
0.75312	7.78987
0.85323	8.04015
0.901855	8.29042
0.95334	9.0913
0.964781	9.5418
0.987663	10.8933
