Adsorption isotherm of Nitrogen on ZIF-8
DOI: 10.1021/ie400380w
Adsorbate Nitrogen: InChIKey IJGRMHOSHXDMSA-UHFFFAOYSA-N
Temperature: 77 K
Tabular data in the source: 0
pressure (bar)	uptake (mmol/g)
0.00372489	11.1936
0.00801532	13.7464
0.0123058	15.7987
0.0223168	18.5517
0.0537799	19.0022
0.0966842	19.0522
0.15389	19.1524
0.25257	19.3025
0.34982	19.4026
0.45279	19.6029
0.5529	19.6029
0.65444	19.703
0.75312	19.8531
0.85323	20.0033
0.903285	20.1535
0.95048	20.5038
0.967641	20.654
0.979082	21.0044
0.990524	22.2558
