Adsorption isotherm of Nitrogen on Zr-PILC
DOI: 10.1021/ie400380w
Adsorbate Nitrogen: InChIKey IJGRMHOSHXDMSA-UHFFFAOYSA-N
Temperature: 77 K
Tabular data in the source: 0
pressure (bar)	uptake (mmol/g)
0.00515504	0.331675
0.0108756	2.38393
0.0523498	3.03465
0.0966842	3.33498
0.149599	3.38503
0.249709	3.43509
0.35268	3.48514
0.45422	3.68536
0.55433	3.73542
0.65015	3.88558
0.75312	4.03575
0.85466	4.28602
0.927597	4.33608
0.9562	4.48624
0.984803	4.98679
