Adsorption isotherm of Nitrogen on Zeolite 5A
DOI: 10.1021/ie400380w
Adsorbate Nitrogen: InChIKey IJGRMHOSHXDMSA-UHFFFAOYSA-N
Temperature: 77 K
Tabular data in the source: 0
pressure (bar)	uptake (mmol/g)
0.00658518	5.83773
0.0223168	6.28822
0.05521	6.48844
0.102405	6.63861
0.15389	6.73872
0.202515	6.78877
0.301195	6.98899
0.404165	7.0891
0.499985	7.13916
0.604385	7.28932
0.701635	7.43949
0.801745	7.5396
0.903285	7.83993
0.95048	8.04015
0.979082	8.49064
0.989093	8.79097
