Adsorption isotherm of Carbon Dioxide on Zeolite 13A
DOI: 10.1021/ie400380w
Adsorbate Carbon Dioxide: InChIKey CURLTUGMZLYLDI-UHFFFAOYSA-N
Temperature: 273 K
Tabular data in the source: 0
pressure (bar)	uptake (mmol/g)
0.00754446	1.64091
0.0180609	2.04091
0.0285773	2.4071
0.0456665	2.71696
0.0627557	2.98175
0.0903614	3.22964
0.131113	3.47753
0.191582	3.67471
0.252052	3.83809
0.341441	4.00147
0.417685	4.10851
0.533366	4.23809
0.630643	4.31133
0.729235	4.38457
0.829141	4.45217
0.926418	4.50288
1.03421	4.56485
1.20642	4.64372
