Adsorption isotherm of Carbon Dioxide on Zr-PILC
DOI: 10.1021/ie400380w
Adsorbate Carbon Dioxide: InChIKey CURLTUGMZLYLDI-UHFFFAOYSA-N
Temperature: 273 K
Tabular data in the source: 0
pressure (bar)	uptake (mmol/g)
0.00754446	0.0240046
0.0548684	0.119779
0.12454	0.20992
0.2113	0.311329
0.287544	0.378934
0.359845	0.440906
0.43346	0.497244
0.538624	0.559216
0.633272	0.621188
0.754211	0.688793
0.827826	0.72823
0.919845	0.784568
1.02895	0.84654
1.15384	0.931047
