Adsorption isotherm of Nitrogen on MIL-53(Al)
DOI: 10.1021/ie400380w
Adsorbate Nitrogen: InChIKey IJGRMHOSHXDMSA-UHFFFAOYSA-N
Temperature: 77 K
Tabular data in the source: 0
pressure (bar)	uptake (mmol/g)
0.00658518	3.58525
0.0123058	4.28602
0.0480593	4.78657
0.100975	5.0869
0.148169	5.33718
0.254	5.88778
0.35268	6.13806
0.45279	6.73872
0.55147	6.98899
0.65444	7.28932
0.748829	7.88998
0.804605	8.39053
0.85466	8.99119
0.901855	10.3427
0.931888	11.7442
0.95334	14.7976
0.967641	19.4527
0.976222	24.5082
0.989093	30.0643
