Adsorption isotherm of Carbon Dioxide on Zeolite 13X
DOI: 10.1021/ie400380w
Adsorbate Carbon Dioxide: InChIKey CURLTUGMZLYLDI-UHFFFAOYSA-N
Temperature: 273 K
Tabular data in the source: 0
pressure (bar)	uptake (mmol/g)
0.0036008	0.0916103
0.00885901	1.48316
0.0101736	1.9395
0.0180609	2.3733
0.0272628	2.74513
0.0496102	3.26344
0.0811595	3.69724
0.115338	3.9395
0.169235	4.21555
0.237591	4.4071
0.311206	4.58175
0.412427	4.73386
0.52285	4.85217
0.633272	4.94795
0.745009	5.03809
0.83177	5.10569
0.919845	5.1564
1.00398	5.17893
1.14726	5.25781
