Adsorption isotherm of Carbon Dioxide on Zeolite 5A
DOI: 10.1021/ie400380w
Adsorbate Carbon Dioxide: InChIKey CURLTUGMZLYLDI-UHFFFAOYSA-N
Temperature: 273 K
Tabular data in the source: 0
pressure (bar)	uptake (mmol/g)
0.00754446	1.56203
0.00885901	2.21555
0.0114881	2.63246
0.0220046	2.94231
0.0430374	3.23527
0.0837886	3.47753
0.128483	3.64654
0.194211	3.78175
0.294117	3.90006
0.386136	3.98457
0.4913	4.04654
0.625385	4.12541
0.762098	4.18739
0.879094	4.23246
1.02501	4.27753
1.20247	4.32823
