Adsorption isotherm of Carbon Dioxide on MIL-53(Al)
DOI: 10.1021/ie400380w
Adsorbate Carbon Dioxide: InChIKey CURLTUGMZLYLDI-UHFFFAOYSA-N
Temperature: 273 K
Tabular data in the source: 0
pressure (bar)	uptake (mmol/g)
0.00754446	0.147948
0.0509247	0.429638
0.107451	0.7733
0.16792	1.11696
0.223131	1.40992
0.292803	1.77612
0.37299	2.20429
0.434775	2.55358
0.516277	2.93105
0.606981	3.30288
0.696371	3.63527
0.81731	4.03527
0.926418	4.32823
1.00398	4.55358
1.09205	4.74513
1.20642	5.00429
