Adsorption isotherm of Nitrogen on Al-PILC
DOI: 10.1021/ie400380w
Adsorbate Nitrogen: InChIKey IJGRMHOSHXDMSA-UHFFFAOYSA-N
Temperature: 77 K
Tabular data in the source: 0
pressure (bar)	uptake (mmol/g)
0.000865	0.28162
0.0137359	1.78327
0.0509196	2.13366
0.125287	2.03355
0.206805	2.18371
0.302625	2.33388
0.402735	2.33388
0.501415	2.43399
0.600095	2.43399
0.700205	2.5341
0.803175	2.73432
0.906145	2.78437
0.949049	3.03465
0.986233	3.18481
