Adsorption isotherm of Carbon Dioxide on Al-PILC
DOI: 10.1021/ie400380w
Adsorbate Carbon Dioxide: InChIKey CURLTUGMZLYLDI-UHFFFAOYSA-N
Temperature: 273 K
Tabular data in the source: 0
pressure (bar)	uptake (mmol/g)
0.0259482	0.0690751
0.094305	0.226822
0.246793	0.429638
0.379563	0.553582
0.521535	0.638089
0.601723	0.705695
0.734493	0.795836
0.855432	0.857807
0.967169	0.931047
1.08548	0.981751
1.20379	1.05499
