Adsorption isotherm of Nitrogen on Cu-TDPAT
DOI: 10.1002/anie.201105966
Adsorbate Nitrogen: InChIKey IJGRMHOSHXDMSA-UHFFFAOYSA-N
Temperature: 298 K
Tabular data in the source: 0
pressure (bar)	uptake (cm3(STP)/g)
0.0988701	0.5
0.132768	1
0.166667	0.5
0.20904	2
0.262712	2
0.330508	3
0.412429	3.5
0.519774	4.5
0.581921	5
0.655367	5.5
0.731638	6.5
0.822034	7
0.920904	8
1.02825	9
