Adsorption isotherm of Carbon Dioxide on PCN-68
DOI: 10.1002/anie.201105966
Adsorbate Carbon Dioxide: InChIKey CURLTUGMZLYLDI-UHFFFAOYSA-N
Temperature: 298 K
Tabular data in the source: 0
pressure (bar)	uptake (mmol/g)
0.000993382	0
0.0144027	0.00874317
0.0283087	0.0174863
0.0374954	0.0306011
0.0509047	0.0393443
0.0640657	0.0480874
0.0747432	0.0568306
0.0886492	0.0655738
0.0993267	0.0743169
