Adsorption isotherm of Carbon Dioxide on Cu-TDPAT
DOI: 10.1002/anie.201105966
Adsorbate Carbon Dioxide: InChIKey CURLTUGMZLYLDI-UHFFFAOYSA-N
Temperature: 298 K
Tabular data in the source: 0
pressure (bar)	uptake (cm3(STP)/g)
0.00932401	9.38411
0.025641	16.5894
0.044289	21.6227
0.0652681	25.2068
0.0815851	28.0748
0.0979021	31.6657
0.125874	34.5168
0.158508	39.5299
0.200466	45.2523
0.251748	49.5155
0.314685	59.545
0.398601	68.8213
0.501166	80.9622
0.564103	87.3772
0.631702	95.2313
0.706294	103.798
0.797203	112.341
0.892774	120.878
0.995338	130.127
