Adsorption isotherm of Methane on Cu-TDPAT
DOI: 10.1002/anie.201105966
Adsorbate Methane: InChIKey VNWKTOKETHGBQD-UHFFFAOYSA-N
Temperature: 298 K
Tabular data in the source: 0
pressure (bar)	uptake (wt%)
2.77305	2.8705
3.95611	4.38129
6.14926	5.89209
7.9471	6.94964
11.1431	8.83813
15.961	10.4245
20.3822	11.6331
25.4124	12.6906
30.2449	13.5216
35.2823	14.2014
40.3241	14.6547
45.3659	15.1079
50.2086	15.4101
55.4553	15.7122
60.5	16.0144
65.5461	16.241
70.3931	16.3165
75.6428	16.4676
80.282	16.8453
