Adsorption isotherm of Carbon Dioxide on Cu-TDPAT
DOI: 10.1002/anie.201105966
Adsorbate Carbon Dioxide: InChIKey CURLTUGMZLYLDI-UHFFFAOYSA-N
Temperature: 288 K
Tabular data in the source: 0
pressure (bar)	uptake (cm3(STP)/g)
0.004662	7.94507
0.013986	15.8834
0.027972	23.815
0.04662	29.5712
0.0582751	33.8917
0.0792541	35.3071
0.100233	41.0599
0.125874	45.3602
0.156177	52.5453
0.198135	60.4364
0.249417	69.037
0.317016	82.6742
0.39627	95.5717
0.501166	112.769
0.564103	122.799
0.631702	131.376
0.710956	142.828
0.794872	152.827
0.890443	165.701
0.995338	176.392
