Adsorption isotherm of Carbon Dioxide on PCN-66
DOI: 10.1002/anie.201105966
Adsorbate Carbon Dioxide: InChIKey CURLTUGMZLYLDI-UHFFFAOYSA-N
Temperature: 298 K
Tabular data in the source: 0
pressure (bar)	uptake (mmol/g)
0.00521458	0.00437158
0.0144013	0.0174863
0.0273133	0.0306011
0.0379887	0.052459
0.051149	0.0655738
0.0638119	0.0830601
0.0744881	0.100546
0.087647	0.122404
0.0995649	0.139891
