Adsorption isotherm of Carbon monoxide on Cu-TDPAT
DOI: 10.1002/anie.201105966
Adsorbate Carbon monoxide: InChIKey UGFAIRIUMAVXCW-UHFFFAOYSA-N
Temperature: 298 K
Tabular data in the source: 0
pressure (bar)	uptake (cm3(STP)/g)
0.0254237	1.5
0.039548	2.5
0.0508475	3.5
0.0621469	4
0.0875706	4.5
0.10452	5
0.132768	5.5
0.166667	6.5
0.20904	7.5
0.262712	9.5
0.327684	11
0.412429	13.5
0.519774	16
0.579096	18
0.649718	19.5
0.731638	21.5
0.819209	23.5
0.920904	25.5
1.02825	27.5
