Adsorption isotherm of Methane on Cu-TDPAT
DOI: 10.1002/anie.201105966
Adsorbate Methane: InChIKey VNWKTOKETHGBQD-UHFFFAOYSA-N
Temperature: 273 K
Tabular data in the source: 0
pressure (bar)	uptake (volume/volume)
1.2963	30.5019
2.40741	53.1621
4.25926	72.346
5.92593	90.6569
7.59259	107.226
10.9259	129.039
15.5556	147.382
20.3704	159.629
25.1852	171.877
30.7407	180.648
35.5556	186.798
40.3704	192.077
45.1852	196.485
50.3704	201.768
55.5556	203.567
60.1852	206.23
65.3704	208.9
70.5556	210.699
75.3704	212.493
80.3704	214.29
