Adsorption isotherm of Hydrogen on Cu-TDPAT
DOI: 10.1002/anie.201105966
Adsorbate Hydrogen: InChIKey UFHFLCQGNIYNRP-UHFFFAOYSA-N
Temperature: 87 K
Tabular data in the source: 0
pressure (bar)	uptake (wt%)
0.00967742	0.0742049
0.0193548	0.190813
0.0419355	0.318021
0.0612903	0.434629
0.083871	0.519435
0.106452	0.60424
0.125806	0.667845
0.158065	0.75265
0.219355	0.90106
0.254839	0.975265
0.348387	1.14488
0.409677	1.24028
0.474194	1.34629
0.554839	1.4311
0.645161	1.5477
0.748387	1.66431
0.883871	1.78092
0.970968	1.85512
1.02903	1.88693
1.12258	1.96113
1.2	2.01413
