Adsorption isotherm of Carbon Dioxide on PCN-61
DOI: 10.1002/anie.201105966
Adsorbate Carbon Dioxide: InChIKey CURLTUGMZLYLDI-UHFFFAOYSA-N
Temperature: 298 K
Tabular data in the source: 0
pressure (bar)	uptake (mmol/g)
0.00123969	0.0131148
0.0146449	0.0480874
0.0265587	0.0918033
0.0377275	0.135519
0.0426917	0.153005
0.0511307	0.183607
0.0625478	0.227322
0.0749576	0.27541
0.0883608	0.323497
0.0997786	0.362842
