Adsorption isotherm of Carbon Dioxide on Cu-TDPAT
DOI: 10.1002/anie.201105966
Adsorbate Carbon Dioxide: InChIKey CURLTUGMZLYLDI-UHFFFAOYSA-N
Temperature: 298 K
Tabular data in the source: 0
pressure (bar)	uptake (mmol/g)
0.37594	1.42446
2.25564	6.86331
7.64411	11.7194
15.4135	14.3094
23.183	15.2806
27.6942	15.7338
30.9524	15.9928
34.7118	16.3813
39.4737	16.7698
44.7368	17.4173
48.1203	17.9353
