Adsorption isotherm of Carbon Dioxide on Cu-TDPAT
DOI: 10.1002/anie.201105966
Adsorbate Carbon Dioxide: InChIKey CURLTUGMZLYLDI-UHFFFAOYSA-N
Temperature: 273 K
Tabular data in the source: 0
pressure (bar)	uptake (cm3(STP)/g)
0.004662	15.174
0.016317	22.386
0.027972	28.8752
0.0512821	35.3475
0.0652681	41.1105
0.0792541	46.8734
0.102564	52.6228
0.125874	61.2638
0.158508	71.3371
0.200466	84.2885
0.249417	98.6755
0.312354	115.934
0.400932	135.324
0.503497	156.862
0.566434	169.061
0.634033	179.806
0.708625	191.988
0.794872	201.983
0.890443	214.134
0.995338	226.272
