Adsorption isotherm of Hydrogen on Cu-TDPAT
DOI: 10.1002/anie.201105966
Adsorbate Hydrogen: InChIKey UFHFLCQGNIYNRP-UHFFFAOYSA-N
Temperature: 77 K
Tabular data in the source: 0
pressure (bar)	uptake (wt%)
1.80879	2.47653
3.43669	3.03249
5.60724	3.41155
9.04393	3.86643
13.0233	4.06859
17.7261	4.29603
22.4289	4.44765
27.3127	4.57401
32.3773	4.67509
37.0801	4.70036
42.1447	4.80144
47.3902	4.82671
52.093	4.85199
57.5194	4.87726
62.4031	4.80144
67.1059	4.82671
