Adsorption isotherm of Methane on Cu-TDPAT
DOI: 10.1002/anie.201105966
Adsorbate Methane: InChIKey VNWKTOKETHGBQD-UHFFFAOYSA-N
Temperature: 298 K
Tabular data in the source: 0
pressure (bar)	uptake (cm3(STP)/g)
0.059322	2
0.0875706	2.5
0.107345	3
0.132768	4
0.166667	5
0.20904	5.5
0.257062	7
0.327684	9
0.415254	10.5
0.519774	13.5
0.581921	15
0.655367	17
0.731638	18.5
0.819209	20.5
0.920904	22.5
1.03107	25
