Adsorption isotherm of Hydrogen on Cu-TDPAT
DOI: 10.1002/anie.201105966
Adsorbate Hydrogen: InChIKey UFHFLCQGNIYNRP-UHFFFAOYSA-N
Temperature: 298 K
Tabular data in the source: 0
pressure (bar)	uptake (mmol/g)
0.878049	0.00671141
4.68293	0.0604027
10.3902	0.127517
20.1951	0.238255
31.7561	0.352349
42.1463	0.446309
51.6585	0.533557
61.0244	0.614094
