Adsorption isotherm of Oxygen on Cu-TDPAT
DOI: 10.1002/anie.201105966
Adsorbate Oxygen: InChIKey MYMOFIZGZYHOMD-UHFFFAOYSA-N
Temperature: 298 K
Tabular data in the source: 0
pressure (bar)	uptake (cm3(STP)/g)
0.059322	0.5
0.101695	1
0.135593	1
0.169492	1
0.211864	2
0.265537	2
0.330508	2.5
0.412429	2.5
0.522599	3.5
0.584746	4
0.652542	4.5
0.731638	5.5
0.822034	6
0.920904	6.5
1.03107	7
