Adsorption isotherm of Nitrogen on Cu-TDPAT
DOI: 10.1002/anie.201105966
Adsorbate Nitrogen: InChIKey IJGRMHOSHXDMSA-UHFFFAOYSA-N
Temperature: 77 K
Tabular data in the source: 0
pressure (bar)	uptake (cm3(STP)/g)
0.000819829	209.615
0.00134632	344.231
0.00163966	419.231
0.00244444	25
0.00282051	121.154
0.00652855	469.231
0.00895043	488.462
0.0113648	505.769
0.0303111	550
0.0867289	575
0.107871	580.769
0.129006	584.615
0.152481	586.538
0.178302	588.462
0.199429	590.385
0.244016	590.385
0.297997	592.308
0.342598	596.154
0.391878	596.154
0.441166	598.077
0.488099	598.077
0.535032	598.077
0.584312	598.077
0.633592	598.077
0.701646	598.077
0.748579	598.077
0.800213	600
0.844792	598.077
0.896419	598.077
0.938652	596.154
0.97152	600
