Adsorption isotherm of Carbon Dioxide on NU-100
DOI: 10.1002/anie.201105966
Adsorbate Carbon Dioxide: InChIKey CURLTUGMZLYLDI-UHFFFAOYSA-N
Temperature: 298 K
Tabular data in the source: 0
pressure (bar)	uptake (mmol/g)
0.00545817	0.0349727
0.0124098	0.0480874
0.0181197	0.0612022
0.0307806	0.0918033
0.0372342	0.113661
0.0434394	0.135519
0.0498937	0.153005
0.0585817	0.179235
0.0665261	0.196721
0.073228	0.218579
0.081916	0.244809
0.0908511	0.279781
