Adsorption isotherm of Hydrogen on Cu-TDPAT
DOI: 10.1002/anie.201105966
Adsorbate Hydrogen: InChIKey UFHFLCQGNIYNRP-UHFFFAOYSA-N
Temperature: 77 K
Tabular data in the source: 0
pressure (bar)	uptake (wt%)
0.361757	0.361757
0.542636	0.833935
0.904393	1.59206
1.98966	2.45126
3.43669	3.13357
5.78811	3.58845
8.86305	4.06859
12.8424	4.47292
17.907	4.82671
22.2481	5.10469
27.3127	5.38267
32.3773	5.61011
37.4419	5.787
42.1447	6.06498
47.2093	6.21661
52.2739	6.3935
57.3385	6.51986
62.2222	6.62094
67.2868	6.77256
