Adsorption isotherm of Methane on Cu-TDPAT
DOI: 10.1002/anie.201105966
Adsorbate Methane: InChIKey VNWKTOKETHGBQD-UHFFFAOYSA-N
Temperature: 273 K
Tabular data in the source: 0
pressure (bar)	uptake (volume/volume)
0.925926	30.4979
1.2963	37.4706
2.40741	54.9043
4.07407	75.8283
5.55556	95.0082
7.59259	112.452
10.9259	136.007
15.3704	158.704
20.3704	174.438
25	189.297
30.5556	202.423
35.3704	213.8
40.1852	223.434
45.3704	231.33
50.5556	238.355
55.1852	246.245
60.5556	253.273
65.3704	259.423
70.3704	266.446
75.3704	272.598
80.1852	277.877
