Adsorption isotherm of Carbon Dioxide on Cu-TPBTM
DOI: 10.1002/anie.201105966
Adsorbate Carbon Dioxide: InChIKey CURLTUGMZLYLDI-UHFFFAOYSA-N
Temperature: 298 K
Tabular data in the source: 0
pressure (bar)	uptake (mmol/g)
0.00248074	0.0174863
0.0138965	0.0699454
0.0332471	0.201093
0.0496223	0.301639
0.0734404	0.450273
0.101723	0.63388
