Adsorption isotherm of Methane on Cu-TDPAT
DOI: 10.1002/anie.201105966
Adsorbate Methane: InChIKey VNWKTOKETHGBQD-UHFFFAOYSA-N
Temperature: 298 K
Tabular data in the source: 0
pressure (bar)	uptake (wt%)
0.792094	0.830935
1.1816	1.58633
2.56958	2.94604
4.35579	4.60791
5.94288	6.11871
7.93547	7.55396
11.3335	9.44245
15.7416	11.3309
20.5581	12.9928
25.3833	14.2014
30.4106	15.4101
35.2416	16.3165
40.2776	17.0719
45.3136	17.8273
50.5545	18.4317
55.3884	19.1871
60.4273	19.7914
65.6682	20.3957
70.3088	20.6978
75.1472	21.2266
80.3881	21.8309
