Adsorption isotherm of Hydrogen on Cu-TDPAT
DOI: 10.1002/anie.201105966
Adsorbate Hydrogen: InChIKey UFHFLCQGNIYNRP-UHFFFAOYSA-N
Temperature: 298 K
Tabular data in the source: 0
pressure (bar)	uptake (mmol/g)
0.585366	0.0201342
4.68293	0.100671
10.8293	0.211409
20.3415	0.38255
31.4634	0.573826
42.1463	0.748322
51.5122	0.895973
60.7317	1.03691
