Adsorption isotherm of Hydrogen on Cu-TDPAT
DOI: 10.1002/anie.201105966
Adsorbate Hydrogen: InChIKey UFHFLCQGNIYNRP-UHFFFAOYSA-N
Temperature: 298 K
Tabular data in the source: 0
pressure (bar)	uptake (cm3(STP)/g)
0.0706215	0.5
0.110169	0.5
0.169492	1
0.262712	0.5
0.333333	0.5
0.415254	0.5
0.522599	0.5
0.587571	0.5
0.652542	0.5
0.734463	0.5
0.822034	0.5
0.923729	0.5
1.03107	0.5
