Adsorption isotherm of Water on PIZOF-2
DOI: 10.1021/Ja500330a
Adsorbate Water: InChIKey XLYOFNOQVPJJNP-UHFFFAOYSA-N
Temperature: 298 K
Tabular data in the source: 0
pressure (bar)	uptake (cm3(STP)/g)
0.0016487	3.9604
0.00412175	3.9604
0.00668642	11.8812
0.00961743	7.92079
0.0123653	15.8416
0.0153879	15.8416
0.0175862	15.8416
0.0200593	11.8812
0.02125	11.8812
0.0221659	19.802
0.0225323	35.6436
0.0228071	59.4059
0.0228987	87.1287
0.0229903	122.772
0.0231735	154.455
0.0233567	182.178
0.0235398	209.901
0.0236315	237.624
0.0238146	273.267
0.0239978	332.673
0.0240894	451.485
0.024181	534.653
0.0243642	649.505
0.0244558	677.228
0.0245474	704.95
0.0247306	788.119
0.0249138	819.802
0.0264709	843.564
0.0297683	859.406
