Adsorption isotherm of Water on Zr-MOF-841
DOI: 10.1021/Ja500330a
Adsorbate Water: InChIKey XLYOFNOQVPJJNP-UHFFFAOYSA-N
Temperature: 298 K
Tabular data in the source: 0
pressure (bar)	uptake (cm3(STP)/g)
0.00375719	15.7635
0.00641479	27.5862
0.00742415	43.3498
0.00761589	59.1133
0.00771247	102.463
0.00780178	118.227
0.00780722	141.872
0.00782572	161.576
0.00782934	189.163
0.00788887	224.631
0.00790285	264.039
0.00790738	299.507
0.00791143	319.212
0.00791369	350.739
0.00792406	382.266
0.00797552	409.852
0.00820248	441.379
0.00820562	468.966
0.00857606	504.433
0.0100447	532.02
0.0141697	559.606
0.0178352	575.369
0.0225084	591.133
0.0280054	602.956
0.0298373	602.956
