Adsorption isotherm of Water on Zr-MOF-805
DOI: 10.1021/Ja500330a
Adsorbate Water: InChIKey XLYOFNOQVPJJNP-UHFFFAOYSA-N
Temperature: 298 K
Tabular data in the source: 0
pressure (bar)	uptake (cm3(STP)/g)
0.00100035	5.94059
0.00172706	13.8614
0.00254528	19.802
0.00336303	27.7228
0.00390897	29.703
0.00472675	37.6238
0.00563558	45.5446
0.00618016	53.4653
0.00726933	69.3069
0.00790361	83.1683
0.00835488	100.99
0.00907571	134.653
0.00952472	162.376
0.00997238	196.04
0.0103294	227.723
0.0114154	257.426
0.0124108	285.149
0.0132232	316.832
0.0144913	346.535
0.0155809	360.396
0.0169437	374.257
0.0179436	382.178
0.0193988	390.099
0.0212188	396.04
0.0234029	401.98
0.027953	415.842
0.0287717	419.802
0.0296814	423.762
