Adsorption isotherm of Water on Zr-MOF-801-SC
DOI: 10.1021/Ja500330a
Adsorbate Water: InChIKey XLYOFNOQVPJJNP-UHFFFAOYSA-N
Temperature: 298 K
Tabular data in the source: 0
pressure (bar)	uptake (cm3(STP)/g)
0.00245294	38.1298
0.0026293	76.0878
0.0026329	52.3727
0.00271712	97.4383
0.00280495	118.789
0.00307238	156.754
0.00307382	147.268
0.00325235	170.996
0.00379583	190.01
0.0046129	206.672
0.00570313	223.355
0.00642983	235.268
0.00779362	249.6
0.00915702	266.304
0.0117021	297.326
0.0127934	306.895
0.0146132	316.518
0.0201659	331.167
0.0275409	338.838
0.0310905	350.963
