Adsorption isotherm of Water on Zr-MOF-801-P
DOI: 10.1021/Ja500330a
Adsorbate Water: InChIKey XLYOFNOQVPJJNP-UHFFFAOYSA-N
Temperature: 298 K
Tabular data in the source: 0
pressure (bar)	uptake (cm3(STP)/g)
0.00117878	33.2906
0.00181297	54.6823
0.00208364	71.3035
0.00217183	90.2825
0.00226073	104.518
0.00234819	128.24
0.00243638	147.219
0.00252312	175.685
0.00252564	159.084
0.00261094	197.035
0.00278983	218.392
0.00287801	237.371
0.00296548	261.093
0.00341754	282.471
0.00414246	306.242
0.0050495	330.025
0.00641218	351.472
0.00850267	377.717
0.0115949	404.037
0.0138707	408.952
0.0159633	420.968
0.017966	425.862
0.020515	430.798
0.0234276	440.504
0.0267962	445.501
0.0295274	450.45
