Adsorption isotherm of Water on Zr-MOF-801-P
DOI: 10.1021/Ja500330a
Adsorbate Water: InChIKey XLYOFNOQVPJJNP-UHFFFAOYSA-N
Temperature: 298 K
Tabular data in the source: 0
pressure (bar)	uptake (cm3(STP)/g)
-2.15959e-05	21.3436
-1.22377e-05	40.3226
-3.23938e-06	64.0378
5.327e-05	80.6315
5.68692e-05	99.6105
6.01086e-05	123.326
6.29879e-05	142.291
6.62274e-05	163.641
7.23461e-05	184.985
7.59456e-05	203.957
8.13446e-05	225.301
8.4944e-05	249.016
0.000229277	268.002
0.000232516	289.345
0.000499945	305.967
0.000771334	317.845
0.00240579	348.798
0.00349674	360.738
0.00504372	367.97
0.0073185	379.999
0.0102311	389.705
0.0139639	394.73
0.0193352	404.622
0.0258902	414.603
0.0312619	422.123
