Adsorption isotherm of Water on Zr-MOF-808
DOI: 10.1021/Ja500330a
Adsorbate Water: InChIKey XLYOFNOQVPJJNP-UHFFFAOYSA-N
Temperature: 298 K
Tabular data in the source: 0
pressure (bar)	uptake (cm3(STP)/g)
0.000184994	15.7635
0.000369536	27.5862
0.00073682	35.468
0.00229573	51.2315
0.00357852	55.1724
0.00495333	63.0542
0.00706091	70.936
0.00889597	98.5222
0.00917301	118.227
0.0093589	141.872
0.00936117	161.576
0.00945501	181.281
0.0096409	204.926
0.0098268	228.571
0.00992067	248.276
0.00992381	275.862
0.0101088	291.626
0.0101138	334.975
0.0104851	378.325
0.0105812	417.734
0.0105853	453.202
0.0106801	480.788
0.0106836	512.315
0.0107789	543.842
0.0108745	579.31
0.0109692	606.897
0.0111556	634.483
0.0115251	662.069
0.0138173	681.773
0.0167501	697.537
0.0204148	705.419
0.0242631	717.241
0.0293942	733.005
0.0305859	740.887
