Adsorption isotherm of Water on Zr-MOF-802
DOI: 10.1021/Ja500330a
Adsorbate Water: InChIKey XLYOFNOQVPJJNP-UHFFFAOYSA-N
Temperature: 298 K
Tabular data in the source: 0
pressure (bar)	uptake (cm3(STP)/g)
0.000272828	2.39214
0.000727062	9.54105
0.00145377	21.4536
0.00218083	30.9947
0.00318217	33.4418
0.00381886	38.2329
0.00481949	45.4231
0.00572905	52.6064
0.00618434	52.6407
0.00727637	57.4663
0.00791309	62.2574
0.00982469	67.1448
0.0119177	76.7889
0.0131922	79.2567
0.0145578	81.7313
0.0160141	86.5843
0.0177436	91.458
0.0194737	91.5886
0.0213853	96.476
0.023388	101.37
0.0260285	103.941
0.0283043	108.856
0.0302163	111.372
