Adsorption isotherm of Water on Zr-MOF-804
DOI: 10.1021/Ja500330a
Adsorbate Water: InChIKey XLYOFNOQVPJJNP-UHFFFAOYSA-N
Temperature: 298 K
Tabular data in the source: 0
pressure (bar)	uptake (cm3(STP)/g)
0.000180324	7.92079
0.000906582	17.8218
0.00172435	25.7426
0.00236135	27.7228
0.00345276	33.6634
0.00445355	37.6238
0.00545481	39.604
0.0064556	43.5644
0.00800188	51.4851
0.00909287	59.4059
0.00954681	65.3465
0.0101825	73.2673
0.0109984	89.1089
0.0115385	116.832
0.0121692	146.535
0.0124352	178.218
0.0128828	211.881
0.0130505	275.248
0.0130577	243.564
0.0132254	306.931
0.0135825	338.614
0.0160304	386.139
0.0173945	394.059
0.019214	401.98
0.0214897	405.941
0.026404	419.802
0.0288609	427.723
0.0299528	431.683
