Adsorption isotherm of Water on DUT-67
DOI: 10.1021/Ja500330a
Adsorbate Water: InChIKey XLYOFNOQVPJJNP-UHFFFAOYSA-N
Temperature: 298 K
Tabular data in the source: 0
pressure (bar)	uptake (cm3(STP)/g)
0.000457975	7.92079
0.000915947	15.8416
0.00128233	31.6832
0.00155711	47.5248
0.0017403	63.3663
0.00228987	79.2079
0.00293103	99.0099
0.0037554	114.851
0.00476291	122.772
0.00586207	130.693
0.00632003	138.614
0.00741919	162.376
0.00751077	178.218
0.00778554	213.861
0.00796873	237.624
0.00806035	273.267
0.00815193	297.03
0.00833512	344.554
0.00860989	364.356
0.00952585	392.079
0.010625	415.842
0.011083	431.683
0.0116325	475.248
0.0119073	506.931
0.0119989	526.733
0.0131896	578.218
0.017861	601.98
0.020792	613.861
0.024181	617.822
0.0278448	621.782
0.0311422	629.703
