Adsorption isotherm of Water on Zr-MOF-806
DOI: 10.1021/Ja500330a
Adsorbate Water: InChIKey XLYOFNOQVPJJNP-UHFFFAOYSA-N
Temperature: 298 K
Tabular data in the source: 0
pressure (bar)	uptake (cm3(STP)/g)
0.000539169	31.6832
0.000542327	17.8218
0.000627077	45.5446
0.000635644	7.92079
0.0008065	57.4257
0.000985922	69.3069
0.0011649	83.1683
0.00143493	97.0297
0.00179648	108.911
0.00215758	122.772
0.00270126	134.653
0.00315342	148.515
0.00405955	168.317
0.00478534	180.198
0.00560043	200
0.00623517	211.881
0.00732387	229.703
0.00777784	235.644
0.00959507	253.465
0.0114123	271.287
0.0129577	283.168
0.0142307	291.089
0.0159582	302.97
0.0183237	312.871
0.0198708	316.832
0.0219639	322.772
0.0262421	330.693
0.0286089	334.653
0.0310667	338.614
