Adsorption isotherm of Water on UiO-66
DOI: 10.1021/Ja500330a
Adsorbate Water: InChIKey XLYOFNOQVPJJNP-UHFFFAOYSA-N
Temperature: 298 K
Tabular data in the source: 0
pressure (bar)	uptake (cm3(STP)/g)
0.000728142	2.42651
0.00181946	11.9951
0.00309361	16.8343
0.00400281	26.3891
0.00482094	35.937
0.00609147	64.4914
0.00709066	81.1677
0.00781843	85.9657
0.00863584	100.257
0.00981605	124.061
0.0104488	154.939
0.0108062	200.025
0.0109855	219.011
0.0110722	247.476
0.0112507	271.205
0.0113379	297.299
0.0115124	347.114
0.0115164	321.027
0.0116906	373.214
0.0117777	399.308
0.0118652	423.03
0.0124058	461.016
0.0126775	470.522
0.0148601	489.659
0.0156786	496.836
0.0180448	506.5
0.0195011	511.353
0.0211395	516.22
0.02296	521.101
0.024872	523.617
0.0269657	528.518
0.0292416	533.433
0.0306982	535.914
