Adsorption isotherm of Norfloxacin on Na-Hydroxyapatite
DOI: 10.1007/s10450-019-00100-x
Article source: Figure 8
Adsorbate Norfloxacin: InChIKey OGJPXUAPXNRGGI-UHFFFAOYSA-N
Kind: experiment
Temperature: 288 K
Tabular data in the source: 0
pressure (bar)	uptake (mmol/kg)
1.01325	0
1.01325	4.58015
1.01325	9.16031
1.01325	16.7939
1.01325	33.5878
1.01325	48.855
1.01325	59.542
1.01325	77.8626
1.01325	90.0763
1.01325	109.924
