Adsorption isotherm of Norfloxacin on Fe2O3-Chitosan Composite
DOI: 10.1007/s10450-019-00100-x
Article source: Figure 8
Adsorbate Norfloxacin: InChIKey OGJPXUAPXNRGGI-UHFFFAOYSA-N
Kind: experiment
Temperature: 288 K
Tabular data in the source: 0
pressure (bar)	uptake (mmol/kg)
1.01325	0
1.01325	16.7939
1.01325	22.9008
1.01325	22.9008
1.01325	25.9542
1.01325	25.1908
1.01325	26.7176
