Adsorption isotherm of Norfloxacin on Anatase
DOI: 10.1007/s10450-019-00100-x
Article source: Figure 8
Adsorbate Norfloxacin: InChIKey OGJPXUAPXNRGGI-UHFFFAOYSA-N
Kind: experiment
Temperature: 288 K
Tabular data in the source: 0
pressure (bar)	uptake (mmol/kg)
1.01325	0.763359
1.01325	9.16031
1.01325	11.4504
