Adsorption isotherm of Norfloxacin on MCM-41 pH=4.5
DOI: 10.1007/s10450-019-00100-x
Article source: Figure 2
Adsorbate Norfloxacin: InChIKey OGJPXUAPXNRGGI-UHFFFAOYSA-N
Kind: experiment
Temperature: 288 K
Tabular data in the source: 0
pressure (bar)	uptake (mmol/kg)
1.01325	5.59876
1.01325	18.0404
1.01325	22.395
1.01325	37.014
1.01325	56.6096
1.01325	67.1851
1.01325	79.0047
