Adsorption isotherm of Norfloxacin on Humic Acid
DOI: 10.1007/s10450-019-00100-x
Article source: Figure 8
Adsorbate Norfloxacin: InChIKey OGJPXUAPXNRGGI-UHFFFAOYSA-N
Kind: experiment
Temperature: 288 K
Tabular data in the source: 0
pressure (bar)	uptake (mmol/kg)
1.01325	0
1.01325	105.344
1.01325	153.435
1.01325	226.718
1.01325	265.649
1.01325	322.901
1.01325	352.672
1.01325	392.366
1.01325	437.405
