Adsorption isotherm of Norfloxacin on goethite
DOI: 10.1007/s10450-019-00100-x
Article source: Figure 8
Adsorbate Norfloxacin: InChIKey OGJPXUAPXNRGGI-UHFFFAOYSA-N
Kind: experiment
Temperature: 288 K
Tabular data in the source: 0
pressure (bar)	uptake (mmol/kg)
1.01325	15.2672
1.01325	19.8473
1.01325	38.1679
1.01325	77.8626
1.01325	94.6565
1.01325	112.977
1.01325	139.695
