Adsorption isotherm of Norfloxacin on MCM-41 pH=7.0
DOI: 10.1007/s10450-019-00100-x
Article source: Figure 2
Adsorbate Norfloxacin: InChIKey OGJPXUAPXNRGGI-UHFFFAOYSA-N
Kind: experiment
Temperature: 288 K
Tabular data in the source: 0
pressure (bar)	uptake (mmol/kg)
1.01325	1.24417
1.01325	8.08709
1.01325	15.5521
1.01325	30.1711
1.01325	44.79
1.01325	57.8538
1.01325	78.0715
1.01325	112.597
1.01325	151.166
1.01325	160.809
