Adsorption isotherm of Norfloxacin on Agricultural Soil
DOI: 10.1007/s10450-019-00100-x
Article source: Figure 8
Adsorbate Norfloxacin: InChIKey OGJPXUAPXNRGGI-UHFFFAOYSA-N
Kind: experiment
Temperature: 288 K
Tabular data in the source: 0
pressure (bar)	uptake (mmol/kg)
1.01325	1.52672
1.01325	36.6412
1.01325	51.145
1.01325	67.1756
1.01325	72.5191
1.01325	74.0458
1.01325	82.4427
1.01325	86.2595
