Adsorption isotherm of Norfloxacin on Fe-MCM-41
DOI: 10.1007/s10450-019-00100-x
Article source: Figure 8
Adsorbate Norfloxacin: InChIKey OGJPXUAPXNRGGI-UHFFFAOYSA-N
Kind: experiment
Temperature: 288 K
Tabular data in the source: 0
pressure (bar)	uptake (mmol/kg)
1.01325	0
1.01325	116.031
1.01325	212.214
1.01325	269.466
1.01325	309.16
1.01325	334.351
