Adsorption isotherm of Norfloxacin on magnetic graphene
DOI: 10.1007/s10450-019-00100-x
Article source: Figure 8
Adsorbate Norfloxacin: InChIKey OGJPXUAPXNRGGI-UHFFFAOYSA-N
Kind: experiment
Temperature: 288 K
Tabular data in the source: 0
pressure (bar)	uptake (mmol/kg)
1.01325	0
1.01325	38.1679
1.01325	50.3817
1.01325	57.2519
1.01325	65.6489
1.01325	71.7557
