Adsorption isotherm of Norfloxacin on Biochar-Clay Composite
DOI: 10.1007/s10450-019-00100-x
Article source: Figure 8
Adsorbate Norfloxacin: InChIKey OGJPXUAPXNRGGI-UHFFFAOYSA-N
Kind: experiment
Temperature: 288 K
Tabular data in the source: 0
pressure (bar)	uptake (mmol/kg)
1.01325	1.52672
1.01325	1.52672
1.01325	6.10687
1.01325	11.4504
1.01325	12.2137
