Adsorption isotherm of Norfloxacin on MCM-41
DOI: 10.1007/s10450-019-00100-x
Article source: Figure 8
Adsorbate Norfloxacin: InChIKey OGJPXUAPXNRGGI-UHFFFAOYSA-N
Kind: experiment
Temperature: 288 K
Tabular data in the source: 0
pressure (bar)	uptake (mmol/kg)
1.01325	0
1.01325	3.05344
1.01325	6.10687
1.01325	7.63359
1.01325	7.63359
1.01325	7.63359
