Adsorption isotherm of Norfloxacin on MCM-41 pH=9.5
DOI: 10.1007/s10450-019-00100-x
Article source: Figure 2
Adsorbate Norfloxacin: InChIKey OGJPXUAPXNRGGI-UHFFFAOYSA-N
Kind: experiment
Temperature: 288 K
Tabular data in the source: 0
pressure (bar)	uptake (mmol/kg)
1.01325	0
1.01325	0.311042
1.01325	2.17729
1.01325	3.42146
1.01325	4.04355
1.01325	4.66563
1.01325	6.53188
1.01325	11.8196
1.01325	13.6858
1.01325	16.7963
1.01325	20.2177
