Adsorption isotherm of Norfloxacin on MCM-41 pH=3.0
DOI: 10.1007/s10450-019-00100-x
Article source: Figure 2
Adsorbate Norfloxacin: InChIKey OGJPXUAPXNRGGI-UHFFFAOYSA-N
Kind: experiment
Temperature: 288 K
Tabular data in the source: 0
pressure (bar)	uptake (mmol/kg)
1.01325	3.7325
1.01325	4.35459
1.01325	4.35459
1.01325	9.95334
1.01325	12.7527
1.01325	16.7963
1.01325	20.2177
