Adsorption isotherm of Norfloxacin on Hypercrosslinked Polystyrene
DOI: 10.1007/s10450-019-00100-x
Article source: Figure 8
Adsorbate Norfloxacin: InChIKey OGJPXUAPXNRGGI-UHFFFAOYSA-N
Kind: experiment
Temperature: 288 K
Tabular data in the source: 0
pressure (bar)	uptake (mmol/kg)
1.01325	0
1.01325	88.5496
1.01325	210.687
1.01325	319.084
1.01325	422.901
1.01325	510.687
