Adsorption isotherm of Hydrogen on Carbon
DOI: 10.1063/1.1621073
Adsorbate Hydrogen: InChIKey UFHFLCQGNIYNRP-UHFFFAOYSA-N
Temperature: 77 K
Tabular data in the source: 0
pressure (bar)	uptake (wt%)
0.103101	0.0231565
0.160306	0.30847
0.217512	0.979207
1.19001	1.6099
3.70706	1.90522
7.19661	2.05038
11.4298	2.37574
11.9161	2.45082
19.8677	2.7912
20.6686	2.83124
