Adsorption isotherm of Hydrogen on Carbon
DOI: 10.1063/1.1621073
Adsorbate Hydrogen: InChIKey UFHFLCQGNIYNRP-UHFFFAOYSA-N
Temperature: 77 K
Tabular data in the source: 0
pressure (bar)	uptake (wt%)
0.045895	0.00813999
0.188909	0.503685
0.274718	0.768976
0.646555	1.2495
1.047	1.54983
1.81927	1.78009
3.24942	1.96029
5.25162	2.05539
8.0833	2.12046
12.3737	2.17052
17.179	2.18053
19.9535	2.19054
22.9282	2.19054
