Adsorption isotherm of Hydrogen on Carbon
DOI: 10.1063/1.1621073
Adsorbate Hydrogen: InChIKey UFHFLCQGNIYNRP-UHFFFAOYSA-N
Temperature: 77 K
Tabular data in the source: 0
pressure (bar)	uptake (wt%)
1.93368	0.0331675
6.39573	0.028162
10.4573	0.178327
18.3803	0.493674
22.5563	0.718921
