Adsorption isotherm of Methanol on [Zn5(mu3-O)2(bpdc)4(DMF)2(EtOH)2]*3(DMF)*3(EtOH)*5(H2O)
DOI: 10.1021/Cg060829a
Adsorbate Methanol: InChIKey OKKJLVBELUTLKV-UHFFFAOYSA-N
Temperature: 298 K
Tabular data in the source: 0
pressure (bar)	uptake (mg/g)
0.00182509	0.649162
0.0236738	20.9248
0.0608167	48.5416
0.0870352	72.313
0.115439	95.7349
0.152581	111.816
0.209388	120.905
0.307707	124.051
0.624514	130.693
0.989388	145.375
