Adsorption isotherm of Nitrogen on TCT network
DOI: 10.1002/anie.200705710
Article source: Figure S27
Adsorbate Nitrogen: InChIKey IJGRMHOSHXDMSA-UHFFFAOYSA-N
Kind: experiment
Temperature: 77 K
Tabular data in the source: 0
pressure (bar)	uptake (cm3(STP)/g)
0.00414	2.42727
0.006744	128.995
0.011119	141.629
0.017629	158.048
0.021873	164.353
0.024191	176.998
0.036794	189.585
0.047236	197.122
0.055594	203.404
0.064005	212.217
0.070229	214.714
0.099367	231.006
0.140848	247.228
0.213107	259.48
0.271045	275.61
0.318568	285.47
0.368069	291.521
0.41757	297.571
0.467123	306.154
0.512588	316.025
0.572323	319.486
0.644426	324.144
0.683668	331.519
0.708431	335.177
0.766187	342.447
0.815714	349.764
0.871361	354.514
0.916878	366.916
0.972602	375.464
1.02676	408.071
0.05411	231.26
0.116449	261.29
0.155899	278.789
0.207717	297.485
0.255318	311.142
0.30073	318.481
0.35445	329.572
0.416424	341.882
0.465847	344.135
0.517405	350.175
0.569068	361.277
0.620522	362.253
0.669997	367.038
0.723612	373.066
0.764859	377.898
0.818318	376.331
0.871855	378.562
0.923414	384.601
0.975024	393.172
1.02468	406.817
