Adsorption isotherm of Nitrogen on CTF-1
DOI: 10.1002/anie.200705710
Article source: Figure S6
Adsorbate Nitrogen: InChIKey IJGRMHOSHXDMSA-UHFFFAOYSA-N
Kind: experiment
Temperature: 77 K
Tabular data in the source: 0
pressure (bar)	uptake (cm3(STP)/g)
0.010632	4.30145
0.025151	146.727
0.030181	156.072
0.034697	160.382
0.036956	162.537
0.043438	166.125
0.04577	169
0.048101	171.874
0.056842	177.617
0.06347	182.644
0.065802	185.518
0.074322	189.103
0.082916	193.407
0.132425	199.093
0.181861	204.058
0.23137	209.743
0.280439	211.113
0.341959	214.622
0.403552	218.851
0.434202	219.527
0.503582	220.148
0.550466	220.082
0.601574	221.448
0.644674	224.264
0.695635	224.192
0.740554	224.848
0.791735	226.933
0.836874	229.747
0.900139	230.376
0.955323	231.737
0.990197	233.846
1.04284	250.318
0.079206	197.01
0.137162	205.561
0.190528	209.082
0.233775	213.337
0.287214	217.578
0.319976	218.97
0.379237	220.325
0.436607	223.121
0.489753	224.484
0.534599	224.421
0.590076	228.658
0.649191	228.575
0.680061	231.408
0.720903	232.07
0.783948	230.541
0.835129	232.627
0.870149	236.174
0.925407	238.254
0.984888	241.767
1.03447	248.171
