Adsorption isotherm of Nitrogen on DCBP network
DOI: 10.1002/anie.200705710
Article source: Figure S14
Adsorbate Nitrogen: InChIKey IJGRMHOSHXDMSA-UHFFFAOYSA-N
Kind: experiment
Temperature: 77 K
Tabular data in the source: 0
pressure (bar)	uptake (cm3(STP)/g)
0.017058	81.522
0.017387	89.684
0.016195	110.097
0.021045	130.486
0.02236	163.133
0.023676	195.781
0.024991	228.429
0.025649	244.753
0.029471	289.635
0.034322	310.024
0.039336	334.494
0.046365	358.955
0.058244	403.805
0.077851	440.461
0.090922	464.898
0.114556	501.537
0.135684	525.942
0.150604	546.29
0.173746	570.687
0.193681	615.504
0.263105	688.694
0.286247	713.091
0.348643	761.819
0.399447	822.839
0.451279	859.365
0.497233	899.996
0.558765	977.299
0.611255	1030.15
0.671801	1082.97
0.709534	1119.55
0.773409	1205.01
0.822364	1270.11
0.867126	1331.16
0.921794	1388.08
0.960884	1408.33
1.01991	1473.4
1.07153	1554.83
0.074275	501.7
0.123722	579.052
0.195819	668.557
0.234045	717.383
0.292084	757.965
0.340216	802.669
0.409476	871.778
0.444867	900.207
0.497151	997.955
0.552928	1132.42
0.614338	1156.67
0.662635	1205.45
0.710233	1286.89
0.778999	1343.76
0.814883	1384.43
0.88217	1404.57
0.933673	1432.93
0.977284	1465.41
1.01251	1489.76
1.06718	1546.68
