Adsorption isotherm of Nitrogen on DCP network
DOI: 10.1002/anie.200705710
Article source: Figure S23
Adsorbate Nitrogen: InChIKey IJGRMHOSHXDMSA-UHFFFAOYSA-N
Kind: experiment
Temperature: 77 K
Tabular data in the source: 0
pressure (bar)	uptake (cm3(STP)/g)
0.012664	3.09387
0.029545	144.698
0.030194	150.909
0.036915	155.253
0.039458	159.599
0.048269	163.942
0.050682	167.046
0.059492	171.388
0.070392	175.729
0.079072	178.83
0.092125	183.79
0.107138	187.508
0.141017	191.835
0.183446	198.02
0.238086	201.092
0.284175	202.306
0.338879	205.999
0.386927	205.97
0.437323	208.424
0.491703	209.011
0.535703	210.227
0.585905	210.817
0.625597	210.793
0.684155	211.378
0.746891	211.961
0.807732	214.408
0.857934	214.998
0.912249	214.965
0.95403	214.939
0.996071	217.398
1.03837	222.341
0.082329	190.008
0.14369	197.423
0.175544	202.373
0.234297	204.821
0.286912	208.516
0.335285	211.592
0.393843	212.177
0.450182	211.521
0.496141	211.493
0.548626	213.945
0.596804	215.158
0.64916	216.368
0.686892	217.587
0.735135	219.421
0.770778	220.642
0.814778	221.857
0.879603	222.438
0.925497	221.789
0.979747	221.135
1.01983	224.837
