Adsorption isotherm of Nitrogen on DCB network at DCB/ZnCl2 = 0.1
DOI: 10.1002/anie.200705710
Article source: Figure S10
Adsorbate Nitrogen: InChIKey IJGRMHOSHXDMSA-UHFFFAOYSA-N
Kind: experiment
Temperature: 77 K
Tabular data in the source: 0
pressure (bar)	uptake (cm3(STP)/g)
0.019104	57.2816
0.022744	92.233
0.022606	103.883
0.023708	110.68
0.027151	119.417
0.027938	124.272
0.029355	133.01
0.030142	137.864
0.028135	150.485
0.027682	160.194
0.031598	171.845
0.03691	179.612
0.040353	188.35
0.04177	197.087
0.049108	204.854
0.052709	214.563
0.069098	228.155
0.078306	234.951
0.094695	248.544
0.112166	256.311
0.129322	262.136
0.151161	271.845
0.176424	277.67
0.216658	288.35
0.254237	295.146
0.311924	300.971
0.371794	307.767
0.41919	312.621
0.468456	316.505
0.513354	318.447
0.56683	323.301
0.63152	322.33
0.673152	329.126
0.732235	331.068
0.77792	337.864
0.826714	338.835
0.879875	341.748
0.941142	344.66
0.989935	345.631
1.03499	348.544
1.07649	366.99
0.083814	268.932
0.150256	291.262
0.200781	302.913
0.250046	306.796
0.295731	313.592
0.348735	315.534
0.402211	320.388
0.445397	324.272
0.502769	328.155
0.54564	330.097
0.607222	334.951
0.65633	337.864
0.709177	338.835
0.758127	340.777
0.805052	342.718
0.850579	348.544
0.917139	346.602
0.963906	347.573
1.02409	356.311
1.07446	366.99
