Adsorption isotherm of Hydrogen on DCBP polymer
DOI: 10.1002/anie.200705710
Article source: Figure 3
Adsorbate Hydrogen: InChIKey UFHFLCQGNIYNRP-UHFFFAOYSA-N
Kind: experiment
Temperature: 77 K
Tabular data in the source: 0
pressure (bar)	uptake (wt%)
0.006591	0.035542
0.013164	0.067183
0.015531	0.118733
0.015599	0.134605
0.01783	0.154411
0.020061	0.174217
0.022326	0.201958
0.026754	0.233634
0.033328	0.265276
0.046441	0.320623
0.048655	0.336461
0.059605	0.387875
0.068358	0.427418
0.079206	0.455024
0.088045	0.514407
0.096781	0.549983
0.109928	0.613266
0.125085	0.644772
0.151107	0.707851
0.185763	0.782698
0.218239	0.849642
0.291587	0.939748
0.358532	1.03789
0.423263	1.1202
0.522411	1.2218
0.660201	1.32675
0.752708	1.38084
0.806522	1.41967
1.00657	1.53157
