Adsorption isotherm of Nitrogen on DCT network
DOI: 10.1002/anie.200705710
Article source: Figure S19
Adsorbate Nitrogen: InChIKey IJGRMHOSHXDMSA-UHFFFAOYSA-N
Kind: experiment
Temperature: 77 K
Tabular data in the source: 0
pressure (bar)	uptake (cm3(STP)/g)
0.006046	2.30131
0.017914	105.526
0.018538	112.006
0.02091	116.633
0.024985	118.942
0.02709	120.791
0.035285	125.872
0.041286	128.179
0.04545	131.414
0.05163	135.572
0.065424	138.794
0.071292	139.712
0.131892	148.888
0.17843	152.065
0.226983	156.165
0.283062	158.403
0.329555	161.117
0.377975	163.829
0.429979	163.757
0.480101	164.152
0.541914	165.919
0.58814	165.855
0.634589	168.106
0.679111	170.36
0.716019	173.55
0.777698	173.929
0.845021	172.911
0.899041	173.762
0.939488	173.707
0.991582	174.562
1.02455	176.831
0.075723	145.724
0.134041	151.2
0.188461	156.218
0.248348	157.988
0.304695	163.003
0.349128	164.331
0.391769	167.05
0.453404	166.966
0.507601	169.669
0.553827	169.606
0.627152	170.894
0.663747	170.844
0.73322	172.138
0.783476	173.921
0.835347	172.461
0.860876	177.518
0.93783	176.487
0.993954	179.188
1.01711	179.619
