Adsorption isotherm of Nitrogen on [Cd9((R)-PIA)6(TIB)4(H2O)12]*3H2O
DOI: 10.1039/c4cc09821h
Article source: Figure 6
Adsorbate Nitrogen: InChIKey IJGRMHOSHXDMSA-UHFFFAOYSA-N
Kind: experiment
Temperature: 77 K
Tabular data in the source: 0
pressure (bar)	uptake (cm3(STP)/g)
0.00089	37.304
0.00103	18.642
0.00159	54.781
0.00257	74.094
0.00327	93.763
0.00355	113.195
0.00466	134.167
0.0048	144.183
0.00494	192.878
0.00522	153.777
0.0069	212.488
0.00844	228.898
0.00969	241.102
0.0164	258.222
0.028	270.484
0.04714	278.302
0.06139	281.262
0.09255	285.582
0.09856	288.01
0.12147	287.888
0.14875	292.577
0.1558	290.188
0.17305	291.604
0.19259	293.541
0.19734	295.631
0.21125	294.733
0.23097	296.223
0.24927	299.654
0.29663	298.9
0.29909	299.094
0.32163	302.255
0.34891	304.864
0.35437	304.564
0.3982	306.946
0.42796	306.345
0.44838	306.038
0.44855	306.043
0.49837	308.797
0.50013	308.764
0.54756	309.551
0.57795	307.854
0.59836	309.825
0.63007	308.692
0.64937	308.514
0.64959	308.501
0.69817	310.533
0.69861	310.563
0.74853	308.68
0.74888	308.685
0.79676	310.694
0.79764	310.717
0.81789	309.571
0.82933	310.539
0.84764	309.119
0.8795	310.756
0.89094	309.037
0.90133	308.887
0.92193	308.883
0.93002	311.271
0.9677	311.265
0.97773	310.965
