Adsorption isotherm of P-Xylene on MIL-101
DOI: 10.1016/j.cej.2011.07.051
Adsorbate P-Xylene: InChIKey URLKBWYHVLBVBO-UHFFFAOYSA-N
Temperature: 298 K
Tabular data in the source: 0
pressure (bar)	uptake (mmol/g)
5.06e-05	1.02821
0.000101124	2.35642
0.000151685	3.42749
0.000185393	4.24153
0.000269663	5.05522
0.000337079	5.99759
0.000455056	6.59675
0.000589888	7.32436
0.000825843	8.05124
0.00107865	8.43515
0.00146629	8.77524
0.00178652	8.98724
0.00227528	9.11232
0.00274719	9.19466
0.00318539	9.27725
0.0036573	9.35959
0.00431461	9.39775
0.00483708	9.43688
0.0053427	9.43327
0.00581461	9.47275
