Adsorption isotherm of P-Xylene on MIL-101
DOI: 10.1016/j.cej.2011.07.051
Adsorbate P-Xylene: InChIKey URLKBWYHVLBVBO-UHFFFAOYSA-N
Temperature: 308 K
Tabular data in the source: 0
pressure (bar)	uptake (mmol/g)
0.000117978	1.07059
0.000185393	2.39868
0.000269663	3.72665
0.000370787	4.79735
0.000438202	5.5683
0.000522472	6.21055
0.000691011	7.06649
0.000893258	7.57933
0.00112921	8.09193
0.00131461	8.34775
0.00148315	8.43226
0.00173596	8.64474
0.00205618	8.81388
0.00249438	8.89647
0.00283146	8.97978
0.0032191	9.01986
0.00358989	9.10293
0.00396067	9.10028
0.00436517	9.14025
0.00488764	9.17937
0.00535955	9.176
0.0057809	9.21585
