Adsorption isotherm of P-Xylene on MIL-101
DOI: 10.1016/j.cej.2011.07.051
Adsorbate P-Xylene: InChIKey URLKBWYHVLBVBO-UHFFFAOYSA-N
Temperature: 288 K
Tabular data in the source: 0
pressure (bar)	uptake (mmol/g)
3.37e-05	1.37119
6.74e-05	3.72809
0.000101124	4.71356
0.000168539	5.61308
0.000219101	6.51272
0.000353933	7.0689
0.000488764	7.75365
0.000775281	8.52303
0.00102809	8.9498
0.00136517	9.29025
0.00163483	9.54547
0.00203933	9.84258
0.00244382	10.0111
0.00276404	10.1374
0.00315169	10.3061
0.00355618	10.3889
0.00407865	10.5137
0.00456742	10.5531
0.00498876	10.6358
0.00544382	10.7183
0.00588202	10.758
