Adsorption isotherm of P-Xylene on MIL-101
DOI: 10.1016/j.cej.2011.07.051
Adsorbate P-Xylene: InChIKey URLKBWYHVLBVBO-UHFFFAOYSA-N
Temperature: 318 K
Tabular data in the source: 0
pressure (bar)	uptake (mmol/g)
0.000101124	1.02785
0.000185393	2.01296
0.000252809	2.65534
0.000303371	3.38355
0.00038764	4.06866
0.00047191	4.83949
0.000539326	5.35329
0.000657303	5.9953
0.000775281	6.46589
0.000926966	6.93624
0.00114607	7.44896
0.00133146	7.74763
0.00163483	8.08832
0.00187079	8.25807
0.0021236	8.34197
0.00246067	8.46814
0.00276404	8.55169
0.00310112	8.67785
0.00347191	8.6752
0.00380899	8.71565
0.00397753	8.7573
0.00423034	8.79835
0.00468539	8.7951
0.00505618	8.79246
0.00544382	8.78969
0.00588202	8.82941
