Adsorption isotherm of P-Xylene on MIL-101
DOI: 10.1016/j.cej.2011.07.051
Adsorbate P-Xylene: InChIKey URLKBWYHVLBVBO-UHFFFAOYSA-N
Temperature: 288 K
Tabular data in the source: 0
pressure (bar)	uptake (mmol/g)
1.69e-05	1.92845
3.37e-05	4.11404
0.000134831	5.35618
0.000269663	6.51236
0.000421348	7.32556
0.000573034	7.96734
0.000876404	8.65088
0.00117978	9.29157
0.00176966	9.75879
0.00235955	10.0546
0.00296629	10.1788
0.00416292	10.4274
0.00503933	10.5497
0.00591573	10.8435
