Adsorption isotherm of Nitrogen on MIL-101
DOI: 10.1016/j.cej.2011.07.051
Adsorbate Nitrogen: InChIKey IJGRMHOSHXDMSA-UHFFFAOYSA-N
Temperature: 77 K
Tabular data in the source: 0
pressure (bar)	uptake (mmol/g)
0.00287356	0.00287356
0.00574713	12.4073
0.00862069	16.9192
0.0287356	20.9839
0.0603448	24.8256
0.0804598	26.6347
0.100575	28.4437
0.132184	32.7366
0.16092	34.0964
0.212644	36.5893
0.258621	40.6598
0.37069	41.5874
0.413793	41.8227
0.474138	42.0618
0.623563	42.7722
0.761494	43.48
0.821839	43.4936
0.899425	44.639
0.936782	45.5496
0.962644	46.2322
0.971264	48.7153
0.985632	58.4178
0.988506	57.0651
