Adsorption isotherm of P-Xylene on MIL-101
DOI: 10.1016/j.cej.2011.07.051
Adsorbate P-Xylene: InChIKey URLKBWYHVLBVBO-UHFFFAOYSA-N
Temperature: 318 K
Tabular data in the source: 0
pressure (bar)	uptake (mmol/g)
0.000101124	0.770706
0.000202247	1.62713
0.000455056	4.75389
0.000926966	6.89338
0.00139888	7.79001
0.00190449	8.34354
0.00283146	8.5512
0.00379213	8.71577
0.00475281	8.75177
0.00588202	8.82941
