Adsorption isotherm of P-Xylene on MIL-101
DOI: 10.1016/j.cej.2011.07.051
Adsorbate P-Xylene: InChIKey URLKBWYHVLBVBO-UHFFFAOYSA-N
Temperature: 298 K
Tabular data in the source: 0
pressure (bar)	uptake (mmol/g)
6.74e-05	1.54238
0.000134831	3.42761
0.000320225	5.56914
0.000488764	6.76794
0.000674157	7.83804
0.000994382	8.52147
0.00136517	8.81882
0.00203933	9.07115
0.00273034	9.15193
0.00342135	9.27556
0.00480337	9.39426
0.00584831	9.47251
