Adsorption isotherm of P-Xylene on MIL-101
DOI: 10.1016/j.cej.2011.07.051
Adsorbate P-Xylene: InChIKey URLKBWYHVLBVBO-UHFFFAOYSA-N
Temperature: 308 K
Tabular data in the source: 0
pressure (bar)	uptake (mmol/g)
6.74e-05	0.72809
0.000101124	1.54213
0.000151685	2.22749
0.000404494	4.79711
0.000606742	6.72424
0.000808989	7.49422
0.0012809	8.43371
0.00165169	8.64535
0.00249438	8.89647
0.00332022	8.97628
0.00414607	9.09896
0.00583146	9.21549
