Adsorption isotherm of Nitrogen on DMTA-TPB-2
DOI: 10.1021/jacs.7b03352
Article source: Figure 2 (a)
Adsorbate Nitrogen: InChIKey IJGRMHOSHXDMSA-UHFFFAOYSA-N
Kind: experiment
Temperature: 77 K
Tabular data in the source: 0
pressure (bar)	uptake (cm3(STP)/g)
0.089521	208.564
0.129402	240.806
0.154632	262.972
0.203461	337.531
0.236016	345.592
0.286476	350.63
0.309264	353.652
0.344262	355.668
0.373555	358.69
0.409373	361.713
0.445992	361.713
0.4818	363.728
0.517609	365.743
0.553417	367.758
0.589235	367.758
0.625044	369.773
0.660852	371.788
0.697471	371.788
0.732468	373.804
0.769097	375.819
0.804906	377.834
0.839903	379.849
0.875711	383.879
0.91152	385.894
0.946517	393.955
0.979073	412.091
1.01406	474.559
0.086268	220.655
0.125329	248.867
0.153001	273.048
0.195324	345.592
0.230322	353.652
0.26613	358.69
0.301938	361.713
0.337747	364.736
0.373555	366.751
0.390648	367.758
0.437856	369.773
0.485874	372.796
0.517609	379.849
0.553417	381.864
0.589235	382.872
0.625044	383.879
0.660852	385.894
0.69666	385.894
0.732468	387.909
0.768277	388.917
0.786181	389.924
0.82281	390.932
0.86106	394.962
0.903383	400
0.951401	413.098
0.988831	442.317
1.01406	474.559
