Adsorption isotherm of Nitrogen on DMTA-TPB-1(.75)/2(.25)'
DOI: 10.1021/jacs.7b03352
Article source: Figure S14 (l)
Adsorbate Nitrogen: InChIKey IJGRMHOSHXDMSA-UHFFFAOYSA-N
Kind: experiment
Temperature: 77 K
Tabular data in the source: 0
pressure (bar)	uptake (cm3(STP)/g)
0.001023	7.47664
0.001023	24.9221
0.001023	44.8598
0.001023	67.2897
0.001023	84.7352
0.001023	104.673
0.00306	124.611
0.005107	144.548
0.007143	164.486
0.00918	179.439
0.050004	264.174
0.088771	316.511
0.119381	348.91
0.158158	383.801
0.192852	416.199
0.225509	510.903
0.266323	603.115
0.3051	613.084
0.377547	625.545
0.421421	630.53
0.467341	654.206
0.506118	656.698
0.532645	657.944
0.552029	659.19
0.586722	665.421
0.625499	669.159
0.658157	670.405
0.694887	672.897
0.729581	677.882
0.765298	680.374
0.801005	685.358
0.838758	690.343
0.874475	695.327
0.908146	699.065
0.945899	710.28
0.978556	727.726
1.01325	813.707
0.048981	271.651
0.088771	323.988
0.121428	358.879
0.153062	388.785
0.194899	428.66
0.233666	555.763
0.266323	613.084
0.301016	620.561
0.337747	625.545
0.37244	633.022
0.411217	638.006
0.436731	641.745
0.466318	644.237
0.517335	654.206
0.551015	657.944
0.588769	662.928
0.623463	665.421
0.661217	669.159
0.696923	672.897
0.733664	677.882
0.768358	680.374
0.807135	685.358
0.828555	689.097
0.870392	695.327
0.912229	706.542
0.946923	721.495
0.98876	775.078
1.01325	813.707
