Adsorption isotherm of Nitrogen on DMTA-TPB-1(.25)/2(.75)'
DOI: 10.1021/jacs.7b03352
Article source: Figure S14 (m)
Adsorbate Nitrogen: InChIKey IJGRMHOSHXDMSA-UHFFFAOYSA-N
Kind: experiment
Temperature: 77 K
Tabular data in the source: 0
pressure (bar)	uptake (cm3(STP)/g)
0	8.64198
0	23.4568
0	40.7407
0	62.963
0.001013	87.6543
0.001013	109.877
0.00303	134.568
0.007072	151.852
0.009089	164.198
0.048494	237.037
0.087889	280.247
0.122238	317.284
0.16062	376.543
0.18891	408.642
0.226289	450.617
0.27377	475.309
0.318221	483.951
0.356603	487.654
0.405097	495.062
0.439447	498.765
0.475812	502.469
0.510161	504.938
0.546527	507.407
0.580876	512.346
0.618255	514.815
0.653607	519.753
0.689983	524.691
0.724332	528.395
0.759684	533.333
0.795047	537.037
0.829386	546.914
0.863735	556.79
0.898084	571.605
0.93142	601.235
0.969812	691.358
1.00315	812.346
0.051524	240.741
0.08486	280.247
0.126281	322.222
0.158604	379.012
0.189924	416.049
0.232348	465.432
0.262655	477.778
0.298017	483.951
0.334383	488.889
0.369745	493.827
0.405097	497.531
0.43742	501.235
0.476825	506.173
0.512178	512.346
0.546527	514.815
0.582892	519.753
0.617242	522.222
0.653607	527.16
0.688969	530.864
0.724332	535.802
0.761701	541.975
0.782918	546.914
0.82131	555.556
0.855659	569.136
0.90617	618.518
0.938492	685.185
0.970825	751.852
1.00315	812.346
