Adsorption isotherm of Nitrogen on DMTA-TPB-4
DOI: 10.1021/jacs.7b03352
Article source: Figure 2 (a)
Adsorbate Nitrogen: InChIKey IJGRMHOSHXDMSA-UHFFFAOYSA-N
Kind: experiment
Temperature: 77 K
Tabular data in the source: 0
pressure (bar)	uptake (cm3(STP)/g)
0.048829	160.202
0.083016	170.277
0.130213	178.338
0.157074	183.375
0.191261	187.406
0.227069	190.428
0.262878	193.451
0.298686	197.481
0.335305	199.496
0.373555	202.519
0.408553	205.542
0.444361	208.564
0.480179	208.564
0.515987	211.587
0.552606	214.61
0.588415	216.625
0.624223	217.632
0.660852	220.655
0.695029	222.67
0.730847	224.685
0.766655	226.7
0.803274	230.73
0.839903	232.746
0.874891	235.768
0.910709	239.798
0.946517	246.851
0.981505	256.927
1.01325	290.176
0.040692	182.368
0.05046	188.413
0.065111	192.443
0.087079	199.496
0.122076	205.542
0.157885	211.587
0.193693	214.61
0.230322	217.632
0.26532	219.647
0.301128	220.655
0.337747	223.678
0.372744	224.685
0.413436	226.7
0.437045	227.708
0.483432	230.73
0.515987	242.821
0.553417	244.836
0.588415	244.836
0.624223	246.851
0.660041	247.859
0.695849	248.867
0.731658	249.874
0.768277	250.882
0.803274	252.897
0.839082	253.904
0.875711	254.912
0.91152	258.942
0.948139	262.972
0.984768	273.048
1.01325	290.176
