Adsorption isotherm of Nitrogen on DMTA-TPB-1/2' 6M NaOH
DOI: 10.1021/jacs.7b03352
Article source: Figure 3 (f)
Adsorbate Nitrogen: InChIKey IJGRMHOSHXDMSA-UHFFFAOYSA-N
Kind: experiment
Temperature: 77 K
Tabular data in the source: 0
pressure (bar)	uptake (cm3(STP)/g)
0.009778	173.868
0.0505	240.103
0.128693	318.758
0.158016	343.596
0.223989	443.984
0.280194	509.185
0.306255	515.395
0.36327	519.534
0.390963	525.744
0.410508	529.884
0.446347	531.953
0.482185	536.093
0.518024	538.163
0.552242	542.303
0.589701	546.442
0.624729	548.512
0.659757	552.652
0.695596	555.757
0.731425	560.931
0.768084	564.036
0.804733	570.246
0.838941	577.49
0.874779	586.805
0.908997	600.259
0.943204	625.097
0.974149	666.494
1.01244	790.686
0.053753	256.662
0.088781	297.025
0.122988	328.072
0.14987	351.876
0.186519	381.889
0.234578	482.277
0.265532	519.534
0.301371	524.709
0.335578	529.884
0.372228	534.023
0.409698	538.163
0.439832	542.303
0.482185	546.442
0.515582	552.652
0.55061	556.792
0.587259	559.896
0.623919	563.001
0.659757	567.141
0.695596	571.281
0.730614	574.385
0.767263	580.595
0.804733	587.84
0.840572	598.189
0.879673	612.678
0.914691	635.446
0.946457	668.564
0.983927	728.59
1.01244	789.651
