Adsorption isotherm of Nitrogen on DMTA-TPB-1/2' 2M HCl
DOI: 10.1021/jacs.7b03352
Article source: Figure 3 (f)
Adsorbate Nitrogen: InChIKey IJGRMHOSHXDMSA-UHFFFAOYSA-N
Kind: experiment
Temperature: 77 K
Tabular data in the source: 0
pressure (bar)	uptake (cm3(STP)/g)
0	0
0	12.4192
0	28.978
0	47.6067
0	68.3053
0	89.0039
0	105.563
0.001631	130.401
0.006515	149.03
0.009778	167.658
0.0505	233.894
0.091223	277.361
0.117294	293.92
0.157196	322.898
0.192224	351.876
0.236209	429.495
0.259017	453.299
0.307886	465.718
0.347798	472.962
0.388521	480.207
0.446347	486.417
0.479743	494.696
0.516403	494.696
0.551421	498.836
0.586449	500.906
0.623919	506.08
0.657305	508.15
0.692333	511.255
0.728172	516.43
0.764011	520.569
0.799849	524.709
0.834867	530.919
0.869895	540.233
0.906545	551.617
0.940762	572.316
0.973338	611.643
1.01325	827.943
0.051311	246.313
0.086339	281.501
0.114031	304.269
0.153132	331.177
0.188971	360.155
0.233767	439.845
0.264712	463.648
0.29974	471.928
0.334768	476.067
0.371417	482.277
0.408066	486.417
0.439832	490.556
0.480564	494.696
0.513951	501.94
0.549789	506.08
0.585628	509.185
0.620656	513.325
0.656495	516.43
0.692333	518.499
0.728172	522.639
0.7632	529.884
0.80066	535.058
0.819395	538.163
0.857676	548.512
0.898408	564.036
0.937499	594.049
0.982295	699.612
1.01244	828.978
