Adsorption isotherm of Nitrogen on DMTA-TPB-1/2'
DOI: 10.1021/jacs.7b03352
Article source: Figure 2 (a)
Adsorbate Nitrogen: InChIKey IJGRMHOSHXDMSA-UHFFFAOYSA-N
Kind: experiment
Temperature: 77 K
Tabular data in the source: 0
pressure (bar)	uptake (cm3(STP)/g)
0.004884	192.443
0.009768	204.534
0.048829	291.184
0.089521	345.592
0.131844	389.924
0.157885	414.106
0.192072	450.378
0.22788	539.043
0.268572	615.617
0.305191	628.715
0.445182	639.798
0.478548	644.836
0.515167	649.874
0.550164	651.889
0.585973	654.912
0.62097	656.927
0.657599	657.935
0.693408	661.965
0.728405	663.98
0.763393	668.01
0.800832	674.055
0.835019	679.093
0.870828	690.176
0.905005	702.267
0.940813	720.403
0.97581	760.705
1.01406	877.582
0.05046	305.29
0.087899	353.652
0.119634	389.924
0.153001	422.166
0.188819	456.423
0.231953	576.322
0.264499	629.723
0.300317	635.768
0.336125	640.806
0.353209	642.821
0.389027	646.851
0.438666	651.889
0.4818	657.935
0.514356	668.01
0.550164	672.04
0.585162	674.055
0.621781	676.071
0.656779	680.101
0.693408	681.108
0.729216	686.146
0.765024	690.176
0.800832	696.222
0.837461	705.29
0.876522	720.403
0.904194	735.516
0.946517	771.788
0.983136	823.174
1.01325	877.582
