Adsorption isotherm of Nitrogen on DMTA-TPB-1/4'
DOI: 10.1021/jacs.7b03352
Article source: Figure 2 (a)
Adsorbate Nitrogen: InChIKey IJGRMHOSHXDMSA-UHFFFAOYSA-N
Kind: experiment
Temperature: 77 K
Tabular data in the source: 0
pressure (bar)	uptake (cm3(STP)/g)
0.05046	238.791
0.084637	281.108
0.12696	317.38
0.157074	343.577
0.19044	373.804
0.224627	442.317
0.280782	510.831
0.306012	516.877
0.362977	522.922
0.390648	526.952
0.411815	528.967
0.447623	532.997
0.482621	537.028
0.517609	540.05
0.554238	543.073
0.589235	547.103
0.625044	551.133
0.65922	553.149
0.69666	557.179
0.730847	561.209
0.767466	565.239
0.804085	571.285
0.839903	579.345
0.874891	587.406
0.909888	601.511
0.944075	624.685
0.97581	668.01
1.01244	790.932
0.08871	298.237
0.122076	329.471
0.15138	351.637
0.186377	382.872
0.234395	482.62
0.26532	518.892
0.301128	524.937
0.336936	530.982
0.372744	535.013
0.409373	539.043
0.441108	542.065
0.482621	546.096
0.515987	553.149
0.551796	557.179
0.587604	561.209
0.623412	563.224
0.660041	567.254
0.695029	571.285
0.731658	575.315
0.768277	581.36
0.805716	588.413
0.841524	597.481
0.880595	613.602
0.916404	637.783
0.947328	669.018
1.01325	790.932
