Adsorption isotherm of Nitrogen on DMTA-TPB-3
DOI: 10.1021/jacs.7b03352
Article source: Figure 2 (a)
Adsorbate Nitrogen: InChIKey IJGRMHOSHXDMSA-UHFFFAOYSA-N
Kind: experiment
Temperature: 77 K
Tabular data in the source: 0
pressure (bar)	uptake (cm3(STP)/g)
0.014652	105.793
0.049649	139.043
0.096036	168.262
0.118013	182.368
0.195324	226.7
0.232764	232.746
0.268572	234.761
0.301938	236.776
0.336936	237.783
0.371934	236.776
0.406931	238.791
0.441919	240.806
0.476917	240.806
0.512725	240.806
0.548543	239.798
0.58272	240.806
0.62016	240.806
0.655968	242.821
0.691776	242.821
0.726774	244.836
0.761771	244.836
0.800022	248.867
0.83583	252.897
0.869196	258.942
0.905005	270.025
0.940002	289.169
0.975	329.471
1.01325	482.62
0.079753	186.398
0.123708	213.602
0.158705	237.783
0.193693	248.867
0.22788	252.897
0.263688	254.912
0.299496	255.919
0.335305	256.927
0.350767	256.927
0.387396	256.927
0.44274	256.927
0.477737	256.927
0.495641	257.935
0.529818	259.95
0.566447	257.935
0.602256	257.935
0.638064	256.927
0.674683	259.95
0.70968	260.957
0.746309	263.98
0.782928	269.018
0.819557	275.063
0.857807	287.154
0.896868	306.297
0.940813	340.554
0.982326	401.008
1.01244	484.635
