Adsorption isotherm of Nitrogen on DMTA-TPB-1/4' after 5 runs
DOI: 10.1021/jacs.7b03352
Article source: Figure S14 (r)
Adsorbate Nitrogen: InChIKey IJGRMHOSHXDMSA-UHFFFAOYSA-N
Kind: experiment
Temperature: 77 K
Tabular data in the source: 0
pressure (bar)	uptake (cm3(STP)/g)
0	0.76628
0	14.5594
0	31.4176
0.000871	43.6782
0.000871	62.069
0	78.9272
0.001733	95.7854
0.001733	112.644
0.003465	127.969
0.006931	137.165
0.006931	147.893
0.010406	155.556
0.047673	221.456
0.088406	262.835
0.131753	302.682
0.153416	326.437
0.20109	388.506
0.221892	416.092
0.262634	451.341
0.313773	457.471
0.351912	460.536
0.369238	462.069
0.406516	463.602
0.440318	465.134
0.476724	468.199
0.511387	469.732
0.547793	471.264
0.582467	473.563
0.618873	474.329
0.653546	474.329
0.689942	475.862
0.724616	477.395
0.759289	478.927
0.795695	480.46
0.830358	482.759
0.866764	484.291
0.901438	487.356
0.936111	492.72
0.970775	504.981
1.00111	534.866
0.050277	229.119
0.087545	268.199
0.121347	299.617
0.153416	333.333
0.188951	382.375
0.233159	439.847
0.262634	457.471
0.298169	462.069
0.332842	465.134
0.369238	468.199
0.404783	469.732
0.439447	472.031
0.475853	473.563
0.511387	475.862
0.547793	477.395
0.582467	477.395
0.618001	478.927
0.635338	479.693
0.68821	480.46
0.724616	481.992
0.741081	481.992
0.776626	483.525
0.813032	485.057
0.849428	488.889
0.885834	492.72
0.924844	501.149
0.962973	514.943
1.00198	534.1
