Adsorption isotherm of Nitrogen on DMTA-TPB-1/3'
DOI: 10.1021/jacs.7b03352
Article source: Figure 2 (a)
Adsorbate Nitrogen: InChIKey IJGRMHOSHXDMSA-UHFFFAOYSA-N
Kind: experiment
Temperature: 77 K
Tabular data in the source: 0
pressure (bar)	uptake (cm3(STP)/g)
0.048829	209.572
0.083016	242.821
0.132655	281.108
0.157885	297.229
0.19044	323.426
0.233574	395.97
0.27834	430.227
0.305191	433.249
0.351588	436.272
0.371934	439.295
0.406931	440.302
0.44274	444.332
0.480179	446.348
0.515167	448.363
0.550164	450.378
0.585973	451.385
0.621781	454.408
0.657599	455.416
0.693408	457.431
0.729216	460.453
0.765024	462.469
0.800832	466.499
0.836641	470.529
0.871638	476.574
0.907446	484.635
0.942444	500.756
0.97581	528.967
1.01325	637.783
0.05127	224.685
0.08871	260.957
0.115571	283.123
0.15219	307.305
0.196135	341.562
0.226249	403.023
0.263688	440.302
0.299496	444.332
0.335305	446.348
0.371123	450.378
0.406111	452.393
0.441108	454.408
0.479358	458.438
0.513545	460.453
0.550164	462.469
0.585162	464.484
0.62097	466.499
0.656779	467.506
0.691776	470.529
0.728405	472.544
0.745489	474.559
0.782928	478.589
0.819557	483.627
0.858618	492.695
0.900121	507.809
0.944075	537.028
0.983947	583.375
1.01325	637.783
