Adsorption isotherm of Nitrogen on DMTA-TPB-1/5' after 5 runs
DOI: 10.1021/jacs.7b03352
Article source: Figure S14 (s)
Adsorbate Nitrogen: InChIKey IJGRMHOSHXDMSA-UHFFFAOYSA-N
Kind: experiment
Temperature: 77 K
Tabular data in the source: 0
pressure (bar)	uptake (cm3(STP)/g)
0	5.74163
0	14.3541
0	27.2727
0	38.756
0	54.5454
0	71.7703
0.001672	87.5598
0.003354	101.914
0.005867	113.397
0.008369	122.01
0.010882	129.187
0.049406	185.167
0.090443	221.053
0.130638	251.196
0.157429	269.856
0.190927	291.388
0.222743	353.11
0.269646	427.751
0.298108	432.057
0.356735	439.234
0.388551	442.105
0.4053	442.105
0.441311	444.258
0.47564	446.411
0.511651	448.565
0.547662	450.718
0.582832	452.871
0.618001	453.589
0.653171	455.742
0.688341	456.459
0.724352	458.612
0.759522	460.048
0.795523	462.201
0.830693	465.072
0.865873	466.507
0.901043	470.096
0.936213	475.12
0.969701	487.321
1.00571	538.995
0.050247	193.78
0.08793	227.512
0.119746	252.632
0.152403	274.163
0.187573	297.129
0.234466	396.172
0.262938	434.211
0.298108	439.234
0.333288	442.823
0.369289	445.694
0.38771	447.129
0.437116	450.718
0.478994	453.589
0.51081	459.33
0.546821	460.766
0.582832	462.201
0.618001	463.636
0.653171	465.072
0.689182	466.507
0.725183	467.943
0.758681	469.378
0.795523	471.531
0.813113	472.249
0.849124	475.12
0.889319	479.426
0.9337	488.038
0.974726	509.569
1.00571	538.995
