Adsorption isotherm of Nitrogen on DMTA-TPB-1/2' in boiling water
DOI: 10.1021/jacs.7b03352
Article source: Figure 3 (f)
Adsorbate Nitrogen: InChIKey IJGRMHOSHXDMSA-UHFFFAOYSA-N
Kind: experiment
Temperature: 77 K
Tabular data in the source: 0
pressure (bar)	uptake (cm3(STP)/g)
0.048869	227.684
0.083076	264.942
0.107516	300.129
0.159648	341.527
0.174309	358.085
0.205254	397.413
0.239461	471.928
0.247608	507.115
0.296477	552.652
0.353493	563.001
0.389331	569.211
0.405624	569.211
0.478933	575.42
0.516403	579.56
0.548979	585.77
0.586449	585.77
0.620656	589.909
0.658126	589.909
0.692333	594.049
0.728983	596.119
0.764011	602.329
0.799849	604.398
0.869895	614.748
0.912249	620.957
0.939941	623.027
0.977411	633.376
1.01162	674.774
0.265532	551.617
0.303002	558.862
0.336389	564.036
0.373048	569.211
0.393404	571.281
0.443094	575.42
0.485448	579.56
0.517213	588.875
0.552242	591.979
0.58808	594.049
0.624729	597.154
0.659757	600.259
0.695596	600.259
0.728172	604.398
0.764011	606.468
0.80066	607.503
0.819395	610.608
0.856865	614.748
0.895956	618.887
0.953792	635.446
1.01244	673.739
