Adsorption isotherm of Nitrogen on DMTA-TPB-1/5'
DOI: 10.1021/jacs.7b03352
Article source: Figure 2 (a)
Adsorbate Nitrogen: InChIKey IJGRMHOSHXDMSA-UHFFFAOYSA-N
Kind: experiment
Temperature: 77 K
Tabular data in the source: 0
pressure (bar)	uptake (cm3(STP)/g)
0	5.03778
0	19.1436
0	37.2796
0	59.4458
0	81.6121
0.001631	105.793
0.001631	121.914
0.003253	146.096
0.008136	168.262
0.009768	180.353
0.048829	262.972
0.089521	311.335
0.119634	345.592
0.157885	381.864
0.193693	416.121
0.224627	508.816
0.268572	603.526
0.30438	613.602
0.375997	623.678
0.419952	629.723
0.465528	655.919
0.507841	655.919
0.53226	657.935
0.587604	661.965
0.621781	668.01
0.657599	670.025
0.693408	670.025
0.731658	674.055
0.766655	678.086
0.802464	684.131
0.837461	688.161
0.87408	692.191
0.906636	700.252
0.945697	710.327
0.976631	728.464
1.01406	813.098
0.048829	271.033
0.087899	322.418
0.120455	357.683
0.15219	386.902
0.193693	428.212
0.232764	555.164
0.26532	611.587
0.300317	618.64
0.336936	625.693
0.372744	631.738
0.410184	636.776
0.436224	639.798
0.466338	643.829
0.517609	653.904
0.550985	657.935
0.588415	661.965
0.623412	664.987
0.660041	669.018
0.69666	672.04
0.7341	676.071
0.769908	682.116
0.807347	686.146
0.828504	688.161
0.870007	694.207
0.913141	704.282
0.948139	721.411
0.989651	774.811
1.01325	814.106
