Adsorption isotherm of Nitrogen on DMTA-TPB-1/3' after 5 runs
DOI: 10.1021/jacs.7b03352
Article source: Figure S14 (q)
Adsorbate Nitrogen: InChIKey IJGRMHOSHXDMSA-UHFFFAOYSA-N
Kind: experiment
Temperature: 77 K
Tabular data in the source: 0
pressure (bar)	uptake (cm3(STP)/g)
0.000811	8.18859
0.000811	20.0993
0.000811	30.5211
0.000811	42.4318
0.000811	55.8313
0.000811	67.7419
0.000811	81.8859
0.000811	101.985
0.000811	119.851
0.000811	133.251
0.000811	149.628
0.002422	163.027
0.004043	179.404
0.005664	194.293
0.009707	210.67
0.049325	291.067
0.089764	337.965
0.118064	369.231
0.15445	416.129
0.194078	441.439
0.232896	447.395
0.268471	451.117
0.299203	453.35
0.334788	455.583
0.369553	457.072
0.405138	458.561
0.440723	459.305
0.476298	459.305
0.530477	459.305
0.565252	459.305
0.583044	460.794
0.61943	460.794
0.673609	459.305
0.709194	459.305
0.724555	460.794
0.760951	460.794
0.81594	460.794
0.849093	461.538
0.866886	462.283
0.902461	465.261
0.937236	470.471
0.972821	483.127
1.00516	524.814
0.052567	338.71
0.079246	371.464
0.124539	419.851
0.158493	463.772
0.191656	480.893
0.227231	484.615
0.262817	486.849
0.298392	488.337
0.333977	488.337
0.349338	489.082
0.384924	489.082
0.439913	487.593
0.456084	488.337
0.49247	489.082
0.528055	488.337
0.56363	486.849
0.599216	485.36
0.634801	484.615
0.670376	482.382
0.705962	480.149
0.741537	479.404
0.777122	477.916
0.812708	477.171
0.848283	476.427
0.884669	477.916
0.921065	481.638
0.959882	492.804
1.00516	524.814
