Adsorption isotherm of N-Hexane on Carbon
DOI: 10.1002/aic.690480820
Adsorbate N-Hexane: InChIKey VLKZOEOYAKHREP-UHFFFAOYSA-N
Temperature: 303 K
Tabular data in the source: 0
pressure (bar)	uptake (mg/g)
0.0012963	68.2192
0.00250449	73.9398
0.00481102	80.8045
0.00722739	83.0927
0.00958885	86.525
0.0119503	86.525
0.0191994	88.8133
0.0240871	87.6692
0.02881	89.9574
0.036114	91.1015
