Adsorption isotherm of Acetone on Carbon
DOI: 10.1002/aic.690480820
Adsorbate Acetone: InChIKey CSCPPACGZOOCGX-UHFFFAOYSA-N
Temperature: 303 K
Tabular data in the source: 0
pressure (bar)	uptake (mg/g)
0.00118927	150.998
0.00227096	209.59
0.00470477	305.364
0.00594871	329.026
0.00957237	400.012
0.0120603	431.561
0.0143859	457.477
0.0191994	484.519
0.0239048	489.026
0.0288265	491.28
0.0361279	490.153
