Adsorption isotherm of N-Hexane on Carbon
DOI: 10.1002/aic.690480820
Adsorbate N-Hexane: InChIKey VLKZOEOYAKHREP-UHFFFAOYSA-N
Temperature: 303 K
Tabular data in the source: 0
pressure (bar)	uptake (mg/g)
0.00118927	0.141905
0.00237913	0.158102
0.00475885	0.177469
0.00724674	0.185919
0.00962646	0.192609
0.0120062	0.199652
0.0142236	0.202469
0.0190372	0.207398
0.024067	0.209511
0.0287183	0.208807
0.0359656	0.210215
