Adsorption isotherm of N-Hexane on Carbon
DOI: 10.1002/aic.690480820
Adsorbate N-Hexane: InChIKey VLKZOEOYAKHREP-UHFFFAOYSA-N
Temperature: 303 K
Tabular data in the source: 0
pressure (bar)	uptake (mg/g)
0.00124336	0.135215
0.00243322	0.153173
0.00475885	0.173595
0.00735491	0.181342
0.0094642	0.191201
0.011898	0.199652
0.0143859	0.203877
0.0191994	0.214088
0.0240129	0.223595
0.0287183	0.225708
0.0360197	0.23275
