Adsorption isotherm of Acetone on Carbon
DOI: 10.1002/aic.690480820
Adsorbate Acetone: InChIKey CSCPPACGZOOCGX-UHFFFAOYSA-N
Temperature: 303 K
Tabular data in the source: 0
pressure (bar)	uptake (mg/g)
0.00118927	0.0394404
0.00183829	0.059863
0.00232505	0.0672573
0.00475885	0.106342
0.00605688	0.120778
0.00962646	0.152821
0.0120603	0.167609
0.0144941	0.174652
0.0191994	0.188032
0.024067	0.191553
0.0288805	0.194018
0.0361279	0.19437
