Adsorption isotherm of Acetone on Carbon
DOI: 10.1002/aic.690480820
Adsorbate Acetone: InChIKey CSCPPACGZOOCGX-UHFFFAOYSA-N
Temperature: 303 K
Tabular data in the source: 0
pressure (bar)	uptake (mg/g)
0.00118927	127.336
0.00194646	183.674
0.00227096	202.829
0.00475885	320.012
0.00605688	365.083
0.00968054	461.984
0.0119521	503.674
0.01444	525.083
0.0192535	567.9
0.0239589	575.787
0.0287724	581.421
0.0361279	584.801
