Adsorption isotherm of Nitrogen on Carbon
DOI: 10.1002/aic.690480820
Adsorbate Nitrogen: InChIKey IJGRMHOSHXDMSA-UHFFFAOYSA-N
Temperature: 77 K
Tabular data in the source: 0
pressure (bar)	uptake (cm3(STP)/g)
0.00801532	116.058
0.0609306	134.936
0.125287	143.517
0.203945	148.665
0.302625	152.098
0.399875	155.53
0.499985	153.814
0.598664	155.53
0.700205	155.53
0.801745	157.246
0.876112	155.53
0.95048	160.679
0.997674	162.395
