Adsorption isotherm of Acetone on Carbon
DOI: 10.1002/aic.690480820
Adsorbate Acetone: InChIKey CSCPPACGZOOCGX-UHFFFAOYSA-N
Temperature: 303 K
Tabular data in the source: 0
pressure (bar)	uptake (mg/g)
0.00118927	0.135567
0.0024873	0.159159
0.00481294	0.195074
0.00589463	0.204229
0.00957237	0.220778
0.0120062	0.224652
0.0143859	0.223595
0.0190912	0.226412
0.024067	0.228525
0.0288265	0.229581
0.0360738	0.229581
