Adsorption isotherm of Acetone on Carbon
DOI: 10.1002/aic.690480820
Adsorbate Acetone: InChIKey CSCPPACGZOOCGX-UHFFFAOYSA-N
Temperature: 303 K
Tabular data in the source: 0
pressure (bar)	uptake (mg/g)
0.00113519	69.8714
0.00259547	82.2657
0.00470477	100.294
0.00616505	103.674
0.00978871	112.688
0.0120603	116.069
0.0144941	116.069
0.0192535	118.322
0.024067	116.069
0.0287183	120.576
0.0360738	118.322
