Adsorption isotherm of Nitrogen on Carbon
DOI: 10.1002/aic.690480820
Adsorbate Nitrogen: InChIKey IJGRMHOSHXDMSA-UHFFFAOYSA-N
Temperature: 77 K
Tabular data in the source: 0
pressure (bar)	uptake (cm3(STP)/g)
0.00658518	435.266
0.0308976	495.332
0.0780923	569.128
0.118136	613.748
0.181063	663.517
0.25686	687.543
0.3584	702.989
0.44993	708.137
0.5529	713.286
0.647289	716.718
0.75169	721.867
0.821767	727.015
0.903285	728.731
0.974792	732.164
0.999104	742.461
