Adsorption isotherm of N-Hexane on Carbon
DOI: 10.1002/aic.690480820
Adsorbate N-Hexane: InChIKey VLKZOEOYAKHREP-UHFFFAOYSA-N
Temperature: 303 K
Tabular data in the source: 0
pressure (bar)	uptake (mg/g)
0.00118647	327.933
0.00266924	367.977
0.00481102	412.598
0.00733723	432.048
0.00964376	450.353
0.0120052	466.371
0.0192543	483.533
0.024142	485.821
0.0288649	486.965
0.0362787	488.109
