Adsorption isotherm of N-Hexane on Carbon
DOI: 10.1002/aic.690480820
Adsorbate N-Hexane: InChIKey VLKZOEOYAKHREP-UHFFFAOYSA-N
Temperature: 303 K
Tabular data in the source: 0
pressure (bar)	uptake (mg/g)
0.00124336	0.137328
0.00243322	0.147891
0.00481294	0.157398
0.00730082	0.164793
0.00951829	0.169722
0.0120062	0.171483
0.0143318	0.172187
0.0191994	0.172891
0.0240129	0.175356
0.0287724	0.176412
0.0360738	0.178525
