Adsorption isotherm of N-Hexane on Carbon
DOI: 10.1002/aic.690480820
Adsorbate N-Hexane: InChIKey VLKZOEOYAKHREP-UHFFFAOYSA-N
Temperature: 303 K
Tabular data in the source: 0
pressure (bar)	uptake (mg/g)
0.0012963	404.589
0.00255941	461.795
0.00475611	522.433
0.00722739	544.171
0.00964376	572.774
0.0119503	594.512
0.0193642	637.988
0.0239772	667.735
0.02881	676.888
0.0360591	694.05
