Adsorption isotherm of Nitrogen on Carbon
DOI: 10.1002/aic.690480820
Adsorbate Nitrogen: InChIKey IJGRMHOSHXDMSA-UHFFFAOYSA-N
Temperature: 77 K
Tabular data in the source: 0
pressure (bar)	uptake (cm3(STP)/g)
0.00658518	503.913
0.0294675	577.708
0.0580703	641.207
0.0938239	702.989
0.141019	769.92
0.175342	805.959
0.193934	823.121
0.25543	866.025
0.304055	896.916
0.365551	924.375
0.442779	939.821
0.497124	948.401
0.598664	953.55
0.700205	958.698
0.798884	965.563
0.876112	974.144
0.924737	977.576
0.979082	981.009
0.999104	987.873
