Adsorption isotherm of Acetone on Carbon
DOI: 10.1002/aic.690480820
Adsorbate Acetone: InChIKey CSCPPACGZOOCGX-UHFFFAOYSA-N
Temperature: 303 K
Tabular data in the source: 0
pressure (bar)	uptake (mg/g)
0.00113519	0.0633841
0.0024873	0.0908489
0.00475885	0.130638
0.00611096	0.141201
0.00951829	0.172539
0.0121143	0.183807
0.0143859	0.19437
0.0193076	0.20775
0.0239048	0.208807
0.0287724	0.209863
0.0359656	0.210215
