Adsorption isotherm of Hydrogen on MOF-177
DOI: 10.1039/B703608f
Adsorbate Hydrogen: InChIKey UFHFLCQGNIYNRP-UHFFFAOYSA-N
Temperature: 77 K
Tabular data in the source: 0
pressure (bar)	uptake (mg/g)
2.36738	22.5104
6.30016	40.8633
13.0733	56.3322
26.6195	68.6549
39.5102	72.3255
51.964	72.8499
65.2918	72.3255
75.3422	71.8012
