Adsorption isotherm of Hydrogen on MOF-177
DOI: 10.1039/B703608f
Adsorbate Hydrogen: InChIKey UFHFLCQGNIYNRP-UHFFFAOYSA-N
Temperature: 77 K
Tabular data in the source: 0
pressure (bar)	uptake (mg/g)
1.05646	10.1877
4.55226	32.7356
12.1993	52.3995
18.0985	59.4785
23.9976	64.1978
31.8632	68.1306
39.7287	70.7524
49.3422	72.5877
61.796	76.5205
72.2833	75.4717
