Adsorption isotherm of Nitrogen on MOF-177
DOI: 10.1039/B703608f
Adsorbate Nitrogen: InChIKey IJGRMHOSHXDMSA-UHFFFAOYSA-N
Temperature: 77 K
Tabular data in the source: 0
pressure (bar)	uptake (cm3(STP)/g)
0.00619484	2.62134
0.00619484	259.563
0.0105646	638.857
0.021489	938.621
0.0324133	1064.03
0.0608167	1131.33
0.152581	1177.21
0.35796	1213.92
0.812413	1250.62
0.998128	1259.8
