Adsorption isotherm of Hydrogen on MOF-177
DOI: 10.1039/B703608f
Adsorbate Hydrogen: InChIKey UFHFLCQGNIYNRP-UHFFFAOYSA-N
Temperature: 77 K
Tabular data in the source: 0
pressure (bar)	uptake (mg/g)
0.619484	4.41964
6.08167	44.2717
12.8548	63.4112
26.838	83.0751
39.7287	94.8734
52.6195	101.952
65.0733	108.245
75.3422	113.226
