Adsorption isotherm of Hydrogen on MOF-177
DOI: 10.1039/B703608f
Adsorbate Hydrogen: InChIKey UFHFLCQGNIYNRP-UHFFFAOYSA-N
Temperature: 87 K
Tabular data in the source: 0
pressure (bar)	uptake (cm3(STP)/g)
0.0275654	2.90271
0.120728	11.096
0.157994	15.0288
0.269789	24.8607
0.374598	32.7262
0.477077	41.2472
0.581885	50.7514
0.705326	58.2893
0.903298	72.054
1.06633	82.2136
