Adsorption isotherm of Hydrogen on MOF-177
DOI: 10.1039/B703608f
Adsorbate Hydrogen: InChIKey UFHFLCQGNIYNRP-UHFFFAOYSA-N
Temperature: 77 K
Tabular data in the source: 0
pressure (bar)	uptake (cm3(STP)/g)
0.0182491	5.85229
0.113741	23.222
0.16731	31.743
0.274447	49.1128
0.383914	62.8775
0.491051	78.2809
0.602847	92.3733
0.824109	115.642
0.92193	127.441
1.07565	141.533
