Adsorption isotherm of Hydrogen on MOF-177
DOI: 10.1039/B703608f
Adsorbate Hydrogen: InChIKey UFHFLCQGNIYNRP-UHFFFAOYSA-N
Temperature: 77 K
Tabular data in the source: 0
pressure (bar)	uptake (g/l)
0.320717	3.91402
3.55306	8.24007
5.81441	11.9107
6.56164	13.746
8.35105	18.072
8.90164	19.514
19.7996	24.6266
26.092	25.6754
44.9693	31.9678
66.4029	39.309
80.3643	45.3392
87.05	48.3544
