Adsorption isotherm of Hydrogen on MOF-177
DOI: 10.1039/B703608f
Adsorbate Hydrogen: InChIKey UFHFLCQGNIYNRP-UHFFFAOYSA-N
Temperature: 77 K
Tabular data in the source: 0
pressure (bar)	uptake (g/l)
0.320717	3.52075
3.27777	7.32243
5.77508	11.2552
6.52231	12.5661
8.39038	16.8922
8.86231	18.072
19.2096	21.8737
33.5643	24.4955
43.9861	26.7241
59.9138	29.7392
71.7122	31.0502
86.4601	32.23
