Adsorption isotherm of Nitrogen on MOF-177
DOI: 10.1039/B703608f
Adsorbate Nitrogen: InChIKey IJGRMHOSHXDMSA-UHFFFAOYSA-N
Temperature: 77 K
Tabular data in the source: 0
pressure (bar)	uptake (cm3(STP)/g)
2.01411e-05	25.8435
8.66357e-05	49.4401
0.000166621	57.3057
0.00115587	99.2553
0.00211394	151.692
0.00427538	243.457
0.0072508	461.07
0.0098057	626.247
0.0183902	933.003
0.0296586	1053.61
0.148358	1153.24
1.05539	1237.14
