Adsorption isotherm of Hydrogen on MOF-177
DOI: 10.1039/B703608f
Adsorbate Hydrogen: InChIKey UFHFLCQGNIYNRP-UHFFFAOYSA-N
Temperature: 77 K
Tabular data in the source: 0
pressure (bar)	uptake (mg/g)
0.400996	1.01124
3.24133	29.5894
6.73713	44.0096
12.8548	58.9541
18.0985	68.3928
32.0817	84.6482
39.7287	90.9407
54.8044	102.739
61.5775	107.196
72.2833	110.867
