Adsorption isotherm of Hydrogen on MOF-177
DOI: 10.1039/B703608f
Adsorbate Hydrogen: InChIKey UFHFLCQGNIYNRP-UHFFFAOYSA-N
Temperature: 77 K
Tabular data in the source: 0
pressure (bar)	uptake (mg/g)
0.837971	8.87679
4.33377	30.3759
7.61108	42.1743
15.0397	53.9726
23.9976	62.8869
30.1153	67.6062
36.0144	69.7037
42.7876	71.539
57.4262	73.3743
73.1573	76.7827
