Adsorption isotherm of Hydrogen on MOF-177
DOI: 10.1039/B703608f
Adsorbate Hydrogen: InChIKey UFHFLCQGNIYNRP-UHFFFAOYSA-N
Temperature: 77 K
Tabular data in the source: 0
pressure (bar)	uptake (mg/g)
0.837971	10.1877
4.11528	32.9978
7.61108	46.6314
14.3842	62.1003
29.8968	82.8129
36.2329	88.0566
42.3506	93.5625
56.9892	102.739
66.1657	108.245
72.7203	114.275
