Adsorption isotherm of Perfluorooctanesulfonic acid on soil
DOI: 10.1016/j.chemosphere.2016.11.114
Article source: Figure 1
Adsorbate Perfluorooctanesulfonic acid: InChIKey YFSUTJLHUFNCNZ-UHFFFAOYSA-N
Kind: experiment
Temperature: 298 K
Tabular data in the source: 0
pressure (bar)	uptake (mg/kg)
1.01325	12.892
1.01325	34.033
1.01325	60.722
1.01325	102.037
1.01325	140.462
1.01325	179.515
