Adsorption isotherm of Perfluorooctanesulfonic acid on soil (organic matter and ferric oxides removed)
DOI: 10.1016/j.chemosphere.2016.11.114
Article source: Figure 1
Adsorbate Perfluorooctanesulfonic acid: InChIKey YFSUTJLHUFNCNZ-UHFFFAOYSA-N
Kind: experiment
Temperature: 298 K
Tabular data in the source: 0
pressure (bar)	uptake (mg/kg)
1.01325	9.513
1.01325	27.59
1.01325	41.968
1.01325	71.99
1.01325	125.384
