Adsorption isotherm of Perfluorooctanesulfonic acid on soil without organic matter
DOI: 10.1016/j.chemosphere.2016.11.114
Article source: Figure 1
Adsorbate Perfluorooctanesulfonic acid: InChIKey YFSUTJLHUFNCNZ-UHFFFAOYSA-N
Kind: experiment
Temperature: 298 K
Tabular data in the source: 0
pressure (bar)	uptake (mg/kg)
1.01325	5.98
1.01325	19.707
1.01325	33.831
1.01325	47.879
1.01325	55.141
1.01325	61.187
