Adsorption isotherm of Carbon Tetrafluoride, Argon on ORTHO Silicalite
DOI: 10.1021/la035556p
Article source: Figure 1
Adsorbate Carbon Tetrafluoride: InChIKey TXEYQDLBPFQVAA-UHFFFAOYSA-N
Adsorbate Argon: InChIKey XKRFYHLGVUSROY-UHFFFAOYSA-N
Kind: experiment
Temperature: 300 K
Tabular data in the source: 0
pressure (bar)	Carbon Tetrafluoride fraction	Carbon Tetrafluoride uptake (molecules/unitcell)	Argon fraction	Argon uptake (molecules/unitcell)	total uptake (molecules/unitcell)
10.1	0.0085	1.2989	0.00882	4.1041	5.4288
10.1	0.11626	7.068	0.11844	1.8732	9.042
10.1	0.22772	8.7592	0.22684	1.1747	10.0579
10.1	0.33769	9.6192	0.33667	0.788	10.4244
10.1	0.44624	10.1415	0.44373	0.531	10.6869
10.1	0.55615	10.482	0.55498	0.404	10.8716
10.1	0.66467	10.7445	0.66345	0.277	11.0303
10.1	0.77457	10.9552	0.77193	0.1759	11.2149
10.1	0.88168	11.1138	0.88179	0.1008	11.3476
10.1	0.99018	11.2984	0.98888	0.0776	11.4023
