Adsorption isotherm of Benzene, Methane on ORTHO Silicalite
DOI: 10.1021/la035556p
Article source: Figure 1
Adsorbate Benzene: InChIKey UHOVQNZJYSORNB-UHFFFAOYSA-N
Adsorbate Methane: InChIKey VNWKTOKETHGBQD-UHFFFAOYSA-N
Kind: experiment
Temperature: 420 K
Tabular data in the source: 0
pressure (bar)	Benzene fraction	Benzene uptake (molecules/unitcell)	Methane fraction	Methane uptake (molecules/unitcell)	total uptake (molecules/unitcell)
5	0.00268	0.4084	0.00102	2.0603	2.5987
5	0.00536	0.7797	0.00653	1.9491	2.8586
5	0.01348	1.4666	0.01066	1.9306	3.5083
5	0.0189	1.9307	0.01478	1.8935	3.8796
5	0.02159	2.2463	0.02717	1.7824	4.1396
5	0.02431	2.4134	0.03267	1.7268	4.2696
5	0.02975	2.7105	0.04229	1.6899	4.5109
5	0.03932	2.9891	0.04641	1.7085	4.7896
5	0.05848	3.3978	0.06017	1.5603	5.0683
5	0.07905	3.6024	0.07665	1.5791	5.1801
5	0.0955	3.7883	0.09588	1.5795	5.4031
5	0.10921	3.9742	0.11101	1.4684	5.5334
5	0.12844	3.9745	0.12612	1.4687	5.5151
5	0.13664	4.2126	0.13712	1.4222	5.7009
5	0.14488	4.2347	0.14399	1.3762	5.6084
5	0.2437	4.7006	0.2443	1.1925	5.9442
5	0.34936	5.3151	0.3501	0.9903	6.3916
5	0.4578	5.7811	0.45866	0.7695	6.5792
5	0.56355	5.8759	0.5617	0.6601	6.5441
5	0.66925	6.2676	0.67163	0.4394	6.7502
5	0.77773	6.4738	0.77468	0.2742	6.8265
5	0.8793	6.9398	0.88322	0.1278	7.1811
5	0.98503	7.2016	0.989	0.0555	7.2201
5	0.99327	7.2203	0.9945	0.0529	7.2098
