Adsorption isotherm of Methane on CS-H2O
DOI: 10.1016/j.fuproc.2015.10.038
Article source: Figure 1b
Adsorbate Methane: InChIKey VNWKTOKETHGBQD-UHFFFAOYSA-N
Kind: experiment
Isotherm type: absolute
Temperature: 343 K
Tabular data in the source: 0
pressure (bar)	uptake (mmol/g)
0.0309	0.0137
0.2363	0.1582
0.2993	0.2042
0.4196	0.2861
0.5467	0.3523
0.6759	0.4127
0.835	0.4781
0.9676	0.5327
1.0792	0.5873
1.236	0.6793
1.3786	0.7303
1.6438	0.8122
1.9067	0.897
2.3056	1.0285
3.0737	1.2361
3.9932	1.4494
5.1548	1.6805
6.2236	1.8541
7.6892	2.0535
9.0024	2.227
10.0105	2.3439
