Adsorption isotherm of Carbon Dioxide on CS-CO2
DOI: 10.1016/j.fuproc.2015.10.038
Article source: Figure 1a
Adsorbate Carbon Dioxide: InChIKey CURLTUGMZLYLDI-UHFFFAOYSA-N
Kind: experiment
Isotherm type: absolute
Temperature: 343 K
Tabular data in the source: 0
pressure (bar)	uptake (mmol/g)
0.0309	0.034
0.2617	0.5076
0.5445	0.8427
0.6694	0.9636
0.8053	1.0858
0.9523	1.1778
1.1015	1.2962
1.2219	1.4247
1.3534	1.5066
1.6021	1.707
1.8641	1.8745
2.2465	2.1089
3.06	2.5272
4.0107	2.9393
5.051	3.33
6.2771	3.7094
7.6546	4.0712
9.0112	4.3877
9.8913	4.5755
