Adsorption isotherm of Carbon Dioxide on CS-H2O
DOI: 10.1016/j.fuproc.2015.10.038
Article source: Figure 1a
Adsorbate Carbon Dioxide: InChIKey CURLTUGMZLYLDI-UHFFFAOYSA-N
Kind: experiment
Isotherm type: absolute
Temperature: 303 K
Tabular data in the source: 0
pressure (bar)	uptake (mmol/g)
0.0331	0.0378
0.2116	0.9018
0.2867	1.0933
0.4225	1.3578
0.5528	1.6059
0.6875	1.8188
0.8234	2.0128
0.9526	2.1841
1.0973	2.3592
1.2388	2.5129
1.3349	2.6225
1.6012	2.8845
1.8797	3.1088
2.2654	3.4011
3.038	3.8899
3.9941	4.3776
5.0498	4.7935
6.2416	5.193
7.6612	5.551
8.9161	5.8234
9.93	6.0189
