Adsorption isotherm of Carbon Dioxide on CS-CO2
DOI: 10.1016/j.fuproc.2015.10.038
Article source: Figure 1a
Adsorbate Carbon Dioxide: InChIKey CURLTUGMZLYLDI-UHFFFAOYSA-N
Kind: experiment
Isotherm type: absolute
Temperature: 303 K
Tabular data in the source: 0
pressure (bar)	uptake (mmol/g)
0.0287	0.0479
0.2216	0.8615
0.2911	1.058
0.4236	1.3351
0.5726	1.6488
0.6864	1.8591
0.8244	2.0619
0.936	2.2282
1.2287	2.6237
1.3359	2.7384
1.6055	3.0092
1.8729	3.2561
2.2476	3.5547
3.0267	4.0977
3.9608	4.5967
5.1115	5.0932
6.2491	5.4852
7.6499	5.8861
9.0717	6.2328
9.8224	6.3929
