Adsorption isotherm of Methane on CS-CO2
DOI: 10.1016/j.fuproc.2015.10.038
Article source: Figure 1b
Adsorbate Methane: InChIKey VNWKTOKETHGBQD-UHFFFAOYSA-N
Kind: experiment
Isotherm type: absolute
Temperature: 323 K
Tabular data in the source: 0
pressure (bar)	uptake (mmol/g)
0.0353	0.0237
0.2063	0.246
0.287	0.2977
0.425	0.4034
0.5508	0.5142
0.6856	0.604
0.8203	0.6817
0.9507	0.7571
1.0821	0.842
1.2025	0.8995
1.3494	0.9642
1.6179	1.0979
1.894	1.2222
2.284	1.3947
3.1105	1.6864
4.0122	1.9587
5.1605	2.2474
6.3386	2.5059
7.6848	2.7564
9.1261	2.9867
10.0037	3.1151
