Adsorption isotherm of Methane on CS-CO2
DOI: 10.1016/j.fuproc.2015.10.038
Article source: Figure 1b
Adsorbate Methane: InChIKey VNWKTOKETHGBQD-UHFFFAOYSA-N
Kind: experiment
Isotherm type: absolute
Temperature: 303 K
Tabular data in the source: 0
pressure (bar)	uptake (mmol/g)
0.032	0.0237
0.2017	0.3611
0.2922	0.4459
0.4235	0.6056
0.5582	0.74
0.6962	0.8493
0.8387	0.9478
0.9524	1.0464
1.0341	1.0801
1.0805	1.1405
1.2262	1.2786
1.3664	1.3663
1.636	1.5194
1.9077	1.6503
2.269	1.817
3.0954	2.1267
4.0523	2.4371
5.0834	2.6978
6.3301	2.9793
7.5735	3.2018
8.9606	3.4228
9.9289	3.5597
