Adsorption isotherm of Carbon Dioxide on CS-CO2
DOI: 10.1016/j.fuproc.2015.10.038
Article source: Figure 1a
Adsorbate Carbon Dioxide: InChIKey CURLTUGMZLYLDI-UHFFFAOYSA-N
Kind: experiment
Isotherm type: absolute
Temperature: 323 K
Tabular data in the source: 0
pressure (bar)	uptake (mmol/g)
0.0298	0.0516
0.2063	0.626
0.2792	0.7545
0.4139	0.9787
0.5586	1.1752
0.6846	1.339
0.8138	1.5052
0.9375	1.6438
1.0856	1.7836
1.2292	1.9701
1.3596	2.0948
1.5972	2.3064
1.8846	2.5131
2.2393	2.794
3.0616	3.3043
4.0278	3.7844
5.0547	4.2154
6.2642	4.6452
7.6472	5.0485
8.9253	5.375
9.9215	5.5755
