Adsorption isotherm of Carbon Dioxide on CS-H20
DOI: 10.1016/j.fuproc.2015.10.038
Article source: Figure 1a
Adsorbate Carbon Dioxide: InChIKey CURLTUGMZLYLDI-UHFFFAOYSA-N
Kind: experiment
Isotherm type: absolute
Temperature: 343 K
Tabular data in the source: 0
pressure (bar)	uptake (mmol/g)
0.0298	0.0277
0.2319	0.3955
0.2927	0.4824
0.423	0.655
0.5423	0.7936
0.6827	0.9108
0.8208	1.0317
0.9479	1.135
1.0905	1.2282
1.2253	1.3744
1.338	1.4563
1.6044	1.6314
1.8719	1.7864
2.2831	1.9993
3.0624	2.3522
4.0021	2.7151
5.0236	3.0378
6.2508	3.3567
7.6406	3.6657
9.0824	3.9519
9.9348	4.097
