Adsorption isotherm of Methane on CS-H2O
DOI: 10.1016/j.fuproc.2015.10.038
Article source: Figure 1b
Adsorbate Methane: InChIKey VNWKTOKETHGBQD-UHFFFAOYSA-N
Kind: experiment
Isotherm type: absolute
Temperature: 303 K
Tabular data in the source: 0
pressure (bar)	uptake (mmol/g)
0.0298	0.0266
0.2239	0.3481
0.2923	0.4272
0.4358	0.5689
0.5605	0.6825
0.7129	0.8069
0.8332	0.8888
0.9503	0.9852
1.0917	1.0542
1.2164	1.1491
1.3567	1.2383
1.6494	1.3986
1.9002	1.5272
2.3056	1.7184
3.1022	2.0138
4.0051	2.2846
5.0726	2.5647
6.3535	2.8447
7.7329	3.0859
9.2427	3.3025
10.1613	3.4251
