Adsorption isotherm of Methane on CS-CO2
DOI: 10.1016/j.fuproc.2015.10.038
Article source: Figure 1b
Adsorbate Methane: InChIKey VNWKTOKETHGBQD-UHFFFAOYSA-N
Kind: experiment
Isotherm type: absolute
Temperature: 343 K
Tabular data in the source: 0
pressure (bar)	uptake (mmol/g)
0.0276	0.0201
0.2098	0.1776
0.2992	0.2294
0.4108	0.3164
0.5488	0.3854
0.6936	0.4558
0.825	0.5241
0.9498	0.5816
1.0681	0.624
1.2294	0.6916
1.3454	0.7419
1.6448	0.8453
1.9	0.9467
2.3067	1.0889
3.1299	1.3238
4.0295	1.5644
5.0982	1.8021
6.3703	2.0397
7.5795	2.2478
9.0363	2.4544
9.9648	2.577
