Adsorption isotherm of Methane on CS-H2O
DOI: 10.1016/j.fuproc.2015.10.038
Article source: Figure 1b
Adsorbate Methane: InChIKey VNWKTOKETHGBQD-UHFFFAOYSA-N
Kind: experiment
Isotherm type: absolute
Temperature: 323 K
Tabular data in the source: 0
pressure (bar)	uptake (mmol/g)
0.0232	0.0194
0.2053	0.2337
0.2936	0.2984
0.414	0.3746
0.5631	0.4796
0.6989	0.5652
0.837	0.6514
0.9573	0.7226
1.0667	0.7938
1.2158	0.8462
1.3451	0.9275
1.66	1.041
1.8831	1.1402
2.2919	1.3076
3.1206	1.5835
4.0379	1.8378
5.0646	2.0698
6.2626	2.3045
7.6144	2.5291
8.9982	2.7292
10.0771	2.8633
