Adsorption isotherm of Carbon Dioxide on CS-H2O
DOI: 10.1016/j.fuproc.2015.10.038
Article source: Figure 1a
Adsorbate Carbon Dioxide: InChIKey CURLTUGMZLYLDI-UHFFFAOYSA-N
Kind: experiment
Isotherm type: absolute
Temperature: 323 K
Tabular data in the source: 0
pressure (bar)	uptake (mmol/g)
0.0331	0.0315
0.2262	0.5958
0.2902	0.7394
0.4383	0.9371
0.5553	1.1223
0.6879	1.2924
0.8216	1.4095
0.9409	1.5632
1.0768	1.6867
1.2448	1.8983
1.3431	1.9852
1.5973	2.1944
1.8758	2.3871
2.266	2.6303
3.0265	3.0411
3.9971	3.4406
5.0849	3.8363
6.2457	4.1754
7.4674	4.4717
9.0286	4.8045
9.9552	4.9735
