Adsorption isotherm of Nitrogen on ZIF-8-SiO2
DOI: 10.1002/chem.201301461
Adsorbate Nitrogen: InChIKey IJGRMHOSHXDMSA-UHFFFAOYSA-N
Temperature: 77 K
Tabular data in the source: 0
pressure (bar)	uptake (cm3(STP)/g)
0.00515504	82.681
0.025177	120.58
0.0423388	136.311
0.0795225	142.032
0.115276	144.892
0.201085	151.328
0.285463	159.194
0.438488	170.635
0.514286	178.501
0.597234	189.942
0.678752	208.534
0.75312	231.416
0.830348	257.874
0.919016	276.465
0.994814	309.359
