Adsorption isotherm of Nitrogen on SiO2
DOI: 10.1002/chem.201301461
Adsorbate Nitrogen: InChIKey IJGRMHOSHXDMSA-UHFFFAOYSA-N
Temperature: 77 K
Tabular data in the source: 0
pressure (bar)	uptake (cm3(STP)/g)
0.00372489	24.7602
0.025177	43.3521
0.0566402	49.7877
0.0909636	54.0781
0.123857	56.2234
0.201085	65.5193
0.284033	72.67
0.437058	87.6865
0.518576	101.988
0.598664	117.004
0.668741	138.457
0.744539	177.786
0.826057	234.276
0.910436	255.013
0.991954	265.024
