Adsorption isotherm of Nitrogen on ZIF-8
DOI: 10.1002/chem.201301461
Adsorbate Nitrogen: InChIKey IJGRMHOSHXDMSA-UHFFFAOYSA-N
Temperature: 77 K
Tabular data in the source: 0
pressure (bar)	uptake (cm3(STP)/g)
0.00372489	258.589
0.0194565	360.129
0.0394785	400.888
0.0595005	410.184
0.0780923	413.044
0.112416	414.474
0.206805	417.334
0.275452	420.195
0.35983	421.625
0.437058	425.2
0.520007	427.345
0.747399	431.636
0.838928	436.641
0.911866	446.652
