Adsorption isotherm of Carbon Dioxide on Zeolite 13X
DOI: 10.1002/ente.201600688
Article source: Figure 2
Adsorbate Carbon Dioxide: InChIKey CURLTUGMZLYLDI-UHFFFAOYSA-N
Kind: experiment
Temperature: 323 K
Tabular data in the source: 0
pressure (bar)	uptake (mmol/g)
0.0287	0.0155
1.003	1.4982
1.9906	2.3853
2.9975	3.2008
4.0044	3.6116
4.992	3.8973
