Adsorption isotherm of Carbon Dioxide, Methane on Zeolite 13X
DOI: 10.1002/ente.201600688
Article source: Figure 13
Adsorbate Carbon Dioxide: InChIKey CURLTUGMZLYLDI-UHFFFAOYSA-N
Adsorbate Methane: InChIKey VNWKTOKETHGBQD-UHFFFAOYSA-N
Kind: experiment
Temperature: 323 K
Tabular data in the source: 0
pressure (bar)	Carbon Dioxide fraction	Carbon Dioxide uptake (mmol/g)	Methane fraction	Methane uptake (mmol/g)	total uptake (mmol/g)
0.0373	30	0.0147	70	0.0147	0.0147
1.4928	30	0.4217	70	0.2662	0.6532
2.5126	30	0.6344	70	0.409	1.0033
4.0124	30	1.0057	70	0.7074	1.628
5.2871	30	1.2787	70	0.8725	2.0942
6.4719	30	1.4818	70	0.9772	2.4381
7.5367	30	1.6373	70	1.1042	2.734
8.4815	30	1.8246	70	1.1614	3.0259
9.8087	30	1.8595	70	1.1868	3.2299
