Adsorption isotherm of Methane on Zeolite 13X
DOI: 10.1002/ente.201600688
Article source: Figure 2
Adsorbate Methane: InChIKey VNWKTOKETHGBQD-UHFFFAOYSA-N
Kind: experiment
Temperature: 323 K
Tabular data in the source: 0
pressure (bar)	uptake (mmol/g)
0.0287	0.0155
1.003	0.1528
1.9809	0.3076
2.9975	0.516
3.9948	0.6946
5.0017	0.8553
