Adsorption isotherm of Carbon Dioxide, Methane on Zeolite 13X
DOI: 10.1002/ente.201600688
Article source: Figure 13
Adsorbate Carbon Dioxide: InChIKey CURLTUGMZLYLDI-UHFFFAOYSA-N
Adsorbate Methane: InChIKey VNWKTOKETHGBQD-UHFFFAOYSA-N
Kind: experiment
Temperature: 323 K
Tabular data in the source: 0
pressure (bar)	Carbon Dioxide fraction	Carbon Dioxide uptake (mmol/g)	Methane fraction	Methane uptake (mmol/g)	total uptake (mmol/g)
0.0385	70	0.0217	30	0.0217	0.0217
1.2869	70	1.3842	30	0.308	1.6389
2.5114	70	2.2298	30	0.343	2.5634
4.0104	70	2.9031	30	0.4782	3.3012
5.4747	70	3.2679	30	0.5345	3.7521
6.9873	70	3.4174	30	0.5692	3.9339
8.5119	70	3.5382	30	0.6399	4.1229
9.4887	70	3.5877	30	0.675	4.1975
