Adsorption isotherm of Carbon Dioxide, Methane, Water on Zeolite 13X
DOI: 10.1002/ente.201600688
Article source: Figure 10
Adsorbate Carbon Dioxide: InChIKey CURLTUGMZLYLDI-UHFFFAOYSA-N
Adsorbate Methane: InChIKey VNWKTOKETHGBQD-UHFFFAOYSA-N
Adsorbate Water: InChIKey XLYOFNOQVPJJNP-UHFFFAOYSA-N
Kind: experiment
Temperature: 323 K
Tabular data in the source: 0
pressure (bar)	Carbon Dioxide fraction	Carbon Dioxide uptake (mmol/g)	Methane fraction	Methane uptake (mmol/g)	Water fraction	Water uptake (mmol/g)	total uptake (mmol/g)
0.0244	30	0.0095	69	0.0095	1	0.0095	0.0095
1.4749	30	0.4631	69	0.2913	1	0.0609	0.6795
2.5161	30	0.658	69	0.3919	1	0.0699	1.0894
3.944	30	1.0382	69	0.669	1	0.0756	1.6758
5.3006	30	1.3057	69	0.8578	1	0.0814	2.155
7.4665	30	1.6605	69	1.1062	1	0.0804	2.7443
9.6622	30	1.9276	69	1.2378	1	0.089	3.0905
