Adsorption isotherm of Carbon Dioxide, Water on Zeolite 13X
DOI: 10.1002/ente.201600688
Article source: Figure 9
Adsorbate Carbon Dioxide: InChIKey CURLTUGMZLYLDI-UHFFFAOYSA-N
Adsorbate Water: InChIKey XLYOFNOQVPJJNP-UHFFFAOYSA-N
Kind: experiment
Temperature: 323 K
Tabular data in the source: 0
pressure (bar)	Carbon Dioxide fraction	Carbon Dioxide uptake (mmol/g)	Water fraction	Water uptake (mmol/g)	total uptake (mmol/g)
0.0243	99	0.00386	1	0.00386	0.00386
1.2595	99	0.14034	1	0.01209	0.15752
2.4087	99	0.2538	1	0.01333	0.27442
4.0195	99	0.40509	1	0.01804	0.4383
5.4325	99	0.51285	1	0.02274	0.55293
6.9774	99	0.6252	1	0.02745	0.67788
8.3245	99	0.72608	1	0.03099	0.78677
9.502	99	0.78229	1	0.04025	0.84184
