Adsorption isotherm of Carbon Dioxide, Methane, Water on Zeolite 13X
DOI: 10.1002/ente.201600688
Article source: Figure 10
Adsorbate Carbon Dioxide: InChIKey CURLTUGMZLYLDI-UHFFFAOYSA-N
Adsorbate Methane: InChIKey VNWKTOKETHGBQD-UHFFFAOYSA-N
Adsorbate Water: InChIKey XLYOFNOQVPJJNP-UHFFFAOYSA-N
Kind: experiment
Temperature: 323 K
Tabular data in the source: 0
pressure (bar)	Carbon Dioxide fraction	Carbon Dioxide uptake (mmol/g)	Methane fraction	Methane uptake (mmol/g)	Water fraction	Water uptake (mmol/g)	total uptake (mmol/g)
0.0312	50	0.0173	49	0.0173	1	0.0173	0.0173
1.4941	50	0.808	49	0.3149	1	0.0335	0.9889
2.4927	50	1.2262	49	0.4453	1	0.0386	1.6061
3.9719	50	1.7743	49	0.6652	1	0.0435	2.3328
5.5037	50	2.1477	49	0.8492	1	0.0383	2.995
7.0055	50	2.3994	49	0.931	1	0.0484	3.2914
8.4624	50	2.5495	49	1.005	1	0.0508	3.5378
9.6639	50	2.6346	49	1.0433	1	0.0839	3.6086
