Adsorption isotherm of Carbon Dioxide, Methane, Water on Zeolite 13X
DOI: 10.1002/ente.201600688
Article source: Figure 10
Adsorbate Carbon Dioxide: InChIKey CURLTUGMZLYLDI-UHFFFAOYSA-N
Adsorbate Methane: InChIKey VNWKTOKETHGBQD-UHFFFAOYSA-N
Adsorbate Water: InChIKey XLYOFNOQVPJJNP-UHFFFAOYSA-N
Kind: experiment
Temperature: 323 K
Tabular data in the source: 0
pressure (bar)	Carbon Dioxide fraction	Carbon Dioxide uptake (mmol/g)	Methane fraction	Methane uptake (mmol/g)	Water fraction	Water uptake (mmol/g)	total uptake (mmol/g)
0.0357	70	0.017	29	0.017	1	0.017	0.017
1.5269	70	1.4434	29	0.2863	1	0.0784	1.7055
2.5185	70	2.2121	29	0.3409	1	0.0878	2.5601
4.021	70	2.8815	29	0.4679	1	0.1063	3.2521
5.5235	70	3.2435	29	0.5678	1	0.1158	3.7859
7.026	70	3.3796	29	0.6406	1	0.1796	4.0168
8.4984	70	3.4885	29	0.641	1	0.2343	4.1348
9.49	70	3.5521	29	0.6956	1	0.2436	4.1351
