Adsorption isotherm of Methane on Zeolite 13X
DOI: 10.1002/ente.201600688
Article source: Figure 2
Adsorbate Methane: InChIKey VNWKTOKETHGBQD-UHFFFAOYSA-N
Kind: experiment
Temperature: 323 K
Tabular data in the source: 0
pressure (bar)	uptake (mmol/g)
0.0287	0.0155
1.02	0.1053
1.9959	0.1915
3.0084	0.3723
4.0074	0.5683
4.9987	0.7632
6.0323	0.9912
7.0024	1.1909
8.0149	1.3078
8.9928	1.3952
