Adsorption isotherm of Carbon Dioxide, Methane on Zeolite 13X
DOI: 10.1002/ente.201600688
Article source: Figure 13
Adsorbate Carbon Dioxide: InChIKey CURLTUGMZLYLDI-UHFFFAOYSA-N
Adsorbate Methane: InChIKey VNWKTOKETHGBQD-UHFFFAOYSA-N
Kind: experiment
Temperature: 323 K
Tabular data in the source: 0
pressure (bar)	Carbon Dioxide fraction	Carbon Dioxide uptake (mmol/g)	Methane fraction	Methane uptake (mmol/g)	total uptake (mmol/g)
0.0394	50	0.0164	50	0.0164	0.0164
1.5427	50	0.8052	50	0.302	1.0247
2.5166	50	1.2226	50	0.4058	1.6185
4.0385	50	1.7086	50	0.6194	2.3769
5.5036	50	2.135	50	0.8213	2.9981
7.1857	50	2.387	50	0.9597	3.3648
8.4991	50	2.5243	50	1.0114	3.535
9.529	50	2.5929	50	1.0747	3.5955
