Adsorption isotherm of Carbon Dioxide on Zeolite 13X
DOI: 10.1002/ente.201600688
Article source: Figure 2
Adsorbate Carbon Dioxide: InChIKey CURLTUGMZLYLDI-UHFFFAOYSA-N
Kind: experiment
Temperature: 323 K
Tabular data in the source: 0
pressure (bar)	uptake (mmol/g)
0.0198	0.0159
0.9988	1.7026
1.9929	2.7789
2.9993	3.529
4.0057	3.8515
5.006	4.0878
6.0001	4.2828
7.0065	4.4028
8.0129	4.5303
9.0193	4.6165
