Adsorption isotherm of Carbon Dioxide, Water on Zeolite 13X
DOI: 10.1002/ente.201600688
Article source: Figure 9
Adsorbate Carbon Dioxide: InChIKey CURLTUGMZLYLDI-UHFFFAOYSA-N
Adsorbate Water: InChIKey XLYOFNOQVPJJNP-UHFFFAOYSA-N
Kind: experiment
Temperature: 323 K
Tabular data in the source: 0
pressure (bar)	Carbon Dioxide fraction	Carbon Dioxide uptake (mmol/g)	Water fraction	Water uptake (mmol/g)	total uptake (mmol/g)
0.0243	99	0.0123	1	0.0123	0.0123
1.5267	99	2.0281	1	0.1354	2.1713
2.608	99	2.9197	1	0.149	3.0773
4.0094	99	3.4797	1	0.1366	3.6843
5.5767	99	3.643	1	0.1438	3.8654
7.0015	99	3.7413	1	0.164	3.993
8.5333	99	3.9371	1	0.1712	4.1371
9.7087	99	3.9897	1	0.1913	4.2278
