Adsorption isotherm of N-propane on Zeolite 4A
DOI: 10.1021/ie049489l
Adsorbate N-propane: InChIKey ATUOYWHBWRKTHZ-UHFFFAOYSA-N
Temperature: 423 K
Tabular data in the source: 0
pressure (bar)	uptake (mmol/g)
0.00561856	0.00284739
0.184492	0.177495
0.201393	0.126791
