Adsorption isotherm of N-propane on Zeolite 4A
DOI: 10.1021/ie049489l
Adsorbate N-propane: InChIKey ATUOYWHBWRKTHZ-UHFFFAOYSA-N
Temperature: 473 K
Tabular data in the source: 0
pressure (bar)	uptake (mmol/g)
0.00561856	0.00284739
0.147872	0.0901713
0.27745	0.149326
0.899985	0.402847
