Adsorption isotherm of N-propane on Zeolite 4A
DOI: 10.1021/ie049489l
Adsorbate N-propane: InChIKey ATUOYWHBWRKTHZ-UHFFFAOYSA-N
Temperature: 473 K
Tabular data in the source: 0
pressure (bar)	uptake (mmol/g)
0.00280166	0.00566429
0.136604	0.0591854
0.197168	0.104256
0.449281	0.242284
0.791534	0.380312
