Adsorption isotherm of Propene on Zeolite 4A
DOI: 10.1021/ie049489l
Adsorbate Propene: InChIKey QQONPFPTGQHPMA-UHFFFAOYSA-N
Temperature: 473 K
Tabular data in the source: 0
pressure (bar)	uptake (mmol/g)
0.0394785	0.184849
0.0766622	0.264937
0.203945	0.465157
0.326937	0.59387
0.532878	0.696841
0.864671	0.88848
