Adsorption isotherm of Propene on Zeolite 4A
DOI: 10.1021/ie049489l
Adsorbate Propene: InChIKey QQONPFPTGQHPMA-UHFFFAOYSA-N
Temperature: 473 K
Tabular data in the source: 0
pressure (bar)	uptake (mmol/g)
0.132438	0.302121
0.35268	0.576709
0.796024	0.848436
