Adsorption isotherm of Propene on Zeolite 4A
DOI: 10.1021/ie049489l
Adsorbate Propene: InChIKey QQONPFPTGQHPMA-UHFFFAOYSA-N
Temperature: 373 K
Tabular data in the source: 0
pressure (bar)	uptake (mmol/g)
0.0308976	0.857017
0.246849	1.37473
