Adsorption isotherm of Propene on Zeolite 4A
DOI: 10.1021/ie049489l
Adsorbate Propene: InChIKey QQONPFPTGQHPMA-UHFFFAOYSA-N
Temperature: 423 K
Tabular data in the source: 0
pressure (bar)	uptake (mmol/g)
0.025177	0.216313
0.0394785	0.339305
0.0466292	0.410812
0.129577	0.685399
0.206805	0.857017
0.298334	1.06296
0.332658	1.13446
0.514286	1.26604
0.663021	1.43193
0.733098	1.41763
1.02914	1.58925
