Adsorption isotherm of Propene on Zeolite 4A
DOI: 10.1021/ie049489l
Adsorbate Propene: InChIKey QQONPFPTGQHPMA-UHFFFAOYSA-N
Temperature: 473 K
Tabular data in the source: 0
pressure (bar)	uptake (mmol/g)
0.0523498	0.113342
0.0623608	0.161967
0.106695	0.262077
0.284033	0.542385
0.305485	0.579569
0.441349	0.754046
0.65587	0.945686
0.987663	1.15735
1.14784	1.18309
