Adsorption isotherm of Propene on Zeolite 4A
DOI: 10.1021/ie049489l
Adsorbate Propene: InChIKey QQONPFPTGQHPMA-UHFFFAOYSA-N
Temperature: 423 K
Tabular data in the source: 0
pressure (bar)	uptake (mmol/g)
0.0237469	0.385069
0.120997	0.776929
0.171052	0.882759
0.395584	1.13446
0.517146	1.19453
0.683043	1.27176
1.13497	1.44338
