Adsorption isotherm of N-propane on Zeolite 4A
DOI: 10.1021/ie049489l
Adsorbate N-propane: InChIKey ATUOYWHBWRKTHZ-UHFFFAOYSA-N
Temperature: 423 K
Tabular data in the source: 0
pressure (bar)	uptake (mmol/g)
0.00843546	0.0084812
0.502802	0.369045
1.14506	0.690171
