Adsorption isotherm of Propene on Zeolite 4A
DOI: 10.1021/ie049489l
Adsorbate Propene: InChIKey QQONPFPTGQHPMA-UHFFFAOYSA-N
Temperature: 423 K
Tabular data in the source: 0
pressure (bar)	uptake (mmol/g)
0.0566402	0.553826
0.182493	0.796951
0.221107	0.919943
0.469952	1.15735
0.791734	1.31466
0.993384	1.41191
