Adsorption isotherm of Propene on Zeolite 4A
DOI: 10.1021/ie049489l
Adsorbate Propene: InChIKey QQONPFPTGQHPMA-UHFFFAOYSA-N
Temperature: 373 K
Tabular data in the source: 0
pressure (bar)	uptake (mmol/g)
0.00801532	0.796951
0.0981143	1.13732
0.195364	1.39189
0.279743	1.48628
0.478532	1.62929
0.65015	1.71796
0.936178	1.81235
