Adsorption isotherm of Propene on Zeolite 4A
DOI: 10.1021/ie049489l
Adsorbate Propene: InChIKey QQONPFPTGQHPMA-UHFFFAOYSA-N
Temperature: 373 K
Tabular data in the source: 0
pressure (bar)	uptake (mmol/g)
0.0108756	0.407952
0.0680813	1.02291
0.165331	1.40047
0.245419	1.54349
0.348389	1.65218
0.515716	1.75801
1.12496	2.01543
