Adsorption isotherm of N-propane on Zeolite 4A
DOI: 10.1021/ie049489l
Adsorbate N-propane: InChIKey ATUOYWHBWRKTHZ-UHFFFAOYSA-N
Temperature: 423 K
Tabular data in the source: 0
pressure (bar)	uptake (mmol/g)
0.00139321	0.0112981
0.161957	0.194397
0.550689	0.428199
1.19576	0.740876
