Adsorption isotherm of Propene on Zeolite 4A
DOI: 10.1021/ie049489l
Adsorbate Propene: InChIKey QQONPFPTGQHPMA-UHFFFAOYSA-N
Temperature: 373 K
Tabular data in the source: 0
pressure (bar)	uptake (mmol/g)
0.0223168	0.942825
0.120997	1.24602
0.274022	1.41763
0.472812	1.58353
0.773142	1.74943
1.02485	1.84382
