Adsorption isotherm of Hydrogen on IRMOF-14 SO3H
DOI: 10.1021/Ja9043888
Adsorbate Hydrogen: InChIKey UFHFLCQGNIYNRP-UHFFFAOYSA-N
Temperature: 300 K
Tabular data in the source: 0
pressure (bar)	uptake (wt%)
6.90106	0.133333
9.20077	0.183333
11.2142	0.216667
13.5149	0.258333
16.1018	0.316667
18.4035	0.35
20.9914	0.4
23.292	0.441667
24.7291	0.475
27.0317	0.5
29.3314	0.55
31.633	0.583333
33.9337	0.625
35.9472	0.658333
38.2478	0.7
40.8386	0.725
43.1383	0.775
45.7281	0.808333
48.0288	0.85
49.4659	0.883333
51.7675	0.916667
54.3564	0.958333
56.9462	0.991667
59.2478	1.025
61.8377	1.05833
64.4256	1.10833
66.7281	1.13333
69.0288	1.175
71.6196	1.2
73.9203	1.24167
76.511	1.26667
79.0999	1.30833
81.4025	1.33333
83.9923	1.36667
86.2939	1.4
88.8838	1.43333
91.4736	1.46667
94.0634	1.5
96.366	1.525
98.9558	1.55833
