Adsorption isotherm of Hydrogen on IRMOF-14
DOI: 10.1021/Ja9043888
Adsorbate Hydrogen: InChIKey UFHFLCQGNIYNRP-UHFFFAOYSA-N
Temperature: 77 K
Tabular data in the source: 0
pressure (bar)	uptake (wt%)
0.859599	1.28463
1.7192	1.80671
2.00573	2.16803
3.15186	2.81063
4.29799	3.37296
5.15759	3.73451
10.3152	5.38207
14.8997	6.34712
19.7708	7.11161
24.9284	7.71569
29.7994	8.23938
34.957	8.56252
39.8281	8.92568
44.6991	9.20857
49.8567	9.41131
54.4413	9.57369
59.5989	9.81656
64.4699	9.93892
69.6275	10.1417
75.0716	10.2642
79.9427	10.3866
85.1003	10.4689
89.9713	10.6314
95.1289	10.6736
100	10.796
