Adsorption isotherm of Hydrogen on IRMOF-14 SO3Li
DOI: 10.1021/Ja9043888
Adsorbate Hydrogen: InChIKey UFHFLCQGNIYNRP-UHFFFAOYSA-N
Temperature: 77 K
Tabular data in the source: 0
pressure (bar)	uptake (wt%)
0.859599	3.81305
1.43266	4.41529
2.00573	4.81686
2.29226	5.09791
3.4384	5.49971
4.01146	5.78087
5.44413	6.14265
6.01719	6.30342
7.44986	6.6652
8.88252	6.98684
10.6017	7.26847
12.3209	7.5501
14.6132	7.91222
16.9054	8.07367
19.1977	8.3154
21.49	8.43672
24.0688	8.59829
26.361	8.71961
28.9398	8.88118
31.8052	8.9626
34.384	9.08403
36.9628	9.16534
39.5415	9.28677
42.1203	9.32794
44.4126	9.40913
45.5587	9.44972
48.4241	9.53114
50.7163	9.57219
53.2951	9.61336
55.8739	9.65453
58.4527	9.73583
60.745	9.73675
63.6103	9.81817
65.616	9.85911
68.4814	9.90039
70.2006	9.94122
72.7794	9.98239
75.9312	10.0238
78.7966	10.0651
81.6619	10.1064
84.2407	10.1475
86.8195	10.1887
89.6848	10.1898
92.5501	10.2311
95.4155	10.2724
98.2808	10.2736
