Adsorption isotherm of Hydrogen on IRMOF-14 SO3H
DOI: 10.1021/Ja9043888
Adsorbate Hydrogen: InChIKey UFHFLCQGNIYNRP-UHFFFAOYSA-N
Temperature: 77 K
Tabular data in the source: 0
pressure (bar)	uptake (wt%)
1.43266	1.43266
1.7192	2.44885
2.5788	2.8104
3.15186	3.05143
4.01146	3.57352
4.87106	3.89493
6.01719	4.09606
7.16332	4.45772
8.59599	4.8195
9.45559	5.18105
11.1748	5.42255
12.894	5.74431
16.0458	6.18704
18.3381	6.42876
19.7708	6.63001
22.063	6.8316
26.0745	7.15428
28.6533	7.31585
30.9456	7.43717
33.2378	7.63876
35.5301	7.71995
38.1089	7.88152
40.9742	7.96293
43.2665	8.08425
46.1318	8.16567
48.7106	8.28711
51.2894	8.36841
52.7221	8.40912
55.5874	8.4504
58.1662	8.53171
61.0315	8.61312
61.6046	8.65349
64.4699	8.69477
67.3352	8.73605
69.914	8.81736
72.4928	8.85853
73.639	8.89912
76.5043	8.9404
79.3696	8.98169
81.9484	9.02286
84.8138	9.06414
87.3926	9.14544
90.2579	9.14659
92.8367	9.18776
95.702	9.22904
100	9.31104
