Adsorption isotherm of Hydrogen on IRMOF-14
DOI: 10.1021/Ja9043888
Adsorbate Hydrogen: InChIKey UFHFLCQGNIYNRP-UHFFFAOYSA-N
Temperature: 300 K
Tabular data in the source: 0
pressure (bar)	uptake (wt%)
5.17483	0.108333
9.77233	0.225
14.9462	0.341667
19.5456	0.441667
25.0086	0.55
30.1844	0.65
34.7839	0.75
39.9606	0.841667
44.56	0.941667
49.7358	1.04167
54.6254	1.125
60.3756	1.24167
62.9645	1.28333
64.6897	1.31667
70.7301	1.41667
74.757	1.48333
79.6475	1.55833
84.8252	1.64167
90.8655	1.74167
93.4544	1.78333
99.7848	1.86667
