Adsorption isotherm of Hydrogen on IRMOF-14 SO3Li
DOI: 10.1021/Ja9043888
Adsorbate Hydrogen: InChIKey UFHFLCQGNIYNRP-UHFFFAOYSA-N
Temperature: 300 K
Tabular data in the source: 0
pressure (bar)	uptake (wt%)
2.57925	0.125
4.30163	0.183333
6.31316	0.233333
8.03458	0.3
9.75504	0.375
11.7666	0.425
13.7781	0.475
16.0759	0.541667
18.0874	0.591667
20.098	0.65
22.1095	0.7
24.1201	0.758333
26.4217	0.791667
28.4332	0.841667
30.7339	0.883333
32.7445	0.941667
34.4678	0.991667
36.4813	1.025
38.781	1.075
41.0826	1.10833
43.0932	1.16667
45.3948	1.2
47.4063	1.25
49.4188	1.29167
51.7205	1.325
54.0202	1.375
56.3218	1.40833
58.6215	1.45833
59.196	1.475
61.7867	1.5
64.0865	1.55
66.3881	1.58333
68.6878	1.63333
70.9904	1.65833
74.1537	1.71667
76.4563	1.74167
78.757	1.78333
81.0586	1.81667
83.6484	1.85
85.6628	1.875
88.2517	1.91667
90.8415	1.95
93.1422	1.99167
95.1566	2.01667
97.7454	2.05833
99.7589	2.09167
