Adsorption isotherm of Nitrogen on IFMC-69
DOI: 10.1039/C3sc52666f
Adsorbate Nitrogen: InChIKey IJGRMHOSHXDMSA-UHFFFAOYSA-N
Temperature: 298 K
Tabular data in the source: 0
pressure (bar)	uptake (cm3(STP)/g)
0.0245538	0.582548
0.0449814	0.570512
0.0817714	0.847342
0.106265	0.534403
0.14714	0.808826
0.163482	0.799198
0.196166	0.77994
0.220679	0.765496
0.245213	1.04955
0.273812	1.0327
0.290153	1.02307
0.318752	1.00622
0.371864	0.974925
0.424996	1.24213
0.474001	0.914744
0.523049	1.18435
0.572055	0.856971
0.621081	0.828084
0.674192	0.79679
0.727324	1.06399
0.772265	1.03751
0.829442	0.705316
0.878489	0.974925
0.927474	0.349047
0.9765	0.32016
0.996929	0.308124
