Adsorption isotherm of Nitrogen on IFMC-69
DOI: 10.1039/C3sc52666f
Adsorbate Nitrogen: InChIKey IJGRMHOSHXDMSA-UHFFFAOYSA-N
Temperature: 77 K
Tabular data in the source: 0
pressure (bar)	uptake (cm3(STP)/g)
9.09152e-05	2.62774
0.00397754	24.9635
0.0048867	51.2409
0.00581857	78.1752
0.00670499	103.796
0.00754596	128.102
0.020365	138.613
0.0455258	145.839
0.0830283	149.781
0.129781	151.095
0.189013	153.066
0.241971	153.723
0.288724	155.036
0.341682	155.693
0.435143	157.007
0.488101	157.664
0.581539	158.321
0.637588	158.321
0.727912	158.978
0.780871	159.635
0.874332	160.949
0.921062	161.606
0.955428	164.891
