Adsorption isotherm of Carbon Dioxide on IFMC-69
DOI: 10.1039/C3sc52666f
Adsorbate Carbon Dioxide: InChIKey CURLTUGMZLYLDI-UHFFFAOYSA-N
Temperature: 298 K
Tabular data in the source: 0
pressure (bar)	uptake (cm3(STP)/g)
1.29657	0.88345
2.07734	2.07021
3.37519	3.25216
4.67177	4.13561
6.74656	5.60883
8.3029	6.78837
9.85931	7.9679
11.6743	9.14504
12.9708	10.0285
14.5273	11.208
16.3422	12.3852
17.8973	13.2662
19.4537	14.4457
22.3041	15.9117
23.0823	16.5015
25.4156	17.9723
26.4511	18.2612
28.5245	19.4359
29.3027	20.0257
31.8946	21.4941
32.6715	21.7854
35.0035	22.9577
35.7817	23.5474
38.371	24.4189
39.1479	24.7101
41.7398	26.1785
42.5179	26.7683
44.8487	27.6421
45.3696	28.5328
47.9576	29.1057
51.3238	30.2684
57.2819	32.8995
63.4946	34.6327
