Adsorption isotherm of Carbon Dioxide on IFMC-69
DOI: 10.1039/C3sc52666f
Adsorbate Carbon Dioxide: InChIKey CURLTUGMZLYLDI-UHFFFAOYSA-N
Temperature: 273 K
Tabular data in the source: 0
pressure (bar)	uptake (cm3(STP)/g)
0.703313	1.48044
1.126	2.6672
1.40802	3.55787
1.69143	5.04554
2.25547	6.82688
2.81813	8.01123
3.52212	9.79017
4.3661	11.5667
4.50748	12.1613
5.21077	13.6417
5.91478	15.4207
6.1961	16.0128
7.03938	17.4909
7.74339	19.2698
8.02332	19.265
8.58737	21.0463
9.42996	22.2259
10.1347	24.3033
11.5413	27.2642
12.1032	28.1501
13.2271	29.9218
14.0697	31.1013
15.0537	32.8754
15.4756	33.7637
17.0216	36.4237
17.4428	37.0134
18.7067	38.7827
19.2687	39.6686
20.5318	41.1394
21.0945	42.3238
22.357	43.4961
22.9189	44.3819
24.0422	45.8552
24.6041	46.741
26.0066	47.9109
26.4285	48.7992
27.9702	49.6682
28.3916	50.258
29.7961	52.3234
33.4422	55.2457
34.2847	56.4253
