Adsorption isotherm of Nitrogen on IFMC-68
DOI: 10.1039/C3sc52666f
Adsorbate Nitrogen: InChIKey IJGRMHOSHXDMSA-UHFFFAOYSA-N
Temperature: 77 K
Tabular data in the source: 0
pressure (bar)	uptake (cm3(STP)/g)
0.0250471	3.94161
0.0406163	3.94161
0.062436	4.59854
0.0904607	4.59854
0.115372	4.59854
0.140305	5.25547
0.162102	5.25547
0.196354	5.25547
0.227493	5.25547
0.25238	4.59854
0.277291	4.59854
0.305316	4.59854
0.323977	3.94161
0.355115	3.94161
0.383117	3.28467
0.417369	3.28467
0.445393	3.28467
0.473441	3.94161
0.485874	3.28467
0.513898	3.28467
0.551265	3.28467
0.585517	3.28467
0.622838	1.9708
0.672659	1.9708
0.694456	1.9708
0.725594	1.9708
0.775416	1.9708
0.809691	2.62774
0.837715	2.62774
0.856399	2.62774
0.88131	2.62774
0.90622	2.62774
0.937358	2.62774
0.952996	4.59854
