Adsorption isotherm of Nitrogen on IFMC-69
DOI: 10.1039/C3sc52666f
Adsorbate Nitrogen: InChIKey IJGRMHOSHXDMSA-UHFFFAOYSA-N
Temperature: 273 K
Tabular data in the source: 0
pressure (bar)	uptake (cm3(STP)/g)
0.0123785	1.78375
0.0656326	3.84193
0.102503	5.31274
0.13527	6.48746
0.163929	7.3661
0.188462	7.65015
0.221167	7.92939
0.2457	8.21344
0.270214	8.199
0.294727	8.18455
0.323345	8.4662
0.372393	8.73581
0.421439	9.00542
0.470485	9.27503
0.523617	9.54223
0.572643	9.51334
0.625756	9.48205
0.674802	9.75165
0.723849	10.0213
0.77698	10.2885
0.826007	10.2596
0.879139	10.5268
0.92408	10.5003
0.981277	10.4666
1.00171	10.4546
