Adsorption isotherm of Fluoride Ion on Ce-Zn BMO
DOI: 10.1016/j.jfluchem.2017.05.002
Article source: Figure 12
Adsorbate Fluoride Ion: InChIKey KRHYYFGTRYWZRS-UHFFFAOYSA-M
Kind: experiment
Temperature: 298 K
Tabular data in the source: 0
pressure (bar)	uptake (mg/g)
1.01325	26.5013
1.01325	24.9495
1.01325	22.1185
1.01325	19.3199
1.01325	16.5025
1.01325	13.7887
1.01325	11.8235
1.01325	10.5709
1.01325	10.0376
