Adsorption isotherm of Fluoride Ion on Ce-Zn BMO
DOI: 10.1016/j.jfluchem.2017.05.002
Article source: Figure 12
Adsorbate Fluoride Ion: InChIKey KRHYYFGTRYWZRS-UHFFFAOYSA-M
Kind: experiment
Temperature: 298 K
Tabular data in the source: 0
pressure (bar)	uptake (mg/g)
1.01325	24.0599
1.01325	23.0325
1.01325	20.7577
1.01325	18.3979
1.01325	15.3889
1.01325	12.9818
1.01325	11.0265
1.01325	9.73871
1.01325	9.29014
