Adsorption isotherm of Nitrogen on Ce-Zn BMO
DOI: 10.1016/j.jfluchem.2017.05.002
Article source: Figure 8
Adsorbate Nitrogen: InChIKey IJGRMHOSHXDMSA-UHFFFAOYSA-N
Kind: experiment
Temperature: 77 K
Tabular data in the source: 0
pressure (bar)	uptake (cm3(STP)/g)
0.101455	35.99
0.14323	48.66
0.182868	60.66
0.216537	71.3
0.2451	82.62
0.283036	93.48
0.312885	104.57
0.340162	115.89
0.377246	125.85
0.408362	136.49
0.440755	144.41
0.462925	154.59
0.490211	164.33
0.532412	177.46
0.559262	187.64
0.588676	194.66
0.596782	201
0.627037	210.05
0.652621	221.37
0.676909	224.08
0.688429	234.95
0.735311	245.59
0.735747	253.28
0.788192	277.05
0.961991	263.69
1.01528	285.2
1.02339	299.68
1.06218	306.7
1.07117	328.66
1.10738	332.5
1.11639	368.49
1.15729	371.89
1.15864	412.63
1.2056	470.12
