Adsorption isotherm of Fluoride Ion on Ce-Zn BMO
DOI: 10.1016/j.jfluchem.2017.05.002
Article source: Figure 12
Adsorbate Fluoride Ion: InChIKey KRHYYFGTRYWZRS-UHFFFAOYSA-M
Kind: experiment
Temperature: 298 K
Tabular data in the source: 0
pressure (bar)	uptake (mg/g)
1.01325	24.4594
1.01325	21.332
1.01325	18.356
1.01325	15.5366
1.01325	13.3127
1.01325	11.3353
1.01325	10.0406
1.01325	9.55128
