Adsorption isotherm of Nitrogen on IRMOF-1
DOI: 10.1021/Jp051771y
Adsorbate Nitrogen: InChIKey IJGRMHOSHXDMSA-UHFFFAOYSA-N
Temperature: 298 K
Tabular data in the source: 0
pressure (bar)	uptake (cm3(STP)/g)
0.332484	7.82855
0.545263	8.2005
0.982696	22.4938
1.99243	36.8757
2.97429	57.9525
4.04048	72.0333
4.99563	92.9685
6.47453	113.939
10.3782	190.471
12.5363	239.09
15.1408	273.858
17.4486	329.366
20.1025	357.173
27.9834	461.3
34.6234	558.413
42.8361	648.601
50.551	724.903
62.559	842.791
75.6014	939.887
87.1345	1009.25
100.429	1078.6
194.859	1425.36
298.243	1598.81
377.859	1709.79
456.604	1799.96
538.877	1883.19
592.352	1924.81
651.133	1966.44
699.182	2021.89
