Adsorption isotherm of Methane on IRMOF-1
DOI: 10.1021/Jp051771y
Adsorbate Methane: InChIKey VNWKTOKETHGBQD-UHFFFAOYSA-N
Temperature: 298 K
Tabular data in the source: 0
pressure (bar)	uptake (molecules/unitcell)
0.416187	0.566572
0.943234	3.39943
3.18081	10.1983
5.84113	17.5637
7.91548	24.9292
10.2365	30.5949
35.3362	79.3201
60.4965	101.983
87.9346	115.581
119.163	124.079
276.452	141.643
421.085	150.142
519.685	156.941
720.892	164.306
829.43	167.139
1000	171.105
