Adsorption isotherm of Methane on IRMOF-1
DOI: 10.1021/Jp051771y
Adsorbate Methane: InChIKey VNWKTOKETHGBQD-UHFFFAOYSA-N
Temperature: 298 K
Tabular data in the source: 0
pressure (bar)	uptake (cm3(STP)/g)
0.38296	7.93482
0.983017	57.1201
3.34825	127.294
5.62668	217.712
7.83096	301.063
10.1559	391.286
33.961	1008.54
61.3705	1306.77
93.9377	1487.14
124.747	1591.23
278.516	1834.22
436.164	1938.43
539.511	2007.85
651.733	2063.39
769.024	2125.84
886.054	2160.57
997.264	2209.14
