Adsorption isotherm of Argon on MOF-2
DOI: 10.1021/Jp051771y
Adsorbate Argon: InChIKey XKRFYHLGVUSROY-UHFFFAOYSA-N
Temperature: 298 K
Tabular data in the source: 0
pressure (bar)	uptake (cm3(STP)/cm3)
18.2292	96.1789
23.4375	111.296
31.25	123.669
70.3125	141.58
91.1458	149.85
104.167	155.363
195.312	165.103
286.458	170.723
369.792	176.332
447.917	179.187
523.437	182.038
609.375	183.529
682.292	185.003
755.208	187.851
817.708	187.936
