Adsorption isotherm of Argon on MFI
DOI: 10.1021/Jp051771y
Adsorbate Argon: InChIKey XKRFYHLGVUSROY-UHFFFAOYSA-N
Temperature: 298 K
Tabular data in the source: 0
pressure (bar)	uptake (cm3(STP)/cm3)
23.4375	61.8454
44.2708	78.3575
62.5	89.3716
78.125	96.2612
98.9583	100.411
278.646	122.636
458.333	133.871
638.021	140.986
817.708	145.354
