Adsorption isotherm of Argon on MOF-2
DOI: 10.1021/Jp051771y
Adsorbate Argon: InChIKey XKRFYHLGVUSROY-UHFFFAOYSA-N
Temperature: 298 K
Tabular data in the source: 0
pressure (bar)	uptake (cm3(STP)/g)
23.0995	80.033
36.0324	95.6327
56.7712	107.311
77.5303	113.13
93.108	115.053
106.082	118.933
194.367	126.574
287.854	132.25
370.964	134.041
448.873	137.795
526.796	137.643
609.9	141.387
685.218	143.193
757.946	143.051
820.284	142.929
