Adsorption isotherm of Carbon Dioxide on IRMOF-1
DOI: 10.1021/Jp051771y
Adsorbate Carbon Dioxide: InChIKey CURLTUGMZLYLDI-UHFFFAOYSA-N
Temperature: 298 K
Tabular data in the source: 0
pressure (bar)	uptake (molecules/unitcell)
0.321821	1.69972
0.52579	3.39943
0.764274	6.23229
0.965543	7.93201
1.99293	16.4306
3.03553	26.0623
4.11351	39.6601
5.1968	54.9575
6.12071	73.6544
7.20888	91.7847
8.29434	105.949
9.32273	120.113
10.2365	126.912
12.9324	137.677
18.7979	151.275
21.6287	156.374
30.7121	162.606
38.7998	168.839
49.0185	172.238
67.997	175.637
127.82	177.337
