Adsorption isotherm of Argon on MOF-3
DOI: 10.1021/Jp051771y
Adsorbate Argon: InChIKey XKRFYHLGVUSROY-UHFFFAOYSA-N
Temperature: 298 K
Tabular data in the source: 0
pressure (bar)	uptake (cm3(STP)/cm3)
13.0208	71.4465
33.8542	134.662
59.8958	159.423
78.125	174.558
101.562	182.832
218.75	206.344
328.125	214.736
432.292	220.374
523.437	224.62
630.208	228.888
718.75	230.383
804.687	233.248
877.604	236.096
