Adsorption isotherm of Argon on CuBTC
DOI: 10.1021/Jp051771y
Adsorbate Argon: InChIKey XKRFYHLGVUSROY-UHFFFAOYSA-N
Temperature: 298 K
Tabular data in the source: 0
pressure (bar)	uptake (cm3(STP)/g)
10.1326	74.199
33.1442	179.623
43.3918	220.618
53.6665	253.801
66.5589	281.12
76.8606	306.491
87.1759	327.955
100.102	345.508
113.022	365.014
252.91	472.162
393.002	520.717
507.167	555.65
603.197	576.947
683.649	596.321
753.732	609.856
771.907	611.774
813.432	621.458
847.172	629.205
857.555	631.138
880.904	638.904
