Adsorption isotherm of Carbon Dioxide on IRMOF-1
DOI: 10.1021/Jp051771y
Adsorbate Carbon Dioxide: InChIKey CURLTUGMZLYLDI-UHFFFAOYSA-N
Temperature: 298 K
Tabular data in the source: 0
pressure (bar)	uptake (cm3(STP)/g)
0.545406	35.9015
0.77676	63.8682
0.983338	91.7464
2.04299	196.174
3.05294	328.055
4.0566	494.474
5.14382	695.484
6.22553	951.86
7.18563	1173.57
8.4876	1346.83
9.56535	1533.9
10.5194	1624
13.6477	1755.77
16.8896	1873.66
19.9301	1943.04
22.4362	2012.38
31.2234	2088.81
41.4534	2165.2
52.4844	2206.93
69.6562	2248.69
134.747	2276.89
