Adsorption isotherm of Argon on MOF-3
DOI: 10.1021/Jp051771y
Adsorbate Argon: InChIKey XKRFYHLGVUSROY-UHFFFAOYSA-N
Temperature: 298 K
Tabular data in the source: 0
pressure (bar)	uptake (cm3(STP)/g)
5.07309	35.1463
10.18	60.527
36.0121	101.492
56.7306	119.03
82.671	128.745
108.618	136.507
220.26	149.96
329.324	157.56
430.604	163.221
524.09	168.898
630.585	168.69
721.488	170.466
804.605	170.304
879.917	174.063
