Adsorption isotherm of Argon on IRMOF-1
DOI: 10.1021/Jp051771y
Adsorbate Argon: InChIKey XKRFYHLGVUSROY-UHFFFAOYSA-N
Temperature: 298 K
Tabular data in the source: 0
pressure (bar)	uptake (cm3(STP)/g)
0.776506	29.2419
1.81315	29.8796
2.64313	30.1629
3.34606	58.0411
9.00391	114.187
10.6228	162.788
21.0683	336.433
33.7933	482.217
44.8962	634.786
58.2559	780.411
72.0892	891.374
81.1839	1002.27
95.8253	1099.34
107.887	1182.54
199.83	1598.51
199.843	1605.44
298.889	1827.35
387.847	1979.9
479.977	2097.79
540.393	2180.98
668.667	2285.02
770.726	2361.3
847.383	2423.7
931.644	2486.1
