Adsorption isotherm of Argon on CuBTC
DOI: 10.1021/Jp051771y
Adsorbate Argon: InChIKey XKRFYHLGVUSROY-UHFFFAOYSA-N
Temperature: 298 K
Tabular data in the source: 0
pressure (bar)	uptake (cm3(STP)/cm3)
26.0417	101.684
41.6667	127.804
62.5	167.668
75.5208	182.796
88.5417	195.177
98.9583	204.806
106.771	217.18
255.208	281.944
395.833	313.731
510.417	334.492
604.167	348.357
687.5	359.461
750	366.415
776.042	369.198
812.5	374.742
848.958	378.913
861.979	380.305
882.812	383.081
