Adsorption isotherm of Nitrogen on IRMOF-1
DOI: 10.1021/Jp051771y
Adsorbate Nitrogen: InChIKey IJGRMHOSHXDMSA-UHFFFAOYSA-N
Temperature: 298 K
Tabular data in the source: 0
pressure (bar)	uptake (molecules/unitcell)
0.321821	1.13314
0.563987	1.13314
0.800854	1.13314
2.04007	3.39943
3.10732	4.53258
4.01847	6.23229
5.07673	7.36544
6.41368	9.63173
7.73259	11.3314
8.89691	13.5977
10.2365	14.7309
12.6334	17.5637
15.2314	22.0963
17.5247	24.3626
20.1637	27.762
27.3244	36.2606
35.3362	43.0595
41.6188	49.8584
50.1776	56.0907
74.6621	71.9547
199.292	110.482
276.452	124.079
365.974	132.578
519.685	145.042
612.068	150.708
704.239	156.374
