Adsorption isotherm of Argon on IRMOF-1
DOI: 10.1021/Jp051771y
Adsorbate Argon: InChIKey XKRFYHLGVUSROY-UHFFFAOYSA-N
Temperature: 298 K
Tabular data in the source: 0
pressure (bar)	uptake (molecules/unitcell)
0.258883	2.26629
0.42132	2.26629
0.746193	5.66572
0.918782	9.63173
1.0203	11.898
1.32487	25.4958
1.52792	38.5269
1.67005	49.8584
1.76142	60.6232
1.85279	69.6884
1.91371	77.6204
1.97462	86.119
2.02538	91.7847
2.28934	125.212
2.5736	154.108
2.67513	162.606
2.71574	168.839
2.7868	175.637
2.84772	182.436
2.89848	185.836
2.94924	193.201
