Adsorption isotherm of Argon on IRMOF-1
DOI: 10.1021/Jp051771y
Adsorbate Argon: InChIKey XKRFYHLGVUSROY-UHFFFAOYSA-N
Temperature: 298 K
Tabular data in the source: 0
pressure (bar)	uptake (cm3(STP)/cm3)
15.625	27.494
26.0417	57.7281
41.6667	105.826
106.771	200.696
192.708	274.99
283.854	313.577
369.792	338.42
453.125	356.392
523.437	371.598
606.771	386.822
684.896	402.04
755.208	409.004
817.708	418.706
875	424.279
