Adsorption isotherm of Hydrogen on IRMOF-1
DOI: 10.1021/Jp051771y
Adsorbate Hydrogen: InChIKey UFHFLCQGNIYNRP-UHFFFAOYSA-N
Temperature: 298 K
Tabular data in the source: 0
pressure (bar)	uptake (molecules/unitcell)
5.31971	2.26629
7.55393	2.83286
10.2365	5.09915
19.6979	10.1983
29.3096	14.7309
39.7173	19.2635
47.8851	23.796
60.4965	29.4618
71.2508	33.9943
85.9033	40.7932
96.5539	44.1926
185.798	77.6204
263.827	103.683
333.304	125.212
401.846	143.343
462.349	163.173
544.553	179.603
612.068	196.034
