Adsorption isotherm of Hydrogen on IRMOF-1
DOI: 10.1021/Jp051771y
Adsorbate Hydrogen: InChIKey UFHFLCQGNIYNRP-UHFFFAOYSA-N
Temperature: 298 K
Tabular data in the source: 0
pressure (bar)	uptake (cm3(STP)/g)
4.99204	16.7906
7.63071	51.7357
9.88904	65.7811
20.539	135.583
29.9578	198.193
39.7631	246.883
50.3535	309.387
60.8401	385.707
73.4954	441.25
86.7261	510.627
95.3389	559.175
189.553	995.979
270.757	1335.58
343.542	1605.84
415.738	1848.37
567.166	2312.59
624.468	2527.35
