Adsorption isotherm of Argon on MFI
DOI: 10.1021/Jp051771y
Adsorbate Argon: InChIKey XKRFYHLGVUSROY-UHFFFAOYSA-N
Temperature: 298 K
Tabular data in the source: 0
pressure (bar)	uptake (cm3(STP)/g)
12.9262	17.5529
28.4363	39.007
49.1954	44.8258
64.7596	50.6548
80.3239	56.4837
98.499	58.4014
277.68	69.7702
459.486	73.3213
638.688	78.8307
817.903	80.4338
