Adsorption isotherm of N-propane, Methane on BPL Carbon
DOI: 10.1021/i160020a010
Article source: Table II
Adsorbate N-propane: InChIKey ATUOYWHBWRKTHZ-UHFFFAOYSA-N
Adsorbate Methane: InChIKey VNWKTOKETHGBQD-UHFFFAOYSA-N
Kind: experiment
Temperature: 298 K
Tabular data in the source: 0
pressure (bar)	N-propane fraction	N-propane uptake (g/g)	Methane fraction	Methane uptake (g/g)	total uptake (g/g)
1.01325	0.02	7	0.98	0.5	
19.6291	0.02	12.2	0.98	2.6	
35.487	0.02	11.9	0.98	3.5	
52.7239	0.02	10.9	0.98	4.5	
69.9608	0.02	10.5	0.98	5.3	
