Adsorption isotherm of N-Butane, Methane on BPL Carbon
DOI: 10.1021/i160020a010
Article source: Table III
Adsorbate N-Butane: InChIKey IJDNQMDRQITEOD-UHFFFAOYSA-N
Adsorbate Methane: InChIKey VNWKTOKETHGBQD-UHFFFAOYSA-N
Kind: experiment
Temperature: 298 K
Tabular data in the source: 0
pressure (bar)	N-Butane fraction	N-Butane uptake (g/g)	Methane fraction	Methane uptake (g/g)	total uptake (g/g)
1.01325	0.00561	12	0.99439	0.4	
11.3554	0.00561	16.1	0.99439	1.1	
19.6291	0.00561	16.3	0.99439	1.8	
35.487	0.00561	14.5	0.99439	3.8	
52.7239	0.00561	12.7	0.99439	6	
