Adsorption isotherm of N-propane, Methane on BPL Carbon
DOI: 10.1021/i160020a010
Article source: Table II
Adsorbate N-propane: InChIKey ATUOYWHBWRKTHZ-UHFFFAOYSA-N
Adsorbate Methane: InChIKey VNWKTOKETHGBQD-UHFFFAOYSA-N
Kind: experiment
Temperature: 298 K
Tabular data in the source: 0
pressure (bar)	N-propane fraction	N-propane uptake (g/g)	Methane fraction	Methane uptake (g/g)	total uptake (g/g)
1.01325	0.01053	5.4	0.98947	0.6	
11.3554	0.01053	9.2	0.98947	2.6	
19.6291	0.01053	9.5	0.98947	3.9	
35.487	0.01053	9.2	0.98947	4.3	
52.7239	0.01053	8.3	0.98947	5.5	
69.9608	0.01053	8.1	0.98947	5.1	
