Adsorption isotherm of N-Hexane, Methane on BPL Carbon
DOI: 10.1021/i160020a010
Article source: Table IV
Adsorbate N-Hexane: InChIKey VLKZOEOYAKHREP-UHFFFAOYSA-N
Adsorbate Methane: InChIKey VNWKTOKETHGBQD-UHFFFAOYSA-N
Kind: experiment
Temperature: 298 K
Tabular data in the source: 0
pressure (bar)	N-Hexane fraction	N-Hexane uptake (g/g)	Methane fraction	Methane uptake (g/g)	total uptake (g/g)
1.01325	0.000795	22.9	0.999205	0.05	
11.3554	0.000795	24	0.999205	0.2	
19.6291	0.000795	23.6	0.999205	0.7	
35.487	0.000795	23.3	0.999205	1.2	
52.7239	0.000795	22	0.999205	2.6	
