Adsorption isotherm of N-Butane, Methane on BPL Carbon
DOI: 10.1021/i160020a010
Article source: Table III
Adsorbate N-Butane: InChIKey IJDNQMDRQITEOD-UHFFFAOYSA-N
Adsorbate Methane: InChIKey VNWKTOKETHGBQD-UHFFFAOYSA-N
Kind: experiment
Temperature: 298 K
Tabular data in the source: 0
pressure (bar)	N-Butane fraction	N-Butane uptake (g/g)	Methane fraction	Methane uptake (g/g)	total uptake (g/g)
1.01325	0.00276	10	0.99724	0.5	
11.3554	0.00276	13.9	0.99724	0.2	
19.6291	0.00276	14	0.99724	2.4	
35.487	0.00276	13.2	0.99724	2	
52.7239	0.00276	12.1	0.99724	4.1	
