Adsorption isotherm of Nitrogen on CuTPA
DOI: 10.1016/j.micromeso.2009.11.035
Adsorbate Nitrogen: InChIKey IJGRMHOSHXDMSA-UHFFFAOYSA-N
Temperature: 77 K
Tabular data in the source: 0
pressure (bar)	uptake (cm3(STP)/g)
0	0
0.000771605	104.462
0.00385802	151.969
0.0192901	160.367
0.0424383	165.092
0.304012	174.803
0.74537	186.352
0.917438	191.864
0.956019	194.488
1	204.724
