Adsorption isotherm of Styrene on MIL-53(Al)
DOI: 10.1021/Ie3015268
Adsorbate Styrene: InChIKey PPBRXRYQALVLMV-UHFFFAOYSA-N
Temperature: 308 K
Tabular data in the source: 0
pressure (bar)	uptake (wt%)
0.000155	18.8492
0.000194	18.6089
0.000258	18.8492
0.000309	19.6904
0.00036	23.1753
0.0004	26.54
0.000431	30.0248
0.000458	33.2694
0.000533	36.8744
0.000619	39.9988
0.000777	41.0803
0.000917	42.0416
0.00108281	42.6425
0.00137856	44.0845
0.00155547	44.5652
0.00198032	46.0072
0.00288803	46.8484
0.00390565	47.6895
0.00504804	47.9299
0.00682676	48.1702
0.00869138	48.2904
0.0117539	48.8912
0.0145193	49.0114
