Adsorption isotherm of Styrene on MIL-47
DOI: 10.1021/Ie3015268
Adsorbate Styrene: InChIKey PPBRXRYQALVLMV-UHFFFAOYSA-N
Temperature: 338 K
Tabular data in the source: 0
pressure (bar)	uptake (wt%)
0.000731	35.1608
0.000877	35.2701
0.00125921	35.8163
0.00180887	36.6903
0.00240961	37.3457
0.00346144	38.0012
0.00447389	38.5474
0.00633055	39.4214
0.00830663	40.1861
0.0112336	40.8415
0.0143018	41.3877
