Adsorption isotherm of Styrene on MIL-53(Al)
DOI: 10.1021/Ie3015268
Adsorbate Styrene: InChIKey PPBRXRYQALVLMV-UHFFFAOYSA-N
Temperature: 363 K
Tabular data in the source: 0
pressure (bar)	uptake (wt%)
0.000262	16.566
0.000376	16.9265
0.000525	17.1668
0.000765	17.4072
0.00101937	17.7677
0.00125921	18.008
0.00175509	18.1282
0.00207205	18.008
0.00233796	18.3685
0.00340959	18.3685
0.00454193	18.8492
0.00587041	18.2484
0.00758747	18.3685
0.00856119	19.5702
0.0105754	25.0979
0.0126752	30.5055
0.0140876	33.5097
0.0168847	35.0719
0.0231814	35.6727
0.03088	36.7542
0.037574	37.8358
