Adsorption isotherm of Styrene on MIL-47
DOI: 10.1021/Ie3015268
Adsorbate Styrene: InChIKey PPBRXRYQALVLMV-UHFFFAOYSA-N
Temperature: 308 K
Tabular data in the source: 0
pressure (bar)	uptake (wt%)
0.000765	40.0768
0.000931	40.2953
0.00127836	40.623
0.00183638	41.6062
0.00248345	42.6987
0.00340959	44.2281
0.00468111	45.7575
