Adsorption isotherm of Ethylbenzene on MIL-53(Al)
DOI: 10.1021/Ie3015268
Adsorbate Ethylbenzene: InChIKey YNQLUTRBYVCPMQ-UHFFFAOYSA-N
Temperature: 308 K
Tabular data in the source: 0
pressure (bar)	uptake (wt%)
0.000187	26.2707
0.000251	28.1166
0.000363	29.7165
0.000458	30.8241
0.000551	31.6855
0.000634	32.3008
0.00074	33.1623
0.000932	34.3929
0.00125076	35.9927
0.00162662	36.8542
0.00184072	37.5926
0.00254654	38.7001
0.00346899	40.423
0.00451145	44.1149
0.00614565	47.3146
0.00763033	48.2991
0.0103943	48.4222
0.0139423	49.0375
0.0175801	49.1605
