Adsorption isotherm of Styrene on MIL-53(Al)
DOI: 10.1021/Ie3015268
Adsorbate Styrene: InChIKey PPBRXRYQALVLMV-UHFFFAOYSA-N
Temperature: 323 K
Tabular data in the source: 0
pressure (bar)	uptake (wt%)
0.000465	19.6904
0.000689	18.8492
0.000917	19.0895
0.00115019	19.45
0.00131753	24.3769
0.00157912	30.6257
0.00198032	34.9517
0.00237351	36.0332
0.00346144	37.1147
0.00440687	38.1963
0.00642682	39.3979
0.0081822	40.3593
0.0112336	41.8013
0.0138766	43.003
0.0179354	43.9643
0.0231814	44.8055
0.029513	45.5265
0.0364567	46.4879
