Adsorption isotherm of Ethylbenzene on MIL-53(Al)
DOI: 10.1021/Ie3015268
Adsorbate Ethylbenzene: InChIKey YNQLUTRBYVCPMQ-UHFFFAOYSA-N
Temperature: 323 K
Tabular data in the source: 0
pressure (bar)	uptake (wt%)
0.00019	20.7328
0.000263	24.3017
0.000375	27.5013
0.00056	28.2397
0.000751	28.732
0.000932	29.2242
0.00123158	30.0857
0.00167769	30.8241
0.00189851	31.5624
0.00258621	32.9161
0.00331181	34.1468
0.00458172	35.6235
0.00605139	36.3619
0.0082434	37.5926
0.0103943	38.3309
0.01438	39.1924
0.0187013	40.3
0.0258724	41.6537
0.0292777	42.5151
