Adsorption isotherm of N-Octane on MIL-53(Al)
DOI: 10.1021/Ie3015268
Adsorbate N-Octane: InChIKey TVMXDCGIABBOFY-UHFFFAOYSA-N
Temperature: 383 K
Tabular data in the source: 0
pressure (bar)	uptake (wt%)
0.00011	12.7971
0.000165	13.1904
0.000217	13.4963
0.000316	13.7585
0.000528	14.0643
0.000747	14.2391
0.000937	14.3265
0.00130636	14.5013
0.0018485	14.6761
0.00257645	14.7635
0.00333004	14.8072
0.00471201	15.0257
0.00656762	15.2005
0.00888179	15.3316
0.0113077	15.5064
0.0146151	15.5938
0.01889	15.7248
0.0219674	15.8559
0.0297078	16.0307
