Adsorption isotherm of Ethylbenzene on MIL-47
DOI: 10.1021/Ie3015268
Adsorbate Ethylbenzene: InChIKey YNQLUTRBYVCPMQ-UHFFFAOYSA-N
Temperature: 308 K
Tabular data in the source: 0
pressure (bar)	uptake (wt%)
0.00162752	33.5222
0.00198032	33.9592
0.00267811	34.2869
0.00378952	34.8331
0.0051248	35.3793
0.00682676	36.0348
0.00923224	36.6903
