Adsorption isotherm of Styrene on MIL-47
DOI: 10.1021/Ie3015268
Adsorbate Styrene: InChIKey PPBRXRYQALVLMV-UHFFFAOYSA-N
Temperature: 323 K
Tabular data in the source: 0
pressure (bar)	uptake (wt%)
0.000668	37.3457
0.000877	38.1104
0.00124034	38.8751
0.0017288	39.6398
0.00248345	40.4045
0.00346144	41.1693
0.00440687	41.934
0.00662377	43.1356
0.00843295	44.1188
