Adsorption isotherm of Ethylbenzene on MIL-47
DOI: 10.1021/Ie3015268
Adsorbate Ethylbenzene: InChIKey YNQLUTRBYVCPMQ-UHFFFAOYSA-N
Temperature: 323 K
Tabular data in the source: 0
pressure (bar)	uptake (wt%)
0.00036	26.6398
0.000533	27.2953
0.000945	28.3877
0.00125921	28.8247
0.00160314	29.4802
0.00180887	29.4802
0.00255955	30.1356
0.00351408	30.6819
0.0047523	31.1188
0.00856119	32.102
0.0145193	32.7575
0.0246239	33.7407
