Adsorption isotherm of Ethylbenzene on MIL-47
DOI: 10.1021/Ie3015268
Adsorbate Ethylbenzene: InChIKey YNQLUTRBYVCPMQ-UHFFFAOYSA-N
Temperature: 363 K
Tabular data in the source: 0
pressure (bar)	uptake (wt%)
0.00027	17.4634
0.000509	21.8331
0.000731	23.7995
0.000903	24.8919
0.00118544	26.0936
0.00157912	26.5306
0.00189266	27.0768
0.00233796	27.5138
0.00280215	28.1693
0.00384715	28.497
0.0051248	28.934
