Adsorption isotherm of Ethylbenzene on MIL-53(Al)
DOI: 10.1021/Ie3015268
Adsorbate Ethylbenzene: InChIKey YNQLUTRBYVCPMQ-UHFFFAOYSA-N
Temperature: 363 K
Tabular data in the source: 0
pressure (bar)	uptake (wt%)
0.00016	17.5332
0.000243	17.7793
0.000316	18.1485
0.00048	18.6407
0.000596	18.5177
0.000787	19.0099
0.00113998	21.2251
0.00143743	23.3172
0.00165196	23.5633
0.00228541	24.6709
0.00326101	25.5323
0.00458172	25.7784
0.00614565	26.763
0.00863464	27.0091
0.0105562	27.2552
0.014604	28.4858
0.0181321	29.3473
0.0225125	30.0857
0.0301969	30.5779
