Adsorption isotherm of Styrene on MIL-47
DOI: 10.1021/Ie3015268
Adsorbate Styrene: InChIKey PPBRXRYQALVLMV-UHFFFAOYSA-N
Temperature: 363 K
Tabular data in the source: 0
pressure (bar)	uptake (wt%)
0.0004	29.0432
0.000549	30.2449
0.00071	31.0096
0.000877	31.665
0.00124034	32.4298
0.0017288	33.3037
0.00240961	33.9592
0.00340959	34.6146
0.00468111	35.4886
0.00633055	35.9256
0.00805964	36.581
0.0107363	37.1272
0.0138766	37.5642
0.0187661	38.4382
0.0242551	38.9844
