Adsorption isotherm of Nitrogen on RGO-Î²CD-ECH composite
DOI: 10.1016/j.seppur.2021.119630
Article source: Figure 3
Adsorbate Nitrogen: InChIKey IJGRMHOSHXDMSA-UHFFFAOYSA-N
Kind: experiment
Temperature: 77 K
Tabular data in the source: 0
pressure (bar)	uptake (cm3(STP)/g)
0.023548	1.89873
0.050648	2.03938
0.077749	2.1097
0.102681	2.18003
0.128697	2.391
0.152495	2.38384
0.178843	2.70941
0.203936	2.95359
0.230283	3.11637
0.254749	3.27916
0.280469	3.60473
0.304307	3.9303
0.3294	4.25587
0.355747	4.41866
0.379585	4.90702
0.405933	5.1512
0.431653	5.47677
0.456119	5.88373
0.482466	6.2093
0.508814	6.53487
0.533279	6.86045
0.557745	7.3488
0.584092	7.51159
0.61044	7.83716
0.634278	8.24413
0.659998	8.48831
0.684464	9.38363
0.709556	9.7092
0.734649	9.87199
0.760997	9.95338
0.787344	10.2383
0.812437	10.6859
0.83753	10.9301
0.861368	11.4998
0.88897	11.744
0.913436	12.0696
0.937901	12.9649
0.961739	14.1858
0.989342	16.6276
1.00628	53.0509
1.00565	52.0742
0.988714	19.7205
0.964249	15.6509
0.936647	14.5928
0.910299	13.8602
0.883952	13.2091
0.858859	12.7207
0.833766	12.2324
0.806164	12.0696
0.781071	11.9068
0.757233	11.4998
0.730885	11.0522
0.707047	10.6859
0.6807	10.3603
0.655607	10.1162
0.628632	10.1976
0.604794	9.79059
0.579074	9.38363
0.553981	9.05806
0.528888	8.73248
0.50254	8.32552
0.478702	8.08134
0.452355	7.67438
0.427262	7.47089
0.400914	7.26741
0.375822	7.02323
0.349474	6.61627
0.326891	6.2907
0.300543	5.88373
0.274196	5.72095
0.249103	5.39537
0.22401	5.0698
0.197662	4.66284
0.173824	4.33727
0.147477	4.09309
0.122384	3.60473
0.097291	3.31985
0.072198	2.87219
0.046478	2.58732
0.023267	2.22105
