Adsorption isotherm of Carbon Dioxide on AC WV1050
DOI: 10.1590/s0104-66322013000400024
Article source: Figure 2
Adsorbate Carbon Dioxide: InChIKey CURLTUGMZLYLDI-UHFFFAOYSA-N
Kind: experiment
Temperature: 293 K
Tabular data in the source: 0
pressure (bar)	uptake (mmol/g)
0.294	0.6545
0.529	1.0364
1.057	2.0727
2.466	3.6273
4.933	5.5909
9.748	8.4545
14.975	10.9636
