Adsorption isotherm of Methane on AC WV1050
DOI: 10.1590/s0104-66322013000400024
Article source: Figure 2
Adsorbate Methane: InChIKey VNWKTOKETHGBQD-UHFFFAOYSA-N
Kind: experiment
Temperature: 293 K
Tabular data in the source: 0
pressure (bar)	uptake (mmol/g)
0.529	0.0818
0.763	0.3545
0.998	0.5455
2.525	1.2273
5.638	2.3727
10.982	3.5455
14.74	4.1455
