Adsorption isotherm of Carbon Dioxide, Methane on AC WV1050
DOI: 10.1590/s0104-66322013000400024
Article source: Table 2
Adsorbate Carbon Dioxide: InChIKey CURLTUGMZLYLDI-UHFFFAOYSA-N
Adsorbate Methane: InChIKey VNWKTOKETHGBQD-UHFFFAOYSA-N
Kind: experiment
Temperature: 293 K
Tabular data in the source: 1
pressure (bar)	Carbon Dioxide fraction	Carbon Dioxide uptake (mmol/g)	Methane fraction	Methane uptake (mmol/g)	total uptake (mmol/g)
0.94	0.297	0.845	0.703	0.403	
0.94	0.475	1.296	0.525	0.165	
0.95	0.671	1.689	0.329	0.127	
