Adsorption isotherm of Carbon Dioxide, Methane on AC WV1050
DOI: 10.1590/s0104-66322013000400024
Article source: Table 2
Adsorbate Carbon Dioxide: InChIKey CURLTUGMZLYLDI-UHFFFAOYSA-N
Adsorbate Methane: InChIKey VNWKTOKETHGBQD-UHFFFAOYSA-N
Kind: experiment
Temperature: 293 K
Tabular data in the source: 1
pressure (bar)	Carbon Dioxide fraction	Carbon Dioxide uptake (mmol/g)	Methane fraction	Methane uptake (mmol/g)	total uptake (mmol/g)
5.43	0.181	1.652	0.819	1.746	
5.04	0.352	2.743	0.648	1.23	
4.99	0.777	4.884	0.223	0.286	
