Adsorption isotherm of Carbon Dioxide, Methane on AC WV1050
DOI: 10.1590/s0104-66322013000400024
Article source: Table 2
Adsorbate Carbon Dioxide: InChIKey CURLTUGMZLYLDI-UHFFFAOYSA-N
Adsorbate Methane: InChIKey VNWKTOKETHGBQD-UHFFFAOYSA-N
Kind: experiment
Temperature: 293 K
Tabular data in the source: 1
pressure (bar)	Carbon Dioxide fraction	Carbon Dioxide uptake (mmol/g)	Methane fraction	Methane uptake (mmol/g)	total uptake (mmol/g)
2.67	0.194	1.176	0.806	1.074	
2.53	0.485	2.278	0.515	0.56	
2.4	0.782	3.197	0.218	0.197	
