Adsorption isotherm of Carbon Dioxide, Methane on AC WV1050
DOI: 10.1590/s0104-66322013000400024
Article source: Table 2
Adsorbate Carbon Dioxide: InChIKey CURLTUGMZLYLDI-UHFFFAOYSA-N
Adsorbate Methane: InChIKey VNWKTOKETHGBQD-UHFFFAOYSA-N
Kind: experiment
Temperature: 293 K
Tabular data in the source: 1
pressure (bar)	Carbon Dioxide fraction	Carbon Dioxide uptake (mmol/g)	Methane fraction	Methane uptake (mmol/g)	total uptake (mmol/g)
10.68	0.153	2.173	0.847	2.838	
10.1	0.355	4.604	0.645	1.603	
9.65	0.768	7.24	0.232	0.457	
