Adsorption isotherm of Methane on MAMS-2
DOI: 10.1021/Ja808896f
Adsorbate Methane: InChIKey VNWKTOKETHGBQD-UHFFFAOYSA-N
Temperature: 143 K
Tabular data in the source: 0
pressure (bar)	uptake (cm3(STP)/g)
0.00336417	3.2636
0.0100925	6.77824
0.0134567	9.79079
0.020185	12.5523
0.0269133	15.0628
0.0336417	17.3222
0.0370058	19.8326
0.0504625	21.59
0.0672834	24.1004
0.08074	26.1088
0.0975609	27.113
0.114382	28.3682
0.127838	29.3724
0.144659	31.3808
0.178301	34.3933
0.222035	37.4059
0.28259	39.1632
0.333053	40.1674
0.373423	41.1715
0.413793	41.9247
0.457527	42.6778
0.48444	43.1799
0.52481	43.431
0.561816	44.1841
0.602186	44.9372
0.642556	45.6904
0.666105	46.1925
0.68629	46.6946
0.713204	47.1967
0.736753	48.4519
0.763666	48.954
0.793944	49.7071
0.841042	50.7113
0.871319	51.9665
0.904961	51.9665
0.945331	52.4686
0.965516	52.4686
1.00252	52.9707
