Adsorption isotherm of Propene on MAMS-2
DOI: 10.1021/Ja808896f
Adsorbate Propene: InChIKey QQONPFPTGQHPMA-UHFFFAOYSA-N
Temperature: 231 K
Tabular data in the source: 0
pressure (bar)	uptake (cm3(STP)/g)
0.000346556	5.11636
0.000661607	9.76759
0.0281025	14.8902
0.0316154	16.7515
0.0452571	18.15
0.0622698	19.3167
0.0996821	21.6509
0.126887	23.2851
0.147255	23.9874
0.174396	24.6913
0.194796	25.8588
0.235516	27.031
0.276252	28.4357
0.316973	29.6079
0.354291	30.5468
0.391608	31.4856
0.435715	32.6585
0.479838	34.0641
0.520543	35.0037
0.557861	35.9425
0.595179	36.8813
0.632496	37.8202
0.656267	38.7559
0.676619	39.2257
0.703761	39.9296
0.724113	40.3994
0.75806	41.57
0.78183	42.5057
0.802214	43.4407
0.829356	44.1446
0.856513	45.0811
0.890476	46.4843
0.921036	47.6541
0.944806	48.5898
0.961803	49.524
0.988976	50.693
