Adsorption isotherm of Nitrogen on MAMS-3
DOI: 10.1021/Ja808896f
Adsorbate Nitrogen: InChIKey IJGRMHOSHXDMSA-UHFFFAOYSA-N
Temperature: 113 K
Tabular data in the source: 0
pressure (bar)	uptake (cm3(STP)/g)
0.00524428	5.44763
0.0181195	11.6364
0.0207495	14.6079
0.0335147	17.3292
0.0437285	19.5558
0.0539345	21.5348
0.0692512	24.7508
0.0845366	26.9762
0.0997984	28.4585
0.132826	30.4318
0.158263	32.9023
0.176076	34.8794
0.196402	36.1128
0.244644	38.0824
0.287784	39.0625
0.330947	40.7857
0.369039	42.5101
0.407115	43.7391
0.445199	45.2158
0.485811	46.4442
0.53403	47.6708
0.57461	47.9085
0.612686	49.1376
0.65329	50.1183
0.668552	51.6006
0.693949	52.8328
0.714235	52.8278
0.731986	52.8235
0.752272	52.8185
0.787789	53.3051
0.825849	54.0388
0.84619	55.7676
0.866477	55.7626
0.889314	56.2523
0.912144	56.4944
0.942589	56.9823
0.960356	57.4733
0.985729	57.9624
0.995927	59.6937
