Adsorption isotherm of Sulfur Hexafluoride on MAMS-2
DOI: 10.1021/Ja808896f
Adsorbate Sulfur Hexafluoride: InChIKey SFZCNBIFKDRMGX-UHFFFAOYSA-N
Temperature: 295 K
Tabular data in the source: 0
pressure (bar)	uptake (cm3(STP)/g)
0.281901	0.305503
0.359927	0.390062
0.402723	0.592691
0.442995	0.636335
0.483266	0.679978
0.563817	0.923523
0.604081	0.810908
0.646885	1.1698
0.714835	1.08719
0.795394	1.48699
0.83819	1.68962
0.916224	1.93044
0.953995	2.28387
0.979156	2.15489
0.989224	2.1658
1.00684	2.18489
