Adsorption isotherm of Methane on MAMS-3
DOI: 10.1021/Ja808896f
Adsorbate Methane: InChIKey VNWKTOKETHGBQD-UHFFFAOYSA-N
Temperature: 143 K
Tabular data in the source: 0
pressure (bar)	uptake (cm3(STP)/g)
0.0126156	5.01316
0.0252313	10.0263
0.0328006	11.6967
0.0479394	13.7373
0.0630781	15.7779
0.0782169	18.7472
0.100925	20.4149
0.126156	22.8251
0.148864	23.9354
0.169049	25.6036
0.20185	26.5263
0.239697	28.7485
0.280067	29.8556
0.328006	31.1471
0.373423	32.9963
0.408746	33.5471
0.446593	34.4689
0.481917	35.3912
0.532379	37.7967
0.56518	38.5337
0.620689	38.895
0.64592	39.6334
0.68629	39.9975
0.719091	42.0348
0.746845	42.7728
0.76703	43.6978
0.789738	44.2509
0.820016	44.6169
0.850293	44.9828
0.870478	46.2794
0.890663	46.0899
0.931033	47.1971
0.961311	47.563
0.996634	47.928
