Adsorption isotherm of Nitrogen on MAMS-2
DOI: 10.1021/Ja808896f
Adsorbate Nitrogen: InChIKey IJGRMHOSHXDMSA-UHFFFAOYSA-N
Temperature: 113 K
Tabular data in the source: 0
pressure (bar)	uptake (cm3(STP)/g)
0.00337542	2.75424
0.0135017	5.72034
0.0270033	9.11017
0.0337542	10.8051
0.0438804	12.5
0.0506313	13.7712
0.0641329	15.2542
0.0675084	16.3136
0.08101	17.5847
0.108013	19.4915
0.121515	20.339
0.145143	22.0339
0.16202	23.0932
0.182273	25.2119
0.202525	25.6356
0.256532	27.1186
0.286911	28.178
0.330791	29.2373
0.364545	30.5085
0.40505	32.2034
0.452306	33.4746
0.489436	34.1102
0.52319	35.1695
0.570446	35.8051
0.607575	36.2288
0.644705	36.4407
0.664957	36.6525
0.708838	37.2881
0.722339	37.5
0.745967	37.5
0.76622	37.7119
0.816851	38.3475
0.853981	38.7712
0.870858	39.1949
0.89111	39.4068
0.904612	40.0424
0.92824	40.8898
0.941742	40.8898
0.97212	41.1017
