Adsorption isotherm of Methane on MAMS-2
DOI: 10.1021/Ja808896f
Adsorbate Methane: InChIKey VNWKTOKETHGBQD-UHFFFAOYSA-N
Temperature: 113 K
Tabular data in the source: 0
pressure (bar)	uptake (cm3(STP)/g)
0.0135017	0.211864
0.0506313	0.423729
0.0607575	2.75424
0.08101	2.75424
0.101263	2.9661
0.12489	2.9661
0.165395	3.38983
0.202525	3.81356
0.239655	3.81356
0.286911	4.02542
0.320665	4.23729
0.36117	4.23729
0.401675	4.87288
0.438804	5.50847
0.475934	5.9322
0.52319	6.14407
0.563695	6.5678
0.600824	6.77966
0.641329	6.99153
0.651456	7.20339
0.678459	7.62712
0.695336	8.26271
0.708838	8.26271
0.722339	8.68644
0.745967	9.11017
0.76622	9.32203
0.789848	9.5339
0.816851	10.1695
0.837104	10.5932
0.864107	11.0169
0.877609	11.0169
0.904612	11.0169
