Adsorption isotherm of Oxygen on MAMS-4
DOI: 10.1021/Ja808896f
Adsorbate Oxygen: InChIKey MYMOFIZGZYHOMD-UHFFFAOYSA-N
Temperature: 87 K
Tabular data in the source: 0
pressure (bar)	uptake (cm3(STP)/g)
0.00154987	9.25926
0.00309975	17.5926
0.00619949	28.2407
0.00929924	34.7222
0.0154987	39.3519
0.0185985	44.4444
0.0232481	48.6111
0.0294476	53.2407
0.0387468	57.8704
0.0511458	64.3519
0.0635448	68.5185
0.0790435	74.0741
0.0867929	75.9259
0.097642	79.1667
0.110041	82.8704
0.11934	86.5741
0.148788	90.7407
0.179785	96.2963
0.199934	98.6111
0.224732	102.315
0.249529	106.019
0.277427	108.796
0.296026	112.963
0.319274	114.815
0.347171	126.389
0.376619	128.704
0.426215	131.019
0.446363	131.944
0.464962	133.333
0.495959	134.259
0.503709	135.185
0.514558	135.185
0.533156	135.648
0.550205	136.111
0.559504	136.111
0.573453	137.5
0.587402	137.5
0.6029	138.426
0.615299	139.352
