Adsorption isotherm of Hydrogen on MAMS-4
DOI: 10.1021/Ja808896f
Adsorbate Hydrogen: InChIKey UFHFLCQGNIYNRP-UHFFFAOYSA-N
Temperature: 77 K
Tabular data in the source: 0
pressure (bar)	uptake (cm3(STP)/g)
0.0195352	0.591237
0.0659586	0.876014
0.117269	1.15934
0.156362	1.44629
0.202785	1.73107
0.244328	1.71878
0.280984	1.70794
0.324964	1.99344
0.366515	1.68264
0.405607	1.96959
0.444692	2.55504
0.483791	2.54348
0.527764	3.12748
0.559532	3.11809
0.608392	3.70065
0.647499	3.39058
0.676809	3.97892
0.711014	4.26731
0.737887	4.55787
0.767205	4.84771
0.796529	4.83904
0.83072	5.72445
0.864917	6.31135
0.891784	6.90041
0.91377	7.19242
0.952862	7.47936
0.979736	7.76992
0.999271	8.36116
