Adsorption isotherm of Carbon monoxide on MAMS-3
DOI: 10.1021/Ja808896f
Adsorbate Carbon monoxide: InChIKey UGFAIRIUMAVXCW-UHFFFAOYSA-N
Temperature: 77 K
Tabular data in the source: 0
pressure (bar)	uptake (cm3(STP)/g)
0.0206299	0.54593
0.0427333	0.904591
0.0604161	0.893383
0.0884138	0.689301
0.100202	0.681829
0.123779	1.03956
0.151777	1.02181
0.167986	1.01154
0.187143	1.18573
0.21072	1.17078
0.231349	1.15771
0.254926	1.14276
0.282924	1.49769
0.303554	1.48461
0.327131	1.46967
0.355129	2.01093
0.377232	1.81058
0.402283	1.7947
0.424386	2.15336
0.439122	1.95769
0.45091	2.32289
0.461225	2.68902
0.477434	2.49241
0.499538	3.22374
0.514273	3.58707
0.530483	3.76313
0.539324	3.38486
0.55848	3.93172
0.57469	4.48046
0.587952	4.65839
