Adsorption isotherm of Hydrogen on MAMS-4
DOI: 10.1021/Ja808896f
Adsorbate Hydrogen: InChIKey UFHFLCQGNIYNRP-UHFFFAOYSA-N
Temperature: 77 K
Tabular data in the source: 0
pressure (bar)	uptake (cm3(STP)/g)
0.00488015	0.297064
0.00965817	4.77326
0.0193163	9.54653
0.0289964	13.4243
0.0362473	16.7057
0.0410472	20.2864
0.0532075	22.6708
0.0579928	26.8485
0.072553	31.0233
0.0822768	33.11
0.0992808	37.2841
0.116307	40.5626
0.13822	43.8397
0.160133	47.1168
0.182054	50.0954
0.201538	52.7762
0.242979	56.9431
0.274682	59.6202
0.318588	62.8908
0.360059	65.8637
0.406438	67.9395
0.450367	70.3146
0.479641	72.3954
0.523584	74.1735
0.565083	75.9523
0.609034	77.4318
0.64321	78.9142
0.662737	79.804
0.699357	81.2857
0.723772	82.174
0.767723	83.6535
0.801906	84.8374
0.821426	86.0257
0.855602	87.5081
0.882454	88.6942
0.909313	89.5818
0.936164	90.7679
0.96058	91.6562
0.994741	93.7356
