Adsorption isotherm of Nitrogen on MAMS-3
DOI: 10.1021/Ja808896f
Adsorbate Nitrogen: InChIKey IJGRMHOSHXDMSA-UHFFFAOYSA-N
Temperature: 87 K
Tabular data in the source: 0
pressure (bar)	uptake (cm3(STP)/g)
0.0227652	0.0104429
0.0784291	0.961903
0.131532	0.0603365
0.161902	1.00019
0.202381	1.48173
0.24539	1.96442
0.275751	2.44131
0.323811	2.46335
0.359224	2.4796
0.402224	2.49932
0.442712	3.44382
0.480669	4.38716
0.523678	4.86985
0.566687	5.35254
0.607166	5.83407
0.647638	5.85264
0.670403	5.86308
0.688109	5.8712
0.723545	7.27635
0.786782	7.30536
0.819688	8.70934
0.852571	8.72442
0.880411	9.66312
0.905721	10.6007
0.920898	10.6076
0.941134	10.6169
0.958848	11.088
0.979099	12.0232
1.0044	12.4978
