Adsorption isotherm of Carbon monoxide on MAMS-2
DOI: 10.1021/Ja808896f
Adsorbate Carbon monoxide: InChIKey UGFAIRIUMAVXCW-UHFFFAOYSA-N
Temperature: 77 K
Tabular data in the source: 0
pressure (bar)	uptake (cm3(STP)/g)
0.00780392	0.288462
0.0195145	0.576923
0.0390478	0.576923
0.0624689	1.15385
0.0800489	1.15385
0.0937222	1.15385
0.115209	1.15385
0.12105	1.73077
0.142537	1.73077
0.164023	1.73077
0.18551	1.73077
0.2148	2.01923
0.238221	2.59615
0.281195	2.59615
0.308522	3.17308
0.331953	3.46154
0.35344	3.46154
0.378823	3.75
0.390543	3.75
0.404198	4.32692
0.421778	4.32692
0.439348	4.61538
0.454956	5.19231
0.472527	5.48077
0.4862	5.48077
0.505715	6.05769
0.517435	6.05769
0.527182	6.63462
0.535015	6.05769
0.544762	6.63462
0.55451	7.21154
0.572081	7.5
0.581829	8.07692
