Adsorption isotherm of Hydrogen on MAMS-2
DOI: 10.1021/Ja808896f
Adsorbate Hydrogen: InChIKey UFHFLCQGNIYNRP-UHFFFAOYSA-N
Temperature: 77 K
Tabular data in the source: 0
pressure (bar)	uptake (cm3(STP)/g)
0.14383	0.224551
0.22184	0.449102
0.294974	1.12275
0.372984	1.57186
0.441242	2.02096
0.516814	2.47006
0.592386	3.14371
0.663082	3.81737
0.736216	4.49102
0.80935	4.94012
0.884922	5.61377
0.919051	5.83832
0.955618	6.06287
