Adsorption isotherm of Carbon monoxide on MAMS-4
DOI: 10.1021/Ja808896f
Adsorbate Carbon monoxide: InChIKey UGFAIRIUMAVXCW-UHFFFAOYSA-N
Temperature: 77 K
Tabular data in the source: 0
pressure (bar)	uptake (cm3(STP)/g)
0.0162092	0.29921
0.0353655	0.596877
0.0559954	0.586081
0.0751517	0.883748
0.101676	1.17756
0.114938	1.17062
0.138515	0.850588
0.166513	1.14363
0.184195	1.13437
0.206299	0.815115
0.23577	1.10738
0.259347	1.09505
0.281451	1.08348
0.303554	1.3796
0.327131	1.67496
0.349234	1.97108
0.374285	1.65028
0.387547	2.25872
0.399336	2.25255
0.412598	2.24561
0.421439	2.54868
0.440595	2.84635
0.455331	2.83864
0.470067	2.83092
0.484802	2.82321
0.501011	3.12242
0.5128	3.11625
0.530483	4.03008
0.551113	4.01928
0.562901	4.3208
0.573216	4.3154
0.585005	3.69385
