Adsorption isotherm of Methane on MAMS-3
DOI: 10.1021/Ja808896f
Adsorbate Methane: InChIKey VNWKTOKETHGBQD-UHFFFAOYSA-N
Temperature: 113 K
Tabular data in the source: 0
pressure (bar)	uptake (cm3(STP)/g)
0.0761442	2.21042
0.11926	2.44751
0.157313	2.93353
0.197878	2.6759
0.248601	2.91113
0.28663	2.65412
0.319603	2.8937
0.357648	3.13204
0.4033	3.36852
0.443856	2.86321
0.497116	3.09782
0.537696	3.33554
0.575788	5.05994
0.603713	6.04379
0.651916	6.775
0.687433	7.26164
0.728021	7.74703
0.766058	7.7377
0.811702	7.7265
0.842147	8.21438
0.885271	8.69916
0.928372	8.4409
