Adsorption isotherm of Carbon monoxide on MAMS-3
DOI: 10.1021/Ja808896f
Adsorbate Carbon monoxide: InChIKey UGFAIRIUMAVXCW-UHFFFAOYSA-N
Temperature: 143 K
Tabular data in the source: 0
pressure (bar)	uptake (cm3(STP)/g)
0.00252313	0.556811
0.0126156	5.94195
0.0227081	12.2559
0.0353238	14.6684
0.0454163	16.8957
0.060555	19.3077
0.0630781	21.1649
0.0857863	23.5755
0.0984019	25.245
0.138772	27.281
0.16148	29.1344
0.196804	31.1712
0.239697	33.0209
0.28259	34.1276
0.317914	35.4214
0.365853	36.3413
0.401177	38.3782
0.441547	39.4853
0.492009	40.219
0.527333	40.9556
0.570226	41.8765
0.618166	42.4249
0.648443	42.7909
0.668628	43.1587
0.691336	44.4548
0.708998	44.8231
0.729183	44.8193
0.76703	45.7412
0.804877	45.7342
0.840201	45.9135
0.880571	46.2776
0.898233	47.9461
0.92851	48.1263
0.96888	48.3046
0.999158	48.2991
