Adsorption isotherm of Carbon monoxide on MAMS-4
DOI: 10.1021/Ja808896f
Adsorbate Carbon monoxide: InChIKey UGFAIRIUMAVXCW-UHFFFAOYSA-N
Temperature: 87 K
Tabular data in the source: 0
pressure (bar)	uptake (cm3(STP)/g)
0.0706475	0.462963
0.113541	1.85185
0.156434	1.85185
0.194281	1.38889
0.239697	2.31481
0.280067	1.38889
0.320437	2.31481
0.358284	2.77778
0.401177	2.77778
0.44407	3.24074
0.481917	3.7037
0.52481	4.16667
0.560134	4.62963
0.603027	5.09259
0.643397	6.48148
0.656012	6.01852
0.681244	5.55556
0.703952	6.94444
0.729183	7.40741
0.754414	7.40741
0.772076	6.94444
0.787215	7.40741
0.812446	7.40741
0.850293	8.7963
0.883094	9.25926
0.920941	9.72222
0.953741	10.6481
0.976449	10.1852
0.996634	12.037
