Adsorption isotherm of Isobutane on MAMS-3
DOI: 10.1021/Ja808896f
Adsorbate Isobutane: InChIKey NNPPMTNAJDCUHE-UHFFFAOYSA-N
Temperature: 295 K
Tabular data in the source: 0
pressure (bar)	uptake (cm3(STP)/g)
0.0025358	7.11e-15
0.103968	7.11e-15
0.281474	7.11e-15
0.41332	0.15674
0.542567	0.940439
0.661622	2.19436
0.783134	4.23197
0.896991	6.73981
0.950052	8.62069
0.975315	9.56113
0.99549	10.6583
