Adsorption isotherm of Isobutane on MAMS-2
DOI: 10.1021/Ja808896f
Adsorbate Isobutane: InChIKey NNPPMTNAJDCUHE-UHFFFAOYSA-N
Temperature: 295 K
Tabular data in the source: 0
pressure (bar)	uptake (cm3(STP)/g)
0.244139	0.113391
0.284409	0.132095
0.32217	0.305883
0.36244	0.324587
0.400186	0.185868
0.442989	0.518248
0.48075	0.692036
0.523545	0.868162
0.563815	0.886866
0.604093	1.06182
0.646888	1.23795
0.6922	1.41525
0.734995	1.59137
0.775266	1.61008
0.807993	1.78153
0.830661	2.10455
0.860864	2.11858
0.888549	2.13144
0.911225	2.61072
0.926334	2.77399
0.946485	3.09585
0.964119	3.41654
0.986779	3.58331
1.00188	3.59033
