Adsorption isotherm of Nitrogen on MAMS-3
DOI: 10.1021/Ja808896f
Adsorbate Nitrogen: InChIKey IJGRMHOSHXDMSA-UHFFFAOYSA-N
Temperature: 77 K
Tabular data in the source: 0
pressure (bar)	uptake (cm3(STP)/g)
0.0430006	0.170457
0.0784129	0.530052
0.113825	0.33064
0.144179	-0.0532387
0.192238	0.11535
0.240298	0.65661
0.280769	0.641666
0.323769	0.998459
0.364241	1.35619
0.402182	1.52851
0.440124	1.5145
0.518537	2.23089
0.559008	2.77495
0.604538	2.94447
0.645009	3.3022
0.675363	3.66366
0.713305	4.58133
0.743658	4.94279
0.774011	5.49059
0.814482	6.22099
0.834718	6.39985
0.862542	6.94858
0.892895	7.68272
0.925778	7.85691
0.96119	8.96185
0.983956	9.69878
1.00166	10.9966
