Adsorption isotherm of Carbon monoxide on MAMS-3
DOI: 10.1021/Ja808896f
Adsorbate Carbon monoxide: InChIKey UGFAIRIUMAVXCW-UHFFFAOYSA-N
Temperature: 113 K
Tabular data in the source: 0
pressure (bar)	uptake (cm3(STP)/g)
0.020302	0.490374
0.0456834	1.22718
0.0660246	2.95593
0.106597	2.94598
0.126907	3.68403
0.159856	3.18058
0.175079	3.42453
0.197901	3.41893
0.238481	3.65665
0.284141	4.1408
0.317106	4.13271
0.360231	4.61748
0.400819	5.10287
0.443935	5.33997
0.481987	5.82599
0.52004	6.31201
0.563148	6.30143
0.601193	6.53977
0.646861	7.2716
0.662083	7.51554
0.687457	8.00467
0.710294	8.49442
0.735652	8.4882
0.750875	8.73214
0.768633	8.97546
0.786407	9.71413
0.814301	9.70728
0.834603	10.1977
0.86504	10.4379
0.890406	10.6793
0.905644	11.4186
0.931002	11.4124
0.976669	12.1442
0.991892	12.3882
1.01219	12.8785
