Adsorption isotherm of Carbon monoxide on MAMS-2
DOI: 10.1021/Ja808896f
Adsorbate Carbon monoxide: InChIKey UGFAIRIUMAVXCW-UHFFFAOYSA-N
Temperature: 113 K
Tabular data in the source: 0
pressure (bar)	uptake (cm3(STP)/g)
0.0168771	1.48305
0.040505	2.33051
0.0675084	2.54237
0.0911363	2.9661
0.11814	2.9661
0.138392	3.38983
0.165395	3.81356
0.202525	4.23729
0.229528	4.44915
0.286911	4.66102
0.320665	4.87288
0.367921	5.08475
0.401675	5.29661
0.44218	5.50847
0.479309	5.72034
0.519814	5.72034
0.556944	6.14407
0.597449	6.5678
0.644705	6.99153
0.675084	7.62712
0.691961	7.62712
0.705462	8.05085
0.72909	8.05085
0.745967	8.26271
0.776346	8.47458
0.816851	8.47458
0.833728	8.26271
0.850605	8.26271
0.867482	8.89831
0.89111	9.5339
0.901237	10.3814
