Adsorption isotherm of Oxygen on MAMS-3
DOI: 10.1021/Ja808896f
Adsorbate Oxygen: InChIKey MYMOFIZGZYHOMD-UHFFFAOYSA-N
Temperature: 87 K
Tabular data in the source: 0
pressure (bar)	uptake (cm3(STP)/g)
0.00472844	6.48501
0.011025	14.3601
0.0172977	19.9203
0.0219973	23.6275
0.0298285	29.6519
0.0376645	36.1392
0.0439179	39.8476
0.048608	42.6289
0.0626687	50.0468
0.0813906	57.4682
0.0876393	60.7136
0.0969907	63.4984
0.115693	69.0679
0.123491	71.8515
0.143738	76.4962
0.174876	82.538
0.187344	86.251
0.216909	90.4398
0.249577	94.1679
0.279137	97.8936
0.29314	99.7559
0.321131	102.092
0.350677	104.429
0.366224	105.366
0.395775	108.166
0.412876	109.105
0.428423	110.042
0.447078	110.982
0.461071	111.918
0.484392	113.325
0.503047	114.265
0.518594	115.202
0.537254	116.605
0.552792	116.617
0.574559	118.022
0.590116	119.885
0.60409	118.97
0.618084	119.906
