Adsorption isotherm of Nitrogen on MAMS-4
DOI: 10.1021/Ja808896f
Adsorbate Nitrogen: InChIKey IJGRMHOSHXDMSA-UHFFFAOYSA-N
Temperature: 77 K
Tabular data in the source: 0
pressure (bar)	uptake (cm3(STP)/g)
0.0428931	1.85185
0.0630781	1.38889
0.100925	1.85185
0.156434	1.85185
0.191757	1.85185
0.239697	2.31481
0.280067	2.31481
0.317914	2.31481
0.360807	3.24074
0.398654	3.7037
0.44407	3.7037
0.481917	3.7037
0.519764	4.62963
0.562657	5.09259
0.600504	5.55556
0.643397	5.55556
0.673674	6.01852
0.698906	5.09259
0.724137	6.94444
0.744322	7.40741
0.76703	8.33333
0.804877	8.33333
0.830108	9.25926
0.885617	10.6481
0.938603	11.1111
0.973926	12.5
0.994111	12.5
