Adsorption isotherm of Hydrogen on MAMS-4
DOI: 10.1021/Ja808896f
Adsorbate Hydrogen: InChIKey UFHFLCQGNIYNRP-UHFFFAOYSA-N
Temperature: 77 K
Tabular data in the source: 0
pressure (bar)	uptake (cm3(STP)/g)
0.0293101	0.588346
0.100185	0.268875
0.175941	0.246469
0.207702	0.535583
0.246816	-0.0730011
0.281021	0.21539
0.322557	0.501612
0.3641	0.489324
0.403192	0.77627
0.447179	0.763259
0.481384	1.05165
0.525371	1.03864
0.554703	0.731457
0.608458	1.01407
0.637775	1.3039
0.684198	1.58868
0.711079	1.58073
0.73796	1.57278
0.752623	1.56844
0.784376	2.15606
0.816159	1.54965
0.845477	1.83948
0.874802	1.83081
0.908999	2.41771
0.943218	2.10908
0.979867	2.39675
0.994522	2.69092
