Adsorption isotherm of Hydrogen on MAMS-2
DOI: 10.1021/Ja808896f
Adsorbate Hydrogen: InChIKey UFHFLCQGNIYNRP-UHFFFAOYSA-N
Temperature: 77 K
Tabular data in the source: 0
pressure (bar)	uptake (cm3(STP)/g)
0.614326	0.224551
0.772783	0.224551
0.850793	0.224551
0.889798	0.449102
0.93124	0.224551
0.967807	0.224551
0.984872	0.224551
1.00925	0.449102
