Adsorption isotherm of Hydrogen on MAMS-2
DOI: 10.1021/Ja808896f
Adsorbate Hydrogen: InChIKey UFHFLCQGNIYNRP-UHFFFAOYSA-N
Temperature: 77 K
Tabular data in the source: 0
pressure (bar)	uptake (cm3(STP)/g)
0.0200222	2.30769
0.0432091	8.07692
0.0466968	5.76923
0.0598566	10.6731
0.0765363	12.6923
0.0831565	14.4231
0.103195	16.4423
0.123282	17.5962
0.136651	18.75
0.16008	20.1923
0.186868	21.6346
0.206874	24.2308
0.243737	25.6731
0.283911	27.9808
0.324101	30
0.370991	32.3077
0.407855	33.75
0.444653	36.3462
0.488218	38.0769
0.525081	39.5192
0.568629	41.5385
0.605509	42.6923
0.649089	44.1346
0.669176	45.2885
0.685904	46.4423
0.709349	47.5962
0.729452	48.4615
0.74618	49.6154
0.766316	49.9038
0.783076	50.4808
0.803211	50.7692
0.823347	51.0577
0.846776	52.5
0.856835	52.7885
0.873531	54.5192
0.900383	54.8077
0.933937	55.3846
0.964131	55.9615
0.977533	56.5385
1.00103	56.8269
