Adsorption isotherm of Nitrogen on MAMS-2
DOI: 10.1021/Ja808896f
Adsorbate Nitrogen: InChIKey IJGRMHOSHXDMSA-UHFFFAOYSA-N
Temperature: 87 K
Tabular data in the source: 0
pressure (bar)	uptake (cm3(STP)/g)
0.0202525	0.729253
0.040505	1.08641
0.0675084	1.0665
0.101263	1.04161
0.128266	1.39379
0.165395	1.36642
0.19915	1.34153
0.24303	1.68126
0.283535	1.6514
0.320665	1.99611
0.364545	1.96376
0.401675	1.93638
0.44218	1.90651
0.48606	1.87415
0.526565	1.84429
0.563695	2.189
0.6042	2.15914
0.644705	2.12927
0.671708	2.48145
0.708838	2.82616
0.759469	3.16092
0.789848	3.51062
0.803349	3.12857
0.843855	3.0987
0.867482	3.45337
0.894486	3.43346
0.938366	3.7732
0.968745	4.86708
0.999124	4.84468
