Adsorption isotherm of Oxygen on MAMS-4
DOI: 10.1021/Ja808896f
Adsorbate Oxygen: InChIKey MYMOFIZGZYHOMD-UHFFFAOYSA-N
Temperature: 77 K
Tabular data in the source: 0
pressure (bar)	uptake (cm3(STP)/g)
0.00100911	2.1523
0.0075683	3.68074
0.0131184	5.21072
0.0201821	6.123
0.0247231	7.03914
0.0292641	7.0322
0.032796	7.0268
0.0368324	7.02063
0.0423825	7.93522
0.047428	7.92751
0.0555009	8.22286
0.066601	8.51359
0.071142	8.50665
0.0787103	9.41816
0.0933424	9.70349
0.112011	10.598
0.132698	10.5664
0.138248	10.5579
0.145816	10.8541
0.151871	10.5371
0.172053	10.814
0.177098	11.1139
0.183657	10.7962
0.189207	11.0954
0.195262	11.0862
