Adsorption isotherm of Carbon monoxide on MAMS-2
DOI: 10.1021/Ja808896f
Adsorbate Carbon monoxide: InChIKey UGFAIRIUMAVXCW-UHFFFAOYSA-N
Temperature: 87 K
Tabular data in the source: 0
pressure (bar)	uptake (cm3(STP)/g)
0.023628	0.354671
0.0438804	0.339737
0.0573821	1.07397
0.0843855	1.05406
0.101263	1.4137
0.131641	1.01921
0.165396	0.994322
0.195775	0.971922
0.24303	1.30917
0.286911	1.27681
0.317289	1.25441
0.364545	1.59166
0.401676	1.56428
0.442179	1.53442
0.482684	1.87664
0.52319	1.84678
0.563695	1.44482
0.607575	2.15665
0.644705	2.50136
0.664957	2.48643
0.702087	2.45905
0.722339	2.81621
0.742593	2.42918
0.779721	2.7739
0.799975	2.75896
0.84048	2.7291
0.877609	3.4459
0.914739	3.41853
0.945117	3.76822
0.96537	4.12538
0.992373	4.47756
1.00588	4.09551
