Adsorption isotherm of Oxygen on MAMS-2
DOI: 10.1021/Ja808896f
Adsorbate Oxygen: InChIKey MYMOFIZGZYHOMD-UHFFFAOYSA-N
Temperature: 87 K
Tabular data in the source: 0
pressure (bar)	uptake (cm3(STP)/g)
2.22e-16	4.83721
0.00207341	8.92774
0.00414682	12.6462
0.00622022	15.9925
0.010367	18.9643
0.0165873	22.3057
0.0186607	24.9078
0.0248809	28.2492
0.0290277	30.4768
0.0331745	31.9602
0.0414682	36.0432
0.0518352	39.0075
0.0622022	41.5998
0.0746427	43.8174
0.09123	47.1463
0.0953768	49.3739
0.107817	50.4752
0.126478	53.0575
0.149285	56.3789
0.163799	58.222
0.190754	60.4222
0.232222	64.0933
0.248809	65.9339
0.269543	67.3974
0.302718	69.218
0.333819	71.0411
0.344186	72.5171
0.366993	73.606
0.408461	75.0446
0.420902	76.1459
0.431269	77.2497
0.441636	77.9815
0.458223	78.7058
0.472737	79.4325
0.493471	80.1518
0.505912	81.6253
0.526646	82.3446
0.545306	83.0663
0.561894	83.7906
0.576407	84.5174
0.597142	85.2367
0.613729	85.2168
