Adsorption isotherm of Hydrogen on MAMS-3
DOI: 10.1021/Ja808896f
Adsorbate Hydrogen: InChIKey UFHFLCQGNIYNRP-UHFFFAOYSA-N
Temperature: 77 K
Tabular data in the source: 0
pressure (bar)	uptake (cm3(STP)/g)
0.00731341	0.181269
0.0195024	1.08761
0.0316914	2.3565
0.0414426	3.80665
0.0585072	5.43807
0.0706963	7.06949
0.0853231	8.70091
0.102388	10.3323
0.124328	12.5076
0.14383	14.3202
0.163333	16.1329
0.185273	18.3082
0.202338	19.7583
0.24378	22.2961
0.282785	25.0151
0.324228	27.0091
0.363232	28.8218
0.404675	30.6344
0.441242	32.2659
0.485123	34.2598
0.526565	35.1662
0.56557	36.2538
0.599699	37.3414
0.64358	38.6103
0.663082	39.3353
0.682585	40.0604
0.706963	40.7855
0.724027	41.3293
0.741092	41.8731
0.76547	42.2356
0.784972	42.9607
0.80935	44.5921
0.83129	45.861
0.855668	47.1299
0.872733	47.6737
0.892236	48.7613
0.916614	49.3051
0.936116	49.8489
0.955618	50.3927
0.975121	50.9366
0.994623	51.6616
