Adsorption isotherm of Methane on MAMS-4
DOI: 10.1021/Ja808896f
Adsorbate Methane: InChIKey VNWKTOKETHGBQD-UHFFFAOYSA-N
Temperature: 113 K
Tabular data in the source: 0
pressure (bar)	uptake (cm3(STP)/g)
0.0276852	0.246914
0.0528535	0.740741
0.0679545	1.97531
0.0981565	3.45679
0.133392	3.45679
0.156044	3.45679
0.181212	3.45679
0.223998	3.7037
0.241616	3.7037
0.281885	4.19753
0.319638	4.69136
0.364941	5.18519
0.400176	4.93827
0.455547	5.92593
0.493299	6.17284
0.526018	6.41975
0.558737	6.66667
0.601523	7.16049
0.644309	8.14815
0.664444	8.14815
0.70723	8.88889
0.744983	9.1358
0.775185	9.62963
0.81042	10.6173
0.835589	11.358
0.885925	10.6173
0.928711	12.3457
0.968981	13.0864
0.996666	13.0864
