Adsorption isotherm of Propene on MAMS-2
DOI: 10.1021/Ja808896f
Adsorbate Propene: InChIKey QQONPFPTGQHPMA-UHFFFAOYSA-N
Temperature: 195 K
Tabular data in the source: 0
pressure (bar)	uptake (cm3(STP)/g)
0.000972892	0
0.013134	0.851064
0.0257816	2.34043
0.0311325	3.19149
0.0408615	4.25532
0.0501039	4.68085
0.0578871	5.31915
0.0666431	5.95745
0.0749127	6.59574
0.0826958	7.02128
0.0963163	8.29787
0.111883	8.93617
0.127449	10.2128
0.144474	11.4894
