Adsorption isotherm of Nitrogen on MAMS-4
DOI: 10.1021/Ja808896f
Adsorbate Nitrogen: InChIKey IJGRMHOSHXDMSA-UHFFFAOYSA-N
Temperature: 113 K
Tabular data in the source: 0
pressure (bar)	uptake (cm3(STP)/g)
0.0201347	6.17284
0.0427862	9.38272
0.0503367	12.0988
0.0578872	15.0617
0.0729882	17.284
0.0855723	18.5185
0.10319	20
0.120808	20.7407
0.156044	22.2222
0.193796	23.4568
0.249166	26.1728
0.291953	28.3951
0.327188	30.3704
0.364941	32.0988
0.407727	32.8395
0.45303	33.8272
0.495816	34.8148
0.538602	35.8025
0.566287	37.284
0.601523	38.7654
0.649343	40.2469
0.669478	41.4815
0.684579	41.9753
0.704713	42.716
0.724848	45.9259
0.744983	48.1481
0.770151	48.642
0.787769	49.6296
0.805387	50.3704
0.843139	51.358
0.868307	52.0988
0.883408	52.8395
0.90606	54.0741
0.926195	55.3086
0.95388	57.037
0.979048	58.0247
0.991632	59.5062
