Adsorption isotherm of Nitrogen on MAMS-2
DOI: 10.1021/Ja808896f
Adsorbate Nitrogen: InChIKey IJGRMHOSHXDMSA-UHFFFAOYSA-N
Temperature: 77 K
Tabular data in the source: 0
pressure (bar)	uptake (cm3(STP)/g)
0.0201019	0.288462
0.0402036	0.576923
0.0603055	0.865385
0.0770704	0.865385
0.103895	0.865385
0.127366	0.865385
0.150836	0.865385
0.17766	0.865385
0.204484	0.865385
0.241351	1.15385
0.281555	1.73077
0.318437	1.73077
0.368717	2.01923
0.408936	2.30769
0.449172	2.30769
0.489375	2.88462
0.529595	3.17308
0.566478	3.17308
0.606698	3.46154
0.646918	3.75
0.677079	4.03846
0.703887	4.32692
0.720636	4.61538
0.74409	4.90385
0.774251	5.19231
0.794353	5.48077
0.814454	5.76923
0.834556	6.05769
0.844615	6.05769
0.858011	6.34615
0.874776	6.34615
0.891525	6.63462
0.904937	6.63462
0.931729	7.21154
0.941771	7.5
0.95852	7.78846
0.9719	8.36538
0.981926	8.94231
0.991937	9.80769
0.998563	11.25
