Adsorption isotherm of Nitrogen on MAMS-4
DOI: 10.1021/Ja808896f
Adsorbate Nitrogen: InChIKey IJGRMHOSHXDMSA-UHFFFAOYSA-N
Temperature: 77 K
Tabular data in the source: 0
pressure (bar)	uptake (cm3(STP)/g)
0.0101178	1.53538
0.0379417	1.83459
0.0607068	3.05842
0.0834718	2.74378
0.101178	3.04608
0.129002	3.03759
0.154296	3.02988
0.169473	3.33295
0.202356	3.32292
0.237768	3.61982
0.283298	3.91363
0.323769	3.90129
0.364241	4.19665
0.402182	4.80046
0.440124	4.7889
0.483125	5.08348
0.526125	5.37806
0.566596	5.67341
0.609597	5.968
0.645009	6.26489
0.670304	6.56487
0.68801	6.86717
0.715834	7.16638
0.743658	7.46559
0.774011	8.07172
0.814482	8.36707
0.842306	8.97397
0.887836	9.88317
0.930837	10.7931
0.96372	11.3985
0.996603	11.6962
