Adsorption isotherm of Ethene on MAMS-2
DOI: 10.1021/Ja808896f
Adsorbate Ethene: InChIKey VGGSQFUCUMXWEO-UHFFFAOYSA-N
Temperature: 143 K
Tabular data in the source: 0
pressure (bar)	uptake (cm3(STP)/g)
0.000524401	0.251046
0.0015732	2.76151
0.00734162	3.76569
0.0162564	4.01674
0.0288421	5.52301
0.0424765	7.78243
0.0592573	9.79079
0.0781358	12.0502
0.0996363	13.8075
0.116417	16.318
0.126905	16.8201
0.140015	17.0711
0.147881	17.3222
