Adsorption isotherm of Hydrogen on MAMS-3
DOI: 10.1021/Ja808896f
Adsorbate Hydrogen: InChIKey UFHFLCQGNIYNRP-UHFFFAOYSA-N
Temperature: 77 K
Tabular data in the source: 0
pressure (bar)	uptake (cm3(STP)/g)
0.024378	0
0.163333	0.181269
0.204775	0.181269
0.241342	0.362538
0.282785	0.181269
0.32179	0.181269
0.363232	0.362538
0.402237	0.543807
0.44368	0.362538
0.482685	0.181269
0.52169	0.543807
0.563132	0.543807
0.604575	0.543807
0.646018	0.906344
0.675271	0.906344
0.7094	0.906344
0.745967	1.08761
0.76547	1.08761
0.782534	1.08761
0.814226	1.26888
0.848355	1.45015
0.875171	1.45015
0.911738	1.63142
0.948305	1.81269
0.975121	1.81269
0.994623	1.99396
