Adsorption isotherm of Oxygen on MAMS-2
DOI: 10.1021/Ja808896f
Adsorbate Oxygen: InChIKey MYMOFIZGZYHOMD-UHFFFAOYSA-N
Temperature: 77 K
Tabular data in the source: 0
pressure (bar)	uptake (cm3(STP)/g)
0.00601301	0.576923
0.0147045	0.865385
0.0233993	0.865385
0.0327564	1.44231
0.0387694	2.01923
0.0487986	2.30769
0.0561557	2.30769
0.0742108	2.59615
0.0902562	3.17308
0.0976101	3.46154
0.104964	3.75
0.120341	4.32692
0.130376	4.03846
0.13773	4.32692
0.143074	4.90385
0.150425	5.48077
0.15711	5.76923
0.165798	6.34615
0.171818	6.34615
0.183181	6.92308
0.189857	8.07692
0.195188	9.80769
0.198522	10.6731
