Adsorption isotherm of Isobutane on MAMS-2
DOI: 10.1021/Ja808896f
Adsorbate Isobutane: InChIKey NNPPMTNAJDCUHE-UHFFFAOYSA-N
Temperature: 231 K
Tabular data in the source: 0
pressure (bar)	uptake (cm3(STP)/g)
0.000924516	0.232558
0.0349775	0.465116
0.070871	0.697674
0.0911247	1.16279
0.113215	1.39535
0.13438	1.39535
0.153718	2.09302
0.173047	2.32558
0.192385	3.02326
0.20713	4.18605
0.220972	6.27907
0.241256	8.37209
0.273524	11.6279
