Adsorption isotherm of Ethene on MAMS-2
DOI: 10.1021/Ja808896f
Adsorbate Ethene: InChIKey VGGSQFUCUMXWEO-UHFFFAOYSA-N
Temperature: 195 K
Tabular data in the source: 0
pressure (bar)	uptake (cm3(STP)/g)
0.00340963	4.46809
0.00681926	9.78723
0.0170481	15.5319
0.027277	18.0851
0.0340963	19.7872
0.0443252	21.4894
0.0613733	22.9787
0.0818311	24.0426
0.0886503	25.1064
0.0988792	25.7447
0.115927	26.5957
0.136385	27.6596
0.156843	28.5106
0.177301	29.1489
0.197758	30
0.242084	31.2766
0.27959	32.3404
0.317095	33.4043
0.361421	34.2553
0.402336	35.3191
0.443252	35.9574
0.484167	36.5957
0.525083	37.4468
0.565998	38.0851
0.600095	38.7234
0.647829	39.5745
0.661468	40
0.681926	40.2128
0.712612	40.6383
0.72966	41.0638
0.756938	41.9149
0.791034	42.3404
0.818311	42.5532
0.838769	43.1915
0.862636	43.617
0.886503	44.0426
0.910371	44.4681
0.947877	45.1064
0.975154	45.3191
0.999021	45.3191
1.01607	46.1702
