Adsorption isotherm of Carbon monoxide on MAMS-3
DOI: 10.1021/Ja808896f
Adsorbate Carbon monoxide: InChIKey UGFAIRIUMAVXCW-UHFFFAOYSA-N
Temperature: 87 K
Tabular data in the source: 0
pressure (bar)	uptake (cm3(STP)/g)
0.0354126	0.0162444
0.0986493	0.0452524
0.199828	0.0916651
0.23777	0.10907
0.280771	0.128795
0.32125	0.610327
0.364259	1.09302
0.399679	1.57223
0.442688	2.05492
0.48316	2.07349
0.523639	2.55502
0.56664	2.57474
0.60459	3.05512
0.645077	3.99961
0.667842	4.01006
0.688078	4.01934
0.710843	4.02978
0.748801	4.97312
0.809524	5.9269
0.839885	6.40379
0.870246	6.88068
0.898078	7.35641
0.930969	7.83446
0.956272	8.30903
0.98917	9.25005
1.00182	9.25585
