Adsorption isotherm of Carbon monoxide on MAMS-4
DOI: 10.1021/Ja808896f
Adsorbate Carbon monoxide: InChIKey UGFAIRIUMAVXCW-UHFFFAOYSA-N
Temperature: 143 K
Tabular data in the source: 0
pressure (bar)	uptake (cm3(STP)/g)
0.0201347	5.69659
0.0402693	9.41176
0.045303	11.3932
0.0679545	15.356
0.0855723	17.3375
0.10319	18.8235
0.123325	20.805
0.143459	23.0341
0.163594	24.7678
0.181212	26.7492
0.20638	28.2353
0.244133	30.9598
0.289436	33.4365
0.322155	35.1703
0.359907	40.1238
0.395143	41.8576
0.455547	44.0867
0.50085	45.8204
0.543636	47.8019
0.566287	49.0402
0.606557	50.5263
0.641792	52.5077
0.666961	53.9938
0.704713	55.9752
0.729882	58.2043
0.760084	59.6904
0.787769	61.4241
0.812937	62.4149
0.828038	63.9009
0.855723	65.387
0.880892	67.3684
0.895993	68.1115
0.90606	68.8545
0.918644	70.0929
0.931228	71.0836
0.943812	71.8266
0.96143	72.0743
0.991632	73.3127
