Adsorption isotherm of Hydrogen on MAMS-3
DOI: 10.1021/Ja808896f
Adsorbate Hydrogen: InChIKey UFHFLCQGNIYNRP-UHFFFAOYSA-N
Temperature: 77 K
Tabular data in the source: 0
pressure (bar)	uptake (cm3(STP)/g)
0.024378	0.181269
0.0585072	0.181269
0.0877609	0.181269
0.117014	0.725076
0.146268	0.543807
0.175522	0.906344
0.1999	1.08761
0.246218	1.26888
0.282785	1.45015
0.32179	1.63142
0.360795	1.63142
0.404675	1.81269
0.438804	2.17523
0.482685	2.17523
0.524127	2.3565
0.56557	2.71903
0.599699	2.53776
0.641142	2.9003
0.675271	3.26284
0.716714	3.62538
0.758156	3.80665
0.782534	4.16918
0.80935	4.35045
0.838604	4.89426
0.870295	5.2568
0.897111	5.8006
0.933678	6.70695
0.970245	7.25076
0.994623	7.61329
