Adsorption isotherm of Carbon monoxide on MAMS-4
DOI: 10.1021/Ja808896f
Adsorbate Carbon monoxide: InChIKey UGFAIRIUMAVXCW-UHFFFAOYSA-N
Temperature: 113 K
Tabular data in the source: 0
pressure (bar)	uptake (cm3(STP)/g)
0.0201347	0.740741
0.0503367	1.23457
0.0629208	3.20988
0.0855723	3.45679
0.10319	4.44444
0.138426	4.69136
0.176178	4.69136
0.216448	5.18519
0.249166	5.4321
0.279368	5.92593
0.319638	6.17284
0.359907	6.41975
0.400176	7.16049
0.442963	7.65432
0.480715	8.39506
0.523501	8.88889
0.563771	9.38272
0.606557	9.87654
0.649343	10.8642
0.666961	10.6173
0.704713	10.8642
0.729882	11.1111
0.750016	11.358
0.765117	11.1111
0.807903	11.6049
0.833072	11.8519
0.843139	11.8519
0.85824	11.8519
0.878375	13.0864
0.90606	13.0864
0.923678	13.3333
0.95388	13.0864
0.984082	13.0864
