Adsorption isotherm of Oxygen on MAMS-3
DOI: 10.1021/Ja808896f
Adsorbate Oxygen: InChIKey MYMOFIZGZYHOMD-UHFFFAOYSA-N
Temperature: 77 K
Tabular data in the source: 0
pressure (bar)	uptake (cm3(STP)/g)
0.0206867	1.07972
0.0393552	0.858824
0.051969	1.39448
0.0600418	1.37954
0.099397	1.30668
0.108479	1.47621
0.123111	1.44912
0.134211	1.61491
0.143798	1.7835
0.151366	1.95582
0.162971	2.12067
0.170539	2.293
0.179116	2.83613
0.187189	3.00752
0.193748	3.92705
