Adsorption isotherm of Isobutane on MAMS-4
DOI: 10.1021/Ja808896f
Adsorbate Isobutane: InChIKey NNPPMTNAJDCUHE-UHFFFAOYSA-N
Temperature: 87 K
Tabular data in the source: 0
pressure (bar)	uptake (cm3(STP)/g)
0.0228953	0.306368
0.0559672	0.766315
0.0763124	0.916736
0.101742	1.06558
0.124613	0.901733
0.144974	1.36563
0.162785	1.67358
0.190765	1.97836
0.203468	1.81768
0.23909	2.43357
0.279788	2.89115
0.323021	3.1912
0.361169	3.49283
0.401875	4.10715
0.445124	4.72068
0.48583	5.33499
0.526528	5.79257
0.569785	6.56283
0.610483	7.02041
0.651181	7.47799
0.671534	7.78515
0.69698	8.24746
0.717341	8.71136
0.740236	9.01773
0.760573	9.01141
0.780935	9.4753
0.798738	9.62652
0.821625	9.77615
0.859773	10.0778
0.88266	10.2274
0.920817	10.6858
0.943712	10.9921
0.979302	10.9811
1.00219	11.1307
