Adsorption isotherm of Methane on MAMS-4
DOI: 10.1021/Ja808896f
Adsorbate Methane: InChIKey VNWKTOKETHGBQD-UHFFFAOYSA-N
Temperature: 143 K
Tabular data in the source: 0
pressure (bar)	uptake (cm3(STP)/g)
0.015101	7.67802
0.0427862	13.87
0.060404	18.3282
0.075505	19.8142
0.0956397	22.7864
0.120808	25.2632
0.145976	26.9969
0.161077	27.7399
0.186246	28.483
0.20638	28.483
0.256717	30.2167
0.299503	31.2074
0.322155	34.6749
0.362424	36.6563
0.40521	38.8854
0.440446	44.8297
0.495816	47.0588
0.533569	48.2972
0.583905	50.2786
0.629208	52.0124
0.654377	52.0124
0.684579	53.7461
0.714781	54.4892
0.727365	55.2322
0.760084	56.2229
0.770151	55.4799
0.787769	55.9752
0.807903	56.7183
0.833072	57.709
0.870824	58.452
0.908577	59.6904
0.946329	60.6811
0.966464	61.4241
0.996666	61.9195
