Adsorption isotherm of Carbon Dioxide on MCM-41
DOI: 10.1021/Jp105464u
Adsorbate Carbon Dioxide: InChIKey CURLTUGMZLYLDI-UHFFFAOYSA-N
Temperature: 298 K
Tabular data in the source: 0
pressure (bar)	uptake (mmol/cm3)
0.303804	0.522027
1.07651	0.807345
2.15793	1.23525
3.08468	1.61557
4.9382	2.37623
6.9476	3.08959
10.0421	3.94628
15.0006	4.75731
19.9541	5.94778
24.9113	6.85367
29.8667	7.90185
39.934	9.90349
49.8619	10.6718
