Adsorption isotherm of Carbon Dioxide on MCM-41
DOI: 10.1021/Jp105464u
Adsorbate Carbon Dioxide: InChIKey CURLTUGMZLYLDI-UHFFFAOYSA-N
Temperature: 298 K
Tabular data in the source: 0
pressure (bar)	uptake (mmol/cm3)
1.23363	0.665202
2.15854	1.18782
6.95312	2.66272
10.0495	3.37712
15.0061	4.33044
20.1192	5.18905
24.9205	6.14222
30.033	7.04825
39.9481	8.8126
49.873	9.81806
