Adsorption isotherm of Carbon Dioxide on MCM-41
DOI: 10.1021/Jp105464u
Adsorbate Carbon Dioxide: InChIKey CURLTUGMZLYLDI-UHFFFAOYSA-N
Temperature: 298 K
Tabular data in the source: 0
pressure (bar)	uptake (mmol/cm3)
0.606061	0.0654116
1.21212	0.140152
2.12121	0.280246
3.0303	0.420341
5.30303	0.663303
6.9697	0.822196
10	1.04664
15.1515	1.36477
20	1.56157
25	1.7584
30.1515	1.84331
40.1515	2.00376
50	2.16418
