Adsorption isotherm of Carbon Dioxide on MCM-41
DOI: 10.1021/Jp105464u
Adsorbate Carbon Dioxide: InChIKey CURLTUGMZLYLDI-UHFFFAOYSA-N
Temperature: 298 K
Tabular data in the source: 0
pressure (bar)	uptake (mmol/cm3)
2.05816	1.18985
2.93752	1.51412
4.83939	1.98207
6.88597	2.3777
9.95979	3.24191
14.9255	3.88814
19.8906	4.49827
25.1473	5.1082
30.113	5.75443
40.0423	6.9025
50.1205	8.26706
