Adsorption isotherm of Carbon Dioxide on MCM-41
DOI: 10.1021/Jp105464u
Adsorbate Carbon Dioxide: InChIKey CURLTUGMZLYLDI-UHFFFAOYSA-N
Temperature: 298 K
Tabular data in the source: 0
pressure (bar)	uptake (mmol/cm3)
0.00263125	0.180504
0.445733	0.577295
1.03303	0.86568
1.91397	1.29826
2.94226	1.83903
4.8457	2.41527
6.89281	2.84701
9.96137	3.35021
15.0749	4.14074
20.0433	4.96748
25.1521	5.4331
29.9725	6.11554
40.0486	7.3357
50.1189	8.15876
