Adsorption isotherm of Carbon Dioxide on MCM-41
DOI: 10.1021/Jp105464u
Adsorbate Carbon Dioxide: InChIKey CURLTUGMZLYLDI-UHFFFAOYSA-N
Temperature: 298 K
Tabular data in the source: 0
pressure (bar)	uptake (mmol/cm3)
0.606061	0.102725
0.909091	0.205393
1.9697	0.336188
3.0303	0.457655
9.84848	1.15855
14.8485	1.41135
19.8485	1.61751
25	1.80504
30	1.95522
39.8485	2.28355
50	2.37873
