Adsorption isotherm of Carbon Dioxide on MCM-41
DOI: 10.1021/Jp105464u
Adsorbate Carbon Dioxide: InChIKey CURLTUGMZLYLDI-UHFFFAOYSA-N
Temperature: 298 K
Tabular data in the source: 0
pressure (bar)	uptake (mmol/cm3)
1.84458	0.729867
2.87932	0.991591
4.71818	1.42146
6.90029	1.85107
9.88258	2.24259
14.8089	2.57639
20.0794	2.96619
25.1209	3.33741
30.1537	3.25863
40.2293	3.62608
50.0719	3.7687
