Adsorption isotherm of Carbon Dioxide on MCM-41
DOI: 10.1021/Jp105464u
Adsorbate Carbon Dioxide: InChIKey CURLTUGMZLYLDI-UHFFFAOYSA-N
Temperature: 298 K
Tabular data in the source: 0
pressure (bar)	uptake (mmol/cm3)
1.00175	0.146183
2.11442	0.32881
3.11887	0.329541
5.23532	0.549262
7.23881	0.841628
9.91329	1.06176
15.0434	1.26549
20.1698	1.66921
25.0798	1.70915
29.9871	1.89454
40.1395	2.10192
49.9567	2.32724
