Adsorption isotherm of Carbon Dioxide on MCM-41
DOI: 10.1021/Jp105464u
Adsorbate Carbon Dioxide: InChIKey CURLTUGMZLYLDI-UHFFFAOYSA-N
Temperature: 298 K
Tabular data in the source: 0
pressure (bar)	uptake (mmol/cm3)
7.01999	0.605105
9.91734	0.843576
15.0461	1.12003
20.0626	1.43277
25.0808	1.6546
29.9881	1.83999
40.0279	2.10184
49.8427	2.45443
