Adsorption isotherm of Carbon Dioxide on MCM-41
DOI: 10.1021/Jp105464u
Adsorbate Carbon Dioxide: InChIKey CURLTUGMZLYLDI-UHFFFAOYSA-N
Temperature: 298 K
Tabular data in the source: 0
pressure (bar)	uptake (mmol/cm3)
0.811273	0.543142
1.85138	1.08611
3.11208	1.19767
4.95094	1.62754
7.13269	2.0384
10.0009	2.44875
15.0438	2.89497
19.9679	3.11627
25.2399	3.58107
30.163	3.74613
40.2368	4.01982
50.1906	3.99361
