Adsorption isotherm of Carbon Dioxide on MCM-41
DOI: 10.1021/Jp105464u
Adsorbate Carbon Dioxide: InChIKey CURLTUGMZLYLDI-UHFFFAOYSA-N
Temperature: 298 K
Tabular data in the source: 0
pressure (bar)	uptake (mmol/cm3)
0.442071	0.326087
0.737842	0.615942
1.91089	1.08696
2.93605	1.41304
4.9832	1.84783
7.03142	2.35507
9.80743	2.78986
14.9221	3.65942
20.0358	4.45652
25.1431	4.81884
30.1121	5.68841
40.0394	6.7029
50.2599	7.82609
