Adsorption isotherm of Carbon Dioxide on MCM-41
DOI: 10.1021/Jp105464u
Adsorbate Carbon Dioxide: InChIKey CURLTUGMZLYLDI-UHFFFAOYSA-N
Temperature: 298 K
Tabular data in the source: 0
pressure (bar)	uptake (mmol/g)
0.821596	0.078358
1.99531	0.140882
3.16901	0.187683
5.04695	0.312878
6.80751	0.406664
9.85915	0.547214
15.1408	0.749956
20.0704	0.905638
25	1.02987
29.9296	1.15411
40.0235	1.40251
50	1.5566
