Adsorption isotherm of Carbon Dioxide on MCM-41
DOI: 10.1021/Jp105464u
Adsorbate Carbon Dioxide: InChIKey CURLTUGMZLYLDI-UHFFFAOYSA-N
Temperature: 298 K
Tabular data in the source: 0
pressure (bar)	uptake (mmol/cm3)
0.342466	0.35862
0.913242	0.792797
2.05479	1.11398
2.96804	1.54829
5.02283	2.0585
6.96347	2.75734
9.93151	3.19243
15.0685	3.6472
19.9772	3.98867
25	4.5566
29.9087	4.7094
39.9543	5.05281
49.8858	5.54713
