Adsorption isotherm of Carbon Dioxide on MCM-41
DOI: 10.1021/Jp105464u
Adsorbate Carbon Dioxide: InChIKey CURLTUGMZLYLDI-UHFFFAOYSA-N
Temperature: 298 K
Tabular data in the source: 0
pressure (bar)	uptake (mmol/g)
0.938967	0.251277
1.87793	0.534001
3.16901	0.596488
5.04695	0.84747
7.04225	1.08269
10.0939	1.19179
15.0235	1.31603
20.0704	1.51885
25.1174	1.69021
29.9296	1.75159
40.2582	1.93703
50.1174	1.93393
