Adsorption isotherm of Carbon Dioxide on MCM-41
DOI: 10.1021/Jp105464u
Adsorbate Carbon Dioxide: InChIKey CURLTUGMZLYLDI-UHFFFAOYSA-N
Temperature: 298 K
Tabular data in the source: 0
pressure (bar)	uptake (mmol/cm3)
2.05479	0.604549
2.96804	0.850177
5.02283	1.1151
6.84932	1.45541
10.0457	1.72077
14.9543	2.02451
20.0913	2.32834
25.1142	2.61325
29.9087	2.93581
39.8402	3.24145
49.8858	3.37732
