Adsorption isotherm of Carbon Dioxide on MCM-41
DOI: 10.1021/Jp105464u
Adsorbate Carbon Dioxide: InChIKey CURLTUGMZLYLDI-UHFFFAOYSA-N
Temperature: 298 K
Tabular data in the source: 0
pressure (bar)	uptake (mmol/cm3)
1.21212	0.074853
1.9697	0.130964
2.87879	0.205761
5.15152	0.327454
6.9697	0.430405
9.84848	0.570867
14.8485	0.814337
19.8485	1.03915
25	1.19869
30	1.34888
39.8485	1.59326
50	1.76306
