Adsorption isotherm of Carbon Dioxide on MCM-41
DOI: 10.1021/Jp105464u
Adsorbate Carbon Dioxide: InChIKey CURLTUGMZLYLDI-UHFFFAOYSA-N
Temperature: 298 K
Tabular data in the source: 0
pressure (bar)	uptake (mmol/cm3)
1.07712	0.759915
3.08653	1.47328
4.94311	1.99678
6.95558	2.473
10.2066	3.23498
15.0098	4.04586
19.9688	4.80946
24.9279	5.57305
29.8857	6.43151
39.8045	7.91128
49.8858	8.82203
