Adsorption isotherm of Carbon Dioxide on MCM-41
DOI: 10.1021/Jp105464u
Adsorbate Carbon Dioxide: InChIKey CURLTUGMZLYLDI-UHFFFAOYSA-N
Temperature: 298 K
Tabular data in the source: 0
pressure (bar)	uptake (mmol/cm3)
1.82648	0.736538
2.96804	0.774705
5.02283	1.07737
6.96347	1.43659
10.274	1.60765
15.1826	1.68497
20.2055	2.04536
25.1142	2.27363
29.9087	2.35091
39.8402	2.59994
49.8858	2.60373
