Adsorption isotherm of Carbon Dioxide on MCM-41
DOI: 10.1021/Jp105464u
Adsorbate Carbon Dioxide: InChIKey CURLTUGMZLYLDI-UHFFFAOYSA-N
Temperature: 298 K
Tabular data in the source: 0
pressure (bar)	uptake (mmol/cm3)
2.12121	0.130993
3.0303	0.168476
5	0.308769
6.9697	0.374435
10	0.533582
15	0.73041
20	0.908582
25	1.03078
30.1515	1.16234
39.8485	1.42534
49.8485	1.56714
