Adsorption isotherm of Carbon Dioxide on MCM-41
DOI: 10.1021/Jp105464u
Adsorbate Carbon Dioxide: InChIKey CURLTUGMZLYLDI-UHFFFAOYSA-N
Temperature: 298 K
Tabular data in the source: 0
pressure (bar)	uptake (mmol/cm3)
0.982817	0.279618
2.16497	0.531441
2.94937	0.810948
4.92331	1.11903
6.90002	1.34339
9.86416	1.70783
14.8105	2.1292
19.756	2.57847
24.9008	2.99994
29.8601	3.03062
39.9651	3.45486
49.8754	3.76737
