Adsorption isotherm of Carbon Dioxide on MCM-41
DOI: 10.1021/Jp105464u
Adsorbate Carbon Dioxide: InChIKey CURLTUGMZLYLDI-UHFFFAOYSA-N
Temperature: 298 K
Tabular data in the source: 0
pressure (bar)	uptake (mmol/cm3)
0.444681	0.505094
1.47613	1.26247
2.94068	1.73073
4.9899	2.30687
6.89229	2.81091
9.81665	3.42252
14.7876	4.42976
19.9006	5.18419
25.0174	6.19132
29.9846	6.94586
40.2149	8.74353
49.9968	9.7834
