Adsorption isotherm of Carbon Dioxide on MCM-41
DOI: 10.1021/Jp105464u
Adsorbate Carbon Dioxide: InChIKey CURLTUGMZLYLDI-UHFFFAOYSA-N
Temperature: 298 K
Tabular data in the source: 0
pressure (bar)	uptake (mmol/g)
1.76056	0.596931
2.93427	0.800964
4.81221	1.06767
7.15962	1.34995
9.97653	1.60064
15.1408	1.89775
19.9531	2.17926
24.8826	2.44501
29.9296	2.72644
40.0235	3.00628
50	3.12893
