Adsorption isotherm of Carbon Dioxide on MCM-41
DOI: 10.1021/Jp105464u
Adsorbate Carbon Dioxide: InChIKey CURLTUGMZLYLDI-UHFFFAOYSA-N
Temperature: 298 K
Tabular data in the source: 0
pressure (bar)	uptake (mmol/cm3)
1.91528	0.506024
2.8162	0.722892
4.94726	0.777108
6.97026	1.04819
9.88945	1.28313
14.9404	1.60843
19.8809	2.0241
25.0412	2.20482
29.976	2.31325
40.0704	2.56627
50.0513	2.74699
