Adsorption isotherm of Carbon Dioxide on MCM-41
DOI: 10.1021/Jp105464u
Adsorbate Carbon Dioxide: InChIKey CURLTUGMZLYLDI-UHFFFAOYSA-N
Temperature: 298 K
Tabular data in the source: 0
pressure (bar)	uptake (mmol/g)
0.234742	0.0313727
0.586854	0.157048
1.05634	0.219794
2.23005	0.329487
3.05164	0.455015
5.04695	0.564451
7.15962	0.626679
9.97653	0.75158
15.1408	0.860019
20.0704	0.827022
30.0469	0.996841
40.0235	1.0566
50.1174	1.16349
