Adsorption isotherm of Carbon Dioxide on MCM-41
DOI: 10.1021/Jp105464u
Adsorbate Carbon Dioxide: InChIKey CURLTUGMZLYLDI-UHFFFAOYSA-N
Temperature: 298 K
Tabular data in the source: 0
pressure (bar)	uptake (mmol/g)
0.586854	0.298558
1.05634	0.675768
1.99531	0.942769
2.8169	1.28842
4.92958	1.72801
6.92488	2.2777
9.85915	2.60696
15.1408	2.99838
20.0704	3.26413
25	3.73428
30.0469	3.84275
40.0235	4.09119
50.1174	4.49682
