Adsorption isotherm of Carbon Dioxide on MCM-41
DOI: 10.1021/Jp105464u
Adsorbate Carbon Dioxide: InChIKey CURLTUGMZLYLDI-UHFFFAOYSA-N
Temperature: 298 K
Tabular data in the source: 0
pressure (bar)	uptake (mmol/cm3)
2.15977	1.09296
4.78721	2.04407
6.95496	2.52043
9.89726	3.13982
19.9682	4.85689
24.9273	5.62048
29.5758	6.38379
39.9591	7.95885
49.884	8.96432
