Adsorption isotherm of Carbon Dioxide on MCM-41
DOI: 10.1021/Jp105464u
Adsorbate Carbon Dioxide: InChIKey CURLTUGMZLYLDI-UHFFFAOYSA-N
Temperature: 298 K
Tabular data in the source: 0
pressure (bar)	uptake (mmol/cm3)
2.87217	0.616596
5.05285	0.97121
6.9979	0.969752
9.97876	1.28627
15.0195	1.61999
19.832	1.99138
25.0973	2.09993
30.1351	2.28365
40.0967	2.66993
50.1677	2.79362
