Adsorption isotherm of Carbon Dioxide on MCM-41
DOI: 10.1021/Jp105464u
Adsorbate Carbon Dioxide: InChIKey CURLTUGMZLYLDI-UHFFFAOYSA-N
Temperature: 298 K
Tabular data in the source: 0
pressure (bar)	uptake (mmol/cm3)
0.789818	0.271084
1.91461	0.46988
2.92493	0.542169
5.05801	0.704819
6.96823	0.939759
9.77396	1.10241
14.939	1.53614
19.8802	1.98795
25.1513	2.09639
29.9746	2.24096
40.068	2.43976
49.8264	2.71084
