Adsorption isotherm of Carbon Dioxide on MCM-41
DOI: 10.1021/Jp105464u
Adsorbate Carbon Dioxide: InChIKey CURLTUGMZLYLDI-UHFFFAOYSA-N
Temperature: 298 K
Tabular data in the source: 0
pressure (bar)	uptake (mmol/cm3)
0.385744	0.335099
1.16461	0.782045
1.9481	1.08946
2.92538	1.53652
5.09035	2.06796
6.65639	2.71069
10.0155	3.13117
14.9591	3.63626
19.9092	3.946
24.851	4.50689
30.2025	4.67732
40.1128	4.98983
49.8182	5.49757
