Adsorption isotherm of Carbon Dioxide on MCM-41
DOI: 10.1021/Jp105464u
Adsorbate Carbon Dioxide: InChIKey CURLTUGMZLYLDI-UHFFFAOYSA-N
Temperature: 298 K
Tabular data in the source: 0
pressure (bar)	uptake (mmol/cm3)
3.0303	0.345715
5	0.523321
6.9697	0.700927
10	0.88806
15	1.1222
20	1.32836
25	1.45989
30.303	1.56349
39.8485	1.76117
49.8485	1.89363
