Adsorption isotherm of Carbon Dioxide on MCM-41
DOI: 10.1021/Jp105464u
Adsorbate Carbon Dioxide: InChIKey CURLTUGMZLYLDI-UHFFFAOYSA-N
Temperature: 298 K
Tabular data in the source: 0
pressure (bar)	uptake (mmol/cm3)
1.00377	0.0370937
1.8956	0.0922877
3.01065	0.147644
5.12912	0.258276
7.13667	0.332463
10.0357	0.480026
15.0546	0.665494
19.9619	0.850881
25.2049	0.981967
29.8904	1.09447
40.0424	1.32003
49.8617	1.43626
