Adsorption isotherm of Carbon Dioxide on MCM-41
DOI: 10.1021/Jp105464u
Adsorbate Carbon Dioxide: InChIKey CURLTUGMZLYLDI-UHFFFAOYSA-N
Temperature: 298 K
Tabular data in the source: 0
pressure (bar)	uptake (mmol/cm3)
0.463023	0.280903
1.03653	0.355473
1.95399	0.467285
2.87396	0.710345
4.70746	0.858969
7.00004	1.08225
9.97447	1.06127
15.0144	1.35749
20.0516	1.50371
25.2017	1.57485
30.1226	1.62741
40.3105	1.88227
50.0372	1.94997
