Adsorption isotherm of Carbon Dioxide on MCM-41
DOI: 10.1021/Jp105464u
Adsorbate Carbon Dioxide: InChIKey CURLTUGMZLYLDI-UHFFFAOYSA-N
Temperature: 298 K
Tabular data in the source: 0
pressure (bar)	uptake (mmol/cm3)
0.456621	0.207719
1.25571	0.358964
2.16895	0.453649
3.08219	0.66154
5.02283	0.794348
7.07763	0.908331
10.0457	1.09813
15.0685	1.26984
19.9772	1.23395
25.1142	1.38684
29.9087	1.42638
40.0685	1.54342
50	1.75472
