Adsorption isotherm of Carbon Dioxide on MCM-41
DOI: 10.1021/Jp105464u
Adsorbate Carbon Dioxide: InChIKey CURLTUGMZLYLDI-UHFFFAOYSA-N
Temperature: 298 K
Tabular data in the source: 0
pressure (bar)	uptake (mmol/cm3)
3.23996	1.61572
5.09593	2.18665
7.10594	2.85259
10.0489	3.42455
14.8508	4.33029
20.118	5.28391
25.0752	6.18979
30.0392	6.57395
39.9487	8.76517
50.0203	10.4348
