Adsorption isotherm of Carbon Dioxide on MCM-41
DOI: 10.1021/Jp105464u
Adsorbate Carbon Dioxide: InChIKey CURLTUGMZLYLDI-UHFFFAOYSA-N
Temperature: 298 K
Tabular data in the source: 0
pressure (bar)	uptake (mmol/cm3)
0.739907	0.757589
1.91344	1.26216
2.79386	1.65863
4.84307	2.23477
6.88808	2.5221
9.95979	3.24191
14.7818	4.03265
19.7533	5.07599
25.1563	5.72191
30.2688	6.44024
40.0565	7.87722
50.1284	8.80857
