Adsorption isotherm of Carbon Dioxide on MCM-41
DOI: 10.1021/Jp105464u
Adsorbate Carbon Dioxide: InChIKey CURLTUGMZLYLDI-UHFFFAOYSA-N
Temperature: 298 K
Tabular data in the source: 0
pressure (bar)	uptake (mmol/cm3)
2.57576	0.308316
5.15152	0.458051
6.9697	0.616972
10.1515	0.794804
15	1.07556
20	1.2444
25	1.42257
30	1.60075
39.8485	1.78915
50	2.06157
