Adsorption isotherm of Nitrogen on AC@Fe3O4
DOI: 10.1016/j.jece.2017.03.006
Article source: Figure 4
Adsorbate Nitrogen: InChIKey IJGRMHOSHXDMSA-UHFFFAOYSA-N
Kind: experiment
Temperature: 77 K
Tabular data in the source: 0
pressure (bar)	uptake (cm3(STP)/g)
0.000426	22.29
0.00073	35.28
0.001337	69.86
0.006079	95.13
0.016728	101.76
0.034176	108.4
0.043275	110.98
0.050347	114.27
0.065434	118
0.085557	119.87
0.097848	122.98
0.103248	121.02
0.148702	128.23
0.178318	128.14
0.196009	132.32
0.204764	130.18
0.224512	133.65
0.289885	135.43
0.308326	138.27
0.314101	136.94
0.390468	142.28
0.404623	140.5
0.423996	143.79
0.48863	151.7
0.505764	147.52
0.600015	157.93
0.620127	153.66
0.706556	167.26
0.717914	163.08
0.740266	170.46
0.78423	169.4
0.801364	178.02
0.815144	173.4
0.81869	181.67
0.86619	192.78
0.86768	183.27
0.901775	204.7
0.907165	195.36
0.915555	210.12
0.917226	199.28
0.932141	216.7
0.937532	208.79
0.955243	225.77
0.955415	217.24
0.965851	222.57
0.969023	231.02
0.980199	230.58
0.985234	238.4
0.990078	237.16
0.995853	243.92
