Adsorption isotherm of Nitrogen on AC@Fe3O4@SiO2-NH2-COOH
DOI: 10.1016/j.jece.2017.03.006
Article source: Figure 4
Adsorbate Nitrogen: InChIKey IJGRMHOSHXDMSA-UHFFFAOYSA-N
Kind: experiment
Temperature: 77 K
Tabular data in the source: 0
pressure (bar)	uptake (cm3(STP)/g)
0.000578	32.99
0.001702	45.71
0.001895	58.69
0.008055	83.05
0.023517	91.41
0.044379	96.84
0.051462	101.28
0.060399	103.06
0.086854	106.8
0.096905	106.44
0.108091	109.64
0.119257	108.31
0.182969	115.69
0.195817	114.44
0.207732	117.47
0.22133	115.6
0.28187	120.93
0.307009	119.42
0.400145	125.83
0.427705	125.38
0.503525	135.43
0.507061	128.76
0.608201	141.03
0.61192	135.52
0.693505	147.17
0.704306	143.25
0.735787	145.39
0.739334	151.26
0.802843	152.59
0.813279	160.95
0.827434	156.77
0.852765	169.22
0.884621	168.86
0.903619	182.02
0.91293	176.07
0.934917	191.98
0.944786	188.61
0.959701	204.17
0.964352	199.72
0.975163	211.73
0.979814	210.84
0.988386	222.4
0.999197	231.47
