Adsorption isotherm of Nitrogen on almond-activated carbon
DOI: 10.1016/j.jece.2017.03.006
Article source: Figure 4
Adsorbate Nitrogen: InChIKey IJGRMHOSHXDMSA-UHFFFAOYSA-N
Kind: experiment
Temperature: 77 K
Tabular data in the source: 0
pressure (bar)	uptake (cm3(STP)/g)
0.000567	21.96
0.001327	35.21
0.001368	113.02
0.00154	98.44
0.001712	69.98
0.001722	82.96
0.001895	53.71
0.001925	126.54
0.002128	140.14
0.00306	154.64
0.006606	167
0.011642	178.11
0.018917	188.61
0.026922	196.07
0.039405	204.61
0.048351	208.79
0.054309	211.46
0.063256	215.37
0.072942	219.11
0.093805	224.71
0.102377	228.18
0.110017	230.49
0.131811	233.6
0.152299	237.69
0.157142	239.11
0.198492	243.92
0.206506	245.87
0.248788	250.67
0.259397	250.76
0.302611	254.5
0.311933	256.28
0.40208	261.61
0.40823	263.48
0.452742	268.81
0.501356	267.57
0.501924	277.62
0.509361	268.37
0.514397	279.4
0.603804	274.24
0.604554	285.35
0.609944	274.24
0.612933	285.8
0.702523	280.28
0.708298	290.96
0.70922	281.53
0.719657	291.58
0.799185	289.18
0.812043	298.42
0.813532	289.71
0.859168	303.05
0.864387	303.58
0.864751	295.05
0.904612	300.29
0.911329	309.54
0.91747	303.32
0.93126	313.63
0.945779	310.16
0.964787	321.54
0.96572	316.92
0.970006	324.39
0.97876	322.88
0.99105	329.73
0.995894	331.95
