Adsorption isotherm of Hydrogen on MIL-101
DOI: 10.1016/j.ijhydene.2010.12.043
Adsorbate Hydrogen: InChIKey UFHFLCQGNIYNRP-UHFFFAOYSA-N
Temperature: 236 K
Tabular data in the source: 0
pressure (bar)	uptake (wt%)
2.05066	0.0277634
4.10133	0.057507
6.03136	0.0852679
6.99638	0.0971682
7.84077	0.111046
8.68516	0.122944
9.65018	0.136825
10.4946	0.148723
11.4596	0.162603
12.304	0.174501
13.269	0.188382
14.1134	0.200279
15.0784	0.21416
15.9228	0.226058
16.8878	0.239938
17.7322	0.251836
18.6972	0.263737
19.5416	0.277615
20.5066	0.289515
21.4717	0.301415
22.316	0.313313
23.2811	0.325213
24.2461	0.339094
25.2111	0.350994
26.1761	0.362895
27.0205	0.374792
27.9855	0.386693
28.9505	0.398593
29.9156	0.410493
30.8806	0.422394
31.8456	0.432314
32.8106	0.442234
33.1725	0.448182
34.1375	0.460082
35.2232	0.470004
36.1882	0.479925
37.2738	0.489847
38.2388	0.499767
39.3245	0.50969
40.0483	0.517625
41.0133	0.527545
42.0989	0.537467
43.0639	0.549368
44.1496	0.55929
45.1146	0.56921
46.2002	0.581113
47.1653	0.591033
48.2509	0.600955
49.2159	0.612856
50.3016	0.622778
51.2666	0.632698
52.3522	0.642621
53.3172	0.652541
54.2823	0.664441
55.3679	0.674364
56.4536	0.684286
57.4186	0.694206
58.5042	0.702149
59.5899	0.716031
60.6755	0.725954
61.6405	0.735874
62.7262	0.745797
63.8118	0.755719
64.7768	0.765639
65.8625	0.775562
66.9481	0.785484
67.9131	0.795404
68.9988	0.805327
70.0844	0.815249
71.0495	0.825169
72.1351	0.835092
73.2207	0.845014
74.1858	0.854934
75.2714	0.864857
76.3571	0.874779
77.3221	0.884699
78.4077	0.894622
79.4934	0.904544
80.4584	0.914465
81.544	0.924387
82.6297	0.934309
83.5947	0.94423
84.6803	0.952172
85.766	0.962094
86.731	0.972014
87.8166	0.981937
88.7817	0.989877
