Adsorption isotherm of Hydrogen on MIL-101Fe
DOI: 10.1016/j.ijhydene.2010.12.043
Adsorbate Hydrogen: InChIKey UFHFLCQGNIYNRP-UHFFFAOYSA-N
Temperature: 236 K
Tabular data in the source: 0
pressure (bar)	uptake (wt%)
4.86487	0.0908054
6.14999	0.0918267
6.6624	0.0998991
7.56063	0.106967
8.45886	0.114035
9.35709	0.121103
10.2553	0.128171
11.2819	0.136248
12.1801	0.143316
13.0785	0.149376
13.848	0.157451
15.0044	0.159479
15.517	0.166543
16.5438	0.173612
17.4422	0.179672
18.469	0.186741
19.3674	0.1928
20.3942	0.19987
21.2926	0.205929
22.3196	0.21199
23.3466	0.218051
24.3736	0.224111
25.4006	0.230172
26.4275	0.236233
27.3264	0.240276
28.0965	0.245325
29.2521	0.251387
30.2793	0.25644
31.3062	0.262501
32.462	0.267554
33.4889	0.273615
34.5161	0.278667
35.6717	0.284729
36.6988	0.289782
37.8546	0.294836
38.8818	0.299888
39.9088	0.305949
41.0645	0.311002
42.0915	0.317063
43.2474	0.321108
44.2744	0.327169
45.4301	0.332223
46.4573	0.337275
47.613	0.342329
48.7688	0.347383
49.796	0.352435
50.6946	0.357486
51.5935	0.361529
52.7492	0.366582
53.7764	0.371635
54.9322	0.376688
56.0881	0.380734
57.1153	0.385786
58.271	0.39084
59.4268	0.395893
60.5825	0.400947
61.7384	0.404992
62.7656	0.410045
63.9214	0.415098
65.0773	0.419144
66.233	0.424197
67.3888	0.429251
68.416	0.434303
69.5719	0.438349
70.7276	0.443402
71.8834	0.448456
73.0391	0.45351
73.9382	0.456544
