Adsorption isotherm of Hydrogen on MIL-101
DOI: 10.1016/j.ijhydene.2010.12.043
Adsorbate Hydrogen: InChIKey UFHFLCQGNIYNRP-UHFFFAOYSA-N
Temperature: 77 K
Tabular data in the source: 0
pressure (bar)	uptake (wt%)
0.157791	0.210863
0.315582	0.766773
0.473373	1.24601
0.946746	1.62939
1.7357	2.20447
3.15582	2.76038
4.57594	3.14377
7.73176	3.64217
11.3609	4.14058
14.5168	4.38978
18.3037	4.61981
20.5128	4.77316
23.1953	4.86901
27.929	5.04153
32.1893	5.15655
37.2387	5.2524
43.5503	5.32907
47.9684	5.38658
53.1755	5.42492
57.4359	5.44409
64.6943	5.48243
72.5838	5.52077
