Adsorption isotherm of Hydrogen on MIL-101Fe
DOI: 10.1016/j.ijhydene.2010.12.043
Adsorbate Hydrogen: InChIKey UFHFLCQGNIYNRP-UHFFFAOYSA-N
Temperature: 77 K
Tabular data in the source: 0
pressure (bar)	uptake (wt%)
0.315582	0.728435
1.10454	1.53355
2.36686	2.1853
3.31361	2.58786
4.10256	2.74121
5.2071	2.93291
6.15385	3.08626
7.10059	3.23962
8.20513	3.3738
9.30966	3.50799
10.4142	3.64217
11.6765	3.75719
13.0966	3.8722
14.5168	3.94888
19.7239	4.21725
21.144	4.27476
22.7219	4.33227
24.142	4.37061
25.7199	4.42812
27.14	4.44728
28.5602	4.48562
28.8757	4.52396
30.4536	4.52396
32.0316	4.54313
33.4517	4.58147
35.0296	4.60064
38.8166	4.61981
40.3945	4.63898
41.9724	4.65815
44.1815	4.67732
45.7594	4.67732
47.3373	4.69649
48.9152	4.69649
50.4931	4.71565
52.2288	4.71565
53.8067	4.71565
55.3846	4.71565
56.0158	4.73482
57.5937	4.73482
58.6982	4.71565
60.1183	4.73482
61.6963	4.73482
63.2742	4.73482
64.8521	4.73482
66.2722	4.71565
67.0611	4.75399
68.6391	4.75399
70.217	4.75399
71.7949	4.75399
