Adsorption isotherm of Hydrogen on MIL-101Fe
DOI: 10.1016/j.ijhydene.2010.12.043
Adsorbate Hydrogen: InChIKey UFHFLCQGNIYNRP-UHFFFAOYSA-N
Temperature: 273 K
Tabular data in the source: 0
pressure (bar)	uptake (wt%)
7.3148	0.0545275
8.21303	0.0615954
9.23979	0.0686646
10.1382	0.0747241
11.0365	0.081792
12.0634	0.0878527
12.9619	0.0939122
13.3468	0.0969413
14.3738	0.103002
15.4008	0.109063
16.4276	0.116132
17.3262	0.121183
18.3532	0.127244
19.38	0.134313
20.2784	0.140373
21.049	0.143406
22.0759	0.149466
23.1029	0.155527
24.1299	0.161588
25.1569	0.167649
26.1839	0.173709
27.2111	0.178762
28.238	0.184823
29.265	0.190883
30.292	0.196944
31.319	0.203005
32.346	0.209066
33.3732	0.214118
34.4001	0.220179
35.4269	0.227248
36.1972	0.231289
37.2242	0.23735
38.2512	0.243411
39.2784	0.248463
40.3052	0.255532
41.3321	0.261593
42.3591	0.267654
43.2578	0.272705
44.2848	0.278766
45.3117	0.284827
46.3387	0.290887
47.4942	0.29695
48.5212	0.30301
49.5484	0.308063
50.5754	0.314123
51.6024	0.320184
52.7581	0.325238
53.6568	0.330289
54.6837	0.33635
55.8395	0.341403
56.8667	0.346456
57.8936	0.352517
59.0494	0.35757
60.0763	0.363631
61.1035	0.368683
62.2593	0.373737
63.2862	0.379798
64.442	0.384852
65.469	0.390912
66.4962	0.395965
67.6519	0.401018
68.6789	0.407079
69.8346	0.412133
70.8618	0.417185
72.0173	0.423247
73.0445	0.4283
74.0717	0.433352
75.2272	0.439414
76.2544	0.444466
77.4101	0.44952
78.4371	0.455581
79.4643	0.460633
80.62	0.465687
81.647	0.471748
82.8027	0.476801
83.8297	0.482862
84.9855	0.487916
86.0126	0.492968
87.1684	0.498022
88.1954	0.504083
89.2228	0.508127
