Adsorption isotherm of Hydrogen on MIL-101
DOI: 10.1016/j.ijhydene.2010.12.043
Adsorbate Hydrogen: InChIKey UFHFLCQGNIYNRP-UHFFFAOYSA-N
Temperature: 324 K
Tabular data in the source: 0
pressure (bar)	uptake (wt%)
6.99638	0.0575643
7.9614	0.063524
9.04704	0.0694861
10.1327	0.0794086
11.2183	0.0853707
12.4246	0.0933153
13.5103	0.101258
14.5959	0.1092
15.6815	0.117142
16.7672	0.127065
17.7322	0.135005
18.6972	0.140964
19.7829	0.146926
20.8685	0.154869
21.9542	0.162811
23.0398	0.170753
24.1255	0.178696
25.3317	0.18664
26.4174	0.194583
27.503	0.202525
28.5887	0.210467
29.6743	0.218409
30.8806	0.226354
31.9662	0.234296
33.0519	0.240258
34.0169	0.250179
34.9819	0.254158
35.9469	0.262098
37.0326	0.27004
38.1182	0.277983
39.2039	0.285925
40.4101	0.29387
41.4958	0.301812
42.5814	0.309754
43.6671	0.317696
44.7527	0.325639
45.8384	0.333581
47.0446	0.341526
48.1303	0.349468
49.2159	0.35543
50.3016	0.363372
51.3872	0.371315
52.5935	0.379259
53.5585	0.389179
54.5235	0.393159
55.4885	0.399119
56.6948	0.407063
57.7805	0.415006
58.8661	0.422948
59.9517	0.43089
61.158	0.436855
62.2437	0.444797
63.3293	0.452739
64.415	0.460681
65.6212	0.466646
66.7069	0.474588
67.7925	0.482531
68.9988	0.488495
70.0844	0.496437
71.1701	0.50438
72.3764	0.510344
73.3414	0.518284
74.3064	0.524244
75.2714	0.530203
76.4777	0.536168
77.5633	0.54213
78.7696	0.550075
79.8552	0.556037
81.0615	0.562001
82.1472	0.567963
83.2328	0.575906
84.4391	0.58187
85.5247	0.587832
86.6104	0.593794
87.8166	0.599759
88.9023	0.607701
90.1086	0.613666
91.1942	0.619628
92.2799	0.62559
93.4861	0.631554
94.5718	0.639496
95.778	0.645461
96.7431	0.651421
