Adsorption isotherm of Nitrogen on MIL-101Fe
DOI: 10.1016/j.ijhydene.2010.12.043
Adsorbate Nitrogen: InChIKey IJGRMHOSHXDMSA-UHFFFAOYSA-N
Temperature: 77 K
Tabular data in the source: 0
pressure (bar)	uptake (cm3(STP)/g)
0.00156444	0.00156444
0.00625778	301.356
0.0125156	354.514
0.0203378	385.503
0.02816	412.06
0.0359822	447.481
0.0516267	491.731
0.0704	527.103
0.0907378	571.331
0.107947	606.71
0.123591	650.96
0.139236	690.778
0.15488	708.435
0.173653	721.645
0.192427	730.424
0.204942	756.96
0.215893	779.07
0.220587	805.642
0.247182	827.681
0.261262	827.617
0.298809	840.742
0.334791	840.578
0.373902	844.832
0.413013	853.517
0.45056	853.346
0.494364	862.011
0.538169	857.379
0.571022	866.093
0.611698	865.907
0.808818	891.601
0.847929	900.287
0.904249	913.326
0.924587	922.098
0.935538	939.776
0.946489	961.887
0.955876	979.573
0.95744	1001.73
0.965262	1023.85
0.966827	1068.17
0.97152	1156.79
