Adsorption isotherm of Hydrogen on MIL-101Fe
DOI: 10.1016/j.ijhydene.2010.12.043
Adsorbate Hydrogen: InChIKey UFHFLCQGNIYNRP-UHFFFAOYSA-N
Temperature: 324 K
Tabular data in the source: 0
pressure (bar)	uptake (wt%)
5.65141	0.0192167
6.67904	0.0222522
7.83498	0.0262975
8.99093	0.0303428
10.1469	0.034388
11.3028	0.0384333
12.4586	0.043487
13.6145	0.0475322
14.7704	0.0515775
16.0549	0.0556241
17.2109	0.0596694
18.3668	0.0637146
19.5228	0.0677599
20.6787	0.0718052
21.8347	0.0758504
22.9906	0.0798957
24.1465	0.083941
25.431	0.0879875
26.587	0.0920328
27.7427	0.0970865
28.7708	0.0981053
29.9265	0.103159
31.0824	0.107204
32.2384	0.111249
33.5231	0.114288
34.679	0.118333
35.8352	0.12137
37.1197	0.125416
38.2758	0.128453
39.4318	0.132498
40.5879	0.135535
41.8724	0.139582
43.0284	0.143627
44.1843	0.147672
45.2121	0.1497
46.3679	0.154753
47.5238	0.158799
48.6798	0.162844
49.9642	0.16689
51.1202	0.170936
52.2761	0.174981
53.4321	0.179026
54.588	0.183071
55.7438	0.188125
56.8997	0.19217
58.0557	0.196216
59.3401	0.200262
60.4961	0.204308
61.6522	0.207344
62.8082	0.21139
63.9641	0.215435
65.2486	0.219481
66.2762	0.222517
67.5607	0.226564
68.7169	0.229601
69.8728	0.233646
71.029	0.236683
72.3135	0.240729
73.4696	0.243766
74.6256	0.247811
75.9103	0.25085
77.0662	0.254895
78.2224	0.257932
79.5071	0.26097
80.663	0.265015
81.9477	0.268053
83.1039	0.27109
84.2598	0.275135
85.5445	0.278174
86.7007	0.28121
87.8566	0.285256
89.1413	0.288294
90.1687	0.292338
