Adsorption isotherm of Nitrogen on MIL-101
DOI: 10.1016/j.ijhydene.2010.12.043
Adsorbate Nitrogen: InChIKey IJGRMHOSHXDMSA-UHFFFAOYSA-N
Temperature: 77 K
Tabular data in the source: 0
pressure (bar)	uptake (cm3(STP)/g)
0.00625778	407.728
0.01408	447.581
0.0234667	487.428
0.0297244	527.288
0.0375467	558.277
0.0484978	598.117
0.0610133	629.085
0.0750933	660.045
0.0876089	691.013
0.09856	735.284
0.114204	766.238
0.134542	797.17
0.147058	805.977
0.165831	819.188
0.176782	832.435
0.187733	854.545
0.195556	881.102
0.208071	916.502
0.233102	925.252
0.256569	938.442
0.312889	942.617
0.358258	951.274
0.488107	959.546
0.531911	963.778
0.57728	968.004
0.755627	980.486
0.796302	980.301
0.877653	993.226
0.912071	1015.23
0.935538	1032.85
0.941796	1068.28
0.949618	1094.84
0.954311	1179.03
0.955876	1351.87
0.95744	1263.22
0.959004	1564.6
0.960569	1511.41
0.963698	1595.6
