Adsorption isotherm of Hydrogen on MIL-101
DOI: 10.1016/j.ijhydene.2010.12.043
Adsorbate Hydrogen: InChIKey UFHFLCQGNIYNRP-UHFFFAOYSA-N
Temperature: 273 K
Tabular data in the source: 0
pressure (bar)	uptake (wt%)
2.77443	0.0257975
6.03136	0.0674462
6.99638	0.0753861
7.9614	0.0872864
9.04704	0.0972089
10.0121	0.109109
10.9771	0.119029
11.9421	0.13093
13.0277	0.140852
13.9928	0.152752
15.6815	0.168627
16.6466	0.178547
17.7322	0.19045
18.6972	0.20037
19.7829	0.210293
20.8685	0.220215
21.8335	0.230135
22.9192	0.240058
23.8842	0.249978
24.9698	0.2599
26.0555	0.269823
27.0205	0.281723
28.1062	0.291646
29.1918	0.299588
30.0362	0.311486
31.1218	0.317448
32.0869	0.327368
33.1725	0.337291
34.1375	0.347211
35.2232	0.357133
36.3088	0.367056
37.3945	0.376978
38.3595	0.386898
39.4451	0.396821
40.5308	0.404763
41.6164	0.414685
42.5814	0.424606
43.6671	0.434528
44.7527	0.44247
45.8384	0.452393
46.924	0.462315
47.889	0.472235
48.9747	0.482158
50.0603	0.4901
51.146	0.500023
51.8697	0.509938
52.9554	0.51392
53.9204	0.52384
55.006	0.533762
56.0917	0.541705
57.1773	0.551627
58.263	0.55957
59.3486	0.567512
60.4343	0.577434
61.5199	0.585377
62.6055	0.593319
63.6912	0.603241
64.7768	0.611184
65.8625	0.621106
66.8275	0.629046
67.9131	0.638969
68.9988	0.646911
70.0844	0.656833
72.0145	0.674693
73.1001	0.684616
74.1858	0.692558
75.1508	0.702478
76.2364	0.712401
77.3221	0.722323
78.2871	0.732243
79.3727	0.742166
80.4584	0.752088
81.4234	0.762008
82.509	0.771931
83.5947	0.781853
84.5597	0.791773
85.6454	0.801696
86.731	0.811618
87.696	0.823519
88.7817	0.831461
89.7467	0.843361
90.8323	0.853284
91.918	0.863206
92.883	0.873126
93.9686	0.883049
95.0543	0.892971
95.8987	0.904869
97.1049	0.906873
