Adsorption isotherm of Nitrogen on PCN-72
DOI: 10.1039/C3ce41106k
Adsorbate Nitrogen: InChIKey IJGRMHOSHXDMSA-UHFFFAOYSA-N
Temperature: 77 K
Tabular data in the source: 0
pressure (bar)	uptake (cm3(STP)/g)
0.0509429	1.33017
0.123709	1.44458
0.188894	1.55899
0.251049	1.55899
0.314718	1.33017
0.378388	1.21576
0.451154	1.21576
0.534531	0.986937
0.593654	0.986937
0.655808	1.10135
0.713414	1.21576
0.783148	1.78782
0.843786	2.35987
0.89836	3.38958
0.960514	5.67781
