Adsorption isotherm of Carbon Dioxide on PCN-72
DOI: 10.1039/C3ce41106k
Adsorbate Carbon Dioxide: InChIKey CURLTUGMZLYLDI-UHFFFAOYSA-N
Temperature: 273 K
Tabular data in the source: 0
pressure (bar)	uptake (cm3(STP)/g)
0.00849624	1.21576
0.0327515	3.38958
0.0706503	6.82192
0.110065	9.91103
0.150996	12.4281
0.214666	15.5172
0.270756	18.3775
0.329878	20.5513
0.408707	23.2972
0.492085	25.6998
0.57243	28.3313
0.654292	30.2763
0.731605	32.2213
0.813467	33.7086
0.893812	34.8527
0.974157	35.5392
1.01206	35.6536
