Adsorption isotherm of Carbon Dioxide on PCN-72
DOI: 10.1039/C3ce41106k
Adsorbate Carbon Dioxide: InChIKey CURLTUGMZLYLDI-UHFFFAOYSA-N
Temperature: 195 K
Tabular data in the source: 0
pressure (bar)	uptake (cm3(STP)/g)
0.00546434	17.2334
0.017592	28.1024
0.0448791	34.9671
0.0706503	39.4292
0.113097	41.9462
0.199506	45.3786
0.282883	48.5821
0.369293	51.5568
0.451154	54.5315
0.536047	57.3918
0.622457	60.1377
0.705834	63.2268
0.787695	66.3159
0.874105	69.405
0.934743	71.4644
0.996897	73.867
