Adsorption isotherm of Carbon Dioxide on PCN-72
DOI: 10.1039/C3ce41106k
Adsorbate Carbon Dioxide: InChIKey CURLTUGMZLYLDI-UHFFFAOYSA-N
Temperature: 295 K
Tabular data in the source: 0
pressure (bar)	uptake (cm3(STP)/g)
0.00698029	0.872526
0.0524588	3.73281
0.114613	7.96603
0.191926	12.3137
0.272272	15.9748
0.349585	18.8351
0.432963	21.1234
0.511792	23.1828
0.592138	24.7845
0.673999	26.3863
0.749797	27.3016
0.830142	28.3313
0.90594	29.1322
0.96961	29.5898
1.01357	29.7042
