Adsorption isotherm of Nitrogen on Berkosorb
DOI: 10.1021/ie4035434
Article source: Figure 3
Adsorbate Nitrogen: InChIKey IJGRMHOSHXDMSA-UHFFFAOYSA-N
Kind: experiment
Temperature: 77 K
Tabular data in the source: 0
pressure (bar)	uptake (cm3(STP)/g)
0.013889	241.319
0.020833	250
0.03125	256.944
0.052083	263.889
0.076389	274.306
0.100694	277.778
0.15625	284.722
0.204861	288.194
0.302083	291.667
0.402778	293.403
0.5	295.139
0.600694	296.875
0.680556	298.611
0.701389	296.875
0.784722	298.611
0.802083	298.611
0.875	300.347
0.899306	298.611
0.944444	298.611
0.958333	298.611
0.979167	300.347
