Adsorption isotherm of Nitrogen on Norit R2030CO2
DOI: 10.1021/ie4035434
Article source: Figure 3
Adsorbate Nitrogen: InChIKey IJGRMHOSHXDMSA-UHFFFAOYSA-N
Kind: experiment
Temperature: 77 K
Tabular data in the source: 0
pressure (bar)	uptake (cm3(STP)/g)
0.03125	171.875
0.072917	178.819
0.079861	178.819
0.104167	182.292
0.149306	184.028
0.184028	185.764
0.204861	185.764
0.295139	187.5
0.302083	187.5
0.402778	189.236
0.5	192.708
0.600694	192.708
0.684028	194.444
0.701389	190.972
0.78125	194.444
0.802083	194.444
0.885417	196.181
0.944444	196.181
0.961806	196.181
0.982639	199.653
