Adsorption isotherm of Nitrogen on Activated Carbon S
DOI: 10.1021/ie4035434
Article source: Figure 3
Adsorbate Nitrogen: InChIKey IJGRMHOSHXDMSA-UHFFFAOYSA-N
Kind: experiment
Temperature: 77 K
Tabular data in the source: 0
pressure (bar)	uptake (cm3(STP)/g)
0	0
0.003472	296.875
0.013889	309.028
0.027778	319.444
0.048611	331.597
0.065972	336.806
0.079861	338.542
0.104167	343.75
0.149306	347.222
0.201389	352.431
0.298611	355.903
0.305556	355.903
0.399306	357.639
0.5	359.375
0.600694	361.111
0.701389	361.111
0.78125	362.847
0.798611	361.111
0.885417	362.847
0.902778	362.847
0.944444	364.583
0.961806	364.583
0.982639	366.319
