Adsorption isotherm of Nitrogen on Zeolite 13X
DOI: 10.1021/ie4035434
Article source: Figure 3
Adsorbate Nitrogen: InChIKey IJGRMHOSHXDMSA-UHFFFAOYSA-N
Kind: experiment
Temperature: 77 K
Tabular data in the source: 0
pressure (bar)	uptake (cm3(STP)/g)
0	125
0.003472	8.68056
0.027778	171.875
0.100694	173.611
0.166667	175.347
0.1875	177.083
0.208333	177.083
0.288194	178.819
0.305556	178.819
0.399306	180.556
0.5	182.292
0.506944	182.292
0.597222	184.028
0.701389	185.764
0.788194	189.236
0.795139	187.5
0.895833	199.653
0.958333	211.806
0.961806	222.222
0.979167	227.431
