Adsorption isotherm of Nitrogen on Sorbonorit K4
DOI: 10.1021/ie4035434
Article source: Figure 3
Adsorbate Nitrogen: InChIKey IJGRMHOSHXDMSA-UHFFFAOYSA-N
Kind: experiment
Temperature: 77 K
Tabular data in the source: 0
pressure (bar)	uptake (cm3(STP)/g)
0.006944	184.028
0.010417	196.181
0.013889	217.014
0.024306	229.167
0.027778	239.583
0.038194	248.264
0.045139	256.944
0.048611	262.153
0.055556	270.833
0.076389	286.458
0.100694	300.347
0.142361	328.125
0.1875	350.694
0.201389	357.639
0.302083	397.569
0.40625	423.611
0.496528	432.292
0.5	440.972
0.600694	444.444
0.607639	439.236
0.704861	449.653
0.711806	444.444
0.791667	451.389
0.798611	447.917
0.888889	454.861
0.899306	451.389
0.947917	458.333
0.958333	454.861
0.979167	460.069
