Adsorption isotherm of Nitrogen on Oxorbon K20J
DOI: 10.1021/ie4035434
Article source: Figure 3
Adsorbate Nitrogen: InChIKey IJGRMHOSHXDMSA-UHFFFAOYSA-N
Kind: experiment
Temperature: 77 K
Tabular data in the source: 0
pressure (bar)	uptake (cm3(STP)/g)
0.020833	244.792
0.024306	256.944
0.038194	265.625
0.045139	276.042
0.055556	288.194
0.079861	305.556
0.097222	319.444
0.201389	378.472
0.298611	413.194
0.309028	414.931
0.395833	432.292
0.503472	447.917
0.517361	444.444
0.600694	451.389
0.614583	449.653
0.694444	453.125
0.704861	454.861
0.784722	456.597
0.802083	454.861
0.885417	458.333
0.902778	458.333
0.947917	461.806
0.982639	463.542
