Adsorption isotherm of Nitrogen on Zeolite 5A
DOI: 10.1021/ie4035434
Article source: Figure 3
Adsorbate Nitrogen: InChIKey IJGRMHOSHXDMSA-UHFFFAOYSA-N
Kind: experiment
Temperature: 77 K
Tabular data in the source: 0
pressure (bar)	uptake (cm3(STP)/g)
0	76.3889
0.003472	98.9583
0.024306	119.792
0.059028	121.528
0.083333	123.264
0.100694	123.264
0.149306	125
0.197917	125
0.298611	126.736
0.395833	125
0.482639	128.472
0.5	128.472
0.583333	128.472
0.600694	126.736
0.6875	130.208
0.701389	128.472
0.802083	131.944
0.895833	137.153
0.90625	142.361
0.958333	163.194
0.965278	152.778
0.982639	168.403
