Adsorption isotherm of Ethanol on Cu-BTC-3
DOI: 10.1021/acs.iecr.6b03139
Article source: Figure 5
Adsorbate Ethanol: InChIKey LFQSCWFLJHTTHZ-UHFFFAOYSA-N
Kind: experiment
Temperature: 303 K
Tabular data in the source: 0
pressure (bar)	uptake (mmol/g)
0.000664	5.76786
0.001229	6.61632
0.002006	6.96971
0.002429	7.26661
0.002924	7.56349
0.003418	7.83209
0.003842	8.11485
0.004124	8.49665
0.004548	8.77941
0.006454	9.31636
0.008432	9.55628
0.011751	9.73928
0.015705	9.92211
0.022767	10.1183
0.028558	10.2723
0.035407	10.4827
0.038868	10.5808
0.044376	10.6925
0.050731	10.8888
0.061747	11.0698
0.074741	11.3069
0.084204	11.4458
0.093525	11.5848
