Adsorption isotherm of Ethanol on Cu-BTC@GO
DOI: 10.1021/acs.iecr.6b03139
Article source: Figure S2
Adsorbate Ethanol: InChIKey LFQSCWFLJHTTHZ-UHFFFAOYSA-N
Kind: experiment
Temperature: 283 K
Tabular data in the source: 0
pressure (bar)	uptake (mmol/g)
0.000415	8.6376
0.000571	8.96431
0.00057	9.19766
0.000725	9.50881
0.000959	9.89776
0.000958	10.1467
0.000957	10.3489
0.001034	10.66
0.001346	10.9557
0.001502	11.2824
0.001893	11.4535
0.002834	11.687
0.003461	11.8115
0.004638	11.9362
0.006128	12.1386
0.007618	12.2477
0.009736	12.4035
0.010991	12.5126
0.012481	12.6684
0.01452	12.8709
0.016717	13.0112
0.018443	13.0736
0.021581	13.2296
0.024405	13.3233
0.027701	13.4327
