Adsorption isotherm of Ethanol on Cu-BTC-1
DOI: 10.1021/acs.iecr.6b03139
Article source: Figure 5
Adsorbate Ethanol: InChIKey LFQSCWFLJHTTHZ-UHFFFAOYSA-N
Kind: experiment
Temperature: 303 K
Tabular data in the source: 0
pressure (bar)	uptake (mmol/g)
0.000734	6.37602
0.001017	6.75781
0.001441	6.984
0.001794	7.2102
0.002288	7.50709
0.00257	7.71916
0.002782	7.91712
0.003206	8.22816
0.003488	8.49681
0.003842	8.72302
0.004406	9.01988
0.005042	9.38745
0.005254	9.71269
0.005889	10.0378
0.007372	10.2496
0.009491	10.4612
0.012881	10.63
0.0174	10.7703
0.023402	10.9809
0.029122	11.0784
0.035337	11.204
0.039433	11.302
0.045011	11.3995
0.05059	11.5678
0.058287	11.7213
0.064643	11.9035
0.070786	11.9161
0.075871	12.0845
0.083992	12.2803
0.087664	12.3642
0.092325	12.4479
