Adsorption isotherm of Ethanol on Cu-BTC-2
DOI: 10.1021/acs.iecr.6b03139
Article source: Figure 5
Adsorbate Ethanol: InChIKey LFQSCWFLJHTTHZ-UHFFFAOYSA-N
Kind: experiment
Temperature: 303 K
Tabular data in the source: 0
pressure (bar)	uptake (mmol/g)
0.000254	6.51192
0.000508	6.86827
0.000508	7.00404
0.000508	7.12285
0.000932	7.39429
0.001356	7.71665
0.001695	8.03904
0.002119	8.31048
0.002373	8.58197
0.003051	8.95518
0.00339	9.22664
0.003559	9.44724
0.003898	9.75265
0.004237	10.0581
0.004491	10.3465
0.005084	10.6519
0.005593	10.8893
0.006779	11.1776
0.008135	11.4148
0.010508	11.6179
0.013219	11.7869
0.017118	11.9216
0.022456	12.09
0.028558	12.2581
0.034405	12.3584
0.039404	12.4759
0.044573	12.6273
0.051183	12.7953
0.058556	12.98
0.066352	13.1138
0.069063	13.13
0.075334	13.2642
0.081859	13.3643
0.084995	13.4483
0.092198	13.5822
