Adsorption isotherm of Ethanol on Cu-BTC@GO
DOI: 10.1021/acs.iecr.6b03139
Article source: Figure S2
Adsorbate Ethanol: InChIKey LFQSCWFLJHTTHZ-UHFFFAOYSA-N
Kind: experiment
Temperature: 298 K
Tabular data in the source: 0
pressure (bar)	uptake (mmol/g)
0.000578	7.40866
0.000654	7.82869
0.001437	8.26438
0.001749	8.60667
0.001748	8.9178
0.002061	9.21342
0.00253	9.54017
0.002764	9.74243
0.003155	10.1314
0.003154	10.4114
0.003702	10.6448
0.004171	11.0027
0.004562	11.2517
0.006209	11.5319
0.008248	11.75
0.010915	11.937
0.014132	12.093
0.017741	12.2024
0.021977	12.3741
0.026842	12.4525
0.030059	12.5152
0.034923	12.6869
0.039788	12.7809
0.045123	12.9683
0.051007	13.1091
0.053675	13.2184
0.058382	13.4368
0.063168	13.5775
0.070465	13.7029
