Adsorption isotherm of Nitrogen on Cu-BTC@GO-2
DOI: 10.1021/acs.iecr.6b03139
Article source: Figure 3
Adsorbate Nitrogen: InChIKey IJGRMHOSHXDMSA-UHFFFAOYSA-N
Kind: experiment
Temperature: 77 K
Tabular data in the source: 0
pressure (bar)	uptake (cm3(STP)/g)
0.002484	391.593
0.002484	393.997
0.006394	396.146
0.012259	398.547
0.029203	403.347
0.058528	413.709
0.102189	422.674
0.123694	425.954
0.163446	431.125
0.182996	432.762
0.355035	440.917
0.506222	444.399
0.5564	445.265
0.607882	446.13
0.656757	446.49
0.70889	446.723
0.757765	446.956
0.809898	448.074
0.830751	448.699
0.860728	449.066
0.884839	449.942
0.910906	450.565
0.932411	451.948
0.958478	454.214
1.0067	465.707
0.985196	461.162
0.945444	456.117
0.919378	454.862
0.892659	454.114
0.861379	453.241
0.835313	452.998
0.809246	452.502
0.75972	452.016
0.706935	451.784
0.656105	451.045
0.606578	450.305
0.555748	449.946
0.504918	448.701
0.457347	443.28
0.40391	442.163
0.334834	440.166
0.302902	439.04
0.254027	437.162
0.199939	434.02
0.141941	428.351
0.081988	418.887
