Adsorption isotherm of Nitrogen on Cu-BTC@GO-5
DOI: 10.1021/acs.iecr.6b03139
Article source: Figure 3
Adsorbate Nitrogen: InChIKey IJGRMHOSHXDMSA-UHFFFAOYSA-N
Kind: experiment
Temperature: 77 K
Tabular data in the source: 0
pressure (bar)	uptake (cm3(STP)/g)
0.000399	350.556
0.000399	354.047
0.002745	357.234
0.006655	358.903
0.009783	360.116
0.029333	366.18
0.059049	376.491
0.105969	384.519
0.123955	387.092
0.164619	391.934
0.182605	393.597
0.357772	401.421
0.504006	404.248
0.557182	404.986
0.606448	404.966
0.656496	406.009
0.706544	405.838
0.756592	406.88
0.809768	406.708
0.8301	407.155
0.856687	408.207
0.884839	408.803
0.911427	410.311
0.936451	412.578
0.958347	416.213
0.984935	421.363
0.991973	423.79
1.00292	427.884
1.00605	431.526
0.984153	426.829
0.938797	420.015
0.916901	418.961
0.892659	417.757
0.866071	416.856
0.841829	416.562
0.834009	416.414
0.808204	415.665
0.74017	414.933
0.707326	414.642
0.657278	414.358
0.58768	414.082
0.554836	413.488
0.50557	412.748
0.457086	403.659
0.404692	402.465
0.332748	400.672
0.303815	399.773
0.252203	397.82
0.202937	395.258
0.141159	389.818
0.078599	381.645
