Adsorption isotherm of Nitrogen on Cu-BTC@GO-1
DOI: 10.1021/acs.iecr.6b03139
Article source: Figure 3
Adsorbate Nitrogen: InChIKey IJGRMHOSHXDMSA-UHFFFAOYSA-N
Kind: experiment
Temperature: 77 K
Tabular data in the source: 0
pressure (bar)	uptake (cm3(STP)/g)
-0.001969	383.794
0.000747	390.434
0.011065	398.758
0.032244	407.289
0.057224	415.396
0.103927	423.284
0.123477	425.912
0.139226	428.014
0.162034	429.798
0.185385	431.58
0.203306	433.26
0.251638	436.087
0.303228	438.597
0.336354	439.849
0.356447	439.841
0.404236	441.14
0.458542	442.12
0.556291	444.084
0.605709	445.224
0.657843	445.731
0.707261	446.028
0.810984	446.83
0.828362	447.245
0.859859	447.443
0.884839	448.171
0.908734	448.9
0.935343	450.154
0.963039	452.673
1.00703	465.939
0.986391	461.73
0.945661	456.897
0.919595	455.959
0.893528	455.336
0.866919	453.871
0.839766	453.987
0.809355	453.578
0.759937	452.754
0.690426	452.149
0.65567	451.952
0.607882	451.338
0.556291	450.726
0.505787	449.692
0.45474	442.649
0.402607	441.615
0.355361	440.052
0.334182	440.166
0.252181	436.614
0.203849	433.682
0.081662	421.185
