Adsorption isotherm of Ethanol on CuBTC
DOI: 10.1021/acs.iecr.6b03139
Article source: Figure S2
Adsorbate Ethanol: InChIKey LFQSCWFLJHTTHZ-UHFFFAOYSA-N
Kind: experiment
Temperature: 298 K
Tabular data in the source: 0
pressure (bar)	uptake (mmol/g)
0.000815	6.94822
0.002034	8.03112
0.003348	8.98335
0.004194	9.4875
0.007016	10.1226
0.00984	10.291
0.010875	10.3285
0.013323	10.4221
0.018023	10.5897
0.02273	10.6681
0.028157	10.8115
0.030119	10.8247
0.035611	10.9421
0.039927	10.9945
0.045484	11.0731
0.050323	11.1256
0.053919	11.2168
0.058365	11.36
0.062746	11.4643
0.070919	11.595
