Adsorption isotherm of Nitrogen on Cu-BTC@GO-10
DOI: 10.1021/acs.iecr.6b03139
Article source: Figure 3
Adsorbate Nitrogen: InChIKey IJGRMHOSHXDMSA-UHFFFAOYSA-N
Kind: experiment
Temperature: 77 K
Tabular data in the source: 0
pressure (bar)	uptake (cm3(STP)/g)
0.005091	337.802
0.006655	340.99
0.009783	343.114
0.011347	344.479
0.029333	348.571
0.057485	357.516
0.102841	367.518
0.120827	370.85
0.163837	375.236
0.182605	377.202
0.304597	384.288
0.356208	386.09
0.456304	389.541
0.504006	390.585
0.5564	391.931
0.608794	393.125
0.65806	394.471
0.711236	396.12
0.758156	397.316
0.81055	399.724
0.829318	400.324
0.860597	401.982
0.885621	403.338
0.910645	406.212
0.938015	408.934
0.962257	413.782
0.987281	423.336
0.994319	428.343
1.00527	438.054
1.00683	448.832
0.990409	438.212
0.974769	428.654
0.949745	420.467
0.921593	416.531
0.894223	414.113
0.867635	411.694
0.842611	410.49
0.835573	409.885
0.81055	408.984
0.75972	407.031
0.70889	405.078
0.660406	403.73
0.60723	402.689
0.557964	401.19
0.506352	398.782
0.460214	390.299
0.40391	388.044
0.338222	385.945
0.303033	384.289
0.256113	381.879
0.202155	379.016
0.141941	374.03
0.084073	364.337
