Adsorption isotherm of Nitrogen on CuBTC
DOI: 10.1021/acs.iecr.6b03139
Article source: Figure 3
Adsorbate Nitrogen: InChIKey IJGRMHOSHXDMSA-UHFFFAOYSA-N
Kind: experiment
Temperature: 77 K
Tabular data in the source: 0
pressure (bar)	uptake (cm3(STP)/g)
-0.00138	392.3
0.001107	397.898
0.003594	401.277
0.005086	403.69
0.009562	405.812
0.028461	411.404
0.05681	421.82
0.102566	429.815
0.123454	432.8
0.160755	437.033
0.180152	439.343
0.353726	446.612
0.45419	448.31
0.507406	449.254
0.555648	449.139
0.606875	449.794
0.657604	449.581
0.70535	449.852
0.77647	449.824
0.828691	450.286
0.861019	450.466
0.904785	451.415
0.923685	452.083
0.946563	453.232
0.96397	454.867
0.98834	461.229
0.942584	458.351
0.916224	457.396
0.89086	456.827
0.865495	456.837
0.841125	456.46
0.833665	456.367
0.808798	456.666
0.738672	456.308
0.688937	456.327
0.657604	456.533
0.60787	456.456
0.555151	456.284
0.503427	455.339
0.457671	448.309
0.404455	447.654
0.334329	446.426
0.302499	445.57
0.252764	443.466
0.20104	440.686
0.140861	435.69
0.081677	427.41
