Adsorption isotherm of Ethanol on Cu-BTC-10
DOI: 10.1021/acs.iecr.6b03139
Article source: Figure 5
Adsorbate Ethanol: InChIKey LFQSCWFLJHTTHZ-UHFFFAOYSA-N
Kind: experiment
Temperature: 303 K
Tabular data in the source: 0
pressure (bar)	uptake (mmol/g)
0.001582	7.10183
0.001935	7.44353
0.002465	7.79698
0.002641	8.11516
0.00323	8.4686
0.004053	8.75125
0.005937	9.06898
0.009232	9.26849
0.013646	9.45591
0.018942	9.59596
0.022885	9.71279
0.028887	9.84087
0.034831	9.93361
0.038773	10.0269
0.045659	10.0958
0.052897	10.1528
0.057781	10.2694
0.065372	10.3853
0.071963	10.5486
0.080967	10.6405
0.089912	10.756
0.094031	10.8492
