Adsorption isotherm of Ethanol on Cu-BTC-5
DOI: 10.1021/acs.iecr.6b03139
Article source: Figure 5
Adsorbate Ethanol: InChIKey LFQSCWFLJHTTHZ-UHFFFAOYSA-N
Kind: experiment
Temperature: 303 K
Tabular data in the source: 0
pressure (bar)	uptake (mmol/g)
0.000593	6.23462
0.001441	7.2103
0.002006	7.57788
0.002359	7.90309
0.002712	8.25658
0.002994	8.56766
0.003418	8.94942
0.004689	9.31682
0.006878	9.51426
0.010691	9.73956
0.015776	9.90795
0.022767	10.1324
0.029758	10.2013
0.036114	10.2845
0.039291	10.3544
0.045364	10.4518
0.052214	10.5349
0.058711	10.5897
0.064502	10.7014
0.071987	10.756
0.079331	10.8389
0.085687	10.8797
0.093525	10.9908
