Adsorption isotherm of Ethanol on CuBTC
DOI: 10.1021/acs.iecr.6b03139
Article source: Figure 5
Adsorbate Ethanol: InChIKey LFQSCWFLJHTTHZ-UHFFFAOYSA-N
Kind: experiment
Temperature: 303 K
Tabular data in the source: 0
pressure (bar)	uptake (mmol/g)
0.000381	4.19801
0.000381	4.46674
0.000381	4.77789
0.000523	5.07487
0.000876	5.35765
0.000876	5.61223
0.000734	5.90928
0.000946	6.17795
0.00137	6.47485
0.001405	6.82843
0.001758	7.09706
0.002288	7.33029
0.0025	7.54946
0.002712	7.74742
0.003277	8.07257
0.003842	8.327
0.004336	8.66632
0.00483	8.99149
0.005325	9.24594
0.005607	9.50045
0.006454	9.6558
0.007019	9.82538
0.008926	10.0229
0.01168	10.1777
0.015352	10.3607
0.021143	10.5147
0.025168	10.5702
0.033148	10.7096
0.037173	10.7792
0.044305	10.9047
0.051155	10.9877
0.055533	11.0715
0.061536	11.1265
0.069657	11.2233
0.073894	11.3495
0.083286	11.4602
0.08604	11.5019
0.092536	11.6699
