Adsorption isotherm of Ethanol on CuBTC
DOI: 10.1021/acs.iecr.6b03139
Article source: Figure S2
Adsorbate Ethanol: InChIKey LFQSCWFLJHTTHZ-UHFFFAOYSA-N
Kind: experiment
Temperature: 283 K
Tabular data in the source: 0
pressure (bar)	uptake (mmol/g)
0.000627	6.98553
0.000813	7.34024
0.001846	7.95642
0.003067	8.77797
0.003912	9.37545
0.005038	10.197
0.007108	10.5893
0.009179	10.7389
0.010402	10.7764
0.012285	10.9073
0.014356	10.9823
0.015957	11.0758
0.017934	11.1508
0.020287	11.2631
0.022076	11.3007
0.024147	11.4316
0.026595	11.488
