Adsorption isotherm of Ethanol on Cu-BTC@GO
DOI: 10.1021/acs.iecr.6b03139
Article source: Figure S2
Adsorbate Ethanol: InChIKey LFQSCWFLJHTTHZ-UHFFFAOYSA-N
Kind: experiment
Temperature: 303 K
Tabular data in the source: 0
pressure (bar)	uptake (mmol/g)
0.000194	5.52626
0.000114	5.91517
0.000113	6.13296
0.000111	6.49076
0.00058	6.84862
0.000736	7.15977
0.00097	7.45538
0.001439	7.78213
0.001673	8.04662
0.002064	8.42003
0.002455	8.63788
0.003004	8.90241
0.003316	9.2447
0.003707	9.55588
0.004019	9.82039
0.004332	10.1004
0.004723	10.4116
0.005271	10.6606
0.005819	10.9718
0.006681	11.2364
0.00825	11.4233
0.010681	11.6414
0.013505	11.8129
0.017193	11.9223
0.022449	12.1097
0.028334	12.2505
0.03461	12.4069
0.039397	12.5009
0.04481	12.6416
0.051479	12.8447
0.058854	13.0013
0.066858	13.1579
0.069211	13.2516
0.075881	13.3147
0.082314	13.4556
0.08561	13.5649
0.092907	13.6281
