Adsorption isotherm of Nitrogen on Cu-BTC@GO-3
DOI: 10.1021/acs.iecr.6b03139
Article source: Figure 3
Adsorbate Nitrogen: InChIKey IJGRMHOSHXDMSA-UHFFFAOYSA-N
Kind: experiment
Temperature: 77 K
Tabular data in the source: 0
pressure (bar)	uptake (cm3(STP)/g)
-0.000774	376.161
-0.000122	381.727
0.003136	385.9
0.005743	388.176
0.007698	389.946
0.010304	391.337
0.027899	396.517
0.058528	406.751
0.101538	414.325
0.125649	417.478
0.164097	421.637
0.182344	423.528
0.355035	431.556
0.50557	434.153
0.555097	435.145
0.606578	435.631
0.65806	436.243
0.709541	436.349
0.758416	436.962
0.809898	437.828
0.829448	438.199
0.861379	438.313
0.887446	439.188
0.911558	440.57
0.938276	441.951
0.961736	445.737
0.985196	451.294
0.993668	454.58
1.00279	458.372
1.008	462.038
0.987803	455.847
0.946096	450.424
0.919378	448.537
0.893311	447.915
0.867896	447.166
0.840526	446.671
0.817718	446.174
0.791	446.058
0.75972	445.691
0.708238	445.585
0.65806	444.972
0.605927	444.739
0.555097	444.253
0.506873	442.501
0.457999	433.665
0.403259	432.802
0.336137	431.057
0.304206	429.299
0.254027	427.547
0.201242	424.912
0.142593	420.001
0.081336	411.423
