Adsorption isotherm of Ethanol on CuBTC
DOI: 10.1021/acs.iecr.6b03139
Article source: Figure S2
Adsorbate Ethanol: InChIKey LFQSCWFLJHTTHZ-UHFFFAOYSA-N
Kind: experiment
Temperature: 303 K
Tabular data in the source: 0
pressure (bar)	uptake (mmol/g)
0.000978	5.68712
0.001107	5.95938
0.001368	6.24462
0.001563	6.50392
0.001889	6.76324
0.001953	6.97067
0.002213	7.20405
0.002605	7.42449
0.00293	7.7227
0.003452	7.95612
0.003844	8.17655
0.00417	8.43587
0.004365	8.68221
0.004691	8.88968
0.005082	9.17493
0.005539	9.35649
0.006191	9.62881
0.006975	9.83634
0.008936	10.0311
0.011747	10.174
0.015474	10.2912
0.021292	10.5124
0.025346	10.5648
0.033389	10.7214
0.037508	10.8516
0.044504	10.8915
0.051631	11.0091
0.055751	11.0485
0.062093	11.1661
0.070005	11.2449
0.074189	11.427
0.083801	11.519
0.086547	11.5712
0.092955	11.7017
