Adsorption isotherm of Hydrogen on Ni(bodc)(ted)0.5
DOI: 10.1021/Ja908817n
Adsorbate Hydrogen: InChIKey UFHFLCQGNIYNRP-UHFFFAOYSA-N
Temperature: 300 K
Tabular data in the source: 0
pressure (bar)	uptake (wt%)
27.6689	0.14414
34.5676	0.141726
41.4663	0.151384
48.365	0.153799
