Adsorption isotherm of Hydrogen on Zn2(bpdc)2(bpee)
DOI: 10.1021/Ja908817n
Adsorbate Hydrogen: InChIKey UFHFLCQGNIYNRP-UHFFFAOYSA-N
Temperature: 300 K
Tabular data in the source: 0
pressure (bar)	uptake (wt%)
27.6075	2.01817
34.5991	1.85299
41.4159	1.83923
48.3201	1.81629
55.2243	1.75205
62.2159	1.66946
