Adsorption isotherm of Hydrogen on Zn(bdc)(ted)0.5
DOI: 10.1021/Ja908817n
Adsorbate Hydrogen: InChIKey UFHFLCQGNIYNRP-UHFFFAOYSA-N
Temperature: 300 K
Tabular data in the source: 0
pressure (bar)	uptake (wt%)
34.5676	0.110337
41.5583	0.112751
48.365	0.11758
55.4017	0.124824
