Adsorption isotherm of Nitrogen on PMo10V2/pg-C3N4
DOI: 10.1021/acs.iecr.6b04371
Article source: Figure 8B
Adsorbate Nitrogen: InChIKey IJGRMHOSHXDMSA-UHFFFAOYSA-N
Kind: experiment
Temperature: 77 K
Tabular data in the source: 0
pressure (bar)	uptake (cm3(STP)/g)
0.011967	0.18096
0.034443	0.356927
0.070332	0.49149
0.081814	0.545315
0.106223	0.609491
0.120583	0.630193
0.141635	0.723352
0.161736	0.779248
0.201939	0.874477
0.253161	0.928302
0.303896	1.02767
0.353678	1.10427
0.4049	1.15809
0.455646	1.18501
0.507343	1.25953
0.557612	1.28231
0.628471	1.28438
0.678259	1.32164
0.710332	1.35476
0.761077	1.38996
0.811342	1.43964
0.830965	1.48312
0.861121	1.53694
0.887442	1.61147
0.91233	1.66943
0.937213	1.76052
0.96257	1.88473
0.988871	2.10211
0.992208	2.19734
1.00463	2.39814
1.00746	2.6652
0.985964	2.33397
0.944837	2.01102
0.919003	1.87024
0.893639	1.79365
0.869233	1.71705
0.862534	1.68807
0.836209	1.63838
0.810363	1.58663
0.759625	1.49554
0.709845	1.41273
0.659585	1.33199
0.608362	1.28645
0.437451	1.19329
0.384792	1.15188
0.334528	1.10013
0.284267	1.02353
0.234012	0.90967
0.182793	0.841354
0.141629	0.766827
0.104781	0.644685
0.06984	0.574298
0.051661	0.476999
0.025347	0.350716
