Adsorption isotherm of Nitrogen on g-C3N4
DOI: 10.1021/acs.iecr.6b04371
Article source: Figure 8A
Adsorbate Nitrogen: InChIKey IJGRMHOSHXDMSA-UHFFFAOYSA-N
Kind: experiment
Temperature: 77 K
Tabular data in the source: 0
pressure (bar)	uptake (cm3(STP)/g)
0.010804	2.30556
0.033363	2.66771
0.0696	2.97813
0.081906	3.1592
0.102417	3.36615
0.121562	3.46962
0.13934	3.57309
0.161219	3.7283
0.181047	3.85764
0.201559	4.03872
0.25284	4.32326
0.303437	4.63368
0.354717	4.99583
0.405999	5.26745
0.455229	5.56493
0.507194	5.84947
0.558475	6.10815
0.607021	6.44444
0.659669	6.75485
0.709582	7.11701
0.758806	7.71197
0.81145	8.3328
0.83059	8.72082
0.863402	9.36752
0.885271	10.1177
0.913291	11.1265
0.937882	12.6786
0.962459	15.0843
0.986999	19.6371
0.99311	22.2239
1.0026	26.9577
1.00664	30.8638
0.986857	28.0701
0.952806	19.7664
0.923478	15.2913
0.897534	12.8338
0.869525	11.23
0.841506	10.1953
0.8169	9.52273
0.79161	8.87603
0.75948	8.3328
0.708889	7.6085
0.657614	6.9618
0.33557	5.0217
0.283606	4.68542
0.233694	4.2974
0.181045	4.01285
0.142069	3.90938
0.104462	3.75417
0.070958	3.59896
0.051813	3.44375
0.025831	3.28854
0.008054	3.1592
