Adsorption isotherm of Krypton on SBMOF-2
DOI: 10.1021/jacs.5b02556
Article source: Figure 2a
Adsorbate Krypton: InChIKey DNNSSWSSYDEUBZ-UHFFFAOYSA-N
Kind: experiment
Temperature: 288 K
Tabular data in the source: 0
pressure (bar)	uptake (mmol/kg)
0	0
0.019886	0.041749
0.042614	0.07298
0.0625	0.114729
0.105114	0.187709
0.150568	0.260658
0.204545	0.333519
0.258523	0.416869
0.309659	0.489759
0.355114	0.552219
0.357955	0.552189
0.40625	0.61462
0.454545	0.68754
0.457386	0.68751
0.511364	0.739391
0.559659	0.801822
0.610795	0.853733
0.65625	0.905704
0.659091	0.916163
0.710227	0.957585
0.758523	1.02002
0.815341	1.07187
0.863636	1.12381
0.914773	1.15474
0.960227	1.20671
