Adsorption isotherm of Xenon on SBMOF-2
DOI: 10.1021/jacs.5b02556
Article source: Figure 2a
Adsorbate Xenon: InChIKey FHNFHKCVQCLJFQ-UHFFFAOYSA-N
Kind: experiment
Temperature: 288 K
Tabular data in the source: 0
pressure (bar)	uptake (mmol/kg)
0	0
0.012401	0.145407
0.027903	0.327167
0.040372	0.484362
0.092396	0.984464
0.144624	1.51993
0.150075	1.46297
0.201077	1.78625
0.252078	2.10953
0.254633	2.05158
0.304749	2.22162
0.355206	2.4506
0.419324	2.54306
0.46944	2.7131
0.513014	2.7515
0.568786	2.89994
0.62098	2.92951
0.670823	3.0524
0.723017	3.08197
0.775552	3.17048
0.833538	3.20203
0.880213	3.27678
0.935303	3.30734
0.979013	3.36931
