Adsorption isotherm of Xenon on SBMOF-2
DOI: 10.1021/jacs.5b02556
Article source: Figure 2a
Adsorbate Xenon: InChIKey FHNFHKCVQCLJFQ-UHFFFAOYSA-N
Kind: experiment
Temperature: 278 K
Tabular data in the source: 0
pressure (bar)	uptake (mmol/kg)
0.01983	0.442105
0.033994	0.757895
0.050992	0.736842
0.053824	1.06316
0.101983	1.54737
0.150142	2.02105
0.15864	1.95789
0.203966	2.21053
0.252125	2.46316
0.25779	2.41053
0.305949	2.53684
0.359773	2.69474
0.413598	2.72632
0.458924	2.83158
0.507082	2.83158
0.555241	2.91579
0.611898	2.91579
0.657224	2.97895
0.711048	2.96842
0.759207	3.03158
0.815864	3.02105
0.86119	3.06316
0.915014	3.06316
0.96034	3.08421
