Adsorption isotherm of Krypton on SBMOF-2
DOI: 10.1021/jacs.5b02556
Article source: Figure 2a
Adsorbate Krypton: InChIKey DNNSSWSSYDEUBZ-UHFFFAOYSA-N
Kind: experiment
Temperature: 278 K
Tabular data in the source: 0
pressure (bar)	uptake (mmol/kg)
0	0
0.017046	0.052632
0.034091	0.08421
0.051136	0.115789
0.059659	0.126316
0.105114	0.221053
0.150568	0.315789
0.207386	0.421053
0.25	0.494737
0.255682	0.494737
0.309659	0.589474
0.357955	0.673684
0.363636	0.684211
0.403409	0.726316
0.460227	0.821053
0.508523	0.873684
0.559659	0.947368
0.607955	1
0.661932	1.07368
0.710227	1.11579
0.761364	1.16842
0.815341	1.22105
0.863636	1.27368
0.914773	1.31579
0.960227	1.35789
