Adsorption isotherm of Nitrogen on CNT industrial grade, purity: 85wt%, diameter: 10-30nm, length: 5-20Âµm, supplier: Nanolab
DOI: 10.1007/s10450-016-9850-5
Article source: Figure 8
Adsorbate Nitrogen: InChIKey IJGRMHOSHXDMSA-UHFFFAOYSA-N
Kind: experiment
Isotherm type: excess
Temperature: 348 K
Tabular data in the source: 0
pressure (bar)	uptake (mmol/g)
0	0
1.07	0.015793
2.02	0.030922
2.962	0.047284
3.99	0.06019
5.97	0.086322
7.97	0.111584
9.96	0.136715
11.97	0.160552
13.98	0.182623
15.96	0.203088
17.97	0.223941
19.97	0.242396
24.89	0.285934
29.9	0.325555
34.881	0.360954
39.9	0.394896
44.721	0.42297
49.71	0.447636
54.73	0.472793
59.736	0.494928
69.71	0.531528
79.742	0.56358
