Adsorption isotherm of Nitrogen on CNT industrial grade, purity: 85wt%, diameter: 10-30nm, length: 5-20Âµm, supplier: Nanolab
DOI: 10.1007/s10450-016-9850-5
Article source: Figure 8
Adsorbate Nitrogen: InChIKey IJGRMHOSHXDMSA-UHFFFAOYSA-N
Kind: experiment
Isotherm type: excess
Temperature: 298 K
Tabular data in the source: 0
pressure (bar)	uptake (mmol/g)
0	0
1.07	0.032399
1.97	0.058361
2.969	0.084829
3.972	0.107947
5.972	0.15859
7.97	0.200363
9.97	0.240628
11.98	0.27781
13.97	0.312362
15.966	0.348862
17.98	0.375275
19.97	0.403522
24.88	0.466909
29.88	0.5219
34.89	0.571208
39.88	0.613132
44.711	0.648369
49.707	0.683232
54.71	0.711731
59.718	0.737699
69.71	0.780061
79.71	0.80914
