Adsorption isotherm of Nitrogen on Nanolab CNT
DOI: 10.1007/s10450-016-9850-5
Article source: Figure S2
Adsorbate Nitrogen: InChIKey IJGRMHOSHXDMSA-UHFFFAOYSA-N
Kind: experiment
Temperature: 77 K
Tabular data in the source: 0
pressure (bar)	uptake (cm3(STP)/g)
0.011196	45.4321
0.033589	51.358
0.065314	55.3086
0.081171	57.284
0.100768	59.2593
0.122228	59.2593
0.141814	61.2346
0.163275	62.2222
0.182871	63.2099
0.201535	65.1852
0.253779	71.1111
0.304157	77.037
0.354546	83.9506
0.407722	91.8519
0.457178	96.7901
0.508489	102.716
0.55981	108.642
0.610189	116.543
0.660568	124.444
0.709093	132.346
0.750139	142.222
0.781864	150.123
0.811715	160
0.832243	167.901
0.852771	177.778
0.872368	190.617
0.888225	199.506
0.90315	211.358
0.918086	229.136
0.930214	242.963
0.939546	259.753
0.947004	275.556
0.954471	293.333
0.960997	316.049
0.967532	339.753
0.972193	369.383
0.977796	400
0.982457	431.605
0.985264	464.198
0.987128	494.815
0.989925	528.395
0.992722	551.111
0.993654	585.679
0.995518	620.247
0.997393	657.778
0.998325	693.333
1.00019	729.877
1.00019	763.457
0.141814	61.2346
0.2034	65.1852
0.253779	71.1111
0.30509	77.037
0.354546	82.963
0.406789	90.8642
0.457178	96.7901
0.507557	102.716
0.558878	109.63
0.610189	116.543
0.660568	124.444
0.712821	136.296
0.752004	145.185
0.782796	155.062
0.813589	167.901
0.835982	177.778
0.854636	189.63
0.8733	207.407
0.889157	224.198
0.905025	248.889
0.91995	277.531
0.931146	312.099
0.943275	362.469
0.953539	416.79
0.960997	472.099
0.9666	523.457
0.970329	570.864
0.974068	610.37
0.979661	645.926
0.981525	671.605
0.987128	695.309
0.986196	708.148
0.990857	730.864
0.994586	752.593
1.00019	766.42
