Adsorption isotherm of Sulfur dioxide on Nanolab CNT
DOI: 10.1007/s10450-016-9850-5
Article source: Figure 9
Adsorbate Sulfur dioxide: InChIKey RAHZWNYVWXNFOC-UHFFFAOYSA-N
Kind: experiment
Isotherm type: excess
Temperature: 398 K
Tabular data in the source: 0
pressure (bar)	uptake (mmol/g)
0	0
0.32695	0
0.7193	0.03153
0.98086	0.09459
1.96172	0.18919
4.05423	0.40991
5.03509	0.53604
7.25837	0.78829
9.874	0.97748
10.2663	0.97748
15.4322	1.35586
20.075	1.67117
24.8485	1.95495
29.622	2.3018
34.6571	2.77477
37.7958	3.27928
