Adsorption isotherm of Sulfur dioxide on Nanolab CNT
DOI: 10.1007/s10450-016-9850-5
Article source: Figure 9
Adsorbate Sulfur dioxide: InChIKey RAHZWNYVWXNFOC-UHFFFAOYSA-N
Kind: experiment
Isotherm type: excess
Temperature: 298 K
Tabular data in the source: 0
pressure (bar)	uptake (mmol/g)
0.06539	-0.03153
0.06539	0.22072
0.45774	0.53604
0.7193	1.22973
1.11164	1.67117
1.56938	2.04955
1.89633	2.33333
2.41946	2.86937
2.8118	3.56306
3.13876	4.0991
3.33493	4.82432
3.59649	6.71622
3.79266	12.3288
