Adsorption isotherm of Sulfur dioxide on CNT industrial grade, purity: 85wt%, diameter: 10-30nm, length: 5-20Âµm, supplier: Nanolab
DOI: 10.1007/s10450-016-9850-5
Article source: Figure 9
Adsorbate Sulfur dioxide: InChIKey RAHZWNYVWXNFOC-UHFFFAOYSA-N
Kind: experiment
Isotherm type: excess
Temperature: 298 K
Tabular data in the source: 0
pressure (bar)	uptake (mmol/g)
0	0
0.158	0.250341
0.36	0.554442
0.74	1.16319
1.14	1.65192
1.556	2.03197
1.9	2.33204
2.41	2.87714
2.88	3.60256
3.09	4.10208
3.3	4.81527
3.58	6.71396
3.77	12.3339
