Adsorption isotherm of Nitrogen on Nanolab CNT
DOI: 10.1007/s10450-016-9850-5
Article source: Figure 8
Adsorbate Nitrogen: InChIKey IJGRMHOSHXDMSA-UHFFFAOYSA-N
Kind: experiment
Isotherm type: excess
Temperature: 298 K
Tabular data in the source: 0
pressure (bar)	uptake (mmol/g)
0.00274	0
0.01372	3.38983
0.02195	5.76271
0.03567	7.79661
0.04527	9.83051
0.0686	14.2373
0.09055	17.9661
0.1125	21.3559
0.13445	24.7458
0.15777	27.9661
0.17973	31.017
0.20305	33.5593
0.225	35.9322
0.27988	41.6949
0.33613	46.6102
0.39375	51.1864
0.45	54.9152
0.50351	57.9661
0.55976	61.0169
0.61601	63.5593
0.67226	65.9322
0.78613	69.661
0.89588	72.2034
