Adsorption isotherm of Sulfur dioxide on CNT industrial grade, purity: 85wt%, diameter: 10-30nm, length: 5-20Âµm, supplier: Nanolab
DOI: 10.1007/s10450-016-9850-5
Article source: Figure 9
Adsorbate Sulfur dioxide: InChIKey RAHZWNYVWXNFOC-UHFFFAOYSA-N
Kind: experiment
Isotherm type: excess
Temperature: 398 K
Tabular data in the source: 0
pressure (bar)	uptake (mmol/g)
0	0
0.35	0.054326
0.64	0.099856
0.91	0.113519
1.06	0.164737
1.91	0.237982
4.07	0.443768
5.02	0.567678
7.211	0.801345
9.921	1.00069
10.31	0.996582
15.42	1.3933
20.06	1.68402
24.82	1.98635
29.571	2.33124
34.653	2.83027
37.751	3.30712
