Adsorption isotherm of Nitrogen on Nanolab CNT
DOI: 10.1007/s10450-016-9850-5
Article source: Figure 8
Adsorbate Nitrogen: InChIKey IJGRMHOSHXDMSA-UHFFFAOYSA-N
Kind: experiment
Isotherm type: excess
Temperature: 248 K
Tabular data in the source: 0
pressure (bar)	uptake (mmol/g)
0.00412	0.67797
0.01372	2.0339
0.02195	3.05085
0.03018	4.0678
0.03567	4.74576
0.04665	5.76271
0.06723	7.9661
0.08918	10.339
0.1125	12.5424
0.13445	14.5763
0.15777	16.4407
0.17973	18.3051
0.20305	20.339
0.225	22.0339
0.27851	25.9322
0.33613	29.322
0.39238	32.5424
0.44863	35.5932
0.50351	37.9661
0.55976	40.1695
0.61601	42.5424
0.67088	44.5763
0.78476	47.6271
0.89726	50.678
