Adsorption isotherm of Sulfur dioxide on Nanolab CNT
DOI: 10.1007/s10450-016-9850-5
Article source: Figure 9
Adsorbate Sulfur dioxide: InChIKey RAHZWNYVWXNFOC-UHFFFAOYSA-N
Kind: experiment
Isotherm type: excess
Temperature: 348 K
Tabular data in the source: 0
pressure (bar)	uptake (mmol/g)
0.06539	0.03153
0.45774	0.22072
1.24242	0.47297
2.15789	0.75676
3.46571	1.16667
5.16587	1.60811
7.19298	2.01802
10.0702	2.68018
12.4242	3.5
15.7592	9.17568
