Adsorption isotherm of Nitrogen, Sulfur dioxide on CNT (20,20)
DOI: 10.1007/s10450-016-9850-5
Article source: Figures 4 and 5
Adsorbate Nitrogen: InChIKey IJGRMHOSHXDMSA-UHFFFAOYSA-N
Adsorbate Sulfur dioxide: InChIKey RAHZWNYVWXNFOC-UHFFFAOYSA-N
Kind: experiment
Temperature: 400 K
Tabular data in the source: 0
pressure (bar)	Nitrogen fraction	Nitrogen uptake (mmol/g)	Sulfur dioxide fraction	Sulfur dioxide uptake (mmol/g)	total uptake (mmol/g)
9.18829	0.2	0.27273	0.8	12.7932	
13.758	0.2	0.33766	0.8	16.5885	
18.3327	0.2	0.42857	0.8	18.5928	
22.9414	0.2	0.44156	0.8	21.9616	
27.555	0.2	0.57143	0.8	24.6482	
33.2539	0.2	0.62338	0.8	26.7804	
39.0306	0.2	0.76623	0.8	28.6567	
45.6881	0.2	0.76623	0.8	31.3859	
48.2139	0.2	0.79221	0.8	32.1109	
50.9003	0.2	0.83117	0.8	32.9211	
58.0421	0.2	0.85714	0.8	34.2004	
