Adsorption isotherm of Nitrogen on Nanolab CNT
DOI: 10.1007/s10450-016-9850-5
Article source: Figure 8
Adsorbate Nitrogen: InChIKey IJGRMHOSHXDMSA-UHFFFAOYSA-N
Kind: experiment
Isotherm type: excess
Temperature: 398 K
Tabular data in the source: 0
pressure (bar)	uptake (mmol/g)
0	0
0.01372	0
0.02195	0.33898
0.0343	1.35593
0.0439	2.0339
0.06723	3.89831
0.0878	5.42373
0.1125	7.11864
0.13445	8.81356
0.15777	10.1695
0.17835	11.8644
0.20168	13.2203
0.22363	14.5763
0.27988	17.7966
0.33613	21.017
0.39238	24.0678
0.45	26.7797
0.50213	29.1525
0.55976	31.6949
0.61601	34.0678
0.67088	35.9322
0.78476	40
0.89588	43.5593
