Adsorption isotherm of Sulfur dioxide on CNT industrial grade, purity: 85wt%, diameter: 10-30nm, length: 5-20Âµm, supplier: Nanolab
DOI: 10.1007/s10450-016-9850-5
Article source: Figure 9
Adsorbate Sulfur dioxide: InChIKey RAHZWNYVWXNFOC-UHFFFAOYSA-N
Kind: experiment
Isotherm type: excess
Temperature: 348 K
Tabular data in the source: 0
pressure (bar)	uptake (mmol/g)
0	0
0.46	0.191942
1.128	0.418511
2.127	0.757046
3.4	1.15559
5.05	1.57884
7.14	2.02634
9.99	2.69369
12.33	3.49601
15.69	9.15882
