Adsorption isotherm of Nitrogen on CNT industrial grade, purity: 85wt%, diameter: 10-30nm, length: 5-20Âµm, supplier: Nanolab
DOI: 10.1007/s10450-016-9850-5
Article source: Figure 8
Adsorbate Nitrogen: InChIKey IJGRMHOSHXDMSA-UHFFFAOYSA-N
Kind: experiment
Isotherm type: excess
Temperature: 398 K
Tabular data in the source: 0
pressure (bar)	uptake (mmol/g)
0	0
1.07	0.005361
2.019	0.017824
2.974	0.026358
3.979	0.036496
5.977	0.056769
7.982	0.074025
9.96	0.094637
11.96	0.112345
13.96	0.126808
15.97	0.145202
17.98	0.163881
19.99	0.177965
24.889	0.213517
29.88	0.24836
34.9	0.283185
39.9	0.311475
44.715	0.340113
49.72	0.369326
54.729	0.393545
59.73	0.416068
69.72	0.459911
79.72	0.502319
