Adsorption isotherm of Perfluorooctanesulfonic acid on Fe3O4-CDI-IL MNP
DOI: 10.1021/acssuschemeng.7b02186
Article source: Figure 2c
Adsorbate Perfluorooctanesulfonic acid: InChIKey YFSUTJLHUFNCNZ-UHFFFAOYSA-N
Kind: experiment
Temperature: 298 K
Tabular data in the source: 0
pressure (bar)	uptake (mg/kg)
1.01325	226.2
1.01325	444.9
1.01325	1003
1.01325	1530.9
1.01325	2006
1.01325	2481.1
1.01325	2963.8
1.01325	4434.4
