Adsorption isotherm of Perfluorooctanoic acid on Fe3O4-CDI-IL MNP
DOI: 10.1021/acssuschemeng.7b02186
Article source: Figure 2c
Adsorbate Perfluorooctanoic acid: InChIKey SNGREZUHAYWORS-UHFFFAOYSA-N
Kind: experiment
Temperature: 298 K
Tabular data in the source: 0
pressure (bar)	uptake (mg/kg)
1.01325	241.3
1.01325	437.4
1.01325	806.9
1.01325	1146.3
1.01325	1395.2
1.01325	1674.2
