Adsorption isotherm of Nitrogen on Ni-IRMOF-1
DOI: 10.1039/C2sc20306e
Adsorbate Nitrogen: InChIKey IJGRMHOSHXDMSA-UHFFFAOYSA-N
Temperature: 77 K
Tabular data in the source: 0
pressure (bar)	uptake (cm3(STP)/g)
2.07905e-05	19.9824
4.90618e-05	39.7347
9.38488e-05	59.1112
0.000174874	77.7576
0.000334203	94.9007
0.000610115	109.385
0.00116194	128.215
0.00172542	147
0.00220341	166.005
0.00259299	185.2
0.00290679	204.573
0.00316424	224.081
0.00337797	243.697
0.00355868	263.397
0.00371412	283.158
0.00385208	302.967
0.0039774	322.804
0.00409399	342.667
0.00420571	362.536
0.00431258	382.416
0.00442916	402.276
0.0045438	422.123
0.00466718	441.953
0.00480222	461.609
0.00495281	481.429
0.00513254	501.161
0.00534627	520.894
0.00560664	540.387
0.0059253	559.698
0.00634014	578.851
0.00685796	597.502
0.00755745	616.021
0.00846971	633.82
0.00965788	650.523
0.0111997	665.754
0.0131	679.447
0.0157182	692.982
0.0189398	704.798
0.0227617	714.954
0.0271239	723.626
0.0320407	731.156
0.0374055	737.571
0.0429936	743.065
0.0487392	747.77
0.0936788	769.629
0.196759	794.02
0.296959	810.935
0.388849	819.182
0.485198	822.953
0.60103	824.715
0.698357	825.149
0.795531	825.144
0.892568	825.043
