Adsorption isotherm of Krypton on MWCNT
DOI: 10.1016/s0169-4332(02)00059-4
Article source: Figure 2
Adsorbate Krypton: InChIKey DNNSSWSSYDEUBZ-UHFFFAOYSA-N
Kind: experiment
Temperature: 81 K
Tabular data in the source: 0
pressure (bar)	uptake (mmol/g)
0	0.028369
1e-06	0.049645
1e-06	0.06383
1e-06	0.092199
2e-06	0.106383
2e-06	0.113475
2e-06	0.156028
3e-06	0.191489
3e-06	0.269504
3e-06	0.361702
4e-06	0.510638
5e-06	0.673759
6e-06	0.829787
1.1e-05	0.971631
2.4e-05	1.06383
7.4e-05	1.0922
0.000114	1.11348
0.000142	1.12057
0.000183	1.14184
0.00021	1.14184
0.000249	1.14184
0.000275	1.15603
0.000296	1.15603
0.000415	1.1773
0.000584	1.19149
0.000797	1.21986
0.000958	1.21986
0.001058	1.21986
0.001169	1.24823
0.001309	1.2695
0.001466	1.2695
0.001552	1.30496
0.001689	1.32624
0.001865	1.3617
0.00206	1.39007
0.002243	1.44681
0.002307	1.58156
0.002373	1.73759
0.002548	1.92199
0.002621	2.09929
0.002894	2.23404
0.003063	2.34043
0.003335	2.41135
0.003683	2.47518
0.003897	2.55319
0.004304	2.69504
0.00462	2.94326
0.004889	3.24113
0.005174	3.63121
