Adsorption isotherm of Ethene on MWCNT
DOI: 10.1016/s0169-4332(02)00059-4
Article source: Figure 5
Adsorbate Ethene: InChIKey VGGSQFUCUMXWEO-UHFFFAOYSA-N
Kind: experiment
Temperature: 98 K
Tabular data in the source: 0
pressure (bar)	uptake (mmol/g)
0	0.081356
0	0.177966
0	0.3
0	0.391525
0	0.49322
0	0.605085
0	0.69661
2e-06	0.783051
2.1e-05	0.879661
5.8e-05	0.945763
9.6e-05	1.00678
0.000113	1.04237
0.000127	1.07797
0.000136	1.10847
0.000148	1.13898
0.000158	1.18983
0.000177	1.27119
0.000187	1.3678
0.000195	1.45932
0.000203	1.54576
0.000215	1.67288
0.000224	1.78983
0.00024	1.90169
0.000254	1.98814
0.000264	2.06441
0.00028	2.15085
0.000287	2.2322
0.000296	2.29322
0.000308	2.39492
0.000317	2.51695
