Adsorption isotherm of Krypton on MWCNT
DOI: 10.1016/s0169-4332(02)00059-4
Article source: Figure 2
Adsorbate Krypton: InChIKey DNNSSWSSYDEUBZ-UHFFFAOYSA-N
Kind: experiment
Temperature: 78 K
Tabular data in the source: 0
pressure (bar)	uptake (mmol/g)
1e-06	0.234043
2e-06	0.48227
2e-06	0.702128
3e-06	0.858156
5e-06	0.985816
8e-06	1.06383
2.6e-05	1.0922
2.8e-05	1.09929
3.4e-05	1.11348
4.4e-05	1.11348
5.6e-05	1.12057
6.8e-05	1.12766
8.4e-05	1.12766
9.8e-05	1.12766
0.000134	1.14184
0.000146	1.14184
0.000161	1.14894
0.000175	1.15603
0.000207	1.15603
0.000268	1.1773
0.000308	1.16312
0.000361	1.19149
0.000415	1.20567
0.000485	1.21277
0.000584	1.25532
0.000682	1.29078
0.000809	1.31206
0.000906	1.35461
0.000958	1.39007
0.001029	1.48936
0.001058	1.59574
0.001073	1.86525
0.001089	1.73759
0.001104	1.97163
0.001185	2.14184
0.001272	2.26241
0.001385	2.3617
0.001445	2.42553
0.00153	2.47518
0.001596	2.53901
0.001738	2.58865
0.001839	2.65957
0.002002	2.73759
0.002031	2.84397
0.002149	3.05674
0.002243	3.19149
0.002307	3.40426
0.002407	3.60993
0.002442	3.79433
