Adsorption isotherm of Ethene on MWCNT
DOI: 10.1016/s0169-4332(02)00059-4
Article source: Figure 5
Adsorbate Ethene: InChIKey VGGSQFUCUMXWEO-UHFFFAOYSA-N
Kind: experiment
Temperature: 101 K
Tabular data in the source: 0
pressure (bar)	uptake (mmol/g)
0	0.157627
0	0.249153
0	0.401695
0	0.538983
0	0.594915
0	0.666102
0	0.686441
1e-06	0.722034
2e-06	0.767797
1.2e-05	0.833898
4.7e-05	0.894915
0.000113	0.961017
0.000156	1.01695
0.000195	1.07288
0.000221	1.11356
0.000237	1.15932
0.000254	1.21525
0.000261	1.2661
0.000272	1.32712
0.000291	1.39831
0.000312	1.54068
0.00033	1.71864
0.000354	1.83559
0.000385	1.96271
0.000407	2.10508
0.000442	2.29322
0.000467	2.4
0.000481	2.50169
0.000487	2.62373
0.000515	2.95424
0.000522	3.11695
0.000545	3.27966
