Adsorption isotherm of Ethene on MWCNT
DOI: 10.1016/s0169-4332(02)00059-4
Article source: Figure 5
Adsorbate Ethene: InChIKey VGGSQFUCUMXWEO-UHFFFAOYSA-N
Kind: experiment
Temperature: 94 K
Tabular data in the source: 0
pressure (bar)	uptake (mmol/g)
0	0.081356
0	0.350847
0	0.523729
0	0.666102
0	0.752542
2e-06	0.828814
1.3e-05	0.910169
3.2e-05	0.981356
4.4e-05	1.03729
5.4e-05	1.08814
6.1e-05	1.15932
6.5e-05	1.23559
6.9e-05	1.35254
7.5e-05	1.46949
7.8e-05	1.54068
8.2e-05	1.6678
8.8e-05	1.79492
8.9e-05	1.90678
0.0001	2.07966
0.000106	2.23729
0.000112	2.4
