Adsorption isotherm of Krypton on MWCNT
DOI: 10.1016/s0169-4332(02)00059-4
Article source: Figure 3
Adsorbate Krypton: InChIKey DNNSSWSSYDEUBZ-UHFFFAOYSA-N
Kind: experiment
Temperature: 84 K
Tabular data in the source: 0
pressure (bar)	uptake (mmol/g)
1e-06	0.049844
2e-06	0.06729
2e-06	0.087227
3e-06	0.109657
4e-06	0.129595
4e-06	0.154517
5e-06	0.1919
5e-06	0.231776
5e-06	0.269159
6e-06	0.351402
7e-06	0.436137
7e-06	0.568224
9e-06	0.690343
1.1e-05	0.812461
2.1e-05	0.94704
2.9e-05	0.971963
5e-05	1.01682
8.8e-05	1.04922
