Adsorption isotherm of Ethene on MWCNT
DOI: 10.1016/s0169-4332(02)00059-4
Article source: Figure 5
Adsorbate Ethene: InChIKey VGGSQFUCUMXWEO-UHFFFAOYSA-N
Kind: experiment
Temperature: 96 K
Tabular data in the source: 0
pressure (bar)	uptake (mmol/g)
0	0.101695
0	0.183051
0	0.284746
0	0.477966
0	0.584746
0	0.671186
0	0.737288
6e-06	0.849153
7e-06	0.859322
2e-05	0.910169
4e-05	0.945763
6.3e-05	1.01695
8.9e-05	1.11864
0.000109	1.23559
0.000117	1.36271
0.000125	1.51017
0.000134	1.68814
0.000154	1.88136
0.00017	2.06949
0.000182	2.24237
0.000195	2.44068
0.000206	3.09661
0.000209	2.6339
