Adsorption isotherm of Ethene on MWCNT
DOI: 10.1016/s0169-4332(02)00059-4
Article source: Figure 5
Adsorbate Ethene: InChIKey VGGSQFUCUMXWEO-UHFFFAOYSA-N
Kind: experiment
Temperature: 92 K
Tabular data in the source: 0
pressure (bar)	uptake (mmol/g)
0	0.467797
0	0.70678
0	0.772881
1e-06	0.854237
9e-06	0.925424
1.6e-05	0.986441
2.5e-05	1.05254
3.1e-05	1.11864
3.5e-05	1.17966
3.8e-05	1.25593
4.2e-05	1.44407
4.4e-05	1.58136
4.7e-05	1.72881
5e-05	1.87627
5.8e-05	2.04407
6.1e-05	2.22203
6.4e-05	2.43559
