Adsorption isotherm of Krypton on MWCNT
DOI: 10.1016/s0169-4332(02)00059-4
Article source: Figure 3
Adsorbate Krypton: InChIKey DNNSSWSSYDEUBZ-UHFFFAOYSA-N
Kind: experiment
Temperature: 79 K
Tabular data in the source: 0
pressure (bar)	uptake (mmol/g)
0	0.02243
1e-06	0.094704
1e-06	0.114642
1e-06	0.139564
1e-06	0.171963
1e-06	0.1919
1e-06	0.21433
2e-06	0.650467
3e-06	0.809969
6e-06	0.964486
2.6e-05	1.0866
2.8e-05	1.09657
3.4e-05	1.10156
4.4e-05	1.10903
5.6e-05	1.11402
6.8e-05	1.11402
8.4e-05	1.1215
9.8e-05	1.12897
