Adsorption isotherm of N-Butane, 1-butene on AgNO3/clay
DOI: 10.1081/ss-120030488
Article source: Table 5
Adsorbate N-Butane: InChIKey IJDNQMDRQITEOD-UHFFFAOYSA-N
Adsorbate 1-butene: InChIKey VXNZUUAINFGPBY-UHFFFAOYSA-N
Kind: experiment
Temperature: 353 K
Tabular data in the source: 0
pressure (bar)	N-Butane fraction	N-Butane uptake (mmol/g)	1-butene fraction	1-butene uptake (mmol/g)	total uptake (mmol/g)
1.1999	1	0.284	0	0	
1.1999	0.998	0.172	0.002	0.09	
1.1999	0.935	0.114	0.065	0.262	
1.1999	0.73	0.073	0.27	0.545	
1.1999	0.311	0.054	0.689	0.805	
