Adsorption isotherm of N-Butane on AgNO3/clay
DOI: 10.1081/ss-120030488
Article source: Figure 3
Adsorbate N-Butane: InChIKey IJDNQMDRQITEOD-UHFFFAOYSA-N
Kind: experiment
Temperature: 353 K
Tabular data in the source: 0
pressure (bar)	uptake (mmol/g)
0	0
0.145321	0.0508
0.313308	0.114
0.52129	0.178
0.729273	0.222
0.93059	0.267
1.20124	0.311
