Adsorption isotherm of 1-butene on AgNO3/clay
DOI: 10.1081/ss-120030488
Article source: Figure 4
Adsorbate 1-butene: InChIKey VXNZUUAINFGPBY-UHFFFAOYSA-N
Kind: experiment
Temperature: 353 K
Tabular data in the source: 0
pressure (bar)	uptake (mmol/g)
0.025331	0.243
0.214649	0.519
0.542622	0.711
0.846597	0.84
1.10791	0.905
1.38655	0.981
