Adsorption isotherm of Carbon Dioxide on UCY-1
DOI: 10.1021/Ic201919q
Adsorbate Carbon Dioxide: InChIKey CURLTUGMZLYLDI-UHFFFAOYSA-N
Temperature: 298 K
Tabular data in the source: 0
pressure (bar)	uptake (mmol/g)
0.0345171	0.0214389
0.060405	0.0459796
0.0845669	0.0612945
0.110455	0.0889121
0.138068	0.107294
0.16223	0.13184
0.186392	0.147155
0.210554	0.165546
0.236442	0.196241
0.26233	0.217705
0.286492	0.239174
0.315832	0.260627
0.341719	0.288245
0.364156	0.312796
0.388318	0.334264
0.415931	0.349569
0.438367	0.380274
0.467707	0.404805
0.491869	0.423196
0.516031	0.450819
0.541919	0.481514
0.569532	0.506049
0.593694	0.527518
0.643744	0.579681
0.771458	0.717774
0.869831	0.825183
0.950947	0.908026
0.973383	0.935653
0.999271	0.966348
