Adsorption isotherm of Methane on UCY-1
DOI: 10.1021/Ic201919q
Adsorbate Methane: InChIKey VNWKTOKETHGBQD-UHFFFAOYSA-N
Temperature: 273 K
Tabular data in the source: 0
pressure (bar)	uptake (mmol/g)
0.036173	0.0092511
0.0620077	0.0185022
0.0878423	0.0277533
0.113681	0.0339207
0.141235	0.0462555
0.165339	0.061674
0.187731	0.0678414
0.234223	0.092511
0.266946	0.104846
0.289335	0.114097
0.318616	0.123348
0.342716	0.14185
0.366824	0.154185
0.394381	0.163436
0.420208	0.178855
0.446047	0.185022
0.466708	0.197357
0.51837	0.222026
0.54592	0.237445
0.594136	0.262115
0.644071	0.289868
0.695732	0.314537
0.745671	0.339207
0.773229	0.348458
0.799059	0.360793
0.823163	0.376211
0.89721	0.413216
0.921321	0.422467
0.948864	0.444053
0.974702	0.45022
1.00053	0.465639
1.01086	0.47489
