Adsorption isotherm of Nitrogen on UCY-1
DOI: 10.1021/Ic201919q
Adsorbate Nitrogen: InChIKey IJGRMHOSHXDMSA-UHFFFAOYSA-N
Temperature: 77 K
Tabular data in the source: 0
pressure (bar)	uptake (cm3(STP)/g)
0.00226821	47.9167
0.00460889	75
0.00475383	33.3333
0.00479731	20.8333
0.00696407	97.9167
0.00931924	120.833
0.0116889	139.583
0.030639	291.667
0.0664304	502.083
0.0858443	520.833
0.127165	541.667
0.14176	545.833
0.168514	554.167
0.219611	564.583
0.26828	572.917
0.321825	579.167
0.368074	583.333
0.39485	585.417
0.419199	585.417
0.438671	587.5
0.467882	589.583
0.487347	593.75
0.511696	593.75
0.536045	593.75
0.562821	595.833
0.587163	597.917
0.611505	600
0.638281	602.083
0.660195	602.083
0.684544	602.083
0.713755	604.167
0.735669	604.167
0.755141	606.25
0.781925	606.25
0.806274	606.25
0.833043	610.417
0.854957	610.417
0.884168	612.5
0.90122	610.417
0.925562	612.5
0.952345	612.5
0.969382	614.583
