Adsorption isotherm of Carbon Dioxide on UCY-1
DOI: 10.1021/Ic201919q
Adsorbate Carbon Dioxide: InChIKey CURLTUGMZLYLDI-UHFFFAOYSA-N
Temperature: 273 K
Tabular data in the source: 0
pressure (bar)	uptake (mmol/g)
0.0345171	0.0491312
0.0621308	0.0767438
0.0862928	0.113597
0.112181	0.150446
0.134617	0.178073
0.160505	0.208768
0.188118	0.245611
0.214006	0.276306
0.239894	0.303923
0.31238	0.405253
0.339994	0.445173
0.365881	0.472791
0.386592	0.512731
0.417657	0.549564
0.440093	0.580269
0.464255	0.610968
0.491869	0.644735
0.517757	0.681583
0.541919	0.71536
0.569532	0.752203
0.617856	0.828987
0.64547	0.86583
0.669632	0.89653
0.69552	0.939532
0.719682	0.970232
0.743844	1.01016
0.771458	1.04393
0.797345	1.0777
0.819782	1.11456
0.849121	1.15447
0.873283	1.19133
0.893993	1.22511
0.923333	1.26503
0.942317	1.30497
0.976834	1.3418
0.999271	1.37866
1.01308	1.40939
