Adsorption isotherm of Methane on UCY-1
DOI: 10.1021/Ic201919q
Adsorbate Methane: InChIKey VNWKTOKETHGBQD-UHFFFAOYSA-N
Temperature: 298 K
Tabular data in the source: 0
pressure (bar)	uptake (mmol/g)
0.0913036	0.0154185
0.113707	0.0123348
0.144707	0.0246696
0.165369	0.0370044
0.194654	0.0431718
0.217046	0.0493392
0.268719	0.0647577
0.294554	0.0740088
0.318673	0.0770925
0.366888	0.101762
0.420281	0.120264
0.468507	0.135683
0.492619	0.144934
0.518461	0.148018
0.568404	0.169604
0.626965	0.188106
0.670019	0.206608
0.719961	0.228194
0.747527	0.231278
0.797477	0.246696
0.823308	0.259031
0.850873	0.262115
0.874977	0.277533
0.897365	0.286784
0.926654	0.289868
0.950765	0.299119
0.976592	0.314537
1.0007	0.323789
1.01448	0.329956
