Adsorption isotherm of Hydrogen on UCY-1
DOI: 10.1021/Ic201919q
Adsorbate Hydrogen: InChIKey UFHFLCQGNIYNRP-UHFFFAOYSA-N
Temperature: 77 K
Tabular data in the source: 0
pressure (bar)	uptake (cm3(STP)/g)
0.0294827	3.95585
0.0572311	7.07976
0.0815109	10.6188
0.109259	13.5348
0.133539	17.0738
0.157819	19.5734
0.183833	22.4891
0.211582	25.1972
0.235861	27.2809
0.261875	29.7808
0.286155	32.2803
0.312169	34.9881
0.336449	37.4876
0.362463	39.5717
0.388478	41.24
0.412757	43.3237
0.435303	46.0308
0.464786	47.9076
0.489065	49.7835
0.516814	51.66
0.535891	54.1585
0.568842	56.036
0.589653	57.7033
0.619136	59.5801
0.641682	60.624
0.665961	63.1236
0.690241	65.2073
0.716255	66.6677
0.74227	68.1281
0.771752	70.6286
0.792564	71.8801
0.818578	73.9641
0.844592	75.0087
0.868872	77.5082
0.894886	78.7607
0.919166	80.4286
0.94518	82.3048
0.972928	83.9734
0.997208	85.0177
1.01282	86.0602
