Adsorption isotherm of Carbon Dioxide on CuBTC
DOI: 10.1080/08927020902988865
Adsorbate Carbon Dioxide: InChIKey CURLTUGMZLYLDI-UHFFFAOYSA-N
Temperature: 298 K
Tabular data in the source: 0
pressure (bar)	uptake (wt%)
0.876783	14.9544
1.997	20.7903
3.0096	23.7082
4.13704	25.7143
5.15273	26.9909
6.16946	27.7204
7.18584	28.6322
8.31671	28.8146
9.221	29.1793
10.3515	29.5441
11.369	29.9088
13.5172	30.4559
15.3265	30.8207
17.4755	31.003
19.6245	31.1854
21.7734	31.3678
23.6962	31.5502
25.6192	31.5502
27.8813	31.7325
29.9175	31.7325
31.9537	31.7325
34.1031	31.7325
36.1393	31.7325
38.1751	31.9149
40.3248	31.7325
42.361	31.7325
