Adsorption isotherm of Methane on CuBTC
DOI: 10.1080/08927020902988865
Adsorbate Methane: InChIKey VNWKTOKETHGBQD-UHFFFAOYSA-N
Temperature: 295 K
Tabular data in the source: 0
pressure (bar)	uptake (wt%)
0.0337838	0.090602
0.0720721	0.15389
0.153153	0.307699
0.177928	0.37111
0.265766	0.479402
0.405405	0.678133
0.443694	0.768694
0.59009	0.949181
0.777027	1.21112
0.986486	1.48194
