Adsorption isotherm of Argon on CuBTC
DOI: 10.1080/08927020902988865
Adsorbate Argon: InChIKey XKRFYHLGVUSROY-UHFFFAOYSA-N
Temperature: 298 K
Tabular data in the source: 0
pressure (bar)	uptake (wt%)
1.06383	1.76581
2.60047	3.53034
4.96454	5.97289
10.0473	9.76858
15.13	12.6119
20.0946	15.1834
25.0591	16.9386
30.0236	18.5578
40.0709	21.1155
50	22.7211
