Adsorption isotherm of Methane on CuBTC
DOI: 10.1080/08927020902988865
Adsorbate Methane: InChIKey VNWKTOKETHGBQD-UHFFFAOYSA-N
Temperature: 295 K
Tabular data in the source: 0
pressure (bar)	uptake (wt%)
0.0135135	0.0362408
0.0427928	0.135975
0.0675676	0.235749
0.103604	0.31724
0.191441	0.552805
0.279279	0.742916
0.371622	0.923894
0.466216	1.0594
0.551802	1.21317
0.63964	1.34873
0.731982	1.46607
0.81982	1.59255
0.90991	1.72809
