Adsorption isotherm of Argon on CuBTC
DOI: 10.1080/08927020902988865
Adsorbate Argon: InChIKey XKRFYHLGVUSROY-UHFFFAOYSA-N
Temperature: 298 K
Tabular data in the source: 0
pressure (bar)	uptake (wt%)
4.01891	3.79859
7.80142	6.78149
11.9385	9.21921
15.721	11.93
23.0496	15.4475
24.2317	15.4443
26.9504	17.2056
30.8511	18.2834
34.3972	19.3622
38.0615	20.7128
41.6076	21.2473
45.3901	22.3255
48.6998	23.2688
