Adsorption isotherm of Carbon Dioxide on CuBTC
DOI: 10.1080/08927020902988865
Adsorbate Carbon Dioxide: InChIKey CURLTUGMZLYLDI-UHFFFAOYSA-N
Temperature: 298 K
Tabular data in the source: 0
pressure (bar)	uptake (wt%)
0.108996	2.18845
0.437704	7.84195
0.994375	12.5836
2.44296	24.2553
4.9148	33.1915
7.3973	36.4742
9.88289	38.1155
14.8575	39.5745
19.947	40.1216
24.9233	40.6687
30.0135	40.8511
39.8541	41.3982
45.058	41.2158
