Adsorption isotherm of Nitrogen on CuBTC
DOI: 10.1080/08927020902988865
Adsorbate Nitrogen: InChIKey IJGRMHOSHXDMSA-UHFFFAOYSA-N
Temperature: 298 K
Tabular data in the source: 0
pressure (bar)	uptake (wt%)
3.90071	2.98258
8.03783	5.1482
11.4657	7.04363
15.3664	8.66567
19.6217	9.87858
23.0496	10.8216
26.8322	12.0358
30.8511	12.5691
34.7518	13.3748
38.6525	13.9084
42.1986	14.1709
46.2175	14.8402
49.8818	15.2384
