Adsorption isotherm of Hydrogen on CuBTC
DOI: 10.1080/08927020902988865
Adsorbate Hydrogen: InChIKey UFHFLCQGNIYNRP-UHFFFAOYSA-N
Temperature: 298 K
Tabular data in the source: 0
pressure (bar)	uptake (wt%)
0.955735	0.00724835
2.38952	0.0193367
4.89801	0.036236
10.0339	0.0675971
15.0513	0.103827
19.9478	0.130337
25.0834	0.159266
29.9803	0.188208
40.011	0.23392
50.1607	0.277196
