Adsorption isotherm of Nitrogen on CuBTC
DOI: 10.1080/08927020902988865
Adsorbate Nitrogen: InChIKey IJGRMHOSHXDMSA-UHFFFAOYSA-N
Temperature: 298 K
Tabular data in the source: 0
pressure (bar)	uptake (wt%)
1.06383	0.949486
2.60047	2.03374
5.08274	3.52358
10.0473	5.823
15.0118	7.5782
20.0946	8.92491
25.0591	10.1359
30.0236	11.0748
40.0709	12.544
50.1182	13.4691
