Adsorption isotherm of Hydrogen on CuBTC
DOI: 10.1080/08927020902988865
Adsorbate Hydrogen: InChIKey UFHFLCQGNIYNRP-UHFFFAOYSA-N
Temperature: 298 K
Tabular data in the source: 0
pressure (bar)	uptake (wt%)
6.09603	0.0677886
7.88672	0.0725648
9.91643	0.0797609
16.2471	0.12079
19.2322	0.132803
23.4128	0.159348
27.1117	0.156736
28.9056	0.183397
30.5781	0.195473
38.8188	0.241273
40.8503	0.260627
43.8365	0.279935
50.7606	0.299051
