Adsorption isotherm of Lead(II) Ion, Cadmium(II) Ion, Water on sodium-exchanged montmorillonite
DOI: 10.1007/s13201-016-0404-5
Article source: Figure 3
Adsorbate Lead(II) Ion: InChIKey RVPVRDXYQKGNMQ-UHFFFAOYSA-N
Adsorbate Cadmium(II) Ion: InChIKey WLZRMCYVCSSEQC-UHFFFAOYSA-N
Adsorbate Water: InChIKey XLYOFNOQVPJJNP-UHFFFAOYSA-N
Kind: experiment
Temperature: 298 K
Tabular data in the source: 0
pressure (bar)	Lead(II) Ion fraction	Lead(II) Ion uptake (mg/g)	Cadmium(II) Ion fraction	Cadmium(II) Ion uptake (mg/g)	Water fraction	Water uptake (mg/g)	total uptake (mg/g)
1.01325	0.4584	10.0615	1.4874	6.65771			
1.01325	1.458	17.9336	4.7757	11.4462			
1.01325	4.2188	22.7	7.16115	12.9187			
1.01325	8.6098	26.2302	9.5466	13.8072			
1.01325	14.0659	28.0908	14.0112	15.9719			
