Adsorption isotherm of Lead(II) Ion, Cadmium(II) Ion, Water on poly(methyl methacrylate)-grafted montmorillonite clay
DOI: 10.1007/s13201-016-0404-5
Article source: Figure 3
Adsorbate Lead(II) Ion: InChIKey RVPVRDXYQKGNMQ-UHFFFAOYSA-N
Adsorbate Cadmium(II) Ion: InChIKey WLZRMCYVCSSEQC-UHFFFAOYSA-N
Adsorbate Water: InChIKey XLYOFNOQVPJJNP-UHFFFAOYSA-N
Kind: experiment
Temperature: 298 K
Tabular data in the source: 0
pressure (bar)	Lead(II) Ion fraction	Lead(II) Ion uptake (mg/g)	Cadmium(II) Ion fraction	Cadmium(II) Ion uptake (mg/g)	Water fraction	Water uptake (mg/g)	total uptake (mg/g)
1.01325	0.3454	12.9412	1.775	6.52958			
1.01325	3.3938	26.05	3.9534	12.27			
1.01325	6.3642	29.3308	8.8339	15.4019			
1.01325	11.1844	31.9344	13.318	17.8662			
