Adsorption isotherm of Nitrogen on IRMOF-1
DOI: 10.1021/Ie300553k
Adsorbate Nitrogen: InChIKey IJGRMHOSHXDMSA-UHFFFAOYSA-N
Temperature: 77 K
Tabular data in the source: 0
pressure (bar)	uptake (cm3(STP)/g)
0.003873	225.223
0.00580951	287.892
0.011619	299.632
0.0445395	311.32
0.0871426	317.114
0.127809	322.911
0.158793	324.81
0.195587	326.698
0.236253	328.578
0.27111	330.47
0.307904	330.399
0.344697	330.328
0.383427	332.212
0.416348	334.107
0.455078	334.033
0.493808	333.958
0.532538	333.884
0.567395	335.775
0.604189	335.705
0.642919	335.63
0.679712	335.559
0.720379	335.481
0.751363	337.38
0.792029	335.343
0.830759	337.228
0.867553	335.198
0.900473	337.093
0.94114	338.974
0.97987	338.899
1.00892	352.553
