Adsorption isotherm of Nitrogen on CuBTC
DOI: 10.1021/Ie300553k
Adsorbate Nitrogen: InChIKey IJGRMHOSHXDMSA-UHFFFAOYSA-N
Temperature: 77 K
Tabular data in the source: 0
pressure (bar)	uptake (cm3(STP)/g)
0.00580951	193.883
0.011619	252.627
0.050349	264.304
0.0890791	270.105
0.123936	275.914
0.162666	277.798
0.19946	277.727
0.236253	277.656
0.273047	279.544
0.307904	279.477
0.350507	283.312
0.383427	285.207
0.422157	285.133
0.458951	283.104
0.495744	286.95
0.532538	282.962
0.569332	284.85
0.608062	284.776
0.644855	282.746
0.681649	286.593
0.720379	284.56
0.757172	284.489
0.795902	282.456
0.830759	284.347
0.867553	282.318
0.90241	284.21
0.94114	282.177
0.977933	282.106
1.01666	285.948
