Adsorption isotherm of Nitrogen on MIL-53(Al)
DOI: 10.1021/Ie300553k
Adsorbate Nitrogen: InChIKey IJGRMHOSHXDMSA-UHFFFAOYSA-N
Temperature: 77 K
Tabular data in the source: 0
pressure (bar)	uptake (cm3(STP)/g)
0.003873	295.73
0.011619	309.425
0.046476	332.86
0.100698	344.507
0.122	346.424
0.16073	354.184
0.195587	354.117
0.240126	357.948
0.273047	361.802
0.311777	365.645
0.352443	369.484
0.383427	367.466
0.420221	373.27
0.457014	377.117
0.493808	379.004
0.532538	382.847
0.569332	386.693
0.606125	388.581
0.642919	394.386
0.681649	400.187
0.716506	404.037
0.751363	411.804
0.792029	419.56
0.826886	437.12
0.867553	460.544
0.900473	495.734
0.933394	574.012
0.977933	722.774
1.00698	761.889
