Adsorption isotherm of Nitrogen on CPF-1
DOI: 10.1039/c4cy00969j
Article source: Figure S8
Adsorbate Nitrogen: InChIKey IJGRMHOSHXDMSA-UHFFFAOYSA-N
Kind: experiment
Temperature: 77 K
Tabular data in the source: 0
pressure (bar)	uptake (cm3(STP)/g)
0.004108	2.50922
0.028754	6.64207
0.061617	8.41328
0.093109	10.4797
0.101325	11.3653
0.123233	12.5461
0.139664	13.4317
0.16568	14.6125
0.176634	14.9077
0.206758	17.2694
0.250574	18.155
0.299867	21.6974
0.357376	24.059
0.406669	27.3063
0.457332	29.3727
0.510733	34.6863
0.512102	28.4871
0.55318	36.7528
0.554549	32.3247
0.602473	39.1144
0.609319	34.9815
0.653135	41.7712
0.659982	37.9336
0.709275	41.7712
0.712014	45.0185
0.772261	49.1513
0.770892	44.1328
0.807861	47.9705
0.811969	52.9889
0.835247	50.6273
0.833877	55.6458
0.858524	52.3985
0.864001	58.3026
0.883171	55.0554
0.892755	62.4354
0.913294	59.1882
0.914664	66.2731
0.931095	65.0923
0.932464	73.3579
0.968065	74.8339
0.973542	100.221
0.987234	96.9742
0.998188	115.572
0.983126	122.952
0.991342	136.236
1.00093	140.369
0.999557	151.292
1.00777	162.804
