Adsorption isotherm of Nitrogen on CPF-2
DOI: 10.1039/c4cy00969j
Article source: Figure S8
Adsorbate Nitrogen: InChIKey IJGRMHOSHXDMSA-UHFFFAOYSA-N
Kind: experiment
Temperature: 77 K
Tabular data in the source: 0
pressure (bar)	uptake (cm3(STP)/g)
0.005477	1.03321
0.053401	4.28044
0.084894	5.46126
0.125972	7.23247
0.153357	9.00369
0.188957	9.8893
0.230035	11.6605
0.260159	11.3653
0.301236	13.4317
0.323145	14.0221
0.366961	14.3173
0.399823	14.9077
0.429947	17.2694
0.477871	14.0221
0.469655	17.5646
0.509364	19.9262
0.514841	16.3838
0.542226	17.2694
0.550441	20.8118
0.576457	20.8118
0.580565	16.3838
0.621643	18.7454
0.623012	21.6974
0.658613	22.2878
0.655874	18.4502
0.691475	20.8118
0.690105	22.8782
0.722968	24.6494
0.724337	20.5166
0.761307	21.6974
0.758568	26.7159
0.794169	26.7159
0.799646	21.6974
0.836616	25.2399
0.835247	27.8967
0.870847	30.2583
0.864001	25.5351
0.898232	28.4871
0.903709	32.9151
0.933833	37.6384
0.942049	32.3247
0.97628	41.7712
0.97628	49.4465
1.0064	75.4244
