Adsorption isotherm of Nitrogen on PDA-CM
DOI: 10.1016/j.electacta.2015.05.030
Article source: Figure 3a- PDA CM
Adsorbate Nitrogen: InChIKey IJGRMHOSHXDMSA-UHFFFAOYSA-N
Kind: experiment
Temperature: 77 K
Tabular data in the source: 0
pressure (bar)	uptake (mmol/g)
0.011602	15.7376
0.028878	17.6219
0.057826	19.52
0.077048	20.631
0.081708	20.9366
0.099998	21.7328
0.121245	22.691
0.141146	23.4548
0.141652	23.4836
0.161725	24.4084
0.18204	25.1583
0.202701	25.8693
0.203805	25.899
0.250962	27.5331
0.252907	27.5978
0.303965	29.0048
0.310825	28.8612
0.354009	30.0415
0.364588	29.9627
0.406161	30.819
0.407266	30.8467
0.455699	31.5083
0.457138	31.5026
0.505987	31.3795
0.507344	31.3597
0.557298	31.563
0.557389	31.8315
0.608781	31.757
0.65916	32.1593
0.659839	32.1597
0.709964	32.108
0.710471	32.1079
0.760343	32.4131
0.761944	32.4153
0.811137	32.5469
0.811563	32.5487
0.829943	32.3985
0.837644	32.5976
0.844838	32.6021
0.861688	32.4955
0.869227	32.7038
0.886665	32.5878
0.89471	32.8517
0.911732	32.708
0.920619	32.9811
0.937814	32.8467
0.948392	33.1429
0.962537	32.9992
0.987513	33.4018
0.988446	33.4562
1.00207	33.9573
1.00884	34.2304
