Adsorption isotherm of Nitrogen on PDA-C
DOI: 10.1016/j.electacta.2015.05.030
Article source: Figure 3a- PDA C without KOH activation
Adsorbate Nitrogen: InChIKey IJGRMHOSHXDMSA-UHFFFAOYSA-N
Kind: experiment
Temperature: 77 K
Tabular data in the source: 0
pressure (bar)	uptake (mmol/g)
0.010822	2.5738
0.034602	3.0414
0.069397	3.0043
0.07109	3.0237
0.080908	3.4302
0.101051	3.532
0.122806	3.6061
0.12543	3.2913
0.141257	3.6987
0.162667	3.6987
0.18197	3.6848
0.18273	3.5182
0.202366	3.8191
0.233433	3.5969
0.253657	3.8561
0.284896	3.6061
0.303853	3.8144
0.335082	3.5691
0.354972	3.782
0.386038	3.5043
0.424633	3.5506
0.436488	3.5413
0.475842	3.4672
0.487779	3.4209
0.526545	3.2774
0.538309	3.3376
0.577157	3.1663
0.589266	3.245
0.627526	3.0738
0.639462	3.1987
0.678391	3.0089
0.690408	3.1849
0.729439	3.0321
0.759816	3.3145
0.761599	3.1849
0.792068	3.3978
0.811623	3.3145
0.817379	3.6154
0.832861	3.5506
0.844291	3.87
0.862661	3.9116
0.870189	4.2773
0.887881	4.4394
0.895835	4.8884
0.914367	5.2958
0.921814	5.9531
0.938736	6.6382
0.950672	8.3603
0.964209	9.0222
0.983562	17.9796
0.989408	14.5448
0.995518	33.4827
0.995913	18.0768
