Adsorption isotherm of Nitrogen on PDA-Cl
DOI: 10.1016/j.electacta.2015.05.030
Article source: Figure 3a- PDA Cl
Adsorbate Nitrogen: InChIKey IJGRMHOSHXDMSA-UHFFFAOYSA-N
Kind: experiment
Temperature: 77 K
Tabular data in the source: 0
pressure (bar)	uptake (mmol/g)
0.000162	1.1429
0.000162	1.1435
0.000334	1.963
0.000507	2.3241
0.000588	2.7824
0.000669	3.125
0.00074	11.2083
0.00074	11.7165
0.00076	3.5602
0.000831	10.7454
0.000831	10.829
0.000831	10.9096
0.000841	4.2709
0.000841	4.375
0.000912	11.6019
0.000912	8.278
0.000922	7.5139
0.000922	7.4128
0.000922	6.3843
0.000922	6.1531
0.000922	3.9907
0.001003	7.9676
0.001003	8.051
0.001003	8.0926
0.001003	8.1115
0.001074	12.0093
0.001084	12.1482
0.001165	8.3843
0.001672	12.3657
0.002766	12.7361
0.003273	13.1389
0.004205	13.875
0.004965	14.6069
0.005137	14.6713
0.007589	15
0.008856	15.3056
0.009535	15.5694
0.010639	15.7952
0.01072	15.8056
0.029769	18.4259
0.0627	20.7824
0.08107	21.8843
0.086572	22.2593
0.100535	23.0139
0.120009	24.0694
0.141592	25.213
0.160306	26.1574
0.180369	27.1944
0.20263	28.3015
0.202711	28.3056
0.247162	30.375
0.252745	30.713
0.303793	32.8981
0.305991	32.9825
0.339094	34.3981
0.3617	35.0278
0.403608	36.6852
0.404793	36.5231
0.456601	37.9444
0.458881	38.1912
0.506807	38.9861
0.506888	40.0926
0.55675	40.4019
0.557602	40.4167
0.607383	40.73
0.608994	40.7546
0.658521	40.6898
0.658602	40.6902
0.709316	40.9491
0.711433	41.2639
0.759948	41.1389
0.810995	41.588
0.811076	41.5883
0.819294	41.7037
0.831564	41.5231
0.860442	41.8472
0.861029	41.6157
0.887273	41.9167
0.895571	41.8611
0.895743	41.8565
0.912421	41.9398
0.920892	42.1759
0.937145	42.0185
0.948574	42.3981
0.962881	42.1944
0.986926	42.875
0.987513	42.5383
0.994292	42.6435
1.00707	42.9074
1.00809	43.1667
