Adsorption isotherm of Nitrogen on PDA-CS
DOI: 10.1016/j.electacta.2015.05.030
Article source: Figure 3a- PDA CS
Adsorbate Nitrogen: InChIKey IJGRMHOSHXDMSA-UHFFFAOYSA-N
Kind: experiment
Temperature: 77 K
Tabular data in the source: 0
pressure (bar)	uptake (mmol/g)
3e-05	14.3378
0.000537	15.5881
0.001459	16.7922
0.003577	17.8759
0.006029	18.9364
0.010507	19.6773
0.029638	21.2194
0.060785	22.1223
0.082205	22.4834
0.103027	22.4602
0.124194	22.7194
0.143405	22.7147
0.143578	22.8444
0.163214	22.8813
0.183368	22.9136
0.202579	23.2007
0.203177	22.9969
0.252613	23.0009
0.252867	23.0013
0.303823	23.4086
0.304168	23.4096
0.354202	23.5242
0.356066	23.5159
0.403811	23.251
0.404743	23.2507
0.455699	23.2644
0.50624	23.2734
0.506321	23.2745
0.557034	23.7687
0.589458	23.3378
0.608001	23.8101
0.658197	23.8469
0.676821	23.3884
0.708404	23.8974
0.709579	23.9208
0.759867	23.9345
0.76012	23.9293
0.792544	23.9945
0.811086	23.4665
0.817602	24.0176
0.832	23.4525
0.84503	24.073
0.862053	23.4663
0.870939	24.0961
0.887698	23.5495
0.896503	24.1886
0.912847	23.605
0.926212	24.3505
0.938067	23.8086
0.963469	24.9619
0.963976	24.9431
0.986662	24.6929
0.992063	28.4302
0.995974	25.3042
1.00291	26.5545
1.00654	28.9534
