Adsorption isotherm of Carbon Dioxide on Zn(pydc)(dma)
DOI: 10.1021/Ic901456k
Adsorbate Carbon Dioxide: InChIKey CURLTUGMZLYLDI-UHFFFAOYSA-N
Temperature: 195 K
Tabular data in the source: 0
pressure (bar)	uptake (cm3(STP)/g)
-0.00217556	2.67222
0.0130472	46.2991
0.0272219	61.1014
0.0981255	73.4509
0.129552	125.186
0.164136	138.73
0.289154	139.233
0.423313	141.113
0.564267	142.35
0.639327	143.992
0.80526	144.659
0.882569	145.64
0.989427	146.74
