Adsorption isotherm of Argon on Zn(pydc)(dma)
DOI: 10.1021/Ic901456k
Adsorbate Argon: InChIKey XKRFYHLGVUSROY-UHFFFAOYSA-N
Temperature: 87 K
Tabular data in the source: 0
pressure (bar)	uptake (cm3(STP)/g)
0.0262468	34.2879
0.0274413	67.1345
0.0331574	99.3291
0.0523901	128.227
0.082793	151.807
0.131088	167.417
0.181412	176.333
0.267983	182.043
0.374939	185.824
0.413752	190.672
0.436799	199.478
0.614512	211.587
0.789757	218.323
0.953613	224.344
1.02955	250.119
