Adsorption isotherm of Hydrogen on Zn(pydc)(dma)
DOI: 10.1021/Ic901456k
Adsorbate Hydrogen: InChIKey UFHFLCQGNIYNRP-UHFFFAOYSA-N
Temperature: 77 K
Tabular data in the source: 0
pressure (bar)	uptake (cm3(STP)/g)
0.0748395	0.352068
0.15875	0.74681
0.208643	0.981522
0.310679	0.789485
0.371948	2.4218
0.43543	2.04839
0.528412	2.48581
0.628198	2.95523
0.757467	3.56335
0.841378	3.95809
0.929824	4.37417
1.02507	4.82226
