Adsorption isotherm of Nitrogen on Zn(pydc)(dma)
DOI: 10.1021/Ic901456k
Adsorbate Nitrogen: InChIKey IJGRMHOSHXDMSA-UHFFFAOYSA-N
Temperature: 77 K
Tabular data in the source: 0
pressure (bar)	uptake (cm3(STP)/g)
0.0608546	48.5021
0.0671071	95.4441
0.089149	139.098
0.153745	165.498
0.23599	177.222
0.267983	182.043
0.374939	185.824
0.436409	188.752
0.602464	192.771
0.691162	194.468
0.93917	202.168
1.02178	223.948
1.02928	242.745
