Adsorption isotherm of Methane on Carbon
DOI: 10.1021/la060898r
Adsorbate Methane: InChIKey VNWKTOKETHGBQD-UHFFFAOYSA-N
Temperature: 319 K
Tabular data in the source: 0
pressure (bar)	uptake (mmol/g)
7.49082	0.12395
13.8007	0.155499
27.8007	0.196626
41.2091	0.234372
54.6176	0.263668
69.2091	0.286767
83.6035	0.307048
97.4063	0.320006
111.406	0.336908
125.406	0.348738
