Adsorption isotherm of Carbon Dioxide on Carbon
DOI: 10.1021/la060898r
Adsorbate Carbon Dioxide: InChIKey CURLTUGMZLYLDI-UHFFFAOYSA-N
Temperature: 318 K
Tabular data in the source: 0
pressure (bar)	uptake (mmol/g)
3.54716	2.23108
5.12463	2.65361
6.89927	3.09305
11.8289	3.78601
18.1387	4.36911
26.026	4.81699
33.3218	5.01981
41.9979	5.22263
54.6176	5.24798
68.6176	5.04516
79.4627	4.79164
86.3641	4.49587
92.4767	4.03108
96.8148	3.62544
97.6035	3.27051
100.167	3.1353
103.125	2.83953
110.815	2.42544
129.35	2.03671
135.857	1.8677
