Adsorption isotherm of Methane on Carbon
DOI: 10.1021/la060898r
Adsorbate Methane: InChIKey VNWKTOKETHGBQD-UHFFFAOYSA-N
Temperature: 319 K
Tabular data in the source: 0
pressure (bar)	uptake (mmol/g)
6.50491	0.192688
8.08237	0.221984
14.3922	0.313252
27.6035	0.459731
42.3922	0.548745
55.9979	0.600576
69.4063	0.636632
83.0119	0.661421
96.8148	0.672688
110.42	0.686209
124.42	0.690716
