Adsorption isotherm of Methane on Carbon
DOI: 10.1021/la060898r
Adsorbate Methane: InChIKey VNWKTOKETHGBQD-UHFFFAOYSA-N
Temperature: 318 K
Tabular data in the source: 0
pressure (bar)	uptake (mmol/g)
5.92743	1.86742
12.7349	2.71692
25.549	3.54069
35.1595	3.85818
48.1739	4.1156
62.1893	4.27006
76.4049	4.30438
89.4192	4.2958
104.235	4.2529
118.451	4.14993
132.066	4.03838
