Adsorption isotherm of Carbon Dioxide on Carbon
DOI: 10.1021/la060898r
Adsorbate Carbon Dioxide: InChIKey CURLTUGMZLYLDI-UHFFFAOYSA-N
Temperature: 318 K
Tabular data in the source: 0
pressure (bar)	uptake (mmol/g)
3.34998	2.95366
4.92744	3.54943
7.09646	4.15788
11.6317	4.98183
17.9415	5.88183
25.0401	6.43957
31.7443	6.7945
43.181	7.01
55.6035	7.09873
69.8007	6.92126
82.2232	6.41422
87.35	5.95788
91.8852	5.43817
96.6176	4.82971
97.6035	4.38605
100.364	4.19591
103.519	3.76493
110.815	3.52408
115.942	2.99169
129.153	2.71281
130.336	2.51
135.66	2.47197
