Adsorption isotherm of Nitrogen on Carbon
DOI: 10.1021/la060898r
Adsorbate Nitrogen: InChIKey IJGRMHOSHXDMSA-UHFFFAOYSA-N
Temperature: 318 K
Tabular data in the source: 0
pressure (bar)	uptake (mmol/g)
7.29364	1.50432
9.65984	1.78319
18.3359	2.69587
28.195	3.34657
41.8007	3.92122
55.4063	4.3015
69.4063	4.52122
83.2091	4.65643
97.6035	4.76629
111.801	4.81699
125.209	4.85925
137.632	4.83389
