Adsorption isotherm of Carbon Dioxide on Carbon
DOI: 10.1021/la060898r
Adsorbate Carbon Dioxide: InChIKey CURLTUGMZLYLDI-UHFFFAOYSA-N
Temperature: 318 K
Tabular data in the source: 0
pressure (bar)	uptake (mmol/g)
7.65953	1.16912
16.2229	1.85926
27.4905	2.57898
42.3638	3.20011
56.5609	3.65363
70.5328	4.01842
84.5046	4.30433
98.0257	4.4818
112.899	4.63954
125.969	4.72828
140.167	4.6987
