Adsorption isotherm of Nitrogen on Carbon
DOI: 10.1021/la060898r
Adsorbate Nitrogen: InChIKey IJGRMHOSHXDMSA-UHFFFAOYSA-N
Temperature: 318 K
Tabular data in the source: 0
pressure (bar)	uptake (mmol/g)
8.11024	0.557853
16.2229	0.755036
28.1666	0.814191
41.9131	0.735318
56.5609	0.617008
70.0821	0.518417
84.9553	0.390248
97.8004	0.262079
112.674	0.153628
125.969	-0.00411864
139.265	-0.0534144
