Adsorption isotherm of Methane on Carbon
DOI: 10.1021/la060898r
Adsorbate Methane: InChIKey VNWKTOKETHGBQD-UHFFFAOYSA-N
Temperature: 318 K
Tabular data in the source: 0
pressure (bar)	uptake (mmol/g)
6.11054	2.4508
12.6176	3.21981
24.8429	3.89587
35.4908	4.20009
47.9134	4.38601
61.9134	4.50432
76.5049	4.52967
89.7162	4.52122
103.519	4.48742
118.308	4.40291
132.308	4.3353
