Adsorption isotherm of Methane on Carbon
DOI: 10.1021/la060898r
Adsorbate Methane: InChIKey VNWKTOKETHGBQD-UHFFFAOYSA-N
Temperature: 318 K
Tabular data in the source: 0
pressure (bar)	uptake (mmol/g)
7.20883	0.193064
15.9976	0.281797
27.0398	0.36067
42.8145	0.419825
56.3356	0.439543
70.7581	0.409966
85.6314	0.409966
98.4764	0.390248
112.674	0.390248
125.744	0.36067
140.843	0.311374
