Adsorption isotherm of Nitrogen on Carbon
DOI: 10.1021/la060898r
Adsorbate Nitrogen: InChIKey IJGRMHOSHXDMSA-UHFFFAOYSA-N
Temperature: 318 K
Tabular data in the source: 0
pressure (bar)	uptake (mmol/g)
6.50491	1.60006
8.87111	1.75781
16.7584	2.22541
27.9979	2.57471
41.4063	2.8733
55.6035	3.07048
69.4063	3.20569
82.6176	3.2902
97.0119	3.33527
111.801	3.35217
124.618	3.35217
137.04	3.36344
