Adsorption isotherm of Carbon Dioxide on Carbon
DOI: 10.1021/la060898r
Adsorbate Carbon Dioxide: InChIKey CURLTUGMZLYLDI-UHFFFAOYSA-N
Temperature: 319 K
Tabular data in the source: 0
pressure (bar)	uptake (mmol/g)
8.08237	0.507067
14.7866	0.687348
28.5894	0.896926
42.195	1.00509
55.4063	1.05693
68.8148	1.05467
82.6176	1.05242
95.4345	0.894672
103.519	0.914954
124.223	0.732419
