Adsorption isotherm of Nitrogen on Carbon
DOI: 10.1021/la060898r
Adsorbate Nitrogen: InChIKey IJGRMHOSHXDMSA-UHFFFAOYSA-N
Temperature: 319 K
Tabular data in the source: 0
pressure (bar)	uptake (mmol/g)
7.49082	0.0495836
14.195	0.0884568
28.5894	0.145922
42.195	0.193246
56.195	0.229865
69.8007	0.257471
83.0119	0.281133
97.4063	0.300288
111.801	0.316062
124.42	0.333527
