Adsorption isotherm of Methane on Carbon
DOI: 10.1021/la060898r
Adsorbate Methane: InChIKey VNWKTOKETHGBQD-UHFFFAOYSA-N
Temperature: 319 K
Tabular data in the source: 0
pressure (bar)	uptake (mmol/g)
5.91336	0.192688
7.68801	0.219731
13.8007	0.314378
26.8148	0.455223
41.6035	0.546491
55.6035	0.602829
69.9979	0.642266
83.2091	0.664801
96.6176	0.676069
110.815	0.688463
123.434	0.694097
