Adsorption isotherm of Carbon Dioxide on Carbon
DOI: 10.1021/la060898r
Adsorbate Carbon Dioxide: InChIKey CURLTUGMZLYLDI-UHFFFAOYSA-N
Temperature: 319 K
Tabular data in the source: 0
pressure (bar)	uptake (mmol/g)
7.49082	0.502838
13.9979	0.668472
27.4063	0.891289
42.195	1.00566
55.6035	1.04115
69.9979	1.05889
82.026	1.06087
97.0119	0.889317
102.927	0.911007
124.026	0.729599
