Adsorption isotherm of Nitrogen, Methane on Zeolite Mordenite
DOI: 10.1007/s10450-012-9398-y
Article source: Figure 7
Adsorbate Nitrogen: InChIKey IJGRMHOSHXDMSA-UHFFFAOYSA-N
Adsorbate Methane: InChIKey VNWKTOKETHGBQD-UHFFFAOYSA-N
Kind: experiment
Temperature: 301 K
Tabular data in the source: 0
pressure (bar)	Nitrogen fraction	Nitrogen uptake (mmol/g)	Methane fraction	Methane uptake (mmol/g)	total uptake (mmol/g)
1.06	0.51	0.084	0.49	0.26	
2.76	0.51	0.152	0.49	0.564	
4.48	0.51	0.209	0.49	0.747	
6.2	0.51	0.254	0.49	0.866	
7.92	0.51	0.312	0.49	0.918	
