Adsorption isotherm of Methane on Zeolite Mordenite
DOI: 10.1007/s10450-012-9398-y
Article source: Table 3
Adsorbate Methane: InChIKey VNWKTOKETHGBQD-UHFFFAOYSA-N
Kind: experiment
Temperature: 301 K
Tabular data in the source: 0
pressure (bar)	uptake (mmol/g)
1.04	0.51
2.758	0.93
4.479	1.19
6.198	1.35
7.917	1.48
