Adsorption isotherm of Nitrogen on Zeolite Mordenite
DOI: 10.1007/s10450-012-9398-y
Article source: Table 3
Adsorbate Nitrogen: InChIKey IJGRMHOSHXDMSA-UHFFFAOYSA-N
Kind: experiment
Temperature: 301 K
Tabular data in the source: 0
pressure (bar)	uptake (mmol/g)
1.062	0.17
2.76	0.37
4.478	0.54
6.201	0.69
7.92	0.8
