Adsorption isotherm of Nitrogen on g-C34N6-COF
DOI: 10.1002/anie.201905713
Article source: Figure 2c
Adsorbate Nitrogen: InChIKey IJGRMHOSHXDMSA-UHFFFAOYSA-N
Kind: experiment
Temperature: 77 K
Tabular data in the source: 0
pressure (bar)	uptake (cm3(STP)/g)
0	174.527
0	185.886
0.004257	196.213
0.026963	225.129
0.039735	233.391
0.089404	249.914
0.122044	258.176
0.154684	264.372
0.188743	268.503
0.227059	274.699
0.255441	282.96
0.285243	286.059
0.324978	290.189
0.357618	295.353
0.386	297.418
0.421478	301.549
0.456956	307.745
0.485338	310.843
0.517978	317.04
0.550618	321.17
0.584676	325.301
0.622993	330.465
0.648537	333.563
0.682596	336.661
0.725169	342.857
0.759228	349.053
0.78761	359.38
0.824507	365.577
0.861404	375.904
0.896882	388.296
0.933779	413.081
0.970676	451.291
0.986287	495.697
0.993382	561.79
1.00615	588.64
0.979191	501.893
0.945132	438.898
0.903978	405.852
0.854309	385.198
0.818831	375.904
0.783353	368.675
0.764904	365.577
0.728007	354.217
0.686853	351.119
0.654213	349.053
0.624412	342.857
0.583257	337.694
0.54636	333.563
0.506625	327.367
0.481081	325.301
0.441346	319.105
0.410125	317.04
0.367551	311.876
0.336331	307.745
0.300853	303.614
0.265375	299.484
0.229897	294.32
0.194419	290.189
0.156103	283.993
0.124882	277.797
0.090824	265.404
0.04754	247.332
