Adsorption isotherm of Nitrogen on g-C34N6-COF/CNT hybrid thin film
DOI: 10.1002/anie.201905713
Article source: Figure S15a
Adsorbate Nitrogen: InChIKey IJGRMHOSHXDMSA-UHFFFAOYSA-N
Kind: experiment
Temperature: 77 K
Tabular data in the source: 0
pressure (bar)	uptake (cm3(STP)/g)
0	119.637
0.008171	132.326
0.032685	148.64
0.059923	152.266
0.084437	161.329
0.122571	166.767
0.15798	166.767
0.193389	174.018
0.231522	174.018
0.250589	179.456
0.291446	179.456
0.324131	183.082
0.35954	184.894
0.384054	188.52
0.424911	190.332
0.452149	192.145
0.484835	195.77
0.525692	195.77
0.555653	197.583
0.59651	201.208
0.626472	208.459
0.659157	206.647
0.691843	210.272
0.7327	213.897
0.762661	213.897
0.792623	217.523
0.825308	230.211
0.874337	239.275
0.901575	248.338
0.936984	264.653
0.966946	304.532
0.975117	380.665
1.00508	507.553
0.928813	282.779
0.885232	253.776
0.847099	248.338
0.817137	239.275
0.795347	235.65
0.757214	228.399
0.729976	221.148
0.689119	219.335
0.656433	217.523
0.621024	213.897
0.577444	210.272
0.544758	208.459
0.512073	204.834
0.476663	203.021
0.441254	201.208
0.405845	197.583
0.367712	195.77
0.332302	195.77
0.294169	192.145
0.264208	192.145
0.231522	186.707
0.196113	184.894
0.15798	183.082
0.122571	177.644
0.087161	170.393
0.049028	164.955
