Adsorption isotherm of Methane on ROD-8a
DOI: 10.1039/C4ce00279b
Adsorbate Methane: InChIKey VNWKTOKETHGBQD-UHFFFAOYSA-N
Temperature: 273 K
Tabular data in the source: 0
pressure (bar)	uptake (cm3(STP)/g)
0.0652681	3.10278
0.0932401	4.01695
0.123543	5.29519
0.153846	6.39161
0.181818	7.30579
0.207459	8.58317
0.237762	9.49777
0.265734	10.2301
0.291375	11.3257
0.319347	12.0581
0.34965	13.1545
0.375291	13.7046
0.403263	14.6188
0.428904	15.3507
0.459207	16.0835
0.484848	16.9972
0.515152	17.9118
0.540793	18.6438
0.568765	19.1943
0.599068	19.9271
0.624709	20.659
0.657343	21.5741
0.682984	22.1242
0.713287	22.6751
0.736597	23.4067
0.762238	23.9568
0.79021	24.8709
0.818182	25.2397
0.876457	26.523
0.90676	27.2558
0.958042	28.1742
0.974359	28.5408
