Adsorption isotherm of Methane on ROD-8a
DOI: 10.1039/C4ce00279b
Adsorbate Methane: InChIKey VNWKTOKETHGBQD-UHFFFAOYSA-N
Temperature: 303 K
Tabular data in the source: 0
pressure (bar)	uptake (cm3(STP)/g)
0.044289	1.4626
0.0979021	2.92689
0.137529	3.66137
0.174825	4.39542
0.216783	5.13032
0.254079	5.86438
0.293706	6.41704
0.335664	7.15194
0.377622	7.88684
0.410256	8.62005
0.452214	9.17313
0.487179	9.72494
0.529138	10.278
0.566434	10.8303
0.599068	11.1998
0.645688	12.1174
0.680653	12.4874
0.717949	12.8578
0.759907	13.5927
0.797203	13.7813
0.832168	14.3331
0.853147	14.5188
0.890443	15.071
0.934732	15.6245
0.990676	16.1801
