Adsorption isotherm of Methane on ROD-8a
DOI: 10.1039/C4ce00279b
Adsorbate Methane: InChIKey VNWKTOKETHGBQD-UHFFFAOYSA-N
Temperature: 298 K
Tabular data in the source: 0
pressure (bar)	uptake (cm3(STP)/g)
0.205128	4.94639
0.230769	5.4965
0.265734	6.04832
0.319347	7.33079
0.342657	7.88048
0.375291	8.43187
0.403263	8.61878
0.431235	9.16932
0.456876	9.90125
0.512821	10.8205
0.543124	11.0078
0.571096	11.7402
0.596737	11.9267
0.622378	12.4768
0.652681	12.6641
0.708625	13.7652
0.74359	13.9534
0.764569	14.5026
0.818182	15.2397
0.843823	15.7898
0.878788	16.1598
0.90676	16.3467
0.962704	17.0841
0.974359	17.2681
