Adsorption isotherm of Carbon Dioxide on ROD-8a
DOI: 10.1039/C4ce00279b
Adsorbate Carbon Dioxide: InChIKey CURLTUGMZLYLDI-UHFFFAOYSA-N
Temperature: 195 K
Tabular data in the source: 0
pressure (bar)	uptake (cm3(STP)/g)
0.00012678	7.7171
0.000202849	12.3474
0.000380341	23.1513
0.00291595	17.4934
0.00310189	28.8118
0.00321177	35.5
0.00331319	41.6737
0.00340616	47.3329
0.00349913	52.9921
0.00578118	31.9
0.00884082	58.1394
0.00891689	62.7697
0.00898449	66.8855
0.00906901	72.0302
0.0144023	76.6631
0.0171407	83.3526
0.0412459	110.631
0.0597557	117.329
0.0808689	122.484
0.101948	125.581
0.130914	128.682
0.159861	130.755
0.178287	132.307
0.201961	133.348
0.228272	134.904
0.249309	135.429
0.272975	135.956
0.29402	136.995
0.320331	138.551
0.34136	138.562
0.365026	139.088
0.39132	139.616
0.412365	140.655
0.441288	141.184
0.459688	141.193
0.485983	141.721
0.504391	142.244
0.52804	141.741
0.551697	141.753
0.577983	141.766
0.606906	142.295
0.620049	142.302
0.669984	141.812
0.693649	142.338
0.717297	141.835
0.740946	141.333
0.764612	141.859
0.785641	141.869
0.809281	140.852
0.832946	141.378
0.853967	140.874
0.882873	140.374
0.901264	139.869
0.924913	139.366
0.951199	139.379
