Adsorption isotherm of Methane on ROD-8a
DOI: 10.1039/C4ce00279b
Adsorbate Methane: InChIKey VNWKTOKETHGBQD-UHFFFAOYSA-N
Temperature: 303 K
Tabular data in the source: 0
pressure (bar)	uptake (cm3(STP)/g)
0.044289	1.4626
0.0675991	1.83047
0.0909091	2.19835
0.123543	3.11337
0.153846	3.66434
0.179487	4.03263
0.207459	4.58317
0.2331	5.13329
0.263403	5.86607
0.289044	6.23437
0.319347	6.60352
0.347319	6.97224
0.375291	7.7046
0.403263	8.07332
0.433566	8.62428
0.454545	8.99174
0.515152	9.91185
0.543124	10.2806
0.571096	10.4675
0.599068	11.018
0.62704	11.5686
0.657343	12.1195
0.710956	12.8565
0.738928	12.8616
0.769231	13.7762
0.79021	13.78
0.822844	14.3314
0.848485	14.5179
0.874126	14.8862
0.909091	15.2562
0.958042	15.8106
0.974359	15.9953
