Adsorption isotherm of Nitrogen on ROD-8a
DOI: 10.1039/C4ce00279b
Adsorbate Nitrogen: InChIKey IJGRMHOSHXDMSA-UHFFFAOYSA-N
Temperature: 298 K
Tabular data in the source: 0
pressure (bar)	uptake (cm3(STP)/g)
0.0839161	0.74253
0.11655	0.566645
0.156177	0.57385
0.179487	0.759907
0.216783	0.948506
0.247086	1.13583
0.282051	1.14219
0.319347	1.14897
0.351981	1.51854
0.391608	1.70757
0.428904	1.71435
0.468531	1.90337
0.487179	2.08858
0.529138	1.91439
0.592075	2.28947
0.631702	2.47849
0.666667	2.66667
0.69697	2.67218
0.738928	3.04344
0.776224	3.23204
0.804196	3.23713
0.83683	3.24306
0.869464	3.24899
0.897436	3.25408
0.918415	3.43971
1.01399	3.82072
