Adsorption isotherm of Carbon Dioxide on ROD-8a
DOI: 10.1039/C4ce00279b
Adsorbate Carbon Dioxide: InChIKey CURLTUGMZLYLDI-UHFFFAOYSA-N
Temperature: 273 K
Tabular data in the source: 0
pressure (bar)	uptake (cm3(STP)/g)
0.109557	11.1646
0.130536	12.9959
0.153846	14.6458
0.177156	16.6604
0.202797	18.1287
0.219114	19.5936
0.244755	21.2443
0.270396	22.7126
0.289044	23.8136
0.314685	25.0996
0.337995	26.567
0.358974	27.6689
0.379953	28.7708
0.405594	29.8744
0.426573	30.7939
0.447552	31.8958
0.470862	32.9985
0.494172	33.9188
0.517483	34.8392
0.538462	35.5763
0.561772	36.3143
0.582751	37.0515
0.606061	37.9718
0.62704	38.709
0.655012	39.2663
0.671329	39.8193
0.694639	40.5573
0.72028	41.2962
0.741259	41.8509
0.764569	42.4065
0.787879	42.9621
0.808858	43.6993
0.832168	44.0725
0.850816	44.4441
0.876457	45.0005
0.902098	45.557
0.925408	45.9302
0.951049	46.4867
0.986014	47.0466
