Adsorption isotherm of Carbon Dioxide on ROD-8a
DOI: 10.1039/C4ce00279b
Adsorbate Carbon Dioxide: InChIKey CURLTUGMZLYLDI-UHFFFAOYSA-N
Temperature: 298 K
Tabular data in the source: 0
pressure (bar)	uptake (cm3(STP)/g)
0.111888	9.83853
0.132867	11.2969
0.153846	12.2098
0.179487	13.4872
0.198135	14.7633
0.221445	15.8584
0.247086	17.1358
0.265734	18.0483
0.289044	19.3253
0.314685	20.4209
0.335664	21.5156
0.358974	22.7925
0.382284	23.7059
0.403263	24.437
0.426573	25.1685
0.447552	26.0814
0.470862	27.1765
0.494172	27.908
0.517483	28.8214
0.540793	29.5529
0.561772	30.284
0.582751	30.8332
0.608392	31.9288
0.631702	32.4785
0.652681	33.0278
0.675991	33.9411
0.701632	34.3094
0.72028	34.8582
0.745921	35.5902
0.7669	36.1394
0.79021	36.5073
0.811189	37.2384
0.834499	37.6063
0.855478	38.1555
0.878788	38.5234
0.904429	39.2554
0.923077	39.4406
0.951049	39.8093
0.974359	39.9953
1	40.3636
