Adsorption isotherm of Carbon Dioxide on ROD-8a
DOI: 10.1039/C4ce00279b
Adsorbate Carbon Dioxide: InChIKey CURLTUGMZLYLDI-UHFFFAOYSA-N
Temperature: 273 K
Tabular data in the source: 0
pressure (bar)	uptake (cm3(STP)/g)
0.016317	2.1944
0.030303	3.4761
0.0582751	5.49238
0.0745921	7.13967
0.102564	9.52069
0.123543	11.1697
0.146853	12.8195
0.172494	14.6526
0.193473	16.3016
0.216783	17.769
0.242424	19.2374
0.265734	20.5225
0.286713	21.8067
0.307692	23.4557
0.335664	24.7425
0.351981	25.6603
0.375291	27.1278
0.39627	28.412
0.424242	29.1517
0.445221	30.2536
0.4662	30.9907
0.487179	31.9102
0.512821	33.0138
0.536131	34.2989
0.559441	34.8545
0.582751	35.7749
0.601399	36.6935
0.624709	37.2491
0.65035	38.1703
0.671329	38.9075
0.694639	39.6455
0.715618	40.2002
0.738928	40.9382
0.759907	41.493
0.787879	42.415
0.808858	42.9698
0.832168	43.343
0.853147	44.2625
0.878788	44.819
