Adsorption isotherm of Carbon Dioxide on ROD-8a
DOI: 10.1039/C4ce00279b
Adsorbate Carbon Dioxide: InChIKey CURLTUGMZLYLDI-UHFFFAOYSA-N
Temperature: 303 K
Tabular data in the source: 0
pressure (bar)	uptake (cm3(STP)/g)
0.109557	9.47446
0.130536	10.5692
0.153846	11.6643
0.177156	12.7595
0.200466	14.0364
0.221445	14.9494
0.244755	16.0445
0.268065	17.1396
0.291375	18.2348
0.312354	19.1477
0.335664	19.8792
0.361305	21.1566
0.384615	21.8881
0.407925	22.8014
0.426573	24.0776
0.449883	24.9909
0.4662	25.5393
0.494172	26.2717
0.515152	27.0028
0.5338	27.7334
0.55711	28.8286
0.582751	29.3787
0.60373	30.1098
0.62704	30.8413
0.65035	31.391
0.67366	32.1225
0.699301	33.2181
0.724942	33.7682
0.741259	34.1348
0.764569	34.8663
0.785548	35.5974
0.808858	36.1471
0.827506	36.5141
0.857809	37.2469
0.897436	38.345
0.923077	38.8951
0.944056	39.2626
0.988345	39.9979
