Adsorption isotherm of Methane on ROD-8a
DOI: 10.1039/C4ce00279b
Adsorbate Methane: InChIKey VNWKTOKETHGBQD-UHFFFAOYSA-N
Temperature: 298 K
Tabular data in the source: 0
pressure (bar)	uptake (cm3(STP)/g)
0.335664	7.33376
0.407925	9.16508
0.449883	9.71816
0.484848	10.4518
0.526807	11.0049
0.564103	11.7389
0.599068	12.1089
0.643357	12.6624
0.678322	13.3961
0.72028	14.131
0.755245	14.501
0.794872	14.8718
0.83683	15.6067
0.853147	15.9733
0.892774	16.526
0.932401	17.0786
0.993007	17.9987
