Adsorption isotherm of Carbon Dioxide on ROD-8a
DOI: 10.1039/C4ce00279b
Adsorbate Carbon Dioxide: InChIKey CURLTUGMZLYLDI-UHFFFAOYSA-N
Temperature: 303 K
Tabular data in the source: 0
pressure (bar)	uptake (cm3(STP)/g)
0.027972	2.55054
0.0606061	4.01102
0.0815851	5.28756
0.102564	6.5641
0.125874	7.65925
0.149184	8.93622
0.172494	10.2132
0.193473	11.3079
0.214452	12.4026
0.237762	13.316
0.263403	14.4115
0.284382	15.5063
0.307692	16.6014
0.333333	17.5152
0.354312	18.6099
0.377622	19.705
0.398601	20.6179
0.424242	21.5317
0.447552	22.445
0.468531	23.1761
0.491841	24.2712
0.512821	25.0023
0.538462	26.2797
0.55711	27.0104
0.58042	27.7419
0.606061	28.8375
0.62704	29.5686
0.65035	30.1182
0.671329	31.0312
0.69697	31.7631
0.717949	32.4942
0.738928	33.2253
0.762238	33.9568
0.79021	34.8709
0.811189	35.4202
0.829837	35.9691
0.853147	36.7006
0.876457	37.2503
