Adsorption isotherm of Nitrogen on ROD-8a
DOI: 10.1039/C4ce00279b
Adsorbate Nitrogen: InChIKey IJGRMHOSHXDMSA-UHFFFAOYSA-N
Temperature: 273 K
Tabular data in the source: 0
pressure (bar)	uptake (cm3(STP)/g)
0.153846	1.48252
0.289044	2.23437
0.354312	2.60987
0.424242	2.80441
0.496503	2.99936
0.566434	3.01208
0.629371	3.56898
0.708625	3.7652
0.762238	3.77495
0.848485	4.15427
1.00466	4.5463
