Adsorption isotherm of Nitrogen on ROD-8a
DOI: 10.1039/C4ce00279b
Adsorbate Nitrogen: InChIKey IJGRMHOSHXDMSA-UHFFFAOYSA-N
Temperature: 298 K
Tabular data in the source: 0
pressure (bar)	uptake (cm3(STP)/g)
0.016317	0.730239
0.04662	0.917567
0.0769231	1.1049
0.109557	1.11083
0.142191	1.11676
0.172494	1.30409
0.198135	1.49057
0.226107	1.49566
0.251748	1.50032
0.284382	1.86989
0.312354	1.69316
0.337995	1.87964
0.368298	1.88515
0.398601	2.07247
0.449883	2.0818
0.477855	2.08688
0.505828	2.27379
0.564103	2.4662
0.613054	2.65692
0.648019	2.48146
0.671329	2.66751
0.724942	2.85908
0.762238	2.86586
0.780886	3.05107
0.81352	3.057
0.841492	3.24391
0.871795	3.43124
0.897436	3.25408
0.923077	3.44056
0.95338	3.62789
0.983683	3.6334
