Adsorption isotherm of Nitrogen on ROD-8a
DOI: 10.1039/C4ce00279b
Adsorbate Nitrogen: InChIKey IJGRMHOSHXDMSA-UHFFFAOYSA-N
Temperature: 273 K
Tabular data in the source: 0
pressure (bar)	uptake (cm3(STP)/g)
0.216783	1.49396
0.289044	1.87074
0.389277	2.43441
0.44289	2.44416
0.505828	2.81924
0.559441	3.01081
0.615385	3.2028
0.668998	3.39436
0.724942	3.76817
0.783217	3.77877
0.83683	3.97033
0.892774	3.9805
0.948718	4.35431
