Adsorption isotherm of Methane on ROD-8a
DOI: 10.1039/C4ce00279b
Adsorbate Methane: InChIKey VNWKTOKETHGBQD-UHFFFAOYSA-N
Temperature: 273 K
Tabular data in the source: 0
pressure (bar)	uptake (cm3(STP)/g)
0.102564	5.10956
0.135198	6.57004
0.177156	8.21403
0.219114	9.49438
0.251748	10.9549
0.293706	12.0534
0.333333	13.3333
0.370629	14.6128
0.410256	15.711
0.445221	16.8082
0.484848	17.9063
0.526807	19.0049
0.561772	20.1021
0.60373	21.0189
0.641026	21.9347
0.680653	22.851
0.72028	23.5855
0.757576	24.6832
0.797203	25.2359
0.834499	26.1517
0.855478	26.5192
0.892774	27.2532
0.937063	27.8067
0.986014	28.7247
