Adsorption isotherm of Carbon Dioxide on ROD-8a
DOI: 10.1039/C4ce00279b
Adsorbate Carbon Dioxide: InChIKey CURLTUGMZLYLDI-UHFFFAOYSA-N
Temperature: 298 K
Tabular data in the source: 0
pressure (bar)	uptake (cm3(STP)/g)
0.041958	2.93324
0.0582751	4.21578
0.0792541	5.6824
0.0932401	6.23462
0.100233	6.60191
0.123543	8.43412
0.146853	9.71922
0.172494	10.8228
0.195804	12.1079
0.219114	13.393
0.235431	14.8579
0.261072	15.7791
0.284382	16.8818
0.310023	17.9854
0.331002	19.0873
0.354312	20.0077
0.377622	21.1104
0.400932	22.2131
0.421911	22.7679
0.44289	24.0521
0.4662	24.9725
0.48951	25.8928
0.508159	26.6291
0.536131	27.3688
0.559441	28.4715
0.58042	29.2087
0.60373	29.9466
0.62704	30.6846
0.65035	31.2402
0.67366	31.9782
0.694639	32.7154
0.717949	33.4534
0.741259	34.009
0.762238	34.7461
0.785548	35.4841
0.811189	35.8582
0.829837	36.4121
0.857809	37.3342
0.876457	37.7057
0.90676	38.2639
0.93007	39.0018
0.955711	39.3759
0.972028	39.7466
0.983683	39.9333
