Adsorption isotherm of Nitrogen on ROD-8a
DOI: 10.1039/C4ce00279b
Adsorbate Nitrogen: InChIKey IJGRMHOSHXDMSA-UHFFFAOYSA-N
Temperature: 77 K
Tabular data in the source: 0
pressure (bar)	uptake (cm3(STP)/g)
-0.00100694	94.6618
-0.000959365	97.7487
-0.000919722	100.321
0.000237859	15.4342
0.000309217	20.0645
0.000380574	24.6947
0.00046779	30.3539
0.000539148	34.9842
0.000594648	38.5855
0.000848364	55.0487
0.000919722	59.6789
0.000999004	64.8237
0.00122101	79.2289
0.00129236	83.8592
0.00134787	87.4605
0.00137959	89.5184
0.00141923	92.0908
0.00159365	103.409
0.00262438	10.2908
0.00314767	44.246
0.00322695	49.3908
0.00357582	72.0276
0.00363925	76.1434
0.00599405	68.9421
0.016444	107.018
0.0411814	112.176
0.0732765	114.765
0.0954925	116.321
0.122632	117.364
0.147314	118.92
0.169522	119.961
0.20161	122.036
0.228757	123.594
0.253431	124.636
0.280571	125.679
0.30771	126.722
0.342264	128.799
0.369395	129.327
0.38913	129.852
0.418744	131.411
0.440952	132.452
0.477963	134.015
0.502636	135.057
0.554449	137.142
0.584055	138.187
0.606256	138.713
0.643274	140.791
0.714846	144.944
0.749367	144.963
0.776516	146.521
0.808586	147.566
0.857943	150.165
0.90484	153.277
0.939402	155.867
