Adsorption isotherm of Argon on CuBTC
DOI: 10.1021/Nl0341281
Adsorbate Argon: InChIKey XKRFYHLGVUSROY-UHFFFAOYSA-N
Temperature: 87 K
Tabular data in the source: 0
pressure (bar)	uptake (cm3(STP)/g)
1.16e-06	11.2525
1.62e-06	13.4386
2.04e-06	14.9587
3.34e-06	20.21
4.78e-06	25.323
6.48e-06	29.4687
8.63e-06	34.3054
1.03e-05	36.1019
1.47e-05	41.0767
2.03e-05	46.1898
2.87e-05	50.4737
4.05e-05	51.8556
8.53e-05	55.5867
0.000123	57.936
0.000187	60.0088
0.00025	63.4636
0.000414	67.0566
0.000587	71.4787
0.000697	77.9736
0.000792	85.2977
0.000989	97.8731
0.00123588	112.659
0.00140363	125.373
0.00172066	136.566
0.00201739	148.036
0.00270349	163.79
0.00339956	177.056
0.00441305	189.77
0.00572869	199.581
0.00877466	209.807
0.0128546	219.895
0.0184755	225.838
0.0275878	235.649
0.0391495	243.941
0.0508209	251.403
0.0643137	262.182
0.0850964	274.481
0.0966468	282.772
0.12153	292.445
0.144314	300.184
0.184968	310.825
0.228193	318.84
0.283316	327.269
0.360825	335.423
0.433957	342.056
0.566927	347.031
0.731273	352.006
0.992527	355.599
