Adsorption isotherm of Argon on CuBTC
DOI: 10.1021/Nl0341281
Adsorbate Argon: InChIKey XKRFYHLGVUSROY-UHFFFAOYSA-N
Temperature: 87 K
Tabular data in the source: 0
pressure (bar)	uptake (cm3(STP)/g)
5.62e-07	1.16505
1.17e-06	1.7797
2.01e-06	3.62367
4.14e-06	9.58432
6.4e-06	14.4106
1.04e-05	22.0212
1.7e-05	29.2605
2.49e-05	35.5717
4.05e-05	42.9967
6.16e-05	49.1223
9.7e-05	55.6192
0.000162	62.3017
0.000232	66.7567
0.000365	76.5947
0.000496	86.9897
0.000545	96.0853
0.000584	105.738
0.000625	116.504
0.000669	127.27
0.000711	138.779
0.000761	148.431
0.000801	157.527
0.000934	161.054
0.00114675	173.491
0.00165618	188.155
0.00206839	198.179
0.00306483	208.945
0.00597009	225.837
0.00892212	236.046
0.0159557	247.184
0.0261964	256.465
0.0426436	263.519
0.0665124	268.902
0.114948	275.77
0.212717	282.823
0.36139	290.62
0.447495	295.817
0.46306	305.841
0.52193	314.194
0.549399	298.045
0.65743	301.757
0.780009	323.29
0.821059	303.428
0.957633	327.745
0.982509	309.182
1.0431	328.116
1.05205	349.463
