Adsorption isotherm of Argon on CuBTC
DOI: 10.1021/Nl0341281
Adsorbate Argon: InChIKey XKRFYHLGVUSROY-UHFFFAOYSA-N
Temperature: 87 K
Tabular data in the source: 0
pressure (bar)	uptake (cm3(STP)/g)
4.41e-06	14.3663
5.29e-06	17.6994
6.9e-06	20.2033
7.84e-06	22.9853
1.03e-05	26.0456
1.29e-05	30.9606
1.77e-05	35.6901
2.25e-05	40.5123
2.82e-05	44.7781
3.97e-05	49.4149
4.88e-05	53.4953
5.91e-05	56.5555
7.74e-05	59.7085
0.000105	62.3051
0.000123	64.0671
0.000181	68.3329
0.000261	73.5261
0.000365	76.5864
0.000538	82.4287
0.000701	89.4766
0.000875	98.8429
0.000978	107.189
0.00101	112.753
0.00107405	126.385
0.00110665	143.727
0.00113537	160.234
0.00120019	167.189
0.0012419	176.926
0.00136423	190.651
0.00142376	203.078
0.00163225	208.363
0.0018633	219.677
0.00224849	224.685
0.00278372	229.043
0.0034908	233.402
0.00435883	238.595
0.00495463	242.676
0.00640168	247.405
0.0080621	253.711
0.00920331	258.719
0.0100668	262.985
0.011249	269.94
0.0133445	279.306
0.0141667	294.422
0.0142274	289.878
0.0164507	297.389
0.0193492	309.909
0.0220881	314.175
0.0255399	319.831
0.0285392	329.29
0.0348829	332.722
0.0642446	346.261
0.0870003	349.507
0.113859	351.825
0.139763	350.249
0.177524	350.898
0.216884	356.791
0.273242	356.9
0.354776	357.118
0.524884	357.99
