Adsorption isotherm of Argon on CuBTC
DOI: 10.1021/Nl0341281
Adsorbate Argon: InChIKey XKRFYHLGVUSROY-UHFFFAOYSA-N
Temperature: 87 K
Tabular data in the source: 0
pressure (bar)	uptake (cm3(STP)/g)
3.78e-08	27.1464
1.47e-07	49.6388
6.01e-07	58.3403
2.36e-06	64.9074
9e-06	72.6237
1.93e-05	73.773
2.76e-05	79.6834
3.7e-05	89.0415
4.72e-05	108.25
5.92e-05	128.444
8.13e-05	162.757
9.97e-05	183.772
0.000136	208.071
0.000141	214.309
0.000203	227.772
0.000245	231.548
0.000319	234.996
0.000404	238.444
0.000563	246.652
0.000567	249.279
0.000739	259.951
0.000834	267.011
0.00097	274.399
0.00109527	286.876
0.00139506	301.16
0.00176354	313.145
0.00211441	324.144
0.00247825	330.055
0.00367189	341.219
0.00508257	347.294
0.00682562	353.861
0.00856345	356.488
0.0122173	359.607
0.0185171	362.89
0.0246801	364.532
0.034421	368.965
0.0541798	373.07
0.0802754	378.487
0.137314	385.711
