Adsorption isotherm of Argon on CuBTC
DOI: 10.1021/Nl0341281
Adsorbate Argon: InChIKey XKRFYHLGVUSROY-UHFFFAOYSA-N
Temperature: 87 K
Tabular data in the source: 0
pressure (bar)	uptake (cm3(STP)/g)
1.49e-07	12.8018
2.75e-07	22.4409
3.75e-07	26.2966
5.97e-07	32.4203
9.01e-07	39.7914
1.4e-06	46.5955
2.36e-06	53.1728
3.56e-06	58.9563
5.55e-06	62.4717
8.83e-06	65.3067
1.2e-05	67.2346
1.54e-05	67.348
1.97e-05	67.348
2.46e-05	69.1624
3.54e-05	73.3583
5.05e-05	81.9768
7.02e-05	91.6159
9.12e-05	96.719
0.000105	105.451
0.000146	119.173
0.000188	140.719
0.000223	151.832
0.000238	159.43
0.000272	170.203
0.000305	183.358
0.000356	197.079
0.000404	210.688
0.000444	217.152
0.000498	224.523
0.00057	232.801
0.000663	240.626
0.000805	243.574
0.00103921	245.275
0.00132831	247.316
0.00163689	248.791
0.00215887	253.894
0.00264654	264.1
0.00296876	270.677
0.00329562	275.553
0.00363939	283.151
0.00412536	291.203
0.00482506	298.12
0.00511036	303.564
0.00573255	308.667
0.00626476	315.584
0.00710129	321.027
0.00879684	332.594
0.0100237	339.625
0.0121603	345.182
0.0144474	349.832
0.0162913	353.234
0.021263	359.244
0.0227567	361.625
0.0341991	367.182
0.0495502	371.945
0.0703079	376.367
0.0997613	381.017
0.137905	383.739
