Adsorption isotherm of Benzene on C23H27Cu2N2O11.5 Desolvated
DOI: 10.1021/Cg070144q
Adsorbate Benzene: InChIKey UHOVQNZJYSORNB-UHFFFAOYSA-N
Temperature: 298 K
Tabular data in the source: 0
pressure (bar)	uptake (mmol/g)
0.000364381	0.00834851
0.00145453	0.0417547
0.00364082	0.0918458
0.00728763	0.16697
0.0112958	0.258804
0.0131222	0.288005
0.0145753	0.33394
0.0186014	0.37561
0.0222603	0.417291
0.0259221	0.450612
0.0299498	0.488101
0.0332442	0.521434
0.0372704	0.563104
0.0442371	0.600495
0.0526704	0.646199
0.058538	0.675266
0.0662409	0.708453
0.0746772	0.745796
0.0801759	0.779056
0.0864124	0.803931
0.09228	0.832998
0.0977847	0.849537
0.105123	0.874375
0.112465	0.890853
