Adsorption isotherm of Nitrogen on C23H27Cu2N2O11.5 Desolvated
DOI: 10.1021/Cg070144q
Adsorbate Nitrogen: InChIKey IJGRMHOSHXDMSA-UHFFFAOYSA-N
Temperature: 77 K
Tabular data in the source: 0
pressure (bar)	uptake (cm3(STP)/g)
0.00606737	0.409836
0.0151684	0.819672
0.0364042	11.4754
0.0637073	31.9672
0.0910105	52.0492
0.106179	68.4426
0.118314	82.377
0.160785	89.3443
0.185055	89.7541
0.233594	90.5738
0.257863	90.9836
0.342806	91.8033
0.409547	93.0328
0.488423	93.0328
0.558198	93.4426
0.637073	94.2623
0.712915	94.2623
0.776623	94.2623
0.834263	94.6721
0.870667	95.082
0.916172	95.082
0.952576	95.4918
0.976846	95.9016
0.995048	96.3115
1.01022	97.1311
