Adsorption isotherm of Methanol on C23H27Cu2N2O11.5 Desolvated
DOI: 10.1021/Cg070144q
Adsorbate Methanol: InChIKey OKKJLVBELUTLKV-UHFFFAOYSA-N
Temperature: 298 K
Tabular data in the source: 0
pressure (bar)	uptake (mmol/g)
0.000492661	0.824392
0.00147798	1.31903
0.00443395	1.88433
0.00985322	2.37896
0.0147798	2.73227
0.0192138	3.01492
0.0295596	3.50956
0.0399055	3.7922
0.0497587	4.00419
0.0591193	4.16907
0.0699578	4.40461
0.0852303	4.6166
0.100503	4.87569
0.115775	4.99346
0.130555	5.229
0.139916	5.25256
0.152232	5.34677
