Adsorption isotherm of Carbon Dioxide on ZIF-8
DOI: 10.1039/C3cc39287b
Adsorbate Carbon Dioxide: InChIKey CURLTUGMZLYLDI-UHFFFAOYSA-N
Temperature: 273 K
Tabular data in the source: 0
pressure (bar)	uptake (cm3(STP)/g)
0.008106	6.52432
0.0344505	7.48854
0.056742	8.45199
0.0830865	9.41621
0.107405	10.38
0.131722	11.3439
0.156041	12.1159
0.178332	13.2712
0.200623	14.0428
0.222915	15.3899
0.24318	16.353
0.271551	17.1258
0.293842	18.0892
0.318161	18.8612
0.342479	20.0169
0.366796	20.7889
0.391115	21.7527
0.415433	22.5247
0.437724	23.4882
0.460016	24.2598
0.484333	25.2236
0.506625	25.9952
0.532969	26.9594
0.553235	27.5388
0.579579	28.503
0.60187	29.2746
0.628215	30.047
0.650506	30.8186
0.674824	31.5906
0.697116	32.3622
0.719407	33.1338
0.741699	33.9054
0.766017	34.4856
0.790335	35.4494
0.814653	36.0295
0.836945	36.6093
0.859236	37.5728
0.881527	38.1525
0.915978	39.1183
1.00109	41.0529
