Adsorption isotherm of Nitrogen on STU-1
DOI: 10.1039/C3cc39287b
Adsorbate Nitrogen: InChIKey IJGRMHOSHXDMSA-UHFFFAOYSA-N
Temperature: 273 K
Tabular data in the source: 0
pressure (bar)	uptake (cm3(STP)/g)
0.012159	4.79847
0.0222915	4.80038
0.0466095	4.99683
0.0709275	5.00144
0.103352	5.00758
0.133749	5.01333
0.16212	5.01871
0.190491	5.02408
0.220888	5.22168
0.24926	5.22705
0.277631	5.23242
0.308028	5.23818
0.338425	5.43578
0.366796	5.44115
0.397194	5.25506
0.419486	5.64297
0.45191	5.45727
0.482307	5.46302
0.510678	5.46839
0.539049	5.66561
0.569447	5.67137
0.595791	5.67635
0.626189	5.68211
0.654559	5.68748
0.680904	5.69247
0.713328	5.69861
0.741699	5.89583
0.766017	6.09228
0.800467	5.90695
0.822759	5.71933
0.85721	5.9177
0.883554	5.92269
0.915978	6.12067
0.942322	6.12566
0.974747	5.93995
1.00312	6.13717
