Adsorption isotherm of Nitrogen on STU-5
DOI: 10.1039/C3cc39287b
Adsorbate Nitrogen: InChIKey IJGRMHOSHXDMSA-UHFFFAOYSA-N
Temperature: 77 K
Tabular data in the source: 0
pressure (bar)	uptake (cm3(STP)/g)
-0.00250925	5.84038
-0.000878239	43.8298
0.000439119	10.2279
0.000627313	14.6113
0.000752775	17.5336
0.00094097	21.917
0.00112917	26.3004
0.00169375	39.4506
0.00213287	49.6785
0.00232106	54.0619
0.00250925	58.4453
0.00276018	64.2899
0.00294837	68.6733
0.00313656	137.342
0.00351296	81.8235
0.00382661	153.415
0.00401481	157.798
0.00407754	94.9737
0.004203	162.182
0.00426573	99.3571
0.00451665	105.202
0.00470485	109.585
0.00495577	115.43
0.00514397	119.813
0.00533216	124.196
0.00564582	131.502
0.00602221	75.9831
0.0062104	144.652
0.0063986	149.036
0.0072141	168.03
0.00746502	173.875
0.00759049	241.083
0.00765322	178.258
0.00777869	181.181
0.00784142	246.927
0.00796688	185.564
0.00809234	188.486
0.00828054	192.87
0.008406	195.792
0.00853146	198.714
0.00871965	203.098
0.00897058	208.942
0.00903331	274.689
0.00928423	216.248
0.0094097	283.456
0.00947243	220.631
0.00959789	223.553
0.00972336	290.761
0.00978612	227.937
0.00991154	230.859
0.010037	233.781
0.0100997	299.528
0.0108526	252.776
0.0113543	264.465
0.0116053	270.31
0.0131109	305.377
0.0133618	311.221
0.0137382	319.988
0.0139264	324.372
0.0141773	330.216
0.0172511	337.526
0.017502	343.37
0.017753	349.215
0.0181293	357.982
0.0211405	363.83
0.0269744	371.144
0.0526943	391.638
0.0778496	398.981
0.116806	406.344
0.141773	409.304
0.17226	412.272
0.197164	413.771
0.222131	416.73
0.302365	421.234
0.327269	422.732
0.357694	424.239
0.435042	425.817
0.465467	427.323
0.490371	428.822
0.573239	430.408
0.59808	430.445
0.628442	430.491
0.656107	431.993
0.705853	433.529
0.733455	433.571
0.763879	435.077
0.791544	436.58
0.874412	438.166
0.926919	439.706
