Adsorption isotherm of Nitrogen on STU-1
DOI: 10.1039/C3cc39287b
Adsorbate Nitrogen: InChIKey IJGRMHOSHXDMSA-UHFFFAOYSA-N
Temperature: 77 K
Tabular data in the source: 0
pressure (bar)	uptake (cm3(STP)/g)
0.0210489	233.125
0.0213635	240.455
0.0325938	244.887
0.0492189	246.403
0.0521051	249.343
0.0632725	252.308
0.0743768	253.807
0.0826579	253.832
0.0937623	255.332
0.124378	261.287
0.19916	267.376
0.235107	268.95
0.354054	275.173
0.37344	276.697
0.392762	276.755
0.409387	278.271
0.594583	284.693
0.616792	287.692
0.630656	289.199
0.785362	292.598
0.807445	292.665
0.826831	294.189
0.846278	297.179
0.868487	300.178
0.887873	301.702
0.904687	307.616
0.932983	323.825
