Adsorption isotherm of Nitrogen on STU-5
DOI: 10.1039/C3cc39287b
Adsorbate Nitrogen: InChIKey IJGRMHOSHXDMSA-UHFFFAOYSA-N
Temperature: 273 K
Tabular data in the source: 0
pressure (bar)	uptake (cm3(STP)/g)
0.032424	5.37784
0.0749805	5.57775
0.0992985	5.7742
0.137802	6.16518
0.210756	6.37084
0.261418	6.57228
0.32424	7.15971
0.378956	7.55376
0.43975	7.75712
0.494466	8.15118
0.555261	8.16269
0.609976	8.55674
0.668745	8.95156
0.731566	8.96345
0.788309	9.35789
0.845051	9.56048
0.89774	9.7623
0.960561	10.1579
1.0173	10.3605
