Adsorption isotherm of Nitrogen on ZIF-8
DOI: 10.1039/C3cc39287b
Adsorbate Nitrogen: InChIKey IJGRMHOSHXDMSA-UHFFFAOYSA-N
Temperature: 273 K
Tabular data in the source: 0
pressure (bar)	uptake (cm3(STP)/g)
0.0992985	5.3905
0.133749	5.20518
0.20873	5.79492
0.259392	5.61266
0.279657	5.80835
0.301948	5.42887
0.332346	5.43463
0.391115	5.6376
0.425565	6.02782
0.45191	6.03281
0.482307	6.03856
0.510678	6.23578
0.541076	6.24153
0.571473	6.43914
0.593764	6.25151
0.626189	6.4495
0.654559	6.26302
0.682931	6.26839
0.711302	6.46561
0.741699	6.66321
0.77007	6.66859
0.798441	6.67396
0.828839	6.87156
0.85721	6.87693
0.88558	6.8823
0.913952	6.69583
0.944349	6.89343
0.970694	7.09026
1.00514	7.09679
