Adsorption isotherm of Carbon Dioxide on STU-5
DOI: 10.1039/C3cc39287b
Adsorbate Carbon Dioxide: InChIKey CURLTUGMZLYLDI-UHFFFAOYSA-N
Temperature: 273 K
Tabular data in the source: 0
pressure (bar)	uptake (cm3(STP)/g)
0.036477	8.83185
0.0587685	10.179
0.0830865	11.3347
0.107405	12.8741
0.129696	14.6049
0.156041	15.9528
0.178332	17.6836
0.200623	18.8389
0.224942	20.3783
0.247233	21.7255
0.273578	23.2652
0.297895	24.6128
0.320187	25.9599
0.342479	27.1152
0.368823	28.655
0.391115	29.8103
0.415433	31.1578
0.43975	32.6972
0.462042	33.8525
0.48636	35.3918
0.510678	36.7394
0.530943	38.0861
0.555261	39.6255
0.579579	40.973
0.60187	42.512
0.626189	43.8596
0.650506	45.0153
0.672798	46.5542
0.697116	47.9018
0.721434	49.2493
0.745752	50.5968
0.768044	52.1358
0.790335	53.2911
0.814653	55.0224
0.836945	56.5613
0.863289	57.5256
0.887607	59.0649
0.909899	60.4121
1.00717	66.1859
