Adsorption isotherm of Carbon Dioxide on NJU-BAi7
DOI: 10.1021/Ja309992a
Adsorbate Carbon Dioxide: InChIKey CURLTUGMZLYLDI-UHFFFAOYSA-N
Temperature: 298 K
Tabular data in the source: 0
pressure (bar)	uptake (wt%)
0.0147669	1.0737
0.0181992	1.57425
0.0302124	2.33509
0.0576712	4.35731
0.0782652	5.49857
0.133183	7.4407
0.184668	8.622
0.237869	9.50297
0.289354	10.1837
0.34084	10.6242
0.424932	11.2249
0.510741	11.6653
0.603414	11.9657
0.690939	12.226
0.76645	12.4062
0.84711	12.5463
0.922622	12.6664
0.977539	12.7866
1.05477	12.8867
