Adsorption isotherm of Carbon Dioxide on NJU-BAi8
DOI: 10.1021/Ja309992a
Adsorbate Carbon Dioxide: InChIKey CURLTUGMZLYLDI-UHFFFAOYSA-N
Temperature: 298 K
Tabular data in the source: 0
pressure (bar)	uptake (wt%)
0.0130507	0.473044
0.0302124	1.2539
0.0576712	2.4352
0.10744	4.13707
0.160641	5.4385
0.218991	6.49967
0.267044	7.24048
0.321962	7.98129
0.397473	8.70209
0.476417	9.2627
0.553645	9.72321
0.634305	10.1036
0.716681	10.3639
0.799057	10.6843
0.874569	10.9245
0.951797	11.1047
1.05648	11.2849
