Adsorption isotherm of Carbon Dioxide on SYSU
DOI: 10.1021/Ja309992a
Adsorbate Carbon Dioxide: InChIKey CURLTUGMZLYLDI-UHFFFAOYSA-N
Temperature: 298 K
Tabular data in the source: 0
pressure (bar)	uptake (wt%)
0.0113346	0.372934
0.0284963	0.713308
0.0490903	1.29395
0.0799814	1.97469
0.136615	3.15599
0.215559	4.65764
0.289354	6.03916
0.370014	7.30055
0.450675	8.42178
0.557077	9.68316
0.632589	10.444
0.714965	11.1848
0.817935	12.0458
0.926054	12.8667
0.979255	13.2271
1.05305	13.6675
