Adsorption isotherm of Methane on IRMOF-1
DOI: 10.1021/La102831e
Adsorbate Methane: InChIKey VNWKTOKETHGBQD-UHFFFAOYSA-N
Temperature: 230 K
Tabular data in the source: 0
pressure (bar)	uptake (molecules/unitcell)
30.1852	65.4272
36.0784	76.2423
41.0986	85.7597
45.0275	92.8976
48.0832	97.2237
51.5755	101.55
57.9053	105.443
64.4534	107.606
67.7274	109.12
73.839	110.202
79.7322	110.851
87.8082	111.5
