Adsorption isotherm of Methane on IRMOF-1
DOI: 10.1021/La102831e
Adsorbate Methane: InChIKey VNWKTOKETHGBQD-UHFFFAOYSA-N
Temperature: 300 K
Tabular data in the source: 0
pressure (bar)	uptake (molecules/unitcell)
1.27495	1.51686
4.55226	11.3488
10.6699	27.8664
20.9388	51.8564
30.7707	69.5538
41.0397	83.7118
50.8716	93.1505
60.7035	100.623
80.5859	111.635
91.0733	115.174
