Adsorption isotherm of Methane on IRMOF-1
DOI: 10.1021/La102831e
Adsorbate Methane: InChIKey VNWKTOKETHGBQD-UHFFFAOYSA-N
Temperature: 230 K
Tabular data in the source: 0
pressure (bar)	uptake (molecules/unitcell)
21.4544	43.5807
29.0938	56.9914
33.4592	64.3457
40.2255	77.3239
45.464	86.8412
52.8851	97.0074
57.4688	101.982
64.2351	105.443
69.037	107.606
