Adsorption isotherm of Methane on IRMOF-0h
DOI: 10.1021/La102831e
Adsorbate Methane: InChIKey VNWKTOKETHGBQD-UHFFFAOYSA-N
Temperature: 150 K
Tabular data in the source: 0
pressure (bar)	uptake (molecules/unitcell)
0.0213064	1.94764
0.0468695	6.92915
0.0940627	14.0081
0.200248	24.2334
0.298567	32.3611
0.396886	37.9981
0.499138	41.7997
0.603357	44.1594
0.803928	47.1745
