Adsorption isotherm of Methane on IRMOF-16
DOI: 10.1021/La102831e
Adsorbate Methane: InChIKey VNWKTOKETHGBQD-UHFFFAOYSA-N
Temperature: 125 K
Tabular data in the source: 0
pressure (bar)	uptake (molecules/unitcell)
0.044803	59.9275
0.123458	141.205
0.195559	219.86
0.300433	311.625
0.503627	455.827
0.549509	518.751
0.746148	1053.61
0.955895	1077.2
1.51304	1113.91
