Adsorption isotherm of Methane on IRMOF-1
DOI: 10.1021/La102831e
Adsorbate Methane: InChIKey VNWKTOKETHGBQD-UHFFFAOYSA-N
Temperature: 150 K
Tabular data in the source: 0
pressure (bar)	uptake (molecules/unitcell)
0.00633875	1.91014
0.0587757	13.7085
0.0994144	28.2597
0.140053	52.2496
0.17807	93.1505
0.20691	115.174
0.239683	126.579
0.2777	135.231
0.349801	145.85
0.445498	152.535
0.627717	163.154
