Adsorption isotherm of Methane on IRMOF-10
DOI: 10.1021/La102831e
Adsorbate Methane: InChIKey VNWKTOKETHGBQD-UHFFFAOYSA-N
Temperature: 350 K
Tabular data in the source: 0
pressure (bar)	uptake (molecules/unitcell)
2.31649	9.67569
11.2308	26.0622
20.4072	45.7261
32.2056	69.7597
39.5467	87.2387
50.5585	104.718
59.9972	118.919
80.1854	151.692
95.3921	165.894
110.337	174.634
