Adsorption isotherm of Methane on IRMOF-16
DOI: 10.1021/La102831e
Adsorbate Methane: InChIKey VNWKTOKETHGBQD-UHFFFAOYSA-N
Temperature: 240 K
Tabular data in the source: 0
pressure (bar)	uptake (molecules/unitcell)
1.54433	17.1665
5.04012	67.4186
8.71071	106.746
12.5561	152.629
20.4216	235.654
30.3847	362.377
40.5225	449.772
50.3107	517.503
60.4485	574.309
70.4116	618.007
