Adsorption isotherm of Methane on IRMOF-16
DOI: 10.1021/La102831e
Adsorbate Methane: InChIKey VNWKTOKETHGBQD-UHFFFAOYSA-N
Temperature: 200 K
Tabular data in the source: 0
pressure (bar)	uptake (molecules/unitcell)
0.584519	20.8498
1.43662	42.6985
2.51813	75.9086
4.51729	135.337
7.00805	203.505
8.54838	249.825
11.0719	319.741
13.0383	377.421
