Adsorption isotherm of Methane on IRMOF-10
DOI: 10.1021/La102831e
Adsorbate Methane: InChIKey VNWKTOKETHGBQD-UHFFFAOYSA-N
Temperature: 150 K
Tabular data in the source: 0
pressure (bar)	uptake (molecules/unitcell)
0.0211292	11.8606
0.235247	49.0034
0.383818	89.4236
0.597936	151.692
0.790205	218.331
0.886339	254.382
0.982474	288.247
1.19659	345.054
1.49373	400.768
2.00499	439.003
