Adsorption isotherm of Methane on IRMOF-16
DOI: 10.1021/La102831e
Adsorbate Methane: InChIKey VNWKTOKETHGBQD-UHFFFAOYSA-N
Temperature: 200 K
Tabular data in the source: 0
pressure (bar)	uptake (molecules/unitcell)
1.40385	17.354
2.55091	33.0851
4.97612	60.1775
6.51645	81.1523
8.58116	107.371
10.0559	124.85
12.5467	152.816
14.9391	180.783
