Adsorption isotherm of Methane on IRMOF-1
DOI: 10.1021/La102831e
Adsorbate Methane: InChIKey VNWKTOKETHGBQD-UHFFFAOYSA-N
Temperature: 230 K
Tabular data in the source: 0
pressure (bar)	uptake (molecules/unitcell)
8.35828	31.9003
15.3429	43.3644
26.0381	60.8849
30.1852	68.6718
35.6419	81.4336
41.3169	95.0607
46.9919	104.578
55.2861	108.471
62.0524	110.418
73.4024	112.797
79.7322	113.446
85.1889	114.528
91.9553	114.528
