Adsorption isotherm of Methane on IRMOF-16
DOI: 10.1021/La102831e
Adsorbate Methane: InChIKey VNWKTOKETHGBQD-UHFFFAOYSA-N
Temperature: 200 K
Tabular data in the source: 0
pressure (bar)	uptake (molecules/unitcell)
1.90163	31.0872
4.26129	133.339
7.40751	240.835
13.3067	371.928
15.6663	458.449
18.8125	547.591
24.3184	670.818
31.0041	754.717
41.2294	799.289
50.2747	828.129
59.7134	846.482
