Adsorption isotherm of Methane on IRMOF-1
DOI: 10.1021/La102831e
Adsorbate Methane: InChIKey VNWKTOKETHGBQD-UHFFFAOYSA-N
Temperature: 230 K
Tabular data in the source: 0
pressure (bar)	uptake (molecules/unitcell)
9.01308	29.7373
20.1448	47.9067
33.6775	68.4555
43.2813	83.164
49.1746	91.5998
54.8496	97.44
61.1794	102.199
67.7274	105.443
73.4024	106.957
79.7322	108.255
85.4072	109.337
92.1735	109.553
