Adsorption isotherm of Methane on IRMOF-16
DOI: 10.1021/La102831e
Adsorbate Methane: InChIKey VNWKTOKETHGBQD-UHFFFAOYSA-N
Temperature: 370 K
Tabular data in the source: 0
pressure (bar)	uptake (molecules/unitcell)
10.5537	38.9527
31.0041	96.6334
50.668	159.558
70.7252	211.995
91.1756	261.81
121.458	327.356
150.954	377.171
179.663	421.743
