Adsorption isotherm of Methane on IRMOF-16
DOI: 10.1021/La102831e
Adsorbate Methane: InChIKey VNWKTOKETHGBQD-UHFFFAOYSA-N
Temperature: 220 K
Tabular data in the source: 0
pressure (bar)	uptake (molecules/unitcell)
1.43662	26.0935
2.55091	47.0683
5.04166	91.6397
6.54923	118.732
8.58116	156.312
10.0887	180.783
12.5467	227.976
14.9719	270.799
