Adsorption isotherm of Methane on IRMOF-16
DOI: 10.1021/La102831e
Adsorbate Methane: InChIKey VNWKTOKETHGBQD-UHFFFAOYSA-N
Temperature: 220 K
Tabular data in the source: 0
pressure (bar)	uptake (molecules/unitcell)
2.76786	54.3094
6.61323	117.671
10.109	176.662
15.3527	268.427
20.2468	351.452
30.2099	506.578
40.3477	609.267
50.4855	679.183
60.2737	718.511
70.2368	753.469
