Adsorption isotherm of Methane on IRMOF-16
DOI: 10.1021/La102831e
Adsorbate Methane: InChIKey VNWKTOKETHGBQD-UHFFFAOYSA-N
Temperature: 200 K
Tabular data in the source: 0
pressure (bar)	uptake (molecules/unitcell)
1.54433	47.7547
4.69055	132.965
8.53592	246.578
13.2553	375.486
19.0233	545.906
25.3158	676.998
33.0065	768.763
38.2502	799.351
45.4166	821.2
60.4485	853.973
70.2368	864.898
