Adsorption isotherm of Methane on IRMOF-0h
DOI: 10.1021/La102831e
Adsorbate Methane: InChIKey VNWKTOKETHGBQD-UHFFFAOYSA-N
Temperature: 95 K
Tabular data in the source: 0
pressure (bar)	uptake (molecules/unitcell)
5.61e-05	0.898898
0.000209	9.68209
0.000432	22.6602
0.000607	29.477
0.000803	33.2787
0.00102617	38.3913
0.00121844	46.9123
0.00141508	49.9275
0.00182146	51.3695
0.00200063	51.5006
0.00222348	52.5493
0.00237642	52.8115
