Adsorption isotherm of Methane on IRMOF-16
DOI: 10.1021/La102831e
Adsorbate Methane: InChIKey VNWKTOKETHGBQD-UHFFFAOYSA-N
Temperature: 150 K
Tabular data in the source: 0
pressure (bar)	uptake (molecules/unitcell)
0.116904	20.5998
0.372534	78.2805
0.634719	128.096
0.818248	170.045
1.20497	243.457
1.94564	387.659
2.50279	497.776
2.73875	605.272
2.92228	752.096
3.04027	830.751
3.2959	877.944
3.55153	919.894
