Adsorption isotherm of Methane on IRMOF-1
DOI: 10.1021/La102831e
Adsorbate Methane: InChIKey VNWKTOKETHGBQD-UHFFFAOYSA-N
Temperature: 230 K
Tabular data in the source: 0
pressure (bar)	uptake (molecules/unitcell)
39.789	31.9003
45.464	41.8502
52.2303	55.9099
56.814	64.7783
62.0524	74.7282
66.6361	85.1107
72.3111	95.4933
75.8034	100.468
80.387	103.929
85.8437	106.308
