Adsorption isotherm of Methane on IRMOF-1
DOI: 10.1021/La102831e
Adsorbate Methane: InChIKey VNWKTOKETHGBQD-UHFFFAOYSA-N
Temperature: 230 K
Tabular data in the source: 0
pressure (bar)	uptake (molecules/unitcell)
59.6515	28.6558
69.2553	47.0415
76.2399	62.1827
83.661	76.4586
87.5899	85.5434
90.4274	90.9509
94.7928	96.5748
97.6303	99.1704
102.432	101.55
105.924	103.28
108.544	104.145
