Adsorption isotherm of Methane on Pseudo IRMOF-1
DOI: 10.1038/Nchem.1192
Adsorbate Methane: InChIKey VNWKTOKETHGBQD-UHFFFAOYSA-N
Temperature: 298 K
Tabular data in the source: 0
pressure (bar)	uptake (volume/volume)
0.875	3.26531
2.91667	14.6939
4.95833	25.3061
6.90278	35.102
8.94444	44.0816
10.9861	53.8776
12.8333	62.0408
14.9722	71.0204
16.9167	79.1837
18.9583	85.7143
20.9028	92.2449
22.9444	98.7755
24.9861	104.49
27.0278	110.204
28.9722	114.286
31.0139	120
33.0556	124.082
35	127.347
37.0417	130.612
38.9861	134.694
