Adsorption isotherm of Methane on Pseudo-opt CuBTC
DOI: 10.1038/Nchem.1192
Adsorbate Methane: InChIKey VNWKTOKETHGBQD-UHFFFAOYSA-N
Temperature: 298 K
Tabular data in the source: 0
pressure (bar)	uptake (volume/volume)
0.972222	0.816327
3.01389	18.7755
5.05556	40.8163
7	58.7755
8.94444	73.4694
10.9861	87.3469
13.0278	97.9592
14.9722	110.204
17.0139	118.367
19.0556	127.347
21	133.061
23.0417	138.776
25.0833	144.49
27.0278	153.469
29.0694	156.735
31.1111	160
33.0556	162.449
35	165.714
37.0417	167.347
39.0833	168.163
