Adsorption isotherm of Methane on NOTT-107
DOI: 10.1038/Nchem.1192
Adsorbate Methane: InChIKey VNWKTOKETHGBQD-UHFFFAOYSA-N
Temperature: 298 K
Tabular data in the source: 0
pressure (bar)	uptake (volume/volume)
1.08168	8.96552
2.08609	21.3793
3.01325	33.7931
4.09492	47.5862
5.02208	61.3793
6.33554	72.4138
7.18543	77.931
8.03532	84.8276
9.03974	93.1034
9.88962	102.069
11.0486	106.897
12.2075	110.345
12.9801	114.483
14.1391	120.69
14.9117	125.517
16.0706	128.966
16.9978	133.103
18.0795	136.552
19.0066	140
20.011	142.069
21.0155	146.207
22.4834	148.966
23.7196	151.034
25.1104	153.103
25.883	155.862
26.9647	159.31
28.0464	161.379
29.128	163.448
30.0552	165.517
30.9823	165.517
31.9868	166.207
33.6093	168.966
35.0773	171.034
