Adsorption isotherm of Methane on Pseudo MIL-47
DOI: 10.1038/Nchem.1192
Adsorbate Methane: InChIKey VNWKTOKETHGBQD-UHFFFAOYSA-N
Temperature: 298 K
Tabular data in the source: 0
pressure (bar)	uptake (volume/volume)
1.04978	28.4553
2.96344	69.9187
4.98203	94.3089
6.90748	111.382
9.02944	121.951
10.9588	130.894
12.889	138.211
14.8195	144.715
16.9447	148.78
18.9731	152.846
20.9052	156.098
22.9344	158.537
24.8665	161.789
26.7998	162.602
28.8287	165.854
30.7616	167.48
32.792	167.48
34.8216	169.106
36.7549	169.919
38.7845	171.545
