Adsorption isotherm of Methane on Pseudo-CuBTC
DOI: 10.1038/Nchem.1192
Adsorbate Methane: InChIKey VNWKTOKETHGBQD-UHFFFAOYSA-N
Temperature: 298 K
Tabular data in the source: 0
pressure (bar)	uptake (volume/volume)
0.972222	17.1429
2.91667	39.1837
4.95833	54.6939
7	69.3878
8.94444	82.449
10.9861	93.8776
13.0278	105.306
15.0694	114.286
17.0139	120.816
18.8611	128.163
21	134.694
22.9444	138.776
24.9861	144.49
27.0278	148.571
29.0694	152.653
31.0139	155.918
33.0556	157.551
35	160.816
37.0417	162.449
38.9861	164.898
