Adsorption isotherm of Methane on PCN-14
DOI: 10.1038/Nchem.1192
Adsorbate Methane: InChIKey VNWKTOKETHGBQD-UHFFFAOYSA-N
Temperature: 298 K
Tabular data in the source: 0
pressure (bar)	uptake (volume/volume)
0.972222	33.1984
1.26389	38.0567
1.65278	45.3441
2.04167	52.6316
2.33333	60.7287
3.01389	73.6842
3.59722	80.1619
4.08333	86.6397
5.05556	97.9757
5.34722	101.215
6.02778	106.883
6.70833	112.551
7.09722	115.789
7.38889	117.409
8.16667	122.267
9.33333	128.745
10.1111	132.794
11.1806	136.842
11.9583	139.271
12.8333	143.32
13.2222	143.32
14.0972	146.559
15.1667	149.798
16.0417	152.227
17.2083	153.846
18.0833	156.275
19.25	157.895
20.2222	159.514
21.2917	161.943
22.2639	162.753
23.3333	163.563
24.3056	165.182
25.375	165.992
26.3472	166.802
27.3194	167.611
28.2917	168.421
29.3611	169.231
30.3333	170.04
31.4028	170.85
32.375	171.66
33.3472	171.66
34.3194	172.47
35.3889	173.279
36.3611	173.279
37.3333	173.279
37.8194	173.279
38.3056	173.279
39.0833	173.279
