Adsorption isotherm of Methane on Pseudo-opt PCN-14
DOI: 10.1038/Nchem.1192
Adsorbate Methane: InChIKey VNWKTOKETHGBQD-UHFFFAOYSA-N
Temperature: 298 K
Tabular data in the source: 0
pressure (bar)	uptake (volume/volume)
0.972222	25.1012
3.01389	62.3482
5.05556	86.6397
7	102.834
9.04167	114.17
11.0833	122.267
13.125	129.555
14.9722	135.223
16.9167	140.081
18.9583	143.32
21	146.559
23.0417	148.178
25.0833	148.988
26.9306	152.227
28.9722	153.846
31.0139	153.846
32.9583	155.466
35	156.275
37.0417	156.275
38.9861	157.085
