Adsorption isotherm of Methane on IRMOF-1
DOI: 10.1038/Nchem.1192
Adsorbate Methane: InChIKey VNWKTOKETHGBQD-UHFFFAOYSA-N
Temperature: 298 K
Tabular data in the source: 0
pressure (bar)	uptake (volume/volume)
1.45833	5.71429
2.33333	8.97959
3.5	14.6939
4.375	18.7755
5.15278	22.0408
5.93056	26.1224
7.29167	31.8367
8.16667	35.102
8.94444	39.1837
9.43056	40.8163
10.3056	44.898
11.1806	47.3469
11.9583	51.4286
12.7361	55.5102
13.6111	57.9592
14.4861	62.0408
15.2639	63.6735
16.0417	67.7551
16.9167	71.0204
17.7917	73.4694
18.7639	76.7347
19.5417	80
20.5139	83.2653
21.3889	85.7143
22.3611	88.1633
23.2361	90.6122
24.1111	93.0612
24.9861	95.5102
25.7639	97.9592
26.6389	100.408
27.5139	102.857
28.3889	105.306
29.3611	107.755
30.2361	110.204
31.2083	111.837
32.0833	113.469
33.0556	115.918
33.9306	117.551
34.9028	120
35.7778	120.816
36.6528	122.449
37.625	124.082
38.5	125.714
