Adsorption isotherm of Methane on PCN-14
DOI: 10.1038/Nchem.1192
Adsorbate Methane: InChIKey VNWKTOKETHGBQD-UHFFFAOYSA-N
Temperature: 290 K
Tabular data in the source: 0
pressure (bar)	uptake (volume/volume)
2.85872	39.3103
3.39956	49.6552
4.01766	61.3793
4.71302	72.4138
5.40839	81.3793
6.02649	90.3448
6.87638	100
7.57174	109.655
8.34437	117.931
9.117	125.517
9.88962	133.103
10.5077	138.621
11.2804	146.207
12.5166	153.103
13.83	161.379
15.0662	168.966
15.8389	173.793
17.3068	179.31
19.2384	186.897
21.2472	194.483
23.1015	199.31
25.1104	204.138
26.5011	207.586
28.0464	208.966
30.0552	212.414
31.755	215.172
