Adsorption isotherm of Methane on MIL-47
DOI: 10.1038/Nchem.1192
Adsorbate Methane: InChIKey VNWKTOKETHGBQD-UHFFFAOYSA-N
Temperature: 298 K
Tabular data in the source: 0
pressure (bar)	uptake (volume/volume)
1.05017	27.6423
1.43259	36.5854
1.81579	43.9024
2.10192	52.0325
2.48512	59.3496
3.34782	74.7967
3.92479	81.3008
4.40467	88.6179
5.26973	99.187
5.94377	104.878
7.29147	117.073
7.96591	121.951
8.73664	127.642
9.50815	131.707
10.3767	134.959
11.2449	139.024
12.0169	142.276
12.9821	145.528
13.754	148.78
14.7197	151.22
15.5887	153.659
16.4577	156.098
17.4234	158.537
18.2923	160.976
19.1617	162.602
20.0311	164.228
20.9972	165.854
21.8665	167.48
22.833	168.293
23.7991	169.919
24.6685	171.545
25.6349	172.358
26.6014	173.171
27.4711	173.984
28.4376	174.797
29.3074	175.61
30.2738	176.423
31.1436	177.236
32.1105	177.236
33.0773	177.236
34.0434	178.862
35.0098	179.675
35.8796	180.488
36.8464	180.488
37.8133	180.488
38.6831	181.301
