Adsorption isotherm of Methane on PCN-14
DOI: 10.1038/Nchem.1192
Adsorbate Methane: InChIKey VNWKTOKETHGBQD-UHFFFAOYSA-N
Temperature: 298 K
Tabular data in the source: 0
pressure (bar)	uptake (volume/volume)
1.00442	33.7931
1.8543	50.3448
2.39514	61.3793
3.01325	72.4138
3.55408	80
4.24945	89.6552
4.94481	98.6207
5.7947	106.207
7.03091	115.172
7.88079	120.69
8.96247	126.897
9.96689	131.724
12.9801	143.448
13.9845	146.897
15.0662	148.966
16.9978	154.483
18.1567	156.552
19.0066	157.931
20.1656	160
20.9382	160.69
23.0243	163.448
25.0331	165.517
26.9647	167.586
28.9735	168.966
31.0596	170.345
33.0684	171.724
35.0773	172.414
