Adsorption isotherm of Methane on NOTT-107
DOI: 10.1038/Nchem.1192
Adsorbate Methane: InChIKey VNWKTOKETHGBQD-UHFFFAOYSA-N
Temperature: 298 K
Tabular data in the source: 0
pressure (bar)	uptake (volume/volume)
1.46799	35.8621
1.77704	42.069
2.16336	48.2759
2.47241	54.4828
2.93598	63.4483
3.39956	68.9655
3.86313	74.4828
4.32671	80
4.71302	84.8276
5.02208	89.6552
5.40839	93.1034
5.94923	98.6207
6.4128	103.448
9.42605	126.207
10.0442	130.345
13.4437	147.586
14.1391	150.345
15.4525	155.172
16.1479	157.241
17.3841	160.69
18.0795	162.759
19.4702	166.897
20.2428	168.276
21.9426	171.724
23.0243	173.103
24.0287	175.172
24.9558	176.552
27.0419	179.31
28.0464	180.69
29.0508	181.379
30.9823	183.448
33.0684	185.517
33.4547	186.207
34.2274	186.207
34.9227	186.207
