Adsorption isotherm of Methane on Pseudo-opt IRMOF-1
DOI: 10.1038/Nchem.1192
Adsorbate Methane: InChIKey VNWKTOKETHGBQD-UHFFFAOYSA-N
Temperature: 298 K
Tabular data in the source: 0
pressure (bar)	uptake (volume/volume)
1.06944	4.08163
2.91667	15.5102
4.95833	26.1224
7	36.7347
8.94444	46.5306
10.9861	56.3265
13.0278	66.1224
14.9722	73.4694
16.9167	82.449
18.9583	88.9796
21	95.5102
23.0417	102.041
24.9861	108.571
27.0278	114.286
29.0694	119.184
31.0139	124.082
32.9583	128.163
35	131.429
36.9444	134.694
38.8889	137.143
