Adsorption isotherm of Methane on Pseudo PCN-14
DOI: 10.1038/Nchem.1192
Adsorbate Methane: InChIKey VNWKTOKETHGBQD-UHFFFAOYSA-N
Temperature: 298 K
Tabular data in the source: 0
pressure (bar)	uptake (volume/volume)
0.972222	29.9595
2.91667	68.0162
4.95833	93.9271
7.09722	110.121
8.94444	123.077
11.0833	133.603
13.0278	140.891
14.875	146.559
17.1111	152.227
18.9583	155.466
21	159.514
23.0417	162.753
25.0833	165.182
27.0278	166.802
28.9722	169.231
31.1111	170.04
32.9583	171.66
35	173.279
37.0417	173.279
38.9861	174.899
