Adsorption isotherm of Methane on CuBTC
DOI: 10.1038/Nchem.1192
Adsorbate Methane: InChIKey VNWKTOKETHGBQD-UHFFFAOYSA-N
Temperature: 298 K
Tabular data in the source: 0
pressure (bar)	uptake (volume/volume)
1.26389	19.5918
1.84722	26.1224
1.94444	27.7551
2.625	33.4694
3.40278	42.449
4.08333	48.1633
4.76389	53.8776
5.34722	58.7755
6.02778	63.6735
7	71.0204
7.29167	71.8367
7.68056	75.9184
7.97222	77.551
9.23611	84.0816
9.91667	89.7959
11.2778	96.3265
12.0556	101.224
12.3472	102.857
13.125	106.122
13.2222	106.122
14	111.02
15.3611	115.918
16.2361	119.184
17.4028	124.082
18.2778	126.531
19.4444	130.612
20.4167	133.061
21.4861	136.327
22.4583	138.776
23.2361	140.408
24.0139	142.857
25.5694	146.122
26.5417	147.755
27.6111	150.204
28.5833	151.837
29.4583	153.469
30.4306	154.286
31.5	156.735
32.4722	157.551
33.4444	159.184
34.4167	160.816
35.5833	162.449
36.5556	163.265
37.2361	163.265
38.0139	164.898
38.8889	164.898
