Adsorption isotherm of Methane on Pseudo-opt MIL-47
DOI: 10.1038/Nchem.1192
Adsorbate Methane: InChIKey VNWKTOKETHGBQD-UHFFFAOYSA-N
Temperature: 298 K
Tabular data in the source: 0
pressure (bar)	uptake (volume/volume)
1.05017	27.6423
2.9654	65.8537
4.98361	91.0569
7.00613	107.317
8.93394	119.512
10.96	128.455
12.8906	134.959
14.9174	142.276
16.9466	144.715
18.9743	150.407
20.906	154.472
22.8389	156.098
24.8681	158.537
26.801	160.163
28.9277	160.976
30.861	161.789
32.7939	163.415
34.8231	165.854
36.7568	165.854
38.7864	167.48
