Adsorption isotherm of Lead(II) Ion, Water on AO BAS-g-PAN
DOI: 10.1007/s00289-017-2012-4
Article source: Figure 10
Adsorbate Lead(II) Ion: InChIKey RVPVRDXYQKGNMQ-UHFFFAOYSA-N
Adsorbate Water: InChIKey XLYOFNOQVPJJNP-UHFFFAOYSA-N
Kind: experiment
Temperature: 308 K
Tabular data in the source: 0
pressure (bar)	Lead(II) Ion fraction	Lead(II) Ion uptake (mmol/g)	Water fraction	Water uptake (mmol/g)	total uptake (mmol/g)
1.01325	5.8e-05	0.24776			
1.01325	0.000141	0.45593			
1.01325	0.000365	0.70986			
1.01325	0.000832	1.20857			
1.01325	0.002993	1.55036			
