Adsorption isotherm of Lead(II) Ion, Water on AO BAS-g-PAN
DOI: 10.1007/s00289-017-2012-4
Article source: Figure 10
Adsorbate Lead(II) Ion: InChIKey RVPVRDXYQKGNMQ-UHFFFAOYSA-N
Adsorbate Water: InChIKey XLYOFNOQVPJJNP-UHFFFAOYSA-N
Kind: experiment
Temperature: 318 K
Tabular data in the source: 0
pressure (bar)	Lead(II) Ion fraction	Lead(II) Ion uptake (mmol/g)	Water fraction	Water uptake (mmol/g)	total uptake (mmol/g)
1.01325	4.6e-05	0.30209			
1.01325	0.000105	0.48109			
1.01325	0.000347	0.81852			
1.01325	0.00083	1.27777			
1.01325	0.002897	1.55786			
