Adsorption isotherm of Lead(II) Ion, Water on AO BAS-g-PAN
DOI: 10.1007/s00289-017-2012-4
Article source: Figure 10
Adsorbate Lead(II) Ion: InChIKey RVPVRDXYQKGNMQ-UHFFFAOYSA-N
Adsorbate Water: InChIKey XLYOFNOQVPJJNP-UHFFFAOYSA-N
Kind: experiment
Temperature: 298 K
Tabular data in the source: 0
pressure (bar)	Lead(II) Ion fraction	Lead(II) Ion uptake (mmol/g)	Water fraction	Water uptake (mmol/g)	total uptake (mmol/g)
1.01325	8.7e-05	0.28635			
1.01325	0.000203	0.39876			
1.01325	0.000371	0.62574			
1.01325	0.000836	1.12365			
1.01325	0.003093	1.5375			
