Adsorption isotherm of Hydrogen on MOF-74-Co
DOI: 10.1021/Ja2010863
Adsorbate Hydrogen: InChIKey UFHFLCQGNIYNRP-UHFFFAOYSA-N
Temperature: 300 K
Tabular data in the source: 0
pressure (bar)	uptake (wt%)
1.15649	0.0896278
3.32189	0.111613
5.75533	0.133538
8.45681	0.155403
10.9113	0.199795
13.6128	0.22166
20.6662	0.309963
23.3677	0.331827
25.8222	0.37622
28.5237	0.398085
31.2252	0.419949
33.6797	0.464342
36.3812	0.486206
39.0826	0.508071
45.868	0.596434
48.5694	0.618299
51.024	0.662691
53.7255	0.684556
56.4269	0.706421
58.8815	0.750813
61.5829	0.772678
64.3055	0.81701
66.7389	0.838935
69.4404	0.8608
72.163	0.905132
74.5964	0.927057
77.2979	0.948922
80.0205	0.993254
83.258	1.015
