Adsorption isotherm of Carbon Dioxide on UHM-6
DOI: 10.1021/Ic201596x
Adsorbate Carbon Dioxide: InChIKey CURLTUGMZLYLDI-UHFFFAOYSA-N
Temperature: 273 K
Tabular data in the source: 0
pressure (bar)	uptake (mmol/g)
0.0168862	0.162729
0.0549143	0.478222
0.157731	1.00076
0.257731	1.39512
0.354914	1.71555
0.460548	2.03104
0.561957	2.29231
0.657731	2.55357
0.763365	2.79019
0.860548	2.99231
0.957731	3.19442
1.00703	3.28808
