Adsorption isotherm of Hydrogen on UHM-6
DOI: 10.1021/Ic201596x
Adsorbate Hydrogen: InChIKey UFHFLCQGNIYNRP-UHFFFAOYSA-N
Temperature: 77 K
Tabular data in the source: 0
pressure (bar)	uptake (wt%)
0.00702701	0.0225657
0.02252	0.169045
0.0520974	0.312707
0.0985763	0.487354
0.201393	0.746509
0.299985	0.926791
0.399985	1.06764
0.554914	1.2282
0.702802	1.36623
0.752097	1.3775
0.80421	1.4282
0.899985	1.50144
0.953506	1.52397
0.998576	1.5775
