Adsorption isotherm of Hydrogen on UHM-6
DOI: 10.1021/Ic201596x
Adsorbate Hydrogen: InChIKey UFHFLCQGNIYNRP-UHFFFAOYSA-N
Temperature: 77 K
Tabular data in the source: 0
pressure (bar)	uptake (wt%)
0.00843546	0.239467
0.0337876	0.394397
0.0760411	0.60003
0.157731	0.839467
0.257731	1.05637
0.357731	1.21412
0.460548	1.33242
0.557731	1.43947
0.664773	1.54088
0.760548	1.61975
0.854914	1.69581
0.956323	1.76059
