Adsorption isotherm of Nitrogen on UHM-6
DOI: 10.1021/Ic201596x
Adsorbate Nitrogen: InChIKey IJGRMHOSHXDMSA-UHFFFAOYSA-N
Temperature: 77 K
Tabular data in the source: 0
pressure (bar)	uptake (cm3(STP)/g)
0.000865	152.758
0.00372489	122.725
0.00372489	179.216
0.00372489	205.673
0.00515504	1.87793
0.025177	264.309
0.0409086	272.175
0.0981143	285.761
0.168191	294.342
0.274022	302.923
0.424187	310.074
0.627267	321.515
0.725947	327.951
0.821767	341.537
0.939038	373
