Adsorption isotherm of Argon on UHM-6
DOI: 10.1021/Ic201596x
Adsorbate Argon: InChIKey XKRFYHLGVUSROY-UHFFFAOYSA-N
Temperature: 87 K
Tabular data in the source: 0
pressure (bar)	uptake (cm3(STP)/g)
0.00229475	227.841
0.00372489	147.753
0.00658518	267.885
0.0280373	286.476
0.0566402	297.918
0.108125	310.074
0.203945	324.375
0.302625	335.101
0.408455	345.112
0.504275	353.693
0.65873	365.849
0.75598	373.715
0.804605	381.581
0.85323	395.882
0.904715	415.189
0.95763	429.491
