Adsorption isotherm of Methane on UHM-6
DOI: 10.1021/Ic201596x
Adsorbate Methane: InChIKey VNWKTOKETHGBQD-UHFFFAOYSA-N
Temperature: 293 K
Tabular data in the source: 0
pressure (bar)	uptake (mmol/g)
0.0197031	0.0296308
0.0563228	0.0641379
0.10421	0.133152
0.156323	0.177518
0.209844	0.226814
0.35914	0.350053
0.514069	0.488082
0.663365	0.616251
0.811252	0.719772
0.912661	0.803575
1.00562	0.872589
