Adsorption isotherm of Carbon Dioxide on UHM-6
DOI: 10.1021/Ic201596x
Adsorbate Carbon Dioxide: InChIKey CURLTUGMZLYLDI-UHFFFAOYSA-N
Temperature: 298 K
Tabular data in the source: 0
pressure (bar)	uptake (mmol/g)
0.0126608	0.103574
0.0563228	0.27611
0.108435	0.448645
0.209844	0.704983
0.307027	0.936673
0.408435	1.15357
0.508435	1.3409
0.607027	1.50357
0.708435	1.67118
0.809844	1.83879
0.905619	1.9916
1.0028	2.13456
