Adsorption isotherm of Hydrogen on SNU-3
DOI: 10.1002/anie.200805494
Adsorbate Hydrogen: InChIKey UFHFLCQGNIYNRP-UHFFFAOYSA-N
Temperature: 77 K
Tabular data in the source: 0
pressure (bar)	uptake (cm3(STP)/g)
0.0236738	24.2052
0.0389679	40.5918
0.0651864	57.3061
0.08922	67.4657
0.194094	100.567
0.34922	123.508
0.499976	137.6
0.657287	149.398
0.851741	158.903
0.965355	163.819
