Adsorption isotherm of Hydrogen on SNU-3
DOI: 10.1002/anie.200805494
Adsorbate Hydrogen: InChIKey UFHFLCQGNIYNRP-UHFFFAOYSA-N
Temperature: 298 K
Tabular data in the source: 0
pressure (bar)	uptake (cm3(STP)/g)
0.837971	0.0110491
6.08167	0.0339903
11.7623	0.0320239
21.1573	0.0412004
29.4598	0.0503768
38.8548	0.0693852
62.4514	0.091671
71.6279	0.0956037
83.2077	0.110024
93.4766	0.115268
