Adsorption isotherm of Nitrogen on SNU-3
DOI: 10.1002/anie.200805494
Adsorbate Nitrogen: InChIKey IJGRMHOSHXDMSA-UHFFFAOYSA-N
Temperature: 77 K
Tabular data in the source: 0
pressure (bar)	uptake (cm3(STP)/g)
0.00182509	10.7683
0.0193041	21.9111
0.102329	24.533
0.253086	27.8103
0.362329	30.1044
0.462833	31.743
0.569892	33.3817
0.70317	36.3313
0.912918	39.2809
0.96317	43.2136
