Adsorption isotherm of Nitrogen on SNU-3
DOI: 10.1002/anie.200805494
Adsorbate Nitrogen: InChIKey IJGRMHOSHXDMSA-UHFFFAOYSA-N
Temperature: 77 K
Tabular data in the source: 0
pressure (bar)	uptake (cm3(STP)/g)
0.00400996	1.26405
0.0171192	18.9615
0.0673713	22.8943
0.213758	26.1716
0.35796	28.4657
0.462833	30.7598
0.61359	33.3817
0.762161	36.659
0.910733	39.6086
0.95443	41.575
