Adsorption isotherm of Hydrogen on SNU-3
DOI: 10.1002/anie.200805494
Adsorbate Hydrogen: InChIKey UFHFLCQGNIYNRP-UHFFFAOYSA-N
Temperature: 77 K
Tabular data in the source: 0
pressure (bar)	uptake (cm3(STP)/g)
0.0193041	32.3985
0.0367831	46.1632
0.0914049	66.4825
0.176615	79.5918
0.250901	87.1296
0.44317	99.9111
0.646363	105.81
0.799304	109.415
0.915102	112.037
1.00468	113.02
