Adsorption isotherm of Carbon Dioxide on SNU-3
DOI: 10.1002/anie.200805494
Adsorbate Carbon Dioxide: InChIKey CURLTUGMZLYLDI-UHFFFAOYSA-N
Temperature: 195 K
Tabular data in the source: 0
pressure (bar)	uptake (cm3(STP)/g)
0.00182509	8.47414
0.00182509	39.9363
0.00400996	55.012
0.0149343	73.0372
0.0280436	89.7514
0.104514	107.777
0.207203	117.609
0.360144	125.474
0.556783	133.012
0.753422	140.222
0.95443	148.743
