Adsorption isotherm of Carbon Dioxide on SNU-3
DOI: 10.1002/anie.200805494
Adsorbate Carbon Dioxide: InChIKey CURLTUGMZLYLDI-UHFFFAOYSA-N
Temperature: 195 K
Tabular data in the source: 0
pressure (bar)	uptake (cm3(STP)/g)
0.00837971	22.5666
0.0171192	34.6926
0.0411528	43.5414
0.100144	51.4069
0.244346	59.9279
0.397287	65.4993
0.552413	69.4321
0.6988	72.7094
0.856111	75.0035
0.956615	76.9699
