Adsorption isotherm of Hydrogen on SNU-3
DOI: 10.1002/anie.200805494
Adsorbate Hydrogen: InChIKey UFHFLCQGNIYNRP-UHFFFAOYSA-N
Temperature: 298 K
Tabular data in the source: 0
pressure (bar)	uptake (cm3(STP)/g)
0	0.020881
2.80436	0.0320239
10.2329	0.0595533
22.2497	0.108713
31.4262	0.136898
41.4766	0.165083
53.4934	0.199167
60.2665	0.218831
84.7371	0.277822
91.0733	0.290931
