Adsorption isotherm of Nitrogen on Por-COF
DOI: 10.1039/c6ta00483k
Article source: Figure 3
Adsorbate Nitrogen: InChIKey IJGRMHOSHXDMSA-UHFFFAOYSA-N
Kind: experiment
Temperature: 77 K
Tabular data in the source: 0
pressure (bar)	uptake (cm3(STP)/g)
-0.002577	80.0935
-0.0019	114.065
-6.4e-05	127.576
-0.000645	136.842
-0.000624	146.107
0.001827	166.18
0.001244	174.287
0.002483	190.115
0.006112	198.606
0.007333	206.712
0.025747	234.883
0.027863	239.129
0.038111	248.195
0.048952	253.014
0.060997	258.412
0.076654	264.58
0.088697	268.82
0.10134	272.673
0.127828	279.221
0.153108	283.839
0.17959	287.685
0.206674	291.916
0.256631	300.766
0.280705	304.227
0.307784	306.142
0.335467	309.215
0.361345	311.902
0.409492	318.438
0.460645	323.813
0.517214	329.572
0.567812	334.767
0.619006	339.43
0.670546	343.645
0.722785	348.754
0.772585	353.194
0.825519	358.079
0.874981	366.763
0.926876	374.106
0.980195	395.076
0.953065	407.603
0.899423	397.58
0.847183	392.024
0.794947	388.256
0.742017	385.382
0.689087	382.731
0.635809	379.634
0.582532	377.653
0.530298	374.555
0.472817	360.96
0.423714	356.52
0.367995	352.307
0.317845	346.75
0.263169	341.643
0.230776	336.523
0.211968	333.629
0.179923	328.286
0.156933	323.607
0.131154	317.813
0.104325	309.339
0.051348	285.688
