Adsorption isotherm of Nitrogen on Por-COF/S
DOI: 10.1039/c6ta00483k
Article source: Figure 3
Adsorbate Nitrogen: InChIKey IJGRMHOSHXDMSA-UHFFFAOYSA-N
Kind: experiment
Temperature: 77 K
Tabular data in the source: 0
pressure (bar)	uptake (cm3(STP)/g)
0.004402	1.53917
0.027382	1.52609
0.046185	1.96221
0.074043	3.51023
0.105028	2.37556
0.136368	3.69818
0.16979	2.11531
0.223065	3.64886
0.265543	3.6247
0.292352	2.93923
0.325082	3.36743
0.357465	4.46605
0.387408	4.0022
0.419788	3.76037
0.451471	3.07212
0.483855	4.39415
0.514495	4.60013
0.547921	4.58112
0.576821	5.0115
0.608159	5.6639
0.641238	6.3153
0.671182	6.74509
0.704258	6.27946
0.735246	6.03842
0.766935	8.03107
0.797922	7.56663
0.829956	7.99522
0.859898	7.08456
0.889843	7.96115
0.918746	9.73198
0.947646	9.93895
0.980384	13.9417
1.00095	25.7706
0.985275	21.5348
0.953926	15.744
0.918051	10.1792
0.885668	9.30398
0.851891	7.75934
0.798617	6.89601
0.767979	7.80707
0.737682	5.59022
0.702865	6.05684
0.639145	4.97604
0.605024	4.99545
0.573338	4.34325
0.543393	3.91347
0.512405	4.1545
0.446948	4.41515
0.379748	4.22996
0.351893	3.79899
0.326823	3.58984
0.294441	3.16145
0.262758	3.84969
0.232118	3.64372
0.196602	2.99369
