Adsorption isotherm of Nitrogen on IRMOF-1/2Cu(I)
DOI: 10.1021/Ef3020662
Adsorbate Nitrogen: InChIKey IJGRMHOSHXDMSA-UHFFFAOYSA-N
Temperature: 77 K
Tabular data in the source: 0
pressure (bar)	uptake (mmol/g)
0.0108756	5.04667
0.0137359	21.7793
0.0266072	22.2942
0.065221	22.7232
0.102405	23.0236
0.162471	23.281
0.202515	23.3668
0.304055	23.5384
0.404165	23.71
0.504275	23.71
0.647289	23.71
0.770282	23.7529
0.877542	23.6671
0.944759	23.71
0.993384	23.7958
