Adsorption isotherm of Nitrogen on IRMOF-1/3Cu(I)
DOI: 10.1021/Ef3020662
Adsorbate Nitrogen: InChIKey IJGRMHOSHXDMSA-UHFFFAOYSA-N
Temperature: 77 K
Tabular data in the source: 0
pressure (bar)	uptake (mmol/g)
0.0108756	8.00706
0.0123058	19.5912
0.0294675	19.9774
0.0637909	20.4493
0.106695	20.7496
0.202515	21.0929
0.305485	21.2216
0.401305	21.3503
0.501415	21.3932
0.597234	21.479
0.700205	21.4361
0.817476	21.4361
0.873252	21.4361
0.943329	21.3932
0.991954	21.3932
