Adsorption isotherm of Nitrogen on IRMOF-1
DOI: 10.1021/Ef3020662
Adsorbate Nitrogen: InChIKey IJGRMHOSHXDMSA-UHFFFAOYSA-N
Temperature: 77 K
Tabular data in the source: 0
pressure (bar)	uptake (mmol/g)
0.00801532	0.112676
0.00944547	13.1556
0.0137359	24.6539
0.035188	25.2546
0.0709416	25.5978
0.123857	26.0269
0.203945	26.2843
0.306915	26.3701
0.401305	26.4988
0.501415	26.5417
0.600095	26.4988
0.703065	26.6275
0.816046	26.5417
0.917586	26.5417
0.996244	26.5846
