Adsorption isotherm of Nitrogen on IRMOF-1/4Cu(I)
DOI: 10.1021/Ef3020662
Adsorbate Nitrogen: InChIKey IJGRMHOSHXDMSA-UHFFFAOYSA-N
Temperature: 77 K
Tabular data in the source: 0
pressure (bar)	uptake (mmol/g)
0.0108756	11.7826
0.0137359	16.545
0.0323278	17.0599
0.0637909	17.446
0.123857	17.7892
0.203945	18.1325
0.249709	18.2183
0.34982	18.2612
0.45136	18.3899
0.55147	18.3899
0.65015	18.4328
0.767421	18.4328
0.820337	18.3899
0.877542	18.4757
0.943329	18.4757
0.997674	18.4328
