Adsorption isotherm of Hydrogen on SSZ-13
DOI: 10.1016/j.seppur.2020.117796
Article source: Figure 3
Adsorbate Hydrogen: InChIKey UFHFLCQGNIYNRP-UHFFFAOYSA-N
Kind: experiment
Temperature: 303 K
Tabular data in the source: 0
pressure (bar)	uptake (mmol/g)
-0.002232	0
0.024554	0.021858
0.044643	0.021858
0.069196	0.030601
0.089286	0.021858
0.116071	0.021858
0.145089	0.030601
0.171875	0.030601
0.243304	0.039344
0.3125	0.039344
0.377232	0.048087
0.444196	0.056831
0.502232	0.056831
0.582589	0.061202
0.651786	0.065574
0.71875	0.065574
0.787946	0.08306
0.912946	0.08306
0.993304	0.091803
