Adsorption isotherm of Methane on SSZ-13
DOI: 10.1016/j.seppur.2020.117796
Article source: Figure 3
Adsorbate Methane: InChIKey VNWKTOKETHGBQD-UHFFFAOYSA-N
Kind: experiment
Temperature: 303 K
Tabular data in the source: 0
pressure (bar)	uptake ()
0.138393	0.222951
0.287946	0.397814
0.460938	0.590164
0.633929	0.765027
0.768973	0.878689
0.876116	0.961749
