Adsorption isotherm of Carbon Dioxide on SSZ-13
DOI: 10.1016/j.seppur.2020.117796
Article source: Figure 3
Adsorbate Carbon Dioxide: InChIKey CURLTUGMZLYLDI-UHFFFAOYSA-N
Kind: experiment
Temperature: 303 K
Tabular data in the source: 0
pressure (bar)	uptake (mmol/g)
0.03125	0.756284
0.15067	2.12896
0.375	2.91585
0.571429	3.30055
0.720982	3.5235
0.833705	3.66776
