Adsorption isotherm of Nitrogen on SSZ-13
DOI: 10.1016/j.seppur.2020.117796
Article source: Figure 3
Adsorbate Nitrogen: InChIKey IJGRMHOSHXDMSA-UHFFFAOYSA-N
Kind: experiment
Temperature: 303 K
Tabular data in the source: 0
pressure (bar)	uptake (mmol/g)
0.196429	0.144262
0.366071	0.257923
0.662946	0.406557
0.805804	0.46776
0.904018	0.493989
0.953125	0.507104
