Adsorption isotherm of Hydrogen on ZIF-8
DOI: 10.1021/Jp904872f
Adsorbate Hydrogen: InChIKey UFHFLCQGNIYNRP-UHFFFAOYSA-N
Temperature: 125 K
Tabular data in the source: 0
pressure (bar)	uptake (wt%)
0.818081	0.088746
0.935835	0.120459
1.28585	0.145803
1.51988	0.177504
1.87049	0.215538
2.33767	0.259905
2.68798	0.291594
3.15546	0.342306
4.32296	0.443705
5.72332	0.551425
7.94058	0.722511
10.9733	0.925235
15.0536	1.15323
20.4137	1.39378
25.5388	1.58359
30.6627	1.74803
39.6277	1.99454
47.31	2.16505
52.0818	2.25972
54.6426	2.31656
56.3883	2.3481
