Adsorption isotherm of Hydrogen on IRMOF-1
DOI: 10.1021/Jp904872f
Adsorbate Hydrogen: InChIKey UFHFLCQGNIYNRP-UHFFFAOYSA-N
Temperature: 298 K
Tabular data in the source: 0
pressure (bar)	uptake (wt%)
4.04255	0.129534
6.80851	0.15544
9.14894	0.207254
11.7021	0.207254
14.4681	0.259067
17.0213	0.310881
19.3617	0.362694
21.9149	0.388601
24.4681	0.440415
27.234	0.466321
30.2128	0.492228
32.5532	0.544041
35.3191	0.595855
38.0851	0.621762
40.6383	0.673575
43.1915	0.725389
45.9574	0.777202
48.7234	0.803109
51.2766	0.829016
54.2553	0.854922
57.234	0.932642
59.7872	0.958549
62.9787	0.984456
65.7447	1.01036
68.5106	1.06218
71.2766	1.1399
74.2553	1.1399
77.234	1.19171
80	1.24352
83.4043	1.26943
85.9574	1.32124
89.1489	1.34715
92.1277	1.37306
95.3191	1.42487
98.0851	1.47668
