Adsorption isotherm of Hydrogen on ZIF-8
DOI: 10.1021/Jp904872f
Adsorbate Hydrogen: InChIKey UFHFLCQGNIYNRP-UHFFFAOYSA-N
Temperature: 200 K
Tabular data in the source: 0
pressure (bar)	uptake (wt%)
3.49308	0.101153
6.05297	0.138954
8.14805	0.183148
9.66174	0.227405
10.8254	0.246317
12.3388	0.284228
14.3173	0.32209
16.1795	0.359964
18.158	0.397826
20.2525	0.42933
21.6488	0.448218
22.6961	0.467143
23.8598	0.486055
24.9075	0.511325
26.0709	0.523893
27.1183	0.542817
28.1657	0.561742
29.3299	0.593345
30.4927	0.593222
31.5401	0.612147
32.5875	0.631072
33.7509	0.643639
34.9145	0.662551
35.9619	0.681476
37.009	0.694056
38.9875	0.731918
40.0343	0.738152
41.1977	0.750719
42.2448	0.763299
43.2922	0.782224
44.4556	0.794791
45.5027	0.807371
46.6663	0.826283
48.1794	0.857849
49.2259	0.857738
50.3896	0.876651
51.553	0.889218
52.6001	0.901798
53.7635	0.914365
54.8109	0.93329
55.9739	0.939512
57.7193	0.964708
58.8824	0.97093
59.9295	0.98351
