Adsorption isotherm of Hydrogen on IRMOF-1
DOI: 10.1021/Jp904872f
Adsorbate Hydrogen: InChIKey UFHFLCQGNIYNRP-UHFFFAOYSA-N
Temperature: 77 K
Tabular data in the source: 0
pressure (bar)	uptake (wt%)
0.212766	0.984456
0.851064	1.76166
2.55319	2.90155
4.89362	4.92228
10	6.47668
20.4255	7.79793
31.7021	8.49741
42.766	8.88601
55.3191	9.27461
66.8085	9.40415
80.4255	9.58549
92.3404	9.66321
