Adsorption isotherm of Hydrogen on IRMOF-1
DOI: 10.1021/Jp904872f
Adsorbate Hydrogen: InChIKey UFHFLCQGNIYNRP-UHFFFAOYSA-N
Temperature: 298 K
Tabular data in the source: 0
pressure (bar)	uptake (wt%)
0.638298	0.0777202
4.46809	0.103627
9.78723	0.207254
19.3617	0.388601
29.1489	0.518135
38.5106	0.647668
48.0851	0.803109
57.234	0.932642
66.383	1.06218
75.3191	1.19171
84.4681	1.29534
93.4043	1.37306
