Adsorption isotherm of Hydrogen on ZIF-8
DOI: 10.1021/Jp904872f
Adsorbate Hydrogen: InChIKey UFHFLCQGNIYNRP-UHFFFAOYSA-N
Temperature: 200 K
Tabular data in the source: 0
pressure (bar)	uptake (wt%)
1.39711	0.0379233
2.4448	0.0631932
3.37532	0.06944
4.4236	0.1074
5.93581	0.119931
8.4963	0.170421
11.9876	0.233504
16.8754	0.321819
22.926	0.410012
28.9767	0.498205
37.0055	0.617914
44.568	0.712292
50.6177	0.781449
53.4099	0.81288
55.2712	0.831718
