Adsorption isotherm of Hydrogen on IRMOF-1
DOI: 10.1021/Jp904872f
Adsorbate Hydrogen: InChIKey UFHFLCQGNIYNRP-UHFFFAOYSA-N
Temperature: 298 K
Tabular data in the source: 0
pressure (bar)	uptake (wt%)
6.59574	0.0777202
16.383	0.259067
23.617	0.362694
31.0638	0.518135
37.234	0.595855
43.8298	0.673575
47.6596	0.751295
51.7021	0.803109
56.8085	0.829016
61.0638	0.906736
67.6596	0.984456
70.4255	0.984456
75.5319	1.08808
87.234	1.19171
91.7021	1.29534
99.5745	1.37306
