Adsorption isotherm of Hydrogen on IRMOF-1
DOI: 10.1021/Jp904872f
Adsorbate Hydrogen: InChIKey UFHFLCQGNIYNRP-UHFFFAOYSA-N
Temperature: 77 K
Tabular data in the source: 0
pressure (bar)	uptake (wt%)
0	0.388601
0.425532	0.673575
0.851064	1.26943
1.70213	1.89119
2.34043	2.61658
3.19149	3.16062
3.82979	3.57513
5.31915	4.14508
5.95745	4.40415
7.23404	4.97409
8.29787	5.49223
10.2128	5.93264
11.7021	6.19171
12.766	6.39896
14.4681	6.65803
15.9574	6.83938
17.234	7.07254
18.9362	7.12435
20.4255	7.35751
22.1277	7.38342
24.0426	7.51295
25.7447	7.64249
27.6596	7.77202
29.5745	7.90155
30	7.92746
31.9149	8.03109
33.1915	8.10881
35.1064	8.18653
36.383	8.23834
38.2979	8.31606
40.4255	8.39378
42.3404	8.4456
44.4681	8.52332
46.383	8.57513
48.5106	8.62694
50.6383	8.67876
52.5532	8.73057
54.6809	8.78238
56.5957	8.80829
58.7234	8.8342
60.8511	8.88601
62.766	8.93782
64.8936	8.96373
67.0213	8.98964
68.9362	9.01554
71.0638	9.04145
73.1915	9.06736
75.3191	9.09326
77.4468	9.11917
79.3617	9.14508
81.4894	9.17098
83.617	9.19689
85.7447	9.2228
87.6596	9.2487
89.7872	9.27461
91.9149	9.27461
94.0426	9.30052
96.1702	9.32642
98.0851	9.35233
