Adsorption isotherm of Hydrogen on ZIF-8
DOI: 10.1021/Jp904872f
Adsorbate Hydrogen: InChIKey UFHFLCQGNIYNRP-UHFFFAOYSA-N
Temperature: 300 K
Tabular data in the source: 0
pressure (bar)	uptake (wt%)
1.51221	0.0125304
2.09419	0.0251592
2.79186	0.0250855
3.25727	0.0313814
4.42035	0.0376036
8.375	0.0625661
11.9808	0.0875655
16.7497	0.118787
22.7983	0.162564
29.1953	0.199958
37.2206	0.243526
44.6651	0.299845
50.0148	0.318315
52.2253	0.343462
53.6209	0.349659
