Adsorption isotherm of Hydrogen on IRMOF-1
DOI: 10.1021/Jp904872f
Adsorbate Hydrogen: InChIKey UFHFLCQGNIYNRP-UHFFFAOYSA-N
Temperature: 77 K
Tabular data in the source: 0
pressure (bar)	uptake (wt%)
0.851064	1.5544
2.34043	2.79793
4.25532	3.8601
6.38298	4.71503
8.7234	5.46632
11.2766	6.19171
13.8298	6.65803
16.8085	7.07254
19.7872	7.38342
22.5532	7.6943
25.5319	7.87565
28.9362	8.10881
32.1277	8.23834
35.3191	8.39378
38.2979	8.57513
41.7021	8.67876
45.1064	8.78238
48.0851	8.88601
51.7021	8.96373
54.8936	9.06736
58.5106	9.17098
62.1277	9.2487
65.5319	9.32642
69.1489	9.40415
72.5532	9.48187
76.5957	9.48187
80.2128	9.53368
83.617	9.63731
87.8723	9.68912
91.7021	9.76684
95.5319	9.84456
99.7872	9.97409
