Adsorption isotherm of Hydrogen on ZIF-8
DOI: 10.1021/Jp904872f
Adsorbate Hydrogen: InChIKey UFHFLCQGNIYNRP-UHFFFAOYSA-N
Temperature: 125 K
Tabular data in the source: 0
pressure (bar)	uptake (wt%)
1.05507	0.183899
1.63882	0.234598
2.45779	0.34238
3.15841	0.405757
4.20905	0.494479
4.55995	0.538858
4.91026	0.570547
5.9609	0.659268
6.54376	0.690932
7.01065	0.728954
8.5264	0.817626
8.87701	0.85566
9.57615	0.887312
11.2079	0.969627
11.9073	1.00762
12.7228	1.03926
14.3545	1.12158
15.519	1.15953
17.2671	1.24183
18.3153	1.27979
20.179	1.34939
21.4602	1.39367
22.9744	1.45062
23.9059	1.4759
25.8855	1.53914
26.9332	1.56441
28.9126	1.62131
29.96	1.64023
31.8228	1.6908
32.8705	1.71607
34.7327	1.75394
35.7801	1.77287
37.6424	1.81074
38.8057	1.82331
40.5514	1.85485
41.5988	1.87377
43.577	1.90529
44.7404	1.91786
46.4857	1.94305
47.6488	1.94928
49.3942	1.97447
50.5575	1.98704
52.3026	2.00589
53.466	2.01846
55.6767	2.04995
56.8395	2.04983
58.2358	2.06871
59.3988	2.07494
