Adsorption isotherm of Hydrogen on ZIF-8
DOI: 10.1021/Jp904872f
Adsorbate Hydrogen: InChIKey UFHFLCQGNIYNRP-UHFFFAOYSA-N
Temperature: 125 K
Tabular data in the source: 0
pressure (bar)	uptake (wt%)
0.821032	0.152197
4.9135	0.640343
9.93325	1.06494
19.7257	1.60324
29.6248	1.93215
39.1711	2.1786
48.8308	2.36159
58.4884	2.50016
