Adsorption isotherm of Hydrogen on ZIF-8
DOI: 10.1021/Jp904872f
Adsorbate Hydrogen: InChIKey UFHFLCQGNIYNRP-UHFFFAOYSA-N
Temperature: 200 K
Tabular data in the source: 0
pressure (bar)	uptake (wt%)
5.00588	0.126374
9.89459	0.233725
19.5543	0.416714
29.0965	0.574334
38.5215	0.712931
47.9457	0.832493
57.2533	0.945722
