Adsorption isotherm of Hydrogen on ZIF-8
DOI: 10.1021/Jp904872f
Adsorbate Hydrogen: InChIKey UFHFLCQGNIYNRP-UHFFFAOYSA-N
Temperature: 300 K
Tabular data in the source: 0
pressure (bar)	uptake (wt%)
5.00204	0.0438873
9.77123	0.081454
19.6584	0.156551
29.1959	0.212648
38.618	0.287794
48.0393	0.343904
57.3439	0.393682
