Adsorption isotherm of Hydrogen on ZIF-8
DOI: 10.1021/Jp904872f
Adsorbate Hydrogen: InChIKey UFHFLCQGNIYNRP-UHFFFAOYSA-N
Temperature: 300 K
Tabular data in the source: 0
pressure (bar)	uptake (wt%)
3.25698	0.0250363
5.58343	0.0438258
7.21222	0.0626891
8.72413	0.0688744
11.0506	0.0876639
13.1445	0.106478
15.3547	0.12528
16.2852	0.131527
18.3785	0.13765
19.0765	0.143922
20.705	0.15644
21.752	0.169019
23.6134	0.187858
26.0555	0.193945
27.8003	0.206451
29.7779	0.225277
30.8241	0.218821
32.6855	0.23766
33.9648	0.24387
35.593	0.250043
36.873	0.268943
38.3849	0.275129
39.1994	0.287733
41.6416	0.29382
43.0369	0.293672
44.6657	0.312535
45.4805	0.331485
47.4576	0.337621
48.2721	0.350225
50.132	0.337338
51.5285	0.362571
53.6212	0.356005
54.4357	0.368609
56.2962	0.368412
57.3433	0.380992
