Adsorption isotherm of Hydrogen on ZIF-8
DOI: 10.1021/Jp904872f
Adsorbate Hydrogen: InChIKey UFHFLCQGNIYNRP-UHFFFAOYSA-N
Temperature: 300 K
Tabular data in the source: 0
pressure (bar)	uptake (wt%)
2.67559	0.0250978
7.21192	0.0563439
10.3523	0.0750473
13.9587	0.112737
15.8198	0.125231
18.3791	0.150341
20.7055	0.16913
23.1477	0.175217
25.5904	0.193994
28.382	0.212735
31.4058	0.225105
34.6631	0.256487
37.4547	0.275227
40.2462	0.293967
43.2701	0.306338
45.4805	0.331485
48.0393	0.343904
50.4817	0.356337
54.0872	0.374991
56.7625	0.393743
59.3212	0.406163
