Adsorption isotherm of Hydrogen on ZIF-8
DOI: 10.1021/Jp904872f
Adsorbate Hydrogen: InChIKey UFHFLCQGNIYNRP-UHFFFAOYSA-N
Temperature: 200 K
Tabular data in the source: 0
pressure (bar)	uptake (wt%)
2.79423	0.0758466
3.9579	0.0947591
6.16955	0.145287
7.21753	0.176902
11.8722	0.252552
13.5016	0.284105
15.0144	0.309326
16.2949	0.340916
17.9237	0.35978
19.0877	0.385037
20.7168	0.410246
21.9967	0.429146
23.5092	0.448021
25.0217	0.466897
26.4182	0.49213
27.6982	0.51103
29.5598	0.536214
30.7232	0.548781
32.4683	0.567632
33.6322	0.59289
35.4933	0.605384
36.6572	0.630641
38.4023	0.649492
39.4497	0.668417
41.1942	0.674578
42.5907	0.699811
44.1029	0.712341
45.3828	0.731241
46.8951	0.743772
48.4076	0.762647
49.9198	0.775178
51.1997	0.794078
53.1765	0.793869
54.2241	0.819139
55.5038	0.831694
57.3651	0.850532
58.9936	0.863051
60.2733	0.875606
