Adsorption isotherm of Hydrogen on IRMOF-1
DOI: 10.1021/Jp904872f
Adsorbate Hydrogen: InChIKey UFHFLCQGNIYNRP-UHFFFAOYSA-N
Temperature: 77 K
Tabular data in the source: 0
pressure (bar)	uptake (wt%)
3.61702	2.72021
4.89362	2.90155
6.59574	3.31606
7.87234	3.52332
9.3617	3.88601
10.6383	4.09326
12.9787	4.50777
14.6809	4.66321
17.8723	4.97409
19.7872	5.07772
22.766	5.25907
24.6809	5.33679
27.6596	5.44041
29.5745	5.51813
32.5532	5.64767
34.4681	5.72539
37.4468	5.82902
39.3617	5.88083
42.3404	6.01036
44.4681	6.06218
47.234	6.1658
49.3617	6.21762
51.9149	6.32124
54.0426	6.34715
57.0213	6.45078
59.1489	6.47668
61.9149	6.5544
64.0426	6.58031
66.8085	6.63212
68.9362	6.68394
71.4894	6.70984
73.617	6.73575
76.5957	6.78756
78.7234	6.81347
81.4894	6.86528
83.617	6.86528
86.383	6.9171
88.5106	6.94301
91.0638	6.99482
93.1915	7.02073
96.1702	7.04663
98.2979	7.07254
