Adsorption isotherm of Hydrogen on IRMOF-1
DOI: 10.1021/Jp904872f
Adsorbate Hydrogen: InChIKey UFHFLCQGNIYNRP-UHFFFAOYSA-N
Temperature: 298 K
Tabular data in the source: 0
pressure (bar)	uptake (wt%)
4.46809	0.0777202
9.78723	0.15544
14.8936	0.233161
20.2128	0.362694
25.1064	0.440415
30.4255	0.492228
33.8298	0.518135
37.8723	0.621762
43.1915	0.673575
48.0851	0.673575
52.3404	0.803109
55.3191	0.854922
60.2128	0.880829
64.0426	0.958549
67.4468	0.984456
70.2128	0.984456
72.766	1.03627
78.9362	1.11399
82.5532	1.19171
85.3191	1.19171
