Adsorption isotherm of Hydrogen on ZIF-8
DOI: 10.1021/Jp904872f
Adsorbate Hydrogen: InChIKey UFHFLCQGNIYNRP-UHFFFAOYSA-N
Temperature: 125 K
Tabular data in the source: 0
pressure (bar)	uptake (wt%)
1.52313	0.247301
2.3418	0.348737
3.27675	0.450161
3.74452	0.507218
4.21318	0.583311
5.38098	0.691055
5.96503	0.7481
6.4328	0.805157
7.01655	0.855857
7.6006	0.912902
8.30093	0.969934
8.88468	1.02063
9.46843	1.07133
10.1685	1.12202
10.8685	1.17271
11.5685	1.2234
12.2686	1.27408
12.9686	1.32477
13.7846	1.3691
14.4846	1.41979
15.3007	1.46412
16.1167	1.50845
16.9327	1.55278
17.7487	1.59711
18.6807	1.63508
19.4964	1.67307
20.3124	1.7174
21.2441	1.74902
22.1761	1.78699
23.2241	1.81861
24.1561	1.85658
25.0878	1.88821
26.1358	1.91982
27.1838	1.95144
28.2315	1.97671
29.2795	2.00832
30.3271	2.03359
31.3748	2.05886
32.4225	2.08413
33.4702	2.1094
34.5179	2.13467
35.5653	2.1536
36.6133	2.18521
37.6607	2.20414
38.8246	2.2294
39.8723	2.25467
40.9197	2.27359
42.0834	2.2925
43.1311	2.31777
44.1785	2.3367
45.2261	2.36197
46.3898	2.38088
47.4372	2.39981
48.4846	2.41873
49.6483	2.43764
50.6959	2.46291
51.8593	2.47548
52.9067	2.4944
54.0704	2.51332
55.1178	2.53224
56.2812	2.54481
57.3285	2.56373
58.4922	2.58265
59.5393	2.59523
