Adsorption isotherm of Nitrogen on FCOF-5
DOI: 10.1021/jacs.0c12505
Article source: Figure S8
Adsorbate Nitrogen: InChIKey IJGRMHOSHXDMSA-UHFFFAOYSA-N
Kind: experiment
Temperature: 77 K
Tabular data in the source: 0
pressure (bar)	uptake (cm3(STP)/g)
0	0.169492
0	0.653753
0.013982	2.15496
0.024673	2.46973
0.03701	2.7845
0.050169	3.07506
0.064151	3.31719
0.101161	3.80145
0.15133	4.43099
0.201499	5.03632
0.25249	5.61743
0.303482	6.19855
0.354473	6.75545
0.404642	7.36077
0.455634	7.91768
0.505803	8.47458
0.556794	9.05569
0.606963	9.58838
0.660422	10.2179
0.709768	10.8959
0.762405	11.5981
0.810929	12.6392
0.86192	13.8499
0.912912	15.5932
0	1.06537
0	1.52542
0.002467	1.98547
0.007402	2.46973
0.017271	2.83293
0.028786	3.17191
0.039477	3.43826
0.050991	3.65617
0.099516	4.38257
0.150507	5.01211
0.200676	5.61743
0.251668	6.17433
0.302659	6.68281
0.353651	7.2155
0.404642	7.74818
0.454811	8.35351
0.505803	9.10412
0.555972	9.70944
0.606963	10.339
0.657955	11.0169
0.709768	11.7918
0.759937	12.5666
0.811751	13.5109
0.86192	14.6731
0.912912	16.4649
0.963903	19.9274
