Adsorption isotherm of Tetrahydrofuran on FCOF-5
DOI: 10.1021/jacs.0c12505
Article source: Figure 3
Adsorbate Tetrahydrofuran: InChIKey WYURNTSHIVDZCO-UHFFFAOYSA-N
Kind: experiment
Temperature: 298 K
Tabular data in the source: 0
pressure (bar)	uptake (cm3(STP)/g)
0.000985	1.25145
0.001478	4.44959
0.001971	6.81344
0.002463	9.45539
0.003285	14.7393
0.003777	19.7451
0.00427	24.4728
0.005091	29.3395
0.00542	33.7891
0.006241	38.6559
0.007062	43.1054
0.008704	48.5284
0.010839	52.6999
0.015602	57.7057
0.019379	59.6524
0.02332	61.7381
0.03728	65.9096
0.054195	69.2468
0.065034	71.3326
0.077844	73.4183
0.091803	75.5041
0.105434	77.5898
0.119558	79.8146
0.133189	82.0394
0.149612	85.5156
0.1616	90.5214
0.174574	98.8644
0.187056	109.571
0.194939	117.497
0.001478	38.2387
0.001807	40.0463
0.002299	41.5759
0.004106	45.6083
0.00542	47.8331
0.009361	53.3951
0.014945	57.9838
0.031532	65.0753
0.061586	71.7497
0.073738	74.3917
0.088519	77.0336
0.104449	84.2642
0.116766	92.7462
0.130233	100.116
0.142057	104.705
0.155852	108.598
0.171947	111.24
0.190669	115.968
