Adsorption isotherm of Oxygen on LiLSX Zeolite
DOI: 10.1016/j.seppur.2017.06.041
Article source: Figure 1
Adsorbate Oxygen: InChIKey MYMOFIZGZYHOMD-UHFFFAOYSA-N
Kind: experiment
Temperature: 298 K
Tabular data in the source: 0
pressure (bar)	uptake (mmol/g)
0.18037	0.02548
0.35136	0.0413
0.59513	0.07566
0.92016	0.11889
1.15901	0.14475
1.35054	0.171
1.53047	0.19339
1.70726	0.21848
1.93005	0.24203
2.18096	0.27214
2.49125	0.31189
