Adsorption isotherm of Nitrogen on LiLSX Zeolite
DOI: 10.1016/j.seppur.2017.06.041
Article source: Figure 1
Adsorbate Nitrogen: InChIKey IJGRMHOSHXDMSA-UHFFFAOYSA-N
Kind: experiment
Temperature: 308 K
Tabular data in the source: 0
pressure (bar)	uptake (mmol/g)
0.07638	0.06871
0.15275	0.12893
0.31353	0.24627
0.59219	0.41033
0.87397	0.54697
1.15751	0.662
1.42676	0.75657
1.7469	0.85269
2.00141	0.92565
2.22019	0.97891
2.493	1.05033
