Adsorption isotherm of Nitrogen on LiLSX Zeolite
DOI: 10.1016/j.seppur.2017.06.041
Article source: Figure 1
Adsorbate Nitrogen: InChIKey IJGRMHOSHXDMSA-UHFFFAOYSA-N
Kind: experiment
Temperature: 303 K
Tabular data in the source: 0
pressure (bar)	uptake (mmol/g)
0.06968	0.07334
0.12016	0.13008
0.25684	0.24897
0.52792	0.43928
0.87535	0.62456
1.24508	0.78244
1.58264	0.89978
1.88984	0.99397
2.15193	1.06384
2.3725	1.11903
2.49528	1.14142
