Adsorption isotherm of Oxygen on LiLSX Zeolite
DOI: 10.1016/j.seppur.2017.06.041
Article source: Figure 1
Adsorbate Oxygen: InChIKey MYMOFIZGZYHOMD-UHFFFAOYSA-N
Kind: experiment
Temperature: 308 K
Tabular data in the source: 0
pressure (bar)	uptake (mmol/g)
0.17947	0.01698
0.37413	0.03821
0.60941	0.06678
0.863	0.09457
1.14159	0.12275
1.39696	0.15016
1.64162	0.17641
1.83493	0.19571
2.03405	0.21616
2.24701	0.2401
2.49479	0.26133
