Adsorption isotherm of Nitrogen on LiLSX Zeolite
DOI: 10.1016/j.seppur.2017.06.041
Article source: Figure 1
Adsorbate Nitrogen: InChIKey IJGRMHOSHXDMSA-UHFFFAOYSA-N
Kind: experiment
Temperature: 298 K
Tabular data in the source: 0
pressure (bar)	uptake (mmol/g)
0.13581	0.17023
0.18584	0.22041
0.24256	0.27522
0.31314	0.33853
0.39666	0.40994
0.62934	0.57013
0.94104	0.74461
1.3014	0.9021
1.68719	1.04068
2.07207	1.15339
2.25603	1.21052
2.34444	1.24024
2.49268	1.29119
