Adsorption isotherm of Oxygen on LiLSX Zeolite
DOI: 10.1016/j.seppur.2017.06.041
Article source: Figure 1
Adsorbate Oxygen: InChIKey MYMOFIZGZYHOMD-UHFFFAOYSA-N
Kind: experiment
Temperature: 293 K
Tabular data in the source: 0
pressure (bar)	uptake (mmol/g)
0.17055	0.03011
0.34557	0.05752
0.57371	0.08762
0.8648	0.12429
1.11929	0.15942
1.32689	0.18799
1.50592	0.21346
1.69254	0.23971
1.88274	0.26403
2.12472	0.29182
2.49215	0.33428
