Adsorption isotherm of Nitrogen on LiLSX Zeolite
DOI: 10.1016/j.seppur.2017.06.041
Article source: Figure 1
Adsorbate Nitrogen: InChIKey IJGRMHOSHXDMSA-UHFFFAOYSA-N
Kind: experiment
Temperature: 293 K
Tabular data in the source: 0
pressure (bar)	uptake (mmol/g)
0.12064	0.18027
0.15637	0.21694
0.19613	0.26789
0.30692	0.39334
0.51327	0.58596
0.88439	0.83339
1.50241	1.11093
2.23289	1.34331
2.49366	1.43286
