Adsorption isotherm of Oxygen on LiLSX Zeolite
DOI: 10.1016/j.seppur.2017.06.041
Article source: Figure 1
Adsorbate Oxygen: InChIKey MYMOFIZGZYHOMD-UHFFFAOYSA-N
Kind: experiment
Temperature: 303 K
Tabular data in the source: 0
pressure (bar)	uptake (mmol/g)
0.23796	0.02663
0.45762	0.05211
0.64558	0.07604
0.82505	0.09612
1.03266	0.12005
1.30678	0.15131
1.51662	0.17563
1.71975	0.19918
1.91709	0.22118
2.15371	0.24897
2.49391	0.28256
