Adsorption isotherm of Hydrogen on SNU-6
DOI: 10.1039/C2cc17005a
Adsorbate Hydrogen: InChIKey UFHFLCQGNIYNRP-UHFFFAOYSA-N
Temperature: 77 K
Tabular data in the source: 0
pressure (bar)	uptake (cm3(STP)/g)
0.00456419	14.4068
0.0136926	20.339
0.0182568	27.9661
0.0319493	32.2034
0.0410777	38.1356
0.0547703	44.9153
0.0775912	50.8475
0.0912838	55.9322
0.109541	62.7119
0.150618	75.4237
0.209953	86.4407
0.260159	96.6102
0.310365	105.085
0.365135	113.559
0.401649	120.339
0.460983	127.966
0.515753	134.746
0.570524	140.678
0.616166	146.61
0.716578	156.78
0.766784	162.712
0.821554	166.949
0.858068	173.729
0.921966	177.966
0.976736	183.898
