Adsorption isotherm of Nitrogen on 1.2(18C6)SNU-6
DOI: 10.1039/C2cc17005a
Adsorbate Nitrogen: InChIKey IJGRMHOSHXDMSA-UHFFFAOYSA-N
Temperature: 77 K
Tabular data in the source: 0
pressure (bar)	uptake (cm3(STP)/g)
0.00434871	0.00434871
0.0130461	103.279
0.0347897	129.098
0.0652307	137.705
0.108718	140.574
0.165251	143.443
0.213087	143.443
0.260923	149.18
0.313107	149.18
0.369641	149.18
0.417476	152.049
0.465312	152.049
0.513148	152.049
0.565333	157.787
0.613168	157.787
0.669702	157.787
0.717538	160.656
0.765373	160.656
0.821907	160.656
0.874091	157.787
0.926276	160.656
