Adsorption isotherm of Hydrogen on 0.3(15C5)SNU-6
DOI: 10.1039/C2cc17005a
Adsorbate Hydrogen: InChIKey UFHFLCQGNIYNRP-UHFFFAOYSA-N
Temperature: 87 K
Tabular data in the source: 0
pressure (bar)	uptake (cm3(STP)/g)
0.113086	28.2713
0.15832	34.3576
0.208078	39.3304
0.262359	45.9673
0.307594	50.3869
0.366398	55.3547
0.416156	59.7718
0.461391	64.747
0.511148	68.6086
0.569953	71.9097
0.615188	76.3294
0.664945	79.0799
0.719227	81.8279
0.773508	85.1314
0.823266	88.4375
0.873023	91.188
0.922781	94.494
0.968016	97.8026
1.01325	100.556
