Adsorption isotherm of Hydrogen on 1.2(18C6)SNU-6
DOI: 10.1039/C2cc17005a
Adsorbate Hydrogen: InChIKey UFHFLCQGNIYNRP-UHFFFAOYSA-N
Temperature: 298 K
Tabular data in the source: 0
pressure (bar)	uptake (mg/m2)
5.42845	0.000164315
10.3981	0.000414821
15.5962	0.000636616
20.5683	0.000848766
25.0915	0.000993686
30.2914	0.00118671
35.4895	0.00140851
40.0096	0.00160137
45.4362	0.00179445
50.1842	0.00196819
55.1606	0.00211322
60.1346	0.00229661
64.8844	0.00244158
69.859	0.00261538
75.0608	0.00277964
79.81	0.0029342
84.7858	0.00308882
