Adsorption isotherm of Nitrogen on SNU-6
DOI: 10.1039/C2cc17005a
Adsorbate Nitrogen: InChIKey IJGRMHOSHXDMSA-UHFFFAOYSA-N
Temperature: 77 K
Tabular data in the source: 0
pressure (bar)	uptake (cm3(STP)/g)
0	341.393
0.00434871	367.213
0.00869742	436.066
0.0217436	516.393
0.0391384	545.082
0.060882	559.426
0.0869742	573.77
0.0956717	582.377
0.143508	593.852
0.200041	599.59
0.256574	605.328
0.30441	611.066
0.356594	613.934
0.408779	616.803
0.456615	619.672
0.504451	622.541
0.560984	628.279
0.613168	631.148
0.661004	634.016
0.717538	636.885
0.761025	636.885
0.817558	636.885
0.874091	642.623
0.921927	642.623
