Adsorption isotherm of Hydrogen on 0.4(18C6)SNU-6
DOI: 10.1039/C2cc17005a
Adsorbate Hydrogen: InChIKey UFHFLCQGNIYNRP-UHFFFAOYSA-N
Temperature: 298 K
Tabular data in the source: 0
pressure (bar)	uptake (wt%)
0.670391	0.0032967
5.58659	0.00769231
10.2793	0.0285714
15.6425	0.056044
19.8883	0.0736264
25.0279	0.1
29.9441	0.116484
35.0838	0.135165
40.2235	0.159341
45.1397	0.175824
50.0559	0.193407
55.419	0.214286
59.8883	0.231868
65.0279	0.249451
70.1676	0.265934
74.6369	0.283516
80.4469	0.3
