Adsorption isotherm of Nitrogen on 0.4(18C6)SNU-6
DOI: 10.1039/C2cc17005a
Adsorbate Nitrogen: InChIKey IJGRMHOSHXDMSA-UHFFFAOYSA-N
Temperature: 77 K
Tabular data in the source: 0
pressure (bar)	uptake (cm3(STP)/g)
0.00869742	209.426
0.0173948	249.59
0.0434871	324.18
0.0695794	341.393
0.091323	347.131
0.152205	355.738
0.204389	358.607
0.247877	364.344
0.356594	370.082
0.417476	372.951
0.456615	375.82
0.513148	375.82
0.560984	375.82
0.613168	381.557
0.665353	384.426
0.704491	384.426
0.769722	384.426
0.817558	390.164
0.869742	390.164
0.926276	390.164
