Adsorption isotherm of Hydrogen on SNU-6
DOI: 10.1039/C2cc17005a
Adsorbate Hydrogen: InChIKey UFHFLCQGNIYNRP-UHFFFAOYSA-N
Temperature: 298 K
Tabular data in the source: 0
pressure (bar)	uptake (wt%)
0.223464	0.0153846
1.11732	0.0318681
5.13966	0.0648352
9.8324	0.0868132
14.7486	0.110989
19.6648	0.128571
30.1676	0.167033
40.2235	0.203297
44.6927	0.215385
61.676	0.268132
69.9441	0.295604
74.8603	0.306593
79.5531	0.317582
