Adsorption isotherm of Hydrogen on 0.5(15C5)SNU-6
DOI: 10.1039/C2cc17005a
Adsorbate Hydrogen: InChIKey UFHFLCQGNIYNRP-UHFFFAOYSA-N
Temperature: 77 K
Tabular data in the source: 0
pressure (bar)	uptake (cm3(STP)/g)
0.013817	18.7103
0.0368455	26.0458
0.0690852	35.0148
0.0921136	41.5373
0.105931	45.6135
0.151987	53.7805
0.20265	62.7642
0.253312	70.935
0.299369	77.476
0.359243	84.0281
0.409906	90.5728
0.455962	94.6748
0.511231	100.41
0.561893	105.329
0.612556	110.248
0.667824	114.357
0.713881	118.459
0.764543	122.565
0.815206	125.857
0.856657	129.143
0.916531	133.256
0.971799	135.739
1.01325	139.024
