Adsorption isotherm of Hydrogen on 1.5(18C6)SNU-6
DOI: 10.1039/C2cc17005a
Adsorbate Hydrogen: InChIKey UFHFLCQGNIYNRP-UHFFFAOYSA-N
Temperature: 77 K
Tabular data in the source: 0
pressure (bar)	uptake (cm3(STP)/g)
0.0319493	0.847458
0.0638986	1.69492
0.118669	1.69492
0.164311	3.38983
0.219081	3.38983
0.264723	3.38983
0.310365	4.23729
0.369699	5.08475
0.410777	5.08475
0.470111	5.9322
0.520318	6.77966
0.565959	7.62712
0.616166	8.47458
0.670936	7.62712
0.721142	8.47458
0.766784	8.47458
0.826118	9.32203
0.876324	10.1695
0.931095	9.32203
0.976736	10.1695
1.01325	11.0169
