Adsorption isotherm of Hydrogen on SNU-6
DOI: 10.1039/C2cc17005a
Adsorbate Hydrogen: InChIKey UFHFLCQGNIYNRP-UHFFFAOYSA-N
Temperature: 77 K
Tabular data in the source: 0
pressure (bar)	uptake (cm3(STP)/g)
0.00525	5.27555
0.0105	7.61856
0.021	12.3046
0.028875	15.8191
0.03675	21.6796
0.0525	26.9491
0.06825	33.3916
0.0945	43.9336
0.13125	54.4695
0.175875	76.1445
0.23625	87.8398
0.315	110.082
0.422625	131.72
0.567	155.684
0.756	177.275
1.008	201.763
