Adsorption isotherm of Hydrogen on 1.5(18C6)SNU-6
DOI: 10.1039/C2cc17005a
Adsorbate Hydrogen: InChIKey UFHFLCQGNIYNRP-UHFFFAOYSA-N
Temperature: 87 K
Tabular data in the source: 0
pressure (bar)	uptake (cm3(STP)/g)
0.0367154	2.82486
0.0689291	3.38983
0.105749	3.9548
0.165622	3.9548
0.216233	5.08475
0.271527	4.51977
0.312926	5.64972
0.358931	6.77966
0.414199	6.77966
0.46481	7.9096
0.520078	7.9096
0.570714	8.47458
0.625982	8.47458
0.667434	8.47458
0.72265	9.60452
0.773286	10.1695
0.823923	10.7345
0.874585	10.7345
0.925222	11.2994
0.985095	11.2994
