Adsorption isotherm of Nitrogen on 0.5(15C5)SNU-6
DOI: 10.1039/C2cc17005a
Adsorbate Nitrogen: InChIKey IJGRMHOSHXDMSA-UHFFFAOYSA-N
Temperature: 77 K
Tabular data in the source: 0
pressure (bar)	uptake (cm3(STP)/g)
0.00425735	246.547
0.00851471	260.705
0.0298015	416.516
0.0425735	444.82
0.0681176	450.417
0.0851471	456.037
0.0979191	464.503
0.153265	470.017
0.204353	475.542
0.251184	481.079
0.302272	480.936
0.357618	483.615
0.412963	486.294
0.464051	486.151
0.506625	494.534
0.566228	494.368
0.617316	494.225
0.651375	494.13
0.715235	496.785
0.766324	496.642
0.817412	499.333
0.864243	499.202
0.915331	496.225
