Adsorption isotherm of Hydrogen on 0.3(15C5)SNU-6
DOI: 10.1039/C2cc17005a
Adsorbate Hydrogen: InChIKey UFHFLCQGNIYNRP-UHFFFAOYSA-N
Temperature: 77 K
Tabular data in the source: 0
pressure (bar)	uptake (cm3(STP)/g)
0.0368455	30.1109
0.0552682	38.2557
0.0736909	44.7746
0.0967193	49.6711
0.151987	61.9106
0.20265	72.5203
0.253312	80.6911
0.308581	90.4915
0.363849	97.8529
0.4053	105.203
0.460568	110.939
0.511231	116.67
0.552682	121.582
0.612556	126.508
0.713881	137.158
0.759937	141.26
0.8106	150.244
0.856657	155.159
0.907319	159.265
0.967193	163.378
1.01325	166.667
