Adsorption isotherm of Hydrogen on 0.9(15C5)SNU-6
DOI: 10.1039/C2cc17005a
Adsorbate Hydrogen: InChIKey UFHFLCQGNIYNRP-UHFFFAOYSA-N
Temperature: 77 K
Tabular data in the source: 0
pressure (bar)	uptake (cm3(STP)/g)
0.013817	11.3932
0.0276341	17.9084
0.0552682	25.2476
0.0829023	30.1478
0.105931	35.0443
0.151987	43.2114
0.207256	50.5728
0.262524	57.9342
0.313186	63.6659
0.359243	68.5809
0.409906	74.3126
0.460568	77.6053
0.511231	82.524
0.566499	86.6334
0.60795	89.9187
0.658612	94.8374
0.713881	98.1338
0.764543	101.426
0.819811	103.91
0.870474	108.016
0.921136	111.308
0.971799	114.601
1.01325	116.26
