Adsorption isotherm of Hydrogen on 1.3(15C5)SNU-6
DOI: 10.1039/C2cc17005a
Adsorbate Hydrogen: InChIKey UFHFLCQGNIYNRP-UHFFFAOYSA-N
Temperature: 87 K
Tabular data in the source: 0
pressure (bar)	uptake (cm3(STP)/g)
0.0316641	2.76042
0.0678516	5.51835
0.113086	7.71577
0.162844	8.7996
0.208078	10.997
0.257836	12.0809
0.316641	12.6042
0.366398	14.2436
0.416156	15.3274
0.465914	16.9668
0.511148	16.942
0.56543	18.5789
0.619711	19.6602
0.669469	20.1885
0.719227	20.7168
0.773508	22.3537
0.823266	22.8819
0.873023	23.4102
0.977063	25.5754
1.01325	26.6667
