Adsorption isotherm of Nitrogen on 0.3(18C6)SNU-6
DOI: 10.1039/C2cc17005a
Adsorbate Nitrogen: InChIKey IJGRMHOSHXDMSA-UHFFFAOYSA-N
Temperature: 77 K
Tabular data in the source: 0
pressure (bar)	uptake (cm3(STP)/g)
0.00434871	321.311
0.0130461	390.164
0.0260923	418.852
0.0347897	433.197
0.0652307	444.672
0.0869742	453.279
0.10002	456.148
0.147856	467.623
0.204389	473.361
0.256574	476.23
0.308759	484.836
0.356594	487.705
0.413128	493.443
0.456615	490.574
0.513148	496.311
0.556635	499.18
0.600122	502.049
0.661004	507.787
0.70884	504.918
0.769722	507.787
0.813209	510.656
0.869742	513.525
0.917578	513.525
