Adsorption isotherm of Hydrogen on 0.4(18C6)SNU-6
DOI: 10.1039/C2cc17005a
Adsorbate Hydrogen: InChIKey UFHFLCQGNIYNRP-UHFFFAOYSA-N
Temperature: 77 K
Tabular data in the source: 0
pressure (bar)	uptake (cm3(STP)/g)
0.00808444	3.47222
0.0107793	6.59722
0.0188637	10.0694
0.0269481	11.8056
0.0323378	14.2361
0.0404222	17.7083
0.0592859	20.4861
0.0781496	26.3889
0.102403	29.8611
0.134741	39.2361
0.177858	46.5278
0.242533	56.25
0.317988	62.5
0.425781	72.9167
0.568606	79.8611
0.751853	90.9722
1.00786	104.514
