Adsorption isotherm of Hydrogen on 0.4(18C6)SNU-6
DOI: 10.1039/C2cc17005a
Adsorbate Hydrogen: InChIKey UFHFLCQGNIYNRP-UHFFFAOYSA-N
Temperature: 87 K
Tabular data in the source: 0
pressure (bar)	uptake (cm3(STP)/g)
0.0318495	8.47458
0.0501421	11.2994
0.0729883	15.2542
0.104994	20.339
0.16466	24.8588
0.205877	29.9435
0.265594	33.3333
0.311417	38.4181
0.361949	41.2429
0.41243	45.1977
0.462936	48.5876
0.508863	51.4124
0.568607	54.2373
0.619113	57.6271
0.66504	60.452
0.715546	63.8418
0.770632	67.7966
0.821216	69.4915
0.871749	72.3164
0.926913	74.5763
0.96826	76.8362
1.01421	79.096
