Adsorption isotherm of Nitrogen on 1.5(18C6)SNU-6
DOI: 10.1039/C2cc17005a
Adsorbate Nitrogen: InChIKey IJGRMHOSHXDMSA-UHFFFAOYSA-N
Temperature: 77 K
Tabular data in the source: 0
pressure (bar)	uptake (cm3(STP)/g)
0.00869742	11.4754
0.0260923	25.8197
0.0565333	28.6885
0.108718	28.6885
0.165251	31.5574
0.213087	31.5574
0.26962	28.6885
0.313107	31.5574
0.365292	31.5574
0.413128	31.5574
0.465312	31.5574
0.513148	31.5574
0.569681	34.4262
0.617517	37.2951
0.665353	34.4262
0.704491	48.7705
0.765373	48.7705
0.834953	51.6393
0.869742	51.6393
0.921927	54.5082
