Adsorption isotherm of Hydrogen on 1.2(18C6)SNU-6
DOI: 10.1039/C2cc17005a
Adsorbate Hydrogen: InChIKey UFHFLCQGNIYNRP-UHFFFAOYSA-N
Temperature: 298 K
Tabular data in the source: 0
pressure (bar)	uptake (wt%)
4.9162	0.010989
7.82123	0.0241758
10.5028	0.0252747
12.514	0.0395604
15.6425	0.0428571
20.1117	0.0549451
25.0279	0.0626374
29.4972	0.0758242
35.0838	0.0901099
40.2235	0.1
45.5866	0.110989
50.2793	0.121978
54.9721	0.134066
60.3352	0.145055
64.581	0.154945
70.6145	0.165934
75.0838	0.178022
80	0.185714
85.3631	0.197802
