Adsorption isotherm of Nitrogen on 0.9(15C5)SNU-6
DOI: 10.1039/C2cc17005a
Adsorbate Nitrogen: InChIKey IJGRMHOSHXDMSA-UHFFFAOYSA-N
Temperature: 77 K
Tabular data in the source: 0
pressure (bar)	uptake (cm3(STP)/g)
0.00851471	195.523
0.0127721	280.531
0.0212868	323.017
0.0425735	345.63
0.0681176	356.894
0.102176	362.467
0.153265	370.826
0.204353	376.352
0.259699	379.031
0.306529	381.734
0.361875	384.413
0.408706	384.282
0.459794	384.139
0.510882	389.664
0.561971	386.687
0.613059	389.378
0.655632	389.259
0.710978	389.105
0.762066	388.962
0.817412	388.807
0.864243	391.51
0.919588	388.521
