Adsorption isotherm of Hydrogen on 1.2(18C6)SNU-6
DOI: 10.1039/C2cc17005a
Adsorbate Hydrogen: InChIKey UFHFLCQGNIYNRP-UHFFFAOYSA-N
Temperature: 87 K
Tabular data in the source: 0
pressure (bar)	uptake (cm3(STP)/g)
0.0779323	7.9096
0.114726	9.03955
0.160678	11.2994
0.211237	13.5593
0.266453	14.6893
0.312406	16.9492
0.367596	18.6441
0.41818	20.339
0.468739	22.5989
0.51477	23.1638
0.56996	24.8588
0.620544	26.5537
0.671129	28.2486
0.717159	28.8136
0.767718	31.0734
0.818328	32.2034
0.873492	34.4633
0.928708	35.5932
0.979319	36.7232
