Adsorption isotherm of Hydrogen on SNU-6
DOI: 10.1039/C2cc17005a
Adsorbate Hydrogen: InChIKey UFHFLCQGNIYNRP-UHFFFAOYSA-N
Temperature: 298 K
Tabular data in the source: 0
pressure (bar)	uptake (mg/m2)
1.58017	9.63e-05
5.1981	0.000221794
9.95289	0.000290057
30.3318	0.000563436
40.0692	0.000680839
61.3559	0.000935257
69.9633	0.00100444
