Adsorption isotherm of Hydrogen on 0.4(18C6)SNU-6
DOI: 10.1039/C2cc17005a
Adsorbate Hydrogen: InChIKey UFHFLCQGNIYNRP-UHFFFAOYSA-N
Temperature: 298 K
Tabular data in the source: 0
pressure (bar)	uptake (mg/m2)
1.58514	1.96e-05
5.66377	3.01e-05
10.4142	0.00016551
16.0693	0.00032988
20.1423	0.000426746
25.3448	0.000581418
30.5497	0.000697735
35.0748	0.000813888
40.2797	0.000930204
45.484	0.00105611
50.0103	0.00115308
55.4413	0.00127904
60.1942	0.00137607
64.9459	0.00149228
69.9254	0.00158937
75.131	0.00169609
