Adsorption isotherm of Hydrogen on 1.2(18C6)SNU-6
DOI: 10.1039/C2cc17005a
Adsorbate Hydrogen: InChIKey UFHFLCQGNIYNRP-UHFFFAOYSA-N
Temperature: 77 K
Tabular data in the source: 0
pressure (bar)	uptake (cm3(STP)/g)
0.0319493	8.47458
0.0593345	11.8644
0.109541	15.2542
0.168875	19.4915
0.214517	22.0339
0.264723	25.4237
0.314929	29.661
0.360571	31.3559
0.419905	33.0508
0.470111	36.4407
0.520318	38.1356
0.570524	40.678
0.611601	41.5254
0.6755	44.0678
0.721142	46.6102
0.771348	47.4576
0.821554	48.3051
0.876324	51.6949
0.92653	54.2373
0.972172	55.9322
