Adsorption isotherm of Hydrogen on 0.3(18C6)SNU-6
DOI: 10.1039/C2cc17005a
Adsorbate Hydrogen: InChIKey UFHFLCQGNIYNRP-UHFFFAOYSA-N
Temperature: 87 K
Tabular data in the source: 0
pressure (bar)	uptake (cm3(STP)/g)
0.0453282	15.8192
0.0635688	19.774
0.0818614	22.5989
0.104656	27.6836
0.155058	33.3333
0.205486	38.4181
0.255915	43.5028
0.310975	48.0226
0.366035	52.5424
0.411909	56.4972
0.462364	61.0169
0.512844	64.9718
0.563376	67.7966
0.618462	71.7514
0.668995	74.5763
0.714922	77.4011
0.765454	80.226
0.82054	84.1808
0.871072	87.0056
0.916973	90.3955
0.953714	92.6554
1.01348	94.9153
