Adsorption isotherm of Nitrogen on 0.3(15C5)SNU-6
DOI: 10.1039/C2cc17005a
Adsorbate Nitrogen: InChIKey IJGRMHOSHXDMSA-UHFFFAOYSA-N
Temperature: 77 K
Tabular data in the source: 0
pressure (bar)	uptake (cm3(STP)/g)
0.00851471	345.725
0.0212868	493.058
0.0383162	535.52
0.0596029	549.631
0.0851471	558.061
0.14475	574.899
0.200096	583.246
0.246926	585.949
0.302272	597.13
0.349103	602.667
0.400191	599.69
0.447022	605.227
0.506625	607.895
0.561971	607.74
0.613059	610.431
0.655632	615.98
0.710978	615.825
0.753551	618.54
0.817412	621.196
0.859985	621.076
0.911074	623.768
