Adsorption isotherm of Nitrogen on 1.3(15C5)SNU-6
DOI: 10.1039/C2cc17005a
Adsorbate Nitrogen: InChIKey IJGRMHOSHXDMSA-UHFFFAOYSA-N
Temperature: 77 K
Tabular data in the source: 0
pressure (bar)	uptake (cm3(STP)/g)
0.00851471	76.4944
0.0212868	107.633
0.0425735	118.909
0.072375	127.328
0.110691	124.387
0.157522	129.924
0.20861	132.615
0.255441	132.484
0.319301	132.305
0.361875	137.854
0.412963	137.711
0.459794	140.414
0.51514	137.426
0.566228	137.283
0.617316	139.974
0.710978	145.38
0.762066	148.071
0.808897	147.94
0.859985	150.631
0.919588	150.464
