Adsorption isotherm of Hydrogen on SNU-6
DOI: 10.1039/C2cc17005a
Adsorbate Hydrogen: InChIKey UFHFLCQGNIYNRP-UHFFFAOYSA-N
Temperature: 87 K
Tabular data in the source: 0
pressure (bar)	uptake (cm3(STP)/g)
0.00882105	8.47458
0.0178503	12.4294
0.0360128	18.0791
0.0495956	23.1638
0.0723899	28.2486
0.113503	35.5932
0.159247	42.3729
0.214177	49.7175
0.255342	55.9322
0.31035	61.5819
0.356121	67.7966
0.415708	74.0113
0.461557	78.5311
0.512011	83.0508
0.56244	88.1356
0.617526	92.0904
0.66798	96.6102
0.713881	100
0.764413	102.825
0.819473	107.345
0.874611	110.169
0.915802	115.819
0.970862	120.339
1.01224	122.034
