Adsorption isotherm of Hydrogen on 0.4(18C6)SNU-6
DOI: 10.1039/C2cc17005a
Adsorbate Hydrogen: InChIKey UFHFLCQGNIYNRP-UHFFFAOYSA-N
Temperature: 77 K
Tabular data in the source: 0
pressure (bar)	uptake (cm3(STP)/g)
0.0319493	17.7966
0.0638986	26.2712
0.114105	36.4407
0.155182	42.3729
0.205389	50.8475
0.260159	56.7797
0.314929	62.7119
0.360571	66.9492
0.419905	71.1864
0.465547	77.1186
0.511189	80.5085
0.565959	84.7458
0.62073	88.1356
0.666372	92.3729
0.716578	94.9153
0.771348	97.4576
0.81699	100.847
0.876324	103.39
0.912838	109.322
0.972172	111.864
1.01781	114.407
