Adsorption isotherm of Hydrogen on 0.3(18C6)SNU-6
DOI: 10.1039/C2cc17005a
Adsorbate Hydrogen: InChIKey UFHFLCQGNIYNRP-UHFFFAOYSA-N
Temperature: 77 K
Tabular data in the source: 0
pressure (bar)	uptake (cm3(STP)/g)
0.0365135	27.1186
0.0547703	31.3559
0.0775912	37.2881
0.0821554	39.8305
0.104976	45.7627
0.159747	56.7797
0.209953	64.4068
0.260159	72.0339
0.305801	79.661
0.356007	85.5932
0.406213	92.3729
0.456419	99.1525
0.506625	103.39
0.565959	108.475
0.611601	112.712
0.666372	116.949
0.721142	122.034
0.766784	124.576
0.821554	129.661
0.87176	131.356
0.917402	136.441
0.972172	138.983
