Adsorption isotherm of Hydrogen on 0.3(15C5)SNU-6
DOI: 10.1039/C2cc17005a
Adsorbate Hydrogen: InChIKey UFHFLCQGNIYNRP-UHFFFAOYSA-N
Temperature: 77 K
Tabular data in the source: 0
pressure (bar)	uptake (cm3(STP)/g)
0.00559807	4.07881
0.0111961	7.13722
0.0167942	11.216
0.0223923	13.7642
0.0279903	17.843
0.0391865	22.4292
0.0531816	28.5446
0.0727749	36.1878
0.100765	42.8064
0.134354	61.1568
0.179138	68.2771
0.31909	97.7985
0.425453	116.623
0.562606	137.472
0.75294	153.703
1.01045	175.001
