Adsorption isotherm of Hydrogen on 1.3(15C5)SNU-6
DOI: 10.1039/C2cc17005a
Adsorbate Hydrogen: InChIKey UFHFLCQGNIYNRP-UHFFFAOYSA-N
Temperature: 77 K
Tabular data in the source: 0
pressure (bar)	uptake (cm3(STP)/g)
0.0184227	4.07982
0.0460568	8.16704
0.0782966	10.6319
0.105931	13.0931
0.156593	17.1988
0.211861	18.8692
0.262524	21.3489
0.313186	23.0155
0.363849	25.4952
0.414511	27.1619
0.460568	29.6378
0.520442	31.3119
0.566499	33.7879
0.617161	34.6415
0.663218	36.3045
0.718486	37.9749
0.759937	38.8211
0.819811	40.4952
0.87508	41.3525
0.921136	43.0155
0.967193	43.8655
