Adsorption isotherm of Hydrogen on 0.9(15C5)SNU-6
DOI: 10.1039/C2cc17005a
Adsorbate Hydrogen: InChIKey UFHFLCQGNIYNRP-UHFFFAOYSA-N
Temperature: 87 K
Tabular data in the source: 0
pressure (bar)	uptake (cm3(STP)/g)
0.0316641	8.87153
0.0542813	13.3036
0.0904688	16.6171
0.117609	19.38
0.162844	24.9107
0.212602	28.7723
0.262359	32.6339
0.316641	35.9375
0.361875	39.246
0.411633	43.1076
0.465914	45.8557
0.515672	48.6062
0.56543	51.3566
0.619711	53.5491
0.669469	56.8552
0.72375	59.6032
0.764461	61.8031
0.823266	63.9931
0.873023	66.7436
0.922781	69.494
0.977063	71.131
