Adsorption isotherm of Hydrogen on 0.5(15C5)SNU-6
DOI: 10.1039/C2cc17005a
Adsorbate Hydrogen: InChIKey UFHFLCQGNIYNRP-UHFFFAOYSA-N
Temperature: 87 K
Tabular data in the source: 0
pressure (bar)	uptake (cm3(STP)/g)
0.0452344	14.4196
0.0588047	16.0789
0.0814219	20.5109
0.108563	23.8294
0.153797	29.3601
0.208078	34.8859
0.257836	39.3031
0.312117	44.2733
0.361875	48.1349
0.411633	51.441
0.461391	55.3026
0.511148	58.6086
0.56543	61.3566
0.615188	64.1071
0.673992	67.4082
0.72375	69.6032
0.764461	76.2475
0.823266	79.5486
0.877547	82.2966
0.922781	85.0496
0.981586	87.7951
1.01325	90
