Adsorption isotherm of Nitrogen on IRMOF-3
DOI: 10.1016/j.cej.2011.11.048
Adsorbate Nitrogen: InChIKey IJGRMHOSHXDMSA-UHFFFAOYSA-N
Temperature: 77 K
Tabular data in the source: 0
pressure (bar)	uptake (cm3(STP)/g)
0	2.8169
0.0022779	112.676
0.0205011	152.113
0.0728929	169.014
0.118451	174.648
0.138952	169.014
0.182232	174.648
0.248292	177.465
0.350797	180.282
0.446469	185.915
0.601367	188.732
0.699317	183.099
0.799544	191.549
0.84738	200
0.904328	205.634
0.949886	233.803
0.981777	261.972
0.995444	290.141
