Adsorption isotherm of Nitrogen on IRMOF-3
DOI: 10.1016/j.cej.2011.11.048
Adsorbate Nitrogen: InChIKey IJGRMHOSHXDMSA-UHFFFAOYSA-N
Temperature: 77 K
Tabular data in the source: 0
pressure (bar)	uptake (cm3(STP)/g)
0	2.8169
0.0022779	402.817
0.00455581	95.7746
0.00683371	594.366
0.0159453	639.437
0.0432802	678.873
0.120729	707.042
0.205011	712.676
0.302961	721.127
0.455581	723.944
0.555809	726.761
0.67426	726.761
0.722096	726.761
0.822323	726.761
0.922551	729.577
0.993166	732.394
