Adsorption isotherm of P-Xylene on MIL-47
DOI: 10.1002/chem.200802672
Adsorbate P-Xylene: InChIKey URLKBWYHVLBVBO-UHFFFAOYSA-N
Temperature: 383 K
Tabular data in the source: 0
pressure (bar)	uptake (wt%)
0.00103435	21.3119
0.00138393	23.7589
0.00199569	25.9438
0.00295704	27.1673
0.00383099	28.8278
0.0053167	30.8379
0.00723939	32.1488
0.0124831	34.2463
0.0165033	34.7707
0.0264663	35.9942
