Adsorption isotherm of Ethylbenzene on MIL-53(Al)
DOI: 10.1002/chem.200802672
Adsorbate Ethylbenzene: InChIKey YNQLUTRBYVCPMQ-UHFFFAOYSA-N
Temperature: 383 K
Tabular data in the source: 0
pressure (bar)	uptake (wt%)
7.02e-05	7.50347
0.000142	15.7186
0.000358	16.7673
0.00119829	18.253
0.00237522	21.8362
0.00417263	22.9724
0.0057576	23.5841
0.013139	25.1572
0.0208723	26.643
0.0318492	27.7791
