Adsorption isotherm of Ethylbenzene on MIL-53(Al)
DOI: 10.1002/chem.200802672
Adsorbate Ethylbenzene: InChIKey YNQLUTRBYVCPMQ-UHFFFAOYSA-N
Temperature: 383 K
Tabular data in the source: 0
pressure (bar)	uptake (wt%)
-1.44e-05	0.162291
0.00016	15.369
0.000248	7.50347
0.000423	17.5539
0.00112174	18.1657
0.00234527	21.6614
0.00444275	23.322
0.00654023	24.1085
0.0137066	25.332
0.0331957	27.5169
