Adsorption isotherm of Ethylbenzene on MIL-53(Al)
DOI: 10.1002/chem.200802672
Adsorbate Ethylbenzene: InChIKey YNQLUTRBYVCPMQ-UHFFFAOYSA-N
Temperature: 383 K
Tabular data in the source: 0
pressure (bar)	uptake (wt%)
0.000160399	7.59086
0.000335188	17.5539
0.00234527	22.011
0.00418057	23.2346
0.00584107	23.4967
0.00750158	24.2833
0.0103856	25.1572
0.0132696	24.9825
0.0168528	25.8564
0.0210478	26.5556
0.0331083	27.9539
