Adsorption isotherm of O-Xylene on MIL-53(Al)
DOI: 10.1002/chem.200802672
Adsorbate O-Xylene: InChIKey CTQNGGLPUBDAKN-UHFFFAOYSA-N
Temperature: 383 K
Tabular data in the source: 0
pressure (bar)	uptake (wt%)
4.08e-05	5.93036
8.25e-05	16.243
0.000204	17.7287
0.00158823	19.0396
0.00290468	36.0816
0.00400803	36.7808
0.00531231	37.9169
0.00704104	38.7909
0.0148251	40.7136
0.0250164	42.0245
