Adsorption isotherm of P-Xylene on MIL-53(Al)
DOI: 10.1002/chem.200802672
Adsorbate P-Xylene: InChIKey URLKBWYHVLBVBO-UHFFFAOYSA-N
Temperature: 383 K
Tabular data in the source: 0
pressure (bar)	uptake (wt%)
0.00016	-0.0998944
0.00016	10.3875
0.00016	14.8446
0.00112174	16.3304
0.0036562	17.1169
0.00697721	19.127
0.00889989	21.4867
0.0108226	29.7018
0.0120461	31.7119
0.0307486	35.732
