Adsorption isotherm of Ethylbenzene on MIL-47
DOI: 10.1002/chem.200802672
Adsorbate Ethylbenzene: InChIKey YNQLUTRBYVCPMQ-UHFFFAOYSA-N
Temperature: 383 K
Tabular data in the source: 0
pressure (bar)	uptake (wt%)
0.000335188	13.7959
0.000946953	18.4278
0.00217048	20.0883
0.00295704	20.7875
0.00584107	22.2732
0.00776376	22.885
0.0103856	23.4093
0.017989	24.4581
0.0294377	25.8564
0.0371285	26.206
