Adsorption isotherm of O-Xylene on MIL-53(Al)
DOI: 10.1002/chem.200802672
Adsorbate O-Xylene: InChIKey CTQNGGLPUBDAKN-UHFFFAOYSA-N
Temperature: 383 K
Tabular data in the source: 0
pressure (bar)	uptake (wt%)
-1.44e-05	0.162291
-1.44e-05	16.4178
7.3e-05	5.84296
0.00051	18.8648
0.00155872	19.2144
0.00295704	36.169
0.00400578	37.2178
0.00522931	38.3539
0.00951166	39.7522
0.0240192	42.1993
