Adsorption isotherm of P-Xylene on MIL-53(Al)
DOI: 10.1002/chem.200802672
Adsorbate P-Xylene: InChIKey URLKBWYHVLBVBO-UHFFFAOYSA-N
Temperature: 383 K
Tabular data in the source: 0
pressure (bar)	uptake (wt%)
-1.44e-05	14.8446
0.00112174	16.0682
0.00208309	16.6799
0.0070646	19.3018
0.00793855	20.5253
0.00855032	21.4867
0.0108226	30.3136
0.0117839	31.7993
0.0151923	33.3724
0.0305738	35.9942
