Adsorption isotherm of P-Xylene on MIL-53(Al)
DOI: 10.1002/chem.200802672
Adsorbate P-Xylene: InChIKey URLKBWYHVLBVBO-UHFFFAOYSA-N
Temperature: 383 K
Tabular data in the source: 0
pressure (bar)	uptake (wt%)
6.88e-05	10.5623
0.000139	14.932
0.000447	15.6312
0.00110561	16.1556
0.00219152	16.6799
0.00718416	19.2144
0.00878559	21.3993
0.0109624	30.3136
0.0116446	31.9741
0.0299834	35.9942
