Adsorption isotherm of M-Xylene on MIL-53(Al)
DOI: 10.1002/chem.200802672
Adsorbate M-Xylene: InChIKey IVSZLXZYQVIEFR-UHFFFAOYSA-N
Temperature: 383 K
Tabular data in the source: 0
pressure (bar)	uptake (wt%)
7.3e-05	4.35725
0.00016	15.1942
0.00051	16.5051
0.00348141	17.6413
0.00549149	17.9909
0.00688981	25.2446
0.00820073	30.4883
0.00951166	33.3724
0.0115217	33.722
0.0188629	35.5572
0.0303117	37.1304
