Adsorption isotherm of M-Xylene on MIL-53(Al)
DOI: 10.1002/chem.200802672
Adsorbate M-Xylene: InChIKey IVSZLXZYQVIEFR-UHFFFAOYSA-N
Temperature: 383 K
Tabular data in the source: 0
pressure (bar)	uptake (wt%)
5.51e-05	4.35725
0.000107	15.0194
0.000249	15.9808
0.00108359	16.8547
0.00452239	17.6413
0.0056429	18.253
0.00827089	30.4883
0.00991306	33.0228
0.0188743	35.6446
0.0305928	37.1304
