Adsorption isotherm of Hydrogen on ZIF-8
DOI: 10.1021/Jp908978q
Adsorbate Hydrogen: InChIKey UFHFLCQGNIYNRP-UHFFFAOYSA-N
Temperature: 300 K
Tabular data in the source: 0
pressure (bar)	uptake (mmol/g)
0.898204	0.00615133
2.06587	0.0274814
2.96407	0.0396933
5.02994	0.0671747
10.0599	0.14041
15	0.201515
20.0299	0.259599
25.0599	0.311622
30	0.363636
