Adsorption isotherm of Hydrogen on ZIF-8
DOI: 10.1021/Jp908978q
Adsorbate Hydrogen: InChIKey UFHFLCQGNIYNRP-UHFFFAOYSA-N
Temperature: 300 K
Tabular data in the source: 0
pressure (bar)	uptake (mmol/g)
2.0597	0.0557457
3.04478	0.10243
5.01493	0.177
10.0299	0.344602
14.9552	0.512232
20.0597	0.661009
24.9851	0.828639
30.0896	0.977416
