Adsorption isotherm of Hydrogen on IRMOF-1
DOI: 10.1021/Jp908978q
Adsorbate Hydrogen: InChIKey UFHFLCQGNIYNRP-UHFFFAOYSA-N
Temperature: 300 K
Tabular data in the source: 0
pressure (bar)	uptake (mmol/g)
1.07784	0.0182907
2.06587	0.0486935
2.96407	0.0699964
5.11976	0.106578
9.97006	0.222219
15	0.319697
20.0299	0.420205
25.0599	0.499501
30	0.590909
