Adsorption isotherm of Methane on ZIF-60
DOI: 10.1021/Jp908978q
Adsorbate Methane: InChIKey VNWKTOKETHGBQD-UHFFFAOYSA-N
Temperature: 300 K
Tabular data in the source: 0
pressure (bar)	uptake (mmol/g)
0.994576	0.318182
2.07944	0.681818
3.07402	1
5.15483	1.5
10.0395	2.77273
15.0175	3.68182
19.9959	4.54545
24.9756	5.22727
30.0467	5.81818
