Adsorption isotherm of Hydrogen on ZIF-67
DOI: 10.1021/Jp908978q
Adsorbate Hydrogen: InChIKey UFHFLCQGNIYNRP-UHFFFAOYSA-N
Temperature: 300 K
Tabular data in the source: 0
pressure (bar)	uptake (mmol/g)
2.0597	0.0557457
2.95522	0.0930591
5.01493	0.167602
9.9403	0.34463
15.0448	0.531001
19.9701	0.698631
24.9851	0.847436
30	1.01504
