Adsorption isotherm of Hydrogen on ZIF-8
DOI: 10.1021/Jp908978q
Adsorbate Hydrogen: InChIKey UFHFLCQGNIYNRP-UHFFFAOYSA-N
Temperature: 300 K
Tabular data in the source: 0
pressure (bar)	uptake (mmol/g)
8.53293	0.116013
12.1257	0.180013
16.976	0.238078
22.8144	0.299274
29.1018	0.360515
