Adsorption isotherm of Hydrogen on ZIF-60
DOI: 10.1021/Jp908978q
Adsorbate Hydrogen: InChIKey UFHFLCQGNIYNRP-UHFFFAOYSA-N
Temperature: 300 K
Tabular data in the source: 0
pressure (bar)	uptake (mmol/g)
1.16418	0.0560263
2.0597	0.0839412
3.04478	0.149422
5.19403	0.223937
10.0299	0.438587
15.0448	0.66258
19.9701	0.867804
24.9851	1.073
30	1.2782
