Adsorption isotherm of Methane on IRMOF-1
DOI: 10.1021/Jp908978q
Adsorbate Methane: InChIKey VNWKTOKETHGBQD-UHFFFAOYSA-N
Temperature: 300 K
Tabular data in the source: 0
pressure (bar)	uptake (mmol/g)
0.357143	0.179775
0.892857	0.404494
1.875	0.764045
2.94643	1.16854
4.91071	1.8427
9.91071	3.73034
15	5.34831
20.0893	6.83146
25	8.04494
30	9.03371
