Adsorption isotherm of Methane on ZIF-67
DOI: 10.1021/Jp908978q
Adsorbate Methane: InChIKey VNWKTOKETHGBQD-UHFFFAOYSA-N
Temperature: 300 K
Tabular data in the source: 0
pressure (bar)	uptake (mmol/g)
3.07264	1.18182
5.06214	1.77273
10.0378	3
15.1075	3.77273
20.0869	4.5
25.068	5
30.0498	5.40909
