Adsorption isotherm of Hydrogen on ZIF-3
DOI: 10.1021/Jp908978q
Adsorbate Hydrogen: InChIKey UFHFLCQGNIYNRP-UHFFFAOYSA-N
Temperature: 300 K
Tabular data in the source: 0
pressure (bar)	uptake (mmol/g)
2.0597	0.0745427
3.04478	0.130625
5.01493	0.205196
10.0299	0.41979
14.9552	0.615616
20.0597	0.811385
24.9851	0.997812
30	1.19361
