Adsorption isotherm of Methane on ZIF-8
DOI: 10.1021/Jp908978q
Adsorbate Methane: InChIKey VNWKTOKETHGBQD-UHFFFAOYSA-N
Temperature: 300 K
Tabular data in the source: 0
pressure (bar)	uptake (mmol/g)
3.11898	0.808989
5.34745	1.30337
7.75448	1.79775
10.9644	2.38202
15.2455	3.01124
20.5979	3.64045
25.9514	4.13483
31.3058	4.49438
