Adsorption isotherm of Methane on ZIF-3
DOI: 10.1021/Jp908978q
Adsorbate Methane: InChIKey VNWKTOKETHGBQD-UHFFFAOYSA-N
Temperature: 300 K
Tabular data in the source: 0
pressure (bar)	uptake (mmol/g)
0.363636	0.22869
1	0.594677
2	1.05247
3	1.46464
5	2.19772
10	3.61977
15.0909	4.63132
20.0909	5.36896
25.1818	5.96986
30.0909	6.4336
