Adsorption isotherm of Methane on IRMOF-1
DOI: 10.1021/Jp908978q
Adsorbate Methane: InChIKey VNWKTOKETHGBQD-UHFFFAOYSA-N
Temperature: 300 K
Tabular data in the source: 0
pressure (bar)	uptake (mmol/g)
2.40436	0.853933
7.30371	2.38202
10.6006	3.2809
15.1428	4.80899
20.3113	6.1573
25.8363	7.59551
31.2734	8.85393
