Adsorption isotherm of Methane on ZIF-8
DOI: 10.1021/Jp908978q
Adsorbate Methane: InChIKey VNWKTOKETHGBQD-UHFFFAOYSA-N
Temperature: 300 K
Tabular data in the source: 0
pressure (bar)	uptake (mmol/g)
3.16328	1.18182
5.06214	1.77273
10.0381	2.95455
15.0161	3.86364
20.1778	4.45455
25.1593	4.90909
30.1411	5.31818
