Adsorption isotherm of Methane on IRMOF-1
DOI: 10.1021/Jp908978q
Adsorbate Methane: InChIKey VNWKTOKETHGBQD-UHFFFAOYSA-N
Temperature: 300 K
Tabular data in the source: 0
pressure (bar)	uptake (mmol/g)
3.09091	1.23664
5.09091	2.15223
10	4.30418
14.9091	6.09112
20	8.01521
25	9.52852
30.0909	10.8138
