Adsorption isotherm of Methane on ZIF-10
DOI: 10.1021/Jp908978q
Adsorbate Methane: InChIKey VNWKTOKETHGBQD-UHFFFAOYSA-N
Temperature: 300 K
Tabular data in the source: 0
pressure (bar)	uptake (mmol/g)
0.542433	0.181818
1.08452	0.409091
2.07979	0.636364
3.07402	1
5.06386	1.54545
10.0391	2.81818
19.9952	4.63636
24.9746	5.36364
30.0457	5.95455
