Adsorption isotherm of Methane on ZIF-8
DOI: 10.1021/Jp908978q
Adsorbate Methane: InChIKey VNWKTOKETHGBQD-UHFFFAOYSA-N
Temperature: 300 K
Tabular data in the source: 0
pressure (bar)	uptake (mmol/g)
0.445091	0.179775
0.979133	0.404494
2.04789	0.764045
3.11697	1.07865
5.07658	1.70787
10.0689	2.74157
15.0629	3.55056
20.0592	4.04494
25.0568	4.35955
30.0545	4.67416
