Adsorption isotherm of Hydrogen on ZIF-10
DOI: 10.1021/Jp908978q
Adsorbate Hydrogen: InChIKey UFHFLCQGNIYNRP-UHFFFAOYSA-N
Temperature: 300 K
Tabular data in the source: 0
pressure (bar)	uptake (mmol/g)
0.447761	0.0374537
1.07463	0.0560543
2.0597	0.102738
2.95522	0.140052
5.01493	0.233391
10.0299	0.476181
15.0448	0.700174
19.9701	0.914796
24.9851	1.13879
30	1.35338
