Adsorption isotherm of Hydrogen on IRMOF-1
DOI: 10.1021/Jp908978q
Adsorbate Hydrogen: InChIKey UFHFLCQGNIYNRP-UHFFFAOYSA-N
Temperature: 300 K
Tabular data in the source: 0
pressure (bar)	uptake (mmol/g)
1.07463	0.0654528
2.14925	0.149703
3.13433	0.224582
5.01493	0.383767
10.0299	0.767535
15.0448	1.1513
20.0597	1.52567
24.9851	1.87187
30	2.23684
