Adsorption isotherm of Hydrogen on IRMOF-1
DOI: 10.1021/Jp908978q
Adsorbate Hydrogen: InChIKey UFHFLCQGNIYNRP-UHFFFAOYSA-N
Temperature: 300 K
Tabular data in the source: 0
pressure (bar)	uptake (mmol/g)
7.63473	0.140165
11.0479	0.207177
16.0778	0.310715
22.1856	0.420423
27.7545	0.542197
