Adsorption isotherm of Nitrogen on LZU-76
DOI: 10.1021/jacs.6b07516
Article source: Figure S48
Adsorbate Nitrogen: InChIKey IJGRMHOSHXDMSA-UHFFFAOYSA-N
Kind: experiment
Temperature: 77 K
Tabular data in the source: 0
pressure (bar)	uptake (cm3(STP)/g)
0.004331	5.96041
0.004283	14.7838
0.004234	23.6072
0.006367	35.3781
0.008501	47.149
0.003899	84.6356
0.00602	98.6124
0.008161	108.913
0.012509	117.749
0.016872	123.644
0.025575	139.846
0.03431	150.165
0.043061	157.543
0.051829	161.981
0.067165	170.849
0.084708	178.253
0.106639	187.14
0.126396	191.609
0.143963	194.601
0.168132	196.142
0.183501	199.128
0.20767	200.668
0.255999	205.22
0.304345	206.831
0.354897	206.978
0.423024	208.646
0.471378	208.787
0.504346	208.882
0.55489	210.5
0.618621	212.155
0.658192	210.8
0.704331	213.875
0.754875	215.492
0.803205	220.044
0.827357	224.526
0.851486	233.419
0.882232	237.92
0.899743	251.207
0.930425	267.472
0.950044	296.941
0.973906	354.363
0.984742	382.336
0.995465	430.896
0.997428	473.549
0.056879	164.975
0.073573	177.659
0.097212	182.469
0.130327	190.467
0.156274	192.127
0.186983	196.959
0.208241	200.184
0.238876	200.279
0.288387	202.012
0.344993	205.347
0.387435	207.058
0.455824	210.429
0.500746	220.043
0.569085	220.256
0.613908	223.553
0.649281	225.242
0.698693	220.66
0.760086	228.746
0.800172	230.449
0.81441	236.81
0.859209	238.528
0.871239	254.355
0.897384	268.647
0.925985	289.263
0.940669	324.045
0.979068	368.375
0.998714	418.963
1.01382	480.589
