Adsorption isotherm of Nitrogen on LZU-72
DOI: 10.1021/jacs.6b07516
Article source: Figure S25
Adsorbate Nitrogen: InChIKey IJGRMHOSHXDMSA-UHFFFAOYSA-N
Kind: experiment
Temperature: 77 K
Tabular data in the source: 0
pressure (bar)	uptake (cm3(STP)/g)
0.006773	5.97282
0.006656	21.3087
0.004249	38.5702
0.008439	86.4777
0.00606	99.9052
0.008206	117.15
0.017212	130.534
0.026146	153.503
0.035152	166.888
0.044173	178.355
0.050931	187.914
0.064521	197.448
0.084825	222.291
0.125564	254.725
0.184651	269.837
0.357574	286.435
0.455443	291.815
0.505508	295.46
0.555603	295.27
0.607946	298.906
0.660274	304.459
0.709186	310.024
0.760376	315.581
0.810369	328.811
0.833095	334.476
0.860347	343.957
0.885292	357.281
0.912486	374.431
0.93733	401.174
0.962013	449.004
0.981852	535.191
0.995136	584.981
1.00165	627.129
1.00589	668.327
0.051488	197.025
0.075024	213.606
0.098296	238.406
0.136071	261.238
0.157332	273.696
0.171704	275.839
0.195635	280.094
0.219633	282.294
0.23407	282.382
0.296568	284.817
0.329993	293.24
0.397237	297.759
0.440617	295.968
0.499983	320.986
0.542835	335.631
0.60052	338.036
0.660348	348.674
0.708408	351.022
0.751392	361.557
0.789497	374.118
0.808484	382.452
0.846325	403.23
0.864982	421.837
0.889869	471.304
0.893891	495.986
0.916569	539.274
0.939578	572.291
0.969343	619.732
0.976991	681.423
