Adsorption isotherm of Nitrogen on LZU-70
DOI: 10.1021/jacs.6b07516
Article source: Figure S5
Adsorbate Nitrogen: InChIKey IJGRMHOSHXDMSA-UHFFFAOYSA-N
Kind: experiment
Temperature: 77 K
Tabular data in the source: 0
pressure (bar)	uptake (cm3(STP)/g)
0.013693	2.29096
0.013693	6.19721
0.013693	15.5722
0.009128	31.2043
0.009128	42.1418
0.013693	48.3847
0.013693	56.1972
0.018257	59.3152
0.022821	67.1206
0.036514	71.787
0.050206	77.2347
0.059334	81.1268
0.08672	89.6784
0.09813	95.9108
0.123233	102.903
0.139208	111.472
0.166593	134.868
0.198542	141.85
0.221363	144.158
0.257877	149.571
0.305801	151.059
0.360571	155.662
0.408495	154.807
0.456419	158.639
0.504343	160.128
0.554549	162.394
0.607037	164.657
0.659525	166.92
0.705167	168.412
0.757655	169.894
0.805579	172.164
0.826118	174.476
0.86035	176.767
0.878606	179.082
0.903709	182.169
0.937941	186.022
0.956198	192.244
0.981301	205.486
0.990429	218.754
0.999557	239.052
0.997275	259.368
0.048291	94.305
0.063299	102.297
0.091238	112.482
0.142722	137.918
0.155539	148.082
0.166257	153.894
0.19428	158.282
0.213713	159.034
0.228815	160.505
0.243938	160.527
0.306537	164.24
0.33672	168.631
0.414484	169.466
0.462034	168.085
0.500838	173.938
0.546196	174.727
0.602314	178.431
0.660603	181.413
0.705972	181.478
0.759961	183.004
0.807479	183.797
0.820411	185.989
0.844165	186.748
0.867908	188.231
0.900272	191.176
0.939066	197.753
0.958405	205.027
0.979748	223.174
0.992533	235.511
0.992377	246.38
1.00299	259.439
