Adsorption isotherm of Nitrogen on LZU-76-Boc
DOI: 10.1021/jacs.6b07516
Article source: Figure S44
Adsorbate Nitrogen: InChIKey IJGRMHOSHXDMSA-UHFFFAOYSA-N
Kind: experiment
Temperature: 77 K
Tabular data in the source: 0
pressure (bar)	uptake (cm3(STP)/g)
0.00021	1.34377
0.00069	14.5447
0.0009	20.3201
0.00108	25.2705
0.00129	31.0459
0.00153	37.6463
0.001649	40.9466
0.001829	45.8969
0.000607	74.7758
0.003239	84.6746
0.003217	94.5809
0.002947	102.006
0.009552	107.787
0.015798	123.469
0.026887	130.904
0.03125	135.858
0.037976	138.339
0.046913	142.471
0.05585	146.604
0.076056	153.221
0.094021	159.011
0.116679	160.68
0.134763	163.17
0.157421	164.838
0.175595	164.853
0.198223	167.347
0.248083	170.688
0.295731	172.377
0.350224	173.246
0.400173	174.112
0.447821	175.801
0.49774	177.492
0.549962	178.359
0.599851	180.875
0.654344	181.745
0.704294	182.611
0.754213	184.301
0.801741	189.291
0.819885	190.13
0.856174	191.81
0.878742	195.954
0.905883	199.276
0.928361	205.895
0.955323	214.168
0.981835	234.817
0.986048	243.896
0.990142	256.276
0.994266	267.83
0.143937	174.448
0.206726	175.876
0.258307	177.341
0.289678	176.425
0.354745	180.291
0.413026	180.104
0.4692	188.89
0.493943	194.517
0.538763	193.558
0.592537	191.754
0.657616	196.436
0.722574	192.966
0.762971	196.097
0.7921	195.188
0.807815	196.768
0.83698	198.305
0.866194	203.102
0.899842	204.624
0.91786	210.273
0.938181	219.99
0.987861	244.287
1.00384	263.8
