Adsorption isotherm of Nitrogen on LZU-72-Boc
DOI: 10.1021/jacs.6b07516
Article source: Figure S21
Adsorbate Nitrogen: InChIKey IJGRMHOSHXDMSA-UHFFFAOYSA-N
Kind: experiment
Temperature: 77 K
Tabular data in the source: 0
pressure (bar)	uptake (cm3(STP)/g)
0.00428	0.988363
0.004079	19.6796
0.003897	36.5017
0.003614	62.6694
0.003432	79.4915
0.007592	94.4524
0.011731	111.282
0.024532	126.259
0.033012	141.228
0.041573	148.721
0.050113	158.082
0.062995	165.583
0.084337	189.921
0.097178	201.16
0.123002	210.553
0.142385	216.196
0.163969	218.105
0.183372	221.879
0.204936	225.658
0.254564	231.357
0.299913	233.309
0.347381	239.004
0.403551	239.108
0.455401	239.204
0.500729	243.026
0.552579	243.121
0.602248	245.082
0.649757	247.039
0.701566	250.873
0.753355	256.576
0.800803	264.14
0.822367	267.918
0.854652	279.193
0.878316	288.582
0.906219	305.456
0.929721	329.798
0.953021	372.832
0.975897	455.117
0.983933	511.207
0.991707	591.595
0.99526	662.63
0.044439	165.078
0.069677	190.414
0.090699	212.138
0.133213	222.653
0.160948	222.353
0.17159	224.067
0.20138	229.232
0.212048	229.116
0.231249	228.908
0.248213	236.041
0.280215	235.695
0.333474	240.606
0.395424	234.447
0.446497	243.04
0.510268	258.813
0.548618	262.056
0.601955	261.478
0.650948	266.435
0.702151	265.88
0.74685	272.713
0.810725	281.168
0.834037	291.891
0.85519	304.467
0.874209	317.066
0.899239	357.038
0.928457	402.454
0.938786	426.122
0.980311	506.16
0.977319	566.558
0.991109	646.897
