Adsorption isotherm of Water on ZJU-70a
DOI: 10.1021/acs.inorgchem.5b00194
Article source: Figure 2
Adsorbate Water: InChIKey XLYOFNOQVPJJNP-UHFFFAOYSA-N
Kind: experiment
Temperature: 77 K
Tabular data in the source: 0
pressure (bar)	uptake (cm3(STP)/g)
0.007816	373.636
0.011522	398.182
0.015002	409.091
0.016637	408.182
0.018378	413.636
0.021708	415.455
0.023388	417.273
0.025069	419.091
0.028399	420.909
0.031715	421.818
0.036695	423.636
0.040026	425.455
0.043356	427.273
0.046672	428.182
0.050002	430
0.051638	429.091
0.056618	430.909
0.059934	431.818
0.088078	437.273
0.099645	438.182
0.124459	441.818
0.139326	442.727
0.155873	445.455
0.182292	446.364
0.188908	447.273
0.217007	450
0.221957	450
0.250027	450.909
0.263244	451.818
0.283062	452.727
0.304515	452.727
0.314447	454.545
0.345786	453.636
0.362319	455.455
0.385422	455.455
0.410191	456.364
0.426679	455.455
0.458063	457.273
0.4696	456.364
0.509235	458.182
0.510886	458.182
0.550492	458.182
0.557093	458.182
0.591747	458.182
0.608265	459.091
0.633004	458.182
0.656107	458.182
0.674275	459.091
0.705629	459.091
0.71388	459.091
0.755137	459.091
0.794743	459.091
0.804659	460
0.836013	460
0.852516	460
0.859102	459.091
0.900359	459.091
0.903674	460
0.939979	460
0.954846	460.909
1.00105	460.909
