Adsorption isotherm of Carbon Dioxide on RT-COF-1
DOI: 10.1002/chem.201501692
Article source: Figure S16
Adsorbate Carbon Dioxide: InChIKey CURLTUGMZLYLDI-UHFFFAOYSA-N
Kind: experiment
Temperature: 195 K
Tabular data in the source: 0
pressure (bar)	uptake (cm3(STP)/g)
0.004715	31.3978
0.011291	35.5707
0.017714	40.0319
0.024137	43.7647
0.033313	47.8162
0.047214	50.857
0.065198	54.0755
0.083664	57.5807
0.095707	60.36
0.129748	63.7307
0.133923	72.8761
0.148054	66.6623
0.167965	69.8887
0.170373	79.2492
0.187412	72.2565
0.207305	74.8677
0.214541	84.306
0.225771	77.2842
0.24504	79.0899
0.264309	80.8425
0.258832	90.0731
0.284266	82.5951
0.303535	84.6436
0.303162	95.3081
0.322517	86.8173
0.341384	89.34
0.344595	99.1652
0.360882	91.0167
0.379922	92.7389
0.386029	102.788
0.39919	94.4384
0.418459	96.0317
0.426497	106.463
0.437728	97.5719
0.456997	98.9527
0.476266	100.174
0.495534	101.396
0.514803	102.67
0.518015	112.974
0.534072	104.211
0.553341	105.591
0.556552	115.788
0.57261	107.185
0.591878	108.778
0.59509	119.081
0.611147	110.053
0.630416	111.221
0.649685	112.336
0.669489	113.717
0.687687	116.443
0.707491	119.134
0.726072	120.561
0.729972	126.463
0.746029	122.639
0.765298	124.498
0.769656	127.935
0.787778	127.764
0.807047	129.198
0.108157	62.0843
0.090781	61.8927
0.472092	109.977
0.641027	121.28
0.682537	123.77
0.808032	131.241
