Adsorption isotherm of Nitrogen on RT-COF-1
DOI: 10.1002/chem.201501692
Article source: Figure 2f
Adsorbate Nitrogen: InChIKey IJGRMHOSHXDMSA-UHFFFAOYSA-N
Kind: experiment
Temperature: 77 K
Tabular data in the source: 0
pressure (bar)	uptake (cm3(STP)/g)
0.002883	43.5072
0.0044	34.6506
0.038535	63.2335
0.049155	66.0515
0.057499	59.6103
0.080256	73.2979
0.107565	77.7262
0.106806	71.6876
0.13108	81.3494
0.154596	84.57
0.154596	82.9597
0.176594	88.1932
0.203144	92.6216
0.207695	89.8035
0.231211	95.4396
0.256244	98.6602
0.255485	98.6602
0.279759	101.881
0.304792	104.699
0.307068	105.907
0.329066	108.725
0.356374	111.14
0.359409	112.75
0.380648	114.361
0.405681	117.581
0.414784	120.399
0.426162	120.399
0.453471	123.217
0.460298	126.438
0.476228	127.243
0.502778	131.269
0.51188	135.295
0.529327	133.684
0.556636	138.113
0.564221	142.138
0.579393	140.931
0.604425	144.957
0.615804	153.411
0.629458	148.982
0.651456	152.203
0.663594	160.657
0.677248	158.644
0.703798	162.267
0.715935	169.916
0.727313	166.293
0.751587	173.539
0.768276	183.604
0.777378	181.188
0.80317	189.643
0.819858	203.33
0.827444	197.291
0.853235	209.369
0.871441	234.731
0.877509	223.862
0.899508	241.172
0.925299	266.535
0.91923	284.651
0.949573	308
0.970054	372.412
0.975364	372.01
