Adsorption isotherm of Carbon Dioxide on RT-COF-1
DOI: 10.1002/chem.201501692
Article source: Figure S16
Adsorbate Carbon Dioxide: InChIKey CURLTUGMZLYLDI-UHFFFAOYSA-N
Kind: experiment
Temperature: 273 K
Tabular data in the source: 0
pressure (bar)	uptake (cm3(STP)/g)
0.0039	2.50575
0.028034	3.27203
0.054098	4.99617
0.057959	8.63601
0.077266	7.48659
0.105261	9.4023
0.106226	12.659
0.125533	11.318
0.152563	12.2759
0.152563	17.0651
0.177662	18.5977
0.181523	15.1494
0.1989	16.1073
0.22786	18.023
0.252959	19.364
0.258751	22.4291
0.270335	20.3218
0.304122	21.2797
0.308949	24.3448
0.321498	22.2375
0.347563	23.7701
0.357216	27.9847
0.373627	24.3448
0.399691	25.8774
0.408379	29.3257
0.422859	26.6437
0.446993	27.9847
0.458577	31.2414
0.473057	28.751
0.497191	29.7088
0.506844	33.5402
0.52422	30.8582
0.547389	31.6245
0.558008	34.8812
0.570557	32.5824
0.597587	33.3487
0.60724	35.6475
0.622686	33.5402
0.644889	34.8812
0.658403	37.9464
0.669022	35.4559
0.694121	36.4138
0.709567	38.9042
0.71922	37.3716
0.743354	37.7548
0.76073	40.6284
0.769418	39.0958
0.792586	39.4789
0.809962	42.1609
0.819616	40.8199
0.841819	41.7778
0.862091	43.5019
0.866918	41.2031
0.891051	42.1609
0.912289	44.2682
0.917116	43.1188
0.942214	44.0766
