Adsorption isotherm of Carbon Dioxide on RT-COF-1
DOI: 10.1002/chem.201501692
Article source: Figure S16
Adsorbate Carbon Dioxide: InChIKey CURLTUGMZLYLDI-UHFFFAOYSA-N
Kind: experiment
Temperature: 298 K
Tabular data in the source: 0
pressure (bar)	uptake (cm3(STP)/g)
0.004865	0.206897
0.033826	2.69732
0.053133	3.84674
0.081128	4.8046
0.112019	5.95402
0.131325	7.10345
0.156424	8.0613
0.182489	8.82759
0.205657	9.78544
0.232687	10.7433
0.259716	11.8927
0.28385	12.4674
0.309914	13.4253
0.337909	14.3831
0.362043	14.9579
0.386176	15.9157
0.414171	16.682
0.435409	17.8314
0.464369	18.023
0.484641	18.7893
0.511671	19.9387
0.537735	20.5134
0.562834	21.0881
0.587933	22.2375
0.616894	22.4291
0.639096	23.7701
0.665161	23.9617
0.689294	24.9195
0.714393	25.3027
0.741423	26.069
0.766522	27.2184
0.793552	27.9847
0.81865	28.3678
0.84568	29.3257
0.867883	29.7088
0.892982	30.092
0.920977	31.0498
0.946076	31.6245
0.939318	33.1571
0.88719	32.5824
0.838923	32.0077
0.784863	31.0498
0.732735	30.4751
0.681572	29.9004
0.627512	28.1762
0.575384	27.9847
0.52229	27.0268
0.472092	25.4943
0.418998	24.5364
0.366869	23.0038
0.315706	21.6628
0.259716	19.7471
0.210484	18.7893
0.160286	16.682
0.110088	14.9579
0.055063	11.8927
