Adsorption isotherm of Xenon on PCN-14
DOI: 10.1039/C3cp50774b
Adsorbate Xenon: InChIKey FHNFHKCVQCLJFQ-UHFFFAOYSA-N
Temperature: 308 K
Tabular data in the source: 0
pressure (bar)	uptake (mmol/g)
0.00437089	0.0678672
0.0225471	0.255493
0.0449738	0.411051
0.0896499	0.728231
0.171664	1.12657
0.303511	1.52561
0.536277	2.08627
1.06036	2.76716
2.02777	3.48875
4.45634	4.33032
9.85396	5.29306
12.3399	5.53351
16.3976	5.89465
19.9959	6.13533
28.5812	6.53624
43.0834	6.93668
111.74	7.89802
200.143	8.37775
423.068	8.97724
1331.56	9.73486
1646	9.89462
3390.31	10.3327
5648.98	10.6111
9476.76	10.849
