Adsorption isotherm of Nitrogen on PCN-14
DOI: 10.1039/C3cp50774b
Adsorbate Nitrogen: InChIKey IJGRMHOSHXDMSA-UHFFFAOYSA-N
Temperature: 308 K
Tabular data in the source: 0
pressure (bar)	uptake (mmol/g)
0.00401116	-0.0525912
0.0202993	-0.0668177
0.0366784	-0.112412
0.0557391	-0.0756801
0.0917382	-0.0396475
0.140366	-0.043379
0.183107	-0.0457112
0.283823	0.0312516
0.377641	0.0691499
0.516007	0.106815
0.763598	0.143781
1.00911	0.222143
1.36949	0.300272
1.94675	0.418398
3.46548	0.776974
4.99052	0.975795
12.123	1.69528
46.153	3.05729
66.4186	3.41773
205.816	4.74114
437.462	5.62342
819.653	6.46639
