Adsorption isotherm of Krypton on AIMIL-53
DOI: 10.1039/C3cp50774b
Adsorbate Krypton: InChIKey DNNSSWSSYDEUBZ-UHFFFAOYSA-N
Temperature: 308 K
Tabular data in the source: 0
pressure (bar)	uptake (mmol/g)
0.601498	0.254868
0.944266	0.510086
1.20202	0.623374
1.45903	0.82189
1.63029	0.963704
2.06053	1.07676
2.48856	1.4455
3.47717	1.81348
5.66952	2.60597
11.0073	3.67829
13.1178	3.95953
21.735	4.77173
