Adsorption isotherm of Argon on ZIF-8
DOI: 10.1039/C3cp50774b
Adsorbate Argon: InChIKey XKRFYHLGVUSROY-UHFFFAOYSA-N
Temperature: 308 K
Tabular data in the source: 0
pressure (bar)	uptake (mmol/g)
0.419598	0.0858781
0.786651	0.15023
1.46859	0.300573
2.41344	0.580129
3.35772	0.794938
5.45609	1.26749
10.6483	2.29786
12.5885	2.64109
20.8187	3.81926
