Adsorption isotherm of Nitrogen on IRMOF-1
DOI: 10.1039/C3cp50774b
Adsorbate Nitrogen: InChIKey IJGRMHOSHXDMSA-UHFFFAOYSA-N
Temperature: 308 K
Tabular data in the source: 0
pressure (bar)	uptake (mmol/g)
0.0169271	0.00672159
0.0410156	0.00650072
0.063151	0.00859002
0.0996094	0.019717
0.14388	0.0261879
0.19987	0.0348436
