Adsorption isotherm of Xenon on IRMOF-1
DOI: 10.1039/C3cp50774b
Adsorbate Xenon: InChIKey FHNFHKCVQCLJFQ-UHFFFAOYSA-N
Temperature: 308 K
Tabular data in the source: 0
pressure (bar)	uptake (mmol/g)
0.00248233	-0.136275
0.0178242	-0.0387911
0.0356755	0.0758956
0.0523335	-0.0532956
0.104746	0.0613911
0.134562	0.0580179
0.20015	0.114687
0.319747	0.232409
0.428656	0.352493
0.637594	0.409161
0.812997	0.52992
1.05899	0.712406
1.37429	0.956959
1.74585	1.13978
2.10948	1.32328
6.1512	2.67321
11.5987	3.78095
49.776	6.61405
616.993	11.7894
1026.43	12.8989
4648.58	15.6692
10900.3	16.8981
19424.5	17.6965
