Adsorption isotherm of Krypton on IRMOF-1
DOI: 10.1039/C3cp50774b
Adsorbate Krypton: InChIKey DNNSSWSSYDEUBZ-UHFFFAOYSA-N
Temperature: 308 K
Tabular data in the source: 0
pressure (bar)	uptake (mmol/g)
0.00505662	0.102206
0.107804	-0.00101194
0.180394	0.178102
0.237621	0.174391
0.329082	0.170006
0.469051	0.103218
0.61555	0.161573
0.846143	0.28132
1.10629	0.401741
1.3417	0.523173
1.85813	0.518788
4.41067	1.1273
25.1466	3.39843
485.11	9.12602
5325	14.241
