Adsorption isotherm of Argon on PCN-14
DOI: 10.1039/C3cp50774b
Adsorbate Argon: InChIKey XKRFYHLGVUSROY-UHFFFAOYSA-N
Temperature: 308 K
Tabular data in the source: 0
pressure (bar)	uptake (mmol/g)
0.018743	-0.066118
0.034543	-0.0714821
0.034543	-0.0525912
0.0628015	0.00408136
0.0993528	-0.0403472
0.143169	-0.00314848
0.206307	0.0340502
0.289491	0.0714821
0.414327	0.149145
0.60897	0.226574
0.84871	0.30447
1.09217	0.383065
1.59435	0.500958
1.99789	0.579786
3.90202	1.01836
6.71803	1.41763
17.0824	2.33874
68.5409	3.8619
99.9263	4.30304
395.248	6.06875
1010.58	7.27263
2118.95	8.23584
