Adsorption isotherm of Krypton on AIMIL-53
DOI: 10.1039/C3cp50774b
Adsorbate Krypton: InChIKey DNNSSWSSYDEUBZ-UHFFFAOYSA-N
Temperature: 308 K
Tabular data in the source: 0
pressure (bar)	uptake (mmol/g)
0.0052356	0
0.0209763	0.0172414
0.0452135	0.0287356
0.0760065	0.045977
0.1101	0.0775862
0.158591	0.109195
0.227393	0.152299
