Adsorption isotherm of Argon on ZIF-8
DOI: 10.1039/C3cp50774b
Adsorbate Argon: InChIKey XKRFYHLGVUSROY-UHFFFAOYSA-N
Temperature: 308 K
Tabular data in the source: 0
pressure (bar)	uptake (mmol/g)
1.88649	0.192209
3.9826	0.405774
5.92164	0.619509
7.9652	0.811548
10.0089	1.02517
11.8427	1.17427
13.7292	1.36648
14.6724	1.45179
16.9257	1.68677
18.9691	1.85723
