Adsorption isotherm of Nitrogen on ZIF-8
DOI: 10.1039/C3cp50774b
Adsorbate Nitrogen: InChIKey IJGRMHOSHXDMSA-UHFFFAOYSA-N
Temperature: 308 K
Tabular data in the source: 0
pressure (bar)	uptake (mmol/g)
1.93717	0.182196
3.97906	0.36423
6.0733	0.561615
8.01047	0.712947
10	0.895062
11.9895	1.04631
13.9791	1.19756
16.0209	1.36417
17.9058	1.51558
20	1.66667
