Adsorption isotherm of Argon on CuBTC
DOI: 10.1039/C3cp50774b
Adsorbate Argon: InChIKey XKRFYHLGVUSROY-UHFFFAOYSA-N
Temperature: 308 K
Tabular data in the source: 0
pressure (bar)	uptake (mmol/g)
2.09676	0.485084
3.9946	1.00816
6.05168	1.49332
7.99069	1.90347
9.96965	2.29473
11.9883	2.68592
13.7296	3.04001
15.9467	3.43082
16.9755	3.65459
19.0752	3.91397
