Adsorption isotherm of Krypton on IRMOF-1
DOI: 10.1039/C3cp50774b
Adsorbate Krypton: InChIKey DNNSSWSSYDEUBZ-UHFFFAOYSA-N
Temperature: 308 K
Tabular data in the source: 0
pressure (bar)	uptake (mmol/g)
0.0208333	0.0135626
0.114583	0.0516714
0.181641	0.0671024
0.235026	0.0964124
