Adsorption isotherm of Nitrogen on AIMIL-53
DOI: 10.1039/C3cp50774b
Adsorbate Nitrogen: InChIKey IJGRMHOSHXDMSA-UHFFFAOYSA-N
Temperature: 308 K
Tabular data in the source: 0
pressure (bar)	uptake (mmol/g)
0.471204	0.12273
0.680628	0.184135
1.09948	0.214353
1.36126	0.260245
5.2356	0.917846
10.2618	1.55824
12.0942	1.72516
20.0524	2.43819
