Adsorption isotherm of Krypton on PCN-14
DOI: 10.1039/C3cp50774b
Adsorbate Krypton: InChIKey DNNSSWSSYDEUBZ-UHFFFAOYSA-N
Temperature: 308 K
Tabular data in the source: 0
pressure (bar)	uptake (mmol/g)
0.00123585	0.237284
0.10593	0.338624
0.211508	0.609453
0.317085	0.880281
0.527886	1.35414
0.789887	1.65834
0.895464	1.92917
1.00069	2.1322
1.21096	2.50437
1.47296	2.80857
2.52079	3.99145
3.46304	4.90352
5.65862	6.45539
11.0339	8.50497
13.0677	9.00655
21.7726	10.333
