Adsorption isotherm of Krypton on AIMIL-53
DOI: 10.1039/C3cp50774b
Adsorbate Krypton: InChIKey DNNSSWSSYDEUBZ-UHFFFAOYSA-N
Temperature: 308 K
Tabular data in the source: 0
pressure (bar)	uptake (mmol/g)
0.773005	0.368272
2.06102	1.01994
4.03726	1.86954
6.05884	2.46339
8.03827	2.94367
9.93219	3.33884
12.0422	3.67689
13.9795	4.04359
16.0469	4.32488
17.9852	4.57794
19.9663	4.85935
