Adsorption isotherm of Krypton on CuBTC
DOI: 10.1039/C3cp50774b
Adsorbate Krypton: InChIKey DNNSSWSSYDEUBZ-UHFFFAOYSA-N
Temperature: 308 K
Tabular data in the source: 0
pressure (bar)	uptake (mmol/g)
0.360406	0.441564
0.566605	0.645295
0.824793	0.814924
0.97953	0.950715
1.23789	1.08633
1.49538	1.39201
2.63211	2.00233
3.45814	2.57915
5.73161	3.79978
10.9012	6.0699
13.1257	6.74638
21.7159	8.84062
