Adsorption isotherm of Argon on PCN-14
DOI: 10.1039/C3cp50774b
Adsorbate Argon: InChIKey XKRFYHLGVUSROY-UHFFFAOYSA-N
Temperature: 308 K
Tabular data in the source: 0
pressure (bar)	uptake (mmol/g)
0.117807	0.0938223
0.31498	0.187495
0.393601	0.243774
0.551837	0.281094
0.788197	0.412311
0.906004	0.506133
0.945189	0.543677
1.02406	0.581146
1.22123	0.674819
1.45809	0.768417
2.40477	1.19924
3.31277	1.5549
5.44448	2.39728
10.5423	4.00525
12.4014	4.45316
20.7121	6.16794
