Adsorption isotherm of Krypton on CuBTC
DOI: 10.1039/C3cp50774b
Adsorbate Krypton: InChIKey DNNSSWSSYDEUBZ-UHFFFAOYSA-N
Temperature: 308 K
Tabular data in the source: 0
pressure (bar)	uptake (mmol/g)
1.98655	1.41699
3.97186	2.59671
5.95699	3.74252
7.99333	4.71867
9.9767	5.5255
12.012	6.29826
14.0467	6.96933
16.029	7.57278
18.0627	8.04047
19.9922	8.5085
