Adsorption isotherm of Argon on CuBTC
DOI: 10.1039/C3cp50774b
Adsorbate Argon: InChIKey XKRFYHLGVUSROY-UHFFFAOYSA-N
Temperature: 308 K
Tabular data in the source: 0
pressure (bar)	uptake (mmol/g)
0.356405	0.055756
0.711567	0.205558
0.948175	0.317966
1.3827	0.467619
2.44968	0.80417
3.31973	1.02824
5.41599	1.55094
10.639	2.68845
12.4598	3.0424
20.6553	4.45645
