Adsorption isotherm of Krypton on ZIF-8
DOI: 10.1039/C3cp50774b
Adsorbate Krypton: InChIKey DNNSSWSSYDEUBZ-UHFFFAOYSA-N
Temperature: 308 K
Tabular data in the source: 0
pressure (bar)	uptake (mmol/g)
1.98533	0.537087
4.05746	0.988829
5.99995	1.44075
8.02886	1.89255
10.0148	2.28759
11.9577	2.65428
13.9436	3.04932
15.9731	3.35907
18.0025	3.69724
19.9458	3.9787
