Adsorption isotherm of Nitrogen on PCN-14
DOI: 10.1039/C3cp50774b
Adsorbate Nitrogen: InChIKey IJGRMHOSHXDMSA-UHFFFAOYSA-N
Temperature: 308 K
Tabular data in the source: 0
pressure (bar)	uptake (mmol/g)
0.00327343	-0.0487584
0.0177476	-0.0473377
0.0368271	-0.0454648
0.0598623	-0.0186638
0.103951	0.0102038
0.149347	0.0146598
0.203962	0.0445607
