Adsorption isotherm of Radon on AIMIL-53
DOI: 10.1039/C3cp50774b
Adsorbate Radon: InChIKey SYUHGPGVQRZVTB-UHFFFAOYSA-N
Temperature: 308 K
Tabular data in the source: 0
pressure (bar)	uptake (mmol/g)
0.00446735	0.0491695
0.118433	0.181631
0.186179	0.267423
0.384419	0.612629
0.742246	0.923304
2.75563	1.75261
10.5867	2.56451
31.7285	3.25559
59.8839	3.68761
68.9715	3.73933
87.2851	3.82553
102.558	3.89454
150.345	4.08443
353.46	4.37741
656.644	4.58418
1606.72	4.91174
4946.86	5.27353
6350.24	5.32504
16975	5.63511
