Adsorption isotherm of Xenon on AIMIL-53
DOI: 10.1039/C3cp50774b
Adsorbate Xenon: InChIKey FHNFHKCVQCLJFQ-UHFFFAOYSA-N
Temperature: 308 K
Tabular data in the source: 0
pressure (bar)	uptake (mmol/g)
0.000677018	0.0114943
0.0177943	0.0632184
0.0388608	0.126437
0.0651911	0.204023
0.102083	0.327586
0.142907	0.454023
0.206682	0.603448
