Adsorption isotherm of Radon on PCN-14
DOI: 10.1039/C3cp50774b
Adsorbate Radon: InChIKey SYUHGPGVQRZVTB-UHFFFAOYSA-N
Temperature: 308 K
Tabular data in the source: 0
pressure (bar)	uptake (mmol/g)
0.0020944	0.366972
0.0182943	1.61468
0.0371499	2.93578
0.0646387	4.50153
0.106641	6.1896
0.14837	7.04587
0.201893	7.75535
