Adsorption isotherm of Argon on PCN-14
DOI: 10.1039/C3cp50774b
Adsorbate Argon: InChIKey XKRFYHLGVUSROY-UHFFFAOYSA-N
Temperature: 308 K
Tabular data in the source: 0
pressure (bar)	uptake (mmol/g)
0.00132384	0.0244648
0.0190709	-0.0244648
0.0381498	-0.0244648
0.0664474	0
0.105279	0.0489297
0.147393	0.0733945
0.207269	0.0978593
