Adsorption isotherm of Argon on PCN-14
DOI: 10.1039/C3cp50774b
Adsorbate Argon: InChIKey XKRFYHLGVUSROY-UHFFFAOYSA-N
Temperature: 308 K
Tabular data in the source: 0
pressure (bar)	uptake (mmol/g)
2.05658	0.522778
4.03478	0.970467
6.01324	1.39935
8.03237	1.75292
9.97213	2.10664
11.9913	2.4602
14.0109	2.77616
15.436	3.0368
16.7428	3.24124
18.8426	3.50061
