Adsorption isotherm of Xenon on AIMIL-53
DOI: 10.1039/C3cp50774b
Adsorbate Xenon: InChIKey FHNFHKCVQCLJFQ-UHFFFAOYSA-N
Temperature: 308 K
Tabular data in the source: 0
pressure (bar)	uptake (mmol/g)
0.00327763	-0.054219
0.0186625	0.0638081
0.0426354	0.0969108
0.0773019	0.165105
0.13719	0.285326
0.215666	0.371117
0.364637	0.543414
0.659286	0.750242
1.17516	0.991754
2.46129	1.30228
4.68507	1.64764
6.34038	1.76837
8.35103	1.88915
9.93951	1.99279
14.6751	2.16534
22.5502	2.37248
66.9052	2.89029
127.532	3.16633
358.905	3.61492
1443.11	4.18415
1992.42	4.32217
4909.98	4.63239
9685.23	4.89103
15937.5	5.06338
