Adsorption isotherm of Krypton on ZIF-8
DOI: 10.1039/C3cp50774b
Adsorbate Krypton: InChIKey DNNSSWSSYDEUBZ-UHFFFAOYSA-N
Temperature: 308 K
Tabular data in the source: 0
pressure (bar)	uptake (mmol/g)
0.342768	0.255218
0.470908	0.39709
0.64168	0.595723
0.856063	0.737478
0.983713	0.936169
1.24122	1.07787
1.49848	1.24797
2.52703	1.98522
3.51294	2.6657
5.7021	3.82751
11.0779	5.49638
13.058	5.89143
21.4998	7.04478
