Adsorption isotherm of Argon on AIMIL-53
DOI: 10.1039/C3cp50774b
Adsorbate Argon: InChIKey XKRFYHLGVUSROY-UHFFFAOYSA-N
Temperature: 308 K
Tabular data in the source: 0
pressure (bar)	uptake (mmol/g)
0.00195771	-0.00287356
0.0176758	0.00287356
0.0373206	0.00862069
0.0680798	0.00862069
0.109338	0.0229885
0.135528	0.0287356
0.208849	0.0402299
