Adsorption isotherm of Nitrogen on AIMIL-53
DOI: 10.1039/C3cp50774b
Adsorbate Nitrogen: InChIKey IJGRMHOSHXDMSA-UHFFFAOYSA-N
Temperature: 308 K
Tabular data in the source: 0
pressure (bar)	uptake (mmol/g)
0.00380198	-0.0198412
0.0189566	-0.0401925
0.0344176	-0.0413146
0.0541801	-0.0248398
0.108087	0.00851795
0.137955	0.00805889
0.192362	-0.0098951
0.281159	-0.0106092
0.394297	0.0234116
0.538171	0.0574834
0.796779	0.0914021
1.10947	0.142765
1.54487	0.194128
1.93007	0.245694
3.63704	0.417787
5.79149	0.538212
14.3546	0.900403
59.6444	1.52155
94.8418	1.71129
357.66	2.43659
860.379	2.93747
1859.56	3.36923
