Adsorption isotherm of Nitrogen on ZIF-8
DOI: 10.1039/C3cp50774b
Adsorbate Nitrogen: InChIKey IJGRMHOSHXDMSA-UHFFFAOYSA-N
Temperature: 308 K
Tabular data in the source: 0
pressure (bar)	uptake (mmol/g)
0.209424	0.0614052
0.471204	0.0764333
0.680628	0.137839
1.15183	0.19884
1.41361	0.260164
2.35602	0.459327
3.19372	0.627787
5.28796	0.979494
10.3141	1.72791
12.0942	1.95664
20	2.80864
