Adsorption isotherm of Radon on AIMIL-53
DOI: 10.1039/C3cp50774b
Adsorbate Radon: InChIKey SYUHGPGVQRZVTB-UHFFFAOYSA-N
Temperature: 308 K
Tabular data in the source: 0
pressure (bar)	uptake (mmol/g)
0.002725	0.0545977
0.0178394	0.0862069
0.0427706	0.117816
0.0638033	0.163793
0.0992621	0.224138
0.141987	0.318966
0.196865	0.603448
