Adsorption isotherm of Krypton on PCN-14
DOI: 10.1039/C3cp50774b
Adsorbate Krypton: InChIKey DNNSSWSSYDEUBZ-UHFFFAOYSA-N
Temperature: 308 K
Tabular data in the source: 0
pressure (bar)	uptake (mmol/g)
0.0256106	-0.0284529
0.0484395	0.127572
0.0797242	0.163604
0.123575	0.240567
0.185255	0.358227
0.2909	0.515884
0.413518	0.63401
0.666388	0.953056
1.08123	1.23164
1.71884	1.63161
2.54193	1.8302
2.84455	1.95042
3.18321	2.07065
4.0383	2.39179
6.59268	2.79153
17.0876	3.91449
37.2975	4.79653
126.721	6.36156
661.973	8.36726
1024.07	8.92908
3481.61	10.3325
7450.75	11.1743
12732.4	11.7757
