Adsorption isotherm of Nitrogen on PCN-14
DOI: 10.1039/C3cp50774b
Adsorbate Nitrogen: InChIKey IJGRMHOSHXDMSA-UHFFFAOYSA-N
Temperature: 308 K
Tabular data in the source: 0
pressure (bar)	uptake (mmol/g)
0.23097	0.0564865
0.322195	0.141762
0.506495	0.212593
0.690795	0.283424
1.01405	0.368204
1.19808	0.45328
1.4744	0.56665
2.35029	0.878169
3.17951	1.20403
5.34841	1.85467
10.2439	3.11201
12.0001	3.49288
19.9576	4.78642
