Adsorption isotherm of Argon on IRMOF-1
DOI: 10.1039/C3cp50774b
Adsorbate Argon: InChIKey XKRFYHLGVUSROY-UHFFFAOYSA-N
Temperature: 308 K
Tabular data in the source: 0
pressure (bar)	uptake (mmol/g)
0.00455729	-4.17861e-05
0.0234375	0.00436963
0.0397135	0.00880492
0.0651042	0.0131566
0.107422	0.0242299
0.154948	0.0283787
0.210286	0.0393326
