Adsorption isotherm of Nitrogen on IRMOF-1
DOI: 10.1039/C3cp50774b
Adsorbate Nitrogen: InChIKey IJGRMHOSHXDMSA-UHFFFAOYSA-N
Temperature: 308 K
Tabular data in the source: 0
pressure (bar)	uptake (mmol/g)
0.00369224	-0.079606
0.0169535	-0.0381164
0.0387472	-0.0492478
0.0554345	-0.178102
0.0934545	-0.123119
0.142003	-0.00472239
0.19666	-0.00910747
0.286346	-0.0141672
0.405106	0.0431761
0.551249	-0.085003
0.65935	-0.14943
0.90635	-0.0296836
1.15569	0.0910747
1.67024	0.210146
2.66827	0.327869
3.74687	0.509344
6.56742	0.749848
17.4076	1.60494
22.5066	1.91156
58.3364	3.13904
130.107	4.36855
228.418	5.41523
