Adsorption isotherm of Xenon on IRMOF-1
DOI: 10.1039/C3cp50774b
Adsorbate Xenon: InChIKey FHNFHKCVQCLJFQ-UHFFFAOYSA-N
Temperature: 308 K
Tabular data in the source: 0
pressure (bar)	uptake (mmol/g)
0.0201823	0.0204453
0.0384115	0.036324
0.0592448	0.0590556
0.100911	0.0976421
0.142578	0.140813
0.199219	0.1976
