Adsorption isotherm of Radon on PCN-14
DOI: 10.1039/C3cp50774b
Adsorbate Radon: InChIKey SYUHGPGVQRZVTB-UHFFFAOYSA-N
Temperature: 308 K
Tabular data in the source: 0
pressure (bar)	uptake (mmol/g)
0.00457236	0.431108
0.0424512	1.54287
0.156305	2.94558
0.524217	4.42991
2.08767	6.15516
4.38016	6.95674
8.3195	7.71879
14.9012	8.19852
27.5962	8.63756
44.1703	8.99707
72.1573	9.23519
87.45	9.35471
112.463	9.59493
146.612	9.75422
174.209	9.83351
373.534	10.1905
578.615	10.429
1123.13	10.7465
2608.13	11.1027
3290.56	11.1411
7295.25	11.4573
