Adsorption isotherm of Argon on IRMOF-1
DOI: 10.1039/C3cp50774b
Adsorbate Argon: InChIKey XKRFYHLGVUSROY-UHFFFAOYSA-N
Temperature: 308 K
Tabular data in the source: 0
pressure (bar)	uptake (mmol/g)
0.00361435	-0.141334
0.0170165	-0.100182
0.0350534	-0.0478985
0.0580644	-0.116711
0.0934545	-0.123119
0.135569	-0.0661135
0.202401	-0.0715105
0.247309	-0.074209
0.351186	-0.0789314
0.441633	-0.144033
0.708161	-0.0883762
0.952912	-0.0303582
1.13554	-0.0327194
1.72542	0.0856777
2.61198	0.26614
3.66784	0.447615
6.70896	0.811577
17.4076	1.60494
24.2627	1.91054
63.7661	3.32389
124.211	4.30716
234.212	5.4149
