Adsorption isotherm of Nitrogen on PCN-14
DOI: 10.1039/C3cp50774b
Adsorbate Nitrogen: InChIKey IJGRMHOSHXDMSA-UHFFFAOYSA-N
Temperature: 308 K
Tabular data in the source: 0
pressure (bar)	uptake (mmol/g)
2.00466	0.425708
3.9627	0.851482
6.01399	1.26284
7.97203	1.63147
9.97669	1.97146
11.9347	2.28295
13.9394	2.58009
15.8974	2.89158
17.9953	3.13144
20	3.38571
