Adsorption isotherm of Nitrogen on AIMIL-53
DOI: 10.1039/C3cp50774b
Adsorbate Nitrogen: InChIKey IJGRMHOSHXDMSA-UHFFFAOYSA-N
Temperature: 308 K
Tabular data in the source: 0
pressure (bar)	uptake (mmol/g)
0.00260962	-0.00573361
0.0190143	-0.0055445
0.0360903	0.000416027
0.0557911	0.00640681
0.112246	0.0157031
0.14639	0.0247423
0.204821	0.0369432
