Adsorption isotherm of Nitrogen on CuBTC
DOI: 10.1039/C3cp50774b
Adsorbate Nitrogen: InChIKey IJGRMHOSHXDMSA-UHFFFAOYSA-N
Temperature: 308 K
Tabular data in the source: 0
pressure (bar)	uptake (mmol/g)
0.416857	0.0418443
0.554487	0.12702
0.83054	0.254636
1.15379	0.339415
1.4309	0.410048
2.35478	0.635994
3.18612	0.847893
5.31284	1.2707
10.2154	2.14341
11.9736	2.42456
20.2137	3.48957
