Adsorption isotherm of Krypton on PCN-14
DOI: 10.1039/C3cp50774b
Adsorbate Krypton: InChIKey DNNSSWSSYDEUBZ-UHFFFAOYSA-N
Temperature: 308 K
Tabular data in the source: 0
pressure (bar)	uptake (mmol/g)
2.06507	1.44224
4.02808	2.58094
5.94033	3.51719
8.06071	4.28348
9.97436	4.94945
11.9402	5.5476
13.9585	6.01035
15.9772	6.40552
17.996	6.76691
20.0158	6.95938
