Adsorption isotherm of Argon on AIMIL-53
DOI: 10.1039/C3cp50774b
Adsorbate Argon: InChIKey XKRFYHLGVUSROY-UHFFFAOYSA-N
Temperature: 308 K
Tabular data in the source: 0
pressure (bar)	uptake (mmol/g)
0.00256797	-0.05376
0.0174759	-0.0400394
0.0356164	-0.0587075
0.0596142	-0.0596766
0.0964251	-0.0432528
0.122196	-0.0263699
0.185887	0.00749783
0.282776	0.0413656
0.3994	0.0580444
0.579625	0.0746723
0.829272	0.125984
1.13186	0.160056
1.56486	0.22876
2.03761	0.245592
4.10609	0.452216
6.85367	0.58988
17.8061	0.969312
81.6488	1.74623
124.4	2.04002
664.554	2.97261
2129.9	3.69822
5363.15	4.28565
