Adsorption isotherm of Argon on AIMIL-53
DOI: 10.1039/C3cp50774b
Adsorbate Argon: InChIKey XKRFYHLGVUSROY-UHFFFAOYSA-N
Temperature: 308 K
Tabular data in the source: 0
pressure (bar)	uptake (mmol/g)
0.366861	0.0422218
0.838619	0.105723
1.46801	0.233402
1.88741	0.297016
2.35992	0.446538
3.25202	0.681178
5.40176	1.04215
10.592	1.84819
12.5312	2.08058
20.8636	2.96588
