Adsorption isotherm of Nitrogen on CuBTC
DOI: 10.1039/C3cp50774b
Adsorbate Nitrogen: InChIKey IJGRMHOSHXDMSA-UHFFFAOYSA-N
Temperature: 308 K
Tabular data in the source: 0
pressure (bar)	uptake (mmol/g)
2.03074	0.593951
4.0628	1.11667
6.00284	1.59686
8.03649	2.03411
9.97759	2.45731
11.9197	2.82353
13.8622	3.17551
15.8977	3.51304
17.9329	3.86482
19.8759	4.1883
