Adsorption isotherm of Nitrogen on AIMIL-53
DOI: 10.1039/C3cp50774b
Adsorbate Nitrogen: InChIKey IJGRMHOSHXDMSA-UHFFFAOYSA-N
Temperature: 308 K
Tabular data in the source: 0
pressure (bar)	uptake (mmol/g)
1.98953	0.351868
3.9267	0.688385
6.02094	0.962931
8.01047	1.22221
10.0524	1.45054
11.9372	1.66368
13.9791	1.86114
15.9686	2.04326
18.0105	2.24072
20.1047	2.43811
