Adsorption isotherm of Radon on IRMOF-1
DOI: 10.1039/C3cp50774b
Adsorbate Radon: InChIKey SYUHGPGVQRZVTB-UHFFFAOYSA-N
Temperature: 308 K
Tabular data in the source: 0
pressure (bar)	uptake (mmol/g)
0.00436717	0.0421642
0.0332162	0.0148418
0.0584386	0.193281
0.103196	0.309654
0.160182	0.489779
0.205778	0.486406
0.360682	0.726911
0.506482	0.908386
1.0014	1.64339
1.96317	2.93665
2.93575	3.73744
4.23839	4.29063
5.71256	5.15483
19.0836	7.9913
74.2113	11.6319
637.148	16.2541
1351.57	17.4843
3897.36	19.0204
13782.9	20.4918
18997.2	20.9836
