Adsorption isotherm of Argon on AIMIL-53
DOI: 10.1039/C3cp50774b
Adsorbate Argon: InChIKey XKRFYHLGVUSROY-UHFFFAOYSA-N
Temperature: 308 K
Tabular data in the source: 0
pressure (bar)	uptake (mmol/g)
1.88778	0.340026
3.98536	0.722612
5.92513	1.01952
7.9696	1.31619
10.0139	1.59137
12.0054	1.82364
13.997	2.05592
16.0411	2.30959
18.0327	2.54187
20.0238	2.73113
