Adsorption isotherm of Xenon on PCN-14
DOI: 10.1039/C3cp50774b
Adsorbate Xenon: InChIKey FHNFHKCVQCLJFQ-UHFFFAOYSA-N
Temperature: 308 K
Tabular data in the source: 0
pressure (bar)	uptake (mmol/g)
0.0243582	0.0489297
0.0447851	0.146789
0.0730826	0.171254
0.116544	0.293578
0.167234	0.391437
0.229132	0.562691
