Adsorption isotherm of Radon on IRMOF-1
DOI: 10.1039/C3cp50774b
Adsorbate Radon: InChIKey SYUHGPGVQRZVTB-UHFFFAOYSA-N
Temperature: 308 K
Tabular data in the source: 0
pressure (bar)	uptake (mmol/g)
0.00520833	0.0137058
0.0182292	0.0525549
0.0345052	0.102835
0.0625	0.16447
0.100911	0.274146
0.147135	0.386043
0.195312	0.550645
