Adsorption isotherm of Krypton on AIMIL-53
DOI: 10.1039/C3cp50774b
Adsorbate Krypton: InChIKey DNNSSWSSYDEUBZ-UHFFFAOYSA-N
Temperature: 308 K
Tabular data in the source: 0
pressure (bar)	uptake (mmol/g)
0.00526381	-0.0204533
0.02071	-0.0576874
0.0410214	-0.00698778
0.0714611	0.026625
0.108709	0.0604927
0.166553	0.0770185
0.276411	0.162708
0.352793	0.162249
0.601588	0.247888
0.809481	0.316643
1.30567	0.4717
1.96937	0.592227
2.44295	0.661135
2.81368	0.712855
3.37283	0.799157
4.65663	0.937178
13.2749	1.42041
29.6907	1.83478
109.749	2.54279
792.355	3.66542
1249.28	3.94182
5835.93	4.80535
15624.6	5.37533
32447.4	5.77251
