Adsorption isotherm of Nitric oxide on La(H5DTMP)
DOI: 10.1039/C2dt11992g
Adsorbate Nitric oxide: InChIKey MWUXSHHQAYIFBG-UHFFFAOYSA-N
Temperature: 298 K
Tabular data in the source: 0
pressure (bar)	uptake (mmol/g)
0.00504905	0.00156551
0.0319138	0.047631
0.0533831	0.0978555
0.0668154	0.120888
0.0856173	0.155191
0.101708	0.199289
0.123221	0.223798
0.144725	0.25345
0.168922	0.283594
0.190418	0.318389
0.211913	0.353184
0.233408	0.387979
0.25221	0.422282
0.26831	0.461237
0.28984	0.475459
0.314037	0.505604
0.338243	0.530605
0.359747	0.560257
0.383944	0.590401
0.405457	0.61491
0.426978	0.634276
0.451184	0.659277
0.475399	0.679134
0.499605	0.704135
0.526513	0.724485
0.550719	0.749486
0.574933	0.769344
0.599139	0.794345
0.620669	0.808568
0.644875	0.833569
0.66909	0.853427
0.693296	0.878428
0.71751	0.898286
0.74441	0.923779
0.768607	0.953923
0.795533	0.963987
0.822449	0.979194
0.846664	0.999052
0.873581	1.01426
0.897804	1.02897
0.924721	1.04418
0.948944	1.05889
0.975852	1.07924
1.00277	1.09445
1.02698	1.11431
1.05927	1.14079
