Adsorption isotherm of Carbon Dioxide on ZIF-69
DOI: 10.1021/Ie901000x
Adsorbate Carbon Dioxide: InChIKey CURLTUGMZLYLDI-UHFFFAOYSA-N
Temperature: 273 K
Tabular data in the source: 0
pressure (bar)	uptake (mmol/g)
0.0142012	0.191235
0.0426036	0.310757
0.0710059	0.478088
0.102959	0.621514
0.152663	0.860558
0.191716	1.0757
0.308876	1.41036
0.35503	1.57769
0.408284	1.74502
0.461538	1.91235
0.560947	2.15139
0.660355	2.36653
0.759763	2.60558
0.862722	2.79681
0.95858	3.01195
1.00828	3.05976
