Adsorption isotherm of Carbon Dioxide on MOF-505
DOI: 10.1021/Ie901000x
Adsorbate Carbon Dioxide: InChIKey CURLTUGMZLYLDI-UHFFFAOYSA-N
Temperature: 298 K
Tabular data in the source: 0
pressure (bar)	uptake (mmol/g)
5.35948	9.78541
9.54248	11.588
15.817	13.133
17.1242	13.133
18.4314	13.133
19.7386	13.3906
21.0458	13.3906
22.3529	13.3906
23.6601	13.3906
24.9673	13.6481
26.1438	13.6481
27.451	13.6481
28.7582	13.6481
30.0654	13.6481
31.3725	13.6481
32.6797	13.6481
33.9869	13.9056
35.2941	13.9056
36.6013	13.9056
37.9085	13.9056
39.2157	13.9056
