Adsorption isotherm of Carbon Dioxide on MOF-177
DOI: 10.1021/Ie901000x
Adsorbate Carbon Dioxide: InChIKey CURLTUGMZLYLDI-UHFFFAOYSA-N
Temperature: 298 K
Tabular data in the source: 0
pressure (bar)	uptake (mmol/g)
4.96732	6.37841
7.05882	11.2368
7.84314	13.0266
8.62745	14.8165
9.54248	16.8619
10.4575	18.6509
11.2418	20.6972
12.1569	22.4862
13.0719	24.2752
13.9869	26.0642
14.7712	27.854
15.9477	28.8721
17.1242	29.8902
18.3007	30.6519
19.6078	31.4128
23.5294	32.6697
24.8366	32.9177
30.0654	34.1662
31.3725	34.1579
32.6797	34.1495
34.2484	34.1394
35.5556	34.1311
36.4706	34.1252
37.7778	34.1168
38.6928	34.1109
40	34.359
