Adsorption isotherm of Carbon Dioxide on MIL-47(V)
DOI: 10.1021/Ie901000x
Adsorbate Carbon Dioxide: InChIKey CURLTUGMZLYLDI-UHFFFAOYSA-N
Temperature: 304 K
Tabular data in the source: 0
pressure (bar)	uptake (mmol/g)
2.59087	6.90647
3.11093	7.41596
3.89103	8.18019
5.45179	9.45223
7.27536	9.69695
8.83779	10.1998
13.2661	10.9406
17.1744	11.172
20.4318	11.1511
