Adsorption isotherm of Carbon Dioxide on IRMOF-1
DOI: 10.1021/Ie901000x
Adsorbate Carbon Dioxide: InChIKey CURLTUGMZLYLDI-UHFFFAOYSA-N
Temperature: 298 K
Tabular data in the source: 0
pressure (bar)	uptake (mmol/g)
4.31373	4.58773
6.14379	7.39651
7.32026	9.69666
9.6732	14.0406
10.719	15.5723
11.8954	16.5904
15.1634	19.6464
16.4706	19.8944
17.6471	20.6561
18.9542	20.9041
20.1307	21.4094
21.4379	21.6574
22.7451	21.9055
24.0523	21.8971
26.6667	22.3932
27.9739	22.3848
29.281	22.6328
30.5882	22.6244
31.8954	22.6161
33.2026	22.6077
34.5098	22.5993
35.6863	22.5918
36.8627	22.8406
38.1699	22.8322
39.4771	22.8239
