Adsorption isotherm of Carbon Dioxide on CuBTC
DOI: 10.1021/Ie901000x
Adsorbate Carbon Dioxide: InChIKey CURLTUGMZLYLDI-UHFFFAOYSA-N
Temperature: 298 K
Tabular data in the source: 0
pressure (bar)	uptake (mmol/g)
1.03004	5.66524
2.97997	7.72532
4.4076	10.3004
5.83803	11.588
6.75008	11.588
8.18107	12.618
9.61262	13.3906
10.915	13.6481
14.6929	13.9056
