Adsorption isotherm of Hg(II), Water on Î²-CD/MGO-SO3H
DOI: 10.1016/j.colsurfa.2016.10.025
Article source: Figure 7
Adsorbate Hg(II): InChIKey BQPIGGFYSBELGY-UHFFFAOYSA-N
Adsorbate Water: InChIKey XLYOFNOQVPJJNP-UHFFFAOYSA-N
Kind: experiment
Temperature: 298 K
Tabular data in the source: 0
pressure (bar)	Hg(II) fraction	Hg(II) uptake (mg/g)	Water fraction	Water uptake (mg/g)	total uptake (mg/g)
1.01325	0.359	199.555			
1.01325	4.363	163.733			
1.01325	8.078	239.945			
1.01325	13.081	313.28			
1.01325	41.246	396.604			
