Adsorption isotherm of Hg(II), Cr(VI), Water on Î²-CD/MGO-SO3H
DOI: 10.1016/j.colsurfa.2016.10.025
Article source: Figure 7
Adsorbate Hg(II): InChIKey BQPIGGFYSBELGY-UHFFFAOYSA-N
Adsorbate Cr(VI): InChIKey JOPOVCBBYLSVDA-UHFFFAOYSA-N
Adsorbate Water: InChIKey XLYOFNOQVPJJNP-UHFFFAOYSA-N
Kind: experiment
Temperature: 298 K
Tabular data in the source: 0
pressure (bar)	Hg(II) fraction	Hg(II) uptake (mg/g)	Cr(VI) fraction	Cr(VI) uptake (mg/g)	Water fraction	Water uptake (mg/g)	total uptake (mg/g)
1.01325	3.405	141.462	0.621	77.7222			
1.01325	3.97	164.936	8.363	129.739			
1.01325	4.927	211.55	26.781	138.496			
1.01325	19.904	238.886	45.614	143.739			
1.01325	58.928	242.054	85.418	145.7			
