Adsorption isotherm of Cr(VI), Water on Î²-CD/MGO-SO3H
DOI: 10.1016/j.colsurfa.2016.10.025
Article source: Figure 7
Adsorbate Cr(VI): InChIKey JOPOVCBBYLSVDA-UHFFFAOYSA-N
Adsorbate Water: InChIKey XLYOFNOQVPJJNP-UHFFFAOYSA-N
Kind: experiment
Temperature: 298 K
Tabular data in the source: 0
pressure (bar)	Cr(VI) fraction	Cr(VI) uptake (mg/g)	Water fraction	Water uptake (mg/g)	total uptake (mg/g)
1.01325	0.995	146.109			
1.01325	3.564	223.645			
1.01325	22.894	225.737			
1.01325	62.256	229.691			
