Adsorption isotherm of Cr(VI), Water on Î²-CD/MGO-SO3H
DOI: 10.1016/j.colsurfa.2016.10.025
Article source: Figure 4
Adsorbate Cr(VI): InChIKey JOPOVCBBYLSVDA-UHFFFAOYSA-N
Adsorbate Water: InChIKey XLYOFNOQVPJJNP-UHFFFAOYSA-N
Kind: experiment
Temperature: 298 K
Tabular data in the source: 0
pressure (bar)	Cr(VI) fraction	Cr(VI) uptake (mg/g)	Water fraction	Water uptake (mg/g)	total uptake (mg/g)
1.01325	9.975	39.32			
1.01325	19.939	80.15			
1.01325	39.612	156.37			
1.01325	59.798	227.15			
1.01325	79.229	228.95			
1.01325	119.817	229.84			
1.01325	159.959	231.18			
