Adsorption isotherm of Hg(II), Water on Î²-CD/MGO-SO3H
DOI: 10.1016/j.colsurfa.2016.10.025
Article source: Figure 4
Adsorbate Hg(II): InChIKey BQPIGGFYSBELGY-UHFFFAOYSA-N
Adsorbate Water: InChIKey XLYOFNOQVPJJNP-UHFFFAOYSA-N
Kind: experiment
Temperature: 298 K
Tabular data in the source: 0
pressure (bar)	Hg(II) fraction	Hg(II) uptake (mg/g)	Water fraction	Water uptake (mg/g)	total uptake (mg/g)
1.01325	9.589	38.07			
1.01325	20.131	79.51			
1.01325	39.847	158.68			
1.01325	59.724	236.42			
1.01325	79.681	317.02			
1.01325	119.766	431.91			
1.01325	159.71	434.46			
