Adsorption isotherm of Benzene on C40H20Zn2N4O12
DOI: 10.1038/Ncomms1170
Adsorbate Benzene: InChIKey UHOVQNZJYSORNB-UHFFFAOYSA-N
Temperature: 298 K
Tabular data in the source: 0
pressure (bar)	uptake (cm3(STP)/g)
0.00155248	0.00155248
0.00206998	31.5827
0.00284622	32.7119
0.00413996	43.3157
0.0049162	47.8283
0.0054337	53.6939
0.00698618	60.0125
0.00827992	62.0449
0.0131961	65.6627
0.0150074	66.5682
0.021476	67.7076
0.0292385	68.6238
0.0364834	68.8623
0.0426933	69.099
0.048127	69.5598
0.0551132	70.249
0.0613231	70.0346
0.0667568	70.4954
0.072708	70.9572
0.0786592	71.419
0.0851279	71.8817
0.0910791	72.3435
0.0970303	72.5797
0.103499	73.268
0.108933	73.9544
0.114366	75.0919
0.120576	77.8098
