Adsorption isotherm of Carbon Dioxide on MIL-140D
DOI: 10.1039/c5cc02539g
Article source: Figure 2a
Adsorbate Carbon Dioxide: InChIKey CURLTUGMZLYLDI-UHFFFAOYSA-N
Kind: experiment
Temperature: 293 K
Tabular data in the source: 0
pressure (bar)	uptake (mmol/g)
0	0
0.060551	0.034043
0.093578	0.059575
0.126606	0.085106
0.170642	0.119149
0.236697	0.153191
0.308257	0.204255
0.418349	0.280851
0.550459	0.382979
0.726606	0.52766
0.979817	0.731915
1.21651	0.944681
