Adsorption isotherm of Carbon Dioxide on MIL-140C
DOI: 10.1039/c5cc02539g
Article source: Figure 2a
Adsorbate Carbon Dioxide: InChIKey CURLTUGMZLYLDI-UHFFFAOYSA-N
Kind: experiment
Temperature: 293 K
Tabular data in the source: 0
pressure (bar)	uptake (mmol/g)
0	0
0.06083	0.085106
0.138249	0.144681
0.176959	0.204255
0.237788	0.27234
0.309677	0.357447
0.420276	0.468085
0.552995	0.604255
0.735484	0.808511
0.978802	1.04681
1.22212	1.25957
