Adsorption isotherm of Carbon Dioxide on MIL-140C-25
DOI: 10.1039/c5cc02539g
Article source: Figure 2a
Adsorbate Carbon Dioxide: InChIKey CURLTUGMZLYLDI-UHFFFAOYSA-N
Kind: experiment
Temperature: 293 K
Tabular data in the source: 0
pressure (bar)	uptake (mmol/g)
0	0
0.00553	0.042553
0.01106	0.076596
0.02765	0.102128
0.03871	0.13617
0.0553	0.178723
0.066359	0.212766
0.082949	0.246809
0.094009	0.280851
0.132719	0.340426
0.176959	0.425532
0.232258	0.519149
0.315207	0.646809
0.414747	0.8
0.552995	0.987234
0.735484	1.23404
0.984332	1.5234
1.22765	1.80426
