Adsorption isotherm of Carbon Dioxide on MIL-140A-NH2
DOI: 10.1039/c5cc02539g
Article source: Figure 2a
Adsorbate Carbon Dioxide: InChIKey CURLTUGMZLYLDI-UHFFFAOYSA-N
Kind: experiment
Temperature: 293 K
Tabular data in the source: 0
pressure (bar)	uptake (mmol/g)
0	0
0.027359	0.059575
0.054718	0.119149
0.076619	0.161702
0.098567	0.187234
0.136935	0.246809
0.180808	0.306383
0.23569	0.365957
0.318025	0.451064
0.422378	0.53617
0.735553	0.748936
0.97738	0.885106
1.22476	1.00426
