Adsorption isotherm of Carbon Dioxide on MIL-140C-Me
DOI: 10.1039/c5cc02539g
Article source: Figure 2a
Adsorbate Carbon Dioxide: InChIKey CURLTUGMZLYLDI-UHFFFAOYSA-N
Kind: experiment
Temperature: 293 K
Tabular data in the source: 0
pressure (bar)	uptake (mmol/g)
0	0
0.01659	0.051064
0.04977	0.085106
0.066359	0.102128
0.094009	0.12766
0.132719	0.178723
0.176959	0.238298
0.237788	0.314894
0.315207	0.4
0.414747	0.510638
0.558525	0.655319
0.735484	0.825532
0.978802	1.02979
1.22765	1.20851
