Adsorption isotherm of Carbon Dioxide on MIL-140A-F
DOI: 10.1039/c5cc02539g
Article source: Figure 2a
Adsorbate Carbon Dioxide: InChIKey CURLTUGMZLYLDI-UHFFFAOYSA-N
Kind: experiment
Temperature: 293 K
Tabular data in the source: 0
pressure (bar)	uptake (mmol/g)
0	0
0.132719	0.085106
0.176959	0.119149
0.237788	0.144681
0.315207	0.178723
0.414747	0.221277
0.552995	0.280851
0.735484	0.340426
0.978802	0.417021
1.22765	0.476596
