Adsorption isotherm of Carbon Dioxide on MIL-140B
DOI: 10.1039/c5cc02539g
Article source: Figure 2a
Adsorbate Carbon Dioxide: InChIKey CURLTUGMZLYLDI-UHFFFAOYSA-N
Kind: experiment
Temperature: 293 K
Tabular data in the source: 0
pressure (bar)	uptake (mmol/g)
0	0
0.071349	0.076596
0.115245	0.12766
0.241523	0.246809
0.318376	0.323404
0.417177	0.425532
0.559969	0.544681
0.741222	0.689362
0.982979	0.851064
1.23026	1.00426
