Adsorption isotherm of Carbon Dioxide on MIL-140A
DOI: 10.1039/c5cc02539g
Article source: Figure 2a
Adsorbate Carbon Dioxide: InChIKey CURLTUGMZLYLDI-UHFFFAOYSA-N
Kind: experiment
Temperature: 293 K
Tabular data in the source: 0
pressure (bar)	uptake (mmol/g)
0	0
0.022026	0.034043
0.132342	0.13617
0.176464	0.178723
0.237153	0.229787
0.308854	0.297872
0.413688	0.382979
0.551678	0.476596
0.739343	0.604255
0.982261	0.748936
1.2252	0.885106
