Adsorption isotherm of Hydrogen on Zr-MOF
DOI: 10.1016/j.cej.2012.01.104
Adsorbate Hydrogen: InChIKey UFHFLCQGNIYNRP-UHFFFAOYSA-N
Temperature: 296 K
Tabular data in the source: 0
pressure (bar)	uptake (mg/g)
0	0.0162338
3.18501	0.0649351
10.8665	0.178571
20.0468	0.275974
29.4145	0.357143
37.4707	0.438312
48.3372	0.584416
58.267	0.714286
69.5082	0.795455
