Adsorption isotherm of Carbon Dioxide on Zr-MOF
DOI: 10.1016/j.cej.2012.01.104
Adsorbate Carbon Dioxide: InChIKey CURLTUGMZLYLDI-UHFFFAOYSA-N
Temperature: 302 K
Tabular data in the source: 0
pressure (bar)	uptake (mg/g)
0.0574492	4.12371
0.0861737	6.18557
0.138838	10.3093
0.191494	13.4021
0.241758	16.4948
0.296823	21.6495
0.349463	22.6804
0.428435	25.7732
0.512208	30.9278
0.567249	32.9897
0.641436	36.0825
0.698861	37.1134
0.751509	39.1753
0.808941	41.2371
0.885521	44.3299
0.938153	44.3299
