Adsorption isotherm of Carbon Dioxide on Zr-MOF
DOI: 10.1016/j.cej.2012.01.104
Adsorbate Carbon Dioxide: InChIKey CURLTUGMZLYLDI-UHFFFAOYSA-N
Temperature: 195 K
Tabular data in the source: 0
pressure (bar)	uptake (mg/g)
0.00538738	36.9808
0.0327513	98.5965
0.0572409	130.421
0.088859	158.128
0.115566	178.648
0.142207	195.059
0.195523	229.936
0.246095	243.24
0.303763	250.373
0.380615	257.486
0.4598	260.487
0.570192	265.51
0.675755	268.484
0.810128	273.483
0.944467	276.427
