Adsorption isotherm of Carbon Dioxide on Zr-MOF
DOI: 10.1016/j.cej.2012.01.104
Adsorbate Carbon Dioxide: InChIKey CURLTUGMZLYLDI-UHFFFAOYSA-N
Temperature: 273 K
Tabular data in the source: 0
pressure (bar)	uptake (mg/g)
0.00722698	2.04737
0.0289408	10.2442
0.113102	24.5413
0.192402	34.7338
0.242859	40.8464
0.271685	43.899
0.329304	47.9493
0.379712	50.9797
0.456531	56.0378
0.566973	64.1435
0.638947	66.1244
0.725326	69.1178
0.804543	74.1734
0.8573	74.1192
0.938899	78.145
