Adsorption isotherm of Hydrogen on Zr-MOF
DOI: 10.1016/j.cej.2012.01.104
Adsorbate Hydrogen: InChIKey UFHFLCQGNIYNRP-UHFFFAOYSA-N
Temperature: 77 K
Tabular data in the source: 0
pressure (bar)	uptake (mg/g)
2.06089	1.83442
7.30679	2.4513
14.2389	2.82468
20.9836	3.08442
28.6651	3.31169
35.0351	3.50649
42.7166	3.71753
50.5855	3.91234
60.1405	4.31818
