Adsorption isotherm of Nitrogen on Zr-MOF
DOI: 10.1016/j.cej.2012.01.104
Adsorbate Nitrogen: InChIKey IJGRMHOSHXDMSA-UHFFFAOYSA-N
Temperature: 77 K
Tabular data in the source: 0
pressure (bar)	uptake (cm3(STP)/g)
0.0047619	257.228
0.00714286	266.182
0.00952381	283.979
0.0238095	309.132
0.0428571	323.621
0.0714286	324.266
0.145238	318.167
0.259524	299.66
0.333333	286.757
0.409524	272.605
0.483333	261.063
0.559524	246.911
0.628571	233.108
0.695238	220.555
0.778571	203.332
0.811905	202.158
0.852381	195.192
0.888095	189.366
0.92619	182.29
0.961905	179.185
0.985714	187.773
