Adsorption isotherm of Acetylene, Ethene on SIFSIX-3-Ni
DOI: 10.1016/j.cej.2018.08.119
Article source: Table S2
Adsorbate Acetylene: InChIKey HSFWRNGVRCDJHI-UHFFFAOYSA-N
Adsorbate Ethene: InChIKey VGGSQFUCUMXWEO-UHFFFAOYSA-N
Kind: experiment
Temperature: 298 K
Tabular data in the source: 0
pressure (bar)	Acetylene fraction	Acetylene uptake (mmol/g)	Ethene fraction	Ethene uptake (mmol/g)	total uptake (mmol/g)
1	0.01	0.075	0.99	0.726	
1	0.01	0.709	0.99	0.072	
1	0.01	0.739	0.99	0.068	
