Adsorption isotherm of Ethene on SIFSIX-3-Ni
DOI: 10.1016/j.cej.2018.08.119
Article source: Figure 2a
Adsorbate Ethene: InChIKey VGGSQFUCUMXWEO-UHFFFAOYSA-N
Kind: experiment
Temperature: 298 K
Tabular data in the source: 0
pressure (bar)	uptake (mmol/g)
0.0142	0.0178
0.0197	0.0229
0.0268	0.0254
0.0339	0.028
0.0405	0.0331
0.0465	0.0407
0.0525	0.0509
0.0596	0.061
0.0651	0.0636
0.0777	0.0763
0.0924	0.089
0.118	0.117
0.144	0.155
0.156	0.168
0.17	0.188
0.183	0.209
0.208	0.242
0.235	0.285
0.284	0.371
0.313	0.425
0.339	0.491
0.365	0.552
0.389	0.633
0.415	0.73
0.459	0.913
0.495	1.04
0.522	1.11
0.573	1.22
0.602	1.27
0.629	1.33
0.656	1.37
0.707	1.43
0.734	1.47
0.761	1.5
0.825	1.55
0.866	1.58
0.906	1.62
0.946	1.65
0.998	1.68
1.05	1.72
