Adsorption isotherm of Acetylene on SIFSIX-3-Ni
DOI: 10.1016/j.cej.2018.08.119
Article source: Figure 2a
Adsorbate Acetylene: InChIKey HSFWRNGVRCDJHI-UHFFFAOYSA-N
Kind: experiment
Temperature: 298 K
Tabular data in the source: 0
pressure (bar)	uptake (mmol/g)
0.00599	0.0789
0.00926	0.153
0.012	0.242
0.0191	0.468
0.025	0.832
0.0343	1.24
0.037	1.34
0.0452	1.5
0.0539	1.62
0.0561	1.65
0.0626	1.71
0.0686	1.77
0.0828	1.86
0.0889	1.91
0.103	1.97
0.116	2.03
0.129	2.08
0.143	2.13
0.157	2.17
0.17	2.21
0.184	2.24
0.208	2.28
0.235	2.34
0.262	2.38
0.288	2.42
0.315	2.45
0.341	2.49
0.368	2.52
0.393	2.55
0.42	2.57
0.445	2.6
0.472	2.62
0.498	2.65
0.524	2.67
0.551	2.69
0.577	2.71
0.603	2.73
0.63	2.75
0.656	2.76
0.682	2.79
0.709	2.8
0.735	2.82
0.762	2.83
0.788	2.85
0.828	2.87
0.867	2.89
0.906	2.9
0.946	2.93
0.998	2.95
1.05	2.97
