Adsorption isotherm of Carbon Dioxide on C94H81.50N7O30Zn4
DOI: 10.1021/Ja806391k
Adsorbate Carbon Dioxide: InChIKey CURLTUGMZLYLDI-UHFFFAOYSA-N
Temperature: 298 K
Tabular data in the source: 0
pressure (bar)	uptake (cm3(STP)/g)
0.757144	23.4311
3.10723	41.5995
5.77139	50.2047
7.79496	54.5317
9.49939	58.8475
12.391	95.1202
15.3998	151.61
18.3825	159.163
20.7264	165.629
23.1744	167.843
25.1951	166.851
