Adsorption isotherm of Hydrogen cyanide on Carbon
DOI: 10.1016/j.jhazmat.2008.01.045
Adsorbate Hydrogen cyanide: InChIKey LELOWRISYMNNSU-UHFFFAOYSA-N
Temperature: 298 K
Tabular data in the source: 0
pressure (bar)	uptake (mmol/g)
0.020649	0.0699574
0.0589971	0.209831
0.100295	0.349746
0.117994	0.391796
0.135693	0.447777
0.162242	0.517815
0.188791	0.573922
0.20944	0.616012
0.235988	0.658183
0.265487	0.700396
0.292035	0.742567
0.321534	0.756913
0.351032	0.785194
0.377581	0.81343
0.410029	0.841748
0.436578	0.883924
0.466077	0.926136
0.492625	0.968307
0.519174	1.01048
0.548673	1.05269
0.578171	1.0949
0.610619	1.13716
0.640118	1.16544
0.666667	1.17974
0.696165	1.20802
0.725664	1.22237
0.752212	1.23667
0.781711	1.26495
0.79941	1.27913
