Adsorption isotherm of Methyl ethyl ketone on Carbon
DOI: 10.1016/j.jhazmat.2008.01.045
Adsorbate Methyl ethyl ketone: InChIKey ZWEHNKRNPOVVGH-UHFFFAOYSA-N
Temperature: 298 K
Tabular data in the source: 0
pressure (bar)	uptake (mmol/g)
0.000486315	0.036519
0.000912847	0.0547785
0.00133938	0.0730381
0.00176591	0.0912975
0.00213132	0.109557
0.00255785	0.127817
0.00298438	0.146076
0.00341091	0.164335
0.00389857	0.182594
0.0043251	0.200855
0.00475182	0.216506
0.00517835	0.234765
0.0056662	0.250416
0.00615405	0.266068
0.0066419	0.281718
0.00712975	0.297369
0.00761778	0.310411
0.00810582	0.323454
0.00859386	0.336496
0.00914303	0.34954
0.00963107	0.362582
0.0101804	0.373016
0.0107909	0.38345
0.0113403	0.393884
0.0118898	0.401709
0.0125005	0.409535
0.0130502	0.414752
0.0136609	0.422577
0.0142108	0.425186
0.0148217	0.430403
0.0153712	0.438228
0.0159823	0.440836
0.0165933	0.443445
0.0172046	0.443445
0.0177543	0.448662
0.0183656	0.448662
0.0189766	0.451271
0.0195879	0.451271
0.0201989	0.45388
