Adsorption isotherm of Methyl ethyl ketone on Carbon
DOI: 10.1016/j.jhazmat.2008.01.045
Adsorbate Methyl ethyl ketone: InChIKey ZWEHNKRNPOVVGH-UHFFFAOYSA-N
Temperature: 298 K
Tabular data in the source: 0
pressure (bar)	uptake (mmol/g)
4.29e-05	0.134131
9.66e-05	0.312973
0.000128755	0.417298
0.000150215	0.491815
0.000171674	0.566333
0.000182403	0.633398
0.000203863	0.707916
0.000225322	0.782433
0.000246781	0.856951
0.00026824	0.931468
0.000300429	0.998534
0.000321888	1.07305
0.000343348	1.14757
0.000375536	1.22209
0.000407725	1.28915
0.000536481	1.45309
0.000600858	1.5127
0.000675966	1.56487
0.000772532	1.59467
0.000879828	1.61703
0.000976395	1.63193
0.00108369	1.63938
0.00119099	1.64684
0.00129828	1.65429
0.00139485	1.66919
0.00153433	1.7139
0.0016309	1.74371
0.00171674	1.77352
0.0018133	1.81077
0.00190987	1.84803
0.00199571	1.88529
0.00209227	1.92255
0.00217811	1.95981
0.00227468	1.99707
0.00236052	2.02688
0.00246781	2.05668
0.00253219	2.08649
0.00262876	2.10139
0.00273605	2.1163
0.00283262	2.13865
0.00293991	2.15355
0.00303648	2.16846
0.00314378	2.18336
0.00324034	2.19827
0.00334764	2.20572
0.00356223	2.23552
0.00366953	2.25043
0.00376609	2.26533
0.00387339	2.27278
0.00396996	2.28769
0.00407725	2.29514
0.00418455	2.31004
0.00428112	2.31749
0.00438841	2.3324
0.00448498	2.3473
