Adsorption isotherm of Hydrogen cyanide on Carbon
DOI: 10.1016/j.jhazmat.2008.01.045
Adsorbate Hydrogen cyanide: InChIKey LELOWRISYMNNSU-UHFFFAOYSA-N
Temperature: 298 K
Tabular data in the source: 0
pressure (bar)	uptake (mmol/g)
0.020649	0.0420895
0.0412979	0.0841793
0.0914454	0.196349
0.150442	0.336511
0.182891	0.406634
0.215339	0.448887
0.238938	0.477083
0.268437	0.53323
0.303835	0.575524
0.333333	0.589869
0.359882	0.61811
0.389381	0.646387
0.410029	0.674542
0.439528	0.702823
0.466077	0.717124
0.495575	0.745405
0.525074	0.759751
0.551622	0.787988
0.581121	0.802333
0.60767	0.83057
0.634218	0.858806
0.663717	0.887087
0.690265	0.929259
0.719764	0.957536
0.746313	0.985776
0.775811	1.02799
0.79646	1.07008
