Adsorption isotherm of Hydrogen cyanide on Carbon
DOI: 10.1016/j.jhazmat.2008.01.045
Adsorbate Hydrogen cyanide: InChIKey LELOWRISYMNNSU-UHFFFAOYSA-N
Temperature: 298 K
Tabular data in the source: 0
pressure (bar)	uptake (mmol/g)
0.0235988	0.0421305
0.0766962	0.168276
0.109145	0.252332
0.135693	0.308438
0.162242	0.364543
0.19174	0.406756
0.20649	0.420895
0.241888	0.449257
0.271386	0.477534
0.297935	0.505774
0.306785	0.505896
0.336283	0.520242
0.365782	0.534588
0.39233	0.548889
0.421829	0.57717
0.448378	0.605407
0.477876	0.633688
0.504425	0.661924
0.533923	0.690201
0.563422	0.718482
0.589971	0.746719
0.60767	0.760902
0.637168	0.775244
0.666667	0.78959
0.693215	0.803895
0.722714	0.818241
0.752212	0.832583
0.781711	0.846929
0.80826	0.861234
