Adsorption isotherm of Methyl ethyl ketone on Carbon
DOI: 10.1016/j.jhazmat.2008.01.045
Adsorbate Methyl ethyl ketone: InChIKey ZWEHNKRNPOVVGH-UHFFFAOYSA-N
Temperature: 298 K
Tabular data in the source: 0
pressure (bar)	uptake (mmol/g)
6.44e-05	0.12668
0.000118026	0.245908
0.000150215	0.312973
0.000182403	0.387491
0.000214592	0.462008
0.000236052	0.529074
0.00027897	0.603592
0.000311159	0.670657
0.000354077	0.737723
0.000396996	0.81224
0.000450644	0.871854
0.000504292	0.916565
0.00055794	0.961275
0.000643777	1.00599
0.000740343	1.04324
0.00083691	1.0656
0.000944206	1.08796
0.00104077	1.10286
0.00114807	1.11776
0.00124464	1.13267
0.00135193	1.14757
0.0014485	1.16992
0.00154506	1.18483
0.00164163	1.22209
0.0017382	1.25935
0.00183476	1.28915
0.00193133	1.31896
0.00201717	1.35622
0.00212446	1.38602
0.00222103	1.41583
0.0023176	1.43819
0.00241416	1.46054
0.00252146	1.47545
0.00261803	1.49035
0.00272532	1.4978
0.00283262	1.4978
0.00293991	1.49035
0.00304721	1.49035
0.00315451	1.4829
0.00325107	1.47545
0.00335837	1.46799
0.00346567	1.46799
0.00356223	1.46799
0.00366953	1.46799
0.00377682	1.46799
0.00388412	1.46799
0.00399142	1.46799
0.00409871	1.46799
0.00420601	1.46799
0.0043133	1.46799
0.0044206	1.46799
0.00449571	1.47545
