Adsorption isotherm of Methyl ethyl ketone on Carbon
DOI: 10.1016/j.jhazmat.2008.01.045
Adsorbate Methyl ethyl ketone: InChIKey ZWEHNKRNPOVVGH-UHFFFAOYSA-N
Temperature: 298 K
Tabular data in the source: 0
pressure (bar)	uptake (mmol/g)
0.000423466	0.0599955
0.000788873	0.078255
0.00115409	0.0991231
0.00151911	0.1226
0.0018232	0.143467
0.00218842	0.164335
0.00255363	0.185203
0.00291885	0.206071
0.00322294	0.226939
0.00358815	0.247807
0.00395337	0.268675
0.00431858	0.289543
0.00474492	0.310411
0.00511014	0.331279
0.00541461	0.346931
0.00584134	0.362582
0.00632899	0.380841
0.00675514	0.404318
0.00718167	0.422577
0.0076082	0.440836
0.00803493	0.456488
0.00852258	0.474747
0.00894931	0.490398
0.00937603	0.506049
0.00986369	0.524308
0.0102904	0.53996
0.0107171	0.555611
0.0111439	0.571261
0.0115704	0.589521
0.0120582	0.605173
0.012485	0.620823
0.0129724	0.641691
0.0133993	0.654733
0.013887	0.672993
0.0143137	0.688645
0.0148627	0.704295
0.0152894	0.719946
0.0157778	0.727772
0.0163272	0.738205
0.0169377	0.74864
0.0174872	0.756466
0.0180368	0.76429
0.0186476	0.769508
0.0191974	0.774725
0.019808	0.78255
0.0204798	0.790376
