Adsorption isotherm of Hydrogen cyanide on Carbon
DOI: 10.1016/j.jhazmat.2008.01.045
Adsorbate Hydrogen cyanide: InChIKey LELOWRISYMNNSU-UHFFFAOYSA-N
Temperature: 298 K
Tabular data in the source: 0
pressure (bar)	uptake (mmol/g)
0.00334448	0.317422
0.0167224	0.380906
0.0284281	0.457087
0.041806	0.545966
0.0551839	0.622147
0.0668896	0.685632
0.0819398	0.761812
0.0953177	0.825297
0.108696	0.863387
0.123746	0.914177
0.138796	0.952267
0.155518	0.977662
0.162207	0.990357
0.17893	1.00305
0.19398	1.02845
0.210702	1.05384
0.225753	1.07924
0.242475	1.10463
0.257525	1.13002
0.274247	1.14272
0.29097	1.16811
0.30602	1.19351
0.322742	1.2062
0.339465	1.2189
0.356187	1.2316
0.371237	1.2443
0.38796	1.2443
0.404682	1.25699
