Adsorption isotherm of Hydrogen cyanide on Zeolite 13X
DOI: 10.1016/j.jhazmat.2008.01.045
Adsorbate Hydrogen cyanide: InChIKey LELOWRISYMNNSU-UHFFFAOYSA-N
Temperature: 298 K
Tabular data in the source: 0
pressure (bar)	uptake (mmol/g)
0.00167224	1.14272
0.00334448	1.29508
0.00668896	1.39666
0.0117057	1.53632
0.0133779	1.72678
0.0150502	1.86644
0.0183946	1.94262
0.0351171	1.96802
0.0501672	1.99341
0.0652174	2.00611
0.0819398	2.0315
0.09699	2.0442
0.113712	2.05689
0.128763	2.06959
0.145485	2.08229
0.162207	2.09499
0.17893	2.10768
0.195652	2.12038
0.210702	2.13308
0.227425	2.14577
0.244147	2.15847
0.259197	2.17117
0.27592	2.17117
0.292642	2.18386
0.307692	2.19656
0.324415	2.19656
0.341137	2.20926
0.35786	2.22196
0.374582	2.22196
0.391304	2.23465
0.399666	2.23465
