Adsorption isotherm of Hydrogen cyanide on Carbon
DOI: 10.1016/j.jhazmat.2008.01.045
Adsorbate Hydrogen cyanide: InChIKey LELOWRISYMNNSU-UHFFFAOYSA-N
Temperature: 298 K
Tabular data in the source: 0
pressure (bar)	uptake (mmol/g)
0.00334448	0.609451
0.0150502	0.685632
0.0267559	0.774511
0.0401338	0.863387
0.0518395	0.952267
0.0635452	1.02845
0.0769231	1.11733
0.0886288	1.2062
0.102007	1.26969
0.115385	1.33317
0.130435	1.39666
0.145485	1.43475
0.160535	1.48554
0.175585	1.52363
0.192308	1.56172
0.207358	1.58711
0.22408	1.6252
0.23913	1.65059
0.255853	1.67599
0.270903	1.70138
0.287625	1.71408
0.304348	1.73947
0.319398	1.75217
0.33612	1.75217
0.352843	1.76487
0.367893	1.77756
0.384615	1.79026
0.401338	1.79026
