Adsorption isotherm of Methyl ethyl ketone on Carbon
DOI: 10.1016/j.jhazmat.2008.01.045
Adsorbate Methyl ethyl ketone: InChIKey ZWEHNKRNPOVVGH-UHFFFAOYSA-N
Temperature: 298 K
Tabular data in the source: 0
pressure (bar)	uptake (mmol/g)
0.000733496	0
0.00171092	0.0078255
0.00232197	0.010434
0.0026276	0.010434
0.00323865	0.0130425
0.00384971	0.0156511
0.00439964	0.0182594
0.00494938	0.0234765
0.00556024	0.0286936
0.00617129	0.031302
0.00672084	0.0391276
0.00733171	0.0443445
0.0075762	0.0443445
