Adsorption isotherm of Hydrogen cyanide on Carbon
DOI: 10.1016/j.jhazmat.2008.01.045
Adsorbate Hydrogen cyanide: InChIKey LELOWRISYMNNSU-UHFFFAOYSA-N
Temperature: 298 K
Tabular data in the source: 0
pressure (bar)	uptake (mmol/g)
0.0147493	0.0559413
0.0412979	0.139915
0.0855457	0.265937
0.112094	0.335977
0.138643	0.392081
0.165192	0.448187
0.19174	0.504294
0.20944	0.546344
0.238938	0.574621
0.265487	0.602857
0.294985	0.631138
0.309735	0.673147
0.339233	0.673558
0.365782	0.687859
0.39528	0.71614
0.410029	0.744214
0.436578	0.758515
0.466077	0.800727
0.492625	0.842899
0.522124	0.885115
0.548673	0.913352
0.578171	0.955564
0.610619	0.983885
0.640118	1.01216
0.666667	1.02647
0.696165	1.05474
0.725664	1.06909
0.755162	1.08344
0.781711	1.09774
0.79941	1.11192
