Adsorption isotherm of Hydrogen cyanide on Carbon
DOI: 10.1016/j.jhazmat.2008.01.045
Adsorbate Hydrogen cyanide: InChIKey LELOWRISYMNNSU-UHFFFAOYSA-N
Temperature: 298 K
Tabular data in the source: 0
pressure (bar)	uptake (mmol/g)
0.0147493	0.0698753
0.112094	0.363845
0.132743	0.489538
0.150442	0.601255
0.165192	0.712932
0.182891	0.82465
0.20944	0.950428
0.233038	1.03436
0.259587	1.09046
0.286136	1.16051
0.309735	1.21657
0.333333	1.31444
0.353982	1.39833
0.380531	1.46836
0.40708	1.51054
0.436578	1.53882
0.463127	1.55312
0.492625	1.55353
0.522124	1.55394
0.551622	1.55435
0.581121	1.55477
0.60767	1.56907
0.637168	1.58341
0.666667	1.58382
0.696165	1.59817
0.725664	1.61251
0.752212	1.62682
0.781711	1.64116
0.79941	1.64141
