Adsorption isotherm of Hydrogen cyanide on Carbon
DOI: 10.1016/j.jhazmat.2008.01.045
Adsorbate Hydrogen cyanide: InChIKey LELOWRISYMNNSU-UHFFFAOYSA-N
Temperature: 298 K
Tabular data in the source: 0
pressure (bar)	uptake (mmol/g)
0.0176991	0.125652
0.0353982	0.23737
0.0530973	0.349088
0.0707965	0.460805
0.0855457	0.572482
0.106195	0.684244
0.120944	0.795921
0.141593	0.907679
0.159292	1.0194
0.176991	1.11718
0.19764	1.22894
0.215339	1.32672
0.235988	1.41062
0.256637	1.50844
0.280236	1.59237
0.303835	1.67631
0.327434	1.77417
0.348083	1.85807
0.371681	1.942
0.39233	2.03982
0.412979	2.12371
0.433628	2.23547
0.454277	2.3333
0.471976	2.43108
0.492625	2.54284
0.510324	2.64063
0.528024	2.75234
0.548673	2.86411
0.569322	2.96193
0.587021	3.07365
0.60767	3.15754
