Adsorption isotherm of Methyl ethyl ketone on Carbon
DOI: 10.1016/j.jhazmat.2008.01.045
Adsorbate Methyl ethyl ketone: InChIKey ZWEHNKRNPOVVGH-UHFFFAOYSA-N
Temperature: 298 K
Tabular data in the source: 0
pressure (bar)	uptake (mmol/g)
8.58e-05	0.0968727
0.000203863	0.260811
0.000321888	0.402394
0.000493562	0.514171
0.00055794	0.536526
0.000654506	0.566333
0.000761803	0.581236
0.000858369	0.59614
0.000965665	0.611043
0.00107296	0.618495
0.00118026	0.625947
0.00127682	0.633398
0.00138412	0.648302
0.00155579	0.670657
0.00166309	0.685561
0.00175966	0.707916
0.00186695	0.722819
0.00196352	0.745175
0.00207082	0.760078
0.00216738	0.782433
0.00227468	0.797337
0.00237124	0.81224
0.00255365	0.834596
0.00266094	0.834596
0.00276824	0.834596
0.00287554	0.834596
0.00298283	0.834596
0.00309013	0.834596
0.00319742	0.827144
0.00330472	0.819692
0.00341202	0.819692
0.0035515	0.819692
0.0036588	0.819692
0.00376609	0.819692
0.00387339	0.819692
0.00398069	0.819692
0.00408798	0.819692
0.00419528	0.819692
0.00430258	0.819692
0.00440987	0.819692
0.00449571	0.819692
