Adsorption isotherm of Hydrogen cyanide on Carbon
DOI: 10.1016/j.jhazmat.2008.01.045
Adsorbate Hydrogen cyanide: InChIKey LELOWRISYMNNSU-UHFFFAOYSA-N
Temperature: 298 K
Tabular data in the source: 0
pressure (bar)	uptake (mmol/g)
0.00334448	0.114272
0.0183946	0.165059
0.0334448	0.20315
0.048495	0.253938
0.0635452	0.304725
0.0785953	0.342816
0.0953177	0.380906
0.110368	0.406301
0.125418	0.431695
0.14214	0.457087
0.158863	0.469786
0.173913	0.482481
0.190635	0.49518
0.207358	0.49518
0.22408	0.520571
0.23913	0.533271
0.255853	0.545966
0.272575	0.558662
0.287625	0.584056
0.302676	0.596756
0.319398	0.609451
0.334448	0.622147
0.351171	0.634846
0.367893	0.647541
0.384615	0.660237
0.399666	0.672936
