Adsorption isotherm of Methyl ethyl ketone on Carbon
DOI: 10.1016/j.jhazmat.2008.01.045
Adsorbate Methyl ethyl ketone: InChIKey ZWEHNKRNPOVVGH-UHFFFAOYSA-N
Temperature: 298 K
Tabular data in the source: 0
pressure (bar)	uptake (mmol/g)
4.29e-05	0.0447105
9.66e-05	0.104324
0.000150215	0.17139
0.000203863	0.231004
0.000257511	0.29807
0.000364807	0.394943
0.000450644	0.439653
0.000504292	0.462008
0.00055794	0.491815
0.000665236	0.506719
0.000761803	0.521622
0.000869099	0.529074
0.000976395	0.529074
0.00107296	0.536526
0.00118026	0.536526
0.00128755	0.536526
0.00139485	0.543978
0.00150215	0.543978
0.00155579	0.551429
0.00166309	0.558881
0.00177039	0.566333
0.00186695	0.573785
0.00197425	0.588688
0.00208155	0.59614
0.00217811	0.603592
0.00228541	0.611043
0.0023927	0.618495
0.00248927	0.618495
0.00255365	0.625947
0.00266094	0.633398
0.00276824	0.64085
0.00287554	0.64085
0.0029721	0.648302
0.0030794	0.648302
0.0031867	0.655754
0.00329399	0.655754
0.00340129	0.655754
0.0035515	0.663205
0.0036588	0.663205
0.00376609	0.670657
0.00387339	0.670657
0.00398069	0.670657
0.00408798	0.670657
0.00419528	0.670657
0.00430258	0.670657
0.00440987	0.670657
0.00449571	0.670657
