Adsorption isotherm of Hydrogen cyanide on Carbon
DOI: 10.1016/j.jhazmat.2008.01.045
Adsorbate Hydrogen cyanide: InChIKey LELOWRISYMNNSU-UHFFFAOYSA-N
Temperature: 298 K
Tabular data in the source: 0
pressure (bar)	uptake (mg/g)
0.0678466	0.00094537
0.123894	0.0156603
0.179941	0.0443092
0.20649	0.0446789
0.235988	0.04509
0.265487	0.059435
0.294985	0.0598461
0.321534	0.0741498
0.351032	0.0745609
0.380531	0.074972
0.410029	0.0753831
0.439528	0.0897281
0.469027	0.0901392
0.498525	0.09055
0.528024	0.0909611
0.557522	0.0913722
0.587021	0.0917833
0.613569	0.0921533
0.643068	0.092564
0.672566	0.106909
0.702065	0.10732
0.731563	0.107731
0.761062	0.122076
0.79941	0.122611
