Adsorption isotherm of Methyl ethyl ketone on Carbon
DOI: 10.1016/j.jhazmat.2008.01.045
Adsorbate Methyl ethyl ketone: InChIKey ZWEHNKRNPOVVGH-UHFFFAOYSA-N
Temperature: 298 K
Tabular data in the source: 0
pressure (bar)	uptake (mmol/g)
8.18e-05	0.550393
0.000263469	0.57387
0.000506243	0.597347
0.000810142	0.620823
0.00123667	0.639083
0.0016634	0.654733
0.00221256	0.667777
0.00276192	0.67821
0.00331146	0.686036
0.00392233	0.691253
0.004533	0.699078
0.00508274	0.704295
0.00532666	0.712121
0.00593753	0.717337
0.00648707	0.725163
0.00709813	0.727772
0.00764787	0.732989
0.00825873	0.738205
0.00886979	0.740814
0.00948084	0.743423
0.0100308	0.746031
0.0102749	0.751249
0.0108859	0.753857
0.0114359	0.756466
0.0120465	0.76429
0.0126574	0.769508
0.0132073	0.772116
0.0138182	0.777334
0.0143679	0.78255
0.014979	0.785158
0.0153456	0.787767
0.0159568	0.787767
0.016568	0.787767
0.0171793	0.787767
0.0177905	0.787767
0.0184018	0.787767
0.019013	0.787767
0.0195632	0.787767
0.0201133	0.787767
