Adsorption isotherm of Methyl ethyl ketone on Carbon
DOI: 10.1016/j.jhazmat.2008.01.045
Adsorbate Methyl ethyl ketone: InChIKey ZWEHNKRNPOVVGH-UHFFFAOYSA-N
Temperature: 298 K
Tabular data in the source: 0
pressure (bar)	uptake (mmol/g)
0.000423466	0.0599955
0.000788873	0.078255
0.00115409	0.0991231
0.00151911	0.1226
0.0018232	0.143467
0.00218842	0.164335
0.00255363	0.185203
0.00291885	0.206071
0.00322294	0.226939
0.00358815	0.247807
0.00395337	0.268675
0.00431858	0.289543
0.00474492	0.310411
0.00511014	0.331279
0.00541461	0.346931
0.00584134	0.362582
0.00632899	0.380841
0.00681665	0.3991
0.00730469	0.412144
0.00779234	0.430403
0.00828038	0.443445
0.00876842	0.456488
0.00925646	0.46953
0.00980563	0.482572
0.010355	0.493007
0.010843	0.506049
0.0113924	0.516483
0.0120031	0.524308
0.0125524	0.534743
0.0131021	0.53996
0.0137128	0.547785
0.0142626	0.553002
0.0148732	0.560828
0.015423	0.566044
0.0160338	0.571261
0.0166447	0.576479
0.0171948	0.576479
0.0178057	0.581696
0.0184167	0.584305
0.0190278	0.586912
0.0195777	0.589521
0.0201275	0.594738
