Adsorption isotherm of Methyl ethyl ketone on Carbon
DOI: 10.1016/j.jhazmat.2008.01.045
Adsorbate Methyl ethyl ketone: InChIKey ZWEHNKRNPOVVGH-UHFFFAOYSA-N
Temperature: 298 K
Tabular data in the source: 0
pressure (bar)	uptake (mmol/g)
0.000549739	0.00521701
0.00140472	0.0156511
0.00201577	0.0182594
0.00256532	0.026085
0.00317618	0.031302
0.00372573	0.0391276
0.0043366	0.0443445
0.00488633	0.0495615
0.00543607	0.0547785
0.00598581	0.0599955
0.00653536	0.067821
0.00714642	0.0704295
0.00769615	0.0756466
0.00830683	0.083472
0.00891788	0.0860806
0.00946762	0.0912975
0.0100785	0.0965146
0.0106895	0.0991231
0.0112391	0.106949
0.0118501	0.109557
0.0123999	0.114774
0.0130107	0.119991
0.0135605	0.125208
0.0141715	0.127817
0.0147826	0.130425
0.0153321	0.138251
0.0158821	0.140858
0.0164931	0.143467
0.0170429	0.148685
0.0176539	0.151293
0.0182648	0.156511
0.0188145	0.161726
0.0194256	0.164335
0.0199753	0.169552
0.0205862	0.17477
