Adsorption isotherm of Ethane on 1.8 K-ZNT
DOI: 10.1007/s10450-015-9658-8
Article source: Figure 6- experiment at 333 K
Adsorbate Ethane: InChIKey OTMSDBZUPAUEDD-UHFFFAOYSA-N
Kind: experiment
Temperature: 333 K
Tabular data in the source: 0
pressure (bar)	uptake (mmol/g)
0.008595	0.028581
0.015445	0.049391
0.020937	0.065668
0.031039	0.08691
0.040921	0.106857
0.054809	0.125207
0.06468	0.136864
0.085884	0.159143
0.113477	0.181466
0.152661	0.20474
0.201535	0.226287
0.26173	0.250124
0.336319	0.265672
0.434243	0.278071
0.547427	0.282613
