Adsorption isotherm of Ethene on 1.8 K-ZNT
DOI: 10.1007/s10450-015-9658-8
Article source: Figure 7- experiment at 293
Adsorbate Ethene: InChIKey VGGSQFUCUMXWEO-UHFFFAOYSA-N
Kind: experiment
Temperature: 293 K
Tabular data in the source: 0
pressure (bar)	uptake (mmol/g)
0.000108	0.0717
0.00016	0.07318
0.00359	0.13254
0.004678	0.17822
0.00691	0.22446
0.00827	0.27294
0.012574	0.32669
0.017967	0.37775
0.023578	0.42735
0.033277	0.47817
0.042431	0.53674
0.055673	0.58734
0.076546	0.6414
0.103197	0.69556
0.1335	0.75028
0.171161	0.79298
0.216672	0.82747
0.279134	0.86238
0.347266	0.8892
0.433875	0.90915
0.541961	0.9166
