Adsorption isotherm of Ethene on ZNT
DOI: 10.1007/s10450-015-9658-8
Article source: Figure 2- experiment at 273 K
Adsorbate Ethene: InChIKey VGGSQFUCUMXWEO-UHFFFAOYSA-N
Kind: experiment
Temperature: 273 K
Tabular data in the source: 0
pressure (bar)	uptake (mmol/g)
7.7e-05	0.05278
0.002156	0.35274
0.003669	0.50078
0.00428	0.57922
0.005892	0.64958
0.010751	0.72406
0.012362	0.79123
0.020585	0.85946
0.031759	0.91977
0.047183	0.98099
0.070106	1.04434
0.098101	1.08698
0.136485	1.12581
0.177641	1.15245
0.226709	1.18061
0.28593	1.20497
0.361149	1.22398
0.431231	1.23935
0.544885	1.25866
