Adsorption isotherm of Ethene on 1.5 K-ZNT
DOI: 10.1007/s10450-015-9658-8
Article source: Figure 5- experiment at 333 K
Adsorbate Ethene: InChIKey VGGSQFUCUMXWEO-UHFFFAOYSA-N
Kind: experiment
Temperature: 333 K
Tabular data in the source: 0
pressure (bar)	uptake (mmol/g)
0.000711	0.02571
0.006082	0.09635
0.010085	0.14028
0.016829	0.20094
0.029944	0.26884
0.048495	0.33511
0.076544	0.40713
0.11607	0.47628
0.162792	0.52871
0.222362	0.57927
0.29484	0.61274
0.379014	0.62923
0.462695	0.64685
0.548684	0.65648
