Adsorption isotherm of Ethene on 1.5 K-ZNT
DOI: 10.1007/s10450-015-9658-8
Article source: Figure 5- experiment at 273 K
Adsorbate Ethene: InChIKey VGGSQFUCUMXWEO-UHFFFAOYSA-N
Kind: experiment
Temperature: 273 K
Tabular data in the source: 0
pressure (bar)	uptake (mmol/g)
4e-06	0.09869
0.002042	0.22483
0.002652	0.34772
0.009414	0.48809
0.022272	0.61474
0.044575	0.74314
0.076708	0.83624
0.121199	0.91574
0.173432	0.97567
0.242361	1.022
0.328205	1.04664
0.428877	1.06917
0.54295	1.08185
