Adsorption isotherm of Ethene on 1.8 K-ZNT
DOI: 10.1007/s10450-015-9658-8
Article source: Figure 7- experiment at 273
Adsorbate Ethene: InChIKey VGGSQFUCUMXWEO-UHFFFAOYSA-N
Kind: experiment
Temperature: 273 K
Tabular data in the source: 0
pressure (bar)	uptake (mmol/g)
0.001453	0.11424
0.005674	0.29836
0.008222	0.37689
0.013276	0.46372
0.021002	0.54921
0.034013	0.63448
0.053021	0.71593
0.07737	0.79806
0.111693	0.86794
0.147765	0.91873
0.199096	0.96942
0.264929	0.99708
0.342316	1.0198
0.429351	1.03624
0.542655	1.04786
