Adsorption isotherm of Ethane on ZNT
DOI: 10.1007/s10450-015-9658-8
Article source: Figure 3- experiment
Adsorbate Ethane: InChIKey OTMSDBZUPAUEDD-UHFFFAOYSA-N
Kind: experiment
Temperature: 373 K
Tabular data in the source: 0
pressure (bar)	uptake (mmol/g)
0.001231	0.000201
0.007397	0.011265
0.013744	0.019636
0.020769	0.028996
0.029274	0.039876
0.037656	0.052112
0.048375	0.062919
0.059278	0.073177
0.074061	0.087446
0.08927	0.096916
0.108912	0.108547
0.130213	0.118054
0.158038	0.128916
0.190228	0.13725
0.235831	0.145529
0.297804	0.1539
0.365065	0.160366
0.44389	0.164726
0.54948	0.167254
