Adsorption isotherm of Ethane on ZNT
DOI: 10.1007/s10450-015-9658-8
Article source: Figure 1- experiment at 333
Adsorbate Ethane: InChIKey OTMSDBZUPAUEDD-UHFFFAOYSA-N
Kind: experiment
Temperature: 333 K
Tabular data in the source: 0
pressure (bar)	uptake (mmol/g)
0.006886	0.04792
0.014663	0.06813
0.017367	0.09032
0.025463	0.10673
0.030993	0.1318
0.039541	0.15316
0.050079	0.17485
0.061902	0.19885
0.076999	0.22235
0.098004	0.24659
0.122733	0.26769
0.154141	0.29159
0.192034	0.31294
0.235318	0.32974
0.294401	0.35164
0.362921	0.36364
0.442162	0.37432
0.549851	0.38316
