Adsorption isotherm of Ethane on ZNT
DOI: 10.1007/s10450-015-9658-8
Article source: Figure 1- experiment at 373
Adsorbate Ethane: InChIKey OTMSDBZUPAUEDD-UHFFFAOYSA-N
Kind: experiment
Temperature: 373 K
Tabular data in the source: 0
pressure (bar)	uptake (mmol/g)
6.4e-05	0.00017
0.009694	0.01675
0.017461	0.03135
0.026448	0.04232
0.036401	0.05239
0.04648	0.06295
0.057909	0.0735
0.071841	0.08712
0.086352	0.09751
0.107668	0.10806
0.128279	0.11804
0.15743	0.12942
0.188828	0.13791
0.232042	0.14549
0.294777	0.15306
0.363549	0.16121
0.440604	0.16407
0.547068	0.16684
