Adsorption isotherm of Ethene on 1.8 K-ZNT
DOI: 10.1007/s10450-015-9658-8
Article source: Figure 7- experiment at 333
Adsorbate Ethene: InChIKey VGGSQFUCUMXWEO-UHFFFAOYSA-N
Kind: experiment
Temperature: 333 K
Tabular data in the source: 0
pressure (bar)	uptake (mmol/g)
0	0.00011
0.005901	0.04594
0.009022	0.09974
0.015521	0.14254
0.024913	0.19386
0.033813	0.24317
0.045599	0.28292
0.060496	0.33256
0.083462	0.38735
0.113899	0.44293
0.154091	0.49141
0.204806	0.53955
0.268766	0.58262
0.335231	0.61131
0.418431	0.63459
0.543006	0.64569
