Adsorption isotherm of Ethene on ZNT
DOI: 10.1007/s10450-015-9658-8
Article source: Figure 2- experiment at 373 K
Adsorbate Ethene: InChIKey VGGSQFUCUMXWEO-UHFFFAOYSA-N
Kind: experiment
Temperature: 373 K
Tabular data in the source: 0
pressure (bar)	uptake (mmol/g)
0.002837	0.00808
0.004974	0.04953
0.007289	0.08443
0.009719	0.11705
0.014987	0.15713
0.020666	0.19311
0.025401	0.2271
0.032909	0.2617
0.04219	0.29478
0.053834	0.32954
0.071087	0.36827
0.091826	0.40335
0.116282	0.43661
0.146643	0.46591
0.180488	0.49568
0.224314	0.52972
0.28243	0.5647
0.347274	0.58369
0.420915	0.59842
0.542386	0.6085
