Adsorption isotherm of Ethane on ZNT
DOI: 10.1007/s10450-015-9658-8
Article source: Figure 1- experiment at 273
Adsorbate Ethane: InChIKey OTMSDBZUPAUEDD-UHFFFAOYSA-N
Kind: experiment
Temperature: 273 K
Tabular data in the source: 0
pressure (bar)	uptake (mmol/g)
0.000963	0.05984
0.003981	0.10549
0.00565	0.14965
0.007962	0.19497
0.012263	0.24615
0.017528	0.296
0.026838	0.35544
0.03923	0.40183
0.054125	0.44963
0.070433	0.48926
0.093675	0.52675
0.122633	0.56473
0.159935	0.59974
0.210336	0.63386
0.253996	0.65575
0.320642	0.68525
0.399935	0.70386
0.539774	0.7206
