Adsorption isotherm of Ethane on 1.5 K-ZNT
DOI: 10.1007/s10450-015-9658-8
Article source: Figure 4- experiment at 273 K
Adsorbate Ethane: InChIKey OTMSDBZUPAUEDD-UHFFFAOYSA-N
Kind: experiment
Temperature: 273 K
Tabular data in the source: 0
pressure (bar)	uptake (mmol/g)
0.001791	0.041119
0.007611	0.102113
0.015065	0.169129
0.031409	0.231381
0.060947	0.294562
0.103518	0.345752
0.159287	0.386755
0.218383	0.414509
0.288659	0.433227
0.369842	0.444552
0.449934	0.45221
0.547856	0.455704
