Adsorption isotherm of Ethane on 1.8 K-ZNT
DOI: 10.1007/s10450-015-9658-8
Article source: Figure 6- experiment at 373 K
Adsorbate Ethane: InChIKey OTMSDBZUPAUEDD-UHFFFAOYSA-N
Kind: experiment
Temperature: 373 K
Tabular data in the source: 0
pressure (bar)	uptake (mmol/g)
0.004769	0.00803
0.018797	0.021154
0.040026	0.036092
0.063312	0.052066
0.098348	0.069121
0.147456	0.083111
0.20804	0.095549
0.282321	0.106433
0.378037	0.114082
0.462327	0.117499
0.554196	0.118931
