Adsorption isotherm of Ethane on 1.5 K-ZNT
DOI: 10.1007/s10450-015-9658-8
Article source: Figure 4- experiment at 293 K
Adsorbate Ethane: InChIKey OTMSDBZUPAUEDD-UHFFFAOYSA-N
Kind: experiment
Temperature: 293 K
Tabular data in the source: 0
pressure (bar)	uptake (mmol/g)
0.003373	0.036137
0.006309	0.082732
0.013768	0.136665
0.02521	0.194596
0.043304	0.249954
0.073127	0.298307
0.115277	0.341241
0.171281	0.382427
0.24354	0.40834
0.328508	0.430641
0.422913	0.443363
0.542954	0.448973
