Adsorption isotherm of Ethene on 1.5 K-ZNT
DOI: 10.1007/s10450-015-9658-8
Article source: Figure 5- experiment at 373 K
Adsorbate Ethene: InChIKey VGGSQFUCUMXWEO-UHFFFAOYSA-N
Kind: experiment
Temperature: 373 K
Tabular data in the source: 0
pressure (bar)	uptake (mmol/g)
0.00615	0.03232
0.014772	0.07375
0.02927	0.11619
0.047829	0.15439
0.07413	0.19633
0.109436	0.23953
0.15413	0.27337
0.207938	0.3071
0.273605	0.33298
0.359093	0.34626
0.452267	0.35394
0.545384	0.36224
