Adsorption isotherm of Ethane on 1.8 K-ZNT
DOI: 10.1007/s10450-015-9658-8
Article source: Figure 6- experiment at 293 K
Adsorbate Ethane: InChIKey OTMSDBZUPAUEDD-UHFFFAOYSA-N
Kind: experiment
Temperature: 293 K
Tabular data in the source: 0
pressure (bar)	uptake (mmol/g)
0.000163	0.00246
0.004509	0.050664
0.008687	0.083505
0.014491	0.119453
0.022894	0.153287
0.034221	0.188071
0.047767	0.215777
0.063097	0.239211
0.086985	0.263854
0.120297	0.291864
0.161079	0.313963
0.2102	0.332653
0.278545	0.35143
0.350896	0.365591
0.448535	0.374963
0.549259	0.380495
