Adsorption isotherm of Ethene on ZNT
DOI: 10.1007/s10450-015-9658-8
Article source: Figure 2- experiment at 293 K
Adsorbate Ethene: InChIKey VGGSQFUCUMXWEO-UHFFFAOYSA-N
Kind: experiment
Temperature: 293 K
Tabular data in the source: 0
pressure (bar)	uptake (mmol/g)
8.1e-05	0.21278
0.000775	0.32847
0.00229	0.43578
0.004394	0.53333
0.00891	0.60787
0.01236	0.68028
0.020005	0.75559
0.027586	0.81901
0.040838	0.89005
0.065424	0.95883
0.095024	1.01801
0.127745	1.05693
0.175052	1.10135
0.235575	1.12643
0.299934	1.14543
0.422627	1.17502
0.540416	1.19881
