Adsorption isotherm of Ethene on ZNT
DOI: 10.1007/s10450-015-9658-8
Article source: Figure 2- experiment at 333 K
Adsorbate Ethene: InChIKey VGGSQFUCUMXWEO-UHFFFAOYSA-N
Kind: experiment
Temperature: 333 K
Tabular data in the source: 0
pressure (bar)	uptake (mmol/g)
0.001475	-0.00548
0.003241	0.15373
0.006573	0.22594
0.009665	0.28643
0.013579	0.33534
0.016608	0.38881
0.024537	0.43406
0.031879	0.48784
0.04548	0.54284
0.060378	0.58566
0.079647	0.6338
0.10222	0.67204
0.132646	0.7115
0.168625	0.74563
0.210332	0.78479
0.258831	0.81861
0.325697	0.85853
0.399408	0.88214
0.539681	0.91307
