Adsorption isotherm of Ethane on ZNT
DOI: 10.1007/s10450-015-9658-8
Article source: Figure 1- experiment at 293
Adsorbate Ethane: InChIKey OTMSDBZUPAUEDD-UHFFFAOYSA-N
Kind: experiment
Temperature: 293 K
Tabular data in the source: 0
pressure (bar)	uptake (mmol/g)
0.000336	0.04752
0.002146	0.08515
0.00505	0.12195
0.007247	0.16295
0.011242	0.19917
0.017551	0.24323
0.023477	0.29315
0.036206	0.33077
0.050673	0.3707
0.071047	0.40882
0.096755	0.44561
0.128176	0.47812
0.167754	0.50435
0.215876	0.5319
0.270226	0.55045
0.334726	0.57239
0.405455	0.58558
0.539134	0.59893
