Adsorption isotherm of Ethene on 1.8 K-ZNT
DOI: 10.1007/s10450-015-9658-8
Article source: Figure 7- experiment at 373
Adsorbate Ethene: InChIKey VGGSQFUCUMXWEO-UHFFFAOYSA-N
Kind: experiment
Temperature: 373 K
Tabular data in the source: 0
pressure (bar)	uptake (mmol/g)
0.006983	0.02011
0.018553	0.06371
0.033012	0.10304
0.055923	0.14214
0.084121	0.17674
0.120337	0.21157
0.16222	0.23909
0.213046	0.26246
0.267907	0.28559
0.336235	0.30569
0.418904	0.32096
0.541813	0.32812
