Adsorption isotherm of Ethane on 1.5 K-ZNT
DOI: 10.1007/s10450-015-9658-8
Article source: Figure 4- experiment at 373 K
Adsorbate Ethane: InChIKey OTMSDBZUPAUEDD-UHFFFAOYSA-N
Kind: experiment
Temperature: 373 K
Tabular data in the source: 0
pressure (bar)	uptake (mmol/g)
0.006434	0.012212
0.01936	0.029024
0.034412	0.045727
0.054755	0.062595
0.084426	0.083023
0.115736	0.099289
0.154573	0.112326
0.210156	0.127718
0.272996	0.140374
0.343529	0.1498
0.428626	0.157365
0.539856	0.160498
