Adsorption isotherm of Ethane on 1.8 K-ZNT
DOI: 10.1007/s10450-015-9658-8
Article source: Figure 6- experiment at 273 K
Adsorbate Ethane: InChIKey OTMSDBZUPAUEDD-UHFFFAOYSA-N
Kind: experiment
Temperature: 273 K
Tabular data in the source: 0
pressure (bar)	uptake (mmol/g)
0.007277	0.0795
0.016043	0.130644
0.029352	0.177214
0.050568	0.223655
0.077518	0.263666
0.113232	0.297722
0.158039	0.327246
0.215026	0.35388
0.283434	0.375595
0.359574	0.386304
0.442208	0.392483
0.547744	0.397498
