Adsorption isotherm of Ethene on 1.5 K-ZNT
DOI: 10.1007/s10450-015-9658-8
Article source: Figure 5- experiment at 293 K
Adsorbate Ethene: InChIKey VGGSQFUCUMXWEO-UHFFFAOYSA-N
Kind: experiment
Temperature: 293 K
Tabular data in the source: 0
pressure (bar)	uptake (mmol/g)
0	0.05265
0.000713	0.16742
0.004502	0.26597
0.010432	0.36252
0.019381	0.46506
0.038324	0.57095
0.068137	0.68569
0.109206	0.7711
0.165318	0.85
0.235871	0.89258
0.32015	0.92617
0.415025	0.94901
0.542458	0.95223
