Adsorption isotherm of Ethane on 1.5 K-ZNT
DOI: 10.1007/s10450-015-9658-8
Article source: Figure 4- experiment at 333 K
Adsorbate Ethane: InChIKey OTMSDBZUPAUEDD-UHFFFAOYSA-N
Kind: experiment
Temperature: 333 K
Tabular data in the source: 0
pressure (bar)	uptake (mmol/g)
0.00567	0.019211
0.017119	0.057086
0.02786	0.091677
0.042746	0.127089
0.063139	0.162446
0.089095	0.202126
0.127869	0.234251
0.173899	0.261832
0.22969	0.282188
0.29639	0.298546
0.386926	0.307404
0.470044	0.312924
0.549999	0.316802
