Adsorption isotherm of Nitrogen on C-PDA-3
DOI: 10.1016/j.ces.2016.08.026
Article source: Figure  1
Adsorbate Nitrogen: InChIKey IJGRMHOSHXDMSA-UHFFFAOYSA-N
Kind: experiment
Temperature: 77 K
Tabular data in the source: 0
pressure (bar)	uptake (mmol/g)
0.003151	4.008
0.004083	2.084
0.004813	9.277
0.004904	11.334
0.005188	6.065
0.005289	7.206
0.005289	7.228
0.006465	15.092
0.006475	15.118
0.006576	18.001
0.007316	22.231
0.013578	22.857
0.030641	25.943
0.060481	29.396
0.086785	31.838
0.101132	33.028
0.121408	34.567
0.14146	35.927
0.164815	37.247
0.1843	37.832
0.313307	41.088
0.366766	41.384
0.42364	41.761
0.47414	41.876
0.829436	42.663
0.859753	42.787
0.887455	42.743
0.908997	42.94
0.937033	43.092
0.963135	43.334
0.992428	43.665
1.0052	43.763
