Adsorption isotherm of Nitrogen on C-PDA-2
DOI: 10.1016/j.ces.2016.08.026
Article source: Figure  1
Adsorbate Nitrogen: InChIKey IJGRMHOSHXDMSA-UHFFFAOYSA-N
Kind: experiment
Temperature: 77 K
Tabular data in the source: 0
pressure (bar)	uptake (mmol/g)
0.002665	19.269
0.005157	9.348
0.005309	7.756
0.005806	12.989
0.00612	4.249
0.006242	2.818
0.006323	6.405
0.006394	10.601
0.006434	7.139
0.006485	1.664
0.006698	3.265
0.006708	4.387
0.006758	8.57
0.006971	21.837
0.007062	11.623
0.007072	11.737
0.007751	0.429
0.007832	0.565
0.010041	22.83
0.031218	25.728
0.060147	27.992
0.102875	30.398
0.126464	30.98
0.151309	31.418
0.17285	31.579
0.192224	31.99
0.209439	32.008
0.308717	32.518
0.360464	32.635
0.40834	32.715
0.459408	32.903
0.657174	32.921
0.759198	33.18
0.827592	33.198
0.859054	33.216
0.874546	33.314
0.884699	33.225
0.910912	33.368
0.928583	33.458
0.938269	33.386
0.949436	33.493
0.958443	33.344
0.960267	33.314
0.993096	33.529
