Adsorption isotherm of Ethene on C-PDA-3
DOI: 10.1016/j.ces.2016.08.026
Article source: Figure  7
Adsorbate Ethene: InChIKey VGGSQFUCUMXWEO-UHFFFAOYSA-N
Kind: experiment
Temperature: 298 K
Tabular data in the source: 0
pressure (bar)	uptake (mmol/g)
0.00704	0.1304
0.03239	0.4594
0.07794	0.9045
0.1168	1.2253
0.18002	1.7019
0.23807	2.0715
0.29713	2.4065
0.35503	2.7079
0.41366	3.0072
0.47107	3.2779
0.52883	3.5253
0.58789	3.7757
0.64588	4.0047
0.70465	4.2224
0.7622	4.4474
0.82054	4.6346
0.8786	4.834
0.93701	5.0161
0.99543	5.1962
