Adsorption isotherm of Ethene on C-PDA-5
DOI: 10.1016/j.ces.2016.08.026
Article source: Figure  5d
Adsorbate Ethene: InChIKey VGGSQFUCUMXWEO-UHFFFAOYSA-N
Kind: experiment
Temperature: 298 K
Tabular data in the source: 0
pressure (bar)	uptake (mmol/g)
0.276362	0.0805
0.71559	0.1374
3.9537	0.5362
6.7109	0.7987
10.0702	1.0841
13.2166	1.3381
16.4201	1.5668
19.5742	1.7726
22.7783	1.9711
25.9325	2.1552
29.0584	2.3308
32.2689	2.5064
35.3948	2.6675
38.5848	2.8142
41.7607	2.9632
44.9431	3.1159
48.126	3.2529
51.2872	3.3935
54.4208	3.5317
57.6249	3.6603
60.8284	3.784
62.8277	3.8585
