Adsorption isotherm of Ethane on C-PDA-3
DOI: 10.1016/j.ces.2016.08.026
Article source: Figure  7
Adsorbate Ethane: InChIKey OTMSDBZUPAUEDD-UHFFFAOYSA-N
Kind: experiment
Temperature: 313 K
Tabular data in the source: 0
pressure (bar)	uptake (mmol/g)
0.00733	0.0998
0.03426	0.3983
0.07779	0.8332
0.1168	1.1489
0.18074	1.5959
0.23958	1.9564
0.29785	2.2924
0.35468	2.6019
0.41323	2.8716
0.47136	3.1383
0.5297	3.3928
0.5884	3.631
0.64595	3.8579
0.70408	4.0737
0.76278	4.2792
0.82041	4.4837
0.87875	4.6648
0.93688	4.8531
0.99536	5.0168
