Adsorption isotherm of Nitrogen on C-PDA-5
DOI: 10.1016/j.ces.2016.08.026
Article source: Figure  1
Adsorbate Nitrogen: InChIKey IJGRMHOSHXDMSA-UHFFFAOYSA-N
Kind: experiment
Temperature: 77 K
Tabular data in the source: 0
pressure (bar)	uptake (mmol/g)
0.005684	13.973
0.005907	2.031
0.005928	5.122
0.005978	12.508
0.006029	13.311
0.006475	2.567
0.006546	2.632
0.006606	12.855
0.006606	12.453
0.006667	5.716
0.006677	3.45
0.006698	3.122
0.00692	3.775
0.007022	4.697
0.007022	7.962
0.007042	15.056
0.007093	9.76
0.007143	15.593
0.007174	0.385
0.007235	6.835
0.007306	10.431
0.007397	0.877
0.007437	8.928
0.007498	14.6
0.007528	11.057
0.00762	1.36
0.007751	11.648
0.007903	14.988
0.008055	16.174
0.009869	16.72
0.010092	17.758
0.011804	17.158
0.011906	17.229
0.012352	19.431
0.012362	19.44
0.03136	22.15
0.065871	25.236
0.076693	26.158
0.081931	26.498
0.102896	27.741
0.122036	29.128
0.141288	30.362
0.162252	31.713
0.181726	32.948
0.201667	34.093
0.246777	36.866
0.307613	40.131
0.358772	43.218
0.40605	45.776
0.45732	48.496
0.507456	50.687
0.557936	52.324
0.607849	53.559
0.657316	54.194
0.70735	54.615
0.758306	54.963
0.810164	55.187
0.828291	55.518
0.860665	55.617
0.885966	55.867
0.909554	56.082
0.935432	56.153
0.961534	56.44
0.988436	56.779
0.996177	57.012
1.00143	57.155
