Adsorption isotherm of Nitrogen on C-PDA-4
DOI: 10.1016/j.ces.2016.08.026
Article source: Figure  1
Adsorbate Nitrogen: InChIKey IJGRMHOSHXDMSA-UHFFFAOYSA-N
Kind: experiment
Temperature: 77 K
Tabular data in the source: 0
pressure (bar)	uptake (mmol/g)
0.082357	30.541
0.142037	35.461
0.203319	39.594
0.253677	42.6
0.305292	44.98
0.354972	46.724
0.407509	48.12
0.455942	49.068
0.506787	49.229
0.557845	49.578
0.608001	49.775
0.658379	49.936
0.708647	50.124
0.760171	50.258
0.80987	50.482
0.834259	50.526
0.860249	50.634
0.884648	50.777
0.910517	50.902
0.918612	51.063
0.944258	51.099
0.983349	51.403
1.00672	51.537
