Adsorption isotherm of Ethene on C-PDA-4
DOI: 10.1016/j.ces.2016.08.026
Article source: Figure  5c
Adsorbate Ethene: InChIKey VGGSQFUCUMXWEO-UHFFFAOYSA-N
Kind: experiment
Temperature: 298 K
Tabular data in the source: 0
pressure (bar)	uptake (mmol/g)
0.287903	0.0834
0.748933	0.159
3.84662	0.6026
7.82404	1.0485
10.1516	1.2738
13.3147	1.5524
16.3996	1.8084
19.621	2.049
22.8066	2.2766
25.9703	2.4922
29.1199	2.6996
32.2984	2.8939
35.4987	3.0716
38.6201	3.2362
41.8633	3.4138
45.0206	3.5868
48.1991	3.7443
51.3923	3.9065
54.6074	4.0581
57.7647	4.1977
60.9214	4.341
62.8315	4.4298
