Adsorption isotherm of Ethane on C-PDA-3
DOI: 10.1016/j.ces.2016.08.026
Article source: Figure  7
Adsorbate Ethane: InChIKey OTMSDBZUPAUEDD-UHFFFAOYSA-N
Kind: experiment
Temperature: 298 K
Tabular data in the source: 0
pressure (bar)	uptake (mmol/g)
0.00696	0.1814
0.0382	0.6877
0.07563	1.1776
0.13482	1.7979
0.18101	2.2145
0.23927	2.7013
0.29674	3.1188
0.35508	3.5211
0.41219	3.8764
0.47146	4.2246
0.52872	4.5372
0.58757	4.8426
0.64619	5.1317
0.70389	5.3923
0.76288	5.6488
0.821	5.8921
0.87848	6.1282
0.93682	6.3409
0.99495	6.5475
