Adsorption isotherm of Nitrogen on C-PDA-2
DOI: 10.1016/j.ces.2016.08.026
Article source: Figure  1
Adsorbate Nitrogen: InChIKey IJGRMHOSHXDMSA-UHFFFAOYSA-N
Kind: experiment
Temperature: 77 K
Tabular data in the source: 0
pressure (bar)	uptake (mmol/g)
0.085326	29.745
0.142645	31.445
0.20419	32.008
0.255602	32.295
0.304269	32.599
0.355225	32.617
0.404236	32.787
0.455983	32.921
0.505794	32.948
0.557095	32.992
0.607129	33.127
0.657174	33.171
0.708019	33.171
0.740503	33.198
0.808097	33.234
0.832831	33.171
0.842173	33.306
0.867139	33.332
0.891194	33.368
0.918775	33.413
0.943397	33.44
0.983866	33.565
1.00609	33.663
