Adsorption isotherm of Nitrogen on C-PDA-5
DOI: 10.1016/j.ces.2016.08.026
Article source: Figure  1
Adsorbate Nitrogen: InChIKey IJGRMHOSHXDMSA-UHFFFAOYSA-N
Kind: experiment
Temperature: 77 K
Tabular data in the source: 0
pressure (bar)	uptake (mmol/g)
0.082387	26.462
0.143334	30.595
0.203602	34.37
0.253495	37.465
0.300206	40.212
0.338709	42.493
0.405361	46.349
0.461049	51.967
0.506514	53.514
0.556325	54.051
0.607383	54.409
0.657538	54.802
0.70815	55.142
0.759552	55.473
0.809141	55.688
0.83433	55.885
0.860655	56.037
0.883686	56.117
0.910922	56.296
0.919018	56.386
0.945008	56.592
0.984778	56.994
1.00564	57.28
