Adsorption isotherm of Ethane on C-PDA-3
DOI: 10.1016/j.ces.2016.08.026
Article source: Figure  7
Adsorbate Ethane: InChIKey OTMSDBZUPAUEDD-UHFFFAOYSA-N
Kind: experiment
Temperature: 273 K
Tabular data in the source: 0
pressure (bar)	uptake (mmol/g)
0.00689	0.3087
0.03416	1.185
0.08285	2.2466
0.13204	3.0585
0.18095	3.7441
0.2387	4.4592
0.29947	5.0989
0.35421	5.6091
0.41254	6.1224
0.47131	6.5562
0.52957	6.9799
0.58784	7.3607
0.6461	7.714
0.7043	8.048
0.76156	8.3503
0.8209	8.6272
0.87867	8.9062
0.93679	9.1494
0.9937	9.3906
