Adsorption isotherm of Ethene on C-PDA-3
DOI: 10.1016/j.ces.2016.08.026
Article source: Figure  7
Adsorbate Ethene: InChIKey VGGSQFUCUMXWEO-UHFFFAOYSA-N
Kind: experiment
Temperature: 273 K
Tabular data in the source: 0
pressure (bar)	uptake (mmol/g)
0.00675	0.2303
0.03676	0.9058
0.08581	1.6596
0.13516	2.2779
0.18034	2.7414
0.23889	3.3036
0.29779	3.7934
0.35412	4.2201
0.41288	4.6366
0.47129	5.0165
0.52862	5.3647
0.58761	5.7109
0.64659	6.0203
0.70421	6.3013
0.76191	6.5772
0.82061	6.852
0.87916	7.0932
0.9365	7.3385
0.99499	7.5686
