Adsorption isotherm of Ethene on C-PDA-3
DOI: 10.1016/j.ces.2016.08.026
Article source: Figure  7
Adsorbate Ethene: InChIKey VGGSQFUCUMXWEO-UHFFFAOYSA-N
Kind: experiment
Temperature: 288 K
Tabular data in the source: 0
pressure (bar)	uptake (mmol/g)
0.00675	0.1763
0.04158	0.6173
0.07656	1.0686
0.13554	1.6298
0.1808	2.0219
0.23877	2.4598
0.29826	2.8518
0.3548	3.2052
0.41343	3.5422
0.47083	3.8374
0.52967	4.1367
0.58729	4.4167
0.64513	4.6752
0.70398	4.9205
0.76182	5.1627
0.82109	5.3876
0.87828	5.6054
0.93663	5.811
0.99411	6.0176
