Adsorption isotherm of Ethane on C-PDA-2
DOI: 10.1016/j.ces.2016.08.026
Article source: Figure  5a
Adsorbate Ethane: InChIKey OTMSDBZUPAUEDD-UHFFFAOYSA-N
Kind: experiment
Temperature: 298 K
Tabular data in the source: 0
pressure (bar)	uptake (mmol/g)
0.377031	0.2523
2.30707	1.013
4.94052	1.7858
7.65412	2.4053
11.6444	3.1178
15.3666	3.7205
19.0952	4.2386
22.7809	4.7133
26.4884	5.1337
30.2395	5.5203
33.961	5.8683
37.6615	6.1957
41.3401	6.4929
45.2361	6.7842
48.7839	7.0331
52.5202	7.2688
56.2925	7.5093
59.964	7.7208
63.7658	7.9312
