Adsorption isotherm of Ethane on C-PDA-3
DOI: 10.1016/j.ces.2016.08.026
Article source: Figure  5b
Adsorbate Ethane: InChIKey OTMSDBZUPAUEDD-UHFFFAOYSA-N
Kind: experiment
Temperature: 298 K
Tabular data in the source: 0
pressure (bar)	uptake (mmol/g)
0.320605	0.2243
0.916289	0.3259
3.61771	1.0115
7.79391	1.7389
10.1189	2.0921
13.2557	2.5372
16.5445	2.9161
19.6351	3.2869
22.6873	3.6158
25.8626	3.9301
29.0192	4.2218
32.299	4.5023
35.3518	4.7617
38.5931	5.0115
41.7312	5.2403
44.9443	5.4707
48.1581	5.6801
51.2013	5.8799
54.4342	6.0958
57.5909	6.2777
60.9464	6.4662
62.6853	6.5789
