Adsorption isotherm of Ethane on C-PDA-4
DOI: 10.1016/j.ces.2016.08.026
Article source: Figure  5c
Adsorbate Ethane: InChIKey OTMSDBZUPAUEDD-UHFFFAOYSA-N
Kind: experiment
Temperature: 298 K
Tabular data in the source: 0
pressure (bar)	uptake (mmol/g)
0.359078	0.1789
0.697636	0.2469
3.72287	0.8211
7.85033	1.4284
10.0907	1.7107
13.3333	2.0854
16.4246	2.4115
19.6236	2.7341
22.7514	3.0103
25.9222	3.2806
29.093	3.5461
32.2933	3.7903
35.5288	4.0107
38.6573	4.2299
41.7921	4.4479
45.0136	4.6458
48.2498	4.8484
51.3276	5.0368
54.4772	5.2144
57.6922	5.3897
60.9502	5.5627
62.8604	5.6669
