Adsorption isotherm of Nitrogen on C-PDA-4
DOI: 10.1016/j.ces.2016.08.026
Article source: Figure  1
Adsorbate Nitrogen: InChIKey IJGRMHOSHXDMSA-UHFFFAOYSA-N
Kind: experiment
Temperature: 77 K
Tabular data in the source: 0
pressure (bar)	uptake (mmol/g)
0.003354	19.439
0.004164	5.636
0.004367	7.215
0.004408	4.026
0.005066	6.307
0.005198	5.09
0.00535	0.519
0.005401	7.121
0.005441	3.328
0.005624	8.382
0.006161	11.308
0.006404	9.411
0.006465	15.101
0.006475	12.629
0.006495	12.113
0.006606	12.989
0.006698	2.764
0.006829	1.163
0.007042	2.308
0.007052	1.789
0.007306	10.628
0.007447	20.379
0.007711	13.041
0.007853	13.437
0.010173	20.826
0.013132	21.354
0.016323	22.007
0.03134	25.129
0.060369	28.332
0.088507	30.944
0.102055	32.062
0.120506	33.628
0.14147	35.166
0.161512	36.696
0.182253	38.002
0.203896	39.335
0.25083	42.198
0.31202	44.998
0.368306	46.966
0.404206	47.825
0.456864	48.675
0.506676	49.032
0.55671	49.328
0.608001	49.56
0.657812	49.775
0.709569	49.945
0.759715	50.115
0.809759	50.258
0.831068	50.41
0.860705	50.499
0.885672	50.517
0.910638	50.643
0.936162	50.857
0.960784	51
0.987797	51.322
0.993836	51.457
1.00307	51.537
