Adsorption isotherm of Ethene on C-PDA-3
DOI: 10.1016/j.ces.2016.08.026
Article source: Figure  5b
Adsorbate Ethene: InChIKey VGGSQFUCUMXWEO-UHFFFAOYSA-N
Kind: experiment
Temperature: 298 K
Tabular data in the source: 0
pressure (bar)	uptake (mmol/g)
0.359078	0.1038
0.718155	0.1823
3.7607	0.7129
7.79519	1.2612
10.0638	1.5208
13.2769	1.8545
16.424	2.1607
19.6274	2.4412
22.7373	2.6958
25.9979	2.9536
29.0975	3.1808
32.2073	3.4015
35.4018	3.5996
38.6438	3.7962
41.7441	3.9862
44.9289	4.1763
48.1241	4.3566
51.2712	4.5241
54.3996	4.7012
57.5948	4.8558
60.7797	5.0055
62.7931	5.0989
