Adsorption isotherm of Ethane on C-PDA-5
DOI: 10.1016/j.ces.2016.08.026
Article source: Figure  5d
Adsorbate Ethane: InChIKey OTMSDBZUPAUEDD-UHFFFAOYSA-N
Kind: experiment
Temperature: 298 K
Tabular data in the source: 0
pressure (bar)	uptake (mmol/g)
0.417428	0.1647
0.630309	0.2014
3.83957	0.7063
6.62434	1.0581
10.0683	1.4436
13.2359	1.7495
16.39	2.041
19.5864	2.3167
22.7046	2.5502
25.8869	2.7898
29.0622	3.0112
32.2234	3.2146
35.3775	3.4191
38.5527	3.614
41.7921	3.7969
44.961	3.9701
48.094	4.1384
51.3186	4.3068
54.4592	4.4667
57.6416	4.6206
60.8528	4.7781
62.7168	4.8598
