Adsorption isotherm of Ethene on C-PDA-3
DOI: 10.1016/j.ces.2016.08.026
Article source: Figure  7
Adsorbate Ethene: InChIKey VGGSQFUCUMXWEO-UHFFFAOYSA-N
Kind: experiment
Temperature: 313 K
Tabular data in the source: 0
pressure (bar)	uptake (mmol/g)
0.00546	0.0642
0.0342	0.2821
0.07716	0.5723
0.11775	0.8157
0.18112	1.1425
0.23788	1.4153
0.2978	1.685
0.35492	1.9161
0.41384	2.1359
0.47002	2.3537
0.5298	2.5592
0.58613	2.7536
0.64606	2.9397
0.70476	3.1188
0.76296	3.3091
0.82087	3.4626
0.87843	3.6234
0.93699	3.7892
0.99497	3.9377
