Adsorption isotherm of Ethane on C-PDA-3
DOI: 10.1016/j.ces.2016.08.026
Article source: Figure  7
Adsorbate Ethane: InChIKey OTMSDBZUPAUEDD-UHFFFAOYSA-N
Kind: experiment
Temperature: 288 K
Tabular data in the source: 0
pressure (bar)	uptake (mmol/g)
0.00488	0.2038
0.03763	0.8161
0.08632	1.5027
0.13351	2.0843
0.17949	2.56
0.23868	3.1283
0.29816	3.6284
0.35412	4.0571
0.41275	4.4614
0.47159	4.8463
0.52863	5.1976
0.58804	5.5376
0.64523	5.8542
0.70393	6.1485
0.76206	6.4213
0.82033	6.69
0.8778	6.9373
0.93686	7.1806
0.99542	7.4035
