Adsorption isotherm of Ethene on C-PDA-2
DOI: 10.1016/j.ces.2016.08.026
Article source: Figure  5a
Adsorbate Ethene: InChIKey VGGSQFUCUMXWEO-UHFFFAOYSA-N
Kind: experiment
Temperature: 298 K
Tabular data in the source: 0
pressure (bar)	uptake (mmol/g)
0.428328	0.1485
2.37953	0.774
5.02067	1.3609
7.62527	1.821
11.5501	2.3887
15.3153	2.8791
19.0157	3.3019
22.7379	3.6981
26.4159	4.0497
30.2106	4.3916
33.961	4.6973
37.6249	4.9861
41.4562	5.2616
45.1489	5.5057
48.8852	5.7438
52.5343	5.9759
56.2854	6.1971
59.9422	6.4147
63.744	6.6346
