Adsorption isotherm of Nitrogen on C-PDA-3
DOI: 10.1016/j.ces.2016.08.026
Article source: Figure  1
Adsorbate Nitrogen: InChIKey IJGRMHOSHXDMSA-UHFFFAOYSA-N
Kind: experiment
Temperature: 77 K
Tabular data in the source: 0
pressure (bar)	uptake (mmol/g)
0.076764	31.078
0.149546	36.365
0.206521	38.816
0.255521	40.248
0.304877	41.044
0.354688	41.339
0.405401	41.625
0.456702	41.804
0.50697	42.064
0.558149	42.171
0.608305	42.296
0.659028	42.439
0.709751	42.511
0.760241	42.627
0.810509	42.77
0.836499	42.869
0.862489	42.958
0.886432	43.083
0.911499	43.2
0.920051	43.325
0.945018	43.37
0.984342	43.629
1.00873	43.736
