Adsorption isotherm of Water on Cobalt Triazolyl Phosphonate MOF (Activated at 403K)
DOI: 10.1039/c5dt02651b
Article source: Figure S6
Adsorbate Water: InChIKey XLYOFNOQVPJJNP-UHFFFAOYSA-N
Kind: experiment
Temperature: 298 K
Tabular data in the source: 0
pressure (bar)	uptake (cm3(STP)/g)
0.000855	1.20355
0.001338	14.1054
0.001767	28.1764
0.002088	37.5584
0.002304	50.4501
0.002519	60.9993
0.002787	73.8931
0.003216	85.6216
0.003538	97.3461
0.004127	106.738
0.004663	119.642
0.005466	131.385
0.006643	145.484
0.007713	157.237
0.008516	168.98
0.008915	402.07
0.009587	181.904
0.010306	413.835
0.010657	194.828
0.011781	207.754
0.011964	422.096
0.012905	220.68
0.013654	233.592
0.014103	433.89
0.014831	245.348
0.015741	254.753
0.016812	272.362
0.016884	443.365
0.018257	287.642
0.019648	304.092
0.020038	452.854
0.020986	320.54
0.022057	338.149
0.023246	460.002
0.023288	358.106
0.02452	381.578
0.025544	463.603
0.025965	402.714
0.026877	426.174
0.028001	446.127
0.028912	467.244
