Adsorption isotherm of Carbon Dioxide on Cobalt Triazolyl Phosphonate MOF
DOI: 10.1039/c5dt02651b
Article source: Figure S5
Adsorbate Carbon Dioxide: InChIKey CURLTUGMZLYLDI-UHFFFAOYSA-N
Kind: experiment
Temperature: 195 K
Tabular data in the source: 0
pressure (bar)	uptake (cm3(STP)/g)
0.008424	31.8705
0.010366	5.78848
0.022922	36.9316
0.029034	18.0913
0.031199	38.3748
0.045609	25.3244
0.049842	45.6064
0.074674	49.9359
0.080786	31.0956
0.097425	51.369
0.107678	33.9747
0.136632	35.4035
0.149125	53.5064
0.159389	38.2855
0.186279	40.4401
0.198754	54.9207
0.21316	41.1459
0.237975	41.8531
0.250448	55.6092
0.266925	42.5574
0.29174	43.2645
0.302141	56.2976
0.318619	43.2458
0.343433	43.953
0.35383	56.2616
0.370312	43.9343
0.40552	56.2256
0.424076	45.3457
0.44889	46.0529
0.457206	55.4651
0.475772	46.7587
0.500629	56.1594
0.525394	46.7241
0.552315	55.3989
0.587425	47.4053
0.604001	54.6384
0.637051	48.0952
0.655691	54.6024
0.690809	48.0578
0.707381	54.5664
0.742505	49.4707
0.759067	53.8059
0.796262	49.4333
0.810756	53.7699
0.847952	49.3972
0.862439	52.285
0.899642	49.3612
0.914129	52.249
0.951335	50.0497
0.967882	51.4871
0.992694	51.4698
1.00716	50.0108
1.0299	49.995
