Adsorption isotherm of Nitrogen on Cobalt Triazolyl Phosphonate MOF (Activated at 403K)
DOI: 10.1039/c5dt02651b
Article source: Figure S6
Adsorbate Nitrogen: InChIKey IJGRMHOSHXDMSA-UHFFFAOYSA-N
Kind: experiment
Temperature: 77 K
Tabular data in the source: 0
pressure (bar)	uptake (cm3(STP)/g)
0.139411	-1.16822
0.165229	-1.16822
0.215143	-1.16822
0.265057	-1.16822
0.320134	-1.16822
0.370048	-1.16822
0.378657	0
0.419962	-1.16822
0.430289	-1.16822
0.469876	-1.16822
0.478482	-1.16822
0.518069	-1.16822
0.528396	-1.16822
0.5697	-2.33645
0.581748	-2.33645
0.621335	-2.33645
0.629941	-2.33645
0.669524	-3.50467
0.679855	-2.33645
0.721163	-2.33645
0.729769	-2.33645
0.767635	-2.33645
0.779683	-2.33645
0.819266	-3.50467
0.831318	-2.33645
0.867459	-3.50467
0.881228	-3.50467
0.919094	-3.50467
0.929421	-3.50467
0.965569	-2.33645
0.972458	-1.16822
1.00175	9.34579
