Adsorption isotherm of Water on Lanthanum Triazolyl Phosphonate MOF
DOI: 10.1039/c5dt02651b
Article source: Figure 3
Adsorbate Water: InChIKey XLYOFNOQVPJJNP-UHFFFAOYSA-N
Kind: experiment
Temperature: 298 K
Tabular data in the source: 0
pressure (bar)	uptake (cm3(STP)/g)
0.000181	8.77193
0.000479	31.5789
0.001473	45.614
0.003163	75.4386
0.003263	49.1228
0.004257	56.1404
0.004754	85.9649
0.004953	85.9649
0.005052	63.1579
0.005649	68.4211
0.006146	94.7368
0.006345	70.1754
0.006941	115.789
0.007041	107.018
0.00714	128.07
0.007239	94.7368
0.007339	242.105
0.007438	107.018
0.007538	115.789
0.007637	233.333
0.007736	126.316
0.007836	182.456
0.008134	294.737
0.008731	321.053
0.009228	298.246
0.010421	328.07
0.012011	335.088
0.01221	308.772
0.013204	338.596
0.013602	312.281
0.014397	340.351
0.015292	315.789
0.015988	343.86
0.01728	319.298
0.017579	349.123
0.01907	354.386
0.019269	324.561
0.02076	359.649
0.020859	328.07
0.022748	335.088
0.022947	361.404
0.02414	336.842
0.025234	364.912
0.025532	343.86
0.027421	349.123
0.028713	373.684
