Adsorption isotherm of Water on Cobalt Triazolyl Phosphonate MOF (95%RH)
DOI: 10.1039/c5dt02651b
Article source: Figure 4
Adsorbate Water: InChIKey XLYOFNOQVPJJNP-UHFFFAOYSA-N
Kind: experiment
Temperature: 298 K
Tabular data in the source: 0
pressure (bar)	uptake (cm3(STP)/g)
0	17.9641
0.000735	33.0051
0.001348	42.0463
0.002573	39.1707
0.002696	102.057
0.003186	185.936
0.003921	191.995
0.004289	207.001
0.005146	198.102
0.005881	216.137
0.006249	204.196
0.006984	219.237
0.007474	207.309
0.008577	225.379
0.009067	213.451
0.010047	228.515
0.010783	213.616
0.011763	231.675
0.013111	240.787
0.013478	216.871
0.015194	223.024
0.016419	232.125
0.018257	232.302
0.01887	247.331
0.020095	235.474
0.02034	250.467
0.0223	253.651
0.023036	244.74
0.024383	244.87
0.024874	256.893
0.025976	248.018
0.027079	248.124
0.02904	260.29
