Adsorption isotherm of Water on Cobalt Triazolyl Phosphonate MOF (Activated at 403K)
DOI: 10.1039/c5dt02651b
Article source: Figure 4
Adsorbate Water: InChIKey XLYOFNOQVPJJNP-UHFFFAOYSA-N
Kind: experiment
Temperature: 298 K
Tabular data in the source: 0
pressure (bar)	uptake (cm3(STP)/g)
0.00098	3.08868
0.001225	12.0944
0.001715	24.1178
0.002451	69.099
0.003186	84.14
0.003308	99.1219
0.003921	108.163
0.004534	120.198
0.005514	132.269
0.006617	144.352
0.007597	159.416
0.008577	171.487
0.008822	399.056
0.009435	180.552
0.010415	417.174
0.010905	192.67
0.011518	207.699
0.011885	420.31
0.012866	219.805
0.013478	234.835
0.014091	435.493
0.014949	243.959
0.015561	258.988
0.016542	444.711
0.016909	271.094
0.018257	289.188
0.019727	304.3
0.020095	451.043
0.021075	325.389
0.021933	337.448
0.023158	460.32
0.023403	361.542
0.024628	382.618
0.025731	466.557
0.025854	403.695
0.026957	427.753
0.028059	448.818
0.028917	469.859
