Adsorption isotherm of Nitrogen on Cobalt Triazolyl Phosphonate MOF
DOI: 10.1039/c5dt02651b
Article source: Figure S5
Adsorbate Nitrogen: InChIKey IJGRMHOSHXDMSA-UHFFFAOYSA-N
Kind: experiment
Temperature: 77 K
Tabular data in the source: 0
pressure (bar)	uptake (cm3(STP)/g)
1.3e-05	2.89784
0.019901	4.33236
0.041776	5.76544
0.081537	5.73663
0.093483	9.35029
0.111359	5.71503
0.133244	9.32148
0.143171	6.41644
0.178973	10.0128
0.192873	6.38044
0.228671	9.25235
0.244562	6.34299
0.278369	8.49188
0.294267	7.03144
0.330062	9.1789
0.367826	6.97815
0.377779	9.86879
0.419515	6.9407
0.427481	9.83278
0.467229	6.90614
0.477179	9.07232
0.518919	6.86869
0.526881	9.03631
0.568624	7.55714
0.578571	8.99886
0.618325	7.52114
0.626284	8.9643
0.66803	8.20959
0.677974	8.92685
0.71972	8.17214
0.727675	8.89084
0.767433	8.13758
0.777377	8.85483
0.817135	8.10157
0.827079	8.81883
0.866837	8.06556
0.878765	8.05692
0.916538	8.02955
0.92847	8.74537
0.964252	7.99499
0.972204	7.98923
1.00008	17.387
