Adsorption isotherm of Water on Cobalt Triazolyl Phosphonate MOF
DOI: 10.1039/c5dt02651b
Article source: Figure S5
Adsorbate Water: InChIKey XLYOFNOQVPJJNP-UHFFFAOYSA-N
Kind: experiment
Temperature: 298 K
Tabular data in the source: 0
pressure (bar)	uptake (cm3(STP)/g)
6.4e-05	15.2122
0.00025	21.0036
0.000557	14.4762
0.000744	31.1345
0.001606	26.0431
0.00167	41.2553
0.002347	38.3417
0.002349	51.3819
0.002474	62.9704
0.002476	74.5618
0.002478	86.1532
0.002481	108.611
0.002534	52.1021
0.002536	64.4179
0.002541	98.4675
0.002542	102.09
0.002544	119.477
0.002545	129.619
0.002547	139.037
0.002548	149.18
0.00255	159.322
0.002551	170.189
0.002553	179.607
0.0026	76.7323
0.002601	89.7726
0.002605	115.129
0.002609	142.658
0.002611	154.974
0.002613	167.29
0.002616	190.473
0.002669	130.341
0.002738	179.603
0.003108	185.39
0.00311	200.603
0.004033	191.164
0.004591	210.711
0.005205	196.932
0.005948	217.2
0.006192	201.256
0.007058	220.796
0.007548	205.571
0.008537	225.108
0.009028	209.883
0.009955	228.698
0.010754	214.19
0.011682	232.28
0.0131	235.869
0.01322	219.203
0.014456	240.184
0.015008	222.784
0.016367	243.037
0.016488	225.647
0.018091	229.232
0.018709	246.605
0.019879	233.537
0.020312	249.465
0.021235	236.403
0.022346	251.591
0.022961	239.985
0.024256	243.577
0.024935	255.153
0.025674	246.442
0.026968	250.034
0.029003	257.231
