Adsorption isotherm of Water on Cobalt Triazolyl Phosphonate MOF
DOI: 10.1039/c5dt02651b
Article source: Figure 4
Adsorbate Water: InChIKey XLYOFNOQVPJJNP-UHFFFAOYSA-N
Kind: experiment
Temperature: 298 K
Tabular data in the source: 0
pressure (bar)	uptake (cm3(STP)/g)
0.000849	20.8333
0.001579	29.7619
0.001943	41.6667
0.002307	50.5952
0.002426	59.5238
0.00254	92.2619
0.002543	83.3333
0.002647	157.738
0.002649	145.833
0.002652	136.905
0.002656	119.048
0.00266	104.167
0.002668	68.4524
0.002888	166.667
0.003003	196.429
0.003132	169.643
0.004106	178.571
0.004464	211.31
0.005204	181.548
0.005683	217.262
0.006301	187.5
0.007146	226.19
0.007643	187.5
0.008244	226.19
0.008983	199.405
0.009585	232.143
0.010447	202.381
0.011658	238.095
0.011909	211.31
0.012756	241.071
0.013252	211.31
0.014587	241.071
0.014593	214.286
0.016172	247.024
0.016542	229.167
0.018734	252.976
0.01874	226.19
0.02032	252.976
0.021178	238.095
0.023126	255.952
0.023374	244.048
0.025811	258.929
0.026789	252.976
0.02996	261.905
