Adsorption isotherm of Carbon Dioxide on Cobalt Triazolyl Phosphonate MOF (Activated at 403K)
DOI: 10.1039/c5dt02651b
Article source: Figure S6
Adsorbate Carbon Dioxide: InChIKey CURLTUGMZLYLDI-UHFFFAOYSA-N
Kind: experiment
Temperature: 195 K
Tabular data in the source: 0
pressure (bar)	uptake (cm3(STP)/g)
0.00359	1.17528
0.005396	4.69101
0.023336	7.05369
0.025108	1.19951
0.052013	3.57228
0.055578	-2.27988
0.075327	4.76977
0.082483	0.092891
0.095047	3.62074
0.10938	0.123182
0.138069	0.155492
0.147052	4.85055
0.166764	1.35904
0.191858	-0.955166
0.200841	3.73989
0.216971	1.41558
0.243863	0.274635
0.251048	3.79643
0.27076	0.304926
0.29407	0.331178
0.304846	5.02825
0.324553	0.365507
0.355049	3.91355
0.372967	0.420031
0.408842	3.97414
0.426765	1.65185
0.450075	1.6781
0.460842	4.0327
0.476972	1.70839
0.502084	4.07914
0.528972	1.76696
0.554084	4.13771
0.588145	1.8336
0.606084	4.19627
0.641938	1.89418
0.658084	4.25483
0.693938	1.95274
0.711878	4.31541
0.747731	2.01332
0.763874	3.20273
0.796145	2.06784
0.815874	3.2613
0.849939	2.12842
0.867874	3.31986
0.901935	1.01575
0.919874	3.37842
0.953939	2.24555
0.970077	2.26372
0.996978	3.46525
1.00774	4.64861
1.03284	3.50564
