Adsorption isotherm of Water on Cobalt Triazolyl Phosphonate MOF
DOI: 10.1039/c5dt02651b
Article source: Figure 3
Adsorbate Water: InChIKey XLYOFNOQVPJJNP-UHFFFAOYSA-N
Kind: experiment
Temperature: 298 K
Tabular data in the source: 0
pressure (bar)	uptake (cm3(STP)/g)
0	14.0351
0.000181	19.2982
0.000777	31.5789
0.001672	42.1053
0.001771	26.3158
0.002368	52.6316
0.002467	38.5965
0.002567	182.456
0.003064	198.246
0.003263	184.211
0.004058	187.719
0.004356	210.526
0.00535	198.246
0.005848	217.544
0.006146	200
0.00714	221.053
0.007637	203.509
0.008532	224.561
0.010122	229.825
0.01062	212.281
0.011614	233.333
0.013105	236.842
0.013204	219.298
0.014397	240.351
0.015093	222.807
0.016386	242.105
0.017976	228.07
0.018672	247.368
0.019865	233.333
0.020263	249.123
0.021158	236.842
0.022052	252.632
0.022947	240.351
0.02424	242.105
0.025234	257.895
0.025631	245.614
0.027023	247.368
0.028912	257.895
