Adsorption isotherm of Methane on UTSA-80a
DOI: 10.1039/C4ta01860e
Adsorbate Methane: InChIKey VNWKTOKETHGBQD-UHFFFAOYSA-N
Temperature: 240 K
Tabular data in the source: 0
pressure (bar)	uptake (cm3(STP)/cm3)
-0.592492	8.68339
-0.00852506	17.3911
0.183289	26.0908
0.566206	44.9393
0.953386	55.0922
1.33843	69.5929
1.72064	89.8907
2.49429	111.646
3.46118	139.202
4.82021	166.766
5.59883	178.377
8.52719	204.524
12.242	226.34
17.3307	245.286
24.9692	262.836
30.0629	271.637
35.7456	279.001
42.2111	289.28
49.6599	293.782
58.6745	304.113
62.3985	307.089
64.1618	310.024
