Adsorption isotherm of Methane on UTSA-80a
DOI: 10.1039/C4ta01860e
Adsorbate Methane: InChIKey VNWKTOKETHGBQD-UHFFFAOYSA-N
Temperature: 300 K
Tabular data in the source: 0
pressure (bar)	uptake (cm3(STP)/cm3)
-0.00142084	2.89852
0.583256	10.157
1.36401	17.4195
1.36543	14.521
1.75332	23.2247
2.33871	29.0339
3.11875	37.7457
3.89666	50.8053
5.06744	62.4238
5.8489	68.237
7.99651	87.1221
10.3416	103.113
13.0774	122.01
16.7951	138.029
22.2753	158.432
29.1294	175.965
31.2813	186.155
35.3961	192.037
40.0976	200.83
44.9953	209.627
50.2858	216.983
56.3599	225.805
61.6511	231.711
64.0026	234.658
