Adsorption isotherm of Methane on UTSA-80a
DOI: 10.1039/C4ta01860e
Adsorbate Methane: InChIKey VNWKTOKETHGBQD-UHFFFAOYSA-N
Temperature: 270 K
Tabular data in the source: 0
pressure (bar)	uptake (cm3(STP)/cm3)
-0.198208	4.34372
0.385759	13.0515
0.770808	27.5522
1.1587	36.2559
1.74195	46.4129
2.32521	56.5699
3.29707	73.9813
4.465	91.3968
5.63365	107.363
7.58304	130.592
11.0996	156.752
15.0098	180.021
20.6861	200.428
28.1277	219.423
30.6739	225.273
35.7676	234.074
41.8417	242.895
48.1119	251.721
55.3625	260.567
61.2419	266.485
63.5934	269.433
