Adsorption isotherm of Nitrogen on UTSA-80a
DOI: 10.1039/C4ta01860e
Adsorbate Nitrogen: InChIKey IJGRMHOSHXDMSA-UHFFFAOYSA-N
Temperature: 77 K
Tabular data in the source: 0
pressure (bar)	uptake (cm3(STP)/g)
-0.00166886	36.1624
-0.00112287	72.3247
-0.000947744	118.819
-0.000937442	162.731
-0.000669602	209.225
-0.000381158	255.72
-0.000216333	302.214
0.000113317	335.793
0.000381158	377.122
0.000752014	397.786
0.00149373	433.948
0.00221483	467.528
0.00250328	490.775
0.00425455	516.605
0.00961136	545.018
0.028968	568.266
0.073512	583.764
0.134848	594.096
0.162744	596.679
0.179474	599.262
0.201808	599.262
0.218538	601.845
0.240871	601.845
0.263185	604.428
0.291081	607.011
0.327373	607.011
0.358061	609.594
0.394355	609.594
0.43621	612.177
0.626006	617.343
0.679048	617.343
0.938308	663.838
