Adsorption isotherm of Methane on UTSA-80a
DOI: 10.1039/C4ta01860e
Adsorbate Methane: InChIKey VNWKTOKETHGBQD-UHFFFAOYSA-N
Temperature: 298 K
Tabular data in the source: 0
pressure (bar)	uptake (cm3(STP)/cm3)
0.203336	5.9971
0.408338	9.99417
0.613341	13.9912
1.23418	18.9824
1.43918	22.9794
1.85252	26.9735
2.6792	34.9617
3.09004	41.9559
4.33088	52.9381
5.36256	64.9234
6.19007	71.9116
8.0526	86.885
10.5376	104.849
13.231	122.811
16.9669	139.758
22.3678	158.68
28.8103	177.588
31.097	183.556
35.2563	192.496
39.833	200.431
44.8264	208.36
50.0289	215.285
56.0632	224.199
61.4757	229.122
63.7641	233.089
