Adsorption isotherm of Methane on UTSA-80a
DOI: 10.1039/C4ta01860e
Adsorbate Methane: InChIKey VNWKTOKETHGBQD-UHFFFAOYSA-N
Temperature: 150 K
Tabular data in the source: 0
pressure (bar)	uptake (cm3(STP)/cm3)
-0.251489	36.2275
-0.233729	76.8068
-0.213837	113.038
-0.142084	146.375
-0.120061	182.611
-0.105853	215.94
-0.0717526	244.925
0.0490191	279.711
0.058965	289.852
0.106563	300.001
0.241543	307.251
0.424832	315.951
0.433357	326.1
0.624461	333.342
1.20559	340.605
2.181	350.77
2.96459	352.235
5.31396	359.53
7.86011	365.38
8.6437	366.846
