Adsorption isotherm of Methane on UTSA-80a
DOI: 10.1039/C4ta01860e
Adsorbate Methane: InChIKey VNWKTOKETHGBQD-UHFFFAOYSA-N
Temperature: 125 K
Tabular data in the source: 0
pressure (bar)	uptake (cm3(STP)/cm3)
-0.308323	114.492
-0.290563	155.067
-0.272092	192.748
-0.171212	228.979
-0.165528	337.678
-0.0561233	349.272
0.0198918	359.421
0.212416	366.671
0.601017	373.925
1.97	381.2
