Adsorption isotherm of Methane on FMOF-1
DOI: 10.1021/Ja400754p
Adsorbate Methane: InChIKey VNWKTOKETHGBQD-UHFFFAOYSA-N
Temperature: 328 K
Tabular data in the source: 0
pressure (bar)	uptake (volume/volume)
0.37169	1.17978
2.86245	6.68566
6.00867	12.4974
8.23724	17.0857
17.4137	29.321
23.9683	39.4151
31.7028	49.5092
39.3061	58.9915
45.5986	66.3327
49.1381	70.3092
