Adsorption isotherm of Methane on FMOF-1
DOI: 10.1021/Ja400754p
Adsorbate Methane: InChIKey VNWKTOKETHGBQD-UHFFFAOYSA-N
Temperature: 208 K
Tabular data in the source: 0
pressure (bar)	uptake (volume/volume)
0.37169	2.70919
1.42043	23.2033
1.9448	36.0504
2.99354	64.1915
4.56665	82.8504
5.74648	87.1327
7.0574	98.4504
8.63051	100.286
11.3835	107.321
17.6759	110.686
