Adsorption isotherm of Methane on FMOF-1
DOI: 10.1021/Ja400754p
Adsorbate Methane: InChIKey VNWKTOKETHGBQD-UHFFFAOYSA-N
Temperature: 278 K
Tabular data in the source: 0
pressure (bar)	uptake (volume/volume)
0.37169	2.70919
2.99354	13.4151
5.87757	23.2033
7.84396	30.8504
10.728	38.8033
13.4809	44.6151
17.807	54.0974
23.9683	63.2739
31.3095	71.5327
39.044	75.5092
42.9767	78.2621
45.3364	81.321
