Adsorption isotherm of Methane on FMOF-1
DOI: 10.1021/Ja400754p
Adsorbate Methane: InChIKey VNWKTOKETHGBQD-UHFFFAOYSA-N
Temperature: 173 K
Tabular data in the source: 0
pressure (bar)	uptake (volume/volume)
0.37169	2.70919
1.28934	94.7798
1.55152	106.097
1.9448	114.662
2.46917	123.533
3.12463	128.121
5.22211	131.792
