Adsorption isotherm of Methane on FMOF-1
DOI: 10.1021/Ja400754p
Adsorbate Methane: InChIKey VNWKTOKETHGBQD-UHFFFAOYSA-N
Temperature: 288 K
Tabular data in the source: 0
pressure (bar)	uptake (volume/volume)
0.37169	2.70919
3.25572	11.2739
6.00867	20.4504
8.76161	28.0974
10.9902	33.9092
13.8742	40.6386
17.4137	47.9798
24.2305	58.3798
31.5717	67.5563
39.044	74.8974
45.3364	80.0974
