Adsorption isotherm of Methane on FMOF-1
DOI: 10.1021/Ja400754p
Adsorbate Methane: InChIKey VNWKTOKETHGBQD-UHFFFAOYSA-N
Temperature: 248 K
Tabular data in the source: 0
pressure (bar)	uptake (volume/volume)
0.37169	2.70919
1.28934	8.82684
3.12463	21.6739
5.74648	38.4974
8.23724	50.7327
10.8591	62.3563
14.1364	69.6974
17.6759	77.3445
23.3129	84.6857
31.4406	90.1915
39.044	92.3327
