Adsorption isotherm of Methane on FMOF-1
DOI: 10.1021/Ja400754p
Adsorbate Methane: InChIKey VNWKTOKETHGBQD-UHFFFAOYSA-N
Temperature: 158 K
Tabular data in the source: 0
pressure (bar)	uptake (volume/volume)
0.395111	0.52582
0.995771	124.262
1.2532	127.265
1.42481	134.673
