Adsorption isotherm of Methane on FMOF-1
DOI: 10.1021/Ja400754p
Adsorbate Methane: InChIKey VNWKTOKETHGBQD-UHFFFAOYSA-N
Temperature: 318 K
Tabular data in the source: 0
pressure (bar)	uptake (volume/volume)
0.37169	0.568017
3.38682	8.52096
8.76161	18.0033
14.0053	28.0974
17.807	33.2974
24.4927	42.7798
39.1751	59.6033
45.8608	66.6386
49.6624	69.6974
