Adsorption isotherm of Methane on FMOF-1
DOI: 10.1021/Ja400754p
Adsorbate Methane: InChIKey VNWKTOKETHGBQD-UHFFFAOYSA-N
Temperature: 288 K
Tabular data in the source: 0
pressure (bar)	uptake (volume/volume)
2.51391	2.09743
3.82484	8.21508
5.79122	16.168
7.75761	21.368
11.0349	27.4857
15.6232	35.7445
17.5895	41.5563
23.4887	51.0386
30.6988	59.6033
38.5643	68.168
46.4299	73.0621
51.0181	76.121
64.1274	84.3798
79.203	92.0268
102.8	99.6739
151.304	109.462
209.64	115.886
256.833	119.25
294.195	121.086
