Adsorption isotherm of Methane on FMOF-1
DOI: 10.1021/Ja400754p
Adsorbate Methane: InChIKey VNWKTOKETHGBQD-UHFFFAOYSA-N
Temperature: 308 K
Tabular data in the source: 0
pressure (bar)	uptake (volume/volume)
0.37169	0.568017
3.38682	9.43861
5.74648	15.8621
8.10614	19.2268
10.8591	25.6504
13.3498	32.6857
17.6759	36.0504
23.7061	46.1445
31.7028	55.9327
38.9129	63.5798
45.5986	70.0033
48.7448	73.9798
