Adsorption isotherm of Acetylene on Zn-MOF-74
DOI: 10.1021/Jp310517r
Adsorbate Acetylene: InChIKey HSFWRNGVRCDJHI-UHFFFAOYSA-N
Temperature: 198 K
Tabular data in the source: 0
pressure (bar)	uptake (mmol/g)
0.646552	4.79369
1.2931	6.54941
2.58621	7.40261
3.66379	7.63893
4.31034	7.87565
5.38793	8.11197
6.46552	8.15842
7.97414	8.39433
10.1293	8.53469
25	9.28006
50	9.63608
74.7845	9.80242
99.7845	9.87362
