Adsorption isotherm of Acetylene on Mg-MOF-74
DOI: 10.1021/Jp310517r
Adsorbate Acetylene: InChIKey HSFWRNGVRCDJHI-UHFFFAOYSA-N
Temperature: 198 K
Tabular data in the source: 0
pressure (bar)	uptake (mmol/g)
0.431034	8.40149
1.2931	9.49244
4.52586	10.9134
4.9569	11.0554
6.46552	11.2439
7.11207	11.4806
8.83621	11.6688
9.91379	11.7627
10.1293	11.7625
25	12.6028
50	13.1013
75	13.2199
99.7845	13.3388
