Adsorption isotherm of Methane on Mg-MOF-74
DOI: 10.1021/Jp310517r
Adsorbate Methane: InChIKey VNWKTOKETHGBQD-UHFFFAOYSA-N
Temperature: 298 K
Tabular data in the source: 0
pressure (bar)	uptake (mmol/g)
0.291043	0.860215
1.3635	1.66667
1.9119	2.41935
2.71952	3.11828
3.52527	3.76344
4.06805	4.35484
4.87006	4.89247
5.66832	5.32258
6.46471	5.69892
7.26298	6.12903
8.05937	6.50538
8.85202	6.77419
9.64654	7.09677
10.1762	7.31183
19.8967	9.03226
25.4097	9.89247
40.0797	11.2903
50.2812	11.828
80.3335	12.5806
100.184	12.7957
