Adsorption isotherm of Methane on Zn-MOF-74
DOI: 10.1021/Jp310517r
Adsorbate Methane: InChIKey VNWKTOKETHGBQD-UHFFFAOYSA-N
Temperature: 298 K
Tabular data in the source: 0
pressure (bar)	uptake (mmol/g)
0.283557	0.645161
1.34853	1.23656
1.88757	1.72043
2.69145	2.31183
3.49158	2.7957
4.02875	3.22581
4.56592	3.65591
5.61966	3.92473
6.41792	4.35484
7.20496	4.46237
8.00135	4.83871
8.5329	5.10753
9.06258	5.32258
9.84961	5.43011
19.8256	6.98925
40.2379	8.33333
60.1056	9.03226
80.2212	9.35484
100.335	9.62366
