Adsorption isotherm of Carbon Dioxide on Zn-MOF-74
DOI: 10.1021/Jp310517r
Adsorbate Carbon Dioxide: InChIKey CURLTUGMZLYLDI-UHFFFAOYSA-N
Temperature: 298 K
Tabular data in the source: 0
pressure (bar)	uptake (mmol/g)
0.00145252	0.062894
0.483688	0.9437
1.42782	1.8248
2.13956	2.64286
2.61889	3.39787
3.56012	4.15318
4.2675	4.78256
5.20437	5.34919
5.44694	5.85248
6.37946	6.23043
7.08393	6.73402
8.24739	7.11211
8.71656	7.42687
9.65052	7.8677
10.1153	7.99378
20.0912	9.94974
25.1852	10.519
50.4096	12.7361
75.3711	13.5694
100.556	14.0884
