Adsorption isotherm of Carbon Dioxide on Mg-MOF-74
DOI: 10.1021/Jp310517r
Adsorbate Carbon Dioxide: InChIKey CURLTUGMZLYLDI-UHFFFAOYSA-N
Temperature: 298 K
Tabular data in the source: 0
pressure (bar)	uptake (mmol/g)
0.631845	7.35889
1.63408	10.7557
3.06481	12.7063
3.77219	13.3357
5.17532	14.0913
6.57264	14.5953
8.66572	15.2256
10.2882	15.4782
20.2379	16.302
25.3261	16.6197
50.5244	17.7047
75.4742	18.0349
100.424	18.365
