Adsorption isotherm of Carbon Dioxide on MIL-68(Al)
DOI: 10.1039/C2jm15609a
Adsorbate Carbon Dioxide: InChIKey CURLTUGMZLYLDI-UHFFFAOYSA-N
Temperature: 303 K
Tabular data in the source: 0
pressure (bar)	uptake (mmol/g)
1.17645	1.40913
2.01987	2.75147
5.20253	5.43447
7.54364	6.97663
10.211	7.84678
15.207	8.91581
20.1993	9.58187
25.3553	9.97908
30.1777	10.2423
35.3318	10.4381
40.3198	10.634
50.2932	10.7571
