Adsorption isotherm of Methane on MIL-68(Al)
DOI: 10.1039/C2jm15609a
Adsorbate Methane: InChIKey VNWKTOKETHGBQD-UHFFFAOYSA-N
Temperature: 303 K
Tabular data in the source: 0
pressure (bar)	uptake (cm3(STP)/g)
1.44385	0.620438
2.40642	0.875912
4.33155	1.31387
5.29412	1.60584
7.21925	2.15328
15.8824	3.28467
24.3048	3.9781
32.7273	4.56204
40.1872	4.92701
49.0909	5.29197
57.2727	5.51095
65.4545	5.80292
72.4332	5.94891
79.893	6.0219
