Adsorption isotherm of Methane on MIL-68(Al)
DOI: 10.1039/C2jm15609a
Adsorbate Methane: InChIKey VNWKTOKETHGBQD-UHFFFAOYSA-N
Temperature: 303 K
Tabular data in the source: 0
pressure (bar)	uptake (cm3(STP)/g)
3.12834	1.49635
4.09091	1.75182
5.29412	2.08029
7.94118	2.70073
14.4385	3.86861
21.4171	4.70803
28.3957	5.43796
35.1337	5.87591
55.107	6.9708
61.3636	7.22628
67.861	7.48175
74.1176	7.59124
80.3743	7.81022
