Adsorption isotherm of Hydrogen sulfide on MIL-68(Al)
DOI: 10.1039/C2jm15609a
Adsorbate Hydrogen sulfide: InChIKey RWSOTUBLDIXVET-UHFFFAOYSA-N
Temperature: 303 K
Tabular data in the source: 0
pressure (bar)	uptake (cm3(STP)/g)
0.110236	0.6
0.330709	1.25
0.404199	1.8
0.624672	2.35
0.698163	2.8
0.88189	3.15
0.992126	3.5
1.54331	4.45
2.97638	6.3
4.59318	7.75
6.13648	8.55
7.56955	9.1
9.03937	9.45
10.5827	9.85
12.0525	10.3
