Adsorption isotherm of Hydrogen sulfide on MIL-68(Al)
DOI: 10.1039/C2jm15609a
Adsorbate Hydrogen sulfide: InChIKey RWSOTUBLDIXVET-UHFFFAOYSA-N
Temperature: 303 K
Tabular data in the source: 0
pressure (bar)	uptake (cm3(STP)/g)
0.146982	1.3
0.47769	2.25
0.698163	3.15
0.734908	3.45
0.88189	3.7
1.06562	4.05
1.2126	5
3.2336	8.05
5.25459	9.55
7.45932	10.45
9.59055	11.1
11.7953	11.6
