Adsorption isotherm of Methane on MIL-68(Al)
DOI: 10.1039/C2jm15609a
Adsorbate Methane: InChIKey VNWKTOKETHGBQD-UHFFFAOYSA-N
Temperature: 303 K
Tabular data in the source: 0
pressure (bar)	uptake (mmol/g)
0.999192	0.360902
2.25098	0.947368
5.24389	1.80451
10.4803	3.24812
15.2107	4.19549
20.1833	4.87218
25.1532	5.41353
30.3682	5.81955
35.0845	6.09023
40.5465	6.45113
45.261	6.63158
50.2243	6.85714
59.9003	7.17293
70.3191	7.44361
76.0244	7.57895
80.2402	7.62406
