Adsorption isotherm of Hydrogen sulfide on MIL-68(Al)
DOI: 10.1039/C2jm15609a
Adsorbate Hydrogen sulfide: InChIKey RWSOTUBLDIXVET-UHFFFAOYSA-N
Temperature: 303 K
Tabular data in the source: 0
pressure (bar)	uptake (mmol/g)
0.116343	0.134831
0.193906	1.2809
0.387812	2.22472
0.542936	2.5618
0.698061	3.23596
0.853186	3.57303
0.969529	4.04494
1.241	5.05618
3.2964	8.02247
5.3518	9.64045
7.44598	10.4494
9.57895	11.1236
11.7119	11.6629
