Adsorption isotherm of Methane on MIL-68(Al)
DOI: 10.1039/C2jm15609a
Adsorbate Methane: InChIKey VNWKTOKETHGBQD-UHFFFAOYSA-N
Temperature: 303 K
Tabular data in the source: 0
pressure (bar)	uptake (cm3(STP)/g)
0.962567	0.328467
1.92513	0.985401
2.64706	1.13139
3.36898	1.49635
5.7754	2.08029
7.45989	2.51825
14.1979	3.75912
20.6952	4.52555
28.1551	5.10949
34.6524	5.51095
40.9091	5.83942
48.1283	6.16788
54.1444	6.38686
60.8824	6.53285
67.3797	6.86131
73.1551	6.9708
79.893	7.11679
