Adsorption isotherm of Methane on MIL-68(Al)
DOI: 10.1039/C2jm15609a
Adsorbate Methane: InChIKey VNWKTOKETHGBQD-UHFFFAOYSA-N
Temperature: 303 K
Tabular data in the source: 0
pressure (bar)	uptake (mmol/g)
0.503289	0.22497
2.01596	1.03471
3.26811	1.305
4.02444	1.70987
5.27846	2.07005
7.53253	2.56556
14.2882	3.73747
20.7852	4.45982
28.5269	5.0929
34.2694	5.50026
41.2575	5.8633
47.7461	6.18115
53.9836	6.40898
60.7196	6.63706
67.4566	6.91009
73.4419	7.00297
79.9268	7.14104
