Adsorption isotherm of Carbon Dioxide on MIL-68(Al)
DOI: 10.1039/C2jm15609a
Adsorbate Carbon Dioxide: InChIKey CURLTUGMZLYLDI-UHFFFAOYSA-N
Temperature: 303 K
Tabular data in the source: 0
pressure (bar)	uptake (mmol/g)
0.479158	1.81969
0.636401	2.69591
0.793644	3.57214
1.28456	4.11092
1.93025	5.79558
3.07553	7.0752
4.05799	8.08533
5.04106	9.02804
7.34152	10.5086
9.97751	11.4495
14.9276	12.3877
20.046	12.9887
25.001	13.3876
29.9567	13.7191
34.7489	13.8486
39.7057	14.0453
44.8291	14.1069
49.9507	14.3708
