Adsorption isotherm of Carbon Dioxide on MIL-68(Al)
DOI: 10.1039/C2jm15609a
Adsorbate Carbon Dioxide: InChIKey CURLTUGMZLYLDI-UHFFFAOYSA-N
Temperature: 303 K
Tabular data in the source: 0
pressure (bar)	uptake (cm3(STP)/g)
0.980141	1.53368
1.95326	2.45422
2.92344	3.11928
4.05231	3.63119
5.02015	4.09187
7.92018	5.16733
13.0697	6.55128
18.3733	7.37331
23.8349	7.9911
29.1349	8.50656
34.4326	8.81764
39.5698	9.12859
44.8681	9.49076
50.006	9.8528
