Adsorption isotherm of Carbon Dioxide on MIL-68(Al)
DOI: 10.1039/C2jm15609a
Adsorbate Carbon Dioxide: InChIKey CURLTUGMZLYLDI-UHFFFAOYSA-N
Temperature: 303 K
Tabular data in the source: 0
pressure (bar)	uptake (mmol/g)
0.338608	0.671263
1.18265	2.08077
2.18917	3.0871
3.19383	3.89195
4.19725	4.56247
5.19943	5.09866
7.53558	6.1035
13.7018	7.91004
19.8607	8.9106
26.0164	9.57535
32.0047	10.106
37.9917	10.5022
42.9815	10.8996
46.473	11.0301
