Adsorption isotherm of Carbon Dioxide on MIL-68(Al)
DOI: 10.1039/C2jm15609a
Adsorbate Carbon Dioxide: InChIKey CURLTUGMZLYLDI-UHFFFAOYSA-N
Temperature: 303 K
Tabular data in the source: 0
pressure (bar)	uptake (mmol/g)
0.327487	0.336711
0.818407	0.875485
1.31057	1.27943
2.29055	2.55922
3.10772	3.56954
4.9092	5.38774
7.54086	6.80052
10.0103	7.87639
14.9591	8.94948
19.9117	9.61808
24.8661	10.0844
29.9882	10.2809
34.9457	10.4102
39.7367	10.6745
49.8176	10.8654
