Adsorption isotherm of Methane on MIL-68(Al)
DOI: 10.1039/C2jm15609a
Adsorbate Methane: InChIKey VNWKTOKETHGBQD-UHFFFAOYSA-N
Temperature: 303 K
Tabular data in the source: 0
pressure (bar)	uptake (mmol/g)
0.759647	0.766917
0.7699	1.26316
1.27509	1.71429
2.5362	2.75188
5.03977	3.92481
10.0329	5.59398
15.013	6.63158
19.9885	7.44361
25.2063	7.98496
30.1743	8.43609
34.8925	8.79699
40.1047	9.06767
50.0332	9.60902
60.4539	9.96992
69.881	10.2406
80.05	10.4211
