Adsorption isotherm of Methane on MIL-68(Al)
DOI: 10.1039/C2jm15609a
Adsorbate Methane: InChIKey VNWKTOKETHGBQD-UHFFFAOYSA-N
Temperature: 303 K
Tabular data in the source: 0
pressure (bar)	uptake (mmol/g)
0.512626	0.674413
1.02152	1.16905
1.27643	1.43884
2.29235	2.33822
5.05903	3.50814
10.0798	5.17357
14.8382	6.20966
19.8393	6.93126
24.8386	7.56297
30.0834	8.01502
35.3273	8.42214
40.0698	8.69417
50.0525	9.19353
60.2817	9.55819
70.2606	9.87778
80.2377	10.1075
