Adsorption isotherm of Methane on MIL-68(Al)
DOI: 10.1039/C2jm15609a
Adsorbate Methane: InChIKey VNWKTOKETHGBQD-UHFFFAOYSA-N
Temperature: 303 K
Tabular data in the source: 0
pressure (bar)	uptake (mmol/g)
1.25122	0.225344
2.50991	0.810242
5.26819	1.57566
10.0312	2.83647
15.2873	3.82786
20.0382	4.50439
25.0356	5.04621
30.2786	5.40838
35.0257	5.90513
39.7673	6.13222
49.749	6.58664
60.2266	6.90648
70.2037	7.13618
79.9324	7.4107
