Adsorption isotherm of Hydrogen sulfide on MIL-68(Al)
DOI: 10.1039/C2jm15609a
Adsorbate Hydrogen sulfide: InChIKey RWSOTUBLDIXVET-UHFFFAOYSA-N
Temperature: 303 K
Tabular data in the source: 0
pressure (bar)	uptake (mmol/g)
0.155125	0.269663
0.426593	1.21348
0.853186	2.49438
1.00831	3.10112
1.55125	4.7191
2.01662	6.20225
3.02493	7.95506
4.03324	8.96629
5.9723	9.97753
7.98892	10.5169
10.0055	10.8539
12.0222	10.9888
