Adsorption isotherm of Nitrogen on MIL-68(Al)
DOI: 10.1039/C2jm15609a
Adsorbate Nitrogen: InChIKey IJGRMHOSHXDMSA-UHFFFAOYSA-N
Temperature: 303 K
Tabular data in the source: 0
pressure (bar)	uptake (mmol/g)
0.685714	0.122605
1.54286	0.245211
2.05714	0.306513
3.94286	0.613027
5.82857	0.858238
8.05714	1.10345
9.94286	1.34866
12.6857	1.62452
15.0857	1.86973
17.6571	2.11494
19.8857	2.3295
25.2	2.72797
27.4286	2.88123
30.1714	3.09579
35.1429	3.4023
37.7143	3.58621
39.9429	3.70881
42.8571	3.83142
46.9714	4.07663
50.0571	4.22989
