Adsorption isotherm of Carbon Dioxide on MIL-68(Al)
DOI: 10.1039/C2jm15609a
Adsorbate Carbon Dioxide: InChIKey CURLTUGMZLYLDI-UHFFFAOYSA-N
Temperature: 303 K
Tabular data in the source: 0
pressure (bar)	uptake (mmol/g)
0.352252	2.14886
0.507292	0.939731
0.527137	3.08896
1.19691	3.62553
2.20902	5.23633
3.05119	6.44435
4.22454	7.51766
5.2292	8.3225
7.73713	9.93164
10.2389	10.8691
15.2343	11.871
20.0604	12.5372
25.2164	12.9345
30.2056	13.2647
35.1929	13.3934
40.1803	13.5222
50.1556	13.8468
