Adsorption isotherm of Nitrogen on MIL-68(Al)
DOI: 10.1039/C2jm15609a
Adsorbate Nitrogen: InChIKey IJGRMHOSHXDMSA-UHFFFAOYSA-N
Temperature: 303 K
Tabular data in the source: 0
pressure (bar)	uptake (mmol/g)
1.2	0.45977
2.05714	0.858238
2.4	0.980843
3.94286	1.44061
4.8	1.68582
5.82857	1.93103
6.68571	2.02299
7.71429	2.3295
8.57143	2.42146
9.42857	2.63602
10.6286	2.78927
11.8286	2.97318
13.0286	3.15709
14.7429	3.4023
15.4286	3.49425
16.6286	3.64751
18.1714	3.83142
19.7143	4.01533
20.9143	4.10728
22.1143	4.29119
23.6571	4.41379
24.8571	4.5977
26.2286	4.68966
27.7714	4.84291
29.3143	4.96552
30.6857	5.05747
32.0571	5.18008
33.6	5.30268
35.1429	5.42529
36.5143	5.51724
38.2286	5.63985
39.6	5.76245
41.1429	5.82375
42.6857	5.91571
44.4	6.00766
45.9429	6.09962
47.4857	6.19157
49.2	6.28352
50.2286	6.34483
