Adsorption isotherm of Carbon Dioxide on MIL-68(Al)
DOI: 10.1039/C2jm15609a
Adsorbate Carbon Dioxide: InChIKey CURLTUGMZLYLDI-UHFFFAOYSA-N
Temperature: 303 K
Tabular data in the source: 0
pressure (bar)	uptake (mmol/g)
0.334267	0.201118
0.669774	0.536564
1.00714	1.0735
2.0149	2.21416
3.02143	3.2205
4.19167	3.95799
5.19695	4.83
6.20099	5.56769
7.70365	6.30481
8.87265	6.90798
10.3728	7.37645
12.206	7.91171
15.3701	8.57981
20.0306	9.3134
25.186	9.64345
30.1758	10.0408
35.1632	10.1696
40.1511	10.3655
45.4709	10.4939
50.1258	10.623
