Adsorption isotherm of Carbon Dioxide on MIL-68(Al)
DOI: 10.1039/C2jm15609a
Adsorbate Carbon Dioxide: InChIKey CURLTUGMZLYLDI-UHFFFAOYSA-N
Temperature: 303 K
Tabular data in the source: 0
pressure (bar)	uptake (cm3(STP)/g)
0.163357	0.255614
0.983069	1.78916
1.95911	2.96517
2.93223	3.88571
4.06343	4.602
5.19229	5.11391
7.77263	6.29129
13.89	8.13592
19.0343	9.06
23.6938	9.67711
28.6724	10.1412
36.2202	10.8119
39.2712	11.0699
42.6432	11.3283
46.336	11.5869
