Adsorption isotherm of Carbon Dioxide on MIL-68(Al)
DOI: 10.1039/C2jm15609a
Adsorbate Carbon Dioxide: InChIKey CURLTUGMZLYLDI-UHFFFAOYSA-N
Temperature: 303 K
Tabular data in the source: 0
pressure (bar)	uptake (mmol/g)
0.815312	1.21257
1.30747	1.61651
3.10215	4.17629
3.92055	5.05177
5.23545	5.85929
7.53591	7.33985
10.1725	8.21329
15.1213	9.28638
20.0745	9.88756
25.0301	10.2191
29.8211	10.4833
34.9433	10.6798
39.9007	10.8091
50.1463	11.0673
