Adsorption isotherm of Nitrogen on MIL-68(Al)
DOI: 10.1039/C2jm15609a
Adsorbate Nitrogen: InChIKey IJGRMHOSHXDMSA-UHFFFAOYSA-N
Temperature: 77 K
Tabular data in the source: 0
pressure (bar)	uptake (cm3(STP)/g)
0.00251193	215.122
0.0026382	256.098
0.00827539	285.366
0.01389	307.317
0.0213401	324.878
0.0324702	336.585
0.0454447	346.829
0.0695087	355.61
0.112063	364.39
0.152759	370.244
0.217496	377.561
0.254485	380.488
0.28038	383.415
0.298874	384.878
0.317369	386.341
0.334014	387.805
0.352509	389.268
0.371003	390.732
0.389498	392.195
0.406143	393.659
0.452373	395.122
0.500465	400.976
0.552246	403.902
0.598489	409.756
0.637331	414.146
0.679871	418.537
0.720563	422.927
0.75016	427.317
0.794568	437.561
0.82417	443.415
0.861181	453.659
0.87784	459.512
0.913016	474.146
0.925991	484.39
0.940814	494.634
0.953789	504.878
0.966764	515.122
0.976063	532.683
0.985353	547.317
