Adsorption isotherm of Carbon Dioxide on MIL-68(Al)
DOI: 10.1039/C2jm15609a
Adsorbate Carbon Dioxide: InChIKey CURLTUGMZLYLDI-UHFFFAOYSA-N
Temperature: 303 K
Tabular data in the source: 0
pressure (bar)	uptake (cm3(STP)/g)
0.326714	0.511227
1.14643	2.04477
3.09149	3.78365
3.90124	4.44858
4.86909	4.90926
7.44884	6.03554
13.5657	7.82907
19.6743	8.90727
26.0996	9.62807
32.0402	10.0419
37.8203	10.4556
42.9594	10.9198
46.3301	11.076
