Adsorption isotherm of Hydrogen sulfide on MIL-68(Al)
DOI: 10.1039/C2jm15609a
Adsorbate Hydrogen sulfide: InChIKey RWSOTUBLDIXVET-UHFFFAOYSA-N
Temperature: 303 K
Tabular data in the source: 0
pressure (bar)	uptake (mmol/g)
0.116343	2.08989
0.426593	3.70787
0.814404	5.52809
1.00831	6.40449
1.55125	8.35955
1.97784	9.77528
3.02493	11.5955
4.03324	12.4045
5.08033	12.8764
6.01108	13.3483
8.0277	13.8876
8.95845	14.0225
10.0443	14.2921
11.0914	14.427
12.0222	14.4944
