Adsorption isotherm of Carbon Dioxide on PE-MCM-41C
DOI: 10.1016/j.cej.2010.04.024
Adsorbate Carbon Dioxide: InChIKey CURLTUGMZLYLDI-UHFFFAOYSA-N
Temperature: 318 K
Tabular data in the source: 0
pressure (bar)	uptake (mmol/g)
1.02055	0.459622
1.96643	0.689933
4.00905	1.28826
5.97646	1.77189
8.01962	2.25561
9.98725	2.6934
11.9931	3.06246
14.9828	3.63895
19.9789	4.44697
