Adsorption isotherm of Carbon Dioxide on TRI-PE-MCM-41
DOI: 10.1016/j.cej.2010.04.024
Adsorbate Carbon Dioxide: InChIKey CURLTUGMZLYLDI-UHFFFAOYSA-N
Temperature: 298 K
Tabular data in the source: 0
pressure (bar)	uptake (mmol/g)
0.199203	2.25301
0.278884	2.37349
0.438247	2.48193
0.677291	2.57831
0.956175	2.6506
1.35458	2.6988
1.71315	2.74699
2.07171	2.78313
2.43028	2.80723
2.82869	2.83133
3.22709	2.84337
3.58566	2.86747
3.98406	2.87952
4.34263	2.90361
4.74104	2.91566
5.13944	2.92771
5.53785	2.92771
5.93625	2.95181
6.29482	2.95181
6.69323	2.96386
7.09163	2.96386
7.49004	2.9759
7.88845	2.98795
8.28685	2.98795
8.68526	3
9.08367	3
9.48207	3
9.84064	3.01205
10.239	3.01205
10.6375	3.0241
11.0359	3.0241
11.4343	3.0241
11.8327	3.03614
12.1912	3.03614
12.5896	3.03614
12.988	3.04819
13.3865	3.04819
13.7849	3.04819
14.1833	3.06024
14.5817	3.06024
14.9801	3.06024
15.3785	3.07229
15.7769	3.07229
16.1355	3.08434
16.5339	3.07229
16.9323	3.07229
17.3307	3.07229
17.6892	3.08434
18.0876	3.08434
18.4861	3.08434
18.8845	3.09639
19.2829	3.09639
19.6813	3.09639
