Adsorption isotherm of Carbon Dioxide on TRI-PE-MCM-41
DOI: 10.1016/j.cej.2010.04.024
Adsorbate Carbon Dioxide: InChIKey CURLTUGMZLYLDI-UHFFFAOYSA-N
Temperature: 298 K
Tabular data in the source: 0
pressure (bar)	uptake (mmol/g)
1.23506	0.26506
1.55378	0.337349
2.23108	0.445783
2.58964	0.493976
2.94821	0.554217
3.30677	0.60241
3.66534	0.662651
3.94422	0.73494
4.30279	0.759036
4.66135	0.795181
5.01992	0.843373
5.37849	0.891566
5.77689	0.927711
6.13546	0.987952
6.49402	1.03614
6.85259	1.07229
7.21116	1.12048
7.56972	1.16867
7.88845	1.24096
8.24701	1.24096
8.60558	1.28916
8.96414	1.3253
9.36255	1.36145
9.72112	1.40964
10.0797	1.44578
10.4781	1.48193
10.8367	1.51807
11.1952	1.56627
11.5936	1.60241
11.9124	1.66265
12.2709	1.6747
12.6693	1.71084
13.0279	1.74699
13.4263	1.78313
13.7849	1.81928
14.1833	1.85542
14.5418	1.89157
14.9004	1.92771
15.2988	1.96386
15.6574	2
15.9761	2.03614
16.2948	2.06024
16.6534	2.08434
17.0518	2.12048
17.4104	2.15663
17.8088	2.18072
18.1673	2.21687
18.5657	2.25301
18.9243	2.28916
19.3227	2.31325
19.6813	2.3494
