Adsorption isotherm of Carbon Dioxide on PE-MCM-41C
DOI: 10.1016/j.cej.2010.04.024
Adsorbate Carbon Dioxide: InChIKey CURLTUGMZLYLDI-UHFFFAOYSA-N
Temperature: 328 K
Tabular data in the source: 0
pressure (bar)	uptake (mmol/g)
0.41623	0.0921676
0.605189	0.184075
0.832243	0.23018
1.02131	0.299165
2.00485	0.575364
3.93471	0.990183
6.01607	1.40518
7.9837	1.84296
9.98942	2.23494
14.9476	3.06584
19.9821	3.78221
