Adsorption isotherm of Carbon Dioxide on TRI-PE-MCM-41
DOI: 10.1016/j.cej.2010.04.024
Adsorbate Carbon Dioxide: InChIKey CURLTUGMZLYLDI-UHFFFAOYSA-N
Temperature: 328 K
Tabular data in the source: 0
pressure (bar)	uptake (mmol/g)
0.210968	1.75995
0.431436	1.97802
0.504856	2.06188
0.72615	2.14586
0.947341	2.2466
1.05794	2.29698
2.01777	2.51566
3.97534	2.80221
8.00252	3.19106
12.0294	3.63019
