Adsorption isotherm of Carbon Dioxide on TRI-PE-MCM-41
DOI: 10.1016/j.cej.2010.04.024
Adsorbate Carbon Dioxide: InChIKey CURLTUGMZLYLDI-UHFFFAOYSA-N
Temperature: 318 K
Tabular data in the source: 0
pressure (bar)	uptake (mmol/g)
1.03586	0.156627
2.03187	0.277108
4.0239	0.481928
6.05578	0.662651
8.04781	0.843373
10	1.01205
12.0319	1.16867
15.0598	1.36145
20	1.6747
