Adsorption isotherm of Carbon Dioxide on TRI-PE-MCM-41
DOI: 10.1016/j.cej.2010.04.024
Adsorbate Carbon Dioxide: InChIKey CURLTUGMZLYLDI-UHFFFAOYSA-N
Temperature: 308 K
Tabular data in the source: 0
pressure (bar)	uptake (mmol/g)
1.2749	0.240964
1.71315	0.301205
2.23108	0.373494
2.58964	0.421687
2.94821	0.457831
3.34661	0.506024
3.70518	0.554217
3.98406	0.60241
4.34263	0.638554
4.74104	0.674699
5.0996	0.722892
5.45817	0.759036
5.85657	0.795181
6.1753	0.831325
6.49402	0.86747
6.85259	0.915663
7.251	0.939759
7.60956	0.987952
7.92829	1.03614
8.32669	1.06024
8.68526	1.08434
9.08367	1.12048
9.44223	1.16867
9.84064	1.19277
10.1992	1.21687
10.5179	1.25301
10.9163	1.28916
11.2749	1.3253
11.6733	1.3494
11.992	1.39759
12.3904	1.42169
12.749	1.44578
13.1474	1.48193
13.506	1.50602
13.9044	1.54217
14.2629	1.57831
14.6614	1.60241
15.0199	1.62651
15.2191	1.6506
15.6175	1.6747
15.9761	1.71084
16.3745	1.73494
16.7729	1.75904
17.1315	1.78313
17.49	1.81928
17.8884	1.85542
18.2869	1.87952
18.6454	1.90361
19.0438	1.92771
19.4024	1.96386
19.8008	1.98795
