Adsorption isotherm of Carbon Dioxide on TRI-PE-MCM-41
DOI: 10.1016/j.cej.2010.04.024
Adsorbate Carbon Dioxide: InChIKey CURLTUGMZLYLDI-UHFFFAOYSA-N
Temperature: 328 K
Tabular data in the source: 0
pressure (bar)	uptake (mmol/g)
0.956175	0.120482
1.99203	0.228916
4.0239	0.385542
6.05578	0.542169
8.00797	0.698795
10.0398	0.843373
15.0598	1.15663
20	1.43373
