Adsorption isotherm of Carbon Dioxide on TRI-PE-MCM-41
DOI: 10.1016/j.cej.2010.04.024
Adsorbate Carbon Dioxide: InChIKey CURLTUGMZLYLDI-UHFFFAOYSA-N
Temperature: 318 K
Tabular data in the source: 0
pressure (bar)	uptake (mmol/g)
0.135895	1.94425
0.356156	2.19583
0.650974	2.34691
0.908823	2.49797
1.20405	2.58201
1.49918	2.68282
1.79452	2.75011
2.20055	2.85101
2.53295	2.90156
2.90233	2.95215
3.23463	3.01947
3.56693	3.08679
3.97328	3.13741
4.30568	3.18797
4.63809	3.23852
5.00756	3.27235
5.34007	3.30615
5.67248	3.35671
6.04196	3.39054
6.37436	3.4411
6.74384	3.47493
7.07624	3.52548
7.40865	3.57604
7.77802	3.62663
8.0366	3.66037
8.36921	3.6774
8.73879	3.69447
9.0712	3.74503
9.44067	3.77886
9.81025	3.79593
10.1427	3.84649
10.5121	3.88032
10.8447	3.89736
11.1033	3.93109
11.4729	3.94816
11.8053	3.99872
12.1749	4.01579
12.5074	4.04959
12.8769	4.08342
13.2465	4.10049
13.579	4.13428
13.9484	4.16811
14.318	4.18518
14.6505	4.21898
15.02	4.25281
15.3526	4.26985
15.7221	4.30368
16.0546	4.33748
16.4242	4.35455
16.7937	4.38837
17.1632	4.40544
17.4958	4.43924
17.8653	4.45631
18.1978	4.49011
18.5674	4.50718
18.8999	4.54098
19.2695	4.55805
19.602	4.59185
