Adsorption isotherm of Carbon Dioxide on PE-MCM-41C
DOI: 10.1016/j.cej.2010.04.024
Adsorbate Carbon Dioxide: InChIKey CURLTUGMZLYLDI-UHFFFAOYSA-N
Temperature: 308 K
Tabular data in the source: 0
pressure (bar)	uptake (mmol/g)
1.02055	0.459622
2.00333	0.896279
3.96976	1.58621
6.01249	2.16162
8.01745	2.71406
9.98486	3.19769
11.9901	3.68136
14.9796	4.3037
19.9373	5.24921
