Adsorption isotherm of Carbon Dioxide on TRI-PE-MCM-41
DOI: 10.1016/j.cej.2010.04.024
Adsorbate Carbon Dioxide: InChIKey CURLTUGMZLYLDI-UHFFFAOYSA-N
Temperature: 298 K
Tabular data in the source: 0
pressure (bar)	uptake (mmol/g)
0.0417801	1.11628
0.0569567	1.16279
0.0797215	1.23256
0.102531	1.2907
0.12534	1.34884
0.201714	1.45349
0.293398	1.56977
0.400616	1.63953
0.500112	1.72093
0.653305	1.81395
0.791233	1.88372
1.0058	1.98837
1.49645	2.17442
2.00259	2.32558
2.49333	2.48837
2.99955	2.61628
3.4981	2.74419
4.00437	2.86047
