Adsorption isotherm of Carbon Dioxide on PE-MCM-41E
DOI: 10.1016/j.cej.2010.04.024
Adsorbate Carbon Dioxide: InChIKey CURLTUGMZLYLDI-UHFFFAOYSA-N
Temperature: 298 K
Tabular data in the source: 0
pressure (bar)	uptake (mmol/g)
0.189547	0.17341
0.41844	0.231214
0.609202	0.277457
0.838206	0.323699
1.02886	0.381503
2.02135	0.566474
4.00668	0.901734
8.05424	1.52601
12.0257	2.11561
15.9971	2.7052
19.9685	3.2948
