Adsorption isotherm of Carbon Dioxide on TRI-PE-MCM-41
DOI: 10.1016/j.cej.2010.04.024
Adsorbate Carbon Dioxide: InChIKey CURLTUGMZLYLDI-UHFFFAOYSA-N
Temperature: 308 K
Tabular data in the source: 0
pressure (bar)	uptake (mmol/g)
0.171624	2.1454
0.35533	2.32991
0.539243	2.4809
0.723465	2.58161
0.944656	2.68236
1.23978	2.78316
1.53501	2.86721
1.83024	2.95125
2.16255	3.01857
2.49485	3.08589
2.82715	3.15321
3.15945	3.22052
3.52883	3.27111
3.86113	3.33843
4.19354	3.38899
4.52584	3.45631
4.89521	3.5069
5.22762	3.55745
5.56002	3.60801
5.9294	3.6586
6.22494	3.69237
6.55734	3.74293
6.92682	3.77675
7.2962	3.82734
7.6286	3.8779
7.88728	3.89488
8.21968	3.94544
8.58916	3.97926
8.92167	4.01306
9.29115	4.04689
9.66052	4.09748
9.99303	4.13128
10.3625	4.16511
10.695	4.19891
11.0645	4.23274
11.397	4.26653
11.7664	4.31712
11.988	4.35083
12.3576	4.3679
12.6901	4.4017
13.0595	4.43552
13.3921	4.46932
13.7615	4.50315
14.1311	4.52022
14.4635	4.57078
14.8331	4.58785
15.1656	4.62165
15.5351	4.65548
15.8676	4.68927
16.2371	4.7231
16.6066	4.75693
16.9392	4.77397
17.3086	4.8078
17.6781	4.84163
18.0107	4.85867
18.3802	4.8925
18.7127	4.9263
19.0822	4.96012
19.4518	4.97719
19.7843	5.01099
