Adsorption isotherm of Carbon Dioxide on TRI-PE-MCM-41
DOI: 10.1016/j.cej.2010.04.024
Adsorbate Carbon Dioxide: InChIKey CURLTUGMZLYLDI-UHFFFAOYSA-N
Temperature: 328 K
Tabular data in the source: 0
pressure (bar)	uptake (mmol/g)
0.137134	1.74313
0.284285	1.86057
0.430816	2.07857
0.651697	2.2296
1.05763	2.34725
1.53739	2.48174
1.79565	2.56575
2.09088	2.6498
2.20179	2.64989
2.53419	2.70045
2.9774	2.76786
3.49434	2.86885
3.82674	2.91941
4.34389	2.98688
4.75023	3.0375
5.15657	3.08812
5.67392	3.12207
6.00633	3.17263
6.37581	3.20646
6.78225	3.24032
7.37333	3.30785
8.00128	3.39218
8.37086	3.40925
8.51863	3.42613
8.88811	3.45996
9.07285	3.47688
9.44243	3.49395
9.77494	3.52774
10.5509	3.59543
11.216	3.64627
11.6594	3.68016
12.029	3.69723
