Adsorption isotherm of Hydrogen sulfide on PE-MCM-41
DOI: 10.1016/j.cej.2010.04.024
Adsorbate Hydrogen sulfide: InChIKey RWSOTUBLDIXVET-UHFFFAOYSA-N
Temperature: 308 K
Tabular data in the source: 0
pressure (bar)	uptake (mmol/g)
0.100872	0.128895
0.247567	0.356941
0.490578	0.664306
0.73587	0.991501
0.967448	1.23938
1.20133	1.47734
