Adsorption isotherm of Carbon Dioxide on TRI-PE-MCM-41
DOI: 10.1016/j.cej.2010.04.024
Adsorbate Carbon Dioxide: InChIKey CURLTUGMZLYLDI-UHFFFAOYSA-N
Temperature: 298 K
Tabular data in the source: 0
pressure (bar)	uptake (mmol/g)
0.00276749	1.27907
0.00941838	1.54651
0.0240593	1.73256
0.0388787	1.87209
0.0538321	1.97674
0.0688747	2.05814
0.0915502	2.15116
0.175646	2.24419
0.275052	2.34884
0.374593	2.4186
0.481766	2.5
0.573629	2.56977
0.780565	2.66279
0.972102	2.76744
1.96134	3.06977
3.97108	3.53488
