Adsorption isotherm of Carbon Dioxide on TRI-PE-MCM-41
DOI: 10.1016/j.cej.2010.04.024
Adsorbate Carbon Dioxide: InChIKey CURLTUGMZLYLDI-UHFFFAOYSA-N
Temperature: 298 K
Tabular data in the source: 0
pressure (bar)	uptake (mmol/g)
0.358566	0.0843373
0.63745	0.144578
1.03586	0.228916
2.03187	0.409639
4.0239	0.73494
8.04781	1.25301
12.0319	1.66265
16.0159	2.03614
20	2.36145
