Adsorption isotherm of Carbon Dioxide on TRI-PE-MCM-41
DOI: 10.1016/j.cej.2010.04.024
Adsorbate Carbon Dioxide: InChIKey CURLTUGMZLYLDI-UHFFFAOYSA-N
Temperature: 308 K
Tabular data in the source: 0
pressure (bar)	uptake (mmol/g)
0.557769	0.108434
1.0757	0.192771
1.99203	0.349398
4.0239	0.614458
6.01594	0.831325
8.04781	1.0241
10.0398	1.21687
12.0319	1.38554
15.0199	1.63855
19.9203	1.98795
