Adsorption isotherm of Carbon Dioxide on TRI-PE-MCM-41
DOI: 10.1016/j.cej.2010.04.024
Adsorbate Carbon Dioxide: InChIKey CURLTUGMZLYLDI-UHFFFAOYSA-N
Temperature: 318 K
Tabular data in the source: 0
pressure (bar)	uptake (mmol/g)
1.31474	0.192771
1.75299	0.253012
2.23108	0.301205
2.58964	0.337349
2.98805	0.373494
3.34661	0.421687
3.74502	0.457831
4.18327	0.506024
4.58167	0.542169
4.94024	0.578313
5.2988	0.614458
5.69721	0.650602
5.9761	0.674699
6.21514	0.698795
6.57371	0.73494
6.97211	0.771084
7.33068	0.795181
7.72908	0.831325
8.04781	0.843373
8.24701	0.879518
8.60558	0.903614
9.00398	0.927711
9.40239	0.963855
9.76096	0.987952
10.0797	1.01205
10.1992	1.0241
10.5578	1.04819
10.9562	1.08434
11.3147	1.10843
11.7131	1.13253
12.0717	1.16867
12.1912	1.18072
12.5896	1.20482
12.9482	1.22892
13.3466	1.25301
13.7052	1.27711
14.1036	1.3012
14.4622	1.3253
14.8606	1.36145
15.1793	1.37349
15.5378	1.40964
15.9363	1.43373
16.3347	1.44578
16.6932	1.46988
17.0916	1.49398
17.4502	1.51807
17.8486	1.54217
18.2072	1.56627
18.6056	1.59036
18.9641	1.61446
19.3625	1.63855
19.7211	1.66265
