Adsorption isotherm of Carbon Dioxide on TRI-PE-MCM-41
DOI: 10.1016/j.cej.2010.04.024
Adsorbate Carbon Dioxide: InChIKey CURLTUGMZLYLDI-UHFFFAOYSA-N
Temperature: 298 K
Tabular data in the source: 0
pressure (bar)	uptake (mmol/g)
0.478088	2.37349
0.59761	2.43373
0.796813	2.48193
1.03586	2.53012
2.03187	2.66265
4.0239	2.81928
6.01594	2.95181
8.00797	3.06024
11.992	3.10843
16.0956	3.16867
20	3.21687
