Adsorption isotherm of Carbon Dioxide on PE-MCM-41E
DOI: 10.1016/j.cej.2010.04.024
Adsorbate Carbon Dioxide: InChIKey CURLTUGMZLYLDI-UHFFFAOYSA-N
Temperature: 328 K
Tabular data in the source: 0
pressure (bar)	uptake (mmol/g)
0.228893	0.0578035
0.419766	0.0924855
0.64899	0.115607
0.801733	0.138728
1.03074	0.184971
1.52721	0.254335
2.02401	0.289017
4.0489	0.485549
8.06032	0.890173
12.0337	1.27168
16.0071	1.65318
19.9808	2.01156
