Adsorption isotherm of Hydrogen sulfide on PE-MCM-41
DOI: 10.1016/j.cej.2010.04.024
Adsorbate Hydrogen sulfide: InChIKey RWSOTUBLDIXVET-UHFFFAOYSA-N
Temperature: 323 K
Tabular data in the source: 0
pressure (bar)	uptake (mmol/g)
0.130706	0.11898
0.26368	0.27762
0.32099	0.356941
0.635135	0.654391
0.95385	0.981586
