Adsorption isotherm of Carbon Dioxide on TRI-PE-MCM-41
DOI: 10.1016/j.cej.2010.04.024
Adsorbate Carbon Dioxide: InChIKey CURLTUGMZLYLDI-UHFFFAOYSA-N
Temperature: 308 K
Tabular data in the source: 0
pressure (bar)	uptake (mmol/g)
0.159363	2.07229
0.318725	2.28916
0.677291	2.42169
0.996016	2.50602
1.31474	2.56627
1.4741	2.59036
1.83267	2.6506
2.19124	2.6747
2.58964	2.68675
2.94821	2.71084
3.34661	2.73494
3.70518	2.75904
4.06375	2.78313
4.42231	2.79518
4.78088	2.80723
5.17928	2.81928
5.57769	2.83133
5.9761	2.85542
6.33466	2.85542
6.73307	2.85542
7.09163	2.86747
7.4502	2.87952
7.84861	2.89157
8.20717	2.89157
8.60558	2.89157
9.00398	2.90361
9.40239	2.91566
9.8008	2.91566
10.1992	2.91566
10.5976	2.92771
10.996	2.92771
11.3944	2.93976
11.7928	2.93976
12.0717	2.93976
12.4701	2.95181
12.8685	2.95181
13.2669	2.96386
13.6653	2.96386
14.0637	2.96386
14.4223	2.96386
14.8207	2.9759
15.2191	2.9759
15.6175	2.98795
15.9761	2.9759
16.3745	2.98795
16.7729	2.98795
17.1713	2.98795
17.5299	3
17.9283	3
18.3267	3
18.7251	3.01205
19.1235	3.01205
19.5219	3.01205
19.9203	3.01205
