Adsorption isotherm of Hydrogen sulfide on TRI-PE-MCM-41
DOI: 10.1016/j.cej.2010.04.024
Adsorbate Hydrogen sulfide: InChIKey RWSOTUBLDIXVET-UHFFFAOYSA-N
Temperature: 323 K
Tabular data in the source: 0
pressure (bar)	uptake (mmol/g)
0.0226391	0.466006
0.0546119	0.694051
0.0957821	0.892351
0.191954	1.1898
0.301971	1.36827
0.49451	1.66572
0.742155	1.90368
0.998978	2.14164
