Adsorption isotherm of Carbon Dioxide on TRI-PE-MCM-41
DOI: 10.1016/j.cej.2010.04.024
Adsorbate Carbon Dioxide: InChIKey CURLTUGMZLYLDI-UHFFFAOYSA-N
Temperature: 298 K
Tabular data in the source: 0
pressure (bar)	uptake (mmol/g)
0.0488327	1.27907
0.125073	1.4186
0.178548	1.48837
0.201446	1.52326
0.270321	1.5814
0.369772	1.67442
0.431058	1.7093
0.492345	1.74419
0.553631	1.77907
0.63795	1.81395
0.722225	1.86047
0.829532	1.90698
0.898496	1.94186
0.975182	1.96512
1.05955	1.98837
1.16685	2.03488
1.29719	2.0814
1.37388	2.10465
1.61157	2.18605
1.6883	2.19767
1.84931	2.25581
1.92599	2.27907
2.02571	2.30233
2.10244	2.31395
2.17145	2.33721
2.19444	2.34884
2.27117	2.36047
2.36317	2.39535
2.45525	2.40698
2.50123	2.43023
2.57028	2.44186
2.60862	2.45349
2.68535	2.46512
2.75436	2.48837
2.83109	2.5
2.87707	2.52326
2.9538	2.53488
3.03049	2.55814
3.10722	2.56977
3.21461	2.59302
3.2913	2.61628
3.46007	2.65116
3.5368	2.66279
3.60586	2.67442
3.68254	2.69767
3.75927	2.7093
3.84364	2.73256
3.96639	2.75581
