Adsorption isotherm of Carbon Dioxide on PE-MCM-41C
DOI: 10.1016/j.cej.2010.04.024
Adsorbate Carbon Dioxide: InChIKey CURLTUGMZLYLDI-UHFFFAOYSA-N
Temperature: 298 K
Tabular data in the source: 0
pressure (bar)	uptake (mmol/g)
1.0199	0.597157
1.96459	1.07962
3.96813	1.93005
7.97686	3.28708
11.9868	4.39196
15.9595	5.35927
19.9326	6.23488
