Adsorption isotherm of Hydrogen sulfide on TRI-PE-MCM-41
DOI: 10.1016/j.cej.2010.04.024
Adsorbate Hydrogen sulfide: InChIKey RWSOTUBLDIXVET-UHFFFAOYSA-N
Temperature: 308 K
Tabular data in the source: 0
pressure (bar)	uptake (mmol/g)
0.00891133	0.406516
0.0179461	0.624646
0.0316089	0.783286
0.0407152	0.892351
0.0589798	1.03116
0.0703936	1.1204
0.0864093	1.1898
0.0978296	1.26912
0.113845	1.33853
0.132162	1.39802
0.212305	1.64589
0.232929	1.68555
0.253547	1.73513
0.274171	1.77479
0.308542	1.84419
0.329167	1.88385
0.352092	1.9136
0.372722	1.94334
0.393353	1.97309
0.416271	2.01275
0.436902	2.04249
0.457533	2.07224
0.480458	2.10198
0.501082	2.14164
0.510253	2.15156
0.533185	2.17139
0.553822	2.19122
0.576747	2.22096
0.597384	2.24079
0.620315	2.26062
0.640946	2.29037
0.663877	2.3102
0.684508	2.33994
0.707446	2.34986
0.728077	2.3796
0.739536	2.39943
0.76018	2.40935
0.780817	2.42918
0.803748	2.44901
0.82668	2.46884
0.847317	2.48867
0.870248	2.5085
0.890886	2.52833
0.913817	2.54816
0.934454	2.56799
0.957386	2.58782
0.978023	2.60765
1.00096	2.61756
1.02389	2.63739
1.04453	2.65722
1.06747	2.66714
1.0904	2.68697
1.11104	2.69688
1.13397	2.71671
1.15461	2.73654
1.17755	2.74646
