Adsorption isotherm of Carbon Dioxide on PE-MCM-41E
DOI: 10.1016/j.cej.2010.04.024
Adsorbate Carbon Dioxide: InChIKey CURLTUGMZLYLDI-UHFFFAOYSA-N
Temperature: 298 K
Tabular data in the source: 0
pressure (bar)	uptake (mmol/g)
0.762718	0.219653
1.22028	0.358382
1.79268	0.485549
2.1741	0.589595
2.82286	0.728324
3.319	0.83237
4.23513	1.00578
4.96038	1.14451
5.72398	1.27168
6.14397	1.34104
6.64021	1.43353
7.1747	1.52601
7.70919	1.6185
8.16742	1.68786
8.62576	1.74566
9.1986	1.82659
9.58046	1.88439
9.92418	1.93064
10.5352	2.02312
11.0699	2.09249
11.4136	2.13873
11.8719	2.19653
12.6739	2.31214
13.4378	2.40462
14.24	2.49711
14.5837	2.54335
15.3858	2.6474
15.7296	2.68208
17.1047	2.84393
17.4486	2.87861
17.907	2.92486
18.4418	2.98266
18.9383	3.05202
19.2822	3.08671
19.9316	3.15607
