Adsorption isotherm of Carbon Dioxide on TRI-PE-MCM-41
DOI: 10.1016/j.cej.2010.04.024
Adsorbate Carbon Dioxide: InChIKey CURLTUGMZLYLDI-UHFFFAOYSA-N
Temperature: 328 K
Tabular data in the source: 0
pressure (bar)	uptake (mmol/g)
0.119522	1.39759
0.239044	1.75904
0.318725	1.85542
0.63745	2.01205
0.796813	2.08434
1.0757	2.15663
1.99203	2.27711
4.0239	2.39759
8.04781	2.46988
12.0319	2.6506
