Adsorption isotherm of Carbon Dioxide on TRI-PE-MCM-41
DOI: 10.1016/j.cej.2010.04.024
Adsorbate Carbon Dioxide: InChIKey CURLTUGMZLYLDI-UHFFFAOYSA-N
Temperature: 318 K
Tabular data in the source: 0
pressure (bar)	uptake (mmol/g)
0.278884	2.01205
0.438247	2.12048
0.756972	2.25301
1.03586	2.31325
2.03187	2.43373
3.98406	2.56627
8.00797	2.74699
12.0319	2.86747
16.0558	2.92771
20	2.95181
