Adsorption isotherm of Carbon Dioxide on TRI-PE-MCM-41
DOI: 10.1016/j.cej.2010.04.024
Adsorbate Carbon Dioxide: InChIKey CURLTUGMZLYLDI-UHFFFAOYSA-N
Temperature: 298 K
Tabular data in the source: 0
pressure (bar)	uptake (mmol/g)
0.0978939	2.11181
0.207044	2.39682
0.464583	2.59815
0.648702	2.71563
0.906758	2.83316
1.16481	2.9507
1.49701	3.03477
1.79214	3.13558
2.01364	3.18604
2.34584	3.27012
2.67814	3.33744
3.01045	3.40476
3.34275	3.47207
3.67505	3.53939
4.00735	3.60671
4.30279	3.65724
4.67216	3.70783
5.00447	3.77514
5.33687	3.8257
5.70625	3.87629
6.22329	3.96052
6.59276	3.99435
6.92507	4.06167
7.25747	4.11223
7.62695	4.14606
7.88542	4.19655
8.21782	4.24711
8.5873	4.28094
8.91971	4.3315
9.28918	4.36533
9.62159	4.41588
9.99096	4.46647
10.3236	4.48351
10.693	4.5341
11.0255	4.5679
11.3948	4.61849
11.7272	4.66905
12.0967	4.70287
12.4292	4.73667
12.7987	4.7705
13.1311	4.82106
13.5007	4.83813
13.8702	4.87196
14.2026	4.92252
14.572	4.95635
14.9046	4.99014
15.274	5.02397
15.6064	5.07453
15.9759	5.10836
16.3085	5.1254
16.6779	5.17599
17.0104	5.20979
17.3799	5.24361
17.7124	5.27741
18.0819	5.31124
18.4514	5.34507
18.7839	5.37887
19.1534	5.39594
19.4859	5.4465
19.8554	5.46357
