Adsorption isotherm of Carbon Dioxide on TRI-PE-MCM-41
DOI: 10.1016/j.cej.2010.04.024
Adsorbate Carbon Dioxide: InChIKey CURLTUGMZLYLDI-UHFFFAOYSA-N
Temperature: 318 K
Tabular data in the source: 0
pressure (bar)	uptake (mmol/g)
0.540379	2.29654
1.01983	2.4813
1.97967	2.69998
3.97379	3.05361
7.99994	3.61006
11.9896	4.08267
16.0166	4.50504
19.97	4.87707
