Adsorption isotherm of Carbon Dioxide on TRI-PE-MCM-41
DOI: 10.1016/j.cej.2010.04.024
Adsorbate Carbon Dioxide: InChIKey CURLTUGMZLYLDI-UHFFFAOYSA-N
Temperature: 308 K
Tabular data in the source: 0
pressure (bar)	uptake (mmol/g)
0.557769	2.25301
0.876494	2.31325
1.03586	2.39759
1.51394	2.50602
1.95219	2.56627
4.0239	2.6988
6.05578	2.80723
8.04781	2.90361
12.0717	2.98795
16.0558	3.0241
19.9602	3.10843
