Adsorption isotherm of Nitrogen on PE-MCM-41C
DOI: 10.1016/j.cej.2010.04.024
Adsorbate Nitrogen: InChIKey IJGRMHOSHXDMSA-UHFFFAOYSA-N
Temperature: 77 K
Tabular data in the source: 0
pressure (bar)	uptake (cm3(STP)/g)
0.0108545	771.773
0.0278381	815.277
0.0580579	850.229
0.0845085	867.806
0.0977283	885.265
0.116624	894.104
0.13741	902.96
0.154421	903.112
0.173305	929.292
0.195981	938.165
0.241333	955.911
0.296129	982.412
0.349041	1000.22
0.390613	1017.94
0.437849	1044.37
0.486981	1062.15
0.534212	1097.25
0.585223	1132.39
0.632448	1176.16
0.677778	1228.59
0.732504	1367.81
0.779565	1671.7
0.790791	1853.88
0.822589	2383.06
0.898063	2591.83
0.937749	2600.85
0.964211	2601.09
0.97176	2618.5
