Adsorption isotherm of Nitrogen on PE-MCM-41E
DOI: 10.1016/j.cej.2010.04.024
Adsorbate Nitrogen: InChIKey IJGRMHOSHXDMSA-UHFFFAOYSA-N
Temperature: 77 K
Tabular data in the source: 0
pressure (bar)	uptake (cm3(STP)/g)
0.011144	312.238
0.0300287	338.418
0.0602485	373.37
0.0829243	382.243
0.0980397	391.048
0.116941	391.217
0.137726	400.073
0.154732	408.895
0.175518	417.751
0.196298	435.278
0.241655	444.353
0.294572	453.496
0.343704	471.276
0.390952	480.368
0.438204	480.789
0.485435	515.893
0.536457	533.689
0.581798	568.776
0.629023	612.55
0.687556	708.448
0.725287	821.502
0.785612	1073.49
0.804486	1117.01
0.832832	1125.93
0.866843	1143.57
0.89142	1135.12
0.917881	1135.36
0.925436	1144.1
0.950002	1152.99
0.968898	1161.83
