Adsorption isotherm of Nitrogen on TRI-PE-MCM-41
DOI: 10.1016/j.cej.2010.04.024
Adsorbate Nitrogen: InChIKey IJGRMHOSHXDMSA-UHFFFAOYSA-N
Temperature: 77 K
Tabular data in the source: 0
pressure (bar)	uptake (cm3(STP)/g)
0.00942868	34.7662
0.032099	52.3096
0.0604452	61.2331
0.0774506	70.0554
0.0982364	78.9114
0.117137	79.0801
0.136028	96.5897
0.154929	96.7584
0.17572	96.944
0.196505	105.8
0.245648	106.239
0.29289	124.001
0.342027	133.11
0.391165	142.219
0.440302	151.328
0.487549	160.421
0.536681	178.2
0.631164	213.725
0.680274	266.187
0.738808	362.085
0.784066	527.229
0.802929	588.091
0.836902	666.429
0.865253	666.682
0.889825	666.901
0.918171	675.824
0.942742	676.044
0.957852	693.52
0.965413	693.587
