Adsorption isotherm of Hydrogen sulfide on TRI-PE-MCM-41
DOI: 10.1016/j.cej.2010.04.024
Adsorbate Hydrogen sulfide: InChIKey RWSOTUBLDIXVET-UHFFFAOYSA-N
Temperature: 298 K
Tabular data in the source: 0
pressure (bar)	uptake (mmol/g)
0.0269745	0.852691
0.0337993	0.941926
0.0406177	1.04108
0.0474361	1.14023
0.0634193	1.25921
0.0748395	1.33853
0.0885478	1.42776
0.099968	1.50708
0.10912	1.54674
0.125136	1.61615
0.141145	1.69547
0.157167	1.75496
0.173189	1.81445
0.191506	1.87394
0.209829	1.92351
0.230446	1.97309
0.24877	2.02266
0.269381	2.08215
0.287704	2.13173
0.308328	2.17139
0.312917	2.17139
0.333541	2.21105
0.354165	2.25071
0.374789	2.29037
0.397714	2.32011
0.418338	2.35977
0.438962	2.39943
0.459586	2.43909
0.480211	2.47875
0.500841	2.5085
0.510032	2.48867
0.526061	2.53824
0.548986	2.56799
0.569616	2.59773
0.592548	2.61756
0.613178	2.64731
0.636104	2.67705
0.656734	2.7068
0.679666	2.72663
0.700296	2.75637
0.723221	2.78612
0.743845	2.82578
0.766783	2.83569
0.787421	2.85552
0.810346	2.88527
0.830983	2.9051
0.853914	2.92493
0.874551	2.94476
0.897483	2.96459
0.918114	2.99433
0.941045	3.01416
0.961682	3.03399
0.984614	3.05382
1.00525	3.07365
1.02818	3.09348
1.04882	3.11331
1.07175	3.13314
1.09468	3.15297
1.11532	3.1728
1.13825	3.19263
1.15889	3.21246
1.18183	3.22238
