Adsorption isotherm of Carbon Dioxide on TRI-PE-MCM-41
DOI: 10.1016/j.cej.2010.04.024
Adsorbate Carbon Dioxide: InChIKey CURLTUGMZLYLDI-UHFFFAOYSA-N
Temperature: 328 K
Tabular data in the source: 0
pressure (bar)	uptake (mmol/g)
0.239044	1.79518
0.398406	1.96386
0.557769	2.04819
0.756972	2.16867
0.836653	2.16867
1.11554	2.25301
1.43426	2.3012
1.79283	2.3494
2.23108	2.39759
2.78884	2.45783
3.38645	2.50602
4.0239	2.53012
4.42231	2.55422
5.01992	2.57831
5.41833	2.57831
5.93625	2.60241
6.33466	2.61446
7.09163	2.63855
7.49004	2.6506
8.44622	2.68675
8.84462	2.68675
9.60159	2.68675
10.0398	2.71084
10.4382	2.71084
10.8367	2.72289
11.2351	2.73494
11.9124	2.74699
