Adsorption isotherm of Carbon Dioxide on TRI-PE-MCM-41
DOI: 10.1016/j.cej.2010.04.024
Adsorbate Carbon Dioxide: InChIKey CURLTUGMZLYLDI-UHFFFAOYSA-N
Temperature: 308 K
Tabular data in the source: 0
pressure (bar)	uptake (mmol/g)
0.576934	2.36361
0.871958	2.48118
0.982244	2.58183
1.4617	2.76659
1.97853	2.88434
3.97235	3.28824
6.00354	3.62514
8.03484	3.94528
11.9875	4.43463
15.9402	4.90721
19.9673	5.31282
