Adsorption isotherm of Carbon Dioxide on TRI-PE-MCM-41
DOI: 10.1016/j.cej.2010.04.024
Adsorbate Carbon Dioxide: InChIKey CURLTUGMZLYLDI-UHFFFAOYSA-N
Temperature: 318 K
Tabular data in the source: 0
pressure (bar)	uptake (mmol/g)
0.199203	1.9759
0.358566	2.13253
0.717131	2.26506
0.916335	2.3494
1.23506	2.40964
1.59363	2.46988
1.75299	2.49398
2.11155	2.51807
2.47012	2.55422
2.86853	2.57831
3.22709	2.60241
3.90438	2.6506
4.46215	2.6747
4.86056	2.68675
5.37849	2.6988
5.77689	2.71084
6.1753	2.72289
6.53386	2.73494
6.93227	2.74699
7.33068	2.75904
7.72908	2.77108
8.08765	2.78313
8.16733	2.78313
8.56574	2.79518
9.64143	2.80723
10.0398	2.81928
10.4382	2.81928
10.8367	2.83133
11.1952	2.84337
12.1116	2.85542
12.51	2.85542
12.9084	2.85542
13.2669	2.86747
13.6653	2.86747
14.0637	2.86747
14.4622	2.87952
14.8606	2.87952
15.259	2.87952
15.6574	2.89157
16.0159	2.89157
16.4143	2.89157
16.8127	2.89157
17.2112	2.90361
17.5697	2.91566
17.9681	2.91566
18.3665	2.91566
18.7649	2.91566
19.1633	2.91566
19.5618	2.91566
