Adsorption isotherm of Carbon Dioxide on TRI-PE-MCM-41
DOI: 10.1016/j.cej.2010.04.024
Adsorbate Carbon Dioxide: InChIKey CURLTUGMZLYLDI-UHFFFAOYSA-N
Temperature: 328 K
Tabular data in the source: 0
pressure (bar)	uptake (mmol/g)
1.51394	0.168675
2.3506	0.253012
3.18725	0.349398
3.58566	0.373494
4.06375	0.409639
4.46215	0.445783
4.86056	0.481928
5.37849	0.506024
6.01594	0.566265
6.89243	0.638554
7.29084	0.662651
7.84861	0.698795
8.16733	0.710843
8.7251	0.759036
9.40239	0.807229
9.8008	0.819277
10.1195	0.855422
10.5179	0.879518
11.0359	0.903614
11.7131	0.939759
12.1116	0.963855
12.8685	1.01205
13.4263	1.04819
13.8247	1.06024
14.741	1.10843
15.498	1.15663
15.8566	1.18072
16.1753	1.20482
16.5737	1.21687
16.9721	1.24096
17.4104	1.25301
18.2072	1.3012
18.6056	1.3253
19.2829	1.36145
19.6813	1.37349
20	1.38554
