Adsorption isotherm of Carbon Dioxide on PE-MCM-41E
DOI: 10.1016/j.cej.2010.04.024
Adsorbate Carbon Dioxide: InChIKey CURLTUGMZLYLDI-UHFFFAOYSA-N
Temperature: 328 K
Tabular data in the source: 0
pressure (bar)	uptake (mmol/g)
0.343616	0.0578035
0.763713	0.115607
1.14579	0.150289
1.48907	0.242775
1.83291	0.277457
2.17686	0.300578
2.52058	0.346821
2.90266	0.381503
3.24639	0.427746
3.62847	0.462428
3.97219	0.508671
4.31614	0.531792
4.65998	0.566474
5.0037	0.612717
5.38578	0.647399
5.72962	0.682081
6.07334	0.728324
6.45542	0.763006
6.79915	0.809249
7.14298	0.843931
7.52506	0.878613
7.8689	0.913295
8.17449	0.947977
8.51833	0.982659
8.90041	1.01734
9.24424	1.05202
9.62632	1.08671
9.97016	1.12139
10.314	1.15607
10.6961	1.19075
11.04	1.21387
11.4221	1.24855
11.7659	1.28324
12.1483	1.28324
12.4538	1.32948
12.7977	1.36416
13.1797	1.39884
13.5237	1.42197
13.9058	1.45665
14.2496	1.49133
14.6317	1.52601
14.9756	1.54913
15.3577	1.58382
15.7017	1.60694
16.0454	1.65318
16.3895	1.65318
16.7717	1.6763
17.1156	1.71098
17.4978	1.7341
17.8417	1.75723
18.2239	1.78035
18.5677	1.81503
18.9499	1.83815
19.2939	1.86127
19.6761	1.88439
