Adsorption isotherm of Hydrogen sulfide on TRI-PE-MCM-41
DOI: 10.1016/j.cej.2010.04.024
Adsorbate Hydrogen sulfide: InChIKey RWSOTUBLDIXVET-UHFFFAOYSA-N
Temperature: 323 K
Tabular data in the source: 0
pressure (bar)	uptake (mmol/g)
0.00672737	0.23796
0.0134872	0.426346
0.0316869	0.664306
0.0545469	0.793201
0.075132	0.892351
0.104875	1.02125
0.152975	1.15014
0.18275	1.22946
0.223999	1.30878
0.267541	1.3881
0.306508	1.44759
0.350064	1.50708
0.393619	1.56657
0.44177	1.61615
0.494504	1.67564
0.551826	1.73513
0.597683	1.7847
0.641258	1.81445
0.67795	1.84419
0.730696	1.88385
0.771977	1.9136
0.794915	1.92351
0.815552	1.94334
0.83849	1.95326
0.872887	1.983
0.895825	1.99292
0.918757	2.01275
0.941695	2.02266
0.953161	2.03258
0.976099	2.04249
1.00591	2.07224
1.02885	2.08215
1.04948	2.10198
1.07701	2.1119
1.10912	2.13173
1.13206	2.14164
1.19169	2.1813
