Adsorption isotherm of Hydrogen sulfide on TRI-PE-MCM-41
DOI: 10.1016/j.cej.2010.04.024
Adsorbate Hydrogen sulfide: InChIKey RWSOTUBLDIXVET-UHFFFAOYSA-N
Temperature: 308 K
Tabular data in the source: 0
pressure (bar)	uptake (mmol/g)
0.024771	0.713881
0.0589798	1.03116
0.0978816	1.1898
0.155061	1.46742
0.200885	1.56657
0.297109	1.7847
0.494231	2.09207
0.746432	2.3796
0.99177	2.63739
