Adsorption isotherm of Hydrogen sulfide on TRI-PE-MCM-41
DOI: 10.1016/j.cej.2010.04.024
Adsorbate Hydrogen sulfide: InChIKey RWSOTUBLDIXVET-UHFFFAOYSA-N
Temperature: 298 K
Tabular data in the source: 0
pressure (bar)	uptake (mmol/g)
0.0201171	0.813031
0.0496915	1.19972
0.0953596	1.53683
0.148015	1.7153
0.196088	1.88385
0.296875	2.14164
0.498566	2.47875
0.741577	2.78612
0.98919	3.07365
