Adsorption isotherm of Carbon Dioxide on TRI-PE-MCM-41
DOI: 10.1016/j.cej.2010.04.024
Adsorbate Carbon Dioxide: InChIKey CURLTUGMZLYLDI-UHFFFAOYSA-N
Temperature: 298 K
Tabular data in the source: 0
pressure (bar)	uptake (mmol/g)
0.981005	2.78294
2.01436	3.06873
3.9709	3.52288
6.00158	3.94358
7.99581	4.28044
11.985	4.83686
16.0114	5.34303
19.9641	5.83237
