Adsorption isotherm of Hydrogen sulfide on PE-MCM-41
DOI: 10.1016/j.cej.2010.04.024
Adsorbate Hydrogen sulfide: InChIKey RWSOTUBLDIXVET-UHFFFAOYSA-N
Temperature: 298 K
Tabular data in the source: 0
pressure (bar)	uptake (mmol/g)
0.0825159	0.128895
0.167307	0.287535
0.203979	0.347025
0.405677	0.674221
0.609682	0.981586
0.802247	1.23938
0.994819	1.48725
