Adsorption isotherm of Carbon Dioxide on TRI-PE-MCM-41
DOI: 10.1016/j.cej.2010.04.024
Adsorbate Carbon Dioxide: InChIKey CURLTUGMZLYLDI-UHFFFAOYSA-N
Temperature: 298 K
Tabular data in the source: 0
pressure (bar)	uptake (mmol/g)
0.0165603	1.68605
0.0461099	1.98837
0.0762398	2.13953
0.114226	2.24419
0.159979	2.32558
0.213364	2.4186
0.274517	2.48837
0.335714	2.54651
0.404589	2.60465
0.473508	2.65116
0.542472	2.68605
0.611391	2.73256
0.688033	2.76744
0.756997	2.80233
0.825961	2.83721
0.902602	2.87209
0.971611	2.89535
1.0483	2.9186
1.12498	2.94186
1.19399	2.96512
1.27072	2.97674
1.33973	3
1.41642	3.02326
1.4931	3.04651
1.56211	3.06977
1.6388	3.09302
1.70781	3.11628
1.78449	3.13953
1.8535	3.16279
1.93019	3.18605
1.9992	3.2093
2.07593	3.22093
2.15266	3.23256
2.22939	3.24419
2.2984	3.26744
2.37513	3.27907
2.45186	3.2907
2.52087	3.31395
2.5976	3.32558
2.67428	3.34884
2.74334	3.36047
2.82007	3.37209
2.8968	3.38372
2.96581	3.40698
3.04254	3.4186
3.11927	3.43023
3.18828	3.45349
3.26501	3.46512
3.34174	3.47674
3.41847	3.48837
3.48748	3.51163
3.56421	3.52326
3.63322	3.54651
3.70995	3.55814
3.78668	3.56977
3.86337	3.59302
3.93242	3.60465
