Adsorption isotherm of Methanol, Benzene on Molecular sieving carbon MSC-5A
DOI: 10.1252/jcej.18.398
Article source: Figure 1
Adsorbate Methanol: InChIKey OKKJLVBELUTLKV-UHFFFAOYSA-N
Adsorbate Benzene: InChIKey UHOVQNZJYSORNB-UHFFFAOYSA-N
Kind: experiment
Temperature: 303 K
Tabular data in the source: 0
pressure (bar)	Methanol fraction	Methanol uptake (mmol/g)	Benzene fraction	Benzene uptake (mmol/g)	total uptake (mmol/g)
0.04	0.126	0.16116	0.874	1.87884	2.04
0.04	0.248	0.24846	0.752	1.77154	2.02
0.04	0.439	0.43931	0.561	1.79069	2.23
0.04	0.609	0.46968	0.391	1.81032	2.28
0.04	0.76	0.57981	0.24	1.73019	2.31
0.04	0.807	0.90885	0.193	1.58115	2.49
0.04	0.895	1.353	0.105	1.107	2.46
0.04	0.948	1.529	0.052	1.251	2.78
