Adsorption isotherm of Methanol, Benzene on Activated carbon: G-2X
DOI: 10.1252/jcej.18.398
Article source: Figure 8
Adsorbate Methanol: InChIKey OKKJLVBELUTLKV-UHFFFAOYSA-N
Adsorbate Benzene: InChIKey UHOVQNZJYSORNB-UHFFFAOYSA-N
Kind: experiment
Temperature: 303 K
Tabular data in the source: 0
pressure (bar)	Methanol fraction	Methanol uptake (mmol/g)	Benzene fraction	Benzene uptake (mmol/g)	total uptake (mmol/g)
0.04	0.223	0.06096	0.777	5.01904	5.08
0.04	0.597	0.21658	0.403	4.68342	4.9
0.04	0.722	0.291654	0.278	4.61835	4.91
0.04	0.732	0.417993	0.268	4.61201	5.03
0.04	0.797	0.418557	0.203	4.51144	4.93
0.04	0.932	1.5219	0.068	3.8181	5.34
0.04	0.959	3.34284	0.041	2.91716	6.26
