Adsorption isotherm of Acetone, N-Hexane on Molecular sieving carbon MSC-5A
DOI: 10.1252/jcej.18.398
Article source: Figure 13
Adsorbate Acetone: InChIKey CSCPPACGZOOCGX-UHFFFAOYSA-N
Adsorbate N-Hexane: InChIKey VLKZOEOYAKHREP-UHFFFAOYSA-N
Kind: experiment
Temperature: 303 K
Tabular data in the source: 0
pressure (bar)	Acetone fraction	Acetone uptake (mmol/g)	N-Hexane fraction	N-Hexane uptake (mmol/g)	total uptake (mmol/g)
0.04	0.0876	0.28336	0.912	1.25664	1.54
0.04	0.227	0.43608	0.773	1.14392	1.58
0.04	0.405	0.64845	0.595	1.00155	1.65
0.04	0.426	0.5648	0.574	1.0352	1.6
0.04	0.477	0.501	0.523	0.999	1.5
0.04	0.621	0.85025	0.379	0.93975	1.79
0.04	0.789	1.14444	0.211	0.72556	1.87
0.04	0.861	1.50444	0.139	0.48556	1.99
0.04	0.906	1.6995	0.094	0.3605	2.06
