Adsorption isotherm of Acetone, Methanol on Activated carbon: G-2X
DOI: 10.1252/jcej.18.398
Article source: Figure 7
Adsorbate Acetone: InChIKey CSCPPACGZOOCGX-UHFFFAOYSA-N
Adsorbate Methanol: InChIKey OKKJLVBELUTLKV-UHFFFAOYSA-N
Kind: experiment
Temperature: 303 K
Tabular data in the source: 0
pressure (bar)	Acetone fraction	Acetone uptake (mmol/g)	Methanol fraction	Methanol uptake (mmol/g)	total uptake (mmol/g)
0.04	0.64	5.1377	0.36	1.0523	6.19
0.04	0.435	4.44066	0.565	2.09934	6.54
0.04	0.322	3.88668	0.678	2.72332	6.61
0.04	0.315	3.86136	0.685	3.05864	6.92
0.04	0.306	3.89172	0.694	2.88828	6.78
0.04	0.224	3.14028	0.776	4.17972	7.32
0.04	0.092	1.69242	0.908	6.72758	8.42
