Adsorption isotherm of Acetone, Benzene on Molecular sieve 13X
DOI: 10.1252/jcej.18.398
Article source: Figure 5
Adsorbate Acetone: InChIKey CSCPPACGZOOCGX-UHFFFAOYSA-N
Adsorbate Benzene: InChIKey UHOVQNZJYSORNB-UHFFFAOYSA-N
Kind: experiment
Temperature: 303 K
Tabular data in the source: 0
pressure (bar)	Acetone fraction	Acetone uptake (mmol/g)	Benzene fraction	Benzene uptake (mmol/g)	total uptake (mmol/g)
0.04	0.0508	2.19748	0.949	0.54252	2.74
0.04	0.128	2.65974	0.872	0.25026	2.91
0.04	0.159	2.67802	0.841	0.25198	2.93
0.04	0.196	2.73465	0.804	0.21535	2.95
0.04	0.34	2.81106	0.66	0.09894	2.91
0.04	0.668	3.01	0.332	0	3.01
