Adsorption isotherm of Acetone, N-Hexane on Activated carbon: G-2X
DOI: 10.1252/jcej.18.398
Article source: Figure 11
Adsorbate Acetone: InChIKey CSCPPACGZOOCGX-UHFFFAOYSA-N
Adsorbate N-Hexane: InChIKey VLKZOEOYAKHREP-UHFFFAOYSA-N
Kind: experiment
Temperature: 303 K
Tabular data in the source: 0
pressure (bar)	Acetone fraction	Acetone uptake (mmol/g)	N-Hexane fraction	N-Hexane uptake (mmol/g)	total uptake (mmol/g)
0.04	0.19	0.19136	0.81	3.48864	3.68
0.04	0.454	0.30914	0.546	3.46086	3.77
0.04	0.61	0.4966	0.39	3.3234	3.82
0.04	0.64	0.68796	0.36	2.95204	3.64
0.04	0.752	0.88754	0.248	3.09246	3.98
0.04	0.835	1.65032	0.165	2.55968	4.21
0.04	0.933	3.45712	0.067	1.50288	4.96
