Adsorption isotherm of Methanol, Benzene on Molecular sieve 13X
DOI: 10.1252/jcej.18.398
Article source: Figure 4
Adsorbate Methanol: InChIKey OKKJLVBELUTLKV-UHFFFAOYSA-N
Adsorbate Benzene: InChIKey UHOVQNZJYSORNB-UHFFFAOYSA-N
Kind: experiment
Temperature: 303 K
Tabular data in the source: 0
pressure (bar)	Methanol fraction	Methanol uptake (mmol/g)	Benzene fraction	Benzene uptake (mmol/g)	total uptake (mmol/g)
0.04	0.031	3.075	0.969	0.675	3.75
0.04	0.074	4.3659	0.9258	0.2541	4.62
0.04	0.089	4.3193	0.9111	0.3807	4.7
0.04	0.098	4.324	0.9016	0.276	4.6
0.04	0.235	4.60768	0.765	0.15232	4.76
0.04	0.359	4.75048	0.641	0.00952	4.76
