Adsorption isotherm of Acetone, Benzene on Activated carbon: G-2X
DOI: 10.1252/jcej.18.398
Article source: Figure 10
Adsorbate Acetone: InChIKey CSCPPACGZOOCGX-UHFFFAOYSA-N
Adsorbate Benzene: InChIKey UHOVQNZJYSORNB-UHFFFAOYSA-N
Kind: experiment
Temperature: 303 K
Tabular data in the source: 0
pressure (bar)	Acetone fraction	Acetone uptake (mmol/g)	Benzene fraction	Benzene uptake (mmol/g)	total uptake (mmol/g)
0.04	0.259	0.3978	0.741	4.7022	5.1
0.04	0.401	0.61285	0.599	4.53715	5.15
0.04	0.594	1.05165	0.406	4.07835	5.13
0.04	0.667	1.13491	0.333	4.09509	5.23
0.04	0.711	1.26741	0.289	3.82259	5.09
0.04	0.716	1.55854	0.284	3.67146	5.23
0.04	0.86	2.41878	0.14	3.04122	5.46
0.04	0.954	3.72706	0.046	1.90294	5.63
