Adsorption isotherm of Acetone, Methanol on Molecular sieving carbon MSC-5A
DOI: 10.1252/jcej.18.398
Article source: Figure 12
Adsorbate Acetone: InChIKey CSCPPACGZOOCGX-UHFFFAOYSA-N
Adsorbate Methanol: InChIKey OKKJLVBELUTLKV-UHFFFAOYSA-N
Kind: experiment
Temperature: 303 K
Tabular data in the source: 0
pressure (bar)	Acetone fraction	Acetone uptake (mmol/g)	Methanol fraction	Methanol uptake (mmol/g)	total uptake (mmol/g)
0.04	0.9608	2.17454	0.039	0.145464	2.32
0.04	0.812	2.1522	0.188	0.3978	2.55
0.04	0.659	1.77388	0.341	0.66612	2.44
0.04	0.619	1.82766	0.381	0.66234	2.49
0.04	0.542	1.82352	0.458	0.79648	2.62
0.04	0.418	1.68868	0.582	0.90132	2.59
0.04	0.357	1.58976	0.643	1.17024	2.76
0.04	0.299	1.5428	0.701	1.2572	2.8
0.04	0.117	1.027	0.883	2.223	3.25
0.04	0.067	0.58712	0.933	2.69288	3.28
