Adsorption isotherm of Methanol, N-Hexane on Molecular sieving carbon MSC-5A
DOI: 10.1252/jcej.18.398
Article source: Figure 14
Adsorbate Methanol: InChIKey OKKJLVBELUTLKV-UHFFFAOYSA-N
Adsorbate N-Hexane: InChIKey VLKZOEOYAKHREP-UHFFFAOYSA-N
Kind: experiment
Temperature: 303 K
Tabular data in the source: 0
pressure (bar)	Methanol fraction	Methanol uptake (mmol/g)	N-Hexane fraction	N-Hexane uptake (mmol/g)	total uptake (mmol/g)
0.04	0.072	0.30856	0.928	1.21144	1.52
0.04	0.205	0.53277	0.795	1.23723	1.77
0.04	0.355	0.73842	0.645	1.12158	1.86
0.04	0.521	0.836	0.479	1.164	2
0.04	0.576	0.83835	0.424	1.23165	2.07
0.04	0.592	0.77748	0.408	1.08252	1.86
0.04	0.857	1.18496	0.143	1.05504	2.24
0.04	0.959	1.69818	0.041	0.79182	2.49
