Adsorption isotherm of Acetone, N-Hexane on Molecular sieve 13X
DOI: 10.1252/jcej.18.398
Article source: Figure 6
Adsorbate Acetone: InChIKey CSCPPACGZOOCGX-UHFFFAOYSA-N
Adsorbate N-Hexane: InChIKey VLKZOEOYAKHREP-UHFFFAOYSA-N
Kind: experiment
Temperature: 303 K
Tabular data in the source: 0
pressure (bar)	Acetone fraction	Acetone uptake (mmol/g)	N-Hexane fraction	N-Hexane uptake (mmol/g)	total uptake (mmol/g)
0.04	0.0263	1.8881	0.974	0.5019	2.39
0.04	0.0373	2.33172	0.963	0.20828	2.54
0.04	0.0614	2.81436	0.939	0.00564	2.82
0.04	0.0658	2.52784	0.934	0.06216	2.59
0.04	0.143	2.85821	0.857	0.03179	2.89
0.04	0.467	3	0.533	0	3
