Adsorption isotherm of Methanol, N-Hexane on Activated carbon: G-2X
DOI: 10.1252/jcej.18.398
Article source: Figure 9
Adsorbate Methanol: InChIKey OKKJLVBELUTLKV-UHFFFAOYSA-N
Adsorbate N-Hexane: InChIKey VLKZOEOYAKHREP-UHFFFAOYSA-N
Kind: experiment
Temperature: 303 K
Tabular data in the source: 0
pressure (bar)	Methanol fraction	Methanol uptake (mmol/g)	N-Hexane fraction	N-Hexane uptake (mmol/g)	total uptake (mmol/g)
0.04	0.361	0.02359	0.639	3.34641	3.37
0.04	0.802	0.19488	0.198	3.16512	3.36
0.04	0.969	0.49155	0.031	2.89845	3.39
