Adsorption isotherm of Acetone, Methanol on Molecular sieve 13X
DOI: 10.1252/jcej.18.398
Article source: Figure 3
Adsorbate Acetone: InChIKey CSCPPACGZOOCGX-UHFFFAOYSA-N
Adsorbate Methanol: InChIKey OKKJLVBELUTLKV-UHFFFAOYSA-N
Kind: experiment
Temperature: 303 K
Tabular data in the source: 0
pressure (bar)	Acetone fraction	Acetone uptake (mmol/g)	Methanol fraction	Methanol uptake (mmol/g)	total uptake (mmol/g)
0.04	0.959	1.404	0.041	2.106	3.51
0.04	0.9446	1.42875	0.055	2.32125	3.75
0.04	0.899	0.7128	0.101	2.8872	3.6
0.04	0.855	0.70866	0.145	3.10134	3.81
0.04	0.776	0.4746	0.224	3.7254	4.2
0.04	0.602	0.51121	0.398	4.17879	4.69
0.04	0.547	0.51467	0.453	4.29533	4.81
0.04	0.345	0.38078	0.655	4.43922	4.82
