Adsorption isotherm of Nitrogen on prolate
DOI: 10.1007/s10450-021-00326-8
Article source: Figure 7
Adsorbate Nitrogen: InChIKey IJGRMHOSHXDMSA-UHFFFAOYSA-N
Kind: experiment
Temperature: 77 K
Tabular data in the source: 0
pressure (bar)	uptake (volume/volume)
0.020407	0.00244
0.028371	0.23812
0.036832	0.2503
0.044786	0.25822
0.05275	0.26492
0.06121	0.27162
0.068678	0.27649
0.077139	0.28136
0.085103	0.28624
0.093067	0.29111
0.101528	0.29537
0.109492	0.29963
0.116949	0.30329
0.125906	0.30694
0.133871	0.3106
0.141835	0.31425
0.149799	0.3179
0.157763	0.32156
0.165727	0.32521
0.174188	0.32887
0.182142	0.33191
0.190602	0.33557
0.198567	0.33861
0.206531	0.34227
0.214991	0.34592
0.223452	0.34957
0.23092	0.35262
0.238387	0.35566
0.247344	0.35993
0.255298	0.36297
0.263263	0.36663
0.271227	0.37028
0.279191	0.37333
0.287652	0.37759
0.295119	0.38124
0.30358	0.38429
0.31204	0.38855
0.320005	0.3922
0.327959	0.39586
0.335923	0.39951
0.343887	0.40438
0.352348	0.40804
0.360312	0.4123
0.368772	0.41657
0.376736	0.42144
0.384701	0.42631
0.393161	0.43057
0.401115	0.43544
0.409576	0.44032
