Adsorption isotherm of Nitrogen on oblate
DOI: 10.1007/s10450-021-00326-8
Article source: Figure 7
Adsorbate Nitrogen: InChIKey IJGRMHOSHXDMSA-UHFFFAOYSA-N
Kind: experiment
Temperature: 77 K
Tabular data in the source: 0
pressure (bar)	uptake (volume/volume)
0.022889	0.01523
0.03135	0.10597
0.039811	0.11145
0.047775	0.1151
0.055242	0.11815
0.0642	0.12058
0.07266	0.12363
0.080128	0.12546
0.088588	0.12728
0.096542	0.12911
0.104507	0.13155
0.112471	0.13337
0.120931	0.1352
0.128896	0.13703
0.137356	0.13886
0.144327	0.14068
0.153284	0.1419
0.161249	0.14373
0.169203	0.14495
0.177167	0.14677
0.185627	0.14799
0.193592	0.14982
0.201556	0.15164
0.20952	0.15286
0.21798	0.15469
0.225945	0.15591
0.233899	0.15773
0.242359	0.15956
0.250323	0.16078
0.258288	0.162
0.266252	0.16382
0.274216	0.16565
0.28218	0.16687
0.290641	0.1687
0.298605	0.16991
0.306559	0.17174
0.315019	0.17357
0.32348	0.1754
0.331444	0.17722
0.338912	0.17844
0.347372	0.18088
0.355337	0.1827
0.363797	0.18392
0.371761	0.18636
0.379715	0.18758
0.388176	0.19062
0.395644	0.19184
0.404104	0.19367
0.412565	0.19671
0.420033	0.19854
0.427997	0.20097
0.436457	0.20402
0.444918	0.20585
0.452872	0.2095
0.461333	0.21194
0.469297	0.21559
0.477261	0.21864
0.484729	0.22168
0.493189	0.22655
0.501153	0.23143
