Adsorption isotherm of Nitrogen on 2Li-HKUST-1
DOI: 10.1016/S2095-4956(14)60173-X
Adsorbate Nitrogen: InChIKey IJGRMHOSHXDMSA-UHFFFAOYSA-N
Temperature: 77 K
Tabular data in the source: 0
pressure (bar)	uptake (cm3(STP)/g)
-0.00197063	-0.0020284
-5.39302e-17	35.8025
0	-5.55112e-17
0.00197063	59.2568
0.00394126	188.884
0.00591188	201.227
0.0295595	243.172
0.0532069	246.846
0.0807958	250.515
0.106413	252.951
0.128091	256.627
0.151739	259.066
0.179327	260.266
0.195092	262.715
0.258152	265.104
0.295595	269.995
0.348801	273.631
0.396096	277.274
0.443391	277.214
0.494628	282.087
0.543894	285.729
0.591188	289.372
0.638484	291.781
0.68972	294.185
0.735044	296.597
0.78431	300.238
0.829634	302.649
0.892695	305.038
0.906489	306.255
0.945902	311.144
