Adsorption isotherm of Carbon Dioxide on 1Na-HKUST-1
DOI: 10.1016/S2095-4956(14)60173-X
Adsorbate Carbon Dioxide: InChIKey CURLTUGMZLYLDI-UHFFFAOYSA-N
Temperature: 298 K
Tabular data in the source: 0
pressure (bar)	uptake (mmol/g)
1.26888	0.583337
2.56628	1.51555
4.51299	2.71039
5.98708	3.84637
8.37805	4.69305
10.0599	5.50958
12.4514	6.18184
13.9861	6.82372
16.2004	7.43758
18.119	8.13819
