Adsorption isotherm of Carbon Dioxide on CuBTC
DOI: 10.1016/S2095-4956(14)60173-X
Adsorbate Carbon Dioxide: InChIKey CURLTUGMZLYLDI-UHFFFAOYSA-N
Temperature: 298 K
Tabular data in the source: 0
pressure (bar)	uptake (mmol/g)
0.206842	0.000316466
1.5934	0.758252
2.36004	1.31175
4.74972	2.59448
6.01792	3.41037
8.31998	4.34412
10.1499	5.07367
11.921	5.68684
14.165	6.27167
16.0539	7.03038
17.9429	7.73094
