Adsorption isotherm of Nitrogen on CuBTC
DOI: 10.1016/S2095-4956(14)60173-X
Adsorbate Nitrogen: InChIKey IJGRMHOSHXDMSA-UHFFFAOYSA-N
Temperature: 77 K
Tabular data in the source: 0
pressure (bar)	uptake (cm3(STP)/g)
-0.00394126	34.5729
-0.00197063	22.2247
-5.39302e-17	69.1358
0	-5.55112e-17
0.00197063	50.6148
0.00394126	134.563
0.00591188	156.783
0.015765	213.56
0.0295595	216.012
0.0551776	219.683
0.0788251	223.357
0.108385	228.257
0.132032	230.696
0.157651	234.368
0.175386	235.58
0.199033	239.253
0.248299	242.894
0.295595	242.834
0.34486	247.71
0.392155	250.119
0.439451	253.763
0.490687	256.167
0.539952	261.042
0.587247	263.451
0.632572	265.863
0.683808	270.736
0.735044	273.14
0.778398	275.554
0.831606	279.19
0.87693	282.836
0.912401	285.26
0.932107	287.704
0.951814	287.679
0.959697	288.904
