Adsorption isotherm of Carbon Dioxide on 1K-HKUST-1
DOI: 10.1016/S2095-4956(14)60173-X
Adsorbate Carbon Dioxide: InChIKey CURLTUGMZLYLDI-UHFFFAOYSA-N
Temperature: 298 K
Tabular data in the source: 0
pressure (bar)	uptake (mmol/g)
1.17946	0.844828
2.44732	1.777
4.24636	2.94254
5.77921	4.19489
8.2583	5.21612
9.88126	5.97442
12.0657	6.70451
13.6893	7.25932
15.6968	7.87285
18.1175	8.66144
