Adsorption isotherm of Nitrogen on 1K-HKUST-1
DOI: 10.1016/S2095-4956(14)60173-X
Adsorbate Nitrogen: InChIKey IJGRMHOSHXDMSA-UHFFFAOYSA-N
Temperature: 77 K
Tabular data in the source: 0
pressure (bar)	uptake (cm3(STP)/g)
-0.00197063	261.731
-5.39302e-17	30.8642
0	-5.55112e-17
5.39302e-17	0
0.00197063	0.0020284
0.00197063	39.5037
0.00394126	0.0040568
0.00394126	56.7851
0.00591188	13.5727
0.00788251	292.583
0.0315301	301.195
0.0532069	308.574
0.0748839	309.781
0.104443	312.213
0.128091	315.887
0.155679	319.555
0.175386	323.234
0.199033	326.908
0.248299	330.549
0.295595	334.192
0.346831	339.065
0.392155	341.477
0.441421	343.884
0.488716	346.293
0.536011	352.405
0.591188	354.804
0.632572	355.986
0.685778	358.388
0.737015	363.261
0.778398	366.912
0.831606	369.314
0.8789	374.192
0.910431	376.621
0.938019	377.82
0.945902	377.81
0.959697	379.027
