Adsorption isotherm of Carbon Dioxide on 2Li-HKUST-1
DOI: 10.1016/S2095-4956(14)60173-X
Adsorbate Carbon Dioxide: InChIKey CURLTUGMZLYLDI-UHFFFAOYSA-N
Temperature: 298 K
Tabular data in the source: 0
pressure (bar)	uptake (mmol/g)
1.32824	0.496218
2.68491	1.37039
4.54314	2.50695
5.78101	3.58443
8.23073	4.54748
10.1493	5.27716
12.8948	6.12438
14.0166	6.504
16.4078	7.26348
18.0015	7.90545
