Adsorption isotherm of Nitrogen on CuBTC
DOI: 10.1016/S2095-4956(14)60173-X
Adsorbate Nitrogen: InChIKey IJGRMHOSHXDMSA-UHFFFAOYSA-N
Temperature: 298 K
Tabular data in the source: 0
pressure (bar)	uptake (mmol/g)
1.35916	0.0311493
2.57032	0.149281
4.66795	0.26877
5.96792	0.328898
8.3613	0.36163
9.95659	0.48035
12.1429	0.570904
13.7975	0.631575
15.8657	0.721949
18.1704	0.754545
