Adsorption isotherm of Nitrogen on 1K-HKUST-1
DOI: 10.1016/S2095-4956(14)60173-X
Adsorbate Nitrogen: InChIKey IJGRMHOSHXDMSA-UHFFFAOYSA-N
Temperature: 298 K
Tabular data in the source: 0
pressure (bar)	uptake (mmol/g)
1.18195	0.00180838
2.48176	0.120076
4.31345	0.239158
5.84964	0.357787
8.21329	0.448613
9.89723	0.567468
12.054	0.657977
13.7083	0.805857
15.7175	0.867071
18.0811	0.986966
