Adsorption isotherm of Nitrogen on 1Na-HKUST-1
DOI: 10.1016/S2095-4956(14)60173-X
Adsorbate Nitrogen: InChIKey IJGRMHOSHXDMSA-UHFFFAOYSA-N
Temperature: 77 K
Tabular data in the source: 0
pressure (bar)	uptake (cm3(STP)/g)
-0.00591188	243.217
-5.39302e-17	41.9753
0	-5.55112e-17
0.00197063	0.0020284
0.00197063	71.6024
0.00591188	224.684
0.0236476	253.056
0.037442	256.743
0.0512363	261.663
0.0768545	265.334
0.108385	266.529
0.128091	271.442
0.153709	273.879
0.183269	277.545
0.195092	277.53
0.262094	281.148
0.301506	284.802
0.352742	287.206
0.394126	290.857
0.445362	295.73
0.490687	296.907
0.543894	300.543
0.59316	302.95
0.640454	306.594
0.693661	308.995
0.738986	315.11
0.78234	317.524
0.831606	319.931
0.8789	322.34
0.894665	323.554
0.904518	323.542
0.941961	327.198
