Adsorption isotherm of Nitrogen on C-MOF-5
DOI: 10.1016/j.jiec.2013.12.091
Adsorbate Nitrogen: InChIKey IJGRMHOSHXDMSA-UHFFFAOYSA-N
Temperature: 77 K
Tabular data in the source: 0
pressure (bar)	uptake (cm3(STP)/g)
0.000495198	373.791
0.00486744	474.093
0.0177426	592.662
0.0496105	647.487
0.0941542	670.454
0.174774	725.47
0.234144	739.377
0.327465	780.768
0.405912	794.75
0.50134	827.031
0.588296	863.839
0.671018	905.188
0.743148	951.054
0.796195	992.287
0.815326	1033.39
0.866259	1079.17
0.908713	1124.92
0.925816	1234.39
0.947134	1325.64
0.947194	1371.22
0.955751	1430.52
