Adsorption isotherm of Water on Zeolite Li-LSX
DOI: 10.1016/j.applthermaleng.2010.03.028
Adsorbate Water: InChIKey XLYOFNOQVPJJNP-UHFFFAOYSA-N
Temperature: 413 K
Tabular data in the source: 0
pressure (bar)	uptake (g/g)
0.0686124	0.16861
0.180478	0.191916
0.309822	0.201748
0.533554	0.209759
