Adsorption isotherm of Water on Zeolite Li-LSX
DOI: 10.1016/j.applthermaleng.2010.03.028
Adsorbate Water: InChIKey XLYOFNOQVPJJNP-UHFFFAOYSA-N
Temperature: 413 K
Tabular data in the source: 0
pressure (bar)	uptake (g/g)
0.0170494	0.119087
0.0598729	0.168246
0.160377	0.190823
0.277486	0.199563
0.4951	0.208302
