Adsorption isotherm of Hydrogen on C102H109N10O38.5Zn9
DOI: 10.1039/B818648k
Adsorbate Hydrogen: InChIKey UFHFLCQGNIYNRP-UHFFFAOYSA-N
Temperature: 77 K
Tabular data in the source: 0
pressure (bar)	uptake (cm3(STP)/g)
0.252326	0.65407
0.682558	1.03198
2.1186	1.48256
4.33605	1.70058
7.14535	1.81686
9.75	1.875
11.5512	1.88953
14.5535	1.9186
16.7535	1.9186
19.7535	1.9186
22.5535	1.9186
25.3523	1.90407
27.5523	1.90407
30.1523	1.90407
32.3523	1.90407
34.9512	1.88953
37.5512	1.88953
40.15	1.875
43.9488	1.86047
47.5477	1.84593
50.9465	1.8314
