Adsorption isotherm of Hydrogen on C102H109N10O38.5Zn9
DOI: 10.1039/B818648k
Adsorbate Hydrogen: InChIKey UFHFLCQGNIYNRP-UHFFFAOYSA-N
Temperature: 77 K
Tabular data in the source: 0
pressure (bar)	uptake (mmol/g)
0.137931	0.137931
0.183908	2.89286
0.275862	3.25
0.321839	3.75
0.367816	4.32143
0.505747	5.07143
0.689655	5.75
0.873563	6.25
1.01149	6.57143
1.14943	6.92857
1.37931	7.39286
1.6092	7.71429
1.7931	8.03571
2.06897	8.32143
2.34483	8.60714
2.62069	8.85714
2.98851	9.10714
3.35632	9.32143
3.72414	9.53571
4.09195	9.71429
4.5977	9.89286
5.24138	10.0714
5.65517	10.1786
6.06897	10.25
6.43678	10.3571
6.85057	10.4643
7.21839	10.5357
7.67816	10.5714
8.55172	10.6429
8.96552	10.75
9.37931	10.7857
9.7931	10.8571
10.2529	10.8571
10.6667	10.9643
11.1264	10.9643
11.5862	10.9643
11.8621	11.0357
13.1034	11.0357
13.2874	11.1429
13.931	11.1429
14.8506	11.1786
15.2644	11.25
15.7241	11.25
16.1839	11.25
16.6437	11.25
17.1034	11.25
17.5172	11.3571
17.977	11.3571
18.4368	11.3571
18.8966	11.3571
19.3563	11.3571
19.8161	11.3571
