Adsorption isotherm of Hydrogen on C102H109N10O38.5Zn9
DOI: 10.1039/B818648k
Adsorbate Hydrogen: InChIKey UFHFLCQGNIYNRP-UHFFFAOYSA-N
Temperature: 77 K
Tabular data in the source: 0
pressure (bar)	uptake (mmol/g)
0.136986	1.8877
0.182648	2.6251
0.228311	3.274
0.410959	4.15869
0.502283	4.86652
0.593607	5.24986
0.684932	5.54471
0.776256	5.86906
0.913242	6.04585
1.00457	6.25221
1.36986	6.87114
1.59817	7.13629
1.78082	7.4015
2.10046	7.63702
2.37443	7.84311
2.73973	8.04906
3.05936	8.22558
3.47032	8.37246
3.74429	8.46055
4.15525	8.57794
4.56621	8.69533
5.02283	8.78315
5.43379	8.87104
5.98174	8.95873
6.43836	9.01705
6.66667	9.04621
7.12329	9.07504
7.53425	9.13343
8.3105	9.22078
8.76712	9.24961
9.68037	9.30726
10.137	9.33608
11.1872	9.39353
11.6438	9.39286
11.7808	9.42215
12.2374	9.42148
12.6941	9.4503
13.2877	9.47893
13.7443	9.47825
14.0639	9.50728
14.5205	9.50661
14.9772	9.53543
15.4338	9.53476
15.8447	9.56365
16.3014	9.56298
16.758	9.5623
16.9406	9.59153
17.3973	9.59086
17.8539	9.59019
18.3105	9.58951
18.7671	9.61834
19.2237	9.61766
19.6804	9.61699
