Adsorption isotherm of Hydrogen on C102H109N10O38.5Zn9
DOI: 10.1039/B818648k
Adsorbate Hydrogen: InChIKey UFHFLCQGNIYNRP-UHFFFAOYSA-N
Temperature: 77 K
Tabular data in the source: 0
pressure (bar)	uptake (cm3(STP)/g)
0.2	8.88e-16
0.226744	0.334302
0.266279	0.828488
0.439535	0.494186
0.9	1.25
1.73023	1.62791
3.75349	1.9186
6.5686	2.10756
9.37791	2.22384
11.3814	2.26744
13.3826	2.28198
15.5826	2.28198
16.7837	2.29651
19.5837	2.29651
22.5826	2.28198
25.1814	2.26744
28.3814	2.26744
30.9791	2.23837
32.7791	2.23837
35.3779	2.22384
37.5733	2.1657
40.3733	2.1657
44.5709	2.13663
