Adsorption isotherm of Hydrogen on C102H109N10O38.5Zn9
DOI: 10.1039/B818648k
Adsorbate Hydrogen: InChIKey UFHFLCQGNIYNRP-UHFFFAOYSA-N
Temperature: 77 K
Tabular data in the source: 0
pressure (bar)	uptake (mmol/g)
0.045977	0.714286
0.137931	1.21429
0.321839	2.03571
0.413793	2.46429
0.597701	3.07143
0.781609	3.64286
0.965517	4.21429
1.1954	4.60714
1.37931	4.92857
1.56322	5.25
1.7931	5.57143
2.02299	5.89286
2.29885	6.17857
2.57471	6.46429
2.89655	6.71429
3.21839	6.92857
3.58621	7.17857
3.95402	7.39286
4.36782	7.53571
4.78161	7.71429
5.1954	7.85714
5.6092	8
6.25287	8.21429
7.03448	8.39286
8	8.57143
8.73563	8.67857
9.33333	8.78571
9.7931	8.82143
10.5287	8.92857
10.9885	8.96429
11.1724	9
11.6322	9.03571
11.954	9.07143
12.4138	9.10714
12.7816	9.14286
13.2414	9.17857
14.7126	9.28571
15.1724	9.28571
15.2644	9.28571
15.7241	9.32143
15.8621	9.35714
16.3218	9.35714
16.5517	9.39286
17.0115	9.39286
17.3333	9.42857
17.7931	9.42857
18.9425	9.5
19.4023	9.5
