Adsorption isotherm of Nitrogen on C102H109N10O38.5Zn9
DOI: 10.1039/B818648k
Adsorbate Nitrogen: InChIKey IJGRMHOSHXDMSA-UHFFFAOYSA-N
Temperature: 77 K
Tabular data in the source: 0
pressure (bar)	uptake (cm3(STP)/g)
0.00477405	206.757
0.00716108	193.581
0.00954811	214.865
0.0119351	222.973
0.0334184	240.203
0.0381924	237.162
0.0525146	245.27
0.0811589	249.324
0.0978681	251.351
0.143222	253.378
0.179027	255.405
0.221994	255.405
0.253025	256.419
0.28883	257.432
0.365215	259.459
0.408182	259.459
0.443987	260.473
0.484566	260.473
0.525146	260.473
0.568112	260.473
0.606305	261.486
0.649271	261.486
0.689851	261.486
0.728043	262.5
0.768623	262.5
0.806815	263.514
0.847395	263.514
0.885587	264.527
0.930941	264.527
