Adsorption isotherm of Methane on C102H109N10O38.5Zn9
DOI: 10.1039/B818648k
Adsorbate Methane: InChIKey VNWKTOKETHGBQD-UHFFFAOYSA-N
Temperature: 298 K
Tabular data in the source: 0
pressure (bar)	uptake (cm3(STP)/g)
0.222717	1.22324
0.556793	7.33945
2.56125	24.4648
4.5657	39.1437
7.7951	55.0459
10.1336	64.8318
11.9154	70.3364
12.5835	73.3945
14.2539	78.2875
16.7038	81.9572
19.7105	88.0734
22.2717	92.9664
25.0557	95.4128
27.2829	98.4709
30.0668	102.141
32.1826	103.364
34.6325	105.199
37.0824	107.645
39.8664	109.48
42.0935	111.315
44.7661	111.315
47.216	113.15
49.7773	113.15
