Adsorption isotherm of Carbon Dioxide on C102H109N10O38.5Zn9
DOI: 10.1039/B818648k
Adsorbate Carbon Dioxide: InChIKey CURLTUGMZLYLDI-UHFFFAOYSA-N
Temperature: 298 K
Tabular data in the source: 0
pressure (bar)	uptake (cm3(STP)/g)
0.445434	9.78593
1.11359	29.9694
1.8931	45.8716
4.00891	90.5199
5.23385	106.422
6.68151	121.101
8.01782	130.275
9.02004	136.391
9.79955	140.061
11.2472	146.789
13.2517	152.905
16.0356	159.633
18.2628	163.303
20.49	166.361
22.8285	168.807
25.6125	172.477
28.6192	174.312
34.9666	178.593
38.6414	180.428
