Adsorption isotherm of Nitrogen on C102H109N10O38.5Zn9
DOI: 10.1039/B818648k
Adsorbate Nitrogen: InChIKey IJGRMHOSHXDMSA-UHFFFAOYSA-N
Temperature: 77 K
Tabular data in the source: 0
pressure (bar)	uptake (cm3(STP)/g)
0.00477405	0.00477405
0.00716108	263.514
0.0143222	268.581
0.0381924	287.838
0.0501276	290.878
0.100255	295.946
0.136061	298.986
0.17664	300
0.219606	302.027
0.255412	302.027
0.32941	303.041
0.362828	303.041
0.422504	303.041
0.460696	303.041
0.544242	303.041
0.665981	301.014
0.70656	298.986
0.742365	298.986
0.787719	297.973
0.821137	296.959
0.868878	297.973
0.904683	296.959
0.954811	295.946
