Adsorption isotherm of Hydrogen on C102H109N10O38.5Zn9
DOI: 10.1039/B818648k
Adsorbate Hydrogen: InChIKey UFHFLCQGNIYNRP-UHFFFAOYSA-N
Temperature: 87 K
Tabular data in the source: 0
pressure (bar)	uptake (mmol/g)
0.0456621	0.412912
0.182648	1.26817
0.273973	1.71051
0.319635	2.18242
0.502283	2.83112
0.730594	3.36175
0.821918	3.6861
0.958904	3.98089
1.09589	4.30517
1.27854	4.62938
1.46119	4.8946
1.6895	5.15975
1.87215	5.42497
2.10046	5.66062
2.37443	5.8962
2.69406	6.13172
2.96804	6.33781
3.33333	6.54376
3.65297	6.72028
4.06393	6.89666
4.47489	7.01405
4.88584	7.16094
4.97717	7.1903
5.38813	7.30769
5.84475	7.39551
6.25571	7.4834
6.66667	7.57129
7.12329	7.65911
8.08219	7.80519
8.53881	7.86351
9.08676	7.9217
9.54338	7.95053
9.90868	8.00898
10.3653	8.03781
10.8676	8.09607
11.3242	8.12489
11.7808	8.15372
12.1918	8.18261
12.5571	8.21157
13.0137	8.21089
13.4703	8.23972
14.0639	8.29784
14.5205	8.29717
14.6575	8.32646
15.1142	8.32579
16.0731	8.38337
16.5297	8.3827
16.758	8.41186
17.2146	8.41119
17.5342	8.44021
17.9909	8.43954
18.4475	8.46837
18.9041	8.46769
19.3607	8.46702
19.8174	8.49584
