Adsorption isotherm of Nitrogen on {[Zn4(BDC)4(BPDA)4]*5DMF*3H2O}
DOI: 10.1021/Ic302758g
Adsorbate Nitrogen: InChIKey IJGRMHOSHXDMSA-UHFFFAOYSA-N
Temperature: 77 K
Tabular data in the source: 0
pressure (bar)	uptake (mmol/g)
0.00658518	4.36843
0.0294675	4.94763
0.065221	5.1407
0.199654	6.10605
0.299764	6.49219
0.399875	6.29912
0.472812	6.10605
0.5529	6.49219
0.671602	6.49219
0.75312	6.49219
0.804605	6.49219
0.85752	7.26447
0.903285	9.38823
0.930458	11.7051
0.95477	16.5318
0.979082	25.7991
0.993384	30.8189
