Adsorption isotherm of Carbon Dioxide on {[Zn4(BDC)4(BPDA)4]*5DMF*3H2O}
DOI: 10.1021/Ic302758g
Adsorbate Carbon Dioxide: InChIKey CURLTUGMZLYLDI-UHFFFAOYSA-N
Temperature: 195 K
Tabular data in the source: 0
pressure (bar)	uptake (mmol/g)
0.00182509	5.56202
0.00182509	15.8855
0.00182509	38.0074
0.00182509	50.1007
0.0105646	58.9494
0.0586318	77.8267
0.113254	85.2007
0.211573	92.5746
0.323002	97.8839
0.475943	104.078
0.578632	107.617
0.685691	112.042
0.78838	115.286
0.838632	117.056
0.893254	119.416
0.945691	121.481
