Adsorption isotherm of Nitrogen on {[Zn4(BDC)4(BPDA)4]*5DMF*3H2O}
DOI: 10.1021/Ic302758g
Adsorbate Nitrogen: InChIKey IJGRMHOSHXDMSA-UHFFFAOYSA-N
Temperature: 298 K
Tabular data in the source: 0
pressure (bar)	uptake (mmol/g)
0.344537	0.0190827
1.33045	0.297956
2.16848	0.475421
4.18961	0.849364
5.12623	0.976125
6.21073	1.05218
8.82341	1.20429
12.2741	1.33739
14.0981	1.35641
17.8445	1.41979
21.4431	1.47683
24.4995	1.5212
27.8516	1.56556
31.3516	1.60993
34.9009	1.63528
