Adsorption isotherm of Carbon Dioxide on {[Zn4(BDC)4(BPDA)4]*5DMF*3H2O}
DOI: 10.1021/Ic302758g
Adsorbate Carbon Dioxide: InChIKey CURLTUGMZLYLDI-UHFFFAOYSA-N
Temperature: 298 K
Tabular data in the source: 0
pressure (bar)	uptake (mmol/g)
1.28116	1.80007
2.11918	2.14232
2.95721	2.34514
4.97834	2.63669
7.09806	2.8712
10.3516	3.09936
12.3234	3.18176
14.2459	3.21979
17.7459	3.28951
21.4431	3.35289
24.4995	3.3719
27.7037	3.43528
31.3516	3.44162
34.9502	3.42894
