Adsorption isotherm of Ethanol on MG-3
DOI: 10.1016/S1872-5805(15)60205-0
Article source: Figure 4b
Adsorbate Ethanol: InChIKey LFQSCWFLJHTTHZ-UHFFFAOYSA-N
Kind: experiment
Temperature: 303 K
Tabular data in the source: 0
pressure (bar)	uptake (cm3(STP)/g)
0.00167	5.69288
0.006082	16.779
0.009335	19.4757
0.012041	21.2734
0.014466	21.8727
0.017169	23.3708
0.019597	24.2697
0.022294	25.1685
0.025531	26.367
0.028494	26.9663
0.031191	27.8652
0.033616	28.4644
0.035851	36.8539
0.038197	29.6629
0.040432	38.0524
0.043047	30.8614
0.045276	38.6517
0.047892	31.4607
0.050126	39.8502
0.055173	33.8577
0.055514	41.0487
0.059295	42.8464
0.060567	35.6554
0.06468	43.7453
0.065686	36.8539
0.070339	45.2434
0.070539	38.3521
0.072762	45.5431
0.074857	40.1498
0.075455	46.1423
0.079988	42.5468
0.080043	47.9401
0.084041	44.6442
0.088182	55.4307
0.090021	51.236
0.094509	69.8127
