Adsorption isotherm of Ethanol on MG-4
DOI: 10.1016/S1872-5805(15)60205-0
Article source: Figure 4b
Adsorbate Ethanol: InChIKey LFQSCWFLJHTTHZ-UHFFFAOYSA-N
Kind: experiment
Temperature: 303 K
Tabular data in the source: 0
pressure (bar)	uptake (cm3(STP)/g)
0.006782	2.68657
0.008684	3.58209
0.011928	4.1791
0.014902	4.77612
0.017058	4.77612
0.019753	4.77612
0.022188	5.37313
0.025966	5.67164
0.030557	6.26866
0.033801	6.86567
0.034105	8.95522
0.039195	7.16418
0.03952	10.4478
0.044051	7.46269
0.044091	9.85075
0.048413	10.4478
0.049715	7.76119
0.054586	8.95522
0.054631	11.6418
0.058424	12.8358
0.061328	9.25373
0.063554	13.4328
0.066728	9.85075
0.068964	14.6269
0.072137	11.0448
0.074094	15.2239
0.076724	11.3433
0.079504	16.4179
0.081055	12.5373
0.085657	13.7313
0.085712	17.0149
0.090019	16.7164
0.095179	19.1045
