Adsorption isotherm of Benzene on MG-2
DOI: 10.1016/S1872-5805(15)60205-0
Article source: Figure 4a
Adsorbate Benzene: InChIKey UHOVQNZJYSORNB-UHFFFAOYSA-N
Kind: experiment
Temperature: 303 K
Tabular data in the source: 0
pressure (bar)	uptake (cm3(STP)/g)
0.000411	0.002604
0.001234	36.1194
0.004938	40.2985
0.010286	42.0896
0.018104	43.5821
0.028391	44.7761
0.029625	45.0746
0.0395	45.9701
0.052667	46.5672
0.063365	47.1642
0.065422	46.8657
0.080234	47.7612
0.086406	48.6567
0.103688	49.5522
0.1185	49.5522
0.122203	51.0448
0.132078	51.3433
0.134547	52.8358
0.138661	52.8358
0.139484	53.7313
0.145245	54.9254
