Adsorption isotherm of Benzene on MG-1
DOI: 10.1016/S1872-5805(15)60205-0
Article source: Figure 4a
Adsorbate Benzene: InChIKey UHOVQNZJYSORNB-UHFFFAOYSA-N
Kind: experiment
Temperature: 303 K
Tabular data in the source: 0
pressure (bar)	uptake (cm3(STP)/g)
0.009463	4.74055
0.017249	5.61809
0.02462	5.90161
0.031591	7.07808
0.032809	6.1836
0.036093	7.06961
0.040593	6.76374
0.043882	8.24454
0.048779	6.74833
0.050847	8.82623
0.059033	8.81082
0.060246	7.32155
0.066816	9.39096
0.068029	7.90169
0.070913	9.68065
0.075403	8.48261
0.079927	10.5559
0.084002	8.76382
0.088938	11.1337
0.095059	9.3378
0.102024	9.91949
0.103273	11.9989
0.110222	11.0936
0.11065	12.8772
0.117599	11.972
0.12048	13.4535
0.124976	12.8503
0.130728	14.9212
0.133172	13.727
0.139327	15.2024
0.140564	16.0923
0.145491	17.57
