Adsorption isotherm of Ethanol on MG-1
DOI: 10.1016/S1872-5805(15)60205-0
Article source: Figure 4b
Adsorbate Ethanol: InChIKey LFQSCWFLJHTTHZ-UHFFFAOYSA-N
Kind: experiment
Temperature: 303 K
Tabular data in the source: 0
pressure (bar)	uptake (cm3(STP)/g)
0.005719	5.97015
0.008163	7.76119
0.010867	8.65672
0.013564	8.95522
0.016535	9.55224
0.01896	9.55224
0.021927	9.85075
0.025164	10.1493
0.027895	13.7313
0.030296	11.3433
0.032719	11.0448
0.033288	14.0299
0.037875	14.6269
0.038387	11.9403
0.042699	11.9403
0.043268	14.9254
0.047855	15.5224
0.048912	13.4328
0.053257	16.7164
0.053499	14.0299
0.057299	16.7164
0.060784	14.9254
0.062703	18.209
0.065904	14.9254
0.06783	18.806
0.070761	15.5224
0.073228	19.7015
0.075902	17.6119
0.078627	20.597
0.080495	18.806
0.084825	20.597
0.084846	22.6866
0.089433	23.2836
0.093766	25.3731
