Adsorption isotherm of Benzene on MG-4
DOI: 10.1016/S1872-5805(15)60205-0
Article source: Figure 4a
Adsorbate Benzene: InChIKey UHOVQNZJYSORNB-UHFFFAOYSA-N
Kind: experiment
Temperature: 303 K
Tabular data in the source: 0
pressure (bar)	uptake (cm3(STP)/g)
0.009106	5.05742
0.021026	6.22893
0.04812	6.77476
0.060445	7.647
0.074389	7.02364
0.090398	7.2919
0.102308	7.86641
0.113388	7.84548
0.119968	8.72857
0.137209	8.9945
0.147883	9.27285
0.149534	9.86674
