Adsorption isotherm of Nitrogen on MIL-53
DOI: 10.1016/S1872-5805(15)60205-0
Article source: Figure 6a
Adsorbate Nitrogen: InChIKey IJGRMHOSHXDMSA-UHFFFAOYSA-N
Kind: experiment
Temperature: 77 K
Tabular data in the source: 0
pressure (bar)	uptake (cm3(STP)/g)
0	0
0.001264	234.066
0.002202	7.69231
0.002582	78.022
0.003086	171.429
0.003555	258.242
0.008066	293.407
0.012434	302.198
0.025421	306.593
0.05353	310.989
0.077313	314.286
0.103244	315.385
0.133503	317.582
0.157274	318.681
0.181051	320.879
0.202655	320.879
0.23074	320.879
0.254511	321.978
0.282604	323.077
0.308541	325.275
0.336632	326.374
0.360397	326.374
0.382001	326.374
0.405766	326.374
0.427377	327.473
0.464116	329.67
0.487876	328.571
0.511652	330.769
0.535418	330.769
0.559182	330.769
0.582953	331.868
0.611051	334.066
0.639137	334.066
0.667228	335.165
0.712604	336.264
0.734202	335.165
0.766621	337.363
0.786065	337.363
0.81199	337.363
0.857366	338.462
0.885457	339.56
0.911388	340.659
0.941635	340.659
0.965411	342.857
0.989194	346.154
1.00651	352.747
