Adsorption isotherm of Nitrogen on Alumina
DOI: 10.1016/S1872-5805(15)60205-0
Article source: Figure 6b
Adsorbate Nitrogen: InChIKey IJGRMHOSHXDMSA-UHFFFAOYSA-N
Kind: experiment
Temperature: 77 K
Tabular data in the source: 0
pressure (bar)	uptake (cm3(STP)/g)
0	0
0.0146	26.7062
0.047563	28.4866
0.070235	31.1573
0.08877	31.1573
0.113514	35.6083
0.144412	36.4985
0.173263	39.1691
0.214464	40.9496
0.247434	43.6202
0.278338	45.4006
0.311301	47.181
0.342211	49.8516
0.379294	51.632
0.414322	54.3027
0.426686	55.1929
0.439042	55.1929
0.447292	56.9733
0.46584	58.7537
0.46788	56.0831
0.496725	57.8635
0.498833	64.9852
0.517381	66.7656
0.523516	60.5341
0.540053	69.4362
0.554426	63.2047
0.558601	71.2166
0.579139	63.2047
0.579207	72.997
0.601886	76.5579
0.603878	66.7656
0.618379	79.2285
0.632722	68.546
0.651361	83.6795
0.661554	68.546
0.669926	88.1306
0.680236	89.911
0.690417	72.997
0.711183	97.9228
0.713096	76.5579
0.72357	102.374
0.73163	76.5579
0.735939	104.154
0.744006	79.2285
0.750386	108.605
0.754309	80.1187
0.762766	112.166
0.777213	116.617
0.779053	84.5697
0.787548	121.958
0.797606	87.2404
0.809976	89.0208
0.810263	130.861
0.818531	135.312
0.824416	92.5816
0.828871	141.543
0.836804	97.0326
0.843348	150.445
0.851256	102.374
0.855753	157.567
0.863644	106.825
0.872303	168.249
0.873965	110.386
0.886371	117.507
0.888846	178.042
0.89877	123.739
0.903354	191.395
0.909562	195.846
0.911182	131.751
0.948484	165.579
0.948912	227.893
0.977677	218.101
0.982065	257.27
1.00497	293.769
