Adsorption isotherm of Benzene on MG-3
DOI: 10.1016/S1872-5805(15)60205-0
Article source: Figure 4a
Adsorbate Benzene: InChIKey UHOVQNZJYSORNB-UHFFFAOYSA-N
Kind: experiment
Temperature: 303 K
Tabular data in the source: 0
pressure (bar)	uptake (cm3(STP)/g)
0.000586	11.4286
0.000753	22.2556
0.001731	32.4812
0.004383	44.812
0.005684	49.3233
0.009414	51.7293
0.016414	53.2331
0.024235	54.7368
0.034093	55.3383
0.04273	56.5414
0.045197	56.8421
0.045635	58.6466
0.049767	60.4511
0.057522	57.7444
0.063328	61.6541
0.071494	58.9474
0.073602	62.5564
0.081357	59.8496
0.090866	64.3609
0.099857	61.9549
0.107314	66.4662
0.114249	63.7594
0.121295	68.2707
0.126607	66.7669
0.127875	69.1729
0.134017	68.2707
0.13487	70.3759
0.138969	70.0752
0.140224	71.5789
0.146393	72.4812
