Adsorption isotherm of Ethanol on MG-2
DOI: 10.1016/S1872-5805(15)60205-0
Article source: Figure 4b
Adsorbate Ethanol: InChIKey LFQSCWFLJHTTHZ-UHFFFAOYSA-N
Kind: experiment
Temperature: 303 K
Tabular data in the source: 0
pressure (bar)	uptake (cm3(STP)/g)
0.001365	6.24144
0.001941	17.8383
0.002253	30.6255
0.004172	41.6237
0.006074	47.8636
0.009046	52.3161
0.011202	54.0943
0.013355	54.9803
0.01524	55.8671
0.017393	56.7531
0.020084	57.6376
0.023312	58.5205
0.027079	59.6993
0.031921	60.875
0.033004	63.2511
0.037846	64.4268
0.039719	62.0423
0.043491	64.708
0.045368	63.2157
0.050476	63.4984
0.051022	66.1734
0.056392	64.3737
0.060701	67.0379
0.06446	65.8375
0.07065	68.199
0.07414	66.9994
0.078716	69.068
0.083016	68.7583
0.087594	71.4218
0.088666	70.5265
0.09514	77.3481
