Adsorption isotherm of Carbon Dioxide on H3[(Cu4Cl)3(BTTri)8]
DOI: 10.1021/Ja903411w
Adsorbate Carbon Dioxide: InChIKey CURLTUGMZLYLDI-UHFFFAOYSA-N
Temperature: 298 K
Tabular data in the source: 0
pressure (bar)	uptake (wt%)
0.0336523	0.649212
0.11493	2.30972
0.232913	4.53829
0.345652	6.54837
0.461014	8.38367
0.573753	10.219
0.686493	11.9232
0.799232	13.4089
0.911972	14.9383
1.08501	17.2106
