Adsorption isotherm of Carbon Dioxide on H3[(Cu4Cl)3(BTTri)8(en)5]*1.5PhMe
DOI: 10.1021/Ja903411w
Adsorbate Carbon Dioxide: InChIKey CURLTUGMZLYLDI-UHFFFAOYSA-N
Temperature: 298 K
Tabular data in the source: 0
pressure (bar)	uptake (wt%)
0.00481196	0.0374478
0.0100557	0.780305
0.0284086	1.34837
0.117551	2.13493
0.290593	3.05257
0.458392	3.75173
0.628812	4.3635
0.799232	4.93157
0.972274	5.41224
1.08764	5.76182
