Adsorption isotherm of Hydrogen on H3[(Cu4Cl)3(BTTri)8]
DOI: 10.1021/Ja903411w
Adsorbate Hydrogen: InChIKey UFHFLCQGNIYNRP-UHFFFAOYSA-N
Temperature: 77 K
Tabular data in the source: 0
pressure (bar)	uptake (mmol/g)
0.0100557	0.34333
0.0624926	1.61056
0.125417	2.6156
0.259131	4.14501
0.392846	5.23745
0.529182	6.1114
0.662896	6.72316
0.791367	7.29123
0.988005	8.03409
1.16891	8.51476
