Adsorption isotherm of Nitrogen on H3[(Cu4Cl)3(BTTri)8]
DOI: 10.1021/Ja903411w
Adsorbate Nitrogen: InChIKey IJGRMHOSHXDMSA-UHFFFAOYSA-N
Temperature: 77 K
Tabular data in the source: 0
pressure (bar)	uptake (mmol/g)
0.00219011	1.21728
0.00219011	8.12148
0.0100557	17.9971
0.0467615	19.1332
0.0965767	19.745
0.201451	20.0946
0.311568	20.4005
0.49772	20.7501
0.801854	21.0122
0.951299	21.2307
