Adsorption isotherm of Nitrogen on H3[(Cu4Cl)3(BTTri)8]
DOI: 10.1021/Ja903411w
Adsorbate Nitrogen: InChIKey IJGRMHOSHXDMSA-UHFFFAOYSA-N
Temperature: 298 K
Tabular data in the source: 0
pressure (bar)	uptake (wt%)
0.07298	0.0811453
0.167367	0.124843
0.264375	0.16854
0.366627	0.299633
0.523938	0.430725
0.594728	0.474423
0.728442	0.561818
0.856913	0.561818
0.988005	0.649212
1.08239	0.736607
