Adsorption isotherm of Nitrogen on H3[(Cu4Cl)3(BTTri)8(en)5]*1.5PhMe
DOI: 10.1021/Ja903411w
Adsorbate Nitrogen: InChIKey IJGRMHOSHXDMSA-UHFFFAOYSA-N
Temperature: 298 K
Tabular data in the source: 0
pressure (bar)	uptake (wt%)
0.0467615	0.0811453
0.169988	0.124843
0.295837	0.16854
0.42693	0.16854
0.52656	0.212238
0.720577	0.212238
0.859535	0.212238
0.990627	0.255935
1.08501	0.34333
