Adsorption isotherm of Carbon Dioxide on H3[(Cu4Cl)3(BTTri)8]
DOI: 10.1021/Ja903411w
Adsorbate Carbon Dioxide: InChIKey CURLTUGMZLYLDI-UHFFFAOYSA-N
Temperature: 195 K
Tabular data in the source: 0
pressure (bar)	uptake (mmol/g)
0.00481196	0.0374478
0.00743381	4.75678
0.0284086	6.54837
0.0520052	10.6559
0.0860893	15.419
0.0991985	16.6425
0.125417	17.429
0.219804	18.4341
0.481988	19.5702
0.662896	20.0509
