Adsorption isotherm of Nitrogen on SARM 2005
DOI: 10.1007/s10450-019-00055-z
Article source: Figure 1
Adsorbate Nitrogen: InChIKey IJGRMHOSHXDMSA-UHFFFAOYSA-N
Kind: experiment
Temperature: 77 K
Tabular data in the source: 0
pressure (bar)	uptake (cm3(STP)/g)
0.030417	0.93517
0.058932	1.0119
0.085546	1.09492
0.114062	1.14797
0.140676	1.22273
0.171093	1.28197
0.199608	1.33352
0.228124	1.39813
0.254738	1.45436
0.283254	1.52482
0.309868	1.57369
0.344087	1.64993
0.372602	1.68943
0.397316	1.75737
0.428683	1.83526
0.454347	1.90156
0.483813	1.97025
0.509477	2.03338
0.537992	2.14032
0.562705	2.19156
0.58932	2.26179
0.614033	2.35275
0.640648	2.44736
0.661559	2.57608
0.68247	2.71156
0.705283	2.82061
0.720491	2.95727
0.739501	3.07619
0.75566	3.26361
0.771819	3.43525
0.787027	3.63021
0.796532	3.8666
0.808889	4.03798
0.819345	4.25035
0.826949	4.45628
0.836454	4.74646
0.840256	4.97643
0.849761	5.21754
0.855464	5.51364
0.861167	5.82654
0.868772	6.10884
0.876376	6.50663
0.88398	6.87589
0.891584	7.2661
0.90299	7.80052
0.906792	8.30846
0.914396	8.77997
0.923902	9.20537
0.937209	9.80479
0.944813	10.3612
0.95812	10.7779
0.974279	11.6163
0.003802	0.601325
0.005703	0.693032
0.015208	0.767846
0.020911	0.82432
0.032318	0.877997
0.05608	0.980479
0.079843	1.05259
0.109309	1.13896
0.134973	1.21312
0.163489	1.28197
0.192004	1.34408
0.219569	1.41477
0.249035	1.47748
0.27565	1.54906
0.304165	1.61136
0.334582	1.67616
0.363097	1.72987
0.389712	1.81368
0.417277	1.8792
0.444841	1.94708
0.472406	2.02538
0.49807	2.10683
0.525635	2.18294
0.5532	2.26179
0.577914	2.35275
0.602627	2.44736
0.62639	2.53577
0.649202	2.66913
0.671064	2.78744
0.690075	2.91099
0.707184	3.05203
0.723343	3.25077
0.7376	3.43525
0.750908	3.64455
0.758512	3.8666
0.766116	4.05393
0.769918	4.38655
0.781324	4.59908
0.788928	4.82191
0.794631	5.21754
0.804136	5.69032
0.813642	6.06086
0.826949	6.71514
0.838355	7.20903
0.849761	7.80052
0.863068	8.2432
0.872574	8.99015
0.887782	9.50035
0.90299	10.119
0.918198	10.6932
0.937209	11.3001
0.948615	11.4797
0.960021	11.6622
