Adsorption isotherm of Hg(II) on Wastepaper nanocomposite
DOI: 10.1016/j.micromeso.2017.03.032
Article source: Figure 8
Adsorbate Hg(II): InChIKey BQPIGGFYSBELGY-UHFFFAOYSA-N
Kind: experiment
Temperature: 303 K
Tabular data in the source: 0
pressure (bar)	uptake (mmol/g)
1.01325	0.113186
1.01325	0.121115
1.01325	0.128164
1.01325	0.131058
1.01325	0.138409
1.01325	0.140104
1.01325	0.143278
1.01325	0.143606
1.01325	0.14377
