Adsorption isotherm of Lead(II) Ion on Wastepaper nanocomposite
DOI: 10.1016/j.micromeso.2017.03.032
Article source: Figure 8
Adsorbate Lead(II) Ion: InChIKey RVPVRDXYQKGNMQ-UHFFFAOYSA-N
Kind: experiment
Temperature: 323 K
Tabular data in the source: 0
pressure (bar)	uptake (mmol/g)
1.01325	0.08084
1.01325	0.16501
1.01325	0.19301
1.01325	0.21426
1.01325	0.2576
1.01325	0.27007
1.01325	0.28924
1.01325	0.29914
1.01325	0.30809
