Adsorption isotherm of Lead(II) Ion on Bentonite
DOI: 10.1016/j.micromeso.2017.03.032
Article source: Figure 8
Adsorbate Lead(II) Ion: InChIKey RVPVRDXYQKGNMQ-UHFFFAOYSA-N
Kind: experiment
Temperature: 303 K
Tabular data in the source: 0
pressure (bar)	uptake (mmol/g)
1.01325	0.015881
1.01325	0.040179
1.01325	0.104296
1.01325	0.142859
1.01325	0.151335
1.01325	0.155812
1.01325	0.159214
1.01325	0.160348
1.01325	0.161422
