Adsorption isotherm of Lead(II) Ion on Wastepaper nanocomposite
DOI: 10.1016/j.micromeso.2017.03.032
Article source: Figure 8
Adsorbate Lead(II) Ion: InChIKey RVPVRDXYQKGNMQ-UHFFFAOYSA-N
Kind: experiment
Temperature: 303 K
Tabular data in the source: 0
pressure (bar)	uptake (mmol/g)
1.01325	0.09146
1.01325	0.16331
1.01325	0.17798
1.01325	0.21592
1.01325	0.24221
1.01325	0.25249
1.01325	0.26715
1.01325	0.26799
1.01325	0.27035
