Adsorption isotherm of Lead(II) Ion on NCC
DOI: 10.1016/j.micromeso.2017.03.032
Article source: Figure 8
Adsorbate Lead(II) Ion: InChIKey RVPVRDXYQKGNMQ-UHFFFAOYSA-N
Kind: experiment
Temperature: 323 K
Tabular data in the source: 0
pressure (bar)	uptake (mmol/g)
1.01325	0.18418
1.01325	0.18713
1.01325	0.188221
1.01325	0.195438
1.01325	0.205853
1.01325	0.208308
1.01325	0.218102
1.01325	0.219291
1.01325	0.22001
