Adsorption isotherm of Hg(II) on Bentonite
DOI: 10.1016/j.micromeso.2017.03.032
Article source: Figure 8
Adsorbate Hg(II): InChIKey BQPIGGFYSBELGY-UHFFFAOYSA-N
Kind: experiment
Temperature: 303 K
Tabular data in the source: 0
pressure (bar)	uptake (mmol/g)
1.01325	0.031219
1.01325	0.055167
1.01325	0.070156
1.01325	0.07907
1.01325	0.081315
1.01325	0.083053
1.01325	0.084175
1.01325	0.084511
1.01325	0.08524
