Adsorption isotherm of Lead(II) Ion on Bentonite
DOI: 10.1016/j.micromeso.2017.03.032
Article source: Figure 8
Adsorbate Lead(II) Ion: InChIKey RVPVRDXYQKGNMQ-UHFFFAOYSA-N
Kind: experiment
Temperature: 313 K
Tabular data in the source: 0
pressure (bar)	uptake (mmol/g)
1.01325	0.022003
1.01325	0.022755
1.01325	0.031292
1.01325	0.083229
1.01325	0.121904
1.01325	0.141242
1.01325	0.143271
1.01325	0.144107
1.01325	0.145599
