Adsorption isotherm of Hg(II) on NCC
DOI: 10.1016/j.micromeso.2017.03.032
Article source: Figure 8
Adsorbate Hg(II): InChIKey BQPIGGFYSBELGY-UHFFFAOYSA-N
Kind: experiment
Temperature: 323 K
Tabular data in the source: 0
pressure (bar)	uptake (mmol/g)
1.01325	0.105576
1.01325	0.114234
1.01325	0.121454
1.01325	0.131888
1.01325	0.1407
1.01325	0.147551
1.01325	0.152119
1.01325	0.154511
1.01325	0.154974
