Adsorption isotherm of Lead(II) Ion on NCC
DOI: 10.1016/j.micromeso.2017.03.032
Article source: Figure 8
Adsorbate Lead(II) Ion: InChIKey RVPVRDXYQKGNMQ-UHFFFAOYSA-N
Kind: experiment
Temperature: 303 K
Tabular data in the source: 0
pressure (bar)	uptake (mmol/g)
1.01325	0.183957
1.01325	0.187421
1.01325	0.18801
1.01325	0.19161
1.01325	0.198101
1.01325	0.198552
1.01325	0.206701
1.01325	0.207381
1.01325	0.207988
