Adsorption isotherm of Hg(II) on Wastepaper nanocomposite
DOI: 10.1016/j.micromeso.2017.03.032
Article source: Figure 8
Adsorbate Hg(II): InChIKey BQPIGGFYSBELGY-UHFFFAOYSA-N
Kind: experiment
Temperature: 323 K
Tabular data in the source: 0
pressure (bar)	uptake (mmol/g)
1.01325	0.140002
1.01325	0.148279
1.01325	0.153684
1.01325	0.160649
1.01325	0.165006
1.01325	0.16814
1.01325	0.171879
1.01325	0.17618
1.01325	0.176965
