Adsorption isotherm of Lead(II) Ion on NCC
DOI: 10.1016/j.micromeso.2017.03.032
Article source: Figure 8
Adsorbate Lead(II) Ion: InChIKey RVPVRDXYQKGNMQ-UHFFFAOYSA-N
Kind: experiment
Temperature: 313 K
Tabular data in the source: 0
pressure (bar)	uptake (mmol/g)
1.01325	0.183343
1.01325	0.189395
1.01325	0.191107
1.01325	0.19408
1.01325	0.203104
1.01325	0.204293
1.01325	0.215372
1.01325	0.216214
1.01325	0.217032
