Adsorption isotherm of Hg(II) on Bentonite
DOI: 10.1016/j.micromeso.2017.03.032
Article source: Figure 8
Adsorbate Hg(II): InChIKey BQPIGGFYSBELGY-UHFFFAOYSA-N
Kind: experiment
Temperature: 313 K
Tabular data in the source: 0
pressure (bar)	uptake (mmol/g)
1.01325	0.030142
1.01325	0.0354
1.01325	0.048077
1.01325	0.055155
1.01325	0.057293
1.01325	0.059394
1.01325	0.059661
1.01325	0.06005
1.01325	0.060191
