Adsorption isotherm of Lead(II) Ion on Wastepaper nanocomposite
DOI: 10.1016/j.micromeso.2017.03.032
Article source: Figure 8
Adsorbate Lead(II) Ion: InChIKey RVPVRDXYQKGNMQ-UHFFFAOYSA-N
Kind: experiment
Temperature: 313 K
Tabular data in the source: 0
pressure (bar)	uptake (mmol/g)
1.01325	0.0922
1.01325	0.16704
1.01325	0.1894
1.01325	0.21416
1.01325	0.23049
1.01325	0.24628
1.01325	0.26928
1.01325	0.28052
1.01325	0.29001
