Adsorption isotherm of Hg(II) on NCC
DOI: 10.1016/j.micromeso.2017.03.032
Article source: Figure 8
Adsorbate Hg(II): InChIKey BQPIGGFYSBELGY-UHFFFAOYSA-N
Kind: experiment
Temperature: 313 K
Tabular data in the source: 0
pressure (bar)	uptake (mmol/g)
1.01325	0.084894
1.01325	0.098077
1.01325	0.106174
1.01325	0.114389
1.01325	0.120317
1.01325	0.126537
1.01325	0.129454
1.01325	0.131205
1.01325	0.131691
