Adsorption isotherm of Hg(II) on NCC
DOI: 10.1016/j.micromeso.2017.03.032
Article source: Figure 8
Adsorbate Hg(II): InChIKey BQPIGGFYSBELGY-UHFFFAOYSA-N
Kind: experiment
Temperature: 303 K
Tabular data in the source: 0
pressure (bar)	uptake (mmol/g)
1.01325	0.071576
1.01325	0.08461
1.01325	0.09116
1.01325	0.095631
1.01325	0.100653
1.01325	0.102983
1.01325	0.106842
1.01325	0.107026
1.01325	0.107332
