Adsorption isotherm of Lead(II) Ion on Bentonite
DOI: 10.1016/j.micromeso.2017.03.032
Article source: Figure 8
Adsorbate Lead(II) Ion: InChIKey RVPVRDXYQKGNMQ-UHFFFAOYSA-N
Kind: experiment
Temperature: 323 K
Tabular data in the source: 0
pressure (bar)	uptake (mmol/g)
1.01325	0.016358
1.01325	0.032954
1.01325	0.051699
1.01325	0.09109
1.01325	0.116957
1.01325	0.125862
1.01325	0.131356
1.01325	0.134626
1.01325	0.135077
