Adsorption isotherm of Hg(II) on Wastepaper nanocomposite
DOI: 10.1016/j.micromeso.2017.03.032
Article source: Figure 8
Adsorbate Hg(II): InChIKey BQPIGGFYSBELGY-UHFFFAOYSA-N
Kind: experiment
Temperature: 313 K
Tabular data in the source: 0
pressure (bar)	uptake (mmol/g)
1.01325	0.129312
1.01325	0.138315
1.01325	0.14122
1.01325	0.151764
1.01325	0.153187
1.01325	0.155097
1.01325	0.159142
1.01325	0.159577
1.01325	0.159619
