Adsorption isotherm of Hg(II) on Bentonite
DOI: 10.1016/j.micromeso.2017.03.032
Article source: Figure 8
Adsorbate Hg(II): InChIKey BQPIGGFYSBELGY-UHFFFAOYSA-N
Kind: experiment
Temperature: 323 K
Tabular data in the source: 0
pressure (bar)	uptake (mmol/g)
1.01325	0.020014
1.01325	0.024961
1.01325	0.029471
1.01325	0.037137
1.01325	0.04014
1.01325	0.040565
1.01325	0.041308
1.01325	0.041274
1.01325	0.041557
