Adsorption isotherm of R-134A on Maxsorb III
DOI: 10.1021/je3008099
Article source: Figure 10
Adsorbate R-134A: InChIKey LVGUZGTVOIAKKC-UHFFFAOYSA-N
Kind: experiment
Temperature: 318 K
Tabular data in the source: 0
pressure (bar)	uptake (g/g)
0.722063	0.805513
1.02961	0.95559
1.43075	1.09342
1.85864	1.20061
2.31996	1.30168
2.80134	1.40582
3.31614	1.49464
3.86437	1.57427
4.45272	1.67228
5.09456	1.75804
5.71633	1.82542
