Adsorption isotherm of N-propane on Maxsorb III
DOI: 10.1021/je3008099
Article source: Figure 11
Adsorbate N-propane: InChIKey ATUOYWHBWRKTHZ-UHFFFAOYSA-N
Kind: experiment
Temperature: 308 K
Tabular data in the source: 0
pressure (bar)	uptake (g/g)
1.0582	0.500502
2.2963	0.639198
3.37566	0.724411
5.32275	0.806965
7.49206	0.828345
