Adsorption isotherm of R-507A on ACF-A20
DOI: 10.1021/je3008099
Article source: Figure 15
Adsorbate R-507A: InChIKey NIST-ISODB-F695EC8459FCB3A2077E
Kind: experiment
Temperature: 308 K
Tabular data in the source: 0
pressure (bar)	uptake (g/g)
0.105488	0.136538
0.458372	0.307692
1.12334	0.484615
2.19102	0.630769
3.42722	0.732692
4.63705	0.8
5.72971	0.851923
6.78329	0.898077
7.70673	0.930769
8.78617	0.963462
9.82653	0.988462
11.166	1.01731
