Adsorption isotherm of R-410A on Maxsorb III
DOI: 10.1021/je3008099
Article source: Figure 12
Adsorbate R-410A: InChIKey NIST-ISODB-CC1685D28E6FD63A280C
Kind: experiment
Temperature: 318 K
Tabular data in the source: 0
pressure (bar)	uptake (g/g)
0.477099	0.128901
1.18321	0.310177
2.04198	0.487469
2.8626	0.632559
3.9313	0.797835
5.53435	0.975328
6.75573	1.08833
8.53053	1.22563
10.5153	1.37103
12.7481	1.51247
