Adsorption isotherm of R-410A on Maxsorb III
DOI: 10.1021/je3008099
Article source: Figure 12
Adsorbate R-410A: InChIKey NIST-ISODB-CC1685D28E6FD63A280C
Kind: experiment
Temperature: 298 K
Tabular data in the source: 0
pressure (bar)	uptake (g/g)
0.877863	0.479109
1.50763	0.720726
2.44275	0.96645
3.47328	1.16793
4.67557	1.36142
6.14504	1.56704
7.95802	1.77276
10.4008	1.91426
13.0916	1.99546
