Adsorption isotherm of R-507A on ACF-A20
DOI: 10.1021/je3008099
Article source: Figure 15
Adsorbate R-507A: InChIKey NIST-ISODB-F695EC8459FCB3A2077E
Kind: experiment
Temperature: 318 K
Tabular data in the source: 0
pressure (bar)	uptake (g/g)
0.261126	0.101923
0.613364	0.213462
1.34311	0.369231
2.3976	0.498077
3.63378	0.598077
4.62247	0.653846
5.6761	0.703846
6.70364	0.746154
7.75702	0.773077
8.91449	0.807692
10.189	0.844231
11.4114	0.873077
