Adsorption isotherm of R-134A on Maxsorb III
DOI: 10.1021/je3008099
Article source: Figure 10
Adsorbate R-134A: InChIKey LVGUZGTVOIAKKC-UHFFFAOYSA-N
Kind: experiment
Temperature: 278 K
Tabular data in the source: 0
pressure (bar)	uptake (g/g)
0.207259	0.949464
0.608405	1.43338
1.1767	1.85299
1.84527	2.09188
2.63419	2.1807
3.0086	2.21133
