Adsorption isotherm of R-507A on Maxsorb III
DOI: 10.1021/je3008099
Article source: Figure 13
Adsorbate R-507A: InChIKey NIST-ISODB-F695EC8459FCB3A2077E
Kind: experiment
Temperature: 298 K
Tabular data in the source: 0
pressure (bar)	uptake (g/g)
0.125523	0.28626
0.488145	0.675573
1.24128	1.03435
2.42678	1.30534
3.57043	1.48473
4.75593	1.64122
6.22036	1.78244
7.97768	1.8855
9.47001	1.93511
10.6834	1.96947
