Adsorption isotherm of R-507A on ACF-A20
DOI: 10.1021/je3008099
Article source: Figure 15
Adsorbate R-507A: InChIKey NIST-ISODB-F695EC8459FCB3A2077E
Kind: experiment
Temperature: 278 K
Tabular data in the source: 0
pressure (bar)	uptake (g/g)
0.067276	0.209615
0.252084	0.467308
0.709663	0.701923
1.50477	0.890385
2.50748	1.04038
3.78271	1.14423
5.14822	1.18077
6.31853	1.2
