Adsorption isotherm of N-propane on Maxsorb III
DOI: 10.1021/je3008099
Article source: Figure 11
Adsorbate N-propane: InChIKey ATUOYWHBWRKTHZ-UHFFFAOYSA-N
Kind: experiment
Temperature: 318 K
Tabular data in the source: 0
pressure (bar)	uptake (g/g)
0.507937	0.380827
1.53439	0.527193
2.59259	0.608587
3.60847	0.675973
5.42857	0.75727
7.64021	0.797753
