Adsorption isotherm of R-134A on ACF-A20
DOI: 10.1021/je3008099
Article source: Figure 14
Adsorbate R-134A: InChIKey LVGUZGTVOIAKKC-UHFFFAOYSA-N
Kind: experiment
Temperature: 293 K
Tabular data in the source: 0
pressure (bar)	uptake (g/g)
0.18018	0.30222
0.423423	0.554102
0.864865	0.784469
1.63964	1.00056
2.57658	1.16875
3.94595	1.24596
5.14414	1.28234
