Adsorption isotherm of N-propane on Maxsorb III
DOI: 10.1021/je3008099
Article source: Figure 11
Adsorbate N-propane: InChIKey ATUOYWHBWRKTHZ-UHFFFAOYSA-N
Kind: experiment
Temperature: 348 K
Tabular data in the source: 0
pressure (bar)	uptake (g/g)
0.31746	0.182125
1.10053	0.319605
2.04233	0.403561
2.9418	0.458224
3.83069	0.501423
4.85714	0.542056
7.25926	0.615636
