Adsorption isotherm of R-134A on Maxsorb III
DOI: 10.1021/je3008099
Article source: Figure 10
Adsorbate R-134A: InChIKey LVGUZGTVOIAKKC-UHFFFAOYSA-N
Kind: experiment
Temperature: 298 K
Tabular data in the source: 0
pressure (bar)	uptake (g/g)
0.554919	1.00766
0.842407	1.16998
1.19675	1.32312
1.58453	1.45789
1.99236	1.58959
2.42693	1.71516
2.89494	1.82848
3.39637	1.90812
3.95129	1.98469
4.55969	2.01225
5.14804	2.03675
