Adsorption isotherm of R-134A on Maxsorb III
DOI: 10.1021/je3008099
Article source: Figure 10
Adsorbate R-134A: InChIKey LVGUZGTVOIAKKC-UHFFFAOYSA-N
Kind: experiment
Temperature: 308 K
Tabular data in the source: 0
pressure (bar)	uptake (g/g)
0.635148	0.900459
0.922636	1.05666
1.31041	1.20368
1.72493	1.317
2.1595	1.43951
2.61414	1.54977
3.10888	1.65697
3.63706	1.74273
4.19198	1.8438
4.81375	1.90505
5.42216	1.951
