Adsorption isotherm of R-134A on Maxsorb III
DOI: 10.1021/je3008099
Article source: Figure 10
Adsorbate R-134A: InChIKey LVGUZGTVOIAKKC-UHFFFAOYSA-N
Kind: experiment
Temperature: 348 K
Tabular data in the source: 0
pressure (bar)	uptake (g/g)
0.976122	0.569678
1.34384	0.683002
1.7851	0.805513
2.28653	0.903522
2.79465	0.98928
3.34957	1.07198
3.93123	1.15161
4.54632	1.22511
5.22159	1.29862
5.95033	1.37213
6.65234	1.44564
