Adsorption isotherm of R-134A on Maxsorb III
DOI: 10.1021/je3008099
Article source: Figure 10
Adsorbate R-134A: InChIKey LVGUZGTVOIAKKC-UHFFFAOYSA-N
Kind: experiment
Temperature: 328 K
Tabular data in the source: 0
pressure (bar)	uptake (g/g)
0.802292	0.725881
1.13658	0.85758
1.55778	0.995406
2.00573	1.09648
2.48042	1.19449
2.99522	1.28637
3.5234	1.36907
4.09838	1.44257
4.72015	1.53139
5.38873	1.61409
6.03056	1.69066
