Adsorption isotherm of R-134A on ACF-A20
DOI: 10.1021/je3008099
Article source: Figure 14
Adsorbate R-134A: InChIKey LVGUZGTVOIAKKC-UHFFFAOYSA-N
Kind: experiment
Temperature: 328 K
Tabular data in the source: 0
pressure (bar)	uptake (g/g)
0.243243	0.062201
0.801802	0.22488
1.56757	0.368421
2.48649	0.495215
3.46847	0.586124
4.37838	0.655502
5.22523	0.715311
5.79279	0.727273
6.85586	0.803828
