Adsorption isotherm of R-507A on ACF-A20
DOI: 10.1021/je3008099
Article source: Figure 15
Adsorbate R-507A: InChIKey NIST-ISODB-F695EC8459FCB3A2077E
Kind: experiment
Temperature: 298 K
Tabular data in the source: 0
pressure (bar)	uptake (g/g)
0.263689	0.338462
0.864364	0.580769
1.9975	0.769231
3.16887	0.886538
4.28786	0.969231
5.52379	1.04615
6.22612	1.07115
6.94139	1.09038
7.38353	1.1
7.89068	1.10962
8.98294	1.125
10.0102	1.13846
11.1153	1.14231
