Adsorption isotherm of N-propane on Maxsorb III
DOI: 10.1021/je3008099
Article source: Figure 11
Adsorbate N-propane: InChIKey ATUOYWHBWRKTHZ-UHFFFAOYSA-N
Kind: experiment
Temperature: 278 K
Tabular data in the source: 0
pressure (bar)	uptake (g/g)
0.126984	0.350302
0.761905	0.587164
1.65079	0.74756
2.55026	0.827701
3.36508	0.844157
4.03175	0.858085
