Adsorption isotherm of R-134A on Maxsorb III
DOI: 10.1021/je3008099
Article source: Figure 10
Adsorbate R-134A: InChIKey LVGUZGTVOIAKKC-UHFFFAOYSA-N
Kind: experiment
Temperature: 338 K
Tabular data in the source: 0
pressure (bar)	uptake (g/g)
0.895893	0.640123
1.23687	0.771822
1.66476	0.897397
2.14613	0.998469
2.64088	1.08729
3.16237	1.17611
3.73066	1.25268
4.33238	1.32925
4.96753	1.40888
5.67622	1.48545
6.35148	1.56202
