Adsorption isotherm of R-134A on ACF-A20
DOI: 10.1021/je3008099
Article source: Figure 14
Adsorbate R-134A: InChIKey LVGUZGTVOIAKKC-UHFFFAOYSA-N
Kind: experiment
Temperature: 318 K
Tabular data in the source: 0
pressure (bar)	uptake (g/g)
0.225225	0.165072
0.666667	0.337321
1.32432	0.497608
2.13514	0.607656
2.97297	0.700957
3.9009	0.782297
4.82883	0.858852
5.8018	0.913876
6.75676	0.964115
