Adsorption isotherm of R-410A on Maxsorb III
DOI: 10.1021/je3008099
Article source: Figure 12
Adsorbate R-410A: InChIKey NIST-ISODB-CC1685D28E6FD63A280C
Kind: experiment
Temperature: 288 K
Tabular data in the source: 0
pressure (bar)	uptake (g/g)
0.248092	0.229443
0.801527	0.511281
1.39313	0.764961
2.29008	1.02677
3.47328	1.27256
4.61832	1.4781
6.0687	1.69982
8.18702	1.90159
11.4122	2.01513
