Adsorption isotherm of R-134A on Maxsorb II
DOI: 10.1021/je3008099
Article source: Figure 5
Adsorbate R-134A: InChIKey LVGUZGTVOIAKKC-UHFFFAOYSA-N
Kind: experiment
Temperature: 293 K
Tabular data in the source: 0
pressure (bar)	uptake (g/g)
0.317554	0.863248
0.66638	1.1453
1.06654	1.34188
1.57614	1.50855
2.20954	1.70085
2.99628	1.82051
4.02374	1.88462
4.82537	1.9188
