Adsorption isotherm of R-410A on Maxsorb III
DOI: 10.1021/je3008099
Article source: Figure 12
Adsorbate R-410A: InChIKey NIST-ISODB-CC1685D28E6FD63A280C
Kind: experiment
Temperature: 278 K
Tabular data in the source: 0
pressure (bar)	uptake (g/g)
0.667939	0.53539
1.24046	0.837355
2.11832	1.14745
3.05344	1.40525
4.10305	1.64295
5.13359	1.84041
6.64122	1.98569
8.49237	2.06264
8.98855	2.08289
