Adsorption isotherm of R-410A on Maxsorb III
DOI: 10.1021/je3008099
Article source: Figure 12
Adsorbate R-410A: InChIKey NIST-ISODB-CC1685D28E6FD63A280C
Kind: experiment
Temperature: 328 K
Tabular data in the source: 0
pressure (bar)	uptake (g/g)
0.610687	0.120888
1.45038	0.25391
2.21374	0.366791
3.11069	0.479708
4.19847	0.604748
5.49618	0.725821
6.94656	0.84291
8.77863	0.952053
11.0687	1.08144
13.2443	1.19068
