Adsorption isotherm of R-507A on Maxsorb III
DOI: 10.1021/je3008099
Article source: Figure 13
Adsorbate R-507A: InChIKey NIST-ISODB-F695EC8459FCB3A2077E
Kind: experiment
Temperature: 278 K
Tabular data in the source: 0
pressure (bar)	uptake (g/g)
0.069735	0.312977
0.292887	0.78626
0.906555	1.20611
1.95258	1.5458
4.1841	1.94656
5.3417	2.00382
6.15063	2.03435
6.98745	2.06489
