Adsorption isotherm of R-134A on ACF-A20
DOI: 10.1021/je3008099
Article source: Figure 14
Adsorbate R-134A: InChIKey LVGUZGTVOIAKKC-UHFFFAOYSA-N
Kind: experiment
Temperature: 308 K
Tabular data in the source: 0
pressure (bar)	uptake (g/g)
0.225225	0.188995
0.603604	0.409091
1.20721	0.617225
1.99099	0.770335
2.82883	0.882775
3.79279	0.988038
4.76577	1.06699
5.72973	1.12201
