Adsorption isotherm of N-propane on Maxsorb III
DOI: 10.1021/je3008099
Article source: Figure 11
Adsorbate N-propane: InChIKey ATUOYWHBWRKTHZ-UHFFFAOYSA-N
Kind: experiment
Temperature: 338 K
Tabular data in the source: 0
pressure (bar)	uptake (g/g)
0.37037	0.226704
1.22751	0.388379
2.87831	0.510461
3.94709	0.56765
4.25397	0.575254
4.88889	0.599377
6.92063	0.66536
