Adsorption isotherm of R-134A on ACF-A20
DOI: 10.1021/je3008099
Article source: Figure 14
Adsorbate R-134A: InChIKey LVGUZGTVOIAKKC-UHFFFAOYSA-N
Kind: experiment
Temperature: 298 K
Tabular data in the source: 0
pressure (bar)	uptake (g/g)
0.135135	0.254243
0.396396	0.522918
0.954955	0.777306
1.85586	0.983849
2.83784	1.13766
3.96396	1.21479
5.08108	1.25114
5.81982	1.26578
6.24324	1.26833
