Adsorption isotherm of R-507A on ACF-A20
DOI: 10.1021/je3008099
Article source: Figure 15
Adsorbate R-507A: InChIKey NIST-ISODB-F695EC8459FCB3A2077E
Kind: experiment
Temperature: 293 K
Tabular data in the source: 0
pressure (bar)	uptake (g/g)
0.06686	0.171154
0.277419	0.405769
0.930036	0.642308
2.03707	0.821154
3.18247	0.942308
4.32751	1.02885
5.53727	1.09038
6.72073	1.12308
7.86503	1.14231
9.07428	1.15577
10.1795	1.16346
