Adsorption isotherm of R-134A on Maxsorb III
DOI: 10.1021/je3008099
Article source: Figure 10
Adsorbate R-134A: InChIKey LVGUZGTVOIAKKC-UHFFFAOYSA-N
Kind: experiment
Temperature: 358 K
Tabular data in the source: 0
pressure (bar)	uptake (g/g)
1.04967	0.502297
1.43075	0.612557
1.90544	0.728943
2.41356	0.817764
2.94842	0.900459
3.51003	0.983155
4.11843	1.05972
4.76027	1.13017
5.46227	1.20061
6.21777	1.28025
6.94651	1.34763
