Adsorption isotherm of N-propane on Maxsorb III
DOI: 10.1021/je3008099
Article source: Figure 11
Adsorbate N-propane: InChIKey ATUOYWHBWRKTHZ-UHFFFAOYSA-N
Kind: experiment
Temperature: 328 K
Tabular data in the source: 0
pressure (bar)	uptake (g/g)
0.560847	0.347699
1.60847	0.497884
2.68783	0.575454
3.86243	0.644094
5.68254	0.720295
7.44974	0.759561
