Adsorption isotherm of R-507A on ACF-A20
DOI: 10.1021/je3008099
Article source: Figure 15
Adsorbate R-507A: InChIKey NIST-ISODB-F695EC8459FCB3A2077E
Kind: experiment
Temperature: 288 K
Tabular data in the source: 0
pressure (bar)	uptake (g/g)
0.18564	0.334615
0.813068	0.646154
1.8813	0.844231
3.07888	0.980769
4.32805	1.07885
5.58967	1.12692
6.3439	1.14231
6.90305	1.15192
7.41016	1.15769
7.96927	1.16346
8.54138	1.16923
9.00944	1.17115
9.50356	1.17885
