Adsorption isotherm of R-410A on Maxsorb III
DOI: 10.1021/je3008099
Article source: Figure 12
Adsorbate R-410A: InChIKey NIST-ISODB-CC1685D28E6FD63A280C
Kind: experiment
Temperature: 308 K
Tabular data in the source: 0
pressure (bar)	uptake (g/g)
0.324427	0.185198
0.820611	0.394586
1.45038	0.616083
2.30916	0.849714
3.32061	1.05119
4.61832	1.23665
6.01145	1.42214
7.44275	1.59153
9.42748	1.7651
14.313	1.96762
