Adsorption isotherm of R-134A on Maxsorb III
DOI: 10.1021/je3008099
Article source: Figure 10
Adsorbate R-134A: InChIKey LVGUZGTVOIAKKC-UHFFFAOYSA-N
Kind: experiment
Temperature: 293 K
Tabular data in the source: 0
pressure (bar)	uptake (g/g)
0.508118	1.05666
0.795606	1.21286
1.14327	1.37825
1.51767	1.51608
1.91882	1.65697
2.33333	1.79479
2.79465	1.90812
3.29608	1.96631
3.83763	2.02757
4.44604	2.05819
5.00764	2.07044
