Adsorption isotherm of R-507A on Maxsorb III
DOI: 10.1021/je3008099
Article source: Figure 13
Adsorbate R-507A: InChIKey NIST-ISODB-F695EC8459FCB3A2077E
Kind: experiment
Temperature: 318 K
Tabular data in the source: 0
pressure (bar)	uptake (g/g)
0.292887	0.209924
0.808926	0.446565
1.70153	0.69084
2.80335	0.874046
3.91911	1.00382
5.02092	1.09924
6.5272	1.20611
7.94979	1.29389
9.37238	1.37405
