Adsorption isotherm of R-507A on Maxsorb III
DOI: 10.1021/je3008099
Article source: Figure 13
Adsorbate R-507A: InChIKey NIST-ISODB-F695EC8459FCB3A2077E
Kind: experiment
Temperature: 308 K
Tabular data in the source: 0
pressure (bar)	uptake (g/g)
0.125523	0.232824
0.641562	0.568702
1.49233	0.870229
2.63598	1.08015
3.86332	1.22901
5.07671	1.34733
6.37378	1.4542
7.99163	1.5687
10.0697	1.69084
