Adsorption isotherm of R-507A on Maxsorb III
DOI: 10.1021/je3008099
Article source: Figure 13
Adsorbate R-507A: InChIKey NIST-ISODB-F695EC8459FCB3A2077E
Kind: experiment
Temperature: 288 K
Tabular data in the source: 0
pressure (bar)	uptake (g/g)
0.069735	0.259542
0.334728	0.71374
1.03208	1.1145
2.13389	1.4084
3.43096	1.65649
4.6583	1.82061
5.91353	1.91603
6.80614	1.94656
7.36402	1.96947
8.42399	1.99618
9.27476	2.01527
