Adsorption isotherm of N-propane on Maxsorb III
DOI: 10.1021/je3008099
Article source: Figure 11
Adsorbate N-propane: InChIKey ATUOYWHBWRKTHZ-UHFFFAOYSA-N
Kind: experiment
Temperature: 358 K
Tabular data in the source: 0
pressure (bar)	uptake (g/g)
0.624339	0.241959
1.3545	0.339955
2.21164	0.40354
3.10053	0.448013
3.90476	0.481031
6.09524	0.554638
7.60847	0.576101
