Adsorption isotherm of Nitrogen on MOF-74-Ni
DOI: 10.1039/c5ce00848d
Article source: Figure 8
Adsorbate Nitrogen: InChIKey IJGRMHOSHXDMSA-UHFFFAOYSA-N
Kind: experiment
Temperature: 77 K
Tabular data in the source: 0
pressure (bar)	uptake (cm3(STP)/g)
0.017346	224.277
0.0304	232.37
0.03562	235.838
0.056548	239.306
0.061773	241.618
0.08269	247.399
0.101005	249.711
0.12455	253.179
0.145482	255.491
0.161184	256.647
0.200436	260.116
0.24229	267.052
0.252772	264.74
0.30249	269.364
0.341731	275.145
0.354826	273.988
0.399313	277.457
0.438555	283.237
0.449031	282.081
0.498754	285.549
0.548397	307.514
0.55109	290.173
0.59819	294.798
0.650471	312.139
0.653139	300.578
0.697631	302.89
0.736853	313.295
0.736873	308.671
0.765669	308.671
0.79967	315.607
0.838932	316.763
0.872974	314.451
0.896529	315.607
0.920084	316.763
0.930545	319.075
0.948865	320.231
0.956708	322.543
0.969787	324.855
0.980243	328.324
0.993317	331.792
