Adsorption isotherm of Nitrogen on MOF-74Ni 70C
DOI: 10.1039/c5ce00848d
Article source: Figure 8
Adsorbate Nitrogen: InChIKey IJGRMHOSHXDMSA-UHFFFAOYSA-N
Kind: experiment
Temperature: 77 K
Tabular data in the source: 0
pressure (bar)	uptake (cm3(STP)/g)
0	24.2775
0	65.896
0	107.514
0	147.977
0.02447	179.191
0.029749	182.659
0.037669	188.439
0.045579	191.908
0.053478	193.064
0.077188	198.844
0.095624	202.312
0.114066	206.936
0.137765	210.405
0.158823	211.561
0.200948	216.185
0.229911	219.653
0.237816	221.965
0.250963	219.653
0.303625	226.59
0.34313	233.526
0.356282	232.37
0.398403	235.838
0.451055	240.462
0.458975	246.243
0.498454	247.399
0.551105	252.023
0.553778	261.272
0.598504	258.96
0.64853	264.74
0.656485	278.613
0.703838	275.145
0.738064	278.613
0.748661	294.798
0.774932	284.393
0.798672	297.11
0.804016	315.607
0.814461	297.11
0.835529	300.578
0.846172	327.168
0.851354	308.671
0.856627	310.983
0.872442	316.763
0.883095	345.665
0.888252	321.387
0.896167	326.012
0.906713	330.636
0.90686	364.162
0.911997	335.26
0.919917	341.04
0.927999	383.815
0.930621	381.503
0.93311	349.133
0.935767	354.913
0.938627	406.936
0.941253	405.78
0.946324	361.85
0.948981	367.63
0.959563	380.347
0.962519	454.335
0.967879	476.301
0.970165	397.688
0.970186	402.312
0.975804	483.237
0.978167	421.965
0.978202	430.058
0.983511	440.462
0.983729	490.173
0.983764	498.266
0.986173	447.399
