Adsorption isotherm of Nitrogen on MOF-74Ni 70C
DOI: 10.1039/c5ce00848d
Article source: Figure 8
Adsorbate Nitrogen: InChIKey IJGRMHOSHXDMSA-UHFFFAOYSA-N
Kind: experiment
Temperature: 77 K
Tabular data in the source: 0
pressure (bar)	uptake (cm3(STP)/g)
0.035691	219.653
0.085389	228.902
0.226664	248.555
0.336582	255.491
0.354901	256.647
0.451719	265.896
0.553728	285.549
0.598271	276.301
0.650531	298.266
0.70556	285.549
0.739521	301.734
0.742205	286.705
0.770955	297.11
0.773573	297.11
0.810182	306.358
0.943599	327.168
0.961913	329.48
0.97761	331.792
0.988071	334.104
0.993271	342.197
0.993292	337.572
