Adsorption isotherm of Nitrogen on MOF-74Ni 70C
DOI: 10.1039/c5ce00848d
Article source: Figure 8
Adsorbate Nitrogen: InChIKey IJGRMHOSHXDMSA-UHFFFAOYSA-N
Kind: experiment
Temperature: 77 K
Tabular data in the source: 0
pressure (bar)	uptake (cm3(STP)/g)
0.001796	188.439
0.048785	218.497
0.059231	224.277
0.067084	224.277
0.082781	226.59
0.09585	231.214
0.124631	234.682
0.137714	235.838
0.148181	236.994
0.166495	239.306
0.195281	241.618
0.229282	248.555
0.252847	247.399
0.305183	252.023
0.339189	257.803
0.360142	255.491
0.402006	260.116
0.438625	267.052
0.454352	262.428
0.501448	268.208
0.548487	286.705
0.548553	271.676
0.598266	277.457
0.650536	297.11
0.650602	282.081
0.697702	286.705
0.739521	301.734
0.739582	287.861
0.76574	292.486
0.797103	304.046
0.828557	294.798
0.833752	304.046
0.852112	295.954
0.862548	304.046
0.873049	297.11
0.888711	307.514
0.90184	298.266
0.909653	307.514
0.925395	299.422
0.938439	309.827
0.94371	301.734
0.961984	313.295
0.964652	301.734
0.980303	314.451
0.985569	307.514
0.990765	316.763
0.998598	321.387
