Adsorption isotherm of Krypton on FMOFCu
DOI: 10.1021/ar5003126
Article source: Figure 2b
Adsorbate Krypton: InChIKey DNNSSWSSYDEUBZ-UHFFFAOYSA-N
Kind: experiment
Temperature: 297 K
Tabular data in the source: 0
pressure (bar)	uptake (mmol/g)
0.052083	0
0.104167	0.018576
0.151042	0.043344
0.197917	0.068112
0.252604	0.099071
0.304688	0.142415
0.401042	0.173375
0.5	0.216718
0.601562	0.260062
0.703125	0.315789
0.796875	0.346749
0.903646	0.408669
0.994792	0.44582
