Adsorption isotherm of Xenon on FMOFCu
DOI: 10.1021/ar5003126
Article source: Figure 2c
Adsorbate Xenon: InChIKey FHNFHKCVQCLJFQ-UHFFFAOYSA-N
Kind: experiment
Temperature: 273 K
Tabular data in the source: 0
pressure (bar)	uptake (mmol/g)
0.023331	0.031533
0.049198	0.053192
0.100871	0.082696
0.149967	0.112204
0.196519	0.149612
0.248201	0.181089
0.299899	0.216513
0.405823	0.275515
0.496265	0.330599
0.594449	0.387643
0.700389	0.450591
0.798564	0.505661
0.90191	0.564667
1.00268	0.623679
