Adsorption isotherm of Krypton on MOF-74-Co
DOI: 10.1021/ar5003126
Article source: Figure 3b
Adsorbate Krypton: InChIKey DNNSSWSSYDEUBZ-UHFFFAOYSA-N
Kind: experiment
Temperature: 298 K
Tabular data in the source: 0
pressure (bar)	uptake (wt%)
0.002268	-0.000439
0.047619	4.82949
0.097506	9.465
0.14966	14.4872
0.197279	19.1231
0.297052	26.8457
0.394558	32.4398
0.496599	37.2587
0.596372	40.9168
0.693878	43.8012
0.795918	46.104
0.893424	48.2142
0.995465	49.9364
