Adsorption isotherm of Krypton on FMOFCu
DOI: 10.1021/ar5003126
Article source: Figure 2b
Adsorbate Krypton: InChIKey DNNSSWSSYDEUBZ-UHFFFAOYSA-N
Kind: experiment
Temperature: 253 K
Tabular data in the source: 0
pressure (bar)	uptake (mmol/g)
0.023438	0.136223
0.054688	0.297214
0.101562	0.452012
0.148437	0.563467
0.203125	0.643963
0.247396	0.687307
0.299479	0.736842
0.401042	0.804954
0.5	0.866873
0.601562	0.891641
0.700521	0.928793
0.799479	0.95356
0.898437	0.98452
0.994792	1.0031
