Adsorption isotherm of Krypton on MOF-74-Ni
DOI: 10.1021/ar5003126
Article source: Figure 3b
Adsorbate Krypton: InChIKey DNNSSWSSYDEUBZ-UHFFFAOYSA-N
Kind: experiment
Temperature: 298 K
Tabular data in the source: 0
pressure (bar)	uptake (wt%)
0	0
0.011364	0
0.020455	0
0.038636	0.387097
0.05	0.387097
0.056818	0.387097
0.106818	0.580645
0.154545	0.967742
0.204545	1.54839
0.254545	1.74194
0.304545	2.12903
0.402273	2.70968
0.502273	3.48387
0.602273	4.06452
0.702273	4.64516
0.802273	5.22581
0.904545	5.80645
0.997727	6.19355
