Adsorption isotherm of Xenon on FMOFCu
DOI: 10.1021/ar5003126
Article source: Figure 2c
Adsorbate Xenon: InChIKey FHNFHKCVQCLJFQ-UHFFFAOYSA-N
Kind: experiment
Temperature: 253 K
Tabular data in the source: 0
pressure (bar)	uptake (mmol/g)
0.054327	0.047261
0.154952	0.07272
0.206574	0.090382
0.250473	0.110032
0.304689	0.131635
0.400151	0.155131
0.498198	0.180596
0.601418	0.209997
0.699482	0.239409
0.80527	0.266832
0.903343	0.298217
0.99627	0.331586
