Adsorption isotherm of Xenon on MOF-74-Co
DOI: 10.1021/ar5003126
Article source: Figure 3b
Adsorbate Xenon: InChIKey FHNFHKCVQCLJFQ-UHFFFAOYSA-N
Kind: experiment
Temperature: 298 K
Tabular data in the source: 0
pressure (bar)	uptake (wt%)
0.002268	-0.000439
0.00907	0.965986
0.020408	2.12508
0.034014	3.28374
0.043084	4.83037
0.056689	5.40838
0.104308	11.0121
0.14966	16.0355
0.201814	21.0577
0.251701	25.4997
0.297052	28.9748
0.394558	35.5365
0.498866	40.9357
0.600907	44.9805
0.693878	47.8657
0.795918	50.7492
0.895692	53.0524
0.99093	54.9695
