Adsorption isotherm of Xenon on FMOFCu
DOI: 10.1021/ar5003126
Article source: Figure 2c
Adsorbate Xenon: InChIKey FHNFHKCVQCLJFQ-UHFFFAOYSA-N
Kind: experiment
Temperature: 297 K
Tabular data in the source: 0
pressure (bar)	uptake (mmol/g)
0.023255	0.01377
0.05943	0.035409
0.100777	0.060985
0.155019	0.08851
0.196375	0.11606
0.253194	0.143579
0.302281	0.171114
0.405517	0.204463
0.503633	0.245717
0.601765	0.290918
0.705044	0.334135
0.805702	0.367489
0.908981	0.410706
1.0045	0.448017
