Adsorption isotherm of Xenon on FMOFCu
DOI: 10.1021/ar5003126
Article source: Figure 2c
Adsorbate Xenon: InChIKey FHNFHKCVQCLJFQ-UHFFFAOYSA-N
Kind: experiment
Temperature: 313 K
Tabular data in the source: 0
pressure (bar)	uptake (mmol/g)
0.056751	0.01173
0.103245	0.035322
0.157453	0.054952
0.198766	0.072634
0.250405	0.094243
0.304613	0.113872
0.402652	0.137363
0.500699	0.162828
0.598764	0.192239
0.704552	0.219662
0.805211	0.253016
0.900681	0.278485
0.998771	0.313818
