Adsorption isotherm of Krypton on FMOFCu
DOI: 10.1021/ar5003126
Article source: Figure 2b
Adsorbate Krypton: InChIKey DNNSSWSSYDEUBZ-UHFFFAOYSA-N
Kind: experiment
Temperature: 313 K
Tabular data in the source: 0
pressure (bar)	uptake (mmol/g)
0.023438	0
0.054688	0.006192
0.106771	0.018576
0.153646	0.018576
0.205729	0.03096
0.252604	0.037152
0.302083	0.049536
0.403646	0.06192
0.502604	0.068112
0.604167	0.086687
0.700521	0.092879
0.799479	0.099071
0.901042	0.111455
0.994792	0.130031
