Adsorption isotherm of Krypton on FMOFCu
DOI: 10.1021/ar5003126
Article source: Figure 2b
Adsorbate Krypton: InChIKey DNNSSWSSYDEUBZ-UHFFFAOYSA-N
Kind: experiment
Temperature: 203 K
Tabular data in the source: 0
pressure (bar)	uptake (mmol/g)
0.023438	0.681115
0.052083	0.922601
0.101562	1.10217
0.151042	1.21981
0.200521	1.29412
0.252604	1.37461
0.302083	1.43653
0.403646	1.49845
0.502604	1.57276
0.598958	1.62848
0.703125	1.67802
0.802083	1.72136
0.903646	1.76471
0.997396	1.81424
