Adsorption isotherm of Krypton on FMOFCu
DOI: 10.1021/ar5003126
Article source: Figure 2b
Adsorbate Krypton: InChIKey DNNSSWSSYDEUBZ-UHFFFAOYSA-N
Kind: experiment
Temperature: 273 K
Tabular data in the source: 0
pressure (bar)	uptake (mmol/g)
0.020833	0.03096
0.054688	0.068112
0.098958	0.130031
0.151042	0.19195
0.203125	0.260062
0.252604	0.321981
0.296875	0.365325
0.398438	0.458204
0.502604	0.5387
0.598958	0.619195
0.700521	0.693498
0.796875	0.76161
0.895833	0.823529
0.997396	0.891641
