Adsorption isotherm of Xenon on FMOFCu
DOI: 10.1021/ar5003126
Article source: Figure 2c
Adsorbate Xenon: InChIKey FHNFHKCVQCLJFQ-UHFFFAOYSA-N
Kind: experiment
Temperature: 253 K
Tabular data in the source: 0
pressure (bar)	uptake (mmol/g)
0.018194	0.03549
0.049231	0.061087
0.098302	0.084674
0.152544	0.112199
0.201648	0.143681
0.255899	0.173179
0.299857	0.206645
0.405721	0.251831
0.496172	0.308889
0.599552	0.37579
0.702848	0.422955
0.803608	0.479993
0.904428	0.550847
1.00259	0.601969
