Adsorption isotherm of Krypton on FMOFCu
DOI: 10.1021/ar5003126
Article source: Figure 2b
Adsorbate Krypton: InChIKey DNNSSWSSYDEUBZ-UHFFFAOYSA-N
Kind: experiment
Temperature: 233 K
Tabular data in the source: 0
pressure (bar)	uptake (mmol/g)
0.023438	0.383901
0.052083	0.650155
0.098958	0.910217
0.148437	1.05263
0.200521	1.17028
0.25	1.25697
0.302083	1.31889
0.401042	1.40557
0.5	1.47368
0.601562	1.54799
0.700521	1.59133
0.799479	1.65325
0.901042	1.68421
0.994792	1.72136
