Adsorption isotherm of Xenon on FMOFCu
DOI: 10.1021/ar5003126
Article source: Figure 2c
Adsorbate Xenon: InChIKey FHNFHKCVQCLJFQ-UHFFFAOYSA-N
Kind: experiment
Temperature: 203 K
Tabular data in the source: 0
pressure (bar)	uptake (mmol/g)
0.108365	0.027418
0.154816	0.041142
0.203827	0.050914
0.252846	0.062659
0.304443	0.074399
0.402457	0.091969
0.500454	0.105591
0.601053	0.12513
0.701661	0.146641
0.804821	0.162227
0.900265	0.181776
0.99827	0.197372
