Adsorption isotherm of Carbon Dioxide on dmen-Mg2(dopdc)
DOI: 10.1039/c5sc01191d
Article source: Figure 2b
Adsorbate Carbon Dioxide: InChIKey CURLTUGMZLYLDI-UHFFFAOYSA-N
Kind: experiment
Temperature: 298 K
Tabular data in the source: 0
pressure (bar)	uptake (mmol/g)
0	0
0.010925	0.023152
0.036407	0.092749
0.038929	1.63476
0.039355	1.05064
0.039645	0.653434
0.045951	2.00845
0.046428	1.35424
0.049275	2.45231
0.056399	2.68582
0.067137	2.96598
0.070699	3.08274
0.077841	3.29288
0.092329	3.43278
0.110447	3.59598
0.135894	3.71231
0.15045	3.75875
0.172283	3.82842
0.201412	3.89795
0.237835	3.96733
0.270594	4.06015
0.314313	4.12939
0.361645	4.2453
0.419936	4.33762
0.489153	4.45309
0.569329	4.54499
0.664078	4.65997
0.769769	4.77473
0.893681	4.91251
1.03585	5.02656
1.19622	5.18699
