Adsorption isotherm of Carbon Dioxide on dmen-Mg2(dopdc)
DOI: 10.1039/c5sc01191d
Article source: Figure 2a
Adsorbate Carbon Dioxide: InChIKey CURLTUGMZLYLDI-UHFFFAOYSA-N
Kind: experiment
Temperature: 313 K
Tabular data in the source: 0
pressure (bar)	uptake (mmol/g)
0	0
0.022674	0.042918
0.045315	0.042918
0.067989	0.085837
0.092639	2.74678
0.115426	2.93991
0.138149	3.04721
0.168402	3.13305
0.19485	3.17597
0.217524	3.21888
0.243971	3.2618
0.270402	3.28326
0.293076	3.32618
0.319524	3.3691
0.342182	3.39056
0.368613	3.41202
0.391287	3.45494
0.417718	3.47639
0.440392	3.51931
0.463066	3.56223
0.489497	3.58369
0.515945	3.62661
0.538619	3.66953
0.561276	3.69099
0.587724	3.73391
0.610398	3.77682
0.636845	3.81974
0.659503	3.8412
0.689724	3.88412
0.712398	3.92704
0.738829	3.9485
0.761503	3.99142
0.78795	4.03433
0.810624	4.07725
0.833282	4.09871
0.85973	4.14163
0.886161	4.16309
0.908835	4.20601
0.931492	4.22747
0.95794	4.27039
0.980598	4.29185
1.00705	4.33476
1.02972	4.37768
1.05615	4.39914
1.07881	4.4206
1.10526	4.46352
1.12791	4.48498
1.15059	4.5279
1.18081	4.57082
