Adsorption isotherm of Carbon Dioxide on dmen-Mg2(dopdc)
DOI: 10.1039/c5sc01191d
Article source: Figure 2a
Adsorbate Carbon Dioxide: InChIKey CURLTUGMZLYLDI-UHFFFAOYSA-N
Kind: experiment
Temperature: 333 K
Tabular data in the source: 0
pressure (bar)	uptake (mmol/g)
0	0
0.06395	0.001149
0.112853	0.023578
0.161755	0.046009
0.199373	0.068236
0.221944	0.090193
0.248276	0.090666
0.270846	0.091071
0.293417	0.113028
0.315987	0.134985
0.346082	0.157078
0.368652	0.179035
0.391223	0.200992
0.413793	0.244501
0.432602	2.63708
0.455172	2.83145
0.477743	3.02582
0.537931	3.13466
0.564263	3.17824
0.586834	3.2433
0.609404	3.28681
0.635737	3.35193
0.662069	3.39551
0.688401	3.43909
0.710972	3.4826
0.737304	3.52617
0.759875	3.54813
0.786207	3.57015
0.808777	3.59211
0.85768	3.63609
0.906583	3.68008
0.932915	3.7021
0.959248	3.72412
0.981818	3.76763
1.00439	3.76804
1.03072	3.81161
1.05705	3.81209
1.07962	3.83404
1.10219	3.87755
1.12853	3.87803
1.1511	3.92154
1.17743	3.92201
