Adsorption isotherm of Carbon Dioxide on dmen-Mg2(dopdc)
DOI: 10.1039/c5sc01191d
Article source: Figure 2a
Adsorbate Carbon Dioxide: InChIKey CURLTUGMZLYLDI-UHFFFAOYSA-N
Kind: experiment
Temperature: 348 K
Tabular data in the source: 0
pressure (bar)	uptake (mmol/g)
0	0
0.041379	0.022295
0.101567	0.023376
0.116614	0.045198
0.146708	0.045738
0.184326	0.067966
0.248276	0.112218
0.27837	0.112758
0.334796	0.135323
0.368652	0.157483
0.394984	0.179508
0.42884	0.201667
0.462696	0.202275
0.49279	0.202816
0.549216	0.246933
0.586834	0.247608
0.613166	0.269633
0.64326	0.291725
0.677116	0.292333
0.710972	0.314493
0.741066	0.315034
0.77116	0.337126
0.801254	0.337666
0.831348	0.38131
0.861442	0.381851
0.895298	0.382459
0.925392	0.404551
0.955486	0.426643
0.981818	0.448668
1.01567	0.449276
1.04577	0.471368
1.07586	0.49346
1.10596	0.515552
1.13605	0.537645
1.17367	0.559872
1.19248	0.581761
1.21129	2.86658
