Adsorption isotherm of Carbon Dioxide on dmen-Mg2(dopdc)
DOI: 10.1039/c5sc01191d
Article source: Figure 2a
Adsorbate Carbon Dioxide: InChIKey CURLTUGMZLYLDI-UHFFFAOYSA-N
Kind: experiment
Temperature: 363 K
Tabular data in the source: 0
pressure (bar)	uptake (mmol/g)
0	0
0.052665	0.044049
0.097806	0.04486
0.146708	0.06729
0.173041	0.089315
0.244514	0.11215
0.274608	0.112691
0.297179	0.134648
0.36489	0.157415
0.394984	0.179508
0.421317	0.201532
0.436364	0.201803
0.462696	0.202275
0.49279	0.202816
0.511599	0.224705
0.537931	0.24673
0.564263	0.247203
0.586834	0.26916
0.605643	0.269498
0.635737	0.29159
0.662069	0.270511
0.688401	0.292536
0.714734	0.336112
0.741066	0.336585
0.763636	0.358542
0.786207	0.358948
0.808777	0.359353
0.83511	0.359826
0.861442	0.381851
0.887774	0.382324
0.910345	0.404281
0.932915	0.404686
0.959248	0.426711
0.978056	0.4486
1.00439	0.427521
1.02696	0.449478
1.05705	0.471571
1.07586	0.49346
1.09843	0.493866
1.12476	0.494338
1.1511	0.516363
1.17743	0.516836
1.2	0.538793
