Adsorption isotherm of Carbon Dioxide on dmen-Mg2(dopdc)
DOI: 10.1039/c5sc01191d
Article source: Figure 2a
Adsorbate Carbon Dioxide: InChIKey CURLTUGMZLYLDI-UHFFFAOYSA-N
Kind: experiment
Temperature: 323 K
Tabular data in the source: 0
pressure (bar)	uptake (mmol/g)
0	0
0.026332	0.000473
0.048903	0.02243
0.071473	0.001284
0.097806	0.04486
0.124138	0.066885
0.146708	0.088842
0.173041	0.110866
0.195611	0.111272
0.218182	2.54702
0.236991	2.74133
0.255799	2.91408
0.293417	3.04406
0.319749	3.10919
0.34232	3.1527
0.368652	3.19628
0.391223	3.23978
0.417555	3.28336
0.440125	3.30532
0.466458	3.32734
0.489028	3.3493
0.515361	3.37132
0.537931	3.41483
0.560502	3.43679
0.586834	3.45882
0.609404	3.48077
0.635737	3.5028
0.662069	3.50327
0.688401	3.54685
0.710972	3.5688
0.737304	3.56928
0.759875	3.61279
0.786207	3.63481
0.808777	3.65677
0.83511	3.67879
0.85768	3.70075
0.884013	3.74432
0.906583	3.74473
0.932915	3.78831
0.955486	3.78871
0.981818	3.83229
1.00439	3.85425
1.02696	3.89775
1.05329	3.91978
1.07586	3.96329
1.10219	3.98531
1.12853	4.00734
1.1511	4.05085
1.17743	4.07287
