Adsorption isotherm of Carbon Dioxide on UTSA-61a
DOI: 10.1039/C3ce41062e
Adsorbate Carbon Dioxide: InChIKey CURLTUGMZLYLDI-UHFFFAOYSA-N
Temperature: 298 K
Tabular data in the source: 0
pressure (bar)	uptake (cm3(STP)/g)
0.00810788	0.934347
0.0162707	1.4687
0.0285514	2.00357
0.0449686	2.40562
0.0531496	2.80664
0.0613307	3.20767
0.0736298	3.6092
0.0859288	4.01074
0.0982279	4.41228
0.110545	4.68049
0.118726	5.08151
0.163823	6.55381
0.221274	8.02766
0.274607	9.501
0.327938	10.9743
0.381309	12.181
0.430541	13.5205
0.488009	14.861
0.541379	16.0677
0.59473	17.4077
0.648081	18.7477
0.697332	19.9538
0.750701	21.1605
0.804107	22.1005
0.861576	23.441
0.914945	24.6477
0.972451	25.7216
1.0217	26.9277
