Adsorption isotherm of Nitrogen on UTSA-61a
DOI: 10.1039/C3ce41062e
Adsorbate Nitrogen: InChIKey IJGRMHOSHXDMSA-UHFFFAOYSA-N
Temperature: 77 K
Tabular data in the source: 0
pressure (bar)	uptake (cm3(STP)/g)
-0.00407663	51.7924
-0.00049918	67.5664
-0.000415983	56.3053
-0.000316147	42.7921
-0.00026623	36.0354
-0.000199672	27.0266
-9.98363e-05	13.5133
0.0029618	99.106
0.00301172	92.3493
0.00309491	81.0883
0.00316147	72.0794
0.00660581	105.871
0.0139271	114.897
0.0248592	135.193
0.0358577	146.48
0.0579382	157.792
0.065276	164.566
0.0763246	169.096
0.0873565	175.878
0.10576	184.93
0.149987	198.546
0.197892	214.423
0.245813	228.047
0.293718	243.924
0.334234	259.784
0.382106	280.165
0.433637	305.059
0.481476	329.945
0.529213	368.344
0.580645	406.752
0.62484	424.872
0.676538	427.244
0.72456	427.355
0.779985	425.232
0.82799	427.595
0.924015	430.07
