Adsorption isotherm of Methane on UTSA-61a
DOI: 10.1039/C3ce41062e
Adsorbate Methane: InChIKey VNWKTOKETHGBQD-UHFFFAOYSA-N
Temperature: 298 K
Tabular data in the source: 0
pressure (bar)	uptake (cm3(STP)/g)
0.0039927	0.400499
0.0531448	0.67331
0.0695167	0.80869
0.0900271	0.811254
0.118669	1.0815
0.175988	1.48867
0.229206	1.89532
0.286526	2.30249
0.33978	2.57581
0.393034	2.84913
0.446253	3.25579
0.503572	3.66295
0.55679	4.0696
0.610007	4.47626
0.663261	4.74958
0.716516	5.02291
0.76977	5.29623
0.827091	5.70339
0.880344	5.97672
0.933598	6.25004
0.990919	6.65721
1.04828	6.93105
