Adsorption isotherm of Hydrogen on UTSA-61a
DOI: 10.1039/C3ce41062e
Adsorbate Hydrogen: InChIKey UFHFLCQGNIYNRP-UHFFFAOYSA-N
Temperature: 77 K
Tabular data in the source: 0
pressure (bar)	uptake (cm3(STP)/g)
0.000168807	4.03587
0.00442649	5.8296
0.0128668	7.62332
0.021401	11.6592
0.0340803	14.7982
0.0594012	20.1794
0.0678604	22.4215
0.0804834	24.2152
0.0889051	25.5605
0.101528	27.3543
0.118371	30.0448
0.173008	36.3229
0.223426	41.704
0.282133	45.2915
0.336714	50.2242
0.39122	53.3632
0.445745	56.9507
0.50025	60.0897
0.550592	63.6771
0.609262	66.3677
0.659586	69.5067
0.718237	71.7489
0.764358	74.4395
0.823028	77.13
0.877514	79.8206
0.931965	81.6143
0.990616	83.8565
1.0409	86.0987
