Adsorption isotherm of Trichloromethane, Chlorobenzene on Silica Gel
DOI: 10.1089/ees.1998.15.191
Article source: Table 7
Adsorbate Trichloromethane: InChIKey HEDRZPFGACZZDS-UHFFFAOYSA-N
Adsorbate Chlorobenzene: InChIKey MVPPADPHJFYWMZ-UHFFFAOYSA-N
Kind: experiment
Temperature: 297 K
Tabular data in the source: 0
pressure (bar)	Trichloromethane fraction	Trichloromethane uptake (mg/g)	Chlorobenzene fraction	Chlorobenzene uptake (mg/g)	total uptake (mg/g)
0.013176	0.891734	55.81	0.108266	33.92	
0.02128	0.932962	87.71	0.067038	37.16	
0.034245	0.958343	299.4	0.041657	33.56	
0.041673	0.965768	492.56	0.034232	37.51	
0.063552	0.977553	879.3	0.022447	40.97	
