Adsorption isotherm of Benzene, N-Hexane on Silica Gel
DOI: 10.1089/ees.1998.15.191
Article source: Table 5
Adsorbate Benzene: InChIKey UHOVQNZJYSORNB-UHFFFAOYSA-N
Adsorbate N-Hexane: InChIKey VLKZOEOYAKHREP-UHFFFAOYSA-N
Kind: experiment
Temperature: 297 K
Tabular data in the source: 0
pressure (bar)	Benzene fraction	Benzene uptake (mg/g)	N-Hexane fraction	N-Hexane uptake (mg/g)	total uptake (mg/g)
0.072751	0.664859	132.48	0.335141	26.72	
0.081199	0.595692	142.07	0.404308	33.16	
0.096749	0.499945	146.38	0.500055	53.64	
0.109996	0.439736	137.86	0.560264	63.65	
0.127083	0.380613	147.68	0.619387	85.15	
0.151657	0.318939	157.01	0.681061	133.25	
