Adsorption isotherm of N-Hexane, 1,1,2-Trichloroethene on Silica Gel
DOI: 10.1089/ees.1998.15.191
Article source: Table 6
Adsorbate N-Hexane: InChIKey VLKZOEOYAKHREP-UHFFFAOYSA-N
Adsorbate 1,1,2-Trichloroethene: InChIKey XSTXAVWGXDQKEL-UHFFFAOYSA-N
Kind: experiment
Temperature: 297 K
Tabular data in the source: 0
pressure (bar)	N-Hexane fraction	N-Hexane uptake (mg/g)	1,1,2-Trichloroethene fraction	1,1,2-Trichloroethene uptake (mg/g)	total uptake (mg/g)
0.04734	0.596147	55.77	0.403853	79.17	
0.059435	0.678331	66.12	0.321669	81.37	
0.079785	0.760377	94.76	0.239623	88.39	
0.098024	0.804962	144.36	0.195038	91.32	
0.113767	0.83195	166.25	0.16805	92.09	
0.115495	0.834465	177.97	0.165535	89.67	
0.12087	0.841827	187.72	0.158173	96.86	
0.142756	0.866076	264.05	0.133924	118.18	
