Adsorption isotherm of N-Hexane, 1,1,2-Trichloroethene on Silica Gel
DOI: 10.1089/ees.1998.15.191
Article source: Table 6
Adsorbate N-Hexane: InChIKey VLKZOEOYAKHREP-UHFFFAOYSA-N
Adsorbate 1,1,2-Trichloroethene: InChIKey XSTXAVWGXDQKEL-UHFFFAOYSA-N
Kind: experiment
Temperature: 297 K
Tabular data in the source: 0
pressure (bar)	N-Hexane fraction	N-Hexane uptake (mg/g)	1,1,2-Trichloroethene fraction	1,1,2-Trichloroethene uptake (mg/g)	total uptake (mg/g)
0.034901	0.726106	40.52	0.273894	42.63	
0.052756	0.818802	56.89	0.181198	39.81	
0.07829	0.877899	92.59	0.122101	43.14	
0.096528	0.90097	119.83	0.09903	40.85	
0.110351	0.913374	155.85	0.086626	43.57	
0.125134	0.923608	203.44	0.076392	50.67	
