Adsorption isotherm of Benzene, N-Hexane on Silica Gel
DOI: 10.1089/ees.1998.15.191
Article source: Table 5
Adsorbate Benzene: InChIKey UHOVQNZJYSORNB-UHFFFAOYSA-N
Adsorbate N-Hexane: InChIKey VLKZOEOYAKHREP-UHFFFAOYSA-N
Kind: experiment
Temperature: 297 K
Tabular data in the source: 0
pressure (bar)	Benzene fraction	Benzene uptake (mg/g)	N-Hexane fraction	N-Hexane uptake (mg/g)	total uptake (mg/g)
0.044727	0.540718	83.57	0.459282	24.61	
0.055286	0.437446	81.81	0.562554	30.02	
0.070261	0.344213	77.27	0.655787	40.65	
0.090227	0.268042	82.13	0.731958	54.44	
0.10693	0.226173	82.09	0.773827	68.11	
0.127472	0.189725	87.05	0.810275	90.59	
0.133232	0.181523	91.1	0.818477	91.8	
