Adsorption isotherm of Trichloromethane, Chlorobenzene on Silica Gel
DOI: 10.1089/ees.1998.15.191
Article source: Table 7
Adsorbate Trichloromethane: InChIKey HEDRZPFGACZZDS-UHFFFAOYSA-N
Adsorbate Chlorobenzene: InChIKey MVPPADPHJFYWMZ-UHFFFAOYSA-N
Kind: experiment
Temperature: 297 K
Tabular data in the source: 0
pressure (bar)	Trichloromethane fraction	Trichloromethane uptake (mg/g)	Chlorobenzene fraction	Chlorobenzene uptake (mg/g)	total uptake (mg/g)
0.015143	0.811592	67.76	0.188408	69.64	
0.022436	0.872835	144.26	0.127165	70.48	
0.035266	0.919099	383.31	0.080901	71.38	
0.049717	0.942614	605.94	0.057386	67.26	
0.071731	0.960225	1031.26	0.039775	85.57	
