Adsorption isotherm of Carbon Dioxide on COF-SDU2
DOI: 10.1016/j.micromeso.2019.04.021
Article source: Figure 4b
Adsorbate Carbon Dioxide: InChIKey CURLTUGMZLYLDI-UHFFFAOYSA-N
Kind: experiment
Temperature: 273 K
Tabular data in the source: 0
pressure (bar)	uptake (mg/g)
24.4884	501.197
19.6842	469.206
15.0133	403.7
11.0098	300.109
7.71797	214.799
5.84964	170.62
4.0258	127.965
2.37989	83.7867
1.17883	48.7486
0.467082	25.8977
0.155694	10.6638
