Adsorption isotherm of Carbon Dioxide on COF-SDU3
DOI: 10.1016/j.micromeso.2019.04.021
Article source: Figure 4b
Adsorbate Carbon Dioxide: InChIKey CURLTUGMZLYLDI-UHFFFAOYSA-N
Kind: experiment
Temperature: 273 K
Tabular data in the source: 0
pressure (bar)	uptake (mg/g)
24.444	239.173
19.6842	193.471
15.3247	143.199
11.0988	118.825
7.76246	83.7867
5.89413	82.2633
4.07028	50.272
2.42438	36.5615
1.17883	24.3743
0.467082	9.14037
