Adsorption isotherm of Carbon Dioxide on COF-SDU2
DOI: 10.1016/j.micromeso.2019.04.021
Article source: Figure 4a
Adsorbate Carbon Dioxide: InChIKey CURLTUGMZLYLDI-UHFFFAOYSA-N
Kind: experiment
Temperature: 298 K
Tabular data in the source: 0
pressure (bar)	uptake (mg/g)
44.7542	482.829
39.8637	439.509
34.6472	408.003
29.7568	358.774
24.7848	313.485
19.8944	260.318
15.3299	207.152
11.0915	161.862
7.91275	120.51
5.79356	92.9427
4.00039	71.2823
2.37024	45.6837
1.22913	24.0233
0.495566	8.27032
