Adsorption isotherm of Nitrogen on COF-SDU3
DOI: 10.1016/j.micromeso.2019.04.021
Article source: Figure 3c
Adsorbate Nitrogen: InChIKey IJGRMHOSHXDMSA-UHFFFAOYSA-N
Kind: experiment
Temperature: 77 K
Tabular data in the source: 0
pressure (bar)	uptake (cm3(STP)/g)
0.010773	40.2264
0.030052	50.4906
0.053866	56.2264
0.059536	58.0377
0.067474	59.5472
0.077681	61.0566
0.083351	62.8679
0.099227	64.3774
0.118505	69.2076
0.084485	73.434
0.144588	82.4906
0.137059	71.522
0.15596	74.6667
0.181948	76.9727
0.199273	80.327
0.200061	91.0189
0.235499	98.566
0.261487	92.0671
0.310313	103.178
0.297713	110.516
0.352051	118.482
0.355201	129.384
0.389065	134.625
0.434741	129.803
0.466241	131.48
0.460729	143.22
0.504829	134.415
0.504829	153.073
0.557593	156.008
0.559168	137.979
0.608782	141.962
0.610357	157.895
0.659183	160.83
0.65997	146.365
0.714309	151.396
0.708796	163.136
0.759197	165.442
0.762347	155.589
0.807236	158.524
0.811173	168.797
0.835586	170.474
0.861574	171.312
0.8726	173.409
0.904888	175.086
0.830074	161.249
0.860787	163.346
0.885987	165.652
0.911975	168.587
0.935601	171.941
0.936388	179.698
0.960801	176.763
0.962376	185.778
0.986789	184.52
0.994665	188.922
0.984427	192.696
0.990727	196.679
0.997027	200.453
1.00726	204.646
1.00648	197.308
