Adsorption isotherm of Carbon Dioxide on COF-SDU3
DOI: 10.1016/j.micromeso.2019.04.021
Article source: Figure 4a
Adsorbate Carbon Dioxide: InChIKey CURLTUGMZLYLDI-UHFFFAOYSA-N
Kind: experiment
Temperature: 298 K
Tabular data in the source: 0
pressure (bar)	uptake (mg/g)
44.6727	327.268
39.4562	293.793
34.7287	232.75
29.8383	189.43
24.7848	148.078
20.0574	116.572
15.3299	90.9735
11.2546	73.2514
7.99426	51.5911
5.87506	37.8072
4.24491	29.9307
2.53326	24.0233
1.31064	12.2086
