Adsorption isotherm of Nitrogen on COF-SDU1
DOI: 10.1016/j.micromeso.2019.04.021
Article source: Figure 3a
Adsorbate Nitrogen: InChIKey IJGRMHOSHXDMSA-UHFFFAOYSA-N
Kind: experiment
Temperature: 77 K
Tabular data in the source: 0
pressure (bar)	uptake (cm3(STP)/g)
0.157035	226.354
0.178028	240.298
0.197077	254.994
0.249103	317.972
0.312447	361.201
0.36852	369.389
0.424502	373.903
0.452492	375.883
0.508474	377.934
0.612273	380.076
0.659702	381.851
0.711795	384.409
0.762334	385.554
0.810572	390.751
0.830442	392.607
0.862001	394.462
0.887716	395.699
0.916937	400.028
0.937976	400.647
0.966029	406.213
0.989406	413.016
0.996419	418.582
1.00577	429.714
1.01044	441.465
0.55927	380.237
0.134978	215.727
0.119783	205.213
0.097575	194.08
0.078874	184.185
0.069523	181.711
0.064848	178
0.055497	171.197
0.028613	152.025
0.007574	124.194
0.077424	195.738
0.14475	232.252
0.191878	262.532
0.25752	368.511
0.302965	375.636
0.355142	380.089
0.40732	381.87
0.456131	385.433
0.506625	386.323
0.557119	390.776
0.607613	390.776
0.659791	392.557
0.705235	393.448
0.762462	397.901
0.811273	397.901
0.83652	400.573
0.846619	398.791
0.871352	401.884
0.897067	402.502
0.927457	404.976
0.960184	410.542
0.985899	422.911
0.99525	431.57
