Adsorption isotherm of Carbon Dioxide on COF-SDU1
DOI: 10.1016/j.micromeso.2019.04.021
Article source: Figure 4a
Adsorbate Carbon Dioxide: InChIKey CURLTUGMZLYLDI-UHFFFAOYSA-N
Kind: experiment
Temperature: 298 K
Tabular data in the source: 0
pressure (bar)	uptake (mg/g)
44.6727	738.815
39.7007	628.544
34.5657	535.996
29.6753	398.157
24.7848	303.639
19.8944	246.534
15.4115	193.368
11.3361	148.078
7.74974	104.757
5.95657	83.097
4.00039	61.4367
2.28873	39.7763
1.14763	24.0233
0.414058	10.2394
