Adsorption isotherm of Carbon Dioxide on COF-SDU1
DOI: 10.1016/j.micromeso.2019.04.021
Article source: Figure 4b
Adsorbate Carbon Dioxide: InChIKey CURLTUGMZLYLDI-UHFFFAOYSA-N
Kind: experiment
Temperature: 273 K
Tabular data in the source: 0
pressure (bar)	uptake (mg/g)
24.355	546.899
19.5507	461.589
15.1468	332.1
11.0543	251.36
7.80694	188.901
5.80516	147.769
4.07028	106.638
2.46886	70.0762
1.17883	35.0381
0.511566	21.3275
0.11121	4.57019
