Adsorption isotherm of Carbon Dioxide on COF-SDU1
DOI: 10.1016/j.micromeso.2019.04.021
Article source: Figure 5a
Adsorbate Carbon Dioxide: InChIKey CURLTUGMZLYLDI-UHFFFAOYSA-N
Kind: experiment
Temperature: 298 K
Tabular data in the source: 0
pressure (bar)	uptake (mg/g)
3.75894	135.035
7.94789	284.439
12.0945	472.032
16.1565	601.935
20.1762	770.169
24.3652	937.124
28.4272	1090.01
32.5738	1292.95
36.5935	1484.5
41.0306	1672.16
45.1402	1941.98
