Adsorption isotherm of Nitrogen on COF-SDU2
DOI: 10.1016/j.micromeso.2019.04.021
Article source: Figure 3b
Adsorbate Nitrogen: InChIKey IJGRMHOSHXDMSA-UHFFFAOYSA-N
Kind: experiment
Temperature: 77 K
Tabular data in the source: 0
pressure (bar)	uptake (cm3(STP)/g)
0.010084	142.216
0.029714	177.662
0.054952	201.915
0.066169	211.242
0.070376	214.974
0.078789	219.638
0.078789	228.033
0.077386	234.562
0.105429	250.42
0.118048	263.479
0.137678	317.581
0.141885	332.505
0.154504	324.11
0.190959	335.304
0.210589	339.035
0.203578	349.296
0.248745	355.346
0.255236	347.249
0.311224	348.868
0.303922	359.664
0.342058	363.983
0.358287	355.886
0.40616	361.284
0.402103	367.761
0.458903	375.319
0.454034	365.602
0.507588	368.301
0.505965	384.495
0.556273	389.354
0.555461	373.699
0.609827	378.018
0.608204	392.593
0.656889	393.132
0.658512	380.717
0.711254	382.876
0.711254	398.531
0.759128	403.389
0.763185	388.814
0.809436	395.831
0.805378	407.707
0.832967	413.105
0.830532	396.371
0.843515	412.566
0.861366	402.309
0.873538	419.583
0.884898	408.247
0.908429	413.105
0.901126	423.902
0.933583	422.282
0.93764	440.636
0.957925	435.238
0.958737	454.671
0.983891	459.529
0.996062	475.184
0.982268	487.599
0.991193	503.793
1.00337	511.891
0.996468	528.625
1.00499	545.359
