Adsorption isotherm of Lead(II) Ion, Water on graphene@Fe-Mg-Cu oxide composite
DOI: 10.1039/c7nj03064a
Article source: Figure 5
Adsorbate Lead(II) Ion: InChIKey RVPVRDXYQKGNMQ-UHFFFAOYSA-N
Adsorbate Water: InChIKey XLYOFNOQVPJJNP-UHFFFAOYSA-N
Kind: experiment
Temperature: 298 K
Tabular data in the source: 0
pressure (bar)	Lead(II) Ion fraction	Lead(II) Ion uptake (mg/kg)	Water fraction	Water uptake (mg/kg)	total uptake (mg/kg)
1.01325	0.095	55.2005			
1.01325	0.27	54.0324			
1.01325	1.233	65.5119			
1.01325	4.167	132.151			
1.01325	15.99	204.774			
1.01325	23.477	240.211			
