Adsorption isotherm of Hydrogen on [(InC28O8H14)2Li1.5(H3O)0.5](H2O)11
DOI: 10.1038/Nchem.333
Adsorbate Hydrogen: InChIKey UFHFLCQGNIYNRP-UHFFFAOYSA-N
Temperature: 87 K
Tabular data in the source: 0
pressure (bar)	uptake (mmol/g)
0.000415722	0.561224
0.00801209	0.816327
0.0230915	1.17347
0.0307445	1.5051
0.0420257	1.73469
0.0533258	1.9898
0.0720711	2.29592
0.0907785	2.55102
0.102003	2.70408
0.120597	2.80612
0.131784	2.90816
0.150435	3.08673
0.180197	3.26531
0.228515	3.4949
0.280518	3.69898
0.306519	3.80102
0.347354	3.92857
0.38819	4.05612
0.428987	4.13265
0.469803	4.23469
0.510601	4.31122
0.562528	4.41327
0.610714	4.46429
0.662623	4.54082
0.714531	4.61735
0.762717	4.66837
0.814607	4.71939
0.862831	4.82143
0.914701	4.84694
0.962906	4.92347
1.01478	4.94898
