Adsorption isotherm of Nitrogen on [(InC28O8H14)2(C4H12N2)](C3H7NO)3.5(H2O)5
DOI: 10.1038/Nchem.333
Adsorbate Nitrogen: InChIKey IJGRMHOSHXDMSA-UHFFFAOYSA-N
Temperature: 78 K
Tabular data in the source: 0
pressure (bar)	uptake (cm3(STP)/g)
0.00385942	7.021
0.0115391	22.8191
0.0117154	14.9165
0.0234895	27.1989
0.0314826	28.948
0.0434919	30.6935
0.06753	33.3066
0.0875715	35.0451
0.107613	36.7836
0.159745	40.25
0.203863	42.8454
0.259991	47.1863
0.308146	48.9002
0.412389	56.7111
0.456508	59.3065
0.512636	63.6474
0.620974	67.9426
0.717244	73.1263
0.825601	76.5434
0.925927	79.9675
1.02226	82.517
1.05027	86.8827
