Adsorption isotherm of Hydrogen on [(InC28O8H14)2(C4H12N2)](C3H7NO)3.5(H2O)5
DOI: 10.1038/Nchem.333
Adsorbate Hydrogen: InChIKey UFHFLCQGNIYNRP-UHFFFAOYSA-N
Temperature: 87 K
Tabular data in the source: 0
pressure (bar)	uptake (mmol/g)
0.00417611	0.637755
0.00808768	0.918367
0.0119237	1.09694
0.0194822	1.30102
0.0270408	1.5051
0.038322	1.73469
0.0495654	1.91327
0.057124	2.11735
0.0683673	2.29592
0.079554	2.39796
0.0907785	2.55102
0.116818	2.70408
0.128023	2.83163
0.142914	2.93367
0.154044	2.95918
0.165249	3.08673
0.176436	3.18878
0.19127	3.21429
0.206179	3.34184
0.221013	3.36735
0.243311	3.46939
0.269293	3.54592
0.298998	3.64796
0.347203	3.72449
0.384316	3.82653
0.42141	3.90306
0.462207	3.97959
0.506708	4.05612
0.558617	4.13265
0.603118	4.20918
0.658711	4.2602
0.706897	4.31122
0.755083	4.36224
0.814437	4.4898
0.862623	4.54082
0.91079	4.56633
0.958976	4.61735
1.00344	4.64286
