Adsorption isotherm of Nitrogen on [(InC28O8H14)2Li1.5(H3O)0.5](H2O)11
DOI: 10.1038/Nchem.333
Adsorbate Nitrogen: InChIKey IJGRMHOSHXDMSA-UHFFFAOYSA-N
Temperature: 78 K
Tabular data in the source: 0
pressure (bar)	uptake (cm3(STP)/g)
0.00287987	50.9243
0.00366351	15.8017
0.00920774	127.309
0.0211386	132.567
0.0491537	136.932
0.105301	140.395
0.153436	142.987
0.205607	144.698
0.418384	148.023
0.50672	148.823
0.71552	150.396
0.807852	152.071
0.992555	153.665
