Adsorption isotherm of Nitrogen on ITF-1
DOI: 10.1021/Cg401613w
Adsorbate Nitrogen: InChIKey IJGRMHOSHXDMSA-UHFFFAOYSA-N
Temperature: 77 K
Tabular data in the source: 0
pressure (bar)	uptake (mmol/g)
0.00970417	0.0313316
0.0291634	0.0417755
0.0466756	0.0522193
0.0641827	0.0678851
0.081695	0.078329
0.101154	0.0887728
0.118666	0.0992167
0.138126	0.109661
0.155638	0.120104
0.173145	0.13577
0.190657	0.146214
0.208165	0.16188
0.227623	0.172324
0.245136	0.182768
0.264594	0.193211
0.282107	0.203655
0.299614	0.219321
0.317126	0.229765
0.336591	0.234987
0.354098	0.250653
0.373562	0.255875
0.393022	0.266319
0.408577	0.287206
0.426083	0.302872
0.445538	0.318538
0.463045	0.334204
0.480547	0.355091
0.500006	0.365535
0.517518	0.375979
0.536978	0.386423
0.55449	0.396867
0.573949	0.407311
0.591461	0.417755
0.610915	0.43342
0.628428	0.443864
0.647886	0.454308
0.667346	0.464752
0.684853	0.480418
0.704312	0.490862
0.723772	0.501305
0.741279	0.516971
0.774361	0.532637
0.79382	0.543081
0.811338	0.548303
0.828844	0.563969
0.848304	0.574413
0.865811	0.590078
0.883319	0.605744
0.900825	0.62141
0.918327	0.642298
0.931926	0.673629
0.947471	0.704961
