Adsorption isotherm of Nitrogen on ITF-1
DOI: 10.1021/Cg401613w
Adsorbate Nitrogen: InChIKey IJGRMHOSHXDMSA-UHFFFAOYSA-N
Temperature: 77 K
Tabular data in the source: 0
pressure (bar)	uptake (mmol/g)
0.772399	0.548303
0.789906	0.563969
0.809361	0.579634
0.824916	0.600522
0.842422	0.616188
0.859929	0.631854
0.877432	0.652742
0.894934	0.673629
0.912441	0.689295
0.927996	0.710183
0.945498	0.73107
