Adsorption isotherm of Carbon Dioxide on ITF-1
DOI: 10.1021/Cg401613w
Adsorbate Carbon Dioxide: InChIKey CURLTUGMZLYLDI-UHFFFAOYSA-N
Temperature: 273 K
Tabular data in the source: 0
pressure (bar)	uptake (wt%)
0.0381781	0.23975
0.267133	1.55849
0.495691	2.45806
0.78089	3.05857
1.00928	3.7785
2.49203	6.60175
5.02031	11.4073
7.52893	15.4942
9.96063	18.5028
