Adsorption isotherm of Hydrogen on ITF-1
DOI: 10.1021/Cg401613w
Adsorbate Hydrogen: InChIKey UFHFLCQGNIYNRP-UHFFFAOYSA-N
Temperature: 273 K
Tabular data in the source: 0
pressure (bar)	uptake (wt%)
0.0739372	0.0138817
0.277264	0.0246787
0.51756	0.0323907
0.739372	0.0401028
0.998152	0.0478149
2.49538	0.0771208
4.99076	0.111054
7.50462	0.144987
10.0185	0.174293
