Adsorption isotherm of Carbon Dioxide on ITF-1
DOI: 10.1021/Cg401613w
Adsorbate Carbon Dioxide: InChIKey CURLTUGMZLYLDI-UHFFFAOYSA-N
Temperature: 273 K
Tabular data in the source: 0
pressure (bar)	uptake (mmol/g)
0.346191	0.0469974
0.762127	0.0887728
1.24799	0.120104
1.66393	0.16188
2.14962	0.198433
2.7045	0.245431
3.19001	0.287206
3.67586	0.318538
4.16157	0.355091
5.06338	0.428198
5.47983	0.454308
5.96553	0.490862
6.45141	0.522193
7.00647	0.563969
7.49214	0.600522
7.97785	0.637076
8.32494	0.657963
8.88056	0.684073
9.3664	0.715405
9.85211	0.751958
10.3379	0.78329
10.8932	0.819843
11.0323	0.819843
11.5182	0.851175
12.0042	0.877285
12.4901	0.908616
13.0457	0.934726
13.5318	0.960836
14.0176	0.992167
14.6428	1.01828
15.1287	1.04961
15.6843	1.07572
16.2399	1.10183
16.7955	1.12794
17.3512	1.15405
17.9068	1.18016
18.2537	1.20627
18.6013	1.21149
19.1571	1.23238
19.3651	1.25326
19.9905	1.27415
20.5462	1.29504
21.1019	1.32115
21.31	1.33681
21.9355	1.35248
22.4911	1.37859
22.6299	1.38903
23.1861	1.39948
23.5332	1.42037
24.1587	1.43603
24.6448	1.46214
24.9924	1.46736
25.5482	1.48825
25.8953	1.50914
26.4509	1.53525
26.7295	1.5248
27.2853	1.54569
27.7018	1.5718
28.1882	1.58747
28.3275	1.58225
28.8835	1.59791
29.1614	1.60836
29.7172	1.62924
30.4121	1.65013
31.0377	1.6658
31.3156	1.67624
32.0109	1.68668
32.4971	1.70757
33.1924	1.71802
33.2616	1.72846
33.7484	1.73368
33.8178	1.7389
34.3041	1.75457
