Adsorption isotherm of Hydrogen on ITF-1
DOI: 10.1021/Cg401613w
Adsorbate Hydrogen: InChIKey UFHFLCQGNIYNRP-UHFFFAOYSA-N
Temperature: 77 K
Tabular data in the source: 0
pressure (bar)	uptake (wt%)
0.0554529	0.152699
0.110906	0.203599
0.203327	0.215938
0.351201	0.220566
0.462107	0.225193
0.683919	0.231362
1.01664	0.234447
2.97597	0.289974
5.0647	0.362468
7.59704	0.433419
10.1664	0.518252
