Adsorption isotherm of Carbon Dioxide on BPL Carbon
DOI: 10.1016/j.jngse.2016.02.052
Article source: Figure 12(a)- BPL
Adsorbate Carbon Dioxide: InChIKey CURLTUGMZLYLDI-UHFFFAOYSA-N
Kind: experiment
Isotherm type: excess
Temperature: 301 K
Tabular data in the source: 0
pressure (bar)	uptake (mmol/g)
0.3184	0.762
2.2621	2.4048
6.13365	4.1793
12.8904	5.6626
20.2303	6.6005
28.8892	7.1138
