Adsorption isotherm of Carbon Dioxide on Dadas Shale
DOI: 10.1016/j.jngse.2016.02.052
Article source: Figure 14- experiment at 323 K
Adsorbate Carbon Dioxide: InChIKey CURLTUGMZLYLDI-UHFFFAOYSA-N
Kind: experiment
Isotherm type: excess
Temperature: 323 K
Tabular data in the source: 0
pressure (bar)	uptake (mmol/g)
14.8699	0.049253
28.5677	0.070344
44.0478	0.094967
56.5184	0.110682
72.2481	0.119689
84.9496	0.128184
99.7658	0.104882
106.523	0.092642
128.817	0.07415
136.987	0.064982
