Adsorption isotherm of Carbon Dioxide on BPL Carbon
DOI: 10.1016/j.jngse.2016.02.052
Article source: Figure 9- Reich et al (1980) trial 1
Adsorbate Carbon Dioxide: InChIKey CURLTUGMZLYLDI-UHFFFAOYSA-N
Kind: experiment
Isotherm type: excess
Temperature: 301 K
Tabular data in the source: 0
pressure (bar)	uptake (mmol/g)
0.793311	1.2218
1.46858	1.8932
2.53913	2.6162
4.14768	3.5075
6.32173	4.2935
8.96794	4.9695
11.9326	5.5192
