Adsorption isotherm of Methane on Dadas Shale
DOI: 10.1016/j.jngse.2016.02.052
Article source: Figure 10- CH4 at 298
Adsorbate Methane: InChIKey VNWKTOKETHGBQD-UHFFFAOYSA-N
Kind: experiment
Isotherm type: excess
Temperature: 298 K
Tabular data in the source: 0
pressure (bar)	uptake (mmol/g)
13.2166	0.019216
27.7914	0.026116
41.5719	0.032146
55.5069	0.035631
69.1117	0.039116
82.8702	0.04086
96.761	0.04334
110.101	0.044414
123.992	0.044283
138.17	0.044889
