Adsorption isotherm of Methane on Dadas Shale
DOI: 10.1016/j.jngse.2016.02.052
Article source: Figure 10- CH4 at 348 K (first)
Adsorbate Methane: InChIKey VNWKTOKETHGBQD-UHFFFAOYSA-N
Kind: experiment
Isotherm type: excess
Temperature: 348 K
Tabular data in the source: 0
pressure (bar)	uptake (mmol/g)
13.3696	0.004079
27.81	0.007829
41.3465	0.011445
55.1912	0.013119
69.213	0.015262
82.6612	0.016535
96.4404	0.017271
110.198	0.018008
123.911	0.018678
137.27	0.018544
