Adsorption isotherm of Carbon Dioxide on Dadas Shale
DOI: 10.1016/j.jngse.2016.02.052
Article source: Figure 15- Run 3 absolute
Adsorbate Carbon Dioxide: InChIKey CURLTUGMZLYLDI-UHFFFAOYSA-N
Kind: experiment
Isotherm type: absolute
Temperature: 323 K
Tabular data in the source: 0
pressure (bar)	uptake (mmol/g)
14.8306	0.05594
28.5939	0.08223
44.0161	0.11769
56.5591	0.14032
72.1771	0.16416
84.9151	0.19351
99.7527	0.18738
106.341	0.18983
128.792	0.21122
136.942	0.20142
