Adsorption isotherm of Carbon Dioxide on Dadas Shale
DOI: 10.1016/j.jngse.2016.02.052
Article source: Figure 10- CO2 at 323 K
Adsorbate Carbon Dioxide: InChIKey CURLTUGMZLYLDI-UHFFFAOYSA-N
Kind: experiment
Isotherm type: excess
Temperature: 323 K
Tabular data in the source: 0
pressure (bar)	uptake (mmol/g)
15.0202	0.05101
28.6332	0.071694
43.9665	0.097157
56.4219	0.112064
72.1805	0.120624
85.0268	0.130165
99.6996	0.106957
106.556	0.094368
128.82	0.075852
136.791	0.066978
