Adsorption isotherm of Carbon Dioxide on Dadas Shale
DOI: 10.1016/j.jngse.2016.02.052
Article source: Figure 12(b)- 323 K
Adsorbate Carbon Dioxide: InChIKey CURLTUGMZLYLDI-UHFFFAOYSA-N
Kind: experiment
Isotherm type: excess
Temperature: 323 K
Tabular data in the source: 0
pressure (bar)	uptake (mmol/g)
15.0092	0.049891
28.476	0.070894
44.0541	0.096038
56.437	0.110826
72.2453	0.120284
84.9145	0.128709
99.8712	0.106203
106.607	0.094063
128.641	0.074956
136.861	0.06533
