Adsorption isotherm of Carbon Dioxide on Dadas Shale
DOI: 10.1016/j.jngse.2016.02.052
Article source: Figure 15- Run 2 absolute
Adsorbate Carbon Dioxide: InChIKey CURLTUGMZLYLDI-UHFFFAOYSA-N
Kind: experiment
Isotherm type: absolute
Temperature: 298 K
Tabular data in the source: 0
pressure (bar)	uptake (mmol/g)
12.1031	0.12223
29.9198	0.20003
44.2126	0.25441
63.2201	0.34714
76.6083	0.69319
96.5473	0.69525
114.646	0.69319
129.849	0.70909
138.913	0.71249
