Adsorption isotherm of Methane on Dadas Shale
DOI: 10.1016/j.jngse.2016.02.052
Article source: Figure 10- CH4 at 348 K (repeated)
Adsorbate Methane: InChIKey VNWKTOKETHGBQD-UHFFFAOYSA-N
Kind: experiment
Isotherm type: excess
Temperature: 348 K
Tabular data in the source: 0
pressure (bar)	uptake (mmol/g)
14.3652	0.004272
27.9707	0.008027
42.2187	0.011564
56.4122	0.013625
69.7577	0.015813
83.9926	0.017157
97.1437	0.017953
111.323	0.018707
124.627	0.018829
138.14	0.018697
