Adsorption isotherm of Carbon Dioxide on Dadas Shale
DOI: 10.1016/j.jngse.2016.02.052
Article source: Figure 15- Run 2 experiment
Adsorbate Carbon Dioxide: InChIKey CURLTUGMZLYLDI-UHFFFAOYSA-N
Kind: experiment
Isotherm type: excess
Temperature: 298 K
Tabular data in the source: 0
pressure (bar)	uptake (mmol/g)
12.0486	0.10096
29.9357	0.15535
44.2602	0.18132
63.2704	0.21187
76.5697	0.15104
96.5066	0.12626
114.565	0.11096
129.792	0.10239
138.894	0.09811
