Adsorption isotherm of Carbon Dioxide on Dadas Shale
DOI: 10.1016/j.jngse.2016.02.052
Article source: Figure 14- experiment at 348 K
Adsorbate Carbon Dioxide: InChIKey CURLTUGMZLYLDI-UHFFFAOYSA-N
Kind: experiment
Isotherm type: excess
Temperature: 348 K
Tabular data in the source: 0
pressure (bar)	uptake (mmol/g)
12.5664	0.03909
28.1506	0.058462
41.8236	0.067691
55.8475	0.078201
69.5116	0.0862
78.8643	0.091943
100.126	0.088782
114.121	0.080494
124.886	0.071435
137.866	0.06837
