Adsorption isotherm of Methane on Dadas Shale
DOI: 10.1016/j.jngse.2016.02.052
Article source: Figure 10- CH4 at 323
Adsorbate Methane: InChIKey VNWKTOKETHGBQD-UHFFFAOYSA-N
Kind: experiment
Isotherm type: excess
Temperature: 323 K
Tabular data in the source: 0
pressure (bar)	uptake (mmol/g)
13.3338	0.007228
27.8224	0.012489
41.5781	0.018193
55.1918	0.020637
69.0751	0.023703
82.9949	0.025776
96.4514	0.027902
110.695	0.029709
123.976	0.029656
137.888	0.029656
