Adsorption isotherm of Carbon Dioxide on Dadas Shale
DOI: 10.1016/j.jngse.2016.02.052
Article source: Figure 15- Run 4 absolute
Adsorbate Carbon Dioxide: InChIKey CURLTUGMZLYLDI-UHFFFAOYSA-N
Kind: experiment
Isotherm type: absolute
Temperature: 348 K
Tabular data in the source: 0
pressure (bar)	uptake (mmol/g)
12.6981	0.04176
28.0506	0.06746
41.8636	0.07755
55.7255	0.09346
69.5633	0.10692
78.7643	0.11885
100.069	0.12527
113.906	0.1216
124.644	0.11579
137.652	0.12191
