Adsorption isotherm of Carbon Dioxide on BPL Activated Carbon
DOI: 10.1016/j.jngse.2016.02.052
Article source: Figure 9- Reich et al trial 2
Adsorbate Carbon Dioxide: InChIKey CURLTUGMZLYLDI-UHFFFAOYSA-N
Kind: experiment
Isotherm type: excess
Temperature: 301 K
Tabular data in the source: 0
pressure (bar)	uptake (mmol/g)
11.7061	5.49
14.0578	5.8616
17.0529	6.1772
20.4422	6.5105
24.0459	6.7612
27.6012	6.9618
31.1635	7.1447
