Adsorption isotherm of Carbon Dioxide on Dadas Shale
DOI: 10.1016/j.jngse.2016.02.052
Article source: Figure 10- CO2 at 348 K (first)
Adsorbate Carbon Dioxide: InChIKey CURLTUGMZLYLDI-UHFFFAOYSA-N
Kind: experiment
Isotherm type: excess
Temperature: 348 K
Tabular data in the source: 0
pressure (bar)	uptake (mmol/g)
12.7643	0.039195
28.3892	0.058275
41.8264	0.067684
56.0233	0.077795
69.595	0.085247
78.9657	0.090986
100.172	0.087527
114.189	0.079837
125.008	0.070605
138.001	0.06711
