Adsorption isotherm of Carbon Dioxide on Dadas Shale
DOI: 10.1016/j.jngse.2016.02.052
Article source: Figure 14- experiment at 298 K
Adsorbate Carbon Dioxide: InChIKey CURLTUGMZLYLDI-UHFFFAOYSA-N
Kind: experiment
Isotherm type: excess
Temperature: 298 K
Tabular data in the source: 0
pressure (bar)	uptake (mmol/g)
11.9645	0.101315
30.0584	0.154738
44.1458	0.182141
63.2732	0.211491
76.6318	0.150128
96.6273	0.125747
114.814	0.111354
130.018	0.103056
139.047	0.098293
