Adsorption isotherm of Carbon Dioxide on Dadas Shale
DOI: 10.1016/j.jngse.2016.02.052
Article source: Figure 15- Run 4 experiment
Adsorbate Carbon Dioxide: InChIKey CURLTUGMZLYLDI-UHFFFAOYSA-N
Kind: experiment
Isotherm type: excess
Temperature: 348 K
Tabular data in the source: 0
pressure (bar)	uptake (mmol/g)
12.8608	0.03944
28.2782	0.05982
42.0298	0.06516
56.0137	0.07778
69.7267	0.08263
78.9077	0.0938
100.213	0.08555
114.119	0.07972
124.811	0.06904
137.788	0.06565
