Adsorption isotherm of Carbon Dioxide on Dadas Shale
DOI: 10.1016/j.jngse.2016.02.052
Article source: Figure 12(b)- 348 K
Adsorbate Carbon Dioxide: InChIKey CURLTUGMZLYLDI-UHFFFAOYSA-N
Kind: experiment
Isotherm type: excess
Temperature: 348 K
Tabular data in the source: 0
pressure (bar)	uptake (mmol/g)
12.5912	0.038905
28.2264	0.058436
42.0946	0.066794
56.1619	0.078408
69.6874	0.08536
79.0753	0.091204
100.25	0.087944
114.263	0.079728
124.794	0.071365
137.837	0.06818
