Adsorption isotherm of Carbon Dioxide on BPL Carbon
DOI: 10.1016/j.jngse.2016.02.052
Article source: Figure 9- This study run 1
Adsorbate Carbon Dioxide: InChIKey CURLTUGMZLYLDI-UHFFFAOYSA-N
Kind: experiment
Isotherm type: excess
Temperature: 301 K
Tabular data in the source: 0
pressure (bar)	uptake (mmol/g)
0.315987	0.7597
2.26465	2.4331
6.13606	4.1755
12.8604	5.6754
20.2096	6.5904
28.8646	7.127
