Adsorption isotherm of Carbon Dioxide on Dadas Shale
DOI: 10.1016/j.jngse.2016.02.052
Article source: Figure 15- Run 3 experiment
Adsorbate Carbon Dioxide: InChIKey CURLTUGMZLYLDI-UHFFFAOYSA-N
Kind: experiment
Isotherm type: excess
Temperature: 323 K
Tabular data in the source: 0
pressure (bar)	uptake (mmol/g)
14.7651	0.04553
28.5753	0.06663
44.0692	0.0914
56.4639	0.11036
72.1047	0.11708
84.8896	0.12656
99.7003	0.10057
106.313	0.09018
128.687	0.0703
136.837	0.06266
