Adsorption isotherm of Carbon Dioxide on Dadas Shale
DOI: 10.1016/j.jngse.2016.02.052
Article source: Figure 10- CO2 at 348 experiment 2
Adsorbate Carbon Dioxide: InChIKey CURLTUGMZLYLDI-UHFFFAOYSA-N
Kind: experiment
Isotherm type: excess
Temperature: 348 K
Tabular data in the source: 0
pressure (bar)	uptake (mmol/g)
13.0787	0.03877
28.6339	0.057797
42.4048	0.06723
56.2102	0.077859
68.94	0.085061
79.2987	0.09096
99.7368	0.087585
113.806	0.079773
125.084	0.070578
138.173	0.067177
