Adsorption isotherm of Carbon Dioxide on Dadas Shale
DOI: 10.1016/j.jngse.2016.02.052
Article source: Figure 12(b)- 298 K
Adsorbate Carbon Dioxide: InChIKey CURLTUGMZLYLDI-UHFFFAOYSA-N
Kind: experiment
Isotherm type: excess
Temperature: 298 K
Tabular data in the source: 0
pressure (bar)	uptake (mmol/g)
12.0672	0.102889
30.128	0.155219
44.1575	0.182776
63.2215	0.210328
76.6635	0.149397
96.6555	0.125904
114.923	0.110609
129.954	0.103142
138.945	0.097544
