Adsorption isotherm of Carbon Dioxide on Dadas Shale
DOI: 10.1016/j.jngse.2016.02.052
Article source: Figure 10- CO2 at 298
Adsorbate Carbon Dioxide: InChIKey CURLTUGMZLYLDI-UHFFFAOYSA-N
Kind: experiment
Isotherm type: excess
Temperature: 298 K
Tabular data in the source: 0
pressure (bar)	uptake (mmol/g)
12.0389	0.1011
30.1377	0.153709
44.2802	0.18113
63.2525	0.209717
76.7373	0.149097
96.6376	0.124907
114.807	0.109576
130.01	0.101856
