Adsorption isotherm of Carbon Dioxide on ZIF-8
DOI: 10.1016/j.micromeso.2012.09.002
Adsorbate Carbon Dioxide: InChIKey CURLTUGMZLYLDI-UHFFFAOYSA-N
Temperature: 303 K
Tabular data in the source: 0
pressure (bar)	uptake (mmol/g)
1.59567	0.53888
2.59296	1.19864
3.78971	1.79808
4.58755	2.39799
5.38538	2.93782
7.77889	3.95644
9.1751	4.55564
10.7708	4.97435
12.3664	5.33297
14.361	5.69112
16.1562	6.04951
18.1507	6.28749
19.9459	6.5257
22.3394	6.76321
24.5334	6.82069
26.528	7.05867
28.5226	7.17647
30.9161	7.29381
32.9107	7.41161
34.9053	7.52942
36.8999	7.64722
