Adsorption isotherm of Hydrogen on Carbon Nanotube
DOI: 10.1016/j.micromeso.2012.09.002
Adsorbate Hydrogen: InChIKey UFHFLCQGNIYNRP-UHFFFAOYSA-N
Temperature: 200 K
Tabular data in the source: 0
pressure (bar)	uptake (wt%)
4.73113	0.327511
21.2901	0.764192
39.0318	1.00437
69.7841	1.17904
100.536	1.31004
199.89	1.59389
300.427	1.70306
