Adsorption isotherm of Hydrogen on Carbon Nanotube
DOI: 10.1016/j.micromeso.2012.09.002
Adsorbate Hydrogen: InChIKey UFHFLCQGNIYNRP-UHFFFAOYSA-N
Temperature: 200 K
Tabular data in the source: 0
pressure (bar)	uptake (wt%)
2.36556	0.196507
7.09669	0.436681
11.8278	0.633188
17.7417	0.786026
24.8384	0.938865
34.3007	1.04803
47.3113	1.17904
60.3219	1.24454
75.6981	1.28821
91.0742	1.35371
106.45	1.37555
131.289	1.39738
152.579	1.46288
176.235	1.46288
197.525	1.48472
219.997	1.50655
241.288	1.50655
257.846	1.52838
280.319	1.52838
295.696	1.52838
302.792	1.52838
