Adsorption isotherm of Hydrogen on Carbon Tube
DOI: 10.1016/j.micromeso.2012.09.002
Adsorbate Hydrogen: InChIKey UFHFLCQGNIYNRP-UHFFFAOYSA-N
Temperature: 243 K
Tabular data in the source: 0
pressure (bar)	uptake (wt%)
3.59026	0.0934579
9.57402	0.261682
16.7545	0.392523
27.5253	0.560748
35.9026	0.672897
46.6733	0.785047
57.4441	0.859813
69.4116	0.934579
82.5759	1.00935
94.5434	1.06542
107.708	1.1028
120.872	1.14019
132.839	1.17757
144.807	1.21495
156.775	1.21495
171.136	1.25234
183.103	1.27103
196.267	1.28972
209.432	1.30841
221.399	1.30841
234.563	1.3271
247.728	1.34579
259.695	1.36449
274.056	1.36449
287.22	1.36449
300.385	1.38318
