Adsorption isotherm of Carbon Dioxide on ZIF-76
DOI: 10.1016/j.micromeso.2012.09.002
Adsorbate Carbon Dioxide: InChIKey CURLTUGMZLYLDI-UHFFFAOYSA-N
Temperature: 303 K
Tabular data in the source: 0
pressure (bar)	uptake (mmol/g)
0.587466	0.603448
1.56886	1.44828
2.55282	2.11207
3.73375	2.89655
4.71771	3.56034
6.29685	4.28448
8.07551	4.94828
9.85333	5.67241
12.228	6.33621
14.6036	6.93966
16.5835	7.42241
18.7629	7.84483
20.7454	8.14655
22.727	8.50862
24.9073	8.87069
27.2872	9.17241
29.2705	9.41379
31.4517	9.71552
33.8332	9.89655
36.0152	10.1379
38.3959	10.3793
40.9753	10.6207
43.356	10.8621
46.1349	11.0431
48.3186	11.1638
50.105	11.2845
