Adsorption isotherm of Hydrogen on Carbon Slit
DOI: 10.1016/j.micromeso.2012.09.002
Adsorbate Hydrogen: InChIKey UFHFLCQGNIYNRP-UHFFFAOYSA-N
Temperature: 200 K
Tabular data in the source: 0
pressure (bar)	uptake (wt%)
2.36556	0.152838
7.09669	0.436681
11.8278	0.676856
17.7417	0.895197
23.6556	1.13537
29.5696	1.39738
37.849	1.65939
46.1285	1.94323
55.5908	2.20524
68.6014	2.48908
82.7947	2.72926
93.4398	2.9476
109.999	3.18777
124.192	3.38428
137.203	3.53712
153.762	3.68996
169.138	3.84279
184.514	3.9738
201.073	4.1048
218.815	4.23581
236.556	4.34498
253.115	4.43231
267.309	4.49782
286.233	4.58515
302.792	4.67249
