Adsorption isotherm of Hydrogen on IRMOF-1
DOI: 10.1016/j.micromeso.2012.09.002
Adsorbate Hydrogen: InChIKey UFHFLCQGNIYNRP-UHFFFAOYSA-N
Temperature: 298 K
Tabular data in the source: 0
pressure (bar)	uptake (wt%)
12.4954	0.146341
17.3013	0.243902
22.5879	0.341463
25.952	0.341463
27.8744	0.390244
33.1609	0.487805
35.5639	0.585366
44.2145	0.634146
46.6175	0.731707
51.904	0.731707
54.7876	0.780488
57.6711	0.878049
63.4383	0.926829
66.3218	0.97561
69.686	0.97561
72.0889	1.07317
74.9725	1.07317
77.3755	1.12195
83.6232	1.17073
89.8709	1.31707
96.1186	1.41463
98.5215	1.41463
101.886	1.46341
104.769	1.46341
107.653	1.5122
111.498	1.56098
117.265	1.56098
