Adsorption isotherm of Hydrogen on IRMOF-1
DOI: 10.1016/j.micromeso.2012.09.002
Adsorbate Hydrogen: InChIKey UFHFLCQGNIYNRP-UHFFFAOYSA-N
Temperature: 77 K
Tabular data in the source: 0
pressure (bar)	uptake (wt%)
2.88356	2.73171
4.32534	3.80488
6.7283	4.73171
8.65067	5.41463
12.0148	6.14634
14.4178	6.63415
16.8208	7.02439
19.7043	7.36585
22.5879	7.65854
25.952	7.90244
29.3162	8.04878
32.1997	8.2439
35.5639	8.39024
38.928	8.53659
41.8116	8.63415
45.6563	8.73171
48.5399	8.87805
51.904	9.02439
55.2682	9.02439
59.1129	9.12195
62.4771	9.21951
65.8412	9.31707
69.686	9.36585
73.5307	9.41463
76.8949	9.5122
80.7396	9.56098
84.1038	9.65854
87.9485	9.65854
92.7544	9.80488
96.5992	9.85366
100.444	10
104.289	10
109.095	10.0488
112.939	10.1463
117.745	10.1951
121.59	10.2927
