Adsorption isotherm of Carbon Dioxide on ZIF-76
DOI: 10.1016/j.micromeso.2012.09.002
Adsorbate Carbon Dioxide: InChIKey CURLTUGMZLYLDI-UHFFFAOYSA-N
Temperature: 303 K
Tabular data in the source: 0
pressure (bar)	uptake (mmol/g)
2.36356	1.44828
3.54792	1.99138
4.73227	2.53448
6.1153	3.07759
7.3005	3.56034
8.68353	4.10345
9.86874	4.58621
11.4504	5.12931
12.836	5.49138
14.8168	5.91379
16.3994	6.39655
18.184	6.63793
19.7683	7
22.1499	7.18103
23.9345	7.42241
25.9196	7.5431
27.9038	7.72414
30.0875	7.84483
32.0725	7.96552
34.455	8.08621
36.6387	8.2069
