Adsorption isotherm of Methane on Activated Carbon AX21
DOI: 10.1016/j.micromeso.2012.09.002
Adsorbate Methane: InChIKey VNWKTOKETHGBQD-UHFFFAOYSA-N
Temperature: 243 K
Tabular data in the source: 0
pressure (bar)	uptake (wt%)
1.20148	4.71616
3.12385	10.8297
4.08504	12.9258
6.12756	16.2445
9.9723	20.0873
12.0148	21.31
14.8984	23.0568
20.0648	26.2009
24.9908	28.4716
29.9169	30.393
