Adsorption isotherm of Carbon Dioxide on ZIF-69
DOI: 10.1016/j.micromeso.2012.09.002
Adsorbate Carbon Dioxide: InChIKey CURLTUGMZLYLDI-UHFFFAOYSA-N
Temperature: 303 K
Tabular data in the source: 0
pressure (bar)	uptake (mmol/g)
0.591391	0.477934
0.985652	1.13559
5.32252	3.76295
10.645	4.47461
21.4872	4.76095
