Adsorption isotherm of Carbon Dioxide on ZIF-8
DOI: 10.1016/j.micromeso.2012.09.002
Adsorbate Carbon Dioxide: InChIKey CURLTUGMZLYLDI-UHFFFAOYSA-N
Temperature: 303 K
Tabular data in the source: 0
pressure (bar)	uptake (mmol/g)
0.398917	0.241379
1.39621	0.844828
2.19405	1.38793
3.3908	1.99138
4.18863	2.35345
5.58484	3.01724
6.78159	3.43966
8.37726	4.0431
9.77347	4.40517
11.5686	4.94828
13.3637	5.43103
15.5578	5.85345
17.7518	6.27586
19.9459	6.69828
21.9405	6.93966
23.5361	7.18103
25.5307	7.36207
27.9242	7.72414
31.315	8.02586
34.7058	8.26724
37.8971	8.56897
40.0912	8.68966
42.6842	8.93103
45.4766	8.99138
48.269	9.17241
50.0641	9.23276
