Adsorption isotherm of Hydrogen on Carbon Slit
DOI: 10.1016/j.micromeso.2012.09.002
Adsorbate Hydrogen: InChIKey UFHFLCQGNIYNRP-UHFFFAOYSA-N
Temperature: 243 K
Tabular data in the source: 0
pressure (bar)	uptake (wt%)
2.3935	0.0560748
7.18051	0.205607
14.361	0.392523
21.5415	0.598131
29.9188	0.803738
35.9026	0.953271
45.4766	1.15888
55.0506	1.34579
63.4279	1.47664
70.6084	1.62617
78.9856	1.75701
89.7564	1.90654
98.1337	2.03738
107.708	2.16822
128.052	2.41121
137.626	2.52336
149.594	2.6729
161.562	2.76636
178.316	2.93458
191.48	3.02804
202.251	3.1215
214.219	3.21495
230.973	3.3271
246.531	3.42056
260.892	3.51402
277.646	3.60748
294.401	3.70093
303.975	3.73832
