Adsorption isotherm of Carbon Dioxide on ZIF-69
DOI: 10.1016/j.micromeso.2012.09.002
Adsorbate Carbon Dioxide: InChIKey CURLTUGMZLYLDI-UHFFFAOYSA-N
Temperature: 298 K
Tabular data in the source: 0
pressure (bar)	uptake (mmol/g)
0.394261	0.837141
0.788521	1.37514
1	2.01
