Adsorption isotherm of Hydrogen on IRMOF-1
DOI: 10.1016/j.micromeso.2012.09.002
Adsorbate Hydrogen: InChIKey UFHFLCQGNIYNRP-UHFFFAOYSA-N
Temperature: 298 K
Tabular data in the source: 0
pressure (bar)	uptake (wt%)
11.5342	0.097561
18.7431	0.243902
24.9908	0.390244
33.1609	0.439024
39.4086	0.585366
48.0593	0.731707
55.2682	0.829268
61.5159	0.926829
69.686	1.02439
77.3755	1.12195
86.5067	1.26829
92.2738	1.31707
98.5215	1.41463
105.25	1.5122
110.536	1.56098
116.784	1.60976
121.109	1.70732
