Adsorption isotherm of Hydrogen on IRMOF-1
DOI: 10.1016/j.micromeso.2012.09.002
Adsorbate Hydrogen: InChIKey UFHFLCQGNIYNRP-UHFFFAOYSA-N
Temperature: 298 K
Tabular data in the source: 0
pressure (bar)	uptake (wt%)
4.32534	0.0487805
7.20889	0.097561
10.0925	0.097561
14.8984	0.195122
19.7043	0.243902
29.7968	0.439024
40.8504	0.536585
60.5547	0.878049
80.259	1.17073
100.925	1.41463
120.629	1.65854
