Adsorption isotherm of Carbon Dioxide on ZIF-8
DOI: 10.1016/j.micromeso.2012.09.002
Adsorbate Carbon Dioxide: InChIKey CURLTUGMZLYLDI-UHFFFAOYSA-N
Temperature: 303 K
Tabular data in the source: 0
pressure (bar)	uptake (mmol/g)
0.598376	0.179548
1.19675	0.238924
4.98647	2.39752
9.97293	4.73495
19.7464	6.52594
50.0641	7.21101
