Adsorption isotherm of Methane on Activated Carbon AX21
DOI: 10.1016/j.micromeso.2012.09.002
Adsorbate Methane: InChIKey VNWKTOKETHGBQD-UHFFFAOYSA-N
Temperature: 243 K
Tabular data in the source: 0
pressure (bar)	uptake (wt%)
0.120148	0.69869
0.600741	2.96943
1.08133	4.71616
1.80222	7.51092
2.52311	9.95633
3.4843	12.2271
4.32534	14.1485
5.28652	15.7205
6.7283	17.6419
8.04993	19.214
9.9723	21.31
11.8947	22.5328
13.4566	23.5808
15.2588	24.4541
16.9409	25.5022
19.1036	26.2009
20.7856	26.8996
22.3476	27.4236
23.9095	27.9476
25.7117	28.2969
27.7542	28.9956
29.196	29.345
30.2774	29.5197
