Adsorption isotherm of Carbon Dioxide on ZIF-69
DOI: 10.1016/j.micromeso.2012.09.002
Adsorbate Carbon Dioxide: InChIKey CURLTUGMZLYLDI-UHFFFAOYSA-N
Temperature: 303 K
Tabular data in the source: 0
pressure (bar)	uptake (mmol/g)
0.394261	0.657654
0.788521	1.85377
1.37991	2.69068
1.9713	3.40793
3.35122	4.06442
4.92826	4.60102
7.29382	4.9572
9.26513	5.13436
12.4192	5.36995
15.179	5.48635
17.9389	5.54292
20.6987	5.65932
24.4442	5.71472
29.1753	5.70914
34.1036	5.76314
37.849	5.81855
41.0031	5.87465
44.3543	5.8707
47.9027	5.86651
50.0711	5.92378
