Adsorption isotherm of Carbon Dioxide on ZIF-76
DOI: 10.1016/j.micromeso.2012.09.002
Adsorbate Carbon Dioxide: InChIKey CURLTUGMZLYLDI-UHFFFAOYSA-N
Temperature: 303 K
Tabular data in the source: 0
pressure (bar)	uptake (mmol/g)
0.195251	0.241379
0.589178	0.482759
0.979681	0.965517
4.91296	3.80172
9.84391	6.33621
19.7349	9.35345
49.7222	10.2586
