Adsorption isotherm of Hydrogen on IRMOF-1
DOI: 10.1016/j.micromeso.2012.09.002
Adsorbate Hydrogen: InChIKey UFHFLCQGNIYNRP-UHFFFAOYSA-N
Temperature: 77 K
Tabular data in the source: 0
pressure (bar)	uptake (wt%)
0.480593	0.926829
0.961186	1.60976
2.40296	2.73171
3.36415	3.56098
3.84474	4.19512
5.28652	4.78049
6.24771	5.26829
8.17008	5.95122
10.0925	6.53659
15.379	7.46341
20.1849	8
30.2774	8.73171
40.3698	9.31707
60.5547	9.85366
80.259	10.2439
100.444	10.5366
120.629	10.7317
