Adsorption isotherm of Hydrogen on Carbon Sphere
DOI: 10.1016/j.micromeso.2012.09.002
Adsorbate Hydrogen: InChIKey UFHFLCQGNIYNRP-UHFFFAOYSA-N
Temperature: 243 K
Tabular data in the source: 0
pressure (bar)	uptake (wt%)
3.59026	0.0747664
7.18051	0.186916
10.7708	0.242991
20.3448	0.299065
32.3123	0.35514
40.6896	0.373832
50.2636	0.373832
61.0344	0.392523
73.0019	0.392523
89.7564	0.411215
100.527	0.429907
113.691	0.429907
124.462	0.429907
137.626	0.429907
149.594	0.429907
163.955	0.429907
178.316	0.429907
190.284	0.448598
199.858	0.429907
214.219	0.448598
226.186	0.448598
236.957	0.448598
248.924	0.46729
260.892	0.46729
272.859	0.46729
282.433	0.448598
299.188	0.448598
303.975	0.46729
