Adsorption isotherm of Hydrogen on IRMOF-1
DOI: 10.1016/j.micromeso.2012.09.002
Adsorbate Hydrogen: InChIKey UFHFLCQGNIYNRP-UHFFFAOYSA-N
Temperature: 77 K
Tabular data in the source: 0
pressure (bar)	uptake (wt%)
0.480593	0.682927
0.961186	1.26829
2.40296	2.09756
2.88356	2.78049
4.32534	3.56098
5.76711	4.29268
7.20889	4.82927
9.13126	5.5122
12.0148	6.04878
15.379	6.58537
18.2625	7.02439
22.1073	7.41463
26.9132	7.7561
31.2385	8.04878
35.0833	8.29268
41.331	8.58537
48.5399	8.73171
54.307	8.87805
61.0353	9.12195
66.3218	9.21951
74.0113	9.36585
78.8172	9.5122
84.5843	9.60976
90.8321	9.65854
97.5604	9.80488
101.886	9.90244
109.095	9.95122
114.862	10.0976
119.187	10.0976
121.59	10.0976
