Adsorption isotherm of Hydrogen on Carbon Slit
DOI: 10.1016/j.micromeso.2012.09.002
Adsorbate Hydrogen: InChIKey UFHFLCQGNIYNRP-UHFFFAOYSA-N
Temperature: 200 K
Tabular data in the source: 0
pressure (bar)	uptake (wt%)
4.73113	0.196507
20.1073	0.960699
40.2146	1.52838
70.9669	2.20524
101.719	2.66376
201.073	3.68996
300.427	4.14847
