Adsorption isotherm of Ethene on ZIF-8
DOI: 10.1016/j.micromeso.2015.05.008
Article source: Figure 2a
Adsorbate Ethene: InChIKey VGGSQFUCUMXWEO-UHFFFAOYSA-N
Kind: experiment
Temperature: 298 K
Tabular data in the source: 0
pressure (bar)	uptake (molecules/cage)
0.021361	0.113475
0.048817	0.170213
0.09913	0.283688
0.194599	0.510638
0.483482	1.30496
0.886482	2.29787
1.26232	3.03546
1.65215	3.77305
2.05608	4.31206
2.47377	4.9078
2.92691	5.3617
3.40573	5.64539
4.03051	5.90071
4.68932	6.29787
5.27631	6.43972
6.45773	6.78014
7.64346	6.89362
