Adsorption isotherm of Methanol on ZIF-8
DOI: 10.1016/j.micromeso.2015.05.008
Article source: Figure 2a
Adsorbate Methanol: InChIKey OKKJLVBELUTLKV-UHFFFAOYSA-N
Kind: experiment
Temperature: 298 K
Tabular data in the source: 0
pressure (bar)	uptake (molecules/cage)
0.007016	0.141844
0.012873	0.48227
0.016852	1.02128
0.018634	1.64539
0.020261	2.2695
0.021297	2.95035
0.022765	3.74468
0.023133	4.51064
0.024312	5.3617
0.025122	6.29787
0.025964	7.00709
0.026404	7.06383
0.02729	7.77305
0.027735	8.42553
0.028669	9.02128
0.030126	9.98582
0.030619	10.5816
0.03218	11.4326
0.03441	11.8865
0.038065	12.1418
0.044301	12.227
0.058024	12.2837
0.06313	12.2837
0.084094	12.3121
