Adsorption isotherm of Carbon Dioxide on ZIF-8
DOI: 10.1016/j.micromeso.2015.05.008
Article source: Figure 2a
Adsorbate Carbon Dioxide: InChIKey CURLTUGMZLYLDI-UHFFFAOYSA-N
Kind: experiment
Temperature: 298 K
Tabular data in the source: 0
pressure (bar)	uptake (molecules/cage)
0.020309	0.028369
0.049654	0.028369
0.100842	0.056738
0.197984	0.170213
0.492142	0.48227
0.982245	0.992908
1.49675	1.47518
1.99265	2.04255
2.47976	2.60993
2.98401	3.03546
3.47128	3.57447
3.90364	4.22695
4.46591	4.59574
4.93787	5.30496
5.37081	5.58865
5.83983	6.1844
6.46234	6.09929
6.79141	7.00709
7.51242	7.29078
