Adsorption isotherm of Methane on ZIF-8
DOI: 10.1016/j.micromeso.2015.05.008
Article source: Figure 2a
Adsorbate Methane: InChIKey VNWKTOKETHGBQD-UHFFFAOYSA-N
Kind: experiment
Temperature: 298 K
Tabular data in the source: 0
pressure (bar)	uptake (molecules/cage)
0.021726	0.056738
0.050498	0.056738
0.106077	0.056738
0.201363	0.113475
0.492266	0.22695
0.982902	0.368794
1.44844	0.595745
1.96196	0.765957
2.44259	0.93617
2.93995	1.13475
3.4796	1.30496
3.98171	1.44681
4.4793	1.75887
4.87315	1.8156
5.48315	1.95745
5.96499	2.07092
6.48888	2.21277
6.94081	2.35461
7.42438	2.46809
