Adsorption isotherm of Ethanol on ZIF-8
DOI: 10.1016/j.micromeso.2015.05.008
Article source: Figure 7d
Adsorbate Ethanol: InChIKey LFQSCWFLJHTTHZ-UHFFFAOYSA-N
Kind: experiment
Temperature: 298 K
Tabular data in the source: 0
pressure (bar)	uptake (molecules/cage)
0	0.022857
0.002659	0.227052
0.0036	0.455086
0.004452	1.07174
0.004699	2.07732
0.004939	3.65432
0.00519	4.24846
0.005613	4.88822
0.006292	5.5964
0.006974	6.0303
0.009112	6.80622
0.011938	7.35318
0.014168	7.5119
0.016398	7.67063
0.019057	7.89768
