Adsorption isotherm of Propene on ZIF-8
DOI: 10.1016/j.micromeso.2015.05.008
Article source: Figure 2a
Adsorbate Propene: InChIKey QQONPFPTGQHPMA-UHFFFAOYSA-N
Kind: experiment
Temperature: 298 K
Tabular data in the source: 0
pressure (bar)	uptake (molecules/cage)
0.060741	0.879433
0.117166	1.7305
0.190924	2.60993
0.295706	3.63121
0.442955	4.34043
0.620412	4.79433
0.721955	5.02128
