Adsorption isotherm of Methanol on ZIF-8
DOI: 10.1016/j.micromeso.2015.05.008
Article source: Figure 7d
Adsorbate Methanol: InChIKey OKKJLVBELUTLKV-UHFFFAOYSA-N
Kind: experiment
Temperature: 298 K
Tabular data in the source: 0
pressure (bar)	uptake (molecules/cage)
0	0.022857
0.005493	0.08829
0.010555	0.313969
0.013812	0.723536
0.015181	1.11133
0.016378	1.59064
0.017231	2.0473
0.018084	2.59538
0.018851	3.12066
0.019617	3.7145
0.020469	4.33116
0.02115	4.81077
0.021407	4.8792
0.022002	5.38171
0.022684	5.83847
0.023195	6.20389
0.024046	6.88912
0.024815	7.27725
0.026267	7.8707
0.028067	8.18968
0.03064	8.37106
0.036219	8.43645
