Adsorption isotherm of Ethanol on ZIF-8
DOI: 10.1016/j.micromeso.2015.05.008
Article source: Figure 2a
Adsorbate Ethanol: InChIKey LFQSCWFLJHTTHZ-UHFFFAOYSA-N
Kind: experiment
Temperature: 298 K
Tabular data in the source: 0
pressure (bar)	uptake (molecules/cage)
0.00255	0.170213
0.002821	0.198582
0.003572	0.425532
0.004371	1.04965
0.004593	2.04255
0.004823	3.65957
0.005156	4.28369
0.00542	4.87943
0.006199	5.64539
0.006856	6.04255
0.009125	6.83688
0.011745	7.40426
0.013902	7.5461
0.016178	7.71631
0.018826	7.94326
0.057286	8.42553
