Adsorption isotherm of N-propane on ZIF-8
DOI: 10.1016/j.micromeso.2015.05.008
Article source: Figure 2a
Adsorbate N-propane: InChIKey ATUOYWHBWRKTHZ-UHFFFAOYSA-N
Kind: experiment
Temperature: 298 K
Tabular data in the source: 0
pressure (bar)	uptake (molecules/cage)
0.06172	1.70213
0.119064	2.49645
0.166759	2.95035
0.197351	3.20567
0.290703	3.82979
0.498345	4.59574
