Adsorption isotherm of Ethanol on ZIF-8
DOI: 10.1016/j.micromeso.2015.05.008
Article source: Figure 2a
Adsorbate Ethanol: InChIKey LFQSCWFLJHTTHZ-UHFFFAOYSA-N
Kind: experiment
Temperature: 298 K
Tabular data in the source: 0
pressure (bar)	uptake (molecules/cage)
0.010001	0.022857
0.018444	0.227052
0.02291	0.455086
0.027874	1.07174
0.029504	2.07732
0.031184	3.65432
0.033041	4.24846
0.036415	4.88822
0.042578	5.5964
0.049819	6.0303
0.081499	6.80622
0.156254	7.35318
0.261114	7.5119
0.436355	7.67063
0.804804	7.89768
