Adsorption isotherm of Ethane on ZIF-8
DOI: 10.1016/j.micromeso.2015.05.008
Article source: Figure 7d
Adsorbate Ethane: InChIKey OTMSDBZUPAUEDD-UHFFFAOYSA-N
Kind: experiment
Temperature: 298 K
Tabular data in the source: 0
pressure (bar)	uptake (molecules/cage)
0	0.022857
0.000343	0.228571
0.000601	0.48
0.001202	1.02857
0.00206	1.55429
0.002833	2.19429
0.004549	2.97143
0.005751	3.45143
0.007983	4.02286
0.0103	4.48
0.013305	5.12
0.015966	5.89714
0.020086	6.01143
0.024034	6.28571
0.027983	6.90286
0.033734	6.97143
0.04	6.94857
