Adsorption isotherm of Ethane on ZIF-8
DOI: 10.1016/j.micromeso.2015.05.008
Article source: Figure 2a
Adsorbate Ethane: InChIKey OTMSDBZUPAUEDD-UHFFFAOYSA-N
Kind: experiment
Temperature: 298 K
Tabular data in the source: 0
pressure (bar)	uptake (molecules/cage)
0.021724	0.113475
0.050487	0.255319
0.097449	0.510638
0.194491	1.04965
0.344929	1.58865
0.499609	2.1844
0.800553	3.00709
1.0133	3.46099
1.39528	4.05674
1.766	4.56738
2.27306	5.16312
2.7808	5.92908
3.58113	6.01418
4.16687	6.32624
4.76596	6.92199
5.83459	7.03546
6.90717	6.97872
8.03711	7.26241
