Adsorption isotherm of Carbon Dioxide, Methane on SAPO-34
DOI: 10.1260/0263-6174.32.9.707
Article source: Figure 7 & 8
Adsorbate Carbon Dioxide: InChIKey CURLTUGMZLYLDI-UHFFFAOYSA-N
Adsorbate Methane: InChIKey VNWKTOKETHGBQD-UHFFFAOYSA-N
Kind: experiment
Temperature: 303 K
Tabular data in the source: 0
pressure (bar)	Carbon Dioxide fraction	Carbon Dioxide uptake (mmol/g)	Methane fraction	Methane uptake (mmol/g)	total uptake (mmol/g)
2.21	0.5	1.50049	0.5	0.30951	1.81
5.46	0.5	2.37475	0.5	0.57525	2.95
6.06	0.5	2.44881	0.5	0.54119	2.99
7.41	0.5	2.59108	0.5	0.47892	3.07
8.8	0.5	2.71083	0.5	0.55917	3.27
