Adsorption isotherm of Carbon Dioxide, Methane on SAPO-34
DOI: 10.1260/0263-6174.32.9.707
Article source: Figure 7 & 8
Adsorbate Carbon Dioxide: InChIKey CURLTUGMZLYLDI-UHFFFAOYSA-N
Adsorbate Methane: InChIKey VNWKTOKETHGBQD-UHFFFAOYSA-N
Kind: experiment
Temperature: 303 K
Tabular data in the source: 0
pressure (bar)	Carbon Dioxide fraction	Carbon Dioxide uptake (mmol/g)	Methane fraction	Methane uptake (mmol/g)	total uptake (mmol/g)
2.81	0.15	0.73728	0.85	0.54272	1.28
6.2	0.15	1.3202	0.85	0.7298	2.05
7.82	0.15	1.48288	0.85	0.75712	2.24
8.66	0.15	1.57685	0.85	0.77315	2.35
