Adsorption isotherm of Methane on SAPO-34
DOI: 10.1260/0263-6174.32.9.707
Article source: Figure 2
Adsorbate Methane: InChIKey VNWKTOKETHGBQD-UHFFFAOYSA-N
Kind: experiment
Temperature: 303 K
Tabular data in the source: 0
pressure (bar)	uptake (mmol/g)
0.433	0.174
1.19	0.413
2.08	0.653
3.1	0.856
4.14	1.03
5.2	1.17
6.25	1.29
7.28	1.41
8.3	1.5
9.33	1.6
