Adsorption isotherm of Carbon Dioxide, Methane on SAPO-34
DOI: 10.1260/0263-6174.32.9.707
Article source: Figure 7 & 8
Adsorbate Carbon Dioxide: InChIKey CURLTUGMZLYLDI-UHFFFAOYSA-N
Adsorbate Methane: InChIKey VNWKTOKETHGBQD-UHFFFAOYSA-N
Kind: experiment
Temperature: 303 K
Tabular data in the source: 0
pressure (bar)	Carbon Dioxide fraction	Carbon Dioxide uptake (mmol/g)	Methane fraction	Methane uptake (mmol/g)	total uptake (mmol/g)
2.44	0.3	1.22836	0.7	0.41164	1.64
4.62	0.3	1.89288	0.7	0.49712	2.39
6.79	0.3	2.01135	0.7	0.63865	2.65
