Adsorption isotherm of Carbon Dioxide on SAPO-34
DOI: 10.1260/0263-6174.32.9.707
Article source: Figure 3
Adsorbate Carbon Dioxide: InChIKey CURLTUGMZLYLDI-UHFFFAOYSA-N
Kind: experiment
Temperature: 303 K
Tabular data in the source: 0
pressure (bar)	uptake (mmol/g)
0.227	0.428
0.581	1.08
1.63	2.14
3.06	2.75
4.58	3.14
5.91	3.35
7.21	3.49
8.27	3.6
9.35	3.72
