Adsorption isotherm of Benzene on Silica Alumina Gel (0.5 wt% Aluminum Oxide)
DOI: 10.1002/cite.201600183
Article source: Figure 6
Adsorbate Benzene: InChIKey UHOVQNZJYSORNB-UHFFFAOYSA-N
Kind: experiment
Temperature: 338 K
Tabular data in the source: 0
pressure (bar)	uptake (mmol/g)
1.3	0.06479
1.3	0.10875
1.3	0.17699
1.3	0.22671
1.3	0.27758
1.3	0.31804
1.3	0.35271
1.3	0.3816
1.3	0.41281
1.3	0.44516
1.3	0.46711
1.3	0.60345
1.3	0.68842
1.3	0.783
