Adsorption isotherm of Cyclohexane on Silica Alumina Gel (3 wt% Aluminum Oxide)
DOI: 10.1002/cite.201600183
Article source: Figure 3
Adsorbate Cyclohexane: InChIKey XDTMQSROBMDMFD-UHFFFAOYSA-N
Kind: experiment
Temperature: 298 K
Tabular data in the source: 0
pressure (bar)	uptake (mmol/g)
1.3	0.03392
1.3	0.05124
1.3	0.07661
1.3	0.09302
1.3	0.1119
1.3	0.13418
1.3	0.15492
1.3	0.16793
1.3	0.1794
1.3	0.19087
1.3	0.20666
1.3	0.27737
1.3	0.32805
1.3	0.37676
