Adsorption isotherm of Cyclohexane on Silica Alumina Gel (3 wt% Aluminum Oxide)
DOI: 10.1002/cite.201600183
Article source: Figure 3
Adsorbate Cyclohexane: InChIKey XDTMQSROBMDMFD-UHFFFAOYSA-N
Kind: experiment
Temperature: 328 K
Tabular data in the source: 0
pressure (bar)	uptake (mmol/g)
1.3	0.01354
1.3	0.01851
1.3	0.03337
1.3	0.04392
1.3	0.05446
1.3	0.06439
1.3	0.0774
1.3	0.08733
1.3	0.09911
1.3	0.1078
1.3	0.11525
1.3	0.14386
1.3	0.17493
1.3	0.20229
