Adsorption isotherm of Benzene on Silica Alumina Gel (3 wt% Aluminum Oxide)
DOI: 10.1002/cite.201600183
Article source: Figure 5
Adsorbate Benzene: InChIKey UHOVQNZJYSORNB-UHFFFAOYSA-N
Kind: experiment
Temperature: 348 K
Tabular data in the source: 0
pressure (bar)	uptake (mmol/g)
1.3	0.02649
1.3	0.04965
1.3	0.07272
1.3	0.09459
1.3	0.10911
1.3	0.13097
1.3	0.14673
1.3	0.16125
1.3	0.16845
1.3	0.18419
1.3	0.19996
1.3	0.25062
1.3	0.3081
1.3	0.35292
