Adsorption isotherm of Benzene on Silica Alumina Gel (0.5 wt% Aluminum Oxide)
DOI: 10.1002/cite.201600183
Article source: Figure 6
Adsorbate Benzene: InChIKey UHOVQNZJYSORNB-UHFFFAOYSA-N
Kind: experiment
Temperature: 348 K
Tabular data in the source: 0
pressure (bar)	uptake (mmol/g)
1.3	0.03677
1.3	0.07175
1.3	0.12565
1.3	0.17008
1.3	0.20357
1.3	0.22977
1.3	0.26545
1.3	0.28901
1.3	0.31558
1.3	0.34794
1.3	0.36294
1.3	0.46262
1.3	0.55573
1.3	0.65468
