Adsorption isotherm of Cyclohexane on Silica Alumina Gel (3 wt% Aluminum Oxide)
DOI: 10.1002/cite.201600183
Article source: Figure 3
Adsorbate Cyclohexane: InChIKey XDTMQSROBMDMFD-UHFFFAOYSA-N
Kind: experiment
Temperature: 318 K
Tabular data in the source: 0
pressure (bar)	uptake (mmol/g)
1.3	0.01816
1.3	0.02677
1.3	0.04617
1.3	0.06019
1.3	0.07371
1.3	0.08675
1.3	0.10248
1.3	0.11306
1.3	0.12686
1.3	0.13741
1.3	0.14795
1.3	0.19502
1.3	0.23247
1.3	0.26451
