Adsorption isotherm of Cyclohexane on Silica Alumina Gel (0.5 wt% Aluminum Oxide)
DOI: 10.1002/cite.201600183
Article source: Figure 4
Adsorbate Cyclohexane: InChIKey XDTMQSROBMDMFD-UHFFFAOYSA-N
Kind: experiment
Temperature: 298 K
Tabular data in the source: 0
pressure (bar)	uptake (mmol/g)
1.3	0.08445
1.3	0.12756
1.3	0.19647
1.3	0.26466
1.3	0.30177
1.3	0.34346
1.3	0.39039
1.3	0.43302
1.3	0.45826
1.3	0.51099
1.3	0.54352
1.3	0.67422
1.3	0.86575
1.3	0.99264
