Adsorption isotherm of Cyclohexane on Silica Alumina Gel (3 wt% Aluminum Oxide)
DOI: 10.1002/cite.201600183
Article source: Figure 3
Adsorbate Cyclohexane: InChIKey XDTMQSROBMDMFD-UHFFFAOYSA-N
Kind: experiment
Temperature: 298 K
Tabular data in the source: 0
pressure (bar)	uptake (mmol/g)
1.3	0.0421
1.3	0.06328
1.3	0.09838
1.3	0.13131
1.3	0.15745
1.3	0.18135
1.3	0.20591
1.3	0.23095
1.3	0.25747
1.3	0.27516
1.3	0.28647
1.3	0.37199
1.3	0.46429
1.3	0.55086
