Adsorption isotherm of Benzene on Silica Alumina Gel (0.5 wt% Aluminum Oxide)
DOI: 10.1002/cite.201600183
Article source: Figure 6
Adsorbate Benzene: InChIKey UHOVQNZJYSORNB-UHFFFAOYSA-N
Kind: experiment
Temperature: 298 K
Tabular data in the source: 0
pressure (bar)	uptake (mmol/g)
1.3	0.43859
1.3	0.62414
1.3	0.82988
1.3	0.986
1.3	1.14764
1.3	1.27805
1.3	1.36069
1.3	1.43046
1.3	1.49655
1.3	1.56999
1.3	1.6269
1.3	1.85531
1.3	2.03008
1.3	2.18444
