Adsorption isotherm of Cyclohexane on Silica Alumina Gel (0.5 wt% Aluminum Oxide)
DOI: 10.1002/cite.201600183
Article source: Figure 4
Adsorbate Cyclohexane: InChIKey XDTMQSROBMDMFD-UHFFFAOYSA-N
Kind: experiment
Temperature: 328 K
Tabular data in the source: 0
pressure (bar)	uptake (mmol/g)
1.3	0.02014
1.3	0.03463
1.3	0.06537
1.3	0.08622
1.3	0.10389
1.3	0.12438
1.3	0.13922
1.3	0.15512
1.3	0.16939
1.3	0.18229
1.3	0.19014
1.3	0.2468
1.3	0.29812
1.3	0.34487
