Adsorption isotherm of Benzene on Silica Alumina Gel (0.5 wt% Aluminum Oxide)
DOI: 10.1002/cite.201600183
Article source: Figure 6
Adsorbate Benzene: InChIKey UHOVQNZJYSORNB-UHFFFAOYSA-N
Kind: experiment
Temperature: 328 K
Tabular data in the source: 0
pressure (bar)	uptake (mmol/g)
1.3	0.11061
1.3	0.17489
1.3	0.26212
1.3	0.32914
1.3	0.39339
1.3	0.44662
1.3	0.4925
1.3	0.54206
1.3	0.58107
1.3	0.61311
1.3	0.6568
1.3	0.79948
1.3	1.00142
1.3	1.12621
