Adsorption isotherm of Benzene on Silica Alumina Gel (3 wt% Aluminum Oxide)
DOI: 10.1002/cite.201600183
Article source: Figure 5
Adsorbate Benzene: InChIKey UHOVQNZJYSORNB-UHFFFAOYSA-N
Kind: experiment
Temperature: 298 K
Tabular data in the source: 0
pressure (bar)	uptake (mmol/g)
1.3	0.2246
1.3	0.32777
1.3	0.45243
1.3	0.5355
1.3	0.61395
1.3	0.71396
1.3	0.78931
1.3	0.86159
1.3	0.95233
1.3	1.01074
1.3	1.27345
1.3	1.47386
1.3	1.6335
