Adsorption isotherm of Benzene on Silica Alumina Gel (3 wt% Aluminum Oxide)
DOI: 10.1002/cite.201600183
Article source: Figure 5
Adsorbate Benzene: InChIKey UHOVQNZJYSORNB-UHFFFAOYSA-N
Kind: experiment
Temperature: 338 K
Tabular data in the source: 0
pressure (bar)	uptake (mmol/g)
1.3	0.0368
1.3	0.05808
1.3	0.09579
1.3	0.12378
1.3	0.14887
1.3	0.18172
1.3	0.20098
1.3	0.22413
1.3	0.24146
1.3	0.25781
1.3	0.27805
1.3	0.34881
1.3	0.43136
1.3	0.49391
