Adsorption isotherm of Cyclohexane on Silica Alumina Gel (0.5 wt% Aluminum Oxide)
DOI: 10.1002/cite.201600183
Article source: Figure 4
Adsorbate Cyclohexane: InChIKey XDTMQSROBMDMFD-UHFFFAOYSA-N
Kind: experiment
Temperature: 308 K
Tabular data in the source: 0
pressure (bar)	uptake (mmol/g)
1.3	0.04725
1.3	0.07775
1.3	0.12249
1.3	0.16256
1.3	0.19795
1.3	0.22772
1.3	0.2625
1.3	0.28718
1.3	0.31074
1.3	0.34944
1.3	0.37581
1.3	0.48406
1.3	0.57904
1.3	0.66897
