Adsorption isotherm of Benzene on Silica Alumina Gel (3 wt% Aluminum Oxide)
DOI: 10.1002/cite.201600183
Article source: Figure 5
Adsorbate Benzene: InChIKey UHOVQNZJYSORNB-UHFFFAOYSA-N
Kind: experiment
Temperature: 328 K
Tabular data in the source: 0
pressure (bar)	uptake (mmol/g)
1.3	0.07758
1.3	0.10954
1.3	0.15501
1.3	0.19855
1.3	0.23431
1.3	0.27008
1.3	0.31263
1.3	0.34936
1.3	0.38026
1.3	0.40535
1.3	0.42948
1.3	0.5106
1.3	0.58933
1.3	0.66036
