Adsorption isotherm of Cyclohexane on Silica Alumina Gel (0.5 wt% Aluminum Oxide)
DOI: 10.1002/cite.201600183
Article source: Figure 4
Adsorbate Cyclohexane: InChIKey XDTMQSROBMDMFD-UHFFFAOYSA-N
Kind: experiment
Temperature: 318 K
Tabular data in the source: 0
pressure (bar)	uptake (mmol/g)
1.3	0.03168
1.3	0.05188
1.3	0.08581
1.3	0.11386
1.3	0.13658
1.3	0.15733
1.3	0.17527
1.3	0.19364
1.3	0.21272
1.3	0.22615
1.3	0.24452
1.3	0.32297
1.3	0.38716
1.3	0.47754
