Adsorption isotherm of Hydrogen on COF-8
DOI: 10.1016/j.micromeso.2008.05.023
Adsorbate Hydrogen: InChIKey UFHFLCQGNIYNRP-UHFFFAOYSA-N
Temperature: 77 K
Tabular data in the source: 0
pressure (bar)	uptake (wt%)
0.0115322	0.02823
0.0183962	0.02823
0.0468125	0.0789342
0.0737131	0.118371
0.185159	0.315554
0.31516	0.501469
0.801982	1.12682
1.29603	1.55499
2.04079	1.98316
3.34105	2.46203
5.26097	2.8564
8.61292	3.22823
14.1005	3.53809
22.4932	3.78034
37.7923	3.84231
62.679	3.66767
98.6973	3.34091
