Adsorption isotherm of Hydrogen on COF-10
DOI: 10.1016/j.micromeso.2008.05.023
Adsorbate Hydrogen: InChIKey UFHFLCQGNIYNRP-UHFFFAOYSA-N
Temperature: 298 K
Tabular data in the source: 0
pressure (bar)	uptake (wt%)
1.57533	5.07347
6.70209	28.7354
12.026	46.2002
22.8711	71.834
35.0965	89.8622
47.519	101.975
60.1387	109.862
73.5472	114.369
88.5331	116.341
105.096	113.806
120.28	110.426
128.956	108.172
