Adsorption isotherm of Argon on COF-8
DOI: 10.1016/j.micromeso.2008.05.023
Adsorbate Argon: InChIKey XKRFYHLGVUSROY-UHFFFAOYSA-N
Temperature: 87 K
Tabular data in the source: 0
pressure (bar)	uptake (cm3(STP)/g)
1.1e-06	5.2582
2.37e-06	5.2582
1.15e-05	5.2582
5.81e-05	7.2604
0.000126	15.2692
0.000306	57.3154
0.000647	279.56
0.00154414	361.65
0.00828054	403.696
0.0168644	587.898
0.0394409	665.984
0.0904363	673.993
0.430755	682.002
0.949434	692.013
