Adsorption isotherm of Hydrogen on COF-10
DOI: 10.1016/j.micromeso.2008.05.023
Adsorbate Hydrogen: InChIKey UFHFLCQGNIYNRP-UHFFFAOYSA-N
Temperature: 298 K
Tabular data in the source: 0
pressure (bar)	uptake (wt%)
0.421011	0.00338638
5.77312	0.0315554
10.7027	0.059161
20.9844	0.111555
26.1957	0.135781
35.914	0.182541
46.1957	0.224231
56.0548	0.262541
65.4914	0.300851
75.3506	0.336344
84.6464	0.36564
89.1534	0.380851
93.3788	0.393246
