Adsorption isotherm of Hydrogen on COF-6
DOI: 10.1016/j.micromeso.2008.05.023
Adsorbate Hydrogen: InChIKey UFHFLCQGNIYNRP-UHFFFAOYSA-N
Temperature: 298 K
Tabular data in the source: 0
pressure (bar)	uptake (wt%)
0.589415	1.4115
1.18096	16.0594
1.37815	25.6369
2.16688	55.2143
3.34998	73.8059
5.51899	89.5805
9.65984	105.355
14.9838	115.214
24.4486	122.257
42.5894	125.919
71.3782	122.257
128.758	100.003
