Adsorption isotherm of Hydrogen on COF-10
DOI: 10.1016/j.micromeso.2008.05.023
Adsorbate Hydrogen: InChIKey UFHFLCQGNIYNRP-UHFFFAOYSA-N
Temperature: 77 K
Tabular data in the source: 0
pressure (bar)	uptake (wt%)
0.0766383	0.129638
0.12385	0.202878
0.190026	0.298653
0.311098	0.478934
0.477323	0.681751
1.31295	1.39161
3.29799	2.28738
5.26097	2.77753
8.72538	3.26203
13.9188	3.6395
22.2033	4.01133
36.8244	4.20288
60.2866	4.11837
94.9301	3.90992
