Adsorption isotherm of Argon on COF-10
DOI: 10.1016/j.micromeso.2008.05.023
Adsorbate Argon: InChIKey XKRFYHLGVUSROY-UHFFFAOYSA-N
Temperature: 87 K
Tabular data in the source: 0
pressure (bar)	uptake (cm3(STP)/g)
1.06e-05	1.2538
1.64e-05	1.2538
4.24e-05	3.256
0.000109	19.2736
0.000176	35.2912
0.000294	61.3198
0.000491	121.386
0.00121819	229.505
0.00320758	359.648
0.00495401	417.711
0.00844578	445.742
0.0201464	489.791
0.0350317	507.81
0.0562862	543.85
0.0904363	635.951
0.148205	776.105
0.233466	1266.64
0.3826	1282.66
0.614732	1312.69
1.00741	1332.72
