Adsorption isotherm of Hydrogen on COF-8
DOI: 10.1016/j.micromeso.2008.05.023
Adsorbate Hydrogen: InChIKey UFHFLCQGNIYNRP-UHFFFAOYSA-N
Temperature: 298 K
Tabular data in the source: 0
pressure (bar)	uptake (wt%)
1.37815	7.0453
6.70209	44.2284
12.2232	73.5242
17.7443	95.7777
23.0683	112.116
34.7021	132.961
41.2091	140.003
54.026	150.989
67.6317	154.651
81.6317	155.214
96.026	151.834
104.308	150.144
112.195	146.764
128.758	140.285
