Adsorption isotherm of Argon on COF-6
DOI: 10.1016/j.micromeso.2008.05.023
Adsorbate Argon: InChIKey XKRFYHLGVUSROY-UHFFFAOYSA-N
Temperature: 87 K
Tabular data in the source: 0
pressure (bar)	uptake (cm3(STP)/g)
2.37e-06	9.2626
6.88e-06	37.2934
2e-05	153.421
5.93e-05	213.487
0.000179	247.524
0.000531	261.54
0.00151393	261.54
0.00414695	263.542
0.0133045	273.553
0.0364438	283.564
0.108036	297.579
0.33318	313.597
0.96838	313.597
