Adsorption isotherm of Hydrogen on COF-8
DOI: 10.1016/j.micromeso.2008.05.023
Adsorbate Hydrogen: InChIKey UFHFLCQGNIYNRP-UHFFFAOYSA-N
Temperature: 298 K
Tabular data in the source: 0
pressure (bar)	uptake (wt%)
0.702701	0.0056399
5.63228	0.0315554
16.3365	0.0867667
31.1252	0.159443
41.4069	0.206203
50.9844	0.24226
60.9844	0.281696
75.2097	0.331274
79.9985	0.346485
84.9281	0.360569
89.2943	0.375217
94.2238	0.388175
