Adsorption isotherm of Hydrogen on COF-6
DOI: 10.1016/j.micromeso.2008.05.023
Adsorbate Hydrogen: InChIKey UFHFLCQGNIYNRP-UHFFFAOYSA-N
Temperature: 77 K
Tabular data in the source: 0
pressure (bar)	uptake (wt%)
0.0115322	0.0676666
0.0181591	0.0958356
0.0285941	0.124005
0.0474237	0.197244
0.0746756	0.304286
0.190026	0.670484
0.483555	1.13246
1.24656	1.6226
2.12178	1.83668
5.19316	2.16908
8.8393	2.29302
15.0454	2.35499
21.9172	2.38879
37.3053	2.28175
61.8712	2.14091
96.1696	1.84795
