Adsorption isotherm of Hydrogen on COF-6
DOI: 10.1016/j.micromeso.2008.05.023
Adsorbate Hydrogen: InChIKey UFHFLCQGNIYNRP-UHFFFAOYSA-N
Temperature: 298 K
Tabular data in the source: 0
pressure (bar)	uptake (wt%)
0.421011	0.000569
5.63228	0.0281751
11.2661	0.0535272
16.4773	0.0800061
20.8435	0.100851
31.6886	0.140288
46.4773	0.189302
61.2661	0.228175
70.421	0.255781
80.1393	0.273809
89.1534	0.293527
93.6604	0.300851
