Adsorption isotherm of Nitrogen on MOF-177
DOI: 10.1016/j.matlet.2011.03.039
Adsorbate Nitrogen: InChIKey IJGRMHOSHXDMSA-UHFFFAOYSA-N
Temperature: 77 K
Tabular data in the source: 0
pressure (bar)	uptake (cm3(STP)/g)
0.0085471	668.078
0.0284903	1055.79
0.0484335	1105.36
0.0655277	1126.05
0.08832	1142.64
0.105414	1150.96
0.122508	1155.16
0.139603	1163.48
0.162395	1171.82
0.185187	1176.04
0.196583	1180.22
0.242168	1184.53
0.267809	1188.77
0.304846	1193.05
0.316243	1197.22
0.344733	1197.34
0.358978	1197.4
0.390317	1197.53
0.410261	1197.62
0.438751	1201.86
0.461543	1206.08
0.490034	1197.96
0.509977	1202.16
0.535618	1202.27
0.561259	1206.51
0.584052	1206.6
0.606844	1206.7
0.629636	1202.67
0.658126	1206.92
0.698013	1202.96
0.726503	1203.08
0.763541	1207.36
0.800578	1203.4
0.814823	1207.58
0.831917	1207.65
0.857559	1203.64
0.886049	1207.88
0.91169	1207.99
0.931634	1208.08
0.957275	1212.31
0.968671	1224.73
