Adsorption isotherm of Carbon Dioxide on CMK-3
DOI: 10.1016/j.matlet.2011.03.039
Adsorbate Carbon Dioxide: InChIKey CURLTUGMZLYLDI-UHFFFAOYSA-N
Temperature: 298 K
Tabular data in the source: 0
pressure (bar)	uptake (mmol/g)
1.93878	3.14617
2.95918	3.93272
3.87755	4.45708
5.91837	5.24362
6.93878	5.68059
7.95918	6.11756
9.08163	6.46714
10	6.72932
11.9388	7.07889
14.0816	7.60325
15.9184	8.12762
17.8571	8.3898
20	8.73937
24.7959	9.61331
29.7959	10.4872
34.6939	11.2738
39.898	12.2351
