Adsorption isotherm of Carbon Dioxide on MSP-20
DOI: 10.1016/j.matlet.2011.03.039
Adsorbate Carbon Dioxide: InChIKey CURLTUGMZLYLDI-UHFFFAOYSA-N
Temperature: 298 K
Tabular data in the source: 0
pressure (bar)	uptake (mmol/g)
0.918367	2.27224
2.14286	3.58314
3.06122	4.63187
4.08163	5.5932
5	6.37974
6.02041	7.34107
6.93878	8.04022
7.95918	8.56458
9.18367	9.17634
10	9.87549
11.9388	10.8368
13.9796	11.8855
16.0204	12.7595
18.0612	13.546
20	14.2452
22.3469	15.1191
24.0816	15.6435
26.0204	16.3426
28.0612	16.7796
30	17.3913
32.2449	18.0031
34.0816	18.4401
36.1224	18.877
38.0612	19.4014
40.102	19.751
