Adsorption isotherm of Nitrogen on SBA-15
DOI: 10.1016/j.matlet.2011.03.039
Adsorbate Nitrogen: InChIKey IJGRMHOSHXDMSA-UHFFFAOYSA-N
Temperature: 77 K
Tabular data in the source: 0
pressure (bar)	uptake (cm3(STP)/g)
0.0085471	103.129
0.0284903	132.08
0.0598297	148.708
0.0797729	157.04
0.0968671	161.236
0.11681	169.568
0.133905	169.641
0.156697	182.108
0.173791	186.305
0.193734	190.513
0.242168	207.213
0.299148	215.703
0.350431	232.415
0.387468	240.82
0.438751	249.285
0.484335	265.973
0.535618	278.562
0.581203	295.25
0.629636	316.075
0.67807	332.775
0.715107	357.675
0.743597	415.527
0.774937	621.846
0.840465	650.99
0.866106	655.223
0.886049	663.555
0.91169	671.911
0.937332	676.144
0.960124	688.611
0.968671	701.019
