Adsorption isotherm of Nitrogen on CMK-3
DOI: 10.1016/j.matlet.2011.03.039
Adsorbate Nitrogen: InChIKey IJGRMHOSHXDMSA-UHFFFAOYSA-N
Temperature: 77 K
Tabular data in the source: 0
pressure (bar)	uptake (cm3(STP)/g)
0.0085471	263.954
0.0313394	305.288
0.0541316	334.25
0.0740748	350.83
0.0968671	363.298
0.113961	375.741
0.136754	388.209
0.156697	400.665
0.17664	408.997
0.196583	421.453
0.245017	446.401
0.29345	479.596
0.336186	512.767
0.384619	558.334
0.430204	628.63
0.490034	711.358
0.538467	748.677
0.586901	761.254
0.623938	773.782
0.67807	790.507
0.720805	803.06
0.749295	807.304
0.780635	815.685
0.79488	819.869
0.814823	824.077
0.837615	828.298
0.85471	836.618
0.871804	836.69
0.894596	845.034
0.931634	857.563
0.954426	874.154
0.965822	882.45
