Adsorption isotherm of Carbon Dioxide on Zeolite 13X
DOI: 10.1016/j.matlet.2011.03.039
Adsorbate Carbon Dioxide: InChIKey CURLTUGMZLYLDI-UHFFFAOYSA-N
Temperature: 298 K
Tabular data in the source: 0
pressure (bar)	uptake (mmol/g)
0.510204	2.62181
0.918367	5.24362
2.95918	6.03017
4.08163	6.11756
5.91837	6.46714
7.14286	6.55453
7.85714	6.46714
8.97959	6.46714
10	6.46714
11.8367	6.55453
13.7755	6.64192
15.9184	6.64192
17.9592	6.64192
19.898	6.64192
21.9388	6.72932
23.9796	6.72932
26.0204	6.72932
27.8571	6.72932
30	6.72932
31.7347	6.81671
33.9796	6.64192
35.9184	6.72932
37.9592	6.64192
39.898	6.64192
