Adsorption isotherm of Carbon Dioxide on SBA-15
DOI: 10.1016/j.matlet.2011.03.039
Adsorbate Carbon Dioxide: InChIKey CURLTUGMZLYLDI-UHFFFAOYSA-N
Temperature: 298 K
Tabular data in the source: 0
pressure (bar)	uptake (mmol/g)
0.408163	2.09745
1.02041	3.58314
1.83673	5.76799
2.95918	7.60325
3.97959	9.08895
5	10.3125
6.02041	11.1864
6.93878	11.9729
8.06122	12.6721
8.97959	13.3712
10	13.983
12.1429	14.9443
13.9796	15.6435
16.0204	16.2552
18.0612	16.6922
20.102	17.1292
22.0408	17.3913
24.0816	17.7409
26.0204	17.9157
28.1633	18.0031
30.2041	18.1779
32.1429	18.1779
34.1837	18.1779
36.0204	18.2653
38.1633	18.2653
40.2041	18.2653
