Adsorption isotherm of Carbon Dioxide on MOF-177
DOI: 10.1016/j.matlet.2011.03.039
Adsorbate Carbon Dioxide: InChIKey CURLTUGMZLYLDI-UHFFFAOYSA-N
Temperature: 298 K
Tabular data in the source: 0
pressure (bar)	uptake (mmol/g)
1.12245	0.873937
2.04082	1.66048
3.16327	2.53442
4.08163	3.40836
5.10204	4.36969
5.91837	5.33102
7.14286	6.64192
8.06122	7.86543
8.97959	9.26373
10.102	11.099
11.0204	12.6721
12.0408	13.8082
12.9592	16.2552
13.9796	18.1779
15	19.751
16.0204	21.3241
17.0408	22.635
17.9592	23.8585
18.9796	24.645
20.2041	25.519
22.2449	26.7425
24.0816	27.6164
26.0204	28.2282
28.0612	28.7525
30	29.1895
32.0408	29.4517
36.1224	29.8887
37.9592	29.976
40	30.0634
