Adsorption isotherm of Carbon Dioxide on ZYC_1000
DOI: 10.1016/j.matlet.2011.03.039
Adsorbate Carbon Dioxide: InChIKey CURLTUGMZLYLDI-UHFFFAOYSA-N
Temperature: 298 K
Tabular data in the source: 0
pressure (bar)	uptake (mmol/g)
2.85714	4.63187
3.97959	6.11756
5	7.16628
6.02041	8.3898
6.93878	9.61331
8.06122	10.4872
8.97959	11.536
10.102	12.4099
11.0204	13.1091
11.9388	13.8956
12.9592	14.5948
13.9796	15.2939
15	15.9057
17.0408	16.867
18.0612	17.304
19.1837	17.9157
20.102	18.1779
21.9388	18.877
24.0816	19.6636
25.9184	20.1006
28.1633	20.6249
30	21.0619
32.0408	21.4115
33.9796	21.761
36.1224	22.0232
38.3673	22.2854
40.3061	22.2854
