Adsorption isotherm of N-propane, Propene on CPL-1
DOI: 10.1016/j.cej.2017.07.044
Article source: Uptakes in text above Figure 5
Adsorbate N-propane: InChIKey ATUOYWHBWRKTHZ-UHFFFAOYSA-N
Adsorbate Propene: InChIKey QQONPFPTGQHPMA-UHFFFAOYSA-N
Kind: experiment
Temperature: 273 K
Tabular data in the source: 0
pressure (bar)	N-propane fraction	N-propane uptake (mmol/g)	Propene fraction	Propene uptake (mmol/g)	total uptake (mmol/g)
1.01325	0.5	0.26	0.5	0.54	
