Adsorption isotherm of N-propane on CPL-1
DOI: 10.1016/j.cej.2017.07.044
Article source: Figure 4
Adsorbate N-propane: InChIKey ATUOYWHBWRKTHZ-UHFFFAOYSA-N
Kind: experiment
Temperature: 273 K
Tabular data in the source: 0
pressure (bar)	uptake (mmol/g)
0.0086	0.0521
0.0223	0.0762
0.0369	0.0909
0.0683	0.11
0.109	0.131
0.16	0.148
0.21	0.164
0.26	0.178
0.31	0.193
0.41	0.213
0.509	0.23
0.609	0.245
0.711	0.258
0.811	0.273
0.91	0.285
