Adsorption isotherm of N-propane on CPL-1
DOI: 10.1016/j.cej.2017.07.044
Article source: Figure 4
Adsorbate N-propane: InChIKey ATUOYWHBWRKTHZ-UHFFFAOYSA-N
Kind: experiment
Temperature: 298 K
Tabular data in the source: 0
pressure (bar)	uptake (mmol/g)
5.6e-05	0.016
0.00294	0.0219
0.00869	0.0315
0.0183	0.0475
0.0307	0.0572
0.0661	0.0731
0.106	0.087
0.159	0.0992
0.21	0.109
0.26	0.118
0.311	0.125
0.411	0.138
0.514	0.146
0.611	0.153
0.713	0.159
0.812	0.167
0.913	0.172
