Adsorption isotherm of Propene on CPL-1
DOI: 10.1016/j.cej.2017.07.044
Article source: Figure 4
Adsorbate Propene: InChIKey QQONPFPTGQHPMA-UHFFFAOYSA-N
Kind: experiment
Temperature: 298 K
Tabular data in the source: 0
pressure (bar)	uptake (mmol/g)
0.00493	0.0488
0.00687	0.0593
0.0213	0.0866
0.0308	0.0967
0.0653	0.119
0.107	0.138
0.157	0.155
0.21	0.171
0.258	0.184
0.31	0.196
0.411	0.218
0.509	0.235
0.611	0.251
0.711	0.267
0.81	0.286
0.915	0.303
