Adsorption isotherm of Propene on CPL-1
DOI: 10.1016/j.cej.2017.07.044
Article source: Figure 4
Adsorbate Propene: InChIKey QQONPFPTGQHPMA-UHFFFAOYSA-N
Kind: experiment
Temperature: 273 K
Tabular data in the source: 0
pressure (bar)	uptake (mmol/g)
0.0339	0.14
0.0668	0.195
0.109	0.225
0.159	0.254
0.21	0.278
0.259	0.31
0.309	0.365
0.359	0.405
0.41	0.461
0.425	0.541
0.443	0.655
0.455	0.77
0.462	0.876
0.47	1.1
0.485	1.21
0.509	1.29
0.538	1.37
0.56	1.4
0.587	1.43
0.612	1.48
0.637	1.53
0.662	1.57
0.712	1.61
0.762	1.64
0.812	1.67
0.863	1.7
0.91	1.75
0.953	1.8
