Adsorption isotherm of Nitrogen on C74Cd3O16N4H74
DOI: 10.1039/C001485k
Adsorbate Nitrogen: InChIKey IJGRMHOSHXDMSA-UHFFFAOYSA-N
Temperature: 77 K
Tabular data in the source: 0
pressure (bar)	uptake (cm3(STP)/g)
0.0292356	90.6149
0.0517244	95.1456
0.0742133	116.505
0.0989511	126.214
0.123689	128.803
0.148427	132.039
0.173164	134.628
0.197902	135.922
0.218142	137.217
0.24288	139.159
0.267618	140.453
0.294604	141.1
0.317093	142.395
0.34408	146.278
0.366569	147.573
0.393556	149.515
0.413796	150.809
0.438533	151.456
0.463271	152.751
0.48576	154.045
0.512747	155.34
0.532987	159.223
0.559973	160.518
0.584711	161.812
0.609449	163.107
0.636436	163.754
0.658924	164.401
0.679164	165.049
0.703902	170.227
0.730889	171.521
0.755627	172.816
0.778116	174.11
0.802853	174.757
0.825342	176.052
0.85008	181.877
0.874818	184.466
0.899556	187.702
0.924293	190.291
0.949031	196.764
0.964773	223.948
