Adsorption isotherm of Nitrogen on DAAQ-TFP COF
DOI: 10.1021/jacs.9b08147
Article source: Figure S15
Adsorbate Nitrogen: InChIKey IJGRMHOSHXDMSA-UHFFFAOYSA-N
Kind: experiment
Temperature: 77 K
Tabular data in the source: 0
pressure (bar)	uptake (cm3(STP)/g)
0.001951	3.31734
0.002069	9.99834
0.002206	17.7928
0.002303	23.3603
0.00244	31.1548
0.002558	37.8358
0.002675	44.5168
0.002812	52.3113
0.002929	58.9923
0.003086	67.9003
0.003183	73.4678
0.003262	77.9218
0.00693	86.8144
0.007125	97.9494
0.00896	102.396
0.009057	107.963
0.009155	113.531
0.007536	121.333
0.007653	128.014
0.00781	136.922
0.007908	142.489
0.013332	151.374
0.016981	159.153
0.022424	169.152
0.022463	171.379
0.029644	180.256
0.033312	189.148
0.038697	195.806
0.044043	200.237
0.049389	204.668
0.058286	211.31
0.068978	220.172
0.076178	230.163
0.079787	235.715
0.088723	244.584
0.088841	251.265
0.099552	261.24
0.106674	266.777
0.113776	271.2
0.135003	280.015
0.164952	285.452
0.189633	290.911
0.212518	294.151
0.238877	295.149
0.265255	297.26
0.295145	299.356
0.31448	300.384
0.333795	300.299
0.356661	302.426
0.38302	303.424
0.405847	303.324
0.469119	306.386
0.532391	309.449
0.599155	311.382
0.662428	314.445
0.725641	314.167
0.792425	317.214
0.857453	320.269
0.922462	322.211
1.01248	348.541
0.051497	224.703
0.110362	276.783
0.212694	304.173
0.307593	308.21
0.414744	309.966
0.516666	313.972
0.615076	317.994
0.697644	319.858
0.799586	324.978
0.910268	327.832
1.01248	348.541
