Adsorption isotherm of Nitrogen on PEDOT@DAAQ-TFP COF
DOI: 10.1021/jacs.9b08147
Article source: Figure S17
Adsorbate Nitrogen: InChIKey IJGRMHOSHXDMSA-UHFFFAOYSA-N
Kind: experiment
Temperature: 77 K
Tabular data in the source: 0
pressure (bar)	uptake (cm3(STP)/g)
0.005515	3.58744
0.005593	5.38117
0.00575	8.96861
0.006024	15.2466
0.006122	17.4888
0.008006	20.6278
0.008202	25.1121
0.008339	28.2511
0.008457	30.9417
0.006906	35.426
0.007043	38.565
0.014246	43.4978
0.023196	48.4305
0.028496	49.7758
0.047928	54.7085
0.06212	59.6413
0.069186	61.435
0.086852	65.9193
0.086891	66.8161
0.108109	72.6457
0.113468	75.3363
0.141576	78.9238
0.159066	79.3722
0.183641	82.0628
0.204644	82.9596
0.232733	86.0987
0.258976	86.9955
0.292208	87.8924
0.320258	90.1345
0.334234	90.1345
0.360478	91.0314
0.391982	92.3767
0.411238	93.2735
0.472422	94.1704
0.552881	96.4126
0.61587	98.6547
0.66135	100
0.729502	100.448
0.792531	103.587
0.850318	106.726
0.916939	112.108
1.0069	131.839
0.057388	71.3004
0.108618	84.3049
0.208529	91.9283
0.317019	95.9641
0.411454	98.2063
0.502414	100.897
0.596869	103.587
0.696466	104.036
0.80315	106.726
0.90997	112.556
1.0087	133.184
