Adsorption isotherm of Nitrogen on PEDOT@DAPH-TFP COF
DOI: 10.1021/jacs.9b08147
Article source: Figure S18
Adsorbate Nitrogen: InChIKey IJGRMHOSHXDMSA-UHFFFAOYSA-N
Kind: experiment
Temperature: 77 K
Tabular data in the source: 0
pressure (bar)	uptake (cm3(STP)/g)
0.009083	5.23094
0.010931	7.84778
0.009251	11.5136
0.011126	15.1775
0.014765	18.317
0.023765	22.5008
0.030931	24.5914
0.041695	28.2507
0.054194	30.3385
0.070276	33.4716
0.081011	36.0838
0.093538	39.2187
0.107857	42.8762
0.132855	47.0518
0.157811	49.6567
0.186323	52.2598
0.213043	54.3402
0.234458	57.4705
0.262928	58.5029
0.296758	60.5797
0.318131	62.1393
0.337741	64.2234
0.366266	67.35
0.389445	69.9559
0.40904	71.5164
0.48377	74.0956
0.539029	79.8262
0.599579	83.9834
0.660186	90.2348
0.719042	97.5342
0.786759	103.782
0.856309	112.123
0.910084	128.849
1.00855	221.468
0.058224	48.1375
0.108206	55.9651
0.211586	66.3828
0.307745	72.6159
0.412847	80.9385
0.51256	87.1697
0.594484	92.8866
0.692448	100.166
0.806536	112.149
0.901349	134.613
1.00316	219.377
