Adsorption isotherm of Nitrogen on DAPH-TFP COF
DOI: 10.1021/jacs.9b08147
Article source: Figure S16
Adsorbate Nitrogen: InChIKey IJGRMHOSHXDMSA-UHFFFAOYSA-N
Kind: experiment
Temperature: 77 K
Tabular data in the source: 0
pressure (bar)	uptake (cm3(STP)/g)
0.005987	56.7622
0.006032	60.0373
0.011286	68.7652
0.007982	77.5024
0.006405	87.3294
0.008221	94.9694
0.008326	102.611
0.010187	113.526
0.012048	124.441
0.012168	133.175
0.012287	141.908
0.010725	152.827
0.010845	161.56
0.016099	170.288
0.028289	185.559
0.028394	193.201
0.031936	201.931
0.040569	207.38
0.047535	216.106
0.0545	224.832
0.066616	234.644
0.078746	245.548
0.090787	249.902
0.108067	261.892
0.118426	268.431
0.130466	272.785
0.157926	278.214
0.187127	285.825
0.221357	285.788
0.243622	286.855
0.260783	290.112
0.289924	293.356
0.315657	297.695
0.341375	300.942
0.361943	303.104
0.387617	303.076
0.404762	305.241
0.461303	309.547
0.526371	311.66
0.593256	321.413
0.660006	321.341
0.726906	332.186
0.786945	341.947
0.864084	350.597
0.927755	375.638
1.00986	496.729
0.05465	235.749
0.115077	273.894
0.221447	292.338
0.308915	305.344
0.406548	310.697
0.51966	321.493
0.607053	329.04
0.704716	336.577
0.807618	351.75
0.922859	393.111
1.01334	501.092
