Adsorption isotherm of Nitrogen on Per-N COF
DOI: 10.1021/jacs.9b08079
Article source: Figure S3-2 (a)
Adsorbate Nitrogen: InChIKey IJGRMHOSHXDMSA-UHFFFAOYSA-N
Kind: experiment
Temperature: 77 K
Tabular data in the source: 0
pressure (bar)	uptake (cm3(STP)/g)
0.002189	34.6756
0.005461	55.3691
0.009829	68.2327
0.029475	85.0112
0.050227	92.2819
0.072062	97.8747
0.091719	102.069
0.112461	105.984
0.133212	109.62
0.153953	112.696
0.17361	116.331
0.194351	119.128
0.214009	122.483
0.23475	126.119
0.255501	129.754
0.275148	133.669
0.290438	137.025
0.305718	140.38
0.329742	145.973
0.355945	156.6
0.37778	176.174
0.40836	184.004
0.433468	185.403
0.458587	186.801
0.484789	188.479
0.509898	189.877
0.535016	190.996
0.560125	192.394
0.586327	193.512
0.610351	194.911
0.636554	196.309
0.65839	201.342
0.685687	203.02
0.711899	204.978
0.737008	206.376
0.76321	208.054
0.788329	209.452
0.813437	211.13
0.838556	212.808
0.863664	214.765
0.888782	217.002
0.914985	219.799
0.938999	223.714
0.963023	230.425
0.994687	256.152
0.004367	63.1991
0.009829	78.0201
0.051321	103.747
0.100454	115.213
0.125562	119.966
0.15068	124.441
0.176883	128.915
0.201991	133.389
0.228204	138.143
0.252218	142.897
0.271875	147.092
0.288249	149.609
0.304634	152.964
0.327563	159.396
0.35486	171.141
0.379969	190.996
0.402899	195.47
0.429101	197.148
0.45422	199.105
0.480422	201.342
0.502258	204.139
0.529555	205.817
0.555757	207.494
0.578687	208.333
0.605984	207.215
0.631093	208.613
0.657305	210.291
0.682414	211.969
0.707532	213.647
0.733735	215.324
0.757749	217.002
0.783962	218.68
0.810164	220.917
0.834188	222.595
0.860391	225.112
0.886594	227.629
0.911702	230.705
0.938999	235.459
0.963023	241.611
0.995782	256.152
