Adsorption isotherm of Nitrogen on Per-Py COF
DOI: 10.1021/jacs.9b08079
Article source: Figure S3-2 (b)
Adsorbate Nitrogen: InChIKey IJGRMHOSHXDMSA-UHFFFAOYSA-N
Kind: experiment
Temperature: 77 K
Tabular data in the source: 0
pressure (bar)	uptake (cm3(STP)/g)
0.002239	21.0396
0.005593	36.2005
0.011196	44.5545
0.029111	55.6931
0.050379	62.1906
0.070532	67.4505
0.090686	72.401
0.111964	76.1139
0.133232	79.2079
0.15451	81.6832
0.172425	84.1584
0.194818	86.0148
0.214961	87.8713
0.234	90.0371
0.255268	92.203
0.275422	94.6782
0.291097	96.8441
0.305657	98.7005
0.331404	101.795
0.356036	104.579
0.381793	107.983
0.4053	112.624
0.431047	127.475
0.456803	129.332
0.483675	130.879
0.508307	132.426
0.534054	133.973
0.55981	135.52
0.584443	137.067
0.609065	138.614
0.633697	140.47
0.659453	143.255
0.6852	145.421
0.709832	147.896
0.736704	150.99
0.761336	153.775
0.785968	155.941
0.811715	158.416
0.837471	160.891
0.862103	164.913
0.886736	168.626
0.913607	175.124
0.938239	183.787
0.962871	200.495
0.991982	275.371
0.004479	48.8861
0.008957	57.5495
0.050379	79.5173
0.098528	91.5842
0.124275	95.297
0.150032	97.7723
0.174664	100.866
0.200411	103.342
0.225043	106.126
0.25079	108.601
0.270943	110.767
0.286618	112.624
0.304532	113.861
0.326925	116.337
0.353797	119.431
0.379553	124.072
0.404185	137.995
0.427693	141.399
0.454564	142.946
0.480311	146.658
0.504943	151.918
0.529575	153.465
0.554207	155.322
0.579964	157.178
0.606835	159.035
0.631457	160.272
0.65609	161.51
0.680722	163.676
0.707593	165.223
0.734464	167.079
0.756857	169.554
0.783729	170.792
0.809485	172.958
0.835232	176.361
0.862103	180.693
0.884496	185.334
0.911368	193.069
0.937114	204.517
0.962871	225.557
0.993096	275.062
