Adsorption isotherm of Nitrogen on Py-TT COF
DOI: 10.1021/jacs.9b08079
Article source: Figure S11-1 (d)
Adsorbate Nitrogen: InChIKey IJGRMHOSHXDMSA-UHFFFAOYSA-N
Kind: experiment
Temperature: 77 K
Tabular data in the source: 0
pressure (bar)	uptake (cm3(STP)/g)
0.001712	172.222
0.002564	256.667
0.005127	318.889
0.006839	347.778
0.013669	391.111
0.020508	408.889
0.025635	425.556
0.034177	443.333
0.037592	452.222
0.041006	461.111
0.052973	476.667
0.056387	490
0.061514	503.333
0.066641	518.889
0.073471	552.222
0.08031	598.889
0.085437	645.556
0.090564	676.667
0.100808	690
0.111062	696.667
0.116189	698.889
0.126443	703.333
0.131571	705.556
0.136698	707.778
0.146952	713.333
0.152069	716.667
0.162323	716.667
0.173428	720
0.192224	724.444
0.212732	728.889
0.234091	732.222
0.254589	734.444
0.274246	738.889
0.290479	741.111
0.30585	743.333
0.330634	745.556
0.355408	747.778
0.381033	751.111
0.405817	753.333
0.432293	754.444
0.457077	758.889
0.482702	758.889
0.507476	761.111
0.533111	763.333
0.558736	765.556
0.584372	767.778
0.609146	768.889
0.63392	770
0.659555	770
0.68518	772.222
0.709103	774.444
0.734738	776.667
0.762075	776.667
0.787701	778.889
0.811623	782.222
0.837259	783.333
0.862884	784.444
0.888519	785.556
0.910729	787.778
0.936354	790
0.959426	792.222
0.992742	802.222
0.005127	334.444
0.008542	376.667
0.015381	402.222
0.020508	418.889
0.027337	432.222
0.030752	445.556
0.045282	471.111
0.052111	485.556
0.066641	523.333
0.071768	538.889
0.076034	567.778
0.082012	621.111
0.085437	665.556
0.095691	687.778
0.119604	705.556
0.176853	724.444
0.201627	728.889
0.227252	734.444
0.251175	741.111
0.270821	742.222
0.286203	744.444
0.302435	745.556
0.32807	747.778
0.351993	752.222
0.378469	754.444
0.403253	757.778
0.428878	758.889
0.454514	761.111
0.480139	763.333
0.504061	766.667
0.528835	768.889
0.555322	770
0.579245	772.222
0.605731	772.222
0.631356	774.444
0.65613	775.556
0.681765	776.667
0.706539	778.889
0.732174	781.111
0.756948	781.111
0.806496	783.333
0.833834	785.556
0.936354	791.111
0.96199	794.444
