Adsorption isotherm of Nitrogen on Tz-TT COF.
DOI: 10.1021/jacs.9b08079
Article source: Figure S3-2 (c)
Adsorbate Nitrogen: InChIKey IJGRMHOSHXDMSA-UHFFFAOYSA-N
Kind: experiment
Temperature: 77 K
Tabular data in the source: 0
pressure (bar)	uptake (cm3(STP)/g)
0.001094	69.8577
0.004367	197.93
0.009839	274.256
0.0306	333.765
0.051372	358.344
0.072143	377.749
0.089632	394.567
0.112582	413.972
0.13226	432.083
0.153021	452.781
0.172698	476.067
0.19347	499.353
0.213147	522.639
0.232814	549.806
0.252492	579.56
0.272169	618.37
0.289658	783.959
0.303864	890.039
0.330097	910.737
0.354141	922.38
0.37929	935.317
0.405523	944.373
0.431756	950.841
0.4558	954.722
0.482033	962.484
0.508266	967.658
0.533405	972.833
0.558544	975.42
0.584777	981.889
0.608821	985.77
0.635054	988.357
0.660193	993.532
0.685342	997.413
0.710481	1001.29
0.735619	1006.47
0.761853	1009.06
0.785897	1011.64
0.81213	1016.82
0.837269	1020.7
0.862407	1024.58
0.887546	1027.17
0.913779	1032.34
0.938928	1037.52
0.964067	1040.1
0.993573	1045.28
0.004367	231.565
0.010933	297.542
0.049183	391.979
0.099471	442.432
0.125704	467.012
0.151937	494.179
0.177076	526.52
0.202214	558.862
0.225164	592.497
0.252492	633.894
0.274358	695.99
0.289658	879.69
0.303864	937.904
0.327908	949.547
0.353057	958.603
0.377101	968.952
0.403334	975.42
0.429567	980.595
0.453612	985.77
0.47875	989.651
0.502795	993.532
0.527944	996.119
0.554177	998.706
0.58041	1003.88
0.604454	1007.76
0.630687	1011.64
0.655826	1014.23
0.67987	1016.82
0.707198	1016.82
0.731242	1019.4
0.757475	1023.29
0.782614	1027.17
0.807763	1029.75
0.831807	1031.05
0.856946	1032.34
0.884273	1034.93
0.909412	1037.52
0.934551	1041.4
0.960784	1045.28
0.993573	1045.28
