Adsorption isotherm of Nitrogen on Py-TT COF after 5 protone deproton cycles
DOI: 10.1021/jacs.9b08079
Article source: Figure S11-1 (d)
Adsorbate Nitrogen: InChIKey IJGRMHOSHXDMSA-UHFFFAOYSA-N
Kind: experiment
Temperature: 77 K
Tabular data in the source: 0
pressure (bar)	uptake (cm3(STP)/g)
0.002564	183.333
0.004276	325.556
0.010254	367.778
0.032465	434.444
0.049548	472.222
0.071768	525.556
0.093979	661.111
0.112775	681.111
0.133273	690
0.152069	696.667
0.173428	701.111
0.193085	705.556
0.214444	711.111
0.234091	714.444
0.25545	717.778
0.275097	721.111
0.290479	723.333
0.306711	726.667
0.331485	728.889
0.35712	732.222
0.381894	734.444
0.406668	736.667
0.432293	740
0.457077	742.222
0.483553	745.556
0.508337	747.778
0.533962	750
0.559598	752.222
0.584372	754.444
0.609997	755.556
0.634781	757.778
0.661257	758.889
0.68518	762.222
0.710815	766.667
0.73644	768.889
0.762075	772.222
0.787701	773.333
0.812475	775.556
0.838961	777.778
0.862884	780
0.888519	782.222
0.914144	784.444
0.938918	786.667
0.963702	790
0.991891	794.444
0.003415	312.222
0.046133	467.778
0.099957	674.444
0.124731	690
0.151217	700
0.176853	707.778
0.201627	712.222
0.227252	717.778
0.252887	723.333
0.271683	725.556
0.287064	727.778
0.301584	730
0.32807	734.444
0.351993	736.667
0.37933	741.111
0.404104	743.333
0.428878	746.667
0.455365	750
0.480139	753.333
0.504061	755.556
0.529697	757.778
0.555322	761.111
0.580957	763.333
0.60487	765.556
0.630505	767.778
0.655279	767.778
0.681765	770
0.709103	772.222
0.732174	772.222
0.756948	775.556
0.783435	776.667
0.808209	778.889
0.833834	781.111
0.856906	783.333
0.884243	783.333
0.910729	785.556
0.934652	787.778
0.960277	790
0.992742	794.444
