Adsorption isotherm of Argon on PTP-COF
DOI: 10.1039/c7fd00051k
Article source: Figure 3d
Adsorbate Argon: InChIKey XKRFYHLGVUSROY-UHFFFAOYSA-N
Kind: experiment
Temperature: 87 K
Tabular data in the source: 0
pressure (bar)	uptake (cm3(STP)/g)
0.159129	14.4319
0.183414	15.5878
0.213513	17.4296
0.236879	19.4704
0.261164	20.7745
0.288712	22.4343
0.312997	23.5901
0.337954	24.9239
0.364351	26.2082
0.392667	28.0729
0.413784	30.4069
0.437301	32.3927
0.465618	33.7165
0.492494	35.7418
0.514572	37.9647
0.541448	39.9405
0.561126	40.8099
0.590745	42.4951
0.613919	43.9417
0.636476	47.5477
0.661337	50.7091
0.691861	53.1394
0.716626	54.6213
0.744942	57.2295
0.76558	60.7268
0.791016	63.3053
0.821527	66.4597
0.843741	70.9477
0.870069	75.8592
0.893106	79.4863
0.9182	84.6547
0.931159	90.2761
0.943541	100.383
0.948437	106.207
0.943157	95.3145
0.965714	127.768
0.985872	157.416
0.964331	112.263
0.99097	178.066
0.128836	13.0608
0.104619	11.0668
0.07798	9.57129
0.053762	8.07577
0.024702	5.08475
0.00775	3.09073
0.000484	1.09671
0.099808	14.9062
0.124244	17.1756
0.14761	19.1741
0.171895	21.1203
0.197812	23.0468
0.221329	24.9831
0.249165	27.0973
0.274314	28.7176
0.298599	30.8021
0.324516	33.0744
0.349952	35.0996
0.375101	36.6013
0.401786	37.9647
0.426935	40.2172
0.452851	42.0547
0.476176	42.9291
0.504767	45.84
0.530684	48.2533
0.554406	50.3139
0.581763	52.6356
0.6048	54.0681
0.626877	56.2415
0.651354	57.9704
0.677463	60.3711
0.702228	62.6236
0.732258	65.9939
0.754061	68.1956
0.780801	70.1009
0.806717	73.1918
0.829343	76.7907
0.852449	80.3473
0.879571	84.347
0.908631	90.8275
0.928005	101.795
0.959488	128.714
0.981283	162.612
0.99097	179.561
0.070714	12.5623
0.044075	10.0698
0.024702	7.57727
0.012593	4.58624
0.005328	2.59222
