Adsorption isotherm of Carbon Dioxide on IRMOF-16
DOI: 10.3866/PKU.WHXB20110319
Adsorbate Carbon Dioxide: InChIKey CURLTUGMZLYLDI-UHFFFAOYSA-N
Temperature: 195 K
Tabular data in the source: 0
pressure (bar)	uptake (mg/g)
0.504278	335.124
0.758059	435.374
0.987201	5045.31
1.0102	602.936
1.17199	972.675
1.17692	770.738
1.32393	5246.29
1.83478	5312.16
2.34645	5344.38
