Adsorption isotherm of Carbon Dioxide on IRMOF-14
DOI: 10.3866/PKU.WHXB20110319
Adsorbate Carbon Dioxide: InChIKey CURLTUGMZLYLDI-UHFFFAOYSA-N
Temperature: 240 K
Tabular data in the source: 0
pressure (bar)	uptake (mg/g)
1.12469	265.475
1.97351	532.512
2.29458	649.626
2.59233	817.843
2.70672	902.146
2.82055	1071.4
2.86307	1597.86
2.97701	1750.13
3.06741	1987.48
3.41213	2002.52
3.59594	2018.47
