Adsorption isotherm of Carbon Dioxide on IRMOF-10
DOI: 10.3866/PKU.WHXB20110319
Adsorbate Carbon Dioxide: InChIKey CURLTUGMZLYLDI-UHFFFAOYSA-N
Temperature: 208 K
Tabular data in the source: 0
pressure (bar)	uptake (mg/g)
0.24911	95.6748
0.427046	191.486
0.604982	248.837
0.782918	325.417
0.925267	440.528
1.06762	517.178
1.1032	632.494
1.17438	2824.66
1.31673	2843.62
1.53025	2920.13
