Adsorption isotherm of Carbon Dioxide on IRMOF-8
DOI: 10.3866/PKU.WHXB20110319
Adsorbate Carbon Dioxide: InChIKey CURLTUGMZLYLDI-UHFFFAOYSA-N
Temperature: 237 K
Tabular data in the source: 0
pressure (bar)	uptake (mg/g)
1.02837	169.082
1.50709	314.01
1.82624	434.783
2.10993	591.787
2.14539	736.715
2.18085	1026.57
2.30496	1316.43
2.39362	1388.89
2.51773	1461.35
