Adsorption isotherm of Carbon Dioxide on IRMOF-10
DOI: 10.3866/PKU.WHXB20110319
Adsorbate Carbon Dioxide: InChIKey CURLTUGMZLYLDI-UHFFFAOYSA-N
Temperature: 273 K
Tabular data in the source: 0
pressure (bar)	uptake (mg/g)
1.03203	74.9384
2.02847	130.714
2.98932	167.328
4.02135	223.036
5.01779	298.043
6.01423	353.819
7.01068	467.287
8.00712	542.294
