Adsorption isotherm of Carbon Dioxide on IRMOF-16
DOI: 10.3866/PKU.WHXB20110319
Adsorbate Carbon Dioxide: InChIKey CURLTUGMZLYLDI-UHFFFAOYSA-N
Temperature: 240 K
Tabular data in the source: 0
pressure (bar)	uptake (mg/g)
3.06673	327.938
4.09007	392.376
5.02635	524.365
6.04722	689.771
6.55889	721.99
6.98351	821.761
7.49517	853.98
8.00356	1020.82
8.51112	1221.32
9.0154	1556.45
9.97714	4145.1
10.9988	4276.85
11.9359	4375.18
