Adsorption isotherm of Carbon Dioxide on IRMOF-1
DOI: 10.3866/PKU.WHXB20110319
Adsorbate Carbon Dioxide: InChIKey CURLTUGMZLYLDI-UHFFFAOYSA-N
Temperature: 195 K
Tabular data in the source: 0
pressure (bar)	uptake (mg/g)
0.0231677	17.7461
0.0430203	35.5254
0.0595704	47.3451
0.0794107	71.117
0.0992385	100.882
0.117446	112.685
0.142197	166.37
0.197738	1358.32
0.219261	1370.09
0.237468	1381.9
0.260686	1375.67
0.278881	1393.47
0.297076	1411.27
