Adsorption isotherm of Carbon Dioxide on IRMOF-14
DOI: 10.3866/PKU.WHXB20110319
Adsorbate Carbon Dioxide: InChIKey CURLTUGMZLYLDI-UHFFFAOYSA-N
Temperature: 195 K
Tabular data in the source: 0
pressure (bar)	uptake (mg/g)
0.114054	135.276
0.227996	287.544
0.317499	660.823
0.328993	2410.76
0.397292	2512.31
0.603638	2596.1
0.787107	2663.02
