Adsorption isotherm of Carbon Dioxide on IRMOF-8
DOI: 10.3866/PKU.WHXB20110319
Adsorbate Carbon Dioxide: InChIKey CURLTUGMZLYLDI-UHFFFAOYSA-N
Temperature: 248 K
Tabular data in the source: 0
pressure (bar)	uptake (mg/g)
0.514184	60.3865
1.01064	132.85
1.50709	193.237
1.98582	289.855
2.51773	410.628
2.99645	567.633
3.51064	1026.57
4.02482	1400.97
4.52128	1485.51
