Adsorption isotherm of Carbon Dioxide on IRMOF-16
DOI: 10.3866/PKU.WHXB20110319
Adsorbate Carbon Dioxide: InChIKey CURLTUGMZLYLDI-UHFFFAOYSA-N
Temperature: 218 K
Tabular data in the source: 0
pressure (bar)	uptake (mg/g)
1.10383	266.135
2.12224	532.51
3.13572	1000.82
3.29916	4803.25
3.30162	1202.28
3.5554	4802.53
3.8946	4902.54
