Adsorption isotherm of Carbon Dioxide on IRMOF-14
DOI: 10.3866/PKU.WHXB20110319
Adsorbate Carbon Dioxide: InChIKey CURLTUGMZLYLDI-UHFFFAOYSA-N
Temperature: 233 K
Tabular data in the source: 0
pressure (bar)	uptake (mg/g)
0.527751	149.924
0.917789	266.647
1.19299	367.03
1.49096	501.265
1.72018	601.908
1.90321	736.794
2.01748	838.089
2.10788	1075.44
2.19448	1890.48
2.37784	1974.4
2.51499	2092.55
