Adsorption isotherm of Carbon Dioxide on IRMOF-14
DOI: 10.3866/PKU.WHXB20110319
Adsorbate Carbon Dioxide: InChIKey CURLTUGMZLYLDI-UHFFFAOYSA-N
Temperature: 218 K
Tabular data in the source: 0
pressure (bar)	uptake (mg/g)
0.25199	134.495
0.435459	201.417
0.824604	454.068
0.938769	572.353
1.00662	741.872
1.07492	843.427
1.08943	2134.61
1.1806	2253.02
1.38706	2319.81
1.61696	2318.51
