Adsorption isotherm of Carbon Dioxide on IRMOF-1
DOI: 10.3866/PKU.WHXB20110319
Adsorbate Carbon Dioxide: InChIKey CURLTUGMZLYLDI-UHFFFAOYSA-N
Temperature: 223 K
Tabular data in the source: 0
pressure (bar)	uptake (mg/g)
0.120273	45.3281
0.224884	81.4308
0.355648	126.559
0.507094	209.389
0.601139	255.216
0.662887	406.421
0.695034	986.761
0.757007	1109.39
0.845656	1174.37
0.903432	1163.74
