Adsorption isotherm of Carbon Dioxide on IRMOF-8
DOI: 10.3866/PKU.WHXB20110319
Adsorbate Carbon Dioxide: InChIKey CURLTUGMZLYLDI-UHFFFAOYSA-N
Temperature: 233 K
Tabular data in the source: 0
pressure (bar)	uptake (mg/g)
0.602837	108.696
0.992908	217.391
1.40071	338.164
1.61348	458.937
1.70213	519.324
1.80851	676.329
1.89716	1364.73
2.02128	1437.2
