Adsorption isotherm of Carbon Dioxide on IRMOF-10
DOI: 10.3866/PKU.WHXB20110319
Adsorbate Carbon Dioxide: InChIKey CURLTUGMZLYLDI-UHFFFAOYSA-N
Temperature: 218 K
Tabular data in the source: 0
pressure (bar)	uptake (mg/g)
0.24911	95.6748
0.533808	152.82
0.996441	286.545
1.35231	401.246
1.63701	612.237
1.70819	2631.33
1.92171	2707.84
2.31317	2764.78
