Adsorption isotherm of Carbon Dioxide on IRMOF-1
DOI: 10.3866/PKU.WHXB20110319
Adsorbate Carbon Dioxide: InChIKey CURLTUGMZLYLDI-UHFFFAOYSA-N
Temperature: 228 K
Tabular data in the source: 0
pressure (bar)	uptake (mg/g)
0.303492	89.4573
0.700879	243.793
0.737223	290.72
0.773642	328.121
0.824824	489.051
0.855098	640.855
0.879602	859.436
0.89414	1011.54
0.946371	1039.12
0.998601	1066.69
