Adsorption isotherm of Carbon Dioxide on IRMOF-16
DOI: 10.3866/PKU.WHXB20110319
Adsorbate Carbon Dioxide: InChIKey CURLTUGMZLYLDI-UHFFFAOYSA-N
Temperature: 266 K
Tabular data in the source: 0
pressure (bar)	uptake (mg/g)
4.09335	257.751
8.18589	549.158
12.1051	942.013
13.0406	1107.66
13.9769	1239.65
14.9969	1438.71
15.5899	1638.97
15.893	3219.85
16.2305	3387.17
16.6535	3554.26
17.0781	3654.03
17.929	3786.26
