Adsorption isotherm of Carbon Dioxide on IRMOF-8
DOI: 10.3866/PKU.WHXB20110319
Adsorbate Carbon Dioxide: InChIKey CURLTUGMZLYLDI-UHFFFAOYSA-N
Temperature: 195 K
Tabular data in the source: 0
pressure (bar)	uptake (mg/g)
0.0531915	60.3865
0.106383	96.6184
0.177305	193.237
0.248227	265.7
0.283688	350.242
0.319149	1920.29
0.390071	1956.52
