Adsorption isotherm of Carbon Dioxide on IRMOF-16
DOI: 10.3866/PKU.WHXB20110319
Adsorbate Carbon Dioxide: InChIKey CURLTUGMZLYLDI-UHFFFAOYSA-N
Temperature: 233 K
Tabular data in the source: 0
pressure (bar)	uptake (mg/g)
2.12716	330.573
3.06345	462.562
3.57347	562.094
4.0835	661.625
5.10109	961.656
5.51913	1330.68
5.78523	4426.08
6.12278	4593.41
6.97611	4624.67
8.00027	4655.45
