Adsorption isotherm of Carbon Dioxide on IRMOF-16
DOI: 10.3866/PKU.WHXB20110319
Adsorbate Carbon Dioxide: InChIKey CURLTUGMZLYLDI-UHFFFAOYSA-N
Temperature: 273 K
Tabular data in the source: 0
pressure (bar)	uptake (mg/g)
3.07002	193.313
6.05626	319.554
7.93211	448.908
8.95627	479.69
10.1496	577.305
11.0021	642.222
12.0238	773.972
14.0705	902.847
15.006	1068.49
16.0293	1132.93
16.9639	1332.23
17.4723	1499.08
17.9823	1598.61
18.5696	2034.46
18.9909	2268.86
19.5748	2839.33
19.9953	3107.38
20.5021	3341.54
21.44	3406.22
