Adsorption isotherm of Carbon Dioxide on IRMOF-10
DOI: 10.3866/PKU.WHXB20110319
Adsorbate Carbon Dioxide: InChIKey CURLTUGMZLYLDI-UHFFFAOYSA-N
Temperature: 244 K
Tabular data in the source: 0
pressure (bar)	uptake (mg/g)
1.1032	132.494
2.02847	246.099
3.02491	398.029
4.02135	646.113
4.23488	722.625
4.4484	876.061
4.51957	2029.77
4.66192	2164.11
5.05338	2240.28
