Adsorption isotherm of Carbon Dioxide on IRMOF-10
DOI: 10.3866/PKU.WHXB20110319
Adsorbate Carbon Dioxide: InChIKey CURLTUGMZLYLDI-UHFFFAOYSA-N
Temperature: 248 K
Tabular data in the source: 0
pressure (bar)	uptake (mg/g)
1.03203	132.631
1.99288	207.706
3.02491	340.337
4.02135	511.497
4.48399	625.992
5.01779	894.197
5.08897	1009.44
5.23132	1528.4
5.33808	1970.5
5.62278	2162.26
5.87189	2200.25
6.19217	2295.78
6.51246	2314.4
6.79715	2333.08
