Adsorption isotherm of Carbon Dioxide on IRMOF-10
DOI: 10.3866/PKU.WHXB20110319
Adsorbate Carbon Dioxide: InChIKey CURLTUGMZLYLDI-UHFFFAOYSA-N
Temperature: 208 K
Tabular data in the source: 0
pressure (bar)	uptake (mg/g)
0.932996	266.614
1.27219	366.624
1.60892	567.603
1.77647	701.749
2.02697	936.623
2.10827	1104.66
2.18301	5041.95
3.20635	5106.39
