Adsorption isotherm of Carbon Dioxide on IRMOF-14
DOI: 10.3866/PKU.WHXB20110319
Adsorbate Carbon Dioxide: InChIKey CURLTUGMZLYLDI-UHFFFAOYSA-N
Temperature: 244 K
Tabular data in the source: 0
pressure (bar)	uptake (mg/g)
1.03341	164.05
2.04304	447.167
2.52481	597.351
3.00603	832.49
3.12042	916.794
3.18883	1001.36
3.30221	1238.58
3.39249	1492.92
3.62082	1729.49
3.71211	1830.92
3.91857	1897.71
4.10204	1964.63
