Adsorption isotherm of Carbon Dioxide on IRMOF-8
DOI: 10.3866/PKU.WHXB20110319
Adsorbate Carbon Dioxide: InChIKey CURLTUGMZLYLDI-UHFFFAOYSA-N
Temperature: 195 K
Tabular data in the source: 0
pressure (bar)	uptake (mg/g)
0.0501639	45.887
0.100328	91.774
0.150492	137.661
0.200656	205.869
0.252295	285.275
0.27	352.679
0.290656	1926.85
0.299508	1982.87
0.323115	1927.66
0.352623	1961.87
0.401311	1985.4
