Adsorption isotherm of Carbon Dioxide on IRMOF-10
DOI: 10.3866/PKU.WHXB20110319
Adsorbate Carbon Dioxide: InChIKey CURLTUGMZLYLDI-UHFFFAOYSA-N
Temperature: 240 K
Tabular data in the source: 0
pressure (bar)	uptake (mg/g)
2.27758	322.543
3.0605	494.114
3.3452	532.028
3.62989	685.327
3.73665	819.737
3.95018	2242.4
4.19929	2357.31
