Adsorption isotherm of Carbon Dioxide on IRMOF-1
DOI: 10.3866/PKU.WHXB20110319
Adsorbate Carbon Dioxide: InChIKey CURLTUGMZLYLDI-UHFFFAOYSA-N
Temperature: 218 K
Tabular data in the source: 0
pressure (bar)	uptake (mg/g)
0.120198	54.8534
0.219563	91.0559
0.391992	173.486
0.428261	229.938
0.454414	238.964
0.50642	295.116
0.552655	1084.71
0.599341	1150.49
0.698406	1224.79
0.792601	1251.57
