Adsorption isotherm of Carbon Dioxide on IRMOF-1
DOI: 10.3866/PKU.WHXB20110319
Adsorbate Carbon Dioxide: InChIKey CURLTUGMZLYLDI-UHFFFAOYSA-N
Temperature: 233 K
Tabular data in the source: 0
pressure (bar)	uptake (mg/g)
0.214618	53.0549
0.413648	87.3591
0.607209	150.339
0.717065	186.342
0.80594	222.744
0.89991	278.097
0.998751	380.976
1.03465	485.054
1.07054	589.133
1.1161	797.789
1.15679	958.918
1.19883	948.594
