Adsorption isotherm of Carbon Dioxide on IRMOF-1
DOI: 10.3866/PKU.WHXB20110319
Adsorbate Carbon Dioxide: InChIKey CURLTUGMZLYLDI-UHFFFAOYSA-N
Temperature: 218 K
Tabular data in the source: 0
pressure (bar)	uptake (mg/g)
0.0996356	28.8848
0.199247	68.8805
0.39841	176.649
0.416513	187.961
0.443643	216.04
0.50392	283.377
0.544477	1089.38
0.60171	1167.8
0.701249	1241.12
0.800885	1270.01
