Adsorption isotherm of Carbon Dioxide on IRMOF-1
DOI: 10.3866/PKU.WHXB20110319
Adsorbate Carbon Dioxide: InChIKey CURLTUGMZLYLDI-UHFFFAOYSA-N
Temperature: 208 K
Tabular data in the source: 0
pressure (bar)	uptake (mg/g)
0.120048	73.9038
0.203452	138.982
0.266024	185.409
0.312634	260.712
0.326198	1203.31
0.34171	1231.59
0.367712	1259.66
0.409602	1268.39
0.487985	1304.99
