Adsorption isotherm of Carbon Dioxide on IRMOF-10
DOI: 10.3866/PKU.WHXB20110319
Adsorbate Carbon Dioxide: InChIKey CURLTUGMZLYLDI-UHFFFAOYSA-N
Temperature: 195 K
Tabular data in the source: 0
pressure (bar)	uptake (mg/g)
0.177936	153.504
0.320285	230.153
0.427046	306.871
0.533808	402.82
0.604982	537.298
0.640569	2883.38
0.782918	3036.96
1.03203	3017.25
1.24555	3093.76
1.45907	3054.89
