Adsorption isotherm of Carbon Dioxide on IRMOF-8
DOI: 10.3866/PKU.WHXB20110319
Adsorbate Carbon Dioxide: InChIKey CURLTUGMZLYLDI-UHFFFAOYSA-N
Temperature: 218 K
Tabular data in the source: 0
pressure (bar)	uptake (mg/g)
0.283688	84.5411
0.602837	217.391
0.780142	338.164
0.921986	458.937
1.01064	1690.82
1.18794	1739.13
1.40071	1811.59
1.61348	1859.9
