Adsorption isotherm of Carbon Dioxide on IRMOF-8
DOI: 10.3866/PKU.WHXB20110319
Adsorbate Carbon Dioxide: InChIKey CURLTUGMZLYLDI-UHFFFAOYSA-N
Temperature: 208 K
Tabular data in the source: 0
pressure (bar)	uptake (mg/g)
0.0886525	48.3092
0.195035	96.6184
0.301418	157.005
0.390071	217.391
0.514184	314.01
0.549645	410.628
0.585106	1799.52
0.72695	1835.75
