Adsorption isotherm of Carbon Dioxide on IRMOF-16
DOI: 10.3866/PKU.WHXB20110319
Adsorbate Carbon Dioxide: InChIKey CURLTUGMZLYLDI-UHFFFAOYSA-N
Temperature: 260 K
Tabular data in the source: 0
pressure (bar)	uptake (mg/g)
4.09171	325.063
8.01177	684.262
10.056	914.106
10.9069	1046.33
11.4161	1179.52
12.0115	1278.81
12.5182	1512.97
12.9379	1814.68
13.2361	3597.5
13.5753	3697.51
13.9999	3797.28
15.0232	3861.71
