Adsorption isotherm of Carbon Dioxide on IRMOF-14
DOI: 10.3866/PKU.WHXB20110319
Adsorbate Carbon Dioxide: InChIKey CURLTUGMZLYLDI-UHFFFAOYSA-N
Temperature: 248 K
Tabular data in the source: 0
pressure (bar)	uptake (mg/g)
0.505096	99.0812
1.19422	180.13
1.42367	246.792
1.60736	279.732
2.02061	362.343
2.47961	478.675
2.98426	645.72
3.37386	830.407
3.80853	1150.76
4.1729	1675.4
4.56216	1911.06
4.99862	1959.55
5.96373	2022.05
