Adsorption isotherm of Carbon Dioxide on IRMOF-8
DOI: 10.3866/PKU.WHXB20110319
Adsorbate Carbon Dioxide: InChIKey CURLTUGMZLYLDI-UHFFFAOYSA-N
Temperature: 240 K
Tabular data in the source: 0
pressure (bar)	uptake (mg/g)
1.01064	169.082
1.98582	422.705
2.30496	567.633
2.39362	724.638
2.51773	1014.49
2.60638	1304.35
2.89007	1485.51
3.20922	1533.82
