Adsorption isotherm of Carbon Dioxide on IRMOF-1-4Li
DOI: 10.3866/PKU.WHXB20110319
Adsorbate Carbon Dioxide: InChIKey CURLTUGMZLYLDI-UHFFFAOYSA-N
Temperature: 218 K
Tabular data in the source: 0
pressure (bar)	uptake (mg/g)
0.0995157	84.4391
0.19595	196.622
0.250138	286.113
0.298259	386.647
0.34547	909.394
0.390666	965.452
0.493167	1066.59
0.59273	1128.81
0.692366	1157.69
0.795046	1175.5
