Adsorption isotherm of Carbon Dioxide on IRMOF-1
DOI: 10.3866/PKU.WHXB20110319
Adsorbate Carbon Dioxide: InChIKey CURLTUGMZLYLDI-UHFFFAOYSA-N
Temperature: 195 K
Tabular data in the source: 0
pressure (bar)	uptake (mg/g)
0.0265018	28.9855
0.0583039	57.971
0.100707	106.28
0.137809	154.589
0.196113	1391.3
0.238516	1371.98
0.270318	1381.64
0.30212	1400.97
