Adsorption isotherm of Carbon Dioxide on IRMOF-10
DOI: 10.3866/PKU.WHXB20110319
Adsorbate Carbon Dioxide: InChIKey CURLTUGMZLYLDI-UHFFFAOYSA-N
Temperature: 233 K
Tabular data in the source: 0
pressure (bar)	uptake (mg/g)
1.03203	190.323
1.53025	266.288
2.02847	380.714
2.4911	514.44
2.70463	552.491
2.91815	744.388
3.02491	2398.03
3.52313	2512.46
4.02135	2549.96
