Adsorption isotherm of Carbon Dioxide on IRMOF-14
DOI: 10.3866/PKU.WHXB20110319
Adsorbate Carbon Dioxide: InChIKey CURLTUGMZLYLDI-UHFFFAOYSA-N
Temperature: 208 K
Tabular data in the source: 0
pressure (bar)	uptake (mg/g)
0.160368	84.0432
0.229001	134.625
0.388587	337.605
0.502753	455.891
0.616472	642.14
0.63868	760.946
0.697158	2357.7
0.834983	2373.91
0.995462	2440.96
1.24812	2473.51
