Adsorption isotherm of Carbon Dioxide on C22H34N2O16Co2
DOI: 10.1007/s11426-011-4395-7
Adsorbate Carbon Dioxide: InChIKey CURLTUGMZLYLDI-UHFFFAOYSA-N
Temperature: 195 K
Tabular data in the source: 0
pressure (bar)	uptake (cm3(STP)/g)
0.0146506	0.325581
0.0659961	0.813953
0.120996	1.46512
0.175978	2.27907
0.227324	2.76744
0.274964	3.5814
0.32631	4.06977
0.381292	4.88372
0.428932	5.69767
0.480244	6.51163
0.531572	7.16279
0.582866	8.13953
0.630507	8.95349
0.681767	10.2558
0.733061	11.2326
0.780684	12.2093
0.835615	13.5116
0.886875	14.814
0.982053	17.4186
1.02232	18.5581
