Adsorption isotherm of Nitrogen on C22H34N2O16Co2
DOI: 10.1007/s11426-011-4395-7
Adsorbate Nitrogen: InChIKey IJGRMHOSHXDMSA-UHFFFAOYSA-N
Temperature: 77 K
Tabular data in the source: 0
pressure (bar)	uptake (cm3(STP)/g)
0.0255618	1.30233
0.054863	1.95349
0.0804931	2.60465
0.113483	3.09302
0.135442	3.74419
0.16476	4.23256
0.194078	4.72093
0.249044	5.69767
0.311352	6.67442
0.362646	7.65116
0.402961	8.30233
0.454255	9.27907
0.505549	10.2558
0.553206	10.907
0.608172	11.8837
0.659449	13.0233
0.714432	13.8372
0.758367	14.9767
0.802318	15.9535
0.83162	16.6047
0.853562	17.4186
0.879175	18.2326
0.904788	19.0465
0.937709	20.186
0.959565	21.814
0.984956	24.7442
0.995799	26.3721
1.00598	34.3488
1.00647	29.6279
