Adsorption isotherm of Nitrogen on Î±-TiPPr
DOI: 10.1007/s10450-019-00133-2
Article source: Figure 2(b)
Adsorbate Nitrogen: InChIKey IJGRMHOSHXDMSA-UHFFFAOYSA-N
Kind: experiment
Temperature: 77 K
Tabular data in the source: 0
pressure (bar)	uptake (cm3(STP)/g)
0.007954	0.13941
0.018188	0.32528
0.028422	0.51115
0.038655	0.60409
0.048889	0.78996
0.059123	0.8829
0.069347	0.97584
0.079581	1.06877
0.089814	1.25465
0.100048	1.30112
0.125623	1.53346
0.152484	1.7658
0.176782	1.99814
0.202366	2.18401
0.227941	2.41636
0.253525	2.6487
0.277823	2.7881
0.303408	2.97398
0.328982	3.20632
0.354567	3.39219
0.380151	3.5316
0.404449	3.671
0.43131	3.85688
0.456885	4.04275
0.481182	4.18216
0.506767	4.36803
0.532351	4.5539
0.557926	4.69331
0.58351	4.83271
0.609085	5.01859
0.634669	5.20446
0.660244	5.34387
0.685828	5.52974
0.711403	5.71561
0.735711	5.85502
0.762562	5.99442
0.78687	6.1803
0.813731	6.36617
0.838029	6.55204
0.863603	6.83086
0.886634	7.0632
0.912209	7.34201
0.937793	7.80669
0.954421	8.13197
0.964644	8.50372
0.973602	9.01487
0.985112	9.61896
0.987665	9.99071
0.990229	10.2695
0.994069	10.8736
1.00046	11.9424
1.00174	12.6394
1.00558	13.5688
1.00941	15.6134
1.01197	18.5409
0.009241	0.09294
0.036092	0.41822
0.101325	1.0223
0.20109	1.71933
0.303408	2.32342
0.35329	2.60223
0.404449	2.92751
0.454331	3.20632
0.50549	3.76394
0.555372	4.18216
0.605255	4.46097
0.656414	4.87918
0.707573	5.2974
0.757455	5.66914
0.808614	6.13383
0.859773	6.64498
0.894305	7.15613
0.960814	8.829
0.992782	11.7565
1.01325	23.2807
