Adsorption isotherm of Nitrogen on Eu_1.6
DOI: 10.1007/s10450-019-00133-2
Article source: Figure 2(d)
Adsorbate Nitrogen: InChIKey IJGRMHOSHXDMSA-UHFFFAOYSA-N
Kind: experiment
Temperature: 77 K
Tabular data in the source: 0
pressure (bar)	uptake (cm3(STP)/g)
0.003445	4.98305
0.014591	7.83051
0.031938	9.49153
0.049284	10.4407
0.064159	10.9152
0.074069	11.3898
0.082742	11.7458
0.091415	12.1017
0.102561	12.339
0.124863	12.9322
0.150883	13.6441
0.176903	14.3559
0.202924	14.8305
0.227708	15.4237
0.253728	16.017
0.279748	16.6102
0.304522	17.0847
0.329306	17.5593
0.35409	18.0339
0.378864	18.5085
0.406131	18.983
0.430905	19.4576
0.455689	19.9322
0.481709	20.5254
0.506483	20.8814
0.531267	21.3559
0.557288	21.8305
0.582072	22.4237
0.608092	22.8983
0.632866	23.4915
0.658886	23.9661
0.68367	24.678
0.70969	25.1525
0.734464	25.8644
0.760485	26.4576
0.785269	27.1695
0.810053	28
0.836073	28.8305
0.860847	29.661
0.886867	30.7288
0.911651	32.0339
0.936425	33.6949
0.952536	35.2373
0.962446	36.661
0.972365	38.4407
0.982275	40.8136
0.985994	42.1186
0.988466	42.9492
0.992185	44.9661
0.997139	48.4068
1.00086	51.3729
1.00334	54.339
1.00706	59.4407
0.002199	6.40678
0.009636	8.54237
0.049284	11.1525
0.100089	13.0508
0.201687	15.5424
0.26612	16.9661
0.319397	17.9153
0.398694	19.5763
0.463126	21
0.507729	21.9492
0.556051	22.7797
0.606846	23.9661
0.656414	25.2712
0.708444	26.339
0.761731	27.6441
0.777831	28.2373
0.832354	30.4915
0.888103	32.9831
0.940144	37.1356
0.972365	44.8475
0.998386	60.3898
1.01077	66.4407
1.01077	68.1017
