Adsorption isotherm of Nitrogen on Î±-TiP
DOI: 10.1007/s10450-019-00133-2
Article source: Figure 2(a)
Adsorbate Nitrogen: InChIKey IJGRMHOSHXDMSA-UHFFFAOYSA-N
Kind: experiment
Temperature: 77 K
Tabular data in the source: 0
pressure (bar)	uptake (cm3(STP)/g)
0.019991	0.39704
0.037247	0.59476
0.054493	0.79247
0.061889	0.79166
0.07421	0.79031
0.081607	0.7895
0.091466	0.98802
0.101325	1.08675
0.125967	1.18385
0.151846	1.18102
0.177734	1.27798
0.202376	1.37509
0.228255	1.37226
0.252897	1.46936
0.278786	1.46653
0.303428	1.46383
0.329306	1.5608
0.353948	1.4583
0.379827	1.55527
0.405715	1.45264
0.430358	1.54974
0.456236	1.44711
0.480878	1.44441
0.506767	1.54138
0.532645	1.53854
0.557288	1.53585
0.583166	1.53302
0.609044	1.53018
0.633697	1.62729
0.659575	1.62445
0.685453	1.62162
0.710096	1.71872
0.735974	1.81569
0.761853	1.91266
0.786505	2.00976
0.812383	2.20653
0.837026	2.40344
0.862904	2.70001
0.887556	3.09651
0.913435	3.59268
0.936841	4.48832
0.951634	5.28511
0.962729	6.08229
0.972578	7.37862
0.982437	9.27375
0.988608	11.0695
0.99107	12.9654
0.995994	16.0587
0.999693	19.3517
1.00339	23.0439
1.00585	29.7303
1.00833	40.4086
0.00767	0.19879
0.011369	0.29819
0.049568	0.39381
0.071748	0.59098
0.20114	0.97602
0.263992	0.96914
0.314523	0.96361
0.365044	0.85828
0.415574	0.85275
0.466095	0.84722
0.517852	0.84156
0.568383	0.83603
0.618903	0.8305
0.669434	0.92477
0.721191	0.91911
0.771711	1.31278
0.823468	1.50672
0.876461	2.09972
0.939313	3.78945
0.983673	10.3714
0.998467	27.3359
1.00585	42.6045
1.01079	56.7756
