Adsorption isotherm of Nitrogen on Eu_2.4
DOI: 10.1007/s10450-019-00133-2
Article source: Figure 2(e)
Adsorbate Nitrogen: InChIKey IJGRMHOSHXDMSA-UHFFFAOYSA-N
Kind: experiment
Temperature: 77 K
Tabular data in the source: 0
pressure (bar)	uptake (cm3(STP)/g)
0.003212	5.69948
0.005735	10.8808
0.010761	15.0259
0.020822	17.0984
0.028371	18.6528
0.039689	19.6891
0.063592	21.7617
0.073653	22.7979
0.081202	23.3161
0.091263	24.3523
0.126484	26.4249
0.151643	27.9793
0.176792	29.5337
0.203207	31.0881
0.228366	32.1244
0.252269	33.6788
0.278674	35.2332
0.30509	36.7876
0.330249	37.8238
0.356664	39.8964
0.3793	40.9326
0.406982	43.0052
0.430874	44.0415
0.456033	45.0777
0.481192	47.1503
0.506341	48.1865
0.532757	50.2591
0.557916	51.8135
0.583075	53.886
0.608234	55.4404
0.634639	57.513
0.658542	59.0674
0.684957	61.658
0.70886	63.2124
0.735275	65.285
0.760424	67.8756
0.785583	70.4663
0.810742	73.057
0.837157	76.1658
0.86105	80.3109
0.886209	85.4922
0.910111	93.2643
0.93526	106.218
0.954137	119.171
0.964199	129.534
0.973004	140.415
0.983065	155.959
0.985578	161.658
0.988091	166.321
0.99187	175.13
0.996896	190.155
1.00193	206.218
1.00444	218.135
1.00821	239.896
1.01199	259.585
0.005735	9.84456
0.010761	15.0259
0.051007	20.7254
0.101325	24.8705
0.204464	31.0881
0.30509	36.7876
0.351628	39.8964
0.40069	42.487
0.45729	47.1503
0.505085	51.8135
0.556659	55.4404
0.605711	59.5855
0.659798	62.6943
0.677408	64.2487
0.732752	68.9119
0.796901	75.1295
0.869855	89.1192
0.922686	110.881
0.957906	140.415
0.976773	165.803
0.988091	188.083
0.99564	211.917
1.00193	236.269
1.0057	254.404
1.01451	278.238
