Adsorption isotherm of Nitrogen on Eu_0.8
DOI: 10.1007/s10450-019-00133-2
Article source: Figure 2(c)
Adsorbate Nitrogen: InChIKey IJGRMHOSHXDMSA-UHFFFAOYSA-N
Kind: experiment
Temperature: 77 K
Tabular data in the source: 0
pressure (bar)	uptake (cm3(STP)/g)
0.0061	4.98113
0.017094	5.88679
0.026861	6.79245
0.040287	7.24528
0.05127	7.69811
0.061038	7.69811
0.070806	8.37736
0.080574	8.60377
0.090341	8.83019
0.102541	9.0566
0.12696	9.50943
0.152595	9.96226
0.178231	10.4151
0.20265	10.8679
0.228285	11.0943
0.25392	11.3208
0.27834	11.7736
0.305191	11.7736
0.32961	12.2264
0.355245	12.6792
0.379665	12.9057
0.406516	13.3585
0.430935	13.8113
0.455355	14.0377
0.48099	14.4906
0.506625	14.9434
0.53226	15.3962
0.55668	15.8491
0.582315	16.5283
0.60795	16.9811
0.632369	17.6604
0.658005	18.3396
0.68364	19.0189
0.708059	19.6981
0.733694	20.6038
0.75933	21.5094
0.784965	22.4151
0.8106	23.7736
0.835019	25.1321
0.860655	26.9434
0.88629	28.9811
0.910709	31.6981
0.935118	35.7736
0.94977	39.3962
0.960754	42.566
0.970521	46.1887
0.980289	51.3962
0.983947	54.1132
0.986389	56.6038
0.991273	59.7736
0.996156	65.434
0.998598	69.7358
1.00104	73.8113
1.00471	81.0566
1.01081	91.2453
0.002442	5.88679
0.009768	7.4717
0.05127	9.50943
0.100109	10.4151
0.201434	12.2264
0.303975	13.3585
0.35403	14.0377
0.401642	14.4906
0.45657	15.8491
0.505409	17.6604
0.555454	18.7924
0.605508	20.1509
0.656779	21.7358
0.708059	23.5472
0.760545	25.5849
0.811816	28.3019
0.865538	32.3774
0.915583	39.1698
0.942444	45.5094
0.969305	56.8302
0.991273	72.4528
1.00348	88.9811
1.01203	112.075
