Adsorption isotherm of Methane on NKMOF-8-Br
DOI: 10.1021/acs.jced.1c00787
Article source: AIF Supplementary Data
Adsorbate Methane: InChIKey VNWKTOKETHGBQD-UHFFFAOYSA-N
Kind: experiment
Isotherm type: excess
Temperature: 273 K
Tabular data in the source: 0
pressure (bar)	uptake (mmol/g)
0.00114	0.0057
0.00206	0.01196
0.00308	0.01953
0.0041	0.02673
0.00507	0.03363
0.00705	0.04723
0.00907	0.06103
0.0101	0.06838
0.02022	0.13798
0.0301	0.20536
0.04058	0.27651
0.05088	0.34495
0.06086	0.41125
0.07101	0.47693
0.08102	0.5399
0.0909	0.60235
0.09914	0.6521
0.12134	0.78553
0.14119	0.89637
0.16139	1.00747
0.17987	1.09759
0.20048	1.20239
0.21935	1.29126
0.23944	1.37983
0.25964	1.46561
0.30123	1.6214
0.32101	1.69113
0.34166	1.76064
0.36168	1.82398
0.3799	1.87981
0.40162	1.94346
0.41988	1.98921
0.44186	2.04762
0.46104	2.08878
0.48026	2.14237
0.50048	2.18583
0.52007	2.22795
0.54055	2.26926
0.56089	2.30785
0.58112	2.34373
0.60157	2.37809
0.62054	2.41252
0.64014	2.44584
0.6604	2.47297
0.67975	2.49942
0.69928	2.52821
0.72106	2.56263
0.73994	2.58707
0.76002	2.61254
0.78012	2.63625
0.79985	2.66123
0.8192	2.68121
0.83927	2.70752
0.85945	2.72649
0.88041	2.74846
0.8999	2.76773
0.91969	2.78758
0.94058	2.80513
0.96033	2.82199
0.98067	2.83862
0.99466	2.85054
0.99798	2.85465
0.9943	2.85265
0.95098	2.81437
0.89851	2.76691
0.84933	2.71711
0.79994	2.66219
0.75027	2.60328
0.70083	2.53824
0.64811	2.45971
0.59783	2.37857
0.54978	2.28492
0.49851	2.18557
0.45082	2.07579
0.3972	1.93771
0.34866	1.78843
0.29938	1.62263
0.24815	1.41833
0.19752	1.19185
0.14887	0.9425
0.09991	0.65896
0.0706	0.47552
