Adsorption isotherm of Nitrogen on NKMOF-8-Br
DOI: 10.1021/acs.jced.1c00787
Article source: AIF Supplementary Data
Adsorbate Nitrogen: InChIKey IJGRMHOSHXDMSA-UHFFFAOYSA-N
Kind: experiment
Isotherm type: excess
Temperature: 298 K
Tabular data in the source: 0
pressure (bar)	uptake (mmol/g)
0.00108	7.6e-05
0.00207	0.000254
0.00304	0.000491
0.00403	0.000795
0.00502	0.00113
0.00702	0.00184
0.00903	0.00258
0.01	0.00293
0.02	0.00699
0.0299	0.01073
0.0399	0.01452
0.0501	0.01845
0.06	0.02214
0.0698	0.02588
0.0798	0.02964
0.0902	0.03363
0.0999	0.03721
0.121	0.04504
0.141	0.05263
0.161	0.06001
0.181	0.06739
0.201	0.07488
0.221	0.08229
0.241	0.08965
0.261	0.09692
0.3	0.11133
0.321	0.11893
0.341	0.12641
0.361	0.13342
0.381	0.14068
0.401	0.14821
0.421	0.1553
0.441	0.16258
0.461	0.16993
0.481	0.17684
0.501	0.18418
0.521	0.19132
0.541	0.19848
0.561	0.20586
0.581	0.21287
0.601	0.21955
0.621	0.22674
0.641	0.23385
0.661	0.24098
0.681	0.24804
0.701	0.25482
0.721	0.2618
0.741	0.26881
0.761	0.27551
0.781	0.28231
0.801	0.28926
0.821	0.29621
0.841	0.30333
0.861	0.31036
0.881	0.31661
0.901	0.32415
0.921	0.32999
0.941	0.33697
0.961	0.34383
0.981	0.35094
0.995	0.35583
0.999	0.3574
0.994	0.35558
0.95	0.34134
0.9	0.32497
0.85	0.30822
0.8	0.29143
0.75	0.27327
0.7	0.25586
0.65	0.23827
0.6	0.22182
0.55	0.20343
0.5	0.18573
0.45	0.16789
0.4	0.14904
0.35	0.13056
0.3	0.1121
0.25	0.09335
0.2	0.07459
0.15	0.05574
0.0998	0.03705
0.0691	0.02531
