Adsorption isotherm of Methane on NKMOF-8-Br
DOI: 10.1021/acs.jced.1c00787
Article source: AIF Supplementary Data
Adsorbate Methane: InChIKey VNWKTOKETHGBQD-UHFFFAOYSA-N
Kind: experiment
Isotherm type: excess
Temperature: 298 K
Tabular data in the source: 0
pressure (bar)	uptake (mmol/g)
0.00112	0.00213
0.00208	0.0045
0.00311	0.00716
0.00411	0.0098
0.00512	0.01249
0.00705	0.01758
0.00908	0.02281
0.01015	0.02565
0.02167	0.05608
0.02969	0.07725
0.03903	0.10155
0.05019	0.13071
0.0592	0.15365
0.06904	0.17893
0.07908	0.20406
0.08903	0.2295
0.10007	0.2576
0.12102	0.31047
0.14102	0.35954
0.16091	0.40767
0.18103	0.45533
0.20074	0.50293
0.22076	0.54992
0.24073	0.59665
0.26081	0.64257
0.3026	0.73514
0.32038	0.77429
0.34089	0.8182
0.361	0.85857
0.37914	0.89523
0.40082	0.9395
0.41925	0.97455
0.4407	1.01725
0.4608	1.05661
0.47912	1.09119
0.50113	1.13046
0.51985	1.16099
0.54073	1.20025
0.55928	1.23261
0.58102	1.26998
0.59967	1.29986
0.62099	1.33493
0.63951	1.36487
0.66028	1.39366
0.6793	1.42379
0.70138	1.45546
0.7198	1.4827
0.73967	1.51027
0.75956	1.53905
0.7796	1.56618
0.79937	1.59471
0.81947	1.6224
0.84036	1.64802
0.85995	1.67425
0.87973	1.69405
0.89976	1.72094
0.92	1.74646
0.94039	1.77089
0.96136	1.79253
0.9792	1.81415
0.99511	1.83354
0.99811	1.83713
0.99488	1.83342
0.9489	1.77967
0.89897	1.72344
0.85094	1.66098
0.79987	1.59684
0.75087	1.5301
0.69731	1.45422
0.65086	1.38475
0.59824	1.29973
0.55055	1.21824
0.50051	1.13061
0.44722	1.03187
0.39727	0.93485
0.3472	0.83221
0.29784	0.72474
0.2501	0.61799
0.1995	0.49997
0.1502	0.38226
0.1012	0.25822
0.0536	0.13963
