Adsorption isotherm of Methane on NKMOF-8-Br
DOI: 10.1021/acs.jced.1c00787
Article source: AIF Supplementary Data
Adsorbate Methane: InChIKey VNWKTOKETHGBQD-UHFFFAOYSA-N
Kind: experiment
Isotherm type: excess
Temperature: 323 K
Tabular data in the source: 0
pressure (bar)	uptake (mmol/g)
0.00113	0.00102
0.00209	0.00213
0.00307	0.00331
0.00414	0.0046
0.00512	0.00586
0.00707	0.00834
0.00909	0.0109
0.01003	0.01203
0.02039	0.02519
0.02977	0.03716
0.03979	0.04986
0.04998	0.06233
0.06004	0.07454
0.06982	0.08681
0.07982	0.0991
0.0897	0.11137
0.09973	0.12383
0.11973	0.14813
0.13965	0.17237
0.15944	0.19651
0.1795	0.21971
0.19938	0.24325
0.21927	0.26679
0.23915	0.28997
0.2595	0.31342
0.27932	0.33604
0.30017	0.36096
0.3193	0.38256
0.33937	0.40446
0.36112	0.42895
0.37969	0.45201
0.40203	0.47525
0.4202	0.4928
0.43942	0.5128
0.46138	0.53635
0.47938	0.55585
0.49942	0.57669
0.52129	0.59931
0.54067	0.62059
0.55934	0.63944
0.58069	0.66215
0.59939	0.68058
0.62093	0.70275
0.63919	0.72137
0.66089	0.74315
0.6808	0.75962
0.70058	0.77919
0.72102	0.79881
0.73918	0.8164
0.76125	0.837
0.78169	0.85563
0.79997	0.87509
0.81943	0.8921
0.84118	0.91175
0.86013	0.93028
0.88047	0.94508
0.89945	0.96166
0.92099	0.98125
0.94015	0.99635
0.96062	1.01547
0.98063	1.03301
0.99511	1.04599
0.99811	1.04775
0.99491	1.04602
0.94831	1.00392
0.89761	0.95979
0.84681	0.91649
0.79745	0.87114
0.74721	0.8246
0.69758	0.7777
0.6473	0.72952
0.5973	0.68074
0.54833	0.62786
0.49766	0.57533
0.44757	0.52275
0.39777	0.46937
0.34772	0.41392
0.29779	0.35748
0.25094	0.30354
0.20083	0.24521
0.15052	0.18541
0.10014	0.12453
0.06911	0.08596
