Adsorption isotherm of Nitrogen, Methane on NKMOF-8-Br
DOI: 10.1021/acs.jced.1c00787
Article source: AIF Supplementary Data
Adsorbate Nitrogen: InChIKey IJGRMHOSHXDMSA-UHFFFAOYSA-N
Adsorbate Methane: InChIKey VNWKTOKETHGBQD-UHFFFAOYSA-N
Kind: experiment
Isotherm type: excess
Temperature: 298 K
Tabular data in the source: 0
pressure (bar)	Nitrogen fraction	Nitrogen uptake (cm3(STP)/g)	Methane fraction	Methane uptake (cm3(STP)/g)	total uptake (cm3(STP)/g)
0.005	0.5	0.0176	0.5	0.1449	
0.008	0.5	0.0293	0.5	0.2317	
0.01	0.5	0.0373	0.5	0.2896	
0.02	0.5	0.0783	0.5	0.5794	
0.025	0.5	0.0992	0.5	0.7244	
0.03	0.5	0.1202	0.5	0.8695	
0.05	0.5	0.2044	0.5	1.4495	
0.07	0.5	0.2881	0.5	2.0285	
0.1	0.5	0.4123	0.5	2.8944	
0.15	0.5	0.6161	0.5	4.3275	
0.2	0.5	0.816	0.5	5.7408	
0.25	0.5	1.0105	0.5	7.1259	
0.3	0.5	1.1975	0.5	8.4765	
0.35	0.5	1.3752	0.5	9.7886	
0.4	0.5	1.542	0.5	11.0602	
0.45	0.5	1.6969	0.5	12.2907	
0.5	0.5	1.8393	0.5	13.4805	
0.55	0.5	1.9691	0.5	14.6307	
0.6	0.5	2.0863	0.5	15.7427	
0.65	0.5	2.1913	0.5	16.8182	
0.7	0.5	2.2845	0.5	17.8592	
0.75	0.5	2.3666	0.5	18.8676	
0.8	0.5	2.4381	0.5	19.8451	
0.85	0.5	2.4998	0.5	20.7938	
0.9	0.5	2.5523	0.5	21.7152	
0.95	0.5	2.5964	0.5	22.6111	
0.98	0.5	2.619	0.5	23.137	
0.99	0.5	2.626	0.5	23.3104	
1	0.5	2.6326	0.5	23.4829	
