Adsorption isotherm of Nitrogen on NKMOF-8-Br
DOI: 10.1021/acs.jced.1c00787
Article source: AIF Supplementary Data
Adsorbate Nitrogen: InChIKey IJGRMHOSHXDMSA-UHFFFAOYSA-N
Kind: experiment
Isotherm type: excess
Temperature: 323 K
Tabular data in the source: 0
pressure (bar)	uptake (mmol/g)
0.00111	-1.8e-05
0.00208	6.3e-05
0.00306	0.000174
0.00405	0.000304
0.00503	0.000464
0.00705	0.000844
0.00904	0.00122
0.01004	0.0014
0.02011	0.00342
0.03	0.00538
0.03993	0.00735
0.05006	0.00933
0.06001	0.01131
0.07008	0.0133
0.07994	0.01526
0.08997	0.01727
0.10001	0.01924
0.1214	0.02351
0.14196	0.02744
0.16103	0.03122
0.18103	0.03508
0.20093	0.03904
0.22103	0.04293
0.24091	0.04692
0.26107	0.05077
0.28096	0.05472
0.30102	0.05854
0.32094	0.06251
0.34088	0.06651
0.36113	0.07026
0.38083	0.07429
0.40119	0.0779
0.42092	0.08169
0.44096	0.08556
0.46098	0.08926
0.48096	0.09308
0.50092	0.09696
0.52081	0.1009
0.54101	0.10455
0.56077	0.10845
0.58089	0.1121
0.60068	0.11606
0.62083	0.11996
0.64073	0.12388
0.66117	0.12728
0.68105	0.1306
0.7005	0.13461
0.72087	0.13831
0.74072	0.14199
0.76068	0.14591
0.78089	0.14955
0.80043	0.15356
0.82086	0.15719
0.84064	0.16102
0.86062	0.16492
0.88095	0.16854
0.90066	0.17226
0.92037	0.17627
0.94098	0.17935
0.96108	0.18246
0.98037	0.18633
0.9943	0.18871
0.99865	0.18961
0.99364	0.18914
0.94993	0.18092
0.89981	0.17179
0.8498	0.16288
0.80002	0.15346
0.74975	0.14432
0.69994	0.13498
0.64965	0.12572
0.59988	0.11621
0.54992	0.10642
0.49965	0.097
0.44971	0.0875
0.39981	0.07786
0.34971	0.06817
0.29967	0.05847
0.24961	0.04869
0.19956	0.03888
0.14987	0.0291
0.09974	0.01917
0.06924	0.01308
