Adsorption isotherm of Nitrogen on NKMOF-8-Br
DOI: 10.1021/acs.jced.1c00787
Article source: AIF Supplementary Data
Adsorbate Nitrogen: InChIKey IJGRMHOSHXDMSA-UHFFFAOYSA-N
Kind: experiment
Isotherm type: excess
Temperature: 273 K
Tabular data in the source: 0
pressure (bar)	uptake (mmol/g)
0.00109	0.000353
0.00205	0.000955
0.00304	0.00163
0.00403	0.00236
0.00502	0.00313
0.00704	0.00477
0.00905	0.0064
0.01003	0.00719
0.02151	0.01688
0.02913	0.02314
0.04084	0.03272
0.05099	0.04106
0.05906	0.04769
0.07085	0.05736
0.07908	0.06394
0.0906	0.07353
0.10092	0.08182
0.11984	0.09718
0.13983	0.11331
0.15979	0.12894
0.17958	0.14496
0.19966	0.16089
0.21973	0.17659
0.23964	0.19224
0.25971	0.20785
0.3001	0.23917
0.31983	0.25404
0.33965	0.26915
0.35965	0.28399
0.37957	0.29887
0.39935	0.31416
0.41955	0.32917
0.43969	0.34366
0.45933	0.35884
0.47957	0.37379
0.49947	0.38863
0.51959	0.40282
0.53964	0.41673
0.55972	0.43066
0.57954	0.44484
0.60082	0.46137
0.6195	0.47485
0.63951	0.48896
0.65946	0.50285
0.67941	0.51673
0.69934	0.53018
0.7196	0.5433
0.73951	0.55636
0.75956	0.5698
0.77957	0.58343
0.79962	0.59601
0.82069	0.61163
0.83953	0.6243
0.85928	0.63743
0.88083	0.65204
0.89947	0.66426
0.91964	0.67647
0.94055	0.69109
0.96002	0.70166
0.97939	0.71378
0.99442	0.72457
0.99828	0.72704
0.99477	0.72421
0.94891	0.69548
0.89902	0.66292
0.84876	0.63064
0.79906	0.59814
0.74907	0.56458
0.69903	0.53058
0.64874	0.49627
0.59873	0.46181
0.5491	0.4265
0.50097	0.39206
0.44963	0.35421
0.40086	0.31795
0.35082	0.2804
0.29917	0.24103
0.2511	0.20113
0.2011	0.16274
0.1502	0.12144
0.113	0.09098
0.0632	0.05116
