Adsorption isotherm of Nitrogen on NKMOF-8-Br
DOI: 10.1021/acs.jced.1c00787
Article source: AIF Supplementary Data
Adsorbate Nitrogen: InChIKey IJGRMHOSHXDMSA-UHFFFAOYSA-N
Kind: experiment
Isotherm type: excess
Temperature: 77 K
Tabular data in the source: 0
pressure (bar)	uptake (cm3(STP)/g)
9.2e-05	3.9669
0.000231	7.8334
0.00037	11.7874
0.000462	15.6607
0.000554	19.1018
0.000693	22.5962
0.00074	26.3971
0.000832	30.0981
0.000924	33.8757
0.001013	37.7107
0.001064	41.383
0.001104	44.9678
0.001155	48.7057
0.001246	52.5791
0.001297	56.4429
0.001337	60.5419
0.001388	64.7586
0.001429	68.833
0.001479	73.0633
0.00152	77.3566
0.001571	81.7538
0.001662	85.9143
0.012108	87.6399
0.044411	87.8223
0.088862	87.922
0.11469	87.9593
0.130304	87.9593
0.152677	87.9817
0.177349	88.0049
0.202711	88.0153
0.228407	88.0349
0.253961	88.056
0.27988	88.0659
0.304279	88.0757
0.329742	88.0968
0.354465	88.105
0.37928	88.1267
0.404135	88.1607
0.429638	88.1887
0.453814	88.2192
0.480331	88.2874
0.504082	88.3579
0.52996	88.4239
0.555514	88.5216
0.579407	88.6015
0.604029	88.6918
0.629634	88.81
0.655644	88.9237
0.6806	89.0534
0.705181	89.1943
0.730594	89.3455
0.757718	89.5212
0.780598	89.6977
0.805726	89.882
0.831007	90.0948
0.857665	90.3366
0.880545	90.5623
0.905683	90.856
0.93068	91.2113
0.954846	91.6712
0.978962	92.4827
0.99722	94.2633
1.00766	98.6067
1.00766	98.6067
0.970602	92.9752
0.9536	92.1582
0.92915	91.5975
0.905308	91.2319
0.882156	90.9628
0.85725	90.717
0.831838	90.5004
0.807256	90.3242
0.781195	90.1464
0.755459	89.9889
0.730361	89.8527
0.707076	89.7492
0.682171	89.6347
0.657731	89.5418
0.632501	89.4563
0.605923	89.3706
0.581899	89.2896
0.557034	89.2148
0.52839	89.1349
0.503535	89.0574
0.47872	88.8635
0.452791	88.7335
0.429365	88.6643
0.402747	88.6046
0.377892	88.5517
0.352895	88.5002
0.324939	88.4567
0.299476	88.4002
0.274753	88.343
0.249898	88.2901
0.224668	88.2347
0.198972	88.1715
0.173924	88.1105
0.149252	88.0218
0.108033	87.9497
