Adsorption isotherm of 2-Propanol on [Zn4O(dmcapz)3]n
DOI: 10.1002/adfm.201302854
Adsorbate 2-Propanol: InChIKey KFZMGEQAYNKOFK-UHFFFAOYSA-N
Temperature: 298 K
Tabular data in the source: 0
pressure (bar)	uptake (mmol/g)
-0.000114862	2.60798
1.76711e-05	-0.0166116
0.0028097	2.35876
0.00724513	3.18925
0.00749253	2.95669
0.0176357	3.42164
0.02815	3.53774
0.0466605	3.63711
0.0969788	3.83562
0.197933	3.93363
0.301583	3.99838
0.399967	4.01338
0.500992	4.04494
0.599376	4.05994
0.697742	4.09155
0.798786	4.10651
0.902452	4.15464
0.950306	4.17047
