Adsorption isotherm of Methanol on [Zn4O(mipcapz)3]n
DOI: 10.1002/adfm.201302854
Adsorbate Methanol: InChIKey OKKJLVBELUTLKV-UHFFFAOYSA-N
Temperature: 298 K
Tabular data in the source: 0
pressure (bar)	uptake (mmol/g)
-9.68181e-06	0.0504231
0.00295658	0.352056
0.00853451	0.552068
0.0167338	0.600034
0.0331373	0.670756
0.0512688	0.74096
0.067677	0.786471
0.0840755	0.882404
0.100057	0.902831
0.116902	0.923001
0.134169	0.993464
0.15101	1.03884
0.160083	1.03613
