Adsorption isotherm of 2-Propanol on [Zn4O(mecapz)3]n
DOI: 10.1002/adfm.201302854
Adsorbate 2-Propanol: InChIKey KFZMGEQAYNKOFK-UHFFFAOYSA-N
Temperature: 298 K
Tabular data in the source: 0
pressure (bar)	uptake (mmol/g)
0.00266645	0.00263158
0.0053329	2.69991
0.0106658	2.94982
0.0213315	3.16632
0.0319973	3.28281
0.047996	3.41588
0.101325	3.54833
0.20265	3.69667
0.303975	3.81167
0.402633	3.86004
0.506625	3.90833
0.602617	3.95675
0.703942	3.98842
0.807933	4.05338
0.909258	4.08504
0.957255	4.15092
