Adsorption isotherm of 2-Propanol on [Zn4O(mipcapz)3]n on [Zn4O(dmcapz)3]n
DOI: 10.1002/adfm.201302854
Adsorbate 2-Propanol: InChIKey KFZMGEQAYNKOFK-UHFFFAOYSA-N
Temperature: 298 K
Tabular data in the source: 0
pressure (bar)	uptake (mmol/g)
0.00246443	0.183333
0.0237223	0.2
0.039679	0.2
0.0529763	0.2
0.103506	0.2
0.204547	0.216667
0.300234	0.266667
0.403935	0.283333
0.502335	0.283333
0.600716	0.3
0.707076	0.316667
0.805423	0.366667
0.903663	0.516667
0.954086	0.616667
