Adsorption isotherm of Methanol on [Zn4O(mipcapz)3]n on [Zn4O(dmcapz)3]n
DOI: 10.1002/adfm.201302854
Adsorbate Methanol: InChIKey OKKJLVBELUTLKV-UHFFFAOYSA-N
Temperature: 298 K
Tabular data in the source: 0
pressure (bar)	uptake (mmol/g)
-8.68327e-06	0.153061
0.00151262	0.336735
0.00350629	1.19388
0.00351672	1.0102
0.00856344	2.05102
0.0172207	2.44898
0.03354	2.78571
0.0503751	3.03061
0.0677242	3.21429
0.0840487	3.45918
0.100889	3.61224
0.117736	3.64286
0.135092	3.70408
0.151426	3.79592
0.160104	3.82653
