Adsorption isotherm of Water on [Zn4O(mipcapz)3]n on [Zn4O(dmcapz)3]n
DOI: 10.1002/adfm.201302854
Adsorbate Water: InChIKey XLYOFNOQVPJJNP-UHFFFAOYSA-N
Temperature: 298 K
Tabular data in the source: 0
pressure (bar)	uptake (mmol/g)
0.0094601	0.413645
0.0126783	0.573174
0.0156035	0.765581
0.0190127	1.34837
0.0221244	2.42006
0.0251217	5.21825
0.0283227	7.13676
0.0296824	7.78681
