Adsorption isotherm of Methanol on [Zn4O(dmcapz)3]n
DOI: 10.1002/adfm.201302854
Adsorbate Methanol: InChIKey OKKJLVBELUTLKV-UHFFFAOYSA-N
Temperature: 298 K
Tabular data in the source: 0
pressure (bar)	uptake (mmol/g)
0.0035254	0.857143
0.0167031	2.57143
0.034549	3
0.0503595	3.30612
0.067198	3.4898
0.0835261	3.67347
0.100875	3.85714
0.117722	3.88776
0.135079	3.94898
0.151415	3.97959
0.160602	4.04082
