Adsorption isotherm of Methanol on [Zn4O(mipcapz)3]n on [Zn4O(dmcapz)3]n
DOI: 10.1002/adfm.201302854
Adsorbate Methanol: InChIKey OKKJLVBELUTLKV-UHFFFAOYSA-N
Temperature: 298 K
Tabular data in the source: 0
pressure (bar)	uptake (mmol/g)
-1.73666e-06	0.0306122
0.00151783	0.244898
0.00299051	1.28571
0.00300094	1.10204
0.00797645	3.39796
0.0171477	3.73469
0.0329548	4.10204
0.0497933	4.28571
0.0676548	4.43878
0.0839881	4.53061
0.100834	4.59184
0.117679	4.65306
0.134525	4.71429
0.151882	4.7449
0.160561	4.77551
