Adsorption isotherm of Water on [Zn4O(mipcapz)3]n on [Zn4O(dmcapz)3]n
DOI: 10.1002/adfm.201302854
Adsorbate Water: InChIKey XLYOFNOQVPJJNP-UHFFFAOYSA-N
Temperature: 298 K
Tabular data in the source: 0
pressure (bar)	uptake (mmol/g)
0.0187206	1.28352
0.0219334	1.9968
0.0251421	3.13354
0.0282547	4.10751
0.0299093	4.52925
