Adsorption isotherm of Methanol on [Zn4O(mecapz)3]n
DOI: 10.1002/adfm.201302854
Adsorbate Methanol: InChIKey OKKJLVBELUTLKV-UHFFFAOYSA-N
Temperature: 298 K
Tabular data in the source: 0
pressure (bar)	uptake (mmol/g)
0.00763895	5.2162
0.0161831	5.71785
0.0325285	6.09111
0.0493349	6.31297
0.0657092	6.53496
0.082967	6.65584
0.0989287	6.77712
0.116623	6.87266
0.133037	6.89296
0.149882	6.91313
0.158523	6.91055
