Adsorption isotherm of 2-Propanol on [Zn4O(mipcapz)3]n
DOI: 10.1002/adfm.201302854
Adsorbate 2-Propanol: InChIKey KFZMGEQAYNKOFK-UHFFFAOYSA-N
Temperature: 298 K
Tabular data in the source: 0
pressure (bar)	uptake (mmol/g)
0.00533663	-0.0166667
0.0159567	0
0.0318957	0.0166667
0.0504941	0.0333333
0.0983642	0.0333333
0.204689	0.0833333
0.303088	0.0833333
0.406754	0.133333
0.505154	0.133333
0.603518	0.166667
0.707218	0.183333
0.808207	0.25
0.906465	0.383333
