Adsorption isotherm of Ethanol on [Zn4O(mipcapz)3]n
DOI: 10.1002/adfm.201302854
Adsorbate Ethanol: InChIKey LFQSCWFLJHTTHZ-UHFFFAOYSA-N
Temperature: 298 K
Tabular data in the source: 0
pressure (bar)	uptake (mmol/g)
-2.60274e-06	0.0440252
0.00080945	0.308176
0.00204705	0.374214
0.00390541	0.440252
0.00742171	0.462264
0.0154902	0.484277
0.0233518	0.506289
0.0314176	0.572327
0.039071	0.616352
0.0469313	0.660377
0.0547929	0.68239
0.0624449	0.748428
0.0703039	0.814465
