Adsorption isotherm of Methanol on [Zn4O(dmcapz)3]n
DOI: 10.1002/adfm.201302854
Adsorbate Methanol: InChIKey OKKJLVBELUTLKV-UHFFFAOYSA-N
Temperature: 298 K
Tabular data in the source: 0
pressure (bar)	uptake (mmol/g)
0.00294362	2.11224
0.00785489	5.54082
0.0159928	6.09184
0.0333229	6.61224
0.0501511	6.97959
0.0675001	7.16327
0.0838282	7.34694
0.101181	7.46939
0.118023	7.59184
0.134358	7.65306
0.15171	7.77551
0.159878	7.80612
