Adsorption isotherm of 2-Propanol on [Zn4O(mipcapz)3]n on [Zn4O(mecapz)3]n
DOI: 10.1002/adfm.201302854
Adsorbate 2-Propanol: InChIKey KFZMGEQAYNKOFK-UHFFFAOYSA-N
Temperature: 298 K
Tabular data in the source: 0
pressure (bar)	uptake (mmol/g)
0.029331	0.0495175
0.047996	0.0825439
0.0933257	0.0817982
0.21065	0.0965351
0.301308	0.111711
0.4053	0.11
0.503958	0.158377
0.605283	0.206711
0.69861	0.271842
0.807933	0.336711
0.906592	0.485088
0.959921	0.667544
