Adsorption isotherm of Ethanol on [Zn4O(mipcapz)3]n on [Zn4O(dmcapz)3]n
DOI: 10.1002/adfm.201302854
Adsorbate Ethanol: InChIKey LFQSCWFLJHTTHZ-UHFFFAOYSA-N
Temperature: 298 K
Tabular data in the source: 0
pressure (bar)	uptake (mmol/g)
-1.69178e-05	0.286164
-2.60274e-06	0.0440252
0.000179589	0.462264
0.000792538	0.59434
0.00138726	1.03459
0.00217329	1.73899
0.00381561	1.95912
0.00772232	2.37736
0.0153562	2.75157
0.0232073	2.94969
0.0314788	3.03774
0.0387131	3.16981
0.0465656	3.34591
0.0546302	3.43396
0.0622822	3.5
0.070339	3.72013
