Adsorption isotherm of Methanol on [Zn4O(mpcapz)3]n on [Zn4O(dmcapz)3]n
DOI: 10.1002/adfm.201302854
Adsorbate Methanol: InChIKey OKKJLVBELUTLKV-UHFFFAOYSA-N
Temperature: 298 K
Tabular data in the source: 0
pressure (bar)	uptake (mmol/g)
-3.28153e-05	0.196319
0.00172143	0.368098
0.0032911	1.64417
0.0073219	4.19632
0.0166127	4.6135
0.0330436	4.9816
0.0499448	5.20245
0.0664044	5.39877
0.0837719	5.49693
0.0998104	5.54601
0.115845	5.61963
0.133216	5.69325
0.151046	5.69325
0.159515	5.69325
