Adsorption isotherm of Methanol on [Zn4O(mipcapz)3]n on [Zn4O(dmcapz)3]n
DOI: 10.1002/adfm.201302854
Adsorbate Methanol: InChIKey OKKJLVBELUTLKV-UHFFFAOYSA-N
Temperature: 298 K
Tabular data in the source: 0
pressure (bar)	uptake (mmol/g)
0.00128555	0.247102
0.00285801	1.2103
0.00728847	3.38378
0.0156859	3.80477
0.0321609	4.07879
0.0495406	4.30356
0.0660376	4.47881
0.082998	4.58006
0.0995282	4.60718
0.116941	4.6838
0.133912	4.73567
0.149996	4.76272
0.158928	4.78872
