Adsorption isotherm of Methanol on [Zn4O(mipcapz)3]n
DOI: 10.1002/adfm.201302854
Adsorbate Methanol: InChIKey OKKJLVBELUTLKV-UHFFFAOYSA-N
Temperature: 298 K
Tabular data in the source: 0
pressure (bar)	uptake (mmol/g)
0.000441392	0.024756
0.00264834	0.148536
0.00348698	0.395573
0.00747054	0.568996
0.0168391	0.644443
0.0329167	0.696182
0.0503296	0.772808
0.0673011	0.824677
0.0838256	0.876482
0.100797	0.928352
0.117769	0.980221
0.134288	1.05672
0.150818	1.08383
0.159309	1.08507
