Adsorption isotherm of Water on [Zn4O(dmcapz)3]n
DOI: 10.1002/adfm.201302854
Adsorbate Water: InChIKey XLYOFNOQVPJJNP-UHFFFAOYSA-N
Temperature: 298 K
Tabular data in the source: 0
pressure (bar)	uptake (mmol/g)
0.000585732	-0.0331806
0.00156111	-0.00161856
0.00331641	0.0942814
0.00624253	0.188967
0.00946041	0.381071
0.0188163	1.47886
0.0222159	3.03886
0.0251204	5.34855
0.0284222	6.94122
0.0298804	7.49345
