Adsorption isotherm of Ethanol on [Zn4O(dmcapz)3]n
DOI: 10.1002/adfm.201302854
Adsorbate Ethanol: InChIKey LFQSCWFLJHTTHZ-UHFFFAOYSA-N
Temperature: 298 K
Tabular data in the source: 0
pressure (bar)	uptake (mmol/g)
5.20548e-05	2.6195
0.000150959	0.946541
0.000171781	0.59434
0.000409931	3.56604
0.00121808	3.89623
0.00203404	4.09434
0.00367507	4.33648
0.00738137	4.64465
0.0152286	4.90881
0.0230824	5.06289
0.031147	5.15094
0.0385921	5.21698
0.046658	5.28302
0.0543088	5.37107
0.0621716	5.37107
0.0700293	5.45912
0.0739568	5.52516
