Adsorption isotherm of Methanol on [Zn4O(mpcapz)3]n
DOI: 10.1002/adfm.201302854
Adsorbate Methanol: InChIKey OKKJLVBELUTLKV-UHFFFAOYSA-N
Temperature: 298 K
Tabular data in the source: 0
pressure (bar)	uptake (mmol/g)
0.000437537	0.0490798
0.00217537	0.319018
0.00281254	1.84049
0.00782097	3.8773
0.0166496	4.39264
0.0330764	4.78528
0.0490779	5.05521
0.0664413	5.17791
0.0829092	5.32515
0.099835	5.39877
0.116319	5.44785
0.133249	5.49693
0.150183	5.52147
0.159098	5.52147
