Adsorption isotherm of Methanol on [Zn4O(mecapz)3]n on [Zn4O(dmcapz)3]n
DOI: 10.1002/adfm.201302854
Adsorbate Methanol: InChIKey OKKJLVBELUTLKV-UHFFFAOYSA-N
Temperature: 298 K
Tabular data in the source: 0
pressure (bar)	uptake (mmol/g)
0.000864741	0.173658
0.00279132	2.0116
0.00762166	5.1903
0.0329351	6.15178
0.049418	6.4699
0.0659258	6.63894
0.0828806	6.80786
0.0989581	6.87765
0.117275	6.92194
0.132909	6.96701
0.149885	7.0117
0.158377	7.00919
