Adsorption isotherm of Water on [Zn4O(dmcapz)3]n
DOI: 10.1002/adfm.201302854
Adsorbate Water: InChIKey XLYOFNOQVPJJNP-UHFFFAOYSA-N
Temperature: 298 K
Tabular data in the source: 0
pressure (bar)	uptake (mmol/g)
0.00946104	0.315924
0.0125813	0.508128
0.0157983	0.797953
0.0190143	1.1855
0.0220265	2.45273
0.025007	6.97733
0.0283081	8.63515
0.0298642	9.1547
