Adsorption isotherm of Methanol on [Zn4O(mecapz)3]n
DOI: 10.1002/adfm.201302854
Adsorbate Methanol: InChIKey OKKJLVBELUTLKV-UHFFFAOYSA-N
Temperature: 298 K
Tabular data in the source: 0
pressure (bar)	uptake (mmol/g)
-0.000446945	0.000131809
0.00174197	0.272778
0.00263726	2.9309
0.00761334	5.23999
0.0160262	5.70956
0.0329393	6.12693
0.0498774	6.39523
0.0659424	6.53956
0.0833483	6.68349
0.100316	6.77787
0.117283	6.87224
0.133816	6.89221
0.150795	6.91205
0.15884	6.90968
