Adsorption isotherm of Methanol on [Zn4O(mpcapz)3]n
DOI: 10.1002/adfm.201302854
Adsorbate Methanol: InChIKey OKKJLVBELUTLKV-UHFFFAOYSA-N
Temperature: 298 K
Tabular data in the source: 0
pressure (bar)	uptake (mmol/g)
0.00355443	1.73843
0.0079052	3.82957
0.0164494	4.33121
0.0332267	4.70434
0.0495866	5.00197
0.0668395	5.14807
0.0828012	5.26934
0.100069	5.3398
0.116904	5.41039
0.132885	5.43082
0.150162	5.45086
0.158366	5.47362
