Adsorption isotherm of Methanol on [Zn4O(dmcapz)3]n
DOI: 10.1002/adfm.201302854
Adsorbate Methanol: InChIKey OKKJLVBELUTLKV-UHFFFAOYSA-N
Temperature: 298 K
Tabular data in the source: 0
pressure (bar)	uptake (mmol/g)
0.00304008	2.16716
0.00761474	5.34226
0.0161396	5.94475
0.0329024	6.39352
0.0492574	6.71635
0.0660637	6.93821
0.082875	7.13486
0.0996912	7.3063
0.116541	7.30126
0.132949	7.34677
0.148925	7.39241
0.157999	7.38969
