Adsorption isotherm of Methanol on [Zn4O(dmcapz)3]n
DOI: 10.1002/adfm.201302854
Adsorbate Methanol: InChIKey OKKJLVBELUTLKV-UHFFFAOYSA-N
Temperature: 298 K
Tabular data in the source: 0
pressure (bar)	uptake (mmol/g)
0.00174615	0.247932
0.00233605	2.06142
0.00756753	5.5133
0.0155084	6.13207
0.0324133	6.59914
0.0493472	6.89228
0.0662853	7.16058
0.0832442	7.30464
0.0997646	7.39915
0.116276	7.54335
0.133248	7.61288
0.149764	7.73223
0.158695	7.77929
