Adsorption isotherm of Cadmium, Copper, Chromium on Agricultural Soil
DOI: 10.1007/s11270-017-3487-1
Article source: Figure 2b
Adsorbate Cadmium: InChIKey BDOSMKKIYDKNTQ-UHFFFAOYSA-N
Adsorbate Copper: InChIKey RYGMFSIKBFXOCR-UHFFFAOYSA-N
Adsorbate Chromium: InChIKey VYZAMTAEIAYCRO-UHFFFAOYSA-N
Kind: experiment
Temperature: 298 K
Tabular data in the source: 0
pressure (bar)	Cadmium fraction	Cadmium uptake (mg/g)	Copper fraction	Copper uptake (mg/g)	Chromium fraction	Chromium uptake (mg/g)	total uptake (mg/g)
1	4.938	0.3188	4.938	0.3188	4.938	0.3188	
1	9.961	0.6567	9.961	0.6567	9.961	0.6567	
1	20.066	1.3231	20.066	1.3231	20.066	1.3231	
1	50.146	3.3109	50.146	3.3109	50.146	3.3109	
1	100.279	6.6676	100.279	6.6676	100.279	6.6676	
