Adsorption isotherm of Cadmium on Agricultural Soil
DOI: 10.1007/s11270-017-3487-1
Article source: Figure 2a
Adsorbate Cadmium: InChIKey BDOSMKKIYDKNTQ-UHFFFAOYSA-N
Kind: experiment
Temperature: 298 K
Tabular data in the source: 0
pressure (bar)	uptake (mg/g)
1	0.3197
1	0.653
1	1.2894
1	3.3016
1	6.6228
