Adsorption isotherm of P-Chlorotoluene, Benzene on K-Ca X zeolite
DOI: 10.1002/aic.690361115
Article source: Table 2
Adsorbate P-Chlorotoluene: InChIKey NPDACUSDTOMAMK-UHFFFAOYSA-N
Adsorbate Benzene: InChIKey UHOVQNZJYSORNB-UHFFFAOYSA-N
Kind: experiment
Temperature: 473 K
Tabular data in the source: 0
pressure (bar)	P-Chlorotoluene fraction	P-Chlorotoluene uptake (mmol/g)	Benzene fraction	Benzene uptake (mmol/g)	total uptake (mmol/g)
1.01	0.947	1.45468	0.053	0.18532	1.64
1.01	0.897	1.33576	0.103	0.307241	1.643
1.01	0.701	1.05709	0.299	0.586908	1.644
1.01	0.499	0.807884	0.501	0.900116	1.708
1.01	0.3	0.542101	0.7	1.2589	1.801
1.01	0.1	0.234732	0.9	1.65827	1.893
1.01	0.051	0.13482	0.949	1.79118	1.926
