Adsorption isotherm of Chlorobenzene, P-Chlorotoluene on K-Ca X zeolite
DOI: 10.1002/aic.690361115
Article source: Table 2
Adsorbate Chlorobenzene: InChIKey MVPPADPHJFYWMZ-UHFFFAOYSA-N
Adsorbate P-Chlorotoluene: InChIKey NPDACUSDTOMAMK-UHFFFAOYSA-N
Kind: experiment
Temperature: 473 K
Tabular data in the source: 0
pressure (bar)	Chlorobenzene fraction	Chlorobenzene uptake (mmol/g)	P-Chlorotoluene fraction	P-Chlorotoluene uptake (mmol/g)	total uptake (mmol/g)
1.01	0.95	1.72312	0.05	0.151875	1.875
1.01	0.899	1.56815	0.101	0.289848	1.858
1.01	0.698	1.08781	0.302	0.719186	1.807
1.01	0.55	0.735966	0.45	1.04603	1.782
1.01	0.301	0.432015	0.699	1.30298	1.735
1.01	0.096	0.132904	0.904	1.6631	1.796
1.01	0.051	0.070014	0.949	1.59699	1.667
