Adsorption isotherm of P-Chlorotoluene, Toluene on K-Ca X zeolite
DOI: 10.1002/aic.690361115
Article source: Table 2
Adsorbate P-Chlorotoluene: InChIKey NPDACUSDTOMAMK-UHFFFAOYSA-N
Adsorbate Toluene: InChIKey YXFVVABEGXRONW-UHFFFAOYSA-N
Kind: experiment
Temperature: 473 K
Tabular data in the source: 0
pressure (bar)	P-Chlorotoluene fraction	P-Chlorotoluene uptake (mmol/g)	Toluene fraction	Toluene uptake (mmol/g)	total uptake (mmol/g)
1.01	0.943	1.26643	0.057	0.320574	1.587
1.01	0.89	1.14986	0.11	0.423137	1.573
1.01	0.794	0.994923	0.206	0.562077	1.557
1.01	0.499	0.691085	0.501	0.861915	1.553
1.01	0.299	0.468864	0.701	1.11514	1.584
1.01	0.107	0.192511	0.893	1.39849	1.591
1.01	0.051	0.097051	0.949	1.49395	1.591
