Adsorption isotherm of Benzene, Toluene on K-Ca X zeolite
DOI: 10.1002/aic.690361115
Article source: Table 2
Adsorbate Benzene: InChIKey UHOVQNZJYSORNB-UHFFFAOYSA-N
Adsorbate Toluene: InChIKey YXFVVABEGXRONW-UHFFFAOYSA-N
Kind: experiment
Temperature: 473 K
Tabular data in the source: 0
pressure (bar)	Benzene fraction	Benzene uptake (mmol/g)	Toluene fraction	Toluene uptake (mmol/g)	total uptake (mmol/g)
1.01	0.948	1.7168	0.052	0.137196	1.854
1.01	0.903	1.53289	0.097	0.233112	1.766
1.01	0.699	1.06092	0.301	0.62308	1.684
1.01	0.501	0.685328	0.499	0.938672	1.624
1.01	0.293	0.36202	0.707	1.21198	1.574
1.01	0.1	0.128061	0.9	1.45294	1.581
1.01	0.05	0.067326	0.95	1.53567	1.603
