Adsorption isotherm of Chlorobenzene, Benzene on K-Ca X zeolite
DOI: 10.1002/aic.690361115
Article source: Table 2
Adsorbate Chlorobenzene: InChIKey MVPPADPHJFYWMZ-UHFFFAOYSA-N
Adsorbate Benzene: InChIKey UHOVQNZJYSORNB-UHFFFAOYSA-N
Kind: experiment
Temperature: 473 K
Tabular data in the source: 0
pressure (bar)	Chlorobenzene fraction	Chlorobenzene uptake (mmol/g)	Benzene fraction	Benzene uptake (mmol/g)	total uptake (mmol/g)
1.01	0.948	1.60828	0.052	0.246715	1.855
1.01	0.9	1.45588	0.1	0.373116	1.829
1.01	0.7	1.00025	0.3	0.760752	1.761
1.01	0.501	0.691488	0.499	1.07251	1.764
1.01	0.302	0.43976	0.698	1.40024	1.84
1.01	0.1	0.159526	0.9	1.76247	1.922
1.01	0.051	0.085228	0.949	1.85177	1.937
