Adsorption isotherm of Hydrogen on C15H38Gd2N6O25
DOI: 10.1021/Cg900518s
Adsorbate Hydrogen: InChIKey UFHFLCQGNIYNRP-UHFFFAOYSA-N
Temperature: 78 K
Tabular data in the source: 0
pressure (bar)	uptake (wt%)
0.144628	0.0105849
0.216942	0.00770423
0.289256	0.0230928
0.433884	0.0259854
0.72314	0.0336936
1.15702	0.047179
1.95248	0.0712611
2.82025	0.0943857
3.68802	0.11751
4.6281	0.138716
6.79752	0.187873
12.1488	0.273744
21.405	0.313676
32.7583	0.298915
