Adsorption isotherm of Methane on C15H38Gd2N6O25
DOI: 10.1021/Cg900518s
Adsorbate Methane: InChIKey VNWKTOKETHGBQD-UHFFFAOYSA-N
Temperature: 183 K
Tabular data in the source: 0
pressure (bar)	uptake (wt%)
0.04747	0.00250475
0.141219	0.0275141
0.283034	0.0450283
0.375891	0.0850376
0.565324	0.102557
0.802674	0.11508
1.41904	0.160142
2.27067	0.252727
3.17186	0.312817
4.07036	0.417907
5.06723	0.470507
6.06306	0.540606
7.01305	0.580701
8.01007	0.630801
8.96036	0.665896
14.4746	0.826447
21.9508	0.827195
