Adsorption isotherm of Nitrogen on Cu-MCM-BTC
DOI: 10.1039/C1jm10451a
Adsorbate Nitrogen: InChIKey IJGRMHOSHXDMSA-UHFFFAOYSA-N
Temperature: 77 K
Tabular data in the source: 0
pressure (bar)	uptake (cm3(STP)/g)
0.00199568	146.788
0.0194565	172.816
0.0609306	197.844
0.126717	218.867
0.208235	239.89
0.25543	253.905
0.291184	302.959
0.322647	321.98
0.384143	347.008
0.44993	351.012
0.5529	356.017
0.710216	362.024
0.841789	369.032
0.906145	383.047
0.947619	417.085
0.970502	451.122
0.997674	597.283
