Adsorption isotherm of Nitrogen on MCM-41
DOI: 10.1039/C1jm10451a
Adsorbate Nitrogen: InChIKey IJGRMHOSHXDMSA-UHFFFAOYSA-N
Temperature: 77 K
Tabular data in the source: 0
pressure (bar)	uptake (cm3(STP)/g)
0.00372489	81.716
0.00658518	121.76
0.00944547	143.784
0.0380483	182.827
0.0909636	218.867
0.163901	247.899
0.233978	278.933
0.302625	308.966
0.345529	362.024
0.409885	472.145
0.422757	483.157
0.564341	504.18
0.783153	525.203
0.864671	541.221
0.909005	559.241
0.95191	601.287
0.971932	644.334
0.983373	695.39
