Adsorption isotherm of Acetonitrile on [Cu(PF6)2(bpetha)2]n
DOI: 10.1039/B924181g
Adsorbate Acetonitrile: InChIKey WEVYAHXRMPXWCK-UHFFFAOYSA-N
Temperature: 298 K
Tabular data in the source: 0
pressure (bar)	uptake (mol/mol)
0.00890011	0.164706
0.0126759	0.235294
0.0137547	0.329412
0.0145638	0.435294
0.0151032	0.552941
0.0153729	0.670588
0.0156426	0.8
0.0164517	0.976471
0.0167214	1.25882
0.0172608	1.38824
0.0175305	1.52941
0.0180699	1.65882
0.0186093	1.74118
0.0196881	1.83529
0.0210366	1.92941
0.0229245	1.98824
0.0245427	2.04706
0.0258912	2.08235
0.0275094	2.11765
0.0293973	2.14118
0.0331731	2.2
0.0396459	2.27059
0.0482764	2.35294
0.0579856	2.42353
0.0671554	2.51765
0.0763252	2.6
0.0844162	2.74118
0.0903496	2.85882
0.093586	2.95294
