Adsorption isotherm of Tetrahydrofuran on [Cu(PF6)2(bpetha)2]n
DOI: 10.1039/B924181g
Adsorbate Tetrahydrofuran: InChIKey WYURNTSHIVDZCO-UHFFFAOYSA-N
Temperature: 298 K
Tabular data in the source: 0
pressure (bar)	uptake (mol/mol)
0.00331472	0.034749
0.0194148	0.0810811
0.0355149	0.0926641
0.0464061	0.104247
0.0554032	0.127413
0.0648739	0.11583
0.0729239	0.127413
0.0790798	0.104247
0.0852357	0.11583
0.0913916	0.104247
0.0984946	0.104247
0.106071	0.0926641
0.114595	0.11583
0.123592	0.138996
0.130695	0.162162
0.13543	0.196911
0.143954	0.266409
0.149163	0.312741
0.156739	0.416988
0.162895	0.660232
0.165736	0.938224
