Adsorption isotherm of Methanol on [Cu(PF6)2(bpetha)2]n
DOI: 10.1039/B924181g
Adsorbate Methanol: InChIKey OKKJLVBELUTLKV-UHFFFAOYSA-N
Temperature: 298 K
Tabular data in the source: 0
pressure (bar)	uptake (mol/mol)
0.0457008	0.486486
0.0766296	0.72973
0.0826307	0.799228
0.0886318	0.857143
0.0964794	0.915058
0.103404	0.996139
0.11079	1.05405
0.117714	1.11197
0.122792	1.71429
0.124177	1.19305
0.124639	1.9112
0.129716	1.26255
0.13064	2.03861
0.133409	1.35521
0.138026	2.13127
0.143565	2.21236
0.149105	2.27027
0.153721	2.3861
0.156952	2.50193
0.157875	2.64093
0.159722	2.79151
0.160645	2.9305
