Adsorption isotherm of Water on [Cu(PF6)2(bpetha)2]n
DOI: 10.1039/B924181g
Adsorbate Water: InChIKey XLYOFNOQVPJJNP-UHFFFAOYSA-N
Temperature: 298 K
Tabular data in the source: 0
pressure (bar)	uptake (mol/mol)
0.0010329	0.11583
0.00232403	0.138996
0.0037873	0.185328
0.0051645	0.220077
0.00662778	0.243243
0.00903788	0.301158
0.0113619	0.335907
0.0138581	0.393822
0.0161821	0.440154
0.0208302	0.555985
0.022982	0.6139
0.0253061	0.683398
0.0267693	0.764479
0.0284908	1.06564
0.0290934	1.38996
0.0293516	1.71429
0.0296959	2.03861
0.0299541	2.35135
