Adsorption isotherm of Acetone on [Cu(PF6)2(bpetha)2]n
DOI: 10.1039/B924181g
Adsorbate Acetone: InChIKey CSCPPACGZOOCGX-UHFFFAOYSA-N
Temperature: 298 K
Tabular data in the source: 0
pressure (bar)	uptake (mol/mol)
0.00683722	0.0235294
0.00752094	0.0470588
0.0157256	0.0823529
0.0218791	0.129412
0.0280326	0.164706
0.0307675	0.305882
0.0314512	0.423529
0.0328187	0.541176
0.0348698	0.670588
0.0355536	0.8
0.036921	0.894118
0.0382884	1.10588
0.0410233	1.21176
0.0430745	1.31765
0.0451257	1.4
0.0478606	1.51765
0.0499117	1.62353
0.0519629	1.67059
0.0526466	1.74118
0.0581164	1.8
0.0622187	1.85882
0.0670048	1.91765
0.0724746	1.94118
0.0765769	1.97647
0.0820467	2.01176
0.0882002	2.04706
0.0929862	2.05882
0.0991397	2.08235
0.105293	2.10588
0.11213	2.12941
0.118284	2.14118
0.123754	2.15294
0.12854	2.18824
0.131958	2.18824
0.138112	2.22353
0.147684	2.25882
0.154521	2.25882
0.158624	2.28235
0.165461	2.30588
0.172982	2.34118
0.179819	2.35294
0.18734	2.37647
0.193493	2.41176
0.201014	2.44706
0.208535	2.50588
0.214689	2.54118
0.220842	2.61176
0.229047	2.67059
0.233833	2.78824
0.238619	2.98824
