Adsorption isotherm of Ethanol on [Cu(PF6)2(bpetha)2]n
DOI: 10.1039/B924181g
Adsorbate Ethanol: InChIKey LFQSCWFLJHTTHZ-UHFFFAOYSA-N
Temperature: 298 K
Tabular data in the source: 0
pressure (bar)	uptake (mol/mol)
0.000977541	0.0694981
0.00325847	0.104247
0.0061911	0.150579
0.00928664	0.196911
0.0131968	0.23166
0.0197138	0.266409
0.0260678	0.312741
0.0327476	0.359073
0.0407309	0.405405
0.0483883	0.474903
0.0542535	0.532819
0.057512	0.648649
