Adsorption isotherm of Methyl ethyl ketone on [Cu(PF6)2(bpetha)2]n
DOI: 10.1039/B924181g
Adsorbate Methyl ethyl ketone: InChIKey ZWEHNKRNPOVVGH-UHFFFAOYSA-N
Temperature: 298 K
Tabular data in the source: 0
pressure (bar)	uptake (mol/mol)
1.39e-17	0.0235294
0.000883142	0.0823529
0.00176628	0.129412
0.00529885	0.152941
0.00971456	0.176471
0.0150134	0.211765
0.0198707	0.235294
0.0260527	0.282353
0.03091	0.305882
0.0388582	0.352941
0.0459234	0.388235
0.0521054	0.423529
0.0582874	0.470588
0.0613784	0.541176
0.0622615	0.588235
0.0627031	0.647059
0.0631446	0.705882
0.0644693	0.788235
0.0666772	0.847059
0.0693266	0.905882
0.0715345	0.964706
0.0746255	1.01176
0.078158	1.05882
0.0794828	1.2
0.0803659	1.29412
0.0825738	1.37647
0.0834569	1.44706
0.0856648	1.52941
0.0869895	1.62353
0.0891973	1.69412
0.0914052	1.77647
0.0922883	1.84706
0.0949377	1.91765
0.0975872	2.01176
0.100678	2.08235
0.103769	2.16471
0.108185	2.22353
0.113484	2.29412
0.118341	2.36471
0.124081	2.43529
0.130705	2.49412
0.135562	2.56471
0.14042	2.58824
0.143952	2.65882
0.147043	2.67059
0.1519	2.76471
