Adsorption isotherm of Nitrogen on Pd@CCOF-MPC
DOI: 10.1021/acs.chemmater.7b02131
Article source: Figure 4
Adsorbate Nitrogen: InChIKey IJGRMHOSHXDMSA-UHFFFAOYSA-N
Kind: experiment
Temperature: 77 K
Tabular data in the source: 0
pressure (bar)	uptake (cm3(STP)/g)
-0.004527	4.59184
-0.002716	9.69388
-0.000905	14.2857
-0.002716	19.898
-0.000905	23.9796
-0.000905	28.5714
-0.002716	34.6939
-0.002716	38.7755
-0.000905	44.3878
-0.000905	48.9796
-0.000905	54.5918
-0.002716	59.1837
-0.002716	64.7959
-0.002716	69.3878
-0.002716	73.4694
-0.002716	79.5918
-0.002716	83.6735
-0.000905	88.7755
-0.000905	94.3878
-0.002716	97.9592
-0.002716	104.082
-0.004527	109.694
-0.004527	114.796
-0.002716	119.388
-0.004527	123.98
-0.006338	129.082
0.000905	135.204
-0.004527	140.306
-0.002716	144.898
-0.000905	149.49
-0.002716	154.592
-0.004527	160.204
-0.004527	164.286
-0.004527	168.878
-0.001811	173.98
-0.000905	179.082
0.000905	184.184
-0.000905	186.735
-0.000905	188.776
0.008149	190.816
0.008149	194.388
0.024448	200.51
0.067912	202.041
0.084211	203.061
0.10051	203.571
0.122242	203.571
0.143974	204.592
0.162084	206.122
0.201926	205.102
0.270743	207.143
0.31964	207.143
0.370348	208.163
0.422867	208.673
0.477196	209.184
0.524282	209.694
0.57499	209.184
0.627509	208.673
0.680027	209.184
0.728924	210.714
0.777821	209.184
0.826718	209.184
0.879237	210.714
0.908212	211.224
0.933566	212.245
0.957109	212.755
0.987896	213.776
1.00057	213.776
1.00601	212.755
0.982463	212.755
0.94081	212.755
0.919078	212.755
0.891914	212.755
0.86656	212.245
0.839395	212.245
0.817663	213.265
0.786876	212.755
0.73979	212.755
0.687271	212.755
0.638375	212.755
0.585856	213.776
0.536959	213.265
0.486251	212.245
0.431922	212.755
0.383025	211.735
0.330506	209.694
0.305152	209.694
0.250822	208.163
0.178383	205.612
0.131297	205.102
0.087833	202.551
0.049802	201.531
