Adsorption isotherm of Nitrogen on CCOF-MPC
DOI: 10.1021/acs.chemmater.7b02131
Article source: Figure 4
Adsorbate Nitrogen: InChIKey IJGRMHOSHXDMSA-UHFFFAOYSA-N
Kind: experiment
Temperature: 77 K
Tabular data in the source: 0
pressure (bar)	uptake (cm3(STP)/g)
0.002716	2.55102
0.00996	6.63265
0.017204	9.69388
0.031692	13.7755
0.058857	16.8367
0.080589	18.3673
0.096888	19.3878
0.120431	21.9388
0.134919	22.449
0.163895	23.4694
0.178383	24.4898
0.198304	25
0.254444	29.0816
0.297908	31.1224
0.352238	33.1633
0.401135	34.1837
0.455464	37.2449
0.506172	38.7755
0.55688	39.7959
0.605777	40.8163
0.652863	43.8776
0.707192	44.898
0.763333	47.449
0.808608	50
0.839395	48.9796
0.859316	49.4898
0.882859	51.5306
0.913645	52.551
0.935377	52.551
0.962542	53.5714
0.993329	55.6122
1.00782	57.6531
0.978841	55.6122
0.94081	55.102
0.913645	54.5918
0.88467	53.5714
0.862938	53.0612
0.833962	51.5306
0.810419	51.5306
0.763333	49.4898
0.710814	48.4694
0.660107	46.4286
0.607588	44.3878
0.555069	42.8571
0.504361	41.3265
0.455464	40.3061
0.402946	37.7551
0.350427	35.9694
0.297908	33.6735
0.250822	31.6327
0.201926	29.0816
0.151218	25.5102
0.095077	22.449
0.049802	16.3265
