Adsorption isotherm of Argon on Cu2(phbpz)]*2DEF*MeOH
DOI: 10.1039/C3dt32302a
Adsorbate Argon: InChIKey XKRFYHLGVUSROY-UHFFFAOYSA-N
Temperature: 77 K
Tabular data in the source: 0
pressure (bar)	uptake (cm3(STP)/g)
0.00229475	12.9788
0.00515504	21.0448
0.0108756	31.8566
0.0308976	91.2362
0.0738019	96.0415
0.102405	97.7576
0.15103	99.6454
0.192504	101.19
0.242559	102.563
0.345529	105.309
0.442779	107.883
0.544319	110.114
0.641569	112.002
0.697344	113.032
0.787443	115.949
0.891844	119.21
0.934748	121.612
0.989093	124.53
