Adsorption isotherm of Argon on Cu2(phbpz)]*2DEF*MeOH
DOI: 10.1039/C3dt32302a
Adsorbate Argon: InChIKey XKRFYHLGVUSROY-UHFFFAOYSA-N
Temperature: 77 K
Tabular data in the source: 0
pressure (bar)	uptake (cm3(STP)/g)
0.00372489	1.30879
0.0337579	1.65202
0.0580703	1.99526
0.095254	2.51011
0.15818	3.02496
0.205375	3.53981
0.25257	3.53981
0.308345	3.88305
0.408455	4.22628
0.502845	4.74113
0.604385	5.77083
0.704495	6.80054
0.801745	7.14377
0.85752	7.65862
0.95191	8.85994
