Adsorption isotherm of Carbon Dioxide on Rht-MOF-4a
DOI: 10.1002/anie.201201202
Adsorbate Carbon Dioxide: InChIKey CURLTUGMZLYLDI-UHFFFAOYSA-N
Temperature: 298 K
Tabular data in the source: 0
pressure (bar)	uptake (wt%)
0.165154	0.168515
0.398149	6.46095
0.689393	13.1467
2.02911	22.9786
4.12607	28.0912
6.10653	30.8441
8.14523	32.4173
10.2422	33.4004
12.2226	33.9904
14.2031	37.7265
16.3001	39.6929
18.164	40.6761
20.3192	41.266
24.1636	42.6425
