Adsorption isotherm of Carbon Dioxide on Rht-MOF-4a
DOI: 10.1002/anie.201201202
Adsorbate Carbon Dioxide: InChIKey CURLTUGMZLYLDI-UHFFFAOYSA-N
Temperature: 273 K
Tabular data in the source: 0
pressure (bar)	uptake (wt%)
0.398149	10.787
0.689393	23.1752
2.14561	31.4341
4.06782	34.7769
6.10653	36.9399
7.03851	37.9231
8.14523	43.2324
10.3587	46.5752
12.1061	47.7551
14.3196	48.9349
16.1253	49.3282
18.2805	50.3114
20.2027	50.7047
22.2997	58.9635
24.2801	72.7282
