Adsorption isotherm of Hydrogen on Carbon
DOI: 10.1016/j.mseb.2003.10.095
Adsorbate Hydrogen: InChIKey UFHFLCQGNIYNRP-UHFFFAOYSA-N
Temperature: 303 K
Tabular data in the source: 0
pressure (bar)	uptake (wt%)
0.858407	0.00309766
5.6428	0.0248672
12.022	0.0538932
18.5219	0.0787002
25.7565	0.103456
31.2739	0.120963
