Adsorption isotherm of Hydrogen on Carbon
DOI: 10.1016/j.mseb.2003.10.095
Adsorbate Hydrogen: InChIKey UFHFLCQGNIYNRP-UHFFFAOYSA-N
Temperature: 77 K
Tabular data in the source: 0
pressure (bar)	uptake (wt%)
0.0125523	0.410729
0.0167364	0.568036
0.0292887	0.707786
0.0460251	0.821276
0.0627615	0.89106
0.0878661	0.995735
0.108787	1.05674
0.121339	1.11782
0.230126	1.30918
0.297071	1.37852
0.368201	1.44783
0.435146	1.49969
0.476987	1.52555
0.543933	1.55993
0.615063	1.59427
0.656904	1.62013
0.728033	1.63699
0.769874	1.64537
0.828452	1.67108
0.895397	1.69672
0.933054	1.69639
0.987448	1.7134
1.05439	1.73029
