Adsorption isotherm of Hydrogen on Carbon
DOI: 10.1016/j.mseb.2003.10.095
Adsorbate Hydrogen: InChIKey UFHFLCQGNIYNRP-UHFFFAOYSA-N
Temperature: 77 K
Tabular data in the source: 0
pressure (bar)	uptake (wt%)
0.0460251	0.594003
0.0669456	0.707457
0.0794979	0.79476
0.0878661	0.847134
0.0962343	0.899508
0.112971	0.978033
0.129707	1.03908
0.154812	1.11753
0.334728	1.55302
0.384937	1.64873
0.435146	1.74445
0.493724	1.81387
0.552301	1.89203
0.606695	1.96148
0.665272	2.02216
0.715481	2.05668
0.723849	2.08283
0.828452	2.16933
0.895397	2.22119
0.966527	2.27302
1.0251	2.32496
