Adsorption isotherm of Hydrogen on Carbon
DOI: 10.1016/j.mseb.2003.10.095
Adsorbate Hydrogen: InChIKey UFHFLCQGNIYNRP-UHFFFAOYSA-N
Temperature: 303 K
Tabular data in the source: 0
pressure (bar)	uptake (wt%)
0.613516	0.00311484
5.5268	0.0406648
6.50894	0.0469117
10.8061	0.0750311
16.3304	0.10938
23.2032	0.147845
31.0556	0.186242
