Adsorption isotherm of Hydrogen on H-ZSM-5
DOI: 10.1016/j.mseb.2003.10.095
Adsorbate Hydrogen: InChIKey UFHFLCQGNIYNRP-UHFFFAOYSA-N
Temperature: 77 K
Tabular data in the source: 0
pressure (bar)	uptake (wt%)
0.0125523	0.113131
0.0292887	0.182672
0.041841	0.234827
0.0543933	0.278272
0.0753138	0.321644
0.100418	0.356268
0.146444	0.416843
0.188285	0.460032
0.246862	0.494365
0.305439	0.537409
0.372385	0.554248
0.435146	0.579833
0.476987	0.59689
0.543933	0.62244
0.606695	0.639315
0.665272	0.638804
0.715481	0.647078
0.782427	0.655205
0.849372	0.672044
0.966527	0.679734
1.02092	0.67926
