Adsorption isotherm of Hydrogen on Carbon
DOI: 10.1016/j.mseb.2003.10.095
Adsorbate Hydrogen: InChIKey UFHFLCQGNIYNRP-UHFFFAOYSA-N
Temperature: 303 K
Tabular data in the source: 0
pressure (bar)	uptake (wt%)
0.491803	0.00415876
2.70492	0.0133995
5.65574	0.0278257
8.72951	0.0411864
12.1721	0.0576661
15.2459	0.073132
18.4426	0.0833218
20.9016	0.0935893
24.5902	0.107938
28.1557	0.122299
31.2295	0.134607
