Adsorption isotherm of Hydrogen on Carbon
DOI: 10.1016/j.mseb.2003.10.095
Adsorbate Hydrogen: InChIKey UFHFLCQGNIYNRP-UHFFFAOYSA-N
Temperature: 303 K
Tabular data in the source: 0
pressure (bar)	uptake (wt%)
0.368852	0.00206644
2.82787	0.029176
7.2541	0.071868
12.418	0.11343
15.9836	0.141475
18.8115	0.159072
21.3934	0.178801
24.7131	0.201609
28.5246	0.225418
30.9836	0.240949
