Adsorption isotherm of Hydrogen on Carbon
DOI: 10.1016/j.mseb.2003.10.095
Adsorbate Hydrogen: InChIKey UFHFLCQGNIYNRP-UHFFFAOYSA-N
Temperature: 303 K
Tabular data in the source: 0
pressure (bar)	uptake (wt%)
1.10588	0.00939608
6.75813	0.0574205
9.58383	0.0803801
11.3045	0.0960488
12.7786	0.107524
14.498	0.120035
16.3407	0.134643
18.4291	0.151338
20.8845	0.166955
23.3403	0.183625
25.7956	0.199242
28.0061	0.214877
29.7246	0.225282
31.1982	0.235705
