Adsorption isotherm of Hydrogen on H-ZSM-5
DOI: 10.1016/j.mseb.2003.10.095
Adsorbate Hydrogen: InChIKey UFHFLCQGNIYNRP-UHFFFAOYSA-N
Temperature: 303 K
Tabular data in the source: 0
pressure (bar)	uptake (wt%)
0.614754	0.000987921
5.90164	0.0120104
12.541	0.0260483
18.6885	0.0380328
24.7131	0.0510828
31.3525	0.0630155
