Adsorption isotherm of Hydrogen on Carbon
DOI: 10.1016/j.mseb.2003.10.095
Adsorbate Hydrogen: InChIKey UFHFLCQGNIYNRP-UHFFFAOYSA-N
Temperature: 77 K
Tabular data in the source: 0
pressure (bar)	uptake (wt%)
0.0125523	0.200939
0.0209205	0.305761
0.0502092	0.462848
0.0627615	0.532668
0.0753138	0.593747
0.0878661	0.628603
0.121339	0.680758
0.175732	0.758953
0.230126	0.845891
0.297071	0.897753
0.359833	0.940911
0.430962	0.966513
0.485356	0.98352
0.548117	1.00919
0.610879	1.03487
0.661088	1.04317
0.723849	1.05136
0.790795	1.077
0.83682	1.08534
0.895397	1.11105
0.962343	1.11921
1.0251	1.15363
