Adsorption isotherm of Hydrogen on Zeolite H-YZ
DOI: 10.1016/j.mseb.2003.10.095
Adsorbate Hydrogen: InChIKey UFHFLCQGNIYNRP-UHFFFAOYSA-N
Temperature: 77 K
Tabular data in the source: 0
pressure (bar)	uptake (wt%)
0.0251046	0.0694677
0.041841	0.112876
0.0543933	0.14761
0.0753138	0.17356
0.0878661	0.208294
0.121339	0.234135
0.150628	0.268723
0.192469	0.311912
0.23431	0.355102
0.280335	0.389544
0.338912	0.432588
0.401674	0.475595
0.464435	0.518602
0.51046	0.544334
0.569038	0.578667
0.640167	0.60418
0.686192	0.638622
0.736402	0.655606
0.811715	0.689793
0.874477	0.697958
0.924686	0.723653
1.05439	0.766077
