Adsorption isotherm of Hydrogen on Carbon
DOI: 10.1016/j.mseb.2003.10.095
Adsorbate Hydrogen: InChIKey UFHFLCQGNIYNRP-UHFFFAOYSA-N
Temperature: 77 K
Tabular data in the source: 0
pressure (bar)	uptake (wt%)
0.0251046	0.524256
0.0376569	0.629041
0.0543933	0.768755
0.133891	1.12645
0.167364	1.24854
0.221757	1.37918
0.284519	1.50101
0.343096	1.62288
0.414226	1.71841
0.460251	1.77919
0.531381	1.85724
0.589958	1.91792
0.644351	1.96115
0.702929	2.01309
0.774059	2.06491
0.828452	2.0994
0.891213	2.13382
0.949791	2.16827
1.01255	2.20269
