Adsorption isotherm of Hydrogen on Carbon
DOI: 10.1016/j.mseb.2003.10.095
Adsorbate Hydrogen: InChIKey UFHFLCQGNIYNRP-UHFFFAOYSA-N
Temperature: 77 K
Tabular data in the source: 0
pressure (bar)	uptake (wt%)
0.0376569	0.672748
0.0711297	0.873504
0.125523	1.08282
0.196653	1.2745
0.238494	1.34407
0.25523	1.38763
0.322176	1.47446
0.389121	1.57003
0.460251	1.63059
0.506276	1.66515
0.569038	1.7258
0.635983	1.76892
0.682008	1.79474
0.74477	1.82915
0.811715	1.87228
0.861925	1.88058
0.920502	1.92377
0.987448	1.94067
1.05439	1.95757
