Adsorption isotherm of Hydrogen on Carbon
DOI: 10.1016/j.mseb.2003.10.095
Adsorbate Hydrogen: InChIKey UFHFLCQGNIYNRP-UHFFFAOYSA-N
Temperature: 77 K
Tabular data in the source: 0
pressure (bar)	uptake (wt%)
0.0125523	0.174107
0.0209205	0.235009
0.0502092	0.321862
0.0585774	0.365343
0.0794979	0.391294
0.104603	0.44334
0.133891	0.486639
0.209205	0.546958
0.263598	0.590038
0.32636	0.633046
0.393305	0.667306
0.460251	0.692855
0.523013	0.70973
0.560669	0.726823
0.631799	0.761047
0.761506	0.777339
0.811715	0.794323
0.853556	0.802669
0.903766	0.819654
0.970711	0.827781
1.03766	0.835909
