Adsorption isotherm of Hydrogen on Zeolite H-YZ
DOI: 10.1016/j.mseb.2003.10.095
Adsorbate Hydrogen: InChIKey UFHFLCQGNIYNRP-UHFFFAOYSA-N
Temperature: 303 K
Tabular data in the source: 0
pressure (bar)	uptake (wt%)
1.22951	0.00197584
5.53279	0.0141544
8.85246	0.0201208
12.418	0.0281665
18.8115	0.0411777
21.2705	0.0451294
24.7131	0.0521355
31.3525	0.0651208
