Adsorption isotherm of Hydrogen on Carbon
DOI: 10.1016/j.mseb.2003.10.095
Adsorbate Hydrogen: InChIKey UFHFLCQGNIYNRP-UHFFFAOYSA-N
Temperature: 77 K
Tabular data in the source: 0
pressure (bar)	uptake (wt%)
0.0083682	0.0083682
0.0209205	0.644417
0.041841	0.818451
0.0920502	1.05321
0.146444	1.1921
0.200837	1.28745
0.225941	1.33078
0.25523	1.36537
0.313808	1.42584
0.389121	1.48616
0.481172	1.55504
0.577406	1.60647
0.677824	1.65786
0.778243	1.70054
0.882845	1.73447
0.979079	1.76847
1.08368	1.7937
