Adsorption isotherm of Hydrogen on Carbon
DOI: 10.1016/j.mseb.2003.10.095
Adsorbate Hydrogen: InChIKey UFHFLCQGNIYNRP-UHFFFAOYSA-N
Temperature: 303 K
Tabular data in the source: 0
pressure (bar)	uptake (wt%)
1.10545	0.00834348
4.05531	0.0355049
5.77728	0.0543314
10.3232	0.0919071
11.7999	0.109698
13.2731	0.119069
15.362	0.136817
17.0839	0.155643
21.6277	0.187956
23.2251	0.201528
26.0504	0.223435
27.7706	0.238051
30.2268	0.255774
31.3319	0.263064
