Adsorption isotherm of Hydrogen on Carbon
DOI: 10.1016/j.mseb.2003.10.095
Adsorbate Hydrogen: InChIKey UFHFLCQGNIYNRP-UHFFFAOYSA-N
Temperature: 303 K
Tabular data in the source: 0
pressure (bar)	uptake (wt%)
0.859266	0.00520286
5.52766	0.04277
10.3185	0.0803285
14.1251	0.106377
23.5778	0.165714
31.1862	0.206233
