Adsorption isotherm of Nitrogen on TTI-COF anti-parallel
DOI: 10.1002/adma.201603006
Article source: Figure S33
Adsorbate Nitrogen: InChIKey IJGRMHOSHXDMSA-UHFFFAOYSA-N
Kind: experiment
Temperature: 77 K
Tabular data in the source: 0
pressure (bar)	uptake (cm3(STP)/g)
0.006576	11.0803
0.021937	13.8504
0.039476	13.8504
0.0658	13.8504
0.09102	15.2355
0.112947	16.6205
0.140366	16.6205
0.164491	19.3906
0.190805	19.3906
0.214931	20.7756
0.241255	22.1607
0.260993	22.1607
0.291694	23.5457
0.312527	23.5457
0.342134	24.9307
0.366259	24.9307
0.391479	26.3158
0.416709	26.3158
0.441929	26.3158
0.46495	27.7008
0.491274	30.4709
0.516494	31.856
0.541714	31.856
0.565839	33.241
0.589965	33.241
0.616289	33.241
0.641509	33.241
0.665634	36.0111
0.684268	38.7812
0.716074	41.5513
0.741294	41.5513
0.767618	41.5513
0.792838	42.9363
0.816963	44.3213
0.844372	44.3213
0.866308	44.3213
0.892623	45.7064
0.916748	52.6316
0.940874	54.0166
0.96281	58.1717
0.989125	66.482
1.00667	88.6427
0.059214	16.6205
0.109664	19.3906
0.155716	20.7756
0.203967	22.1607
0.256606	24.9307
0.304857	26.3158
0.353097	30.4709
0.407934	30.4709
0.456185	33.241
0.506625	36.0111
0.55597	38.7812
0.612996	41.5513
0.651378	44.3213
0.706205	44.3213
0.758843	44.3213
0.804895	49.8615
0.857534	49.8615
0.907973	55.4017
0.958423	58.1717
