Adsorption isotherm of Nitrogen on TTI-COF
DOI: 10.1002/adma.201603006
Article source: Figure 1 (d)
Adsorbate Nitrogen: InChIKey IJGRMHOSHXDMSA-UHFFFAOYSA-N
Kind: experiment
Temperature: 77 K
Tabular data in the source: 0
pressure (bar)	uptake (cm3(STP)/g)
0.011359	34.2466
0.010325	81.0502
0.016526	237.443
0.018593	279.68
0.035119	328.767
0.057836	386.986
0.082631	505.708
0.107415	544.521
0.135309	565.068
0.161127	573.059
0.187978	582.192
0.212772	589.041
0.233433	594.749
0.262351	599.315
0.285078	607.306
0.311929	609.589
0.33878	619.863
0.363574	622.146
0.385258	627.854
0.413153	631.279
0.436903	636.986
0.463765	641.552
0.487515	644.977
0.512309	648.402
0.540194	657.534
0.563945	659.817
0.588739	666.667
0.613523	668.95
0.638317	673.516
0.663101	675.799
0.688929	682.648
0.713713	686.073
0.739541	691.781
0.763291	697.489
0.787052	705.479
0.811836	707.763
0.837664	715.753
0.862448	718.037
0.890343	732.877
0.917194	742.009
0.937854	753.425
0.964705	767.123
0.989489	801.37
1.00705	860.731
0.010325	81.0502
0.011359	115.297
0.014459	237.443
0.018593	278.539
0.059903	399.543
0.110515	554.794
0.160093	578.767
0.207605	595.89
0.262351	609.589
0.309862	621.005
0.358407	633.562
0.407985	640.411
0.461697	651.826
0.512309	666.667
0.559821	675.799
0.613523	682.648
0.663101	692.922
0.713713	703.196
0.765358	715.753
0.810803	727.169
0.861414	737.443
0.912026	760.274
0.958504	801.37
1.00705	860.731
