Adsorption isotherm of Hydrogen on Zeo-5A@MOD-74-1
DOI: 10.1016/j.cej.2019.123251
Article source: Figure 2e
Adsorbate Hydrogen: InChIKey UFHFLCQGNIYNRP-UHFFFAOYSA-N
Kind: experiment
Temperature: 298 K
Tabular data in the source: 0
pressure (bar)	uptake (mmol/g)
0.111	0.00412
0.554	0.02
0.864	0.0341
1.16	0.0465
2.04	0.0829
2.7	0.109
3.37	0.136
4.02	0.163
4.68	0.189
5.37	0.22
6.03	0.251
6.68	0.269
7.35	0.297
8.02	0.324
8.67	0.35
9.34	0.372
10	0.399
10.7	0.426
11.3	0.451
12	0.476
12.7	0.506
13.3	0.524
14	0.554
14.7	0.579
15.4	0.606
16	0.627
16.7	0.652
17.4	0.675
18	0.698
18.7	0.724
19.4	0.747
20	0.772
20.7	0.798
