Adsorption isotherm of Carbon Dioxide on MOF-74
DOI: 10.1016/j.cej.2019.123251
Article source: Figure 2a
Adsorbate Carbon Dioxide: InChIKey CURLTUGMZLYLDI-UHFFFAOYSA-N
Kind: experiment
Temperature: 298 K
Tabular data in the source: 0
pressure (bar)	uptake (mmol/g)
0.492	1.39
0.514	1.87
0.559	2.42
0.58	3.38
0.636	4.05
0.748	4.63
0.871	4.98
1.03	5.3
1.21	5.56
1.37	5.78
2.11	6.44
2.56	6.9
3.03	7.31
3.56	7.64
4.08	7.94
4.65	8.17
5.23	8.4
5.84	8.6
6.42	8.76
7.03	8.91
7.66	9.06
8.3	9.21
8.91	9.3
9.56	9.4
10.2	9.5
10.9	9.6
11.5	9.7
12.1	9.78
12.8	9.85
13.4	9.94
14.1	9.99
14.7	10
15.4	10.1
16.1	10.2
16.7	10.3
17.4	10.3
18.1	10.4
18.7	10.4
19.4	10.4
20	10.5
20.7	10.6
