Adsorption isotherm of Carbon Dioxide on Zeo-5A@MOD-74-1
DOI: 10.1016/j.cej.2019.123251
Article source: Figure 2a
Adsorbate Carbon Dioxide: InChIKey CURLTUGMZLYLDI-UHFFFAOYSA-N
Kind: experiment
Temperature: 298 K
Tabular data in the source: 0
pressure (bar)	uptake (mmol/g)
0.112	0.207
0.493	1.47
0.516	2.18
0.538	3.17
0.549	3.84
0.594	4.96
0.639	5.83
0.729	6.47
0.841	6.85
1.01	7.25
1.18	7.47
1.36	7.86
2.11	8.59
2.56	9.15
3.04	9.62
3.53	10.1
4.06	10.4
4.61	10.8
5.18	11
5.75	11.3
6.36	11.5
6.95	11.7
7.58	11.9
8.2	12
8.85	12.2
9.46	12.3
10.1	12.5
10.8	12.6
11.4	12.7
12.1	12.8
12.7	12.9
13.4	13
14	13.1
14.7	13.1
15.4	13.2
16	13.3
16.7	13.4
17.3	13.4
18	13.5
18.6	13.6
19.3	13.6
20	13.7
20.6	13.8
