Adsorption isotherm of Carbon Dioxide on Zeolite 5A
DOI: 10.1016/j.cej.2019.123251
Article source: Figure 2a
Adsorbate Carbon Dioxide: InChIKey CURLTUGMZLYLDI-UHFFFAOYSA-N
Kind: experiment
Temperature: 298 K
Tabular data in the source: 0
pressure (bar)	uptake (mmol/g)
0.492	1.28
0.492	1.54
0.503	2.61
0.535	3.75
0.568	4.5
0.647	4.66
0.837	4.79
1.11	4.95
1.34	5.03
2.17	5.17
2.79	5.26
3.43	5.35
4.07	5.42
4.71	5.45
5.36	5.51
6.04	5.55
6.7	5.59
7.37	5.62
8.06	5.67
8.72	5.69
9.39	5.73
10.1	5.75
10.7	5.78
11.4	5.8
12.1	5.82
12.8	5.85
13.4	5.86
14.1	5.88
14.8	5.89
15.4	5.92
16.1	5.94
16.8	5.95
17.4	5.97
18.1	5.99
18.8	6.01
19.4	6
20.1	6.02
20.8	6.05
