Adsorption isotherm of Carbon Dioxide, Hydrogen on Zeo-5A@MOD-74-1
DOI: 10.1016/j.cej.2019.123251
Article source: Table S6
Adsorbate Carbon Dioxide: InChIKey CURLTUGMZLYLDI-UHFFFAOYSA-N
Adsorbate Hydrogen: InChIKey UFHFLCQGNIYNRP-UHFFFAOYSA-N
Kind: experiment
Temperature: 298 K
Tabular data in the source: 0
pressure (bar)	Carbon Dioxide fraction	Carbon Dioxide uptake (mmol/g)	Hydrogen fraction	Hydrogen uptake (mmol/g)	total uptake (mmol/g)
1	0.15	4.28	0.85	0.03	
