Adsorption isotherm of Hydrogen on Zeolite 5A
DOI: 10.1016/j.cej.2019.123251
Article source: Figure 2e
Adsorbate Hydrogen: InChIKey UFHFLCQGNIYNRP-UHFFFAOYSA-N
Kind: experiment
Temperature: 298 K
Tabular data in the source: 0
pressure (bar)	uptake (mmol/g)
0.576	0.0106
0.886	0.0182
1.18	0.0229
2.04	0.0381
2.72	0.051
3.42	0.0633
4.06	0.0751
4.75	0.0891
5.45	0.0985
6.1	0.112
6.75	0.123
7.43	0.134
8.12	0.147
8.78	0.159
9.47	0.172
10.1	0.185
10.8	0.198
11.5	0.21
12.2	0.222
12.8	0.235
13.5	0.247
14.2	0.256
14.8	0.27
15.5	0.278
16.2	0.291
16.9	0.298
17.5	0.309
18.2	0.32
18.9	0.334
19.5	0.344
20.2	0.357
20.9	0.367
