Adsorption isotherm of Hydrogen on MOF-74
DOI: 10.1016/j.cej.2019.123251
Article source: Figure 2e
Adsorbate Hydrogen: InChIKey UFHFLCQGNIYNRP-UHFFFAOYSA-N
Kind: experiment
Temperature: 298 K
Tabular data in the source: 0
pressure (bar)	uptake (mmol/g)
0.565	0.017
0.886	0.0288
1.17	0.0382
2.03	0.0682
2.71	0.0899
3.39	0.112
4.06	0.136
4.72	0.159
5.39	0.183
6.06	0.199
6.71	0.222
7.39	0.246
8.05	0.27
8.71	0.289
9.39	0.31
10	0.332
10.7	0.353
11.4	0.375
12.1	0.397
12.7	0.415
13.4	0.437
14.1	0.458
14.7	0.476
15.4	0.494
16.1	0.517
16.7	0.535
17.4	0.555
18.1	0.577
18.7	0.597
19.4	0.617
20.1	0.637
20.7	0.656
