Adsorption isotherm of Cumene on Z-SM5 (c)
DOI: 10.1007/s10450-018-9980-z
Article source: Figure 4b
Adsorbate Cumene: InChIKey RWGFKTVRMDUZSP-UHFFFAOYSA-N
Kind: experiment
Temperature: 308 K
Tabular data in the source: 0
pressure (bar)	uptake (mmol/g)
7.8e-05	0.382908
0.000215	0.504994
0.000567	0.615982
0.001374	0.724195
0.002055	0.865705
0.00298	1.10155
0.003912	1.3152
0.004922	1.49001
0.006773	1.64262
