Adsorption isotherm of Nitrogen on Z-SM5 (a)
DOI: 10.1007/s10450-018-9980-z
Article source: Figure 3
Adsorbate Nitrogen: InChIKey IJGRMHOSHXDMSA-UHFFFAOYSA-N
Kind: experiment
Temperature: 77 K
Tabular data in the source: 0
pressure (bar)	uptake (cm3(STP)/g)
0.043959	96.3993
0.100373	101.374
0.14946	105.218
0.20221	107.931
0.2491	109.287
0.255694	108.835
0.302583	110.418
0.308444	110.192
0.350205	111.549
0.356066	110.87
0.400025	111.775
0.411747	111.775
0.449112	112.905
0.461567	111.775
0.493804	113.131
0.511387	112.905
0.55095	114.036
0.562672	112.905
0.602968	114.036
0.613225	113.357
0.654986	114.036
0.669639	113.81
0.709934	114.036
0.719459	114.262
0.753161	113.81
0.772209	114.036
0.798585	113.81
0.816168	114.036
0.8528	114.036
0.871849	114.262
0.904818	114.714
0.922402	114.714
0.960499	115.392
0.97442	115.392
0.993469	114.94
1.00446	116.523
