Adsorption isotherm of Nitrogen on Z-SM5 (c)
DOI: 10.1007/s10450-018-9980-z
Article source: Figure 3
Adsorbate Nitrogen: InChIKey IJGRMHOSHXDMSA-UHFFFAOYSA-N
Kind: experiment
Temperature: 77 K
Tabular data in the source: 0
pressure (bar)	uptake (cm3(STP)/g)
0.048355	145.239
0.090848	156.77
0.150925	167.398
0.186825	172.598
0.250565	180.286
0.298187	185.26
0.356066	190.461
0.400758	194.531
0.453508	200.41
0.508457	203.575
0.560475	206.741
0.611027	209.454
0.660847	211.715
0.713598	212.619
0.764883	214.428
0.813238	215.559
0.869651	215.559
0.918006	216.689
0.969291	218.272
0.06081	148.404
0.101838	159.258
0.148727	167.398
0.19928	175.085
0.251298	180.964
0.29892	186.391
0.353136	191.591
0.402956	196.34
0.453508	204.706
0.499665	211.263
0.556811	213.298
0.599305	213.976
0.654986	214.881
0.709202	214.881
0.756091	215.785
0.805911	216.011
0.846207	215.559
0.907016	216.916
0.961232	218.272
0.992003	219.855
1.00226	222.568
