Adsorption isotherm of Toluene on Z-SM5 (a)
DOI: 10.1007/s10450-018-9980-z
Article source: Figure 4a
Adsorbate Toluene: InChIKey YXFVVABEGXRONW-UHFFFAOYSA-N
Kind: experiment
Temperature: 308 K
Tabular data in the source: 0
pressure (bar)	uptake (mmol/g)
0.000199	0.713889
0.00037	0.727778
0.000598	0.747222
0.000882	0.763889
0.001423	0.788889
0.001993	0.811111
0.003871	0.875
0.005864	0.941667
0.007828	1.00556
0.009792	1.04444
0.011813	1.07222
0.013749	1.08611
0.015798	1.10556
0.017734	1.125
0.019784	1.13611
0.021719	1.14444
0.023769	1.15278
0.025705	1.15833
0.027726	1.16944
0.029775	1.16944
0.031796	1.17778
