Adsorption isotherm of Toluene on Z-SM5 (d)
DOI: 10.1007/s10450-018-9980-z
Article source: Figure 4a
Adsorbate Toluene: InChIKey YXFVVABEGXRONW-UHFFFAOYSA-N
Kind: experiment
Temperature: 308 K
Tabular data in the source: 0
pressure (bar)	uptake (mmol/g)
8.5e-05	0.369444
0.000199	0.413889
0.000342	0.441667
0.000484	0.469444
0.000626	0.488889
0.000939	0.519444
0.001452	0.563889
0.001907	0.594444
0.003843	0.702778
0.005835	0.786111
0.007857	0.855556
0.009821	0.925
0.011785	0.997222
0.013749	1.14167
0.015742	1.33056
0.017734	1.55833
0.019784	1.78056
0.021833	1.96389
0.023769	2.14167
0.025761	2.28056
0.027726	2.36944
0.029718	2.43056
0.031825	2.47222
