Adsorption isotherm of Toluene on Z-SM5 (c)
DOI: 10.1007/s10450-018-9980-z
Article source: Figure 4a
Adsorbate Toluene: InChIKey YXFVVABEGXRONW-UHFFFAOYSA-N
Kind: experiment
Temperature: 308 K
Tabular data in the source: 0
pressure (bar)	uptake (mmol/g)
0.000142	0.552778
0.000228	0.563889
0.00037	0.583333
0.000512	0.6
0.000712	0.636111
0.000882	0.652778
0.001366	0.691667
0.001907	0.722222
0.003871	0.822222
0.005864	0.886111
0.007857	0.941667
0.009849	0.991667
0.011785	1.05556
0.013493	1.13056
0.01577	1.23333
0.017734	1.36389
0.019755	1.48611
0.021805	1.61111
0.023826	1.73056
0.02579	1.84722
0.027754	1.95278
0.029747	2.05833
0.031825	2.14444
