Adsorption isotherm of Cumene on Z-SM5 (d)
DOI: 10.1007/s10450-018-9980-z
Article source: Figure 4b
Adsorbate Cumene: InChIKey RWGFKTVRMDUZSP-UHFFFAOYSA-N
Kind: experiment
Temperature: 308 K
Tabular data in the source: 0
pressure (bar)	uptake (mmol/g)
4.2e-05	0.221976
0.000179	0.427303
0.000448	0.538291
0.000705	0.610433
0.001422	0.743618
0.002049	0.987791
0.002963	1.44284
0.003972	1.68147
0.006015	1.90899
