Adsorption isotherm of Toluene on Z-SM5 (b)
DOI: 10.1007/s10450-018-9980-z
Article source: Figure 4a
Adsorbate Toluene: InChIKey YXFVVABEGXRONW-UHFFFAOYSA-N
Kind: experiment
Temperature: 308 K
Tabular data in the source: 0
pressure (bar)	uptake (mmol/g)
0.000171	0.641667
0.000285	0.661111
0.000455	0.680556
0.000655	0.705556
0.000939	0.730556
0.001395	0.758333
0.001907	0.786111
0.003871	0.872222
0.005835	0.938889
0.007857	1
0.009792	1.05556
0.011813	1.09722
0.013777	1.13611
0.015855	1.21111
0.017848	1.29167
0.019784	1.38611
0.021805	1.48889
0.023769	1.58056
0.025761	1.65
0.027754	1.70833
0.029747	1.75556
0.031711	1.78889
