Adsorption isotherm of Nitrogen on Z-SM5 (d)
DOI: 10.1007/s10450-018-9980-z
Article source: Figure 3
Adsorbate Nitrogen: InChIKey IJGRMHOSHXDMSA-UHFFFAOYSA-N
Kind: experiment
Temperature: 77 K
Tabular data in the source: 0
pressure (bar)	uptake (cm3(STP)/g)
0.054216	153.379
0.098175	170.111
0.150925	184.582
0.203676	194.983
0.253496	204.932
0.30185	212.167
0.354601	218.95
0.405886	223.925
0.454241	227.995
0.504793	230.934
0.555346	233.421
0.609562	235.683
0.665243	237.039
0.716528	237.944
0.769279	238.396
0.817633	239.753
0.868919	240.883
0.920937	242.918
0.978816	245.631
1.0008	248.345
0.054948	154.735
0.106966	173.276
0.151658	184.808
0.206606	196.792
0.302583	212.619
0.354601	218.95
0.407351	225.734
0.45131	233.421
0.500398	237.265
0.552415	238.396
0.596374	239.3
0.648392	239.753
0.707004	240.883
0.749497	241.561
0.801515	242.466
0.846207	242.692
0.896759	244.049
0.937787	246.084
0.980281	251.058
1.00373	252.867
