Adsorption isotherm of Cumene on Z-SM5 (a)
DOI: 10.1007/s10450-018-9980-z
Article source: Figure 4b
Adsorbate Cumene: InChIKey RWGFKTVRMDUZSP-UHFFFAOYSA-N
Kind: experiment
Temperature: 308 K
Tabular data in the source: 0
pressure (bar)	uptake (mmol/g)
0.000191	0.607658
0.000538	0.696448
0.001236	0.746393
0.001941	0.771365
0.002939	0.796337
0.003888	0.81576
0.004916	0.832408
0.006917	0.840733
