Adsorption isotherm of Nitrogen on Z-SM5 (b)
DOI: 10.1007/s10450-018-9980-z
Article source: Figure 3
Adsorbate Nitrogen: InChIKey IJGRMHOSHXDMSA-UHFFFAOYSA-N
Kind: experiment
Temperature: 77 K
Tabular data in the source: 0
pressure (bar)	uptake (cm3(STP)/g)
0.047622	111.549
0.10257	119.462
0.154588	125.567
0.202943	130.09
0.254961	134.386
0.304781	138.003
0.357531	141.169
0.410282	144.334
0.461567	145.691
0.51212	147.5
0.56194	149.083
0.61469	150.665
0.665243	152.7
0.718726	153.831
0.767813	154.735
0.819831	155.64
0.868186	156.997
0.918006	158.579
0.056414	113.131
0.455706	149.083
0.502595	153.831
0.556811	154.962
0.605899	156.318
0.660847	156.77
0.709934	157.901
0.754626	159.258
0.796387	159.484
0.847672	159.484
0.898225	161.067
0.937787	161.519
0.962697	162.875
0.985409	164.458
0.998597	167.398
