Adsorption isotherm of Cumene on Z-SM5 (b)
DOI: 10.1007/s10450-018-9980-z
Article source: Figure 4b
Adsorbate Cumene: InChIKey RWGFKTVRMDUZSP-UHFFFAOYSA-N
Kind: experiment
Temperature: 308 K
Tabular data in the source: 0
pressure (bar)	uptake (mmol/g)
0.000221	0.566038
0.000579	0.640954
0.001266	0.701998
0.001929	0.754717
0.002945	0.915649
0.00393	1.07936
0.004898	1.1737
0.006905	1.24861
