Adsorption isotherm of Acetonitrile on Pdpz
DOI: 10.1021/acs.inorgchem.5b02207
Article source: Figure 3a
Adsorbate Acetonitrile: InChIKey WEVYAHXRMPXWCK-UHFFFAOYSA-N
Kind: experiment
Temperature: 293 K
Tabular data in the source: 0
pressure (bar)	uptake (mol/mol)
0	0
0.001724	1.32624
0.001897	0.333333
0.003621	1.4539
0.003794	0.382979
0.005518	1.49645
0.00569	0.446809
0.007415	1.5461
0.007587	0.503546
0.009312	0.560284
0.013967	1.6383
0.018623	0.93617
0.027762	1.73759
0.037074	1.37589
0.037247	1.79433
0.046386	1.51773
0.055697	1.63121
0.05587	1.85816
0.065009	1.7234
0.074321	1.95035
0.078977	1.9078
0.080873	2.02128
0.081046	1.95035
0.08277	2.05674
0.083115	2.00709
0.084667	2.12057
0.084839	2.09929
0.086391	2.22695
