Adsorption isotherm of Ethanol on Pdpz
DOI: 10.1021/acs.inorgchem.5b02207
Article source: Figure 3a
Adsorbate Ethanol: InChIKey LFQSCWFLJHTTHZ-UHFFFAOYSA-N
Kind: experiment
Temperature: 293 K
Tabular data in the source: 0
pressure (bar)	uptake (mol/mol)
0	0
0.001181	1.02128
0.002255	0.553191
0.003437	1.17021
0.004618	0.64539
0.0058	0.680851
0.0087	1.29078
0.011599	0.801418
0.017292	0.879433
0.017507	1.36879
0.023092	0.943262
0.023199	1.41135
0.028891	1
0.028999	1.44681
0.034691	1.05674
0.040491	1.12057
0.040598	1.5461
0.046291	1.64539
0.04919	1.2695
0.050372	1.30496
0.051553	1.35461
0.052735	2.29078
0.053916	3.06383
