Adsorption isotherm of Methane on SAPO-37
DOI: 10.1021/ie500207s
Article source: Figure 2d
Adsorbate Methane: InChIKey VNWKTOKETHGBQD-UHFFFAOYSA-N
Kind: experiment
Temperature: 303 K
Tabular data in the source: 0
pressure (bar)	uptake (mol/m3)
0.325	67.6
0.602	186
0.771	220
0.982	296
1.52	456
1.3	363
2.02	616
4.95	1330
5.02	1370
7.96	2040
9.89	2330
