Adsorption isotherm of Carbon Dioxide on EMC-1
DOI: 10.1021/ie500207s
Article source: Figure 2b
Adsorbate Carbon Dioxide: InChIKey CURLTUGMZLYLDI-UHFFFAOYSA-N
Kind: experiment
Temperature: 303 K
Tabular data in the source: 0
pressure (bar)	uptake (mol/m3)
0.0296	251
0.159	2810
0.301	4080
0.55	5590
0.752	6290
0.978	6840
0.996	7610
1.3	7400
1.57	7760
2.05	8210
2.05	8780
4.94	9310
5.02	9870
9.89	9980
