Adsorption isotherm of Carbon Dioxide on Na-X
DOI: 10.1021/ie500207s
Article source: Figure 2a
Adsorbate Carbon Dioxide: InChIKey CURLTUGMZLYLDI-UHFFFAOYSA-N
Kind: experiment
Temperature: 303 K
Tabular data in the source: 0
pressure (bar)	uptake (mol/m3)
0.0232	1820
0.0704	3850
0.124	5370
0.22	6350
0.449	7410
0.768	8110
1.12	8530
2.05	9130
4.07	9740
6.09	10100
9.12	10400
