Adsorption isotherm of Methane on EMC-1
DOI: 10.1021/ie500207s
Article source: Figure 2b
Adsorbate Methane: InChIKey VNWKTOKETHGBQD-UHFFFAOYSA-N
Kind: experiment
Temperature: 303 K
Tabular data in the source: 0
pressure (bar)	uptake (mol/m3)
0.482	201
0.755	352
0.981	419
0.999	511
1.3	562
1.53	662
2	964
2.05	897
4.95	1970
5.02	2050
7.96	2910
9.89	3250
