Adsorption isotherm of Carbon Dioxide on SAPO-37
DOI: 10.1021/ie500207s
Article source: Figure 2d
Adsorbate Carbon Dioxide: InChIKey CURLTUGMZLYLDI-UHFFFAOYSA-N
Kind: experiment
Temperature: 303 K
Tabular data in the source: 0
pressure (bar)	uptake (mol/m3)
0.0241	152
0.12	996
0.295	1660
0.476	2130
0.699	2530
1	3010
0.994	3180
1.3	3410
1.52	3730
2.05	4210
2.1	4400
4.89	5770
5.02	5870
8.04	6530
9.89	6810
