Adsorption isotherm of Methane on Na-X
DOI: 10.1021/ie500207s
Article source: Figure 2a
Adsorbate Methane: InChIKey VNWKTOKETHGBQD-UHFFFAOYSA-N
Kind: experiment
Temperature: 303 K
Tabular data in the source: 0
pressure (bar)	uptake (mol/m3)
0.121	84.9
0.422	458
1	1020
2.09	1890
3.07	2520
4.09	3100
6.1	3880
8.14	4430
