Adsorption isotherm of Carbon Dioxide on NaUSY
DOI: 10.1021/ie500207s
Article source: Figure 2c
Adsorbate Carbon Dioxide: InChIKey CURLTUGMZLYLDI-UHFFFAOYSA-N
Kind: experiment
Temperature: 303 K
Tabular data in the source: 0
pressure (bar)	uptake (mol/m3)
0.0178	117
0.149	717
0.5	1520
0.75	1940
0.999	2290
1.01	2400
1.3	2710
1.52	2990
2.05	3580
4.9	5200
5.03	5240
8.05	6000
9.9	6310
