Adsorption isotherm of Methane on NaUSY
DOI: 10.1021/ie500207s
Article source: Figure 2c
Adsorbate Methane: InChIKey VNWKTOKETHGBQD-UHFFFAOYSA-N
Kind: experiment
Temperature: 303 K
Tabular data in the source: 0
pressure (bar)	uptake (mol/m3)
0.178	83.4
0.672	384
0.946	467
1.02	267
1.25	559
1.52	634
2	509
2.05	767
4.95	1330
5.03	1150
7.98	1680
9.97	2150
