Adsorption isotherm of Nitrogen on Mg2(dobdc)
DOI: 10.1039/C3ee42394h
Adsorbate Nitrogen: InChIKey IJGRMHOSHXDMSA-UHFFFAOYSA-N
Temperature: 298 K
Tabular data in the source: 0
pressure (bar)	uptake (mmol/g)
0.0548628	0.112676
0.0947631	0.180282
0.137157	0.225352
0.182045	0.292958
0.229426	0.315493
0.279302	0.383099
0.326683	0.428169
0.366584	0.473239
0.426434	0.51831
0.473815	0.585915
0.528678	0.630986
0.583541	0.676056
0.63591	0.721127
0.685786	0.743662
0.735661	0.811268
0.790524	0.833803
0.842893	0.856338
0.902743	0.946479
