Adsorption isotherm of Carbon Dioxide on 10wt%Mg2(dobdc)/Polyimide
DOI: 10.1039/C3ee42394h
Adsorbate Carbon Dioxide: InChIKey CURLTUGMZLYLDI-UHFFFAOYSA-N
Temperature: 298 K
Tabular data in the source: 0
pressure (bar)	uptake (mmol/g)
0.0474227	0.338667
0.0793922	0.460688
0.118259	0.582755
0.163815	0.6778
0.20587	0.766055
0.247822	0.840775
0.289774	0.915495
0.335071	0.976703
0.383816	1.03794
0.439561	1.11275
0.498652	1.17405
0.557794	1.24212
0.616884	1.30342
0.696717	1.37163
0.783603	1.46019
0.88073	1.53528
1.02279	1.62421
