Adsorption isotherm of Carbon Dioxide on 10wt%Mg2(dobdc)/XLPEO
DOI: 10.1039/C3ee42394h
Adsorbate Carbon Dioxide: InChIKey CURLTUGMZLYLDI-UHFFFAOYSA-N
Temperature: 298 K
Tabular data in the source: 0
pressure (bar)	uptake (mmol/g)
0.0589815	0.0152163
0.0902023	0.0228178
0.128303	0.0265316
0.166444	0.0341064
0.201125	0.0416945
0.239266	0.0492692
0.280907	0.0606915
0.319008	0.0644054
0.357189	0.075841
0.40575	0.0872365
0.461231	0.0986053
0.516753	0.113835
0.575694	0.12519
0.631215	0.14042
0.711078	0.167139
0.8012	0.182235
0.901862	0.212734
1.04751	0.24306
