Adsorption isotherm of Carbon Dioxide on PDMS
DOI: 10.1039/C3ee42394h
Adsorbate Carbon Dioxide: InChIKey CURLTUGMZLYLDI-UHFFFAOYSA-N
Temperature: 298 K
Tabular data in the source: 0
pressure (bar)	uptake (mmol/g)
0.0415392	0.0208629
0.0829228	0.021423
0.12091	0.028704
0.162293	0.0292641
0.203729	0.0365918
0.238267	0.0438262
0.279702	0.0511539
0.317689	0.0584349
0.355728	0.0724835
0.400612	0.0798579
0.455842	0.0873723
0.514572	0.101701
0.573303	0.11603
0.632033	0.130358
0.708007	0.14492
0.797775	0.159669
0.897941	0.181326
1.04299	0.210356
