Adsorption isotherm of Carbon Dioxide on Zn2(dobdc)
DOI: 10.1039/C3ee42394h
Adsorbate Carbon Dioxide: InChIKey CURLTUGMZLYLDI-UHFFFAOYSA-N
Temperature: 298 K
Tabular data in the source: 0
pressure (bar)	uptake (mmol/g)
0.0199501	0.247887
0.0523691	0.428169
0.0798005	0.676056
0.112219	0.946479
0.142145	1.19437
0.179551	1.46479
0.219451	1.71268
0.259352	1.91549
0.299252	2.18592
0.346633	2.38873
0.399002	2.65915
0.456359	2.92958
0.518703	3.15493
0.578554	3.38028
0.65586	3.5831
0.740648	3.85352
0.840399	4.10141
0.975062	4.4169
