Adsorption isotherm of Nitrogen on Ni2(dobdc)
DOI: 10.1039/C3ee42394h
Adsorbate Nitrogen: InChIKey IJGRMHOSHXDMSA-UHFFFAOYSA-N
Temperature: 298 K
Tabular data in the source: 0
pressure (bar)	uptake (mmol/g)
0.0498753	0.157746
0.0997506	0.180282
0.187032	0.202817
0.234414	0.202817
0.286783	0.180282
0.329177	0.247887
0.374065	0.247887
0.428928	0.270423
0.481297	0.270423
0.531172	0.292958
0.591022	0.338028
0.645885	0.338028
0.693267	0.360563
0.745636	0.383099
0.798005	0.383099
0.852868	0.383099
0.910224	0.405634
