Adsorption isotherm of Carbon Dioxide on Mg2(dobdc)
DOI: 10.1039/C3ee42394h
Adsorbate Carbon Dioxide: InChIKey CURLTUGMZLYLDI-UHFFFAOYSA-N
Temperature: 298 K
Tabular data in the source: 0
pressure (bar)	uptake (mmol/g)
0.00249377	0.56338
0.00498753	1.05915
0.00997506	1.66761
0.0174564	2.3662
0.032419	3.15493
0.0623441	3.9662
0.109726	4.59718
0.17207	5.09296
0.239401	5.43099
0.309227	5.72394
0.379052	5.99437
0.448878	6.19718
0.516209	6.37746
0.578554	6.55775
0.660848	6.76056
0.753117	6.94085
0.84788	7.14366
0.985037	7.41408
