Adsorption isotherm of Carbon Dioxide on Ni2(dobdc)
DOI: 10.1039/C3ee42394h
Adsorbate Carbon Dioxide: InChIKey CURLTUGMZLYLDI-UHFFFAOYSA-N
Temperature: 298 K
Tabular data in the source: 0
pressure (bar)	uptake (mmol/g)
0.0174564	0.360563
0.0274314	0.788732
0.0473815	1.23944
0.074813	1.78028
0.112219	2.23099
0.157107	2.56901
0.209476	2.88451
0.259352	3.08732
0.309227	3.29014
0.36409	3.47042
0.418953	3.67324
0.478803	3.78592
0.546135	3.9662
0.605985	4.10141
0.683292	4.23662
0.76808	4.39437
0.86783	4.59718
1.00249	4.8
