Adsorption isotherm of Carbon Dioxide on XLPEO
DOI: 10.1039/C3ee42394h
Adsorbate Carbon Dioxide: InChIKey CURLTUGMZLYLDI-UHFFFAOYSA-N
Temperature: 298 K
Tabular data in the source: 0
pressure (bar)	uptake (mmol/g)
0.0451011	0.0114089
0.0762818	0.0151495
0.114343	0.0150025
0.148943	0.0148689
0.187084	0.0224437
0.221725	0.0261709
0.266786	0.033719
0.304887	0.0374329
0.342988	0.0411468
0.391509	0.0486814
0.44699	0.0600502
0.498971	0.0675715
0.561333	0.0750528
0.613354	0.0864349
0.693056	0.0977102
0.779678	0.108959
0.87672	0.124028
1.01878	0.142785
