Adsorption isotherm of Carbon Dioxide on 20wt%Mg2(dobdc)/PDMS
DOI: 10.1039/C3ee42394h
Adsorbate Carbon Dioxide: InChIKey CURLTUGMZLYLDI-UHFFFAOYSA-N
Temperature: 298 K
Tabular data in the source: 0
pressure (bar)	uptake (mmol/g)
0.021729	0.135632
0.0636312	0.203869
0.105326	0.245034
0.150417	0.279479
0.195457	0.307157
0.233496	0.321205
0.275087	0.348836
0.313126	0.362884
0.358062	0.377026
0.399601	0.397889
0.458383	0.418986
0.51032	0.446756
0.576	0.467946
0.631281	0.482228
0.710859	0.517139
0.797231	0.538609
0.8975	0.573801
1.03921	0.61632
