Adsorption isotherm of Carbon Dioxide on Polyimide
DOI: 10.1039/C3ee42394h
Adsorbate Carbon Dioxide: InChIKey CURLTUGMZLYLDI-UHFFFAOYSA-N
Temperature: 298 K
Tabular data in the source: 0
pressure (bar)	uptake (mmol/g)
0.0460745	0.162718
0.0775254	0.217066
0.105476	0.264624
0.150773	0.325832
0.189069	0.37346
0.223916	0.421064
0.265661	0.468715
0.310854	0.516389
0.348994	0.543715
0.401136	0.598203
0.453277	0.652691
0.508764	0.693668
0.571251	0.748227
0.626737	0.789203
0.709915	0.843902
0.803594	0.918972
0.904014	0.973787
1.04597	1.04918
