Adsorption isotherm of Nitrogen on Zn2(dobdc)
DOI: 10.1039/C3ee42394h
Adsorbate Nitrogen: InChIKey IJGRMHOSHXDMSA-UHFFFAOYSA-N
Temperature: 298 K
Tabular data in the source: 0
pressure (bar)	uptake (mmol/g)
0.0548628	0.0901408
0.0997506	0.0901408
0.142145	0.112676
0.19202	0.135211
0.236908	0.135211
0.289277	0.135211
0.336658	0.157746
0.38404	0.180282
0.441397	0.180282
0.493766	0.202817
0.548628	0.247887
0.603491	0.225352
0.658354	0.247887
0.708229	0.270423
0.763092	0.270423
0.815461	0.315493
0.872818	0.315493
0.932668	0.338028
