Adsorption isotherm of Nitrogen on Pd(II)@0%-ETTA-BPyDC
DOI: 10.1002/smll.202003970
Article source: Figure S12
Adsorbate Nitrogen: InChIKey IJGRMHOSHXDMSA-UHFFFAOYSA-N
Kind: experiment
Temperature: 77 K
Tabular data in the source: 0
pressure (bar)	uptake (cm3(STP)/g)
-0.000911	38.732
-0.000478	53.3064
0.000879	70.6457
0.002241	85.9749
0.006871	96.0308
0.009637	107.592
0.012413	114.38
0.015658	119.911
0.0203	124.439
0.025871	129.722
0.030051	132.993
0.034695	136.767
0.038412	139.284
0.043989	141.802
0.048402	145.073
0.057934	147.345
0.070947	153.641
0.090009	159.692
0.110465	166.498
0.131852	173.054
0.15231	178.855
0.170908	184.403
0.192295	190.708
0.213219	196.258
0.231815	202.56
0.252275	207.858
0.275057	214.416
0.29365	222.225
0.310375	233.047
0.333133	250.912
0.352645	263.748
0.376816	273.573
0.394482	279.623
0.415877	282.661
0.435408	286.702
0.458202	288.108
0.475877	290.263
0.496811	291.542
0.516346	293.824
0.538208	296.109
0.55821	297.638
0.578676	299.921
0.599143	301.702
0.618679	303.733
0.640077	305.263
0.658215	308.298
0.677753	309.826
0.699149	312.111
0.721009	315.149
0.740544	317.683
0.759613	320.467
0.780543	323.505
0.801008	326.291
0.821007	329.327
0.841468	333.621
0.862394	338.417
0.88099	344.468
0.902846	349.265
0.923766	356.826
0.941884	368.906
0.961865	379.984
0.94415	395.795
0.927878	390.752
0.900909	383.688
0.881851	375.878
0.860469	367.061
0.841412	358.748
0.819559	352.443
0.799567	346.391
0.78097	340.592
0.758649	335.543
0.740977	332.257
0.719582	329.219
0.698187	326.432
0.678652	323.647
0.658188	320.862
0.638653	318.328
0.618651	316.297
0.59865	314.265
0.577719	311.981
0.558182	310.453
0.536785	308.169
0.515853	306.387
0.495851	304.858
0.476317	301.822
0.454457	298.532
0.434456	296.501
0.416316	294.22
0.394221	292.186
0.37492	289.15
0.354685	287.621
0.333521	285.337
0.314466	276.271
0.29451	253.886
0.284086	234.025
0.269439	230.491
0.253636	223.439
0.231319	216.63
0.212724	209.826
0.192731	204.025
0.170415	196.966
0.151817	191.418
0.131828	183.859
0.110905	177.806
0.091382	169.995
0.071393	162.687
0.050011	153.87
