Adsorption isotherm of Nitrogen on 0%-ETTA--BPyDC
DOI: 10.1002/smll.202003970
Article source: Figure S3
Adsorbate Nitrogen: InChIKey IJGRMHOSHXDMSA-UHFFFAOYSA-N
Kind: experiment
Temperature: 77 K
Tabular data in the source: 0
pressure (bar)	uptake (cm3(STP)/g)
0.007003	160.915
0.00921	170.075
0.015831	175.964
0.02002	181.199
0.025129	186.651
0.030749	189.832
0.034325	193.013
0.040456	196.193
0.043521	198.92
0.049652	201.192
0.056294	203.918
0.069577	210.052
0.091034	216.641
0.110959	221.639
0.133438	226.865
0.153363	231.863
0.172777	235.725
0.192702	241.86
0.212116	246.404
0.232552	251.175
0.251455	255.264
0.29437	268.214
0.312251	278.438
0.331154	290.479
0.353123	303.884
0.375091	311.154
0.395527	315.698
0.415962	320.696
0.438953	322.968
0.458111	325.468
0.477781	327.058
0.495662	329.33
0.517375	331.375
0.538577	332.738
0.559524	335.237
0.578682	337.509
0.598351	338.872
0.618787	341.371
0.639734	342.962
0.661702	345.006
0.679583	347.051
0.701041	349.096
0.719944	352.049
0.74038	353.867
0.759027	356.593
0.780229	360.228
0.801687	363.636
0.822123	367.726
0.841537	370.907
0.860951	376.814
0.882408	382.039
0.902333	387.265
0.919703	393.853
0.942694	405.213
0.965173	415.21
0.947802	428.16
0.927878	431.341
0.902333	427.251
0.881386	420.662
0.86044	414.755
0.842048	406.349
0.820079	398.397
0.802709	390.445
0.779719	382.948
0.760816	377.95
0.740891	371.361
0.718667	365.908
0.699508	363.182
0.679583	359.092
0.659148	355.912
0.638712	352.958
0.61751	350.573
0.598607	347.733
0.578171	345.915
0.55748	343.416
0.537555	341.598
0.51763	339.554
0.495662	337.963
0.477781	335.919
0.456323	332.738
0.436398	330.239
0.415962	328.194
0.395016	326.149
0.37458	323.877
0.355166	321.832
0.33473	319.333
0.315316	312.972
0.295903	294.569
0.284663	278.893
0.270358	275.485
0.254009	268.896
0.232041	262.307
0.212882	256.059
0.19168	250.039
0.173288	244.132
0.151831	238.793
0.132417	233.567
0.112492	228.001
0.092056	221.867
0.071109	215.278
0.051185	207.78
