Adsorption isotherm of Nitrogen on Pd(II)@75%-ETTA-BPyDC
DOI: 10.1002/smll.202003970
Article source: Figure S12
Adsorbate Nitrogen: InChIKey IJGRMHOSHXDMSA-UHFFFAOYSA-N
Kind: experiment
Temperature: 77 K
Tabular data in the source: 0
pressure (bar)	uptake (cm3(STP)/g)
0.000991	19.147
0.000518	23.4235
0.002354	32.7328
0.002344	37.5127
0.003721	44.8092
0.009276	52.3594
0.014375	56.1358
0.019474	60.1637
0.02643	63.9411
0.031535	65.4532
0.036637	67.9717
0.043133	70.2394
0.050556	72.7591
0.056125	74.2715
0.070976	77.8015
0.090935	81.0827
0.111358	84.3641
0.131782	87.6454
0.152205	91.1784
0.171236	94.2075
0.193981	97.2385
0.213011	101.022
0.232737	104.303
0.252	107.836
0.272884	112.375
0.293768	117.418
0.312798	121.202
0.332526	123.98
0.354111	126.758
0.375932	128.028
0.395897	128.793
0.416091	130.439
0.435127	131.582
0.45625	133.102
0.476678	134.623
0.496176	136.394
0.517532	137.663
0.537031	139.435
0.55746	140.2
0.577887	141.721
0.597386	142.989
0.61735	144.258
0.637777	145.778
0.658204	147.298
0.67956	148.819
0.699059	150.339
0.719023	151.356
0.738056	153.379
0.758483	155.402
0.779837	157.426
0.800263	159.701
0.819295	162.479
0.840185	164.503
0.860143	168.287
0.881494	172.324
0.901451	176.359
0.920941	181.905
0.94275	188.457
0.961302	198.027
0.941782	206.067
0.924614	200.523
0.900015	195.73
0.881915	191.444
0.860107	184.639
0.83876	178.842
0.819266	175.309
0.799308	171.525
0.77935	167.992
0.759391	164.46
0.738965	162.436
0.718538	160.664
0.699041	158.39
0.680006	157.373
0.659579	155.35
0.638687	154.332
0.617332	152.057
0.597834	150.537
0.577406	149.016
0.556513	148.25
0.537014	146.731
0.517514	145.965
0.496623	144.193
0.476195	142.924
0.456231	141.907
0.435342	139.381
0.413986	137.86
0.395414	137.095
0.373129	135.825
0.354558	134.557
0.334131	132.786
0.314169	131.014
0.291888	127.731
0.273321	124.703
0.253366	119.66
0.233412	114.115
0.21299	110.331
0.192569	106.043
0.172146	102.51
0.152185	99.9836
0.133156	96.1998
0.111339	92.9176
0.091845	89.6367
0.071887	85.6009
0.051469	80.0553
