Adsorption isotherm of Nitrogen on Pd(II)@50%-ETTA-BPyDC
DOI: 10.1002/smll.202003970
Article source: Figure S12
Adsorbate Nitrogen: InChIKey IJGRMHOSHXDMSA-UHFFFAOYSA-N
Kind: experiment
Temperature: 77 K
Tabular data in the source: 0
pressure (bar)	uptake (cm3(STP)/g)
0.001273	43.1374
0.005251	57.9926
0.008573	67.5945
0.013908	74.2993
0.01791	78.4676
0.023251	82.2742
0.028701	86.8357
0.034267	89.8576
0.040296	92.8797
0.045399	95.1466
0.052823	97.4148
0.070224	102.959
0.090875	108.001
0.110831	112.54
0.133109	117.081
0.151674	120.864
0.17163	125.655
0.192516	129.943
0.211312	133.978
0.232893	139.021
0.253079	144.441
0.272801	149.86
0.292289	156.16
0.313869	161.706
0.332666	165.49
0.354483	168.269
0.373516	170.291
0.394175	172.063
0.414601	174.339
0.435726	175.356
0.455224	177.379
0.476113	179.906
0.495612	181.174
0.516735	182.947
0.537394	184.719
0.556429	186.238
0.576856	187.884
0.597746	190.286
0.618868	192.309
0.636742	193.577
0.659025	196.105
0.67945	198.38
0.698947	200.654
0.718908	203.181
0.739334	205.204
0.758831	207.479
0.779719	210.635
0.799679	213.79
0.818941	217.197
0.839596	220.855
0.860016	225.395
0.880899	230.94
0.900386	237.743
0.92034	243.54
0.940746	254.369
0.961617	265.198
0.942785	277.138
0.924462	268.952
0.898475	261.894
0.881313	253.583
0.859041	246.527
0.840018	239.724
0.819138	232.92
0.800112	227.627
0.779228	222.836
0.758803	220.058
0.739309	216.525
0.717491	214.249
0.697994	211.723
0.678963	208.694
0.658073	206.67
0.63811	205.15
0.618148	203.127
0.59865	201.104
0.577295	199.331
0.556869	197.056
0.535977	195.787
0.516943	194.016
0.495123	192.495
0.475161	190.22
0.455666	187.442
0.433846	185.67
0.414347	184.15
0.394153	182.378
0.373959	180.355
0.353996	178.583
0.333105	176.811
0.313143	175.039
0.293185	171.003
0.271837	165.709
0.25235	159.283
0.232861	153.109
0.212909	146.683
0.193416	142.522
0.172533	137.228
0.151184	132.688
0.131692	128.149
0.111271	123.861
0.092244	118.82
0.070896	113.777
0.050017	106.47
