Adsorption isotherm of Nitrogen on Recycle Pd(II)@Py-2,2Â´-BPyPh (C-OMe)
DOI: 10.1002/smll.202003970
Article source: Figure S28
Adsorbate Nitrogen: InChIKey IJGRMHOSHXDMSA-UHFFFAOYSA-N
Kind: experiment
Temperature: 77 K
Tabular data in the source: 0
pressure (bar)	uptake (cm3(STP)/g)
-0.000748	22.1248
-0.001945	40.8801
0.000209	60.7043
0.000135	78.387
0.003413	96.6029
0.004466	112.141
0.006655	123.392
0.009972	132.499
0.013283	142.677
0.018845	149.639
0.022168	157.138
0.028851	163.027
0.032177	169.99
0.036622	176.416
0.03995	182.844
0.044395	189.27
0.049959	195.696
0.067515	208.497
0.092335	214.804
0.110951	219.254
0.130349	222.216
0.152079	224.804
0.172257	227.02
0.191659	229.238
0.211835	231.826
0.232013	234.043
0.252973	235.143
0.271603	236.245
0.293337	237.716
0.311967	238.817
0.332147	240.662
0.353107	241.39
0.37484	243.233
0.394247	244.334
0.415982	245.433
0.437718	246.532
0.457901	247.633
0.474201	248.736
0.495159	250.208
0.515345	250.564
0.535528	251.665
0.55649	252.02
0.577448	253.492
0.5953	254.966
0.616261	255.694
0.637995	257.165
0.657406	257.15
0.678361	259.366
0.69932	260.466
0.717172	261.94
0.737358	262.297
0.759092	263.768
0.780048	265.612
0.798676	267.272
0.820408	269.301
0.839808	271.89
0.859985	274.479
0.880161	277.068
0.900333	280.773
0.921282	284.478
0.940673	289.3
0.960832	295.982
0.944515	298.972
0.924341	295.639
0.902618	291.563
0.879337	288.604
0.860718	284.898
0.840541	282.309
0.818815	278.977
0.798632	277.877
0.780007	275.659
0.756721	273.817
0.737318	271.971
0.717132	271.615
0.697725	270.514
0.676768	269.042
0.657363	267.569
0.636402	266.842
0.618548	265.739
0.596033	265.385
0.574294	265.03
0.55722	263.183
0.536259	262.455
0.515297	262.1
0.49667	260.254
0.475714	258.41
0.454756	256.938
0.43535	255.837
0.412835	255.483
0.392652	254.382
0.373245	253.281
0.353059	252.925
0.335981	252.194
0.315025	250.35
0.293289	249.251
0.273879	248.894
0.2537	247.05
0.234295	245.577
0.212559	244.478
0.1916	243.378
0.171032	241.533
0.149689	239.318
0.129511	237.101
0.110885	234.883
0.089931	232.667
0.070544	226.728
0.051191	212.976
