Adsorption isotherm of Nitrogen on Py2,2'-BPyh COF
DOI: 10.1002/smll.202003970
Article source: Figure 3
Adsorbate Nitrogen: InChIKey IJGRMHOSHXDMSA-UHFFFAOYSA-N
Kind: experiment
Temperature: 77 K
Tabular data in the source: 0
pressure (bar)	uptake (cm3(STP)/g)
0.000924	99.6371
0.000314	115.449
0.000924	133.368
8e-06	151.815
0.001534	165.519
0.000924	183.965
-0.000907	203.993
0.001534	220.332
0.002755	240.36
0.002144	258.807
0.002755	274.091
0.003365	292.538
0.005196	308.877
0.007027	323.107
0.009468	338.392
0.015571	351.041
0.019844	365.272
0.023506	376.34
0.03144	386.354
0.036932	395.314
0.043036	405.855
0.047308	414.815
0.053411	422.193
0.068669	438.005
0.082096	458.033
0.092471	471.209
0.100405	491.764
0.10956	508.103
0.116884	529.712
0.122682	557.119
0.125428	576.62
0.141907	621.419
0.151672	633.541
0.169981	640.92
0.19714	648.826
0.218806	655.15
0.237726	657.259
0.256341	660.948
0.274955	663.056
0.293265	666.219
0.314016	668.854
0.334766	670.962
0.354907	674.124
0.377488	676.76
0.396408	678.868
0.417159	680.449
0.436689	682.557
0.455609	685.72
0.47636	687.301
0.4965	689.936
0.51664	690.463
0.538612	691.517
0.557226	693.098
0.578893	694.943
0.599643	696.261
0.617953	698.896
0.638093	699.95
0.659454	700.477
0.678374	704.693
0.698514	705.747
0.721096	707.856
0.740016	709.437
0.760767	711.018
0.780907	712.599
0.800437	714.707
0.821798	716.816
0.842244	718.924
0.862079	722.613
0.88283	724.721
0.901749	727.357
0.92311	731.046
0.942641	733.681
0.962781	738.952
0.942641	744.749
0.9225	742.641
0.901749	740.533
0.88283	737.107
0.862689	737.371
0.840718	734.208
0.820577	729.992
0.801658	726.303
0.780297	726.303
0.760156	722.613
0.740626	720.505
0.719265	718.924
0.699125	716.816
0.678984	713.653
0.658844	713.126
0.638093	709.964
0.616732	707.856
0.598423	706.802
0.578893	705.22
0.558142	704.166
0.537391	702.058
0.514809	699.95
0.49711	697.842
0.475749	696.788
0.454999	693.625
0.434248	692.571
0.414718	689.409
0.393967	688.355
0.374437	685.192
0.354296	682.557
0.334766	680.976
0.313405	679.395
0.293265	676.76
0.273735	673.07
0.253594	669.381
0.232233	665.692
0.213314	663.056
0.189511	658.84
0.170592	653.042
0.152282	647.245
0.1297	634.068
0.117494	599.81
0.115663	581.363
0.112612	559.227
0.106508	538.145
0.102236	514.427
0.096133	498.616
0.091251	487.548
0.081485	471.736
0.072331	452.762
0.059514	432.734
0.05097	422.72
0.046087	414.287
0.042425	404.801
0.037543	395.841
