Adsorption isotherm of Nitrogen on 25%-ETTA--BPyDC
DOI: 10.1002/smll.202003970
Article source: Figure S3
Adsorbate Nitrogen: InChIKey IJGRMHOSHXDMSA-UHFFFAOYSA-N
Kind: experiment
Temperature: 77 K
Tabular data in the source: 0
pressure (bar)	uptake (cm3(STP)/g)
0.000504	127.217
0.003569	139.758
0.004182	152.845
0.007554	161.842
0.01767	176.564
0.020735	181.471
0.025027	184.743
0.030545	187.197
0.036675	190.468
0.042193	193.195
0.047097	195.103
0.055067	198.102
0.072233	203.827
0.091239	209.825
0.11147	215.005
0.131088	219.367
0.152546	224.82
0.172777	230.273
0.192396	233.817
0.21324	239.27
0.232245	244.177
0.253703	249.63
0.274547	255.355
0.294166	262.716
0.312558	273.076
0.332176	285.618
0.353633	293.797
0.374478	299.522
0.396549	304.157
0.416167	306.883
0.436398	308.519
0.456017	309.882
0.4787	311.518
0.495253	312.881
0.517324	314.517
0.538168	315.607
0.5584	316.698
0.576792	317.516
0.597636	319.424
0.618481	320.515
0.636873	321.06
0.66017	323.514
0.679788	324.741
0.701245	325.695
0.720251	327.876
0.739869	328.966
0.7601	331.147
0.780945	332.783
0.799643	334.419
0.821714	336.6
0.841639	339.326
0.863096	342.871
0.884554	345.597
0.903559	349.687
0.923177	354.049
0.943409	360.047
0.96364	366.726
0.94157	374.496
0.926856	373.133
0.901413	368.226
0.880024	364.318
0.860014	360.342
0.840855	354.851
0.820845	350.497
0.801261	346.9
0.7804	343.492
0.759964	340.841
0.739954	338.001
0.719518	335.729
0.698657	333.457
0.678647	331.753
0.65736	329.86
0.639053	328.724
0.618191	327.02
0.596904	326.073
0.578597	324.559
0.558161	323.612
0.538577	321.908
0.517715	320.583
0.496428	320.015
0.47727	317.932
0.456408	316.228
0.435121	314.903
0.415962	313.578
0.395527	312.82
0.375943	310.738
0.354655	308.844
0.335071	307.519
0.315061	304.49
0.296754	294.266
0.273977	276.09
0.261843	260.944
0.250561	259.051
0.233318	253.56
0.212031	248.259
0.193724	242.958
0.172437	237.278
0.152852	232.355
0.131139	227.054
0.111981	221.564
0.090694	216.073
0.071535	209.636
0.051099	203.199
0.050674	198.087
