Adsorption isotherm of Nitrogen on Pd(II)@Py-2,2'-BPyPh COF
DOI: 10.1002/smll.202003970
Article source: Figure 3
Adsorbate Nitrogen: InChIKey IJGRMHOSHXDMSA-UHFFFAOYSA-N
Kind: experiment
Temperature: 77 K
Tabular data in the source: 0
pressure (bar)	uptake (cm3(STP)/g)
-0.001387	20.0179
-0.000869	41.2185
-0.000359	57.5267
0.000154	75.4658
0.00018	92.2398
-3.5e-05	110.878
0.000719	127.535
0.003654	140.233
0.006103	153.047
0.010975	161.902
0.014389	170.29
0.017801	177.047
0.021698	183.338
0.02608	189.164
0.030463	195.455
0.033873	201.281
0.037282	206.407
0.041179	212.349
0.046048	218.99
0.050431	225.514
0.056273	232.971
0.056284	240.31
0.068696	254.059
0.085731	272.585
0.094726	275.849
0.113685	281.446
0.133126	284.247
0.154027	288.214
0.173954	290.782
0.192423	293.35
0.214292	295.22
0.233246	297.322
0.252687	299.891
0.273584	301.527
0.294966	302.698
0.313433	303.868
0.334815	305.039
0.353768	305.977
0.375151	307.614
0.394589	308.784
0.415971	309.256
0.435896	310.66
0.457279	312.53
0.477201	312.302
0.497612	313.24
0.517535	313.712
0.538917	314.883
0.55787	316.053
0.57828	316.525
0.597717	316.763
0.618127	317.701
0.638536	318.173
0.657975	319.576
0.679357	320.281
0.698796	321.918
0.719449	322.506
0.740588	323.327
0.759054	324.497
0.780922	325.203
0.799146	326.373
0.8198	327.776
0.841182	329.18
0.861594	330.817
0.882492	333.386
0.903875	335.256
0.921617	338.755
0.942275	342.955
0.96269	346.921
0.948606	352.042
0.927705	348.309
0.905833	344.575
0.881048	342.704
0.861121	339.67
0.840709	337.334
0.820783	335.698
0.801344	333.828
0.779475	332.191
0.75955	331.021
0.740111	329.384
0.719701	328.68
0.69929	327.043
0.679366	326.105
0.658469	324.702
0.638545	323.997
0.618621	323.292
0.59821	321.889
0.5778	320.951
0.557391	320.246
0.537954	320.241
0.517543	318.837
0.497133	318.365
0.477695	317.428
0.455825	315.092
0.434928	313.688
0.415489	312.285
0.393622	311.579
0.373697	310.176
0.353772	308.772
0.334333	307.602
0.314409	306.664
0.293998	305.261
0.273102	304.09
0.253177	302.919
0.232765	300.817
0.213326	299.18
0.192428	296.845
0.172502	294.975
0.151604	292.872
0.132648	289.139
0.111262	285.406
0.091818	281.207
0.069933	268.62
0.066512	255.805
0.053855	240.426
0.048496	231.338
0.048001	225.281
0.045077	219.689
0.041179	212.931
0.038254	206.174
0.033386	200.349
0.028518	194.989
0.024622	188.93
0.021212	183.571
0.016342	176.58
0.01293	169.59
0.009517	161.668
0.006831	152.815
0.002683	141.165
0.000475	127.069
0.000692	109.946
0.001152	92.473
-0.000817	75.6985
-0.000357	58.4586
-0.001358	39.3546
-0.001385	21.4157
