Adsorption isotherm of Nitrogen on Pd(II)@100%-ETTA-BPyDC
DOI: 10.1002/smll.202003970
Article source: Figure S12
Adsorbate Nitrogen: InChIKey IJGRMHOSHXDMSA-UHFFFAOYSA-N
Kind: experiment
Temperature: 77 K
Tabular data in the source: 0
pressure (bar)	uptake (cm3(STP)/g)
0.000534	15.8762
0.00052	22.1656
0.001898	28.9589
0.006065	34.4958
0.010235	38.7748
0.01464	41.5445
0.018581	43.8108
0.022757	45.5741
0.028788	47.8415
0.034357	49.3539
0.038532	51.1172
0.043636	52.6293
0.052919	54.3953
0.071022	57.1723
0.091909	60.454
0.110707	63.9861
0.131364	66.7644
0.151787	70.0458
0.172674	73.8306
0.191705	76.7339
0.212127	80.6442
0.232781	84.6805
0.253434	88.9683
0.273388	94.7652
0.293344	99.5558
0.312841	101.83
0.33559	103.352
0.354626	103.865
0.375055	104.882
0.394786	106.151
0.415911	106.917
0.43541	108.437
0.456304	108.951
0.476733	109.717
0.496	110.985
0.516661	111.751
0.537323	112.265
0.557053	114.288
0.577947	114.551
0.597447	115.567
0.616947	116.333
0.63784	117.35
0.657805	118.115
0.67684	119.383
0.698198	119.898
0.717234	120.663
0.739055	121.932
0.758555	122.949
0.779445	124.973
0.800569	126.242
0.819372	127.761
0.839798	129.533
0.859297	131.053
0.879258	133.58
0.901309	135.604
0.921963	139.892
0.942383	144.431
0.961874	149.473
0.943291	153.74
0.926123	148.196
0.906167	143.406
0.88017	140.876
0.860677	136.84
0.839323	134.565
0.819825	132.793
0.800326	131.525
0.779899	129.501
0.759473	127.73
0.737651	126.712
0.719082	124.941
0.699117	124.175
0.676832	122.654
0.657332	121.889
0.637832	121.124
0.618797	119.856
0.59651	119.341
0.577011	117.821
0.55751	117.307
0.535688	116.541
0.515725	115.272
0.496225	114.255
0.474867	113.741
0.456296	112.473
0.434474	111.707
0.415439	110.69
0.394082	109.421
0.373653	108.907
0.35276	107.889
0.334188	107.125
0.313297	105.604
0.293332	104.587
0.272442	102.312
0.253418	96.264
0.233002	89.7121
0.212581	85.4244
0.192624	81.1369
0.171738	77.1006
0.151778	74.071
0.131354	71.0412
0.111396	67.5085
0.091903	63.4729
0.071015	59.9397
0.050595	55.4004
