Adsorption isotherm of Nitrogen on 75%-ETTA--BPyDC
DOI: 10.1002/smll.202003970
Article source: Figure S3
Adsorbate Nitrogen: InChIKey IJGRMHOSHXDMSA-UHFFFAOYSA-N
Kind: experiment
Temperature: 77 K
Tabular data in the source: 0
pressure (bar)	uptake (cm3(STP)/g)
0.001117	122.809
0.001628	135.76
0.004182	145.983
0.006737	154.162
0.00827	161.205
0.012357	166.658
0.016444	170.975
0.019509	173.474
0.022575	176.655
0.026662	180.517
0.032282	182.562
0.03688	185.288
0.041989	187.56
0.047097	189.378
0.052717	191.877
0.071109	196.648
0.093589	201.873
0.111981	207.099
0.131906	211.416
0.152852	215.959
0.172777	219.822
0.19168	224.366
0.212627	229.137
0.233574	233.908
0.253498	239.361
0.273679	245.495
0.29437	253.219
0.312762	266.624
0.332687	281.619
0.349035	292.297
0.377135	293.887
0.395782	295.137
0.415962	296.614
0.436398	297.75
0.455812	299.794
0.478291	300.703
0.497195	301.839
0.518652	303.202
0.537555	304.338
0.55748	305.474
0.578427	306.838
0.598862	307.974
0.620064	309.45
0.638712	310.927
0.658126	311.381
0.678051	312.517
0.700019	314.335
0.719944	315.471
0.74038	317.061
0.760816	318.879
0.78074	320.469
0.801176	323.196
0.821612	324.559
0.842558	327.512
0.861461	330.466
0.882919	333.647
0.902844	337.509
0.924301	342.962
0.942694	348.869
0.96364	358.411
0.947802	364.772
0.927367	355.23
0.91204	348.414
0.882919	344.779
0.861461	339.099
0.841026	335.691
0.822634	332.738
0.801176	329.784
0.780229	327.74
0.760305	325.24
0.739358	323.196
0.719433	321.832
0.701041	320.696
0.681627	318.879
0.658637	317.97
0.638967	316.38
0.618787	315.244
0.597841	314.335
0.577405	312.972
0.55748	311.609
0.537555	310.245
0.516608	309.337
0.495662	308.201
0.47727	306.383
0.456323	305.02
0.435887	303.657
0.414941	302.294
0.395016	300.703
0.374069	299.567
0.357721	297.523
0.333198	295.478
0.315316	291.161
0.296924	274.121
0.286706	258.899
0.272912	254.583
0.251455	247.994
0.232552	241.86
0.213138	237.089
0.193213	232.318
0.172777	227.319
0.154385	222.775
0.132417	218.004
0.110959	212.779
0.089502	207.326
0.071109	202.101
