Adsorption isotherm of Nitrogen on 100%-ETTA--BPyDC
DOI: 10.1002/smll.202003970
Article source: Figure S3
Adsorbate Nitrogen: InChIKey IJGRMHOSHXDMSA-UHFFFAOYSA-N
Kind: experiment
Temperature: 77 K
Tabular data in the source: 0
pressure (bar)	uptake (cm3(STP)/g)
0.001628	94.41
0.00265	108.269
0.005715	117.584
0.009291	124.173
0.012868	127.353
0.016955	130.988
0.023085	133.033
0.028705	135.532
0.033814	137.123
0.038923	138.94
0.044543	140.758
0.051185	142.575
0.07162	146.211
0.093078	149.618
0.112492	152.799
0.131906	155.526
0.152342	158.252
0.171755	160.751
0.193213	163.477
0.215181	166.658
0.232552	169.384
0.253498	173.474
0.273934	176.655
0.292837	180.517
0.314295	184.607
0.333709	187.106
0.356188	188.242
0.374069	190.059
0.395527	190.741
0.415452	192.331
0.436398	193.013
0.455301	194.376
0.476759	195.285
0.495662	196.875
0.518141	197.784
0.537555	198.693
0.556458	200.056
0.577405	201.419
0.600395	202.782
0.618787	204.145
0.639223	204.827
0.659148	205.963
0.680605	207.326
0.700019	209.144
0.720455	210.734
0.739358	211.87
0.759794	213.688
0.781762	215.505
0.799133	216.868
0.819568	219.367
0.840515	222.321
0.862483	225.047
0.88343	228.682
0.902844	233.454
0.922769	237.543
0.943204	243.223
0.96364	250.493
0.944737	258.672
0.926856	252.765
0.901311	248.448
0.882408	243.904
0.86044	239.133
0.842558	233.681
0.819568	229.818
0.802198	226.638
0.780229	223.684
0.760305	221.639
0.739869	219.367
0.719944	218.004
0.70053	216.414
0.680094	215.051
0.659148	213.233
0.639734	212.324
0.618276	210.961
0.598862	209.598
0.578427	208.008
0.557991	207.553
0.538577	206.417
0.517119	205.054
0.495662	203.691
0.476248	202.782
0.456323	201.419
0.435887	199.374
0.41443	198.238
0.393994	197.557
0.375602	196.648
0.355166	195.058
0.33473	193.922
0.315316	192.786
0.29437	190.059
0.272657	186.878
0.253498	182.789
0.233063	178.699
0.213138	174.383
0.193213	171.202
0.173799	168.248
0.153363	165.749
0.133438	163.023
0.113514	159.615
0.091034	157.116
0.073153	153.026
0.050674	148.71
