Adsorption isotherm of Nitrogen on Pd(II)@25%-ETTA-BPyDC
DOI: 10.1002/smll.202003970
Article source: Figure S12
Adsorbate Nitrogen: InChIKey IJGRMHOSHXDMSA-UHFFFAOYSA-N
Kind: experiment
Temperature: 77 K
Tabular data in the source: 0
pressure (bar)	uptake (cm3(STP)/g)
2.3e-05	36.9741
-1.4e-05	53.5581
0.003672	70.1461
0.007369	81.2061
0.011071	90.2559
0.015243	97.2961
0.01942	101.572
0.024994	105.599
0.0315	109.123
0.036609	112.898
0.044048	115.167
0.048228	118.438
0.055666	121.21
0.070082	124.241
0.092398	131.552
0.110067	136.345
0.131925	140.388
0.152152	145.31
0.17145	149.979
0.19377	155.279
0.212835	159.823
0.23097	164.114
0.251895	169.161
0.272355	174.46
0.293741	181.267
0.313726	190.837
0.331846	201.912
0.353695	209.976
0.375547	216.282
0.396013	218.565
0.415549	220.847
0.435087	221.873
0.456948	224.409
0.476951	225.938
0.496024	226.964
0.517421	228.745
0.538354	230.275
0.557427	231.301
0.578825	232.831
0.597899	233.605
0.619296	235.387
0.639298	237.167
0.659768	237.943
0.679771	239.221
0.701168	241.002
0.719775	242.279
0.741173	243.809
0.760244	245.84
0.78071	248.374
0.802572	250.408
0.82071	253.442
0.84164	256.48
0.861176	258.26
0.881638	262.302
0.90303	266.848
0.921162	272.395
0.963006	285.255
0.949961	293.533
0.927171	290.242
0.901591	286.194
0.881594	282.152
0.861134	277.105
0.842071	271.557
0.820679	267.262
0.801147	263.472
0.780219	259.932
0.758824	256.894
0.740684	254.613
0.720218	252.33
0.699752	250.298
0.680215	248.77
0.659749	246.235
0.639746	244.957
0.618346	244.181
0.598345	242.4
0.578342	241.123
0.556012	240.094
0.539266	238.568
0.517402	237.54
0.496934	236.01
0.47693	235.235
0.455999	232.951
0.435067	231.17
0.416459	230.145
0.395062	227.861
0.375525	226.584
0.354126	225.053
0.335056	222.772
0.314126	220.236
0.294144	209.41
0.274172	194.061
0.252328	183.736
0.234198	177.435
0.213738	172.136
0.192815	166.083
0.17189	161.287
0.152361	155.989
0.131438	150.188
0.111444	144.889
0.091451	139.089
0.071458	133.037
0.04961	124.973
