Adsorption isotherm of Nitrogen on 50%-ETTA--BPyDC
DOI: 10.1002/smll.202003970
Article source: Figure S3
Adsorbate Nitrogen: InChIKey IJGRMHOSHXDMSA-UHFFFAOYSA-N
Kind: experiment
Temperature: 77 K
Tabular data in the source: 0
pressure (bar)	uptake (cm3(STP)/g)
-0.000416	96.682
0.001117	111.904
0.002139	124.854
0.001883	138.259
0.004949	149.391
0.006226	158.252
0.009291	164.159
0.012357	169.839
0.016444	174.156
0.02002	178.245
0.022575	180.971
0.025129	183.471
0.030238	185.743
0.034836	188.242
0.038412	190.286
0.041989	191.65
0.044543	193.694
0.047608	194.376
0.052206	196.193
0.071109	202.101
0.091545	207.78
0.11147	213.233
0.13446	218.004
0.152852	222.775
0.171755	227.546
0.192191	231.636
0.213649	237.089
0.233063	241.633
0.252987	247.994
0.275467	253.447
0.294625	262.08
0.31174	276.166
0.333709	291.388
0.349291	303.543
0.378156	305.02
0.396549	306.156
0.415707	307.292
0.435887	308.201
0.455812	310.473
0.477781	311.381
0.495151	313.199
0.516608	313.653
0.537044	315.244
0.558502	316.38
0.579448	318.197
0.599373	319.56
0.618787	320.696
0.639478	321.492
0.661191	323.423
0.679073	324.786
0.698997	326.376
0.720455	327.512
0.740891	329.103
0.759794	331.147
0.78074	332.283
0.800154	334.555
0.821101	337.282
0.842048	339.781
0.861461	342.507
0.884963	346.597
0.902844	350.232
0.92379	355.685
0.942183	362.387
0.964151	372.043
0.948313	379.086
0.927878	369.089
0.908464	361.819
0.882664	358.297
0.860951	351.822
0.840515	347.96
0.821612	345.461
0.801687	342.053
0.781762	340.008
0.761326	338.19
0.74038	336.146
0.721477	334.555
0.698487	333.192
0.679073	331.602
0.659148	329.557
0.639734	328.648
0.618276	327.285
0.598862	325.922
0.577405	324.332
0.55748	323.423
0.538577	321.605
0.51763	320.924
0.497705	319.56
0.477781	317.516
0.457345	315.471
0.437165	314.789
0.414941	312.972
0.396038	312.29
0.373047	310.7
0.354655	308.655
0.335752	306.383
0.314295	302.521
0.296413	295.251
0.295903	283.891
0.286196	267.306
0.272401	262.762
0.25452	256.173
0.233574	249.812
0.21467	244.359
0.194235	238.225
0.173288	234.362
0.153363	229.364
0.131395	224.139
0.111981	218.686
0.090013	213.233
0.072131	207.326
0.051696	200.283
