Adsorption isotherm of Nitrogen on Recycle Pd(II)@Py-2,2Â´-BPyPh (C-Br)
DOI: 10.1002/smll.202003970
Article source: Figure S28
Adsorbate Nitrogen: InChIKey IJGRMHOSHXDMSA-UHFFFAOYSA-N
Kind: experiment
Temperature: 77 K
Tabular data in the source: 0
pressure (bar)	uptake (cm3(STP)/g)
0.000687	20.846
0.000687	39.7817
0.001604	54.7534
0.00252	69.7251
0.004354	83.8154
0.007104	93.9417
0.009853	102.747
0.011687	109.351
0.015353	114.192
0.018103	118.153
0.023145	122.993
0.029103	128.713
0.032769	134.435
0.037352	138.909
0.041553	142.759
0.046519	147.709
0.050338	151.376
0.053393	153.942
0.070198	163.103
0.093114	170.425
0.112974	174.079
0.132834	176.632
0.151931	179.186
0.172555	181.372
0.190887	183.927
0.212275	185.011
0.231372	187.565
0.25276	188.649
0.273384	190.101
0.29248	191.921
0.314632	193.739
0.333728	194.458
0.357408	195.173
0.373831	196.628
0.396365	197.712
0.415461	199.165
0.435321	199.883
0.457091	201.334
0.476187	202.604
0.497194	203.872
0.515526	204.958
0.534622	205.31
0.556774	206.394
0.574343	207.481
0.595731	208.932
0.616355	210.751
0.637743	211.469
0.658367	212.553
0.677464	213.639
0.698088	215.091
0.717948	216.544
0.738954	218.729
0.757286	220.183
0.780202	222
0.798917	223.453
0.818777	225.639
0.840929	228.558
0.860025	231.479
0.879885	235.5
0.902037	239.153
0.922661	245.008
0.940994	251.599
0.961618	260.941
0.945577	264.44
0.925717	256.382
0.90662	250.158
0.879885	245.408
0.860025	241.02
0.840165	237.733
0.820305	235.547
0.800444	232.626
0.77982	230.073
0.758432	228.989
0.737044	226.804
0.717184	226.086
0.698088	225
0.678991	223.18
0.656076	222.096
0.637743	221.377
0.617119	220.659
0.596495	219.207
0.575871	218.856
0.55601	217.771
0.53615	217.052
0.517054	215.599
0.495666	214.882
0.477333	214.529
0.4548	211.978
0.435321	211.259
0.415461	210.174
0.393309	208.723
0.371157	208.006
0.353589	207.286
0.333728	206.935
0.314632	205.849
0.294008	204.03
0.27262	204.046
0.250468	202.596
0.232899	201.142
0.211511	199.69
0.191651	197.871
0.173319	196.417
0.151931	194.599
0.13207	193.147
0.110682	190.778
0.090058	189.693
0.070962	181.451
0.04881	174.863
