Adsorption isotherm of Carbon Dioxide on NCoCo2
DOI: 10.1021/La103590t
Adsorbate Carbon Dioxide: InChIKey CURLTUGMZLYLDI-UHFFFAOYSA-N
Temperature: 298 K
Tabular data in the source: 0
pressure (bar)	uptake (cm3(STP)/g)
0.691964	28.9651
4.49364	74.4105
10.5239	98.1819
16.3794	108.32
