Adsorption isotherm of Carbon Dioxide on NCoCo1
DOI: 10.1021/La103590t
Adsorbate Carbon Dioxide: InChIKey CURLTUGMZLYLDI-UHFFFAOYSA-N
Temperature: 298 K
Tabular data in the source: 0
pressure (bar)	uptake (cm3(STP)/g)
0.0310304	13.3527
0.225047	23.709
0.358762	29.0838
0.442661	32.4922
0.508207	34.3275
0.576375	36.6871
0.673383	39.309
0.773014	42.9796
0.8674	45.077
1.12434	51.1073
