Adsorption isotherm of Carbon Dioxide on NCoCo1
DOI: 10.1021/La103590t
Adsorbate Carbon Dioxide: InChIKey CURLTUGMZLYLDI-UHFFFAOYSA-N
Temperature: 298 K
Tabular data in the source: 0
pressure (bar)	uptake (cm3(STP)/g)
0.735661	41.55
4.62474	85.9466
10.7424	104.474
16.6852	115.661
