Adsorption isotherm of Carbon Dioxide on Bulk CoCo
DOI: 10.1021/La103590t
Adsorbate Carbon Dioxide: InChIKey CURLTUGMZLYLDI-UHFFFAOYSA-N
Temperature: 298 K
Tabular data in the source: 0
pressure (bar)	uptake (cm3(STP)/g)
0.201451	10.7308
0.377114	16.63
0.471501	19.514
0.534425	21.3493
0.59735	22.6602
0.689114	25.151
0.791367	27.7728
0.893619	29.6081
1.13483	34.1964
