Adsorption isotherm of Carbon Dioxide on NCoCo2
DOI: 10.1021/La103590t
Adsorbate Carbon Dioxide: InChIKey CURLTUGMZLYLDI-UHFFFAOYSA-N
Temperature: 298 K
Tabular data in the source: 0
pressure (bar)	uptake (cm3(STP)/g)
0.0310304	1.68545
0.211938	11.1241
0.468879	21.7426
0.529182	23.5779
0.602593	25.5443
0.694358	28.2972
0.79661	30.788
0.885753	33.5409
1.11648	38.9157
