Adsorption isotherm of Carbon Dioxide on Bulk CoCo
DOI: 10.1021/La103590t
Adsorbate Carbon Dioxide: InChIKey CURLTUGMZLYLDI-UHFFFAOYSA-N
Temperature: 298 K
Tabular data in the source: 0
pressure (bar)	uptake (cm3(STP)/g)
0.648266	24.7702
2.87684	53.0861
5.62978	68.1181
8.8197	78.6055
10.8735	84.8979
12.534	88.3937
14.7626	91.5399
17.9525	96.434
