Adsorption isotherm of Carbon Dioxide on NCoCo3
DOI: 10.1021/La103590t
Adsorbate Carbon Dioxide: InChIKey CURLTUGMZLYLDI-UHFFFAOYSA-N
Temperature: 298 K
Tabular data in the source: 0
pressure (bar)	uptake (cm3(STP)/g)
0.648266	24.071
4.62474	70.2155
10.3491	89.4424
16.292	98.1819
