Adsorption isotherm of Carbon Dioxide on NCoCo3
DOI: 10.1021/La103590t
Adsorbate Carbon Dioxide: InChIKey CURLTUGMZLYLDI-UHFFFAOYSA-N
Temperature: 298 K
Tabular data in the source: 0
pressure (bar)	uptake (cm3(STP)/g)
0.225047	7.58461
0.382358	15.0569
0.468879	17.6787
0.537047	20.0384
0.605215	21.8737
0.694358	24.3644
0.801854	27.6418
0.888375	29.8703
1.13483	35.3762
