Adsorption isotherm of Hydrogen on PCOF-1
DOI: 10.1021/Jp2080622
Adsorbate Hydrogen: InChIKey UFHFLCQGNIYNRP-UHFFFAOYSA-N
Temperature: 77 K
Tabular data in the source: 0
pressure (bar)	uptake (wt%)
0.618604	2.22568
1.30507	3.62722
2.50639	4.78563
4.73742	5.91545
6.28197	6.416
9.5427	6.94515
12.975	7.40279
18.2952	7.67452
25.3315	7.98915
36.4866	8.36099
51.5889	8.58981
72.183	8.94735
101.186	9.17617
