Adsorption isotherm of Hydrogen on COF-1
DOI: 10.1021/Jp2080622
Adsorbate Hydrogen: InChIKey UFHFLCQGNIYNRP-UHFFFAOYSA-N
Temperature: 77 K
Tabular data in the source: 0
pressure (bar)	uptake (wt%)
0.446987	0.0196472
0.790222	0.65252
0.961839	1.18167
1.99154	1.65362
3.87933	2.08266
4.5658	2.32579
6.11035	2.4259
9.37108	2.68332
12.8034	2.84064
18.1236	2.96935
26.1896	3.06946
35.8001	3.14097
50.9024	3.34119
72.183	3.4556
101.529	3.55571
