Adsorption isotherm of Hydrogen on PCOF-1
DOI: 10.1021/Jp2080622
Adsorbate Hydrogen: InChIKey UFHFLCQGNIYNRP-UHFFFAOYSA-N
Temperature: 77 K
Tabular data in the source: 0
pressure (bar)	uptake (wt%)
0.790222	1.31039
0.790222	2.08266
1.13346	3.05516
1.81992	3.84174
3.5361	4.74273
6.45359	5.67232
12.2886	6.58761
17.9519	7.14537
24.8166	7.53151
35.8001	7.91765
50.3876	8.26088
71.4965	8.68992
101.186	8.77573
