Adsorption isotherm of Hydrogen on COF-1
DOI: 10.1021/Jp2080622
Adsorbate Hydrogen: InChIKey UFHFLCQGNIYNRP-UHFFFAOYSA-N
Temperature: 77 K
Tabular data in the source: 0
pressure (bar)	uptake (g/l)
0.759344	0.0828711
0.984696	7.31292
1.66075	14.9373
2.90019	19.7355
4.92836	24.2707
9.32272	27.82
12.9284	29.3974
18.5622	31.0406
25.8861	32.8153
36.365	33.8012
50.6748	35.773
71.7453	36.7589
101.604	37.6134
