Adsorption isotherm of Hydrogen on PCOF-1
DOI: 10.1021/Jp2080622
Adsorbate Hydrogen: InChIKey UFHFLCQGNIYNRP-UHFFFAOYSA-N
Temperature: 77 K
Tabular data in the source: 0
pressure (bar)	uptake (g/l)
1.35028	13.5081
2.02634	22.5785
2.19535	26.5222
2.36437	30.1701
3.71648	34.0152
4.39254	37.5644
6.42071	41.7053
9.29395	45.156
13.0123	48.0152
18.2517	50.4799
25.8573	52.7475
35.9982	55.5081
51.0404	57.2828
71.9982	59.649
101.407	61.818
