Adsorption isotherm of Hydrogen on COF-1
DOI: 10.1021/Jp2080622
Adsorbate Hydrogen: InChIKey UFHFLCQGNIYNRP-UHFFFAOYSA-N
Temperature: 77 K
Tabular data in the source: 0
pressure (bar)	uptake (wt%)
0.446987	0.0196472
0.446987	0.938549
3.87933	1.15307
6.45359	1.25318
9.5427	1.33899
12.8034	1.4391
19.4965	1.55351
32.5394	1.71083
39.2325	1.81094
51.9321	1.91105
65.3183	2.03976
78.1896	2.16847
85.5691	2.21138
