Adsorption isotherm of Hydrogen on PCOF-1
DOI: 10.1021/Jp2080622
Adsorbate Hydrogen: InChIKey UFHFLCQGNIYNRP-UHFFFAOYSA-N
Temperature: 77 K
Tabular data in the source: 0
pressure (bar)	uptake (wt%)
0.961839	1.99685
1.81992	3.06946
3.19286	4.4567
6.11035	5.80103
9.71431	6.64482
13.1467	7.23118
18.4668	7.84614
25.6747	8.23228
35.9717	8.70423
51.0741	9.16187
71.6681	9.54801
101.529	9.90555
