Adsorption isotherm of Hydrogen on PCOF-1
DOI: 10.1021/Jp2080622
Adsorbate Hydrogen: InChIKey UFHFLCQGNIYNRP-UHFFFAOYSA-N
Temperature: 77 K
Tabular data in the source: 0
pressure (bar)	uptake (g/l)
0.533992	0.148599
0.646668	11.1251
0.646668	17.1063
1.4354	21.5758
2.56216	27.4913
4.81568	33.4725
9.32272	40.5711
13.041	43.2002
18.4495	46.881
26.2241	49.773
36.1396	52.3364
50.7875	54.7026
71.8579	57.7261
101.717	58.4491
