Adsorption isotherm of Hydrogen on PCOF-1
DOI: 10.1021/Jp2080622
Adsorbate Hydrogen: InChIKey UFHFLCQGNIYNRP-UHFFFAOYSA-N
Temperature: 77 K
Tabular data in the source: 0
pressure (bar)	uptake (g/l)
0.984696	5.66973
1.4354	13.6885
3.35089	25.9796
4.81568	30.1862
6.73117	34.0641
9.54808	39.1909
12.9284	43.0688
18.3368	47.0782
25.4354	49.5758
35.6889	52.7965
50.7875	55.6228
71.6326	58.2519
101.154	60.8153
