Adsorption isotherm of Hydrogen on COF-1
DOI: 10.1021/Jp2080622
Adsorbate Hydrogen: InChIKey UFHFLCQGNIYNRP-UHFFFAOYSA-N
Temperature: 77 K
Tabular data in the source: 0
pressure (bar)	uptake (g/l)
0.533992	0.148599
0.533992	9.08757
3.8016	10.9279
6.73117	12.7026
9.54808	13.1627
12.8157	14.0829
19.3509	15.3317
32.4213	17.1063
39.5199	17.8951
45.8298	18.6181
51.9143	19.2754
58.7875	19.9984
65.5481	20.6556
71.8579	21.2472
78.2805	21.8387
85.6044	22.3646
