Adsorption isotherm of Nitrogen on JUC-531
DOI: 10.1002/anie.202005277
Article source: Figure S14
Adsorbate Nitrogen: InChIKey IJGRMHOSHXDMSA-UHFFFAOYSA-N
Kind: experiment
Temperature: 77 K
Tabular data in the source: 0
pressure (bar)	uptake (cm3(STP)/g)
0	88.4354
0.000786	112.245
0.000786	136.054
0.000786	28.3447
0.000786	57.8231
0.000786	159.864
0.001572	187.075
0.003144	209.751
0.005503	231.293
0.007861	255.102
0.011005	277.778
0.019652	345.805
0.032229	391.156
0.043234	411.565
0.057383	428.571
0.08411	451.247
0.121842	471.655
0.157215	485.261
0.193374	494.331
0.228748	503.401
0.264121	511.338
0.298708	517.007
0.334082	522.676
0.369455	528.345
0.404042	534.014
0.439416	539.683
0.474789	544.218
0.510162	549.887
0.545536	554.422
0.581695	560.091
0.617068	565.76
0.652442	570.295
0.687815	575.964
0.723975	582.766
0.758562	589.569
0.793935	598.639
0.828522	607.71
0.863896	620.181
0.899269	637.188
0.93307	663.265
0.966086	708.617
1.00224	883.22
1.00775	964.853
1.00853	1014.74
0.053453	454.649
0.082538	484.127
0.117911	504.535
0.152498	517.007
0.187872	529.478
0.223245	539.683
0.258619	547.619
0.293992	553.288
0.330151	560.091
0.365525	565.76
0.400898	570.295
0.435485	574.83
0.471645	580.499
0.506232	588.435
0.542391	591.837
0.577765	597.506
0.613138	602.041
0.648511	606.576
0.683885	612.245
0.720044	617.914
0.755418	624.717
0.790791	632.653
0.808085	638.322
0.845816	649.66
0.885906	668.934
0.929926	705.215
0.968444	776.644
0.999887	960.317
