Adsorption isotherm of Nitrogen on JUC-530
DOI: 10.1002/anie.202005277
Article source: Figure S13
Adsorbate Nitrogen: InChIKey IJGRMHOSHXDMSA-UHFFFAOYSA-N
Kind: experiment
Temperature: 77 K
Tabular data in the source: 0
pressure (bar)	uptake (cm3(STP)/g)
0.000849	84.2912
0.000849	29.1188
0.000849	57.4713
0.001699	111.877
0.004247	137.165
0.009343	159.387
0.011891	167.816
0.019535	188.506
0.031425	210.728
0.039069	218.391
0.049261	229.885
0.082385	252.874
0.116358	272.031
0.157975	284.291
0.193647	291.954
0.231018	297.318
0.264141	301.916
0.298964	306.513
0.333786	310.345
0.36776	314.176
0.40513	318.008
0.439953	321.839
0.473926	325.671
0.509598	329.502
0.545269	332.567
0.580092	335.632
0.615764	340.996
0.651436	344.061
0.686258	347.126
0.72193	350.958
0.756753	356.322
0.792424	360.92
0.828096	367.05
0.862069	376.245
0.896043	387.739
0.930865	403.831
0.967386	442.146
1.00051	566.284
1.00561	615.326
1.00731	646.743
0.052658	242.146
0.084933	265.134
0.118906	282.759
0.153729	293.487
0.188551	301.149
0.224223	308.046
0.259045	312.644
0.293868	317.241
0.32954	321.839
0.365212	325.671
0.400883	328.736
0.436555	332.567
0.471378	336.398
0.505351	339.464
0.541872	342.529
0.577544	346.36
0.613216	348.659
0.648888	352.49
0.682861	356.322
0.719382	359.387
0.755054	363.985
0.790726	370.115
0.809411	373.18
0.847631	380.843
0.890097	393.87
0.934262	419.157
0.965688	460.536
1.00051	629.119
1.00561	655.939
