Adsorption isotherm of Nitrogen on M-TP-Azo
DOI: 10.1002/adma.201603945
Article source: Figure 1 (d)
Adsorbate Nitrogen: InChIKey IJGRMHOSHXDMSA-UHFFFAOYSA-N
Kind: experiment
Temperature: 77 K
Tabular data in the source: 0
pressure (bar)	uptake (cm3(STP)/g)
1.01325	2.85036
1.01325	14.9644
1.01325	28.5036
1.01325	42.7553
1.01325	55.582
1.01325	64.133
1.01325	82.6603
1.01325	96.9121
1.01325	111.164
1.02004	143.943
1.02004	158.195
1.02687	169.596
1.02687	178.147
1.06171	218.052
1.12745	252.257
1.19723	269.359
1.20123	280.048
1.27135	292.162
1.35007	312.114
1.42888	333.492
1.53259	350.594
1.60589	356.295
1.69397	363.42
1.79886	368.409
1.91019	371.971
2.01496	377.672
2.13972	379.097
2.27215	381.948
2.39677	386.223
2.54517	387.648
2.6669	389.074
2.87003	393.349
3.0073	396.2
3.1935	399.05
3.39123	400.475
3.60111	403.325
3.82408	406.176
4.03382	409.026
4.25507	411.876
4.51852	414.014
4.79818	417.577
5.06135	420.428
5.37473	424.703
5.68849	428.979
6.02042	433.254
6.39318	437.53
6.76638	443.23
7.16138	448.931
7.6046	457.482
8.0217	468.884
8.54686	485.986
9.10619	515.914
9.54172	565.796
9.86567	602.138
1.19723	280.048
1.27135	300.713
1.34109	322.09
1.41937	342.043
1.51226	357.72
1.60054	365.558
1.70532	371.971
1.79286	376.96
1.89748	380.523
2.00824	383.373
2.13259	386.936
2.25708	390.499
2.38082	393.349
2.52823	396.2
2.68477	399.05
2.851	401.9
3.02745	407.601
3.1935	416.865
3.37992	419.715
3.57723	422.565
3.78596	425.416
4.00698	428.979
4.25507	431.829
4.51852	434.679
4.79818	437.53
5.06135	443.23
5.37473	446.081
5.68849	451.781
6.06075	458.195
6.37187	465.321
6.78901	476.009
7.16138	488.836
7.6046	504.513
8.04853	530.166
8.51837	560.095
8.98559	588.599
