Adsorption isotherm of Nitrogen on M-TpTD
DOI: 10.1002/adma.201603945
Article source: Figure 1 (d)
Adsorbate Nitrogen: InChIKey IJGRMHOSHXDMSA-UHFFFAOYSA-N
Kind: experiment
Temperature: 77 K
Tabular data in the source: 0
pressure (bar)	uptake (cm3(STP)/g)
1.07599	144.286
1.12745	161.429
1.19723	178.571
1.27987	194.286
1.35912	204.286
1.42412	212.857
1.5022	218.571
2.40479	240
2.54517	241.429
2.68477	242.857
2.851	243.571
3.02745	245
3.1935	245.714
3.39123	248.571
3.60111	250
3.81133	252.143
4.03382	252.857
4.2693	254.286
4.51852	255.714
4.78219	257.143
5.06135	258.571
5.37473	260
5.68849	261.429
6.02042	263.571
6.39318	265.714
6.78901	267.143
7.16138	270
7.6046	274.286
8.07545	277.143
8.51837	281.429
9.04558	288.571
3.20418	274.286
3.39123	275.714
3.60111	278.571
3.78596	280
4.03382	281.429
4.28358	282.857
4.54869	285.714
4.79818	287.143
5.07828	288.571
5.41074	290
5.72647	291.429
6.06075	292.857
6.41456	293.571
6.78901	295
7.18516	298.571
7.6046	300.714
8.04853	303.571
8.48998	305.714
9.01564	308.571
9.54172	315.714
10.0315	336.429
