Adsorption isotherm of Nitrogen on M-TpBD-Me2
DOI: 10.1002/adma.201603945
Article source: Figure 1 (d)
Adsorbate Nitrogen: InChIKey IJGRMHOSHXDMSA-UHFFFAOYSA-N
Kind: experiment
Temperature: 77 K
Tabular data in the source: 0
pressure (bar)	uptake (cm3(STP)/g)
3.0073	288.571
3.1935	292.143
3.36866	295.714
3.55342	299.286
3.77335	302.143
3.99362	306.429
4.22675	311.429
4.48845	314.286
4.76625	318.571
5.02767	324.286
5.32116	331.429
5.63179	337.143
5.98035	344.286
6.32946	351.429
6.69895	361.429
7.11372	371.429
7.55399	384.286
7.96832	400
8.46168	420
8.92579	446.429
9.54172	501.429
9.93154	610
1.03375	187.143
1.06171	204.286
1.12369	218.571
1.18929	228.571
1.25868	234.286
1.33216	240
1.41464	244.286
1.5022	248.571
1.58989	252.857
1.6827	255.714
1.78093	259.286
1.88489	263.571
1.99488	266.429
2.11839	270
2.24206	273.571
2.38082	276.429
2.5198	280
2.6669	284.286
2.84149	289.286
2.99728	306.429
3.16167	314.286
3.35743	317.857
3.55342	321.429
3.76085	325
3.98031	328.571
4.22675	331.429
4.48845	335.714
4.75036	340.714
5.04448	345.714
5.33896	351.429
5.63179	356.429
5.98035	363.571
6.32946	370.714
6.69895	380
7.11372	390
7.52881	402.857
7.99497	419.286
8.46168	450
8.92579	500
9.44684	570
