Adsorption isotherm of Nitrogen on M-TpBD
DOI: 10.1002/adma.201603945
Article source: Figure 1 (d)
Adsorbate Nitrogen: InChIKey IJGRMHOSHXDMSA-UHFFFAOYSA-N
Kind: experiment
Temperature: 77 K
Tabular data in the source: 0
pressure (bar)	uptake (cm3(STP)/g)
1.135	231.429
1.19723	244.286
1.22145	248.571
1.25449	255.714
1.28845	260
1.35912	265.714
1.43363	270
1.52748	275.714
1.62206	280
1.71675	282.857
1.81692	286.429
1.92942	290.714
2.04888	292.857
2.28737	298.571
2.56222	305
2.87003	310.714
4.06085	328.571
4.5639	334.286
5.1123	343.571
8.07545	410.714
8.80738	507.857
9.80001	587.857
1.27135	271.429
1.41937	284.286
1.58989	293.571
1.78093	300
2.00155	307.143
2.24206	312.857
2.5114	318.571
2.83202	324.286
3.16167	332.143
3.55342	337.857
3.98031	344.286
4.48845	350.714
5.04448	359.286
5.70738	368.571
6.45753	383.571
7.11372	403.571
8.0217	454.286
8.69054	528.571
9.76735	589.286
