Adsorption isotherm of Nitrogen on M-TpAQ
DOI: 10.1002/adma.201603945
Article source: Figure 1 (d)
Adsorbate Nitrogen: InChIKey IJGRMHOSHXDMSA-UHFFFAOYSA-N
Kind: experiment
Temperature: 77 K
Tabular data in the source: 0
pressure (bar)	uptake (cm3(STP)/g)
1.01325	72.8571
1.02004	122.857
1.02687	134.286
1.04066	147.143
1.07599	167.143
1.135	188.571
1.20123	202.857
1.27135	210
1.35007	215.714
1.43363	220
1.51226	222.857
1.5952	224.286
1.69397	228.571
1.78689	230
1.89748	232.857
2.01496	235.714
2.12548	237.143
2.25708	240
2.39677	242.143
2.53668	244.286
2.69375	245.714
2.851	248.571
3.0073	250.714
3.1935	252.857
3.37992	254.286
3.58919	256.429
3.79863	257.857
4.03382	260
4.25507	262.143
4.51852	264.286
4.78219	265.714
5.06135	267.143
5.37473	268.571
5.68849	270.714
6.02042	273.571
6.35063	275.714
6.78901	278.571
7.18516	280
7.6046	282.857
8.07545	284.286
8.54686	289.286
9.04558	293.571
9.60565	300
10.1325	311.429
1.02004	120
1.01325	131.429
1.06526	183.571
1.12745	207.143
1.19723	222.143
1.27561	229.286
1.34109	232.857
1.42412	235.714
1.51226	238.571
1.60054	241.429
1.69397	243.571
1.79286	245.714
1.90382	247.857
2.01496	250.714
2.13972	252.143
2.25708	254.286
2.39677	255.714
2.53668	257.857
2.69375	259.286
2.851	261.429
3.01736	263.571
3.20418	267.857
3.40257	268.571
3.60111	270
3.81133	272.143
4.03382	273.571
4.28358	274.286
4.53353	277.143
4.79818	278.571
5.07828	280.714
5.37473	281.429
5.66952	283.571
6.04055	284.286
6.39318	285.714
6.78901	287.143
7.16138	289.286
7.6046	291.429
8.04853	293.571
8.51837	295.714
8.98559	298.571
9.54172	305.714
10.0651	311.429
