Adsorption isotherm of Nitrogen on M-TpBD-OMe2
DOI: 10.1002/adma.201603945
Article source: Figure 1 (d)
Adsorbate Nitrogen: InChIKey IJGRMHOSHXDMSA-UHFFFAOYSA-N
Kind: experiment
Temperature: 77 K
Tabular data in the source: 0
pressure (bar)	uptake (cm3(STP)/g)
1.06171	140.714
1.11249	160
1.18532	175.714
1.24617	191.429
1.34557	203.571
1.42412	210
1.51226	220
2.49469	265.714
2.63152	268.571
2.83202	274.286
2.98735	275.714
3.55342	287.857
3.76085	291.429
3.99362	296.429
4.22675	301.429
4.48845	305.714
4.73464	310
5.02767	313.571
5.30343	318.571
5.63179	322.857
5.98035	328.571
6.30836	332.857
6.69895	337.857
7.11372	343.571
7.52881	350
8.0217	357.143
8.46168	365
8.98559	374.286
9.47822	394.286
1.42412	247.143
1.5022	251.429
1.58459	258.571
1.6827	260
1.78093	265.714
1.88489	270
2.00155	275.714
2.11133	278.571
2.24206	281.429
2.38082	284.286
2.5114	288.571
2.6669	291.429
2.83202	297.143
3.15113	304.286
3.36866	310
3.5653	314.286
3.74832	318.571
3.98031	321.429
4.22675	322.857
4.51852	327.143
4.83033	331.429
7.06637	362.857
7.52881	369.286
7.96832	375
8.40537	382.857
8.92579	391.429
9.47822	415.714
9.89867	432.143
