Adsorption isotherm of Nitrogen on Co-MOF-74 synthesized using Cyrene
DOI: 10.1021/acssuschemeng.6b02115
Article source: Figure S1B
Adsorbate Nitrogen: InChIKey IJGRMHOSHXDMSA-UHFFFAOYSA-N
Kind: experiment
Temperature: 77 K
Tabular data in the source: 0
pressure (bar)	uptake (cm3(STP)/g)
0.000816	1.83386
0.00222	4.6452
0.001518	13.2955
0.000816	33.4074
0.005028	36.0025
0.003624	40.3276
0.012049	42.0577
0.021878	42.9227
0.033111	43.7877
0.058386	45.0853
0.080852	45.0853
0.097702	45.0853
0.108935	45.5178
0.122976	45.9503
0.148251	45.5178
0.160888	45.5178
0.170717	45.5178
0.179142	45.5178
0.184759	46.3828
0.1988	46.3828
0.207225	45.9503
0.221267	46.8153
0.228287	46.8153
0.238116	46.8153
0.243733	46.8153
0.250754	46.8153
0.257774	46.8153
0.263391	46.8153
0.27322	46.8153
0.280241	46.8153
0.291474	46.8153
0.302005	46.5991
0.35466	46.8153
0.422059	46.1665
0.474013	45.5178
0.521754	45.0853
0.551241	45.0853
0.573707	44.6527
0.625661	43.7877
0.674806	43.7877
0.726759	42.4902
0.753438	42.4902
0.777308	42.0577
0.825049	42.0577
0.878407	41.6251
0.926148	41.1926
0.959848	40.7601
0.999164	41.1926
0.928956	42.0577
0.898065	41.6251
0.844708	42.0577
0.795562	42.4902
0.742205	43.7877
0.691656	45.0853
0.639702	45.5178
0.590557	45.9503
0.493671	47.6803
0.437505	47.6803
0.386956	48.5454
0.335002	49.8429
0.285857	49.8429
0.263391	50.2754
0.243031	50.0592
0.222671	50.2754
0.204417	50.2754
0.180546	50.2754
0.15457	50.0592
0.104722	50.7079
