Adsorption isotherm of Nitrogen on UiO-66 synthesized using DMF
DOI: 10.1021/acssuschemeng.6b02115
Article source: Figure S1A
Adsorbate Nitrogen: InChIKey IJGRMHOSHXDMSA-UHFFFAOYSA-N
Kind: experiment
Temperature: 77 K
Tabular data in the source: 0
pressure (bar)	uptake (cm3(STP)/g)
0.002423	135.806
0.002423	109.845
0.002423	93.2299
0.002423	62.5959
0.002423	2.88538
0.003809	177.344
0.003809	145.152
0.005194	205.382
0.005194	190.844
0.005886	198.632
0.010734	212.651
0.019044	235.497
0.027354	252.112
0.046745	278.073
0.079986	305.072
0.100761	312.341
0.109072	318.572
0.120152	319.611
0.152008	325.322
0.160318	326.88
0.171399	327.918
0.179709	328.957
0.190789	331.033
0.202562	331.553
0.21572	334.149
0.22403	334.149
0.233033	335.187
0.244806	336.226
0.253116	336.226
0.264196	338.303
0.273892	339.341
0.284972	339.341
0.290512	340.379
0.30644	342.456
0.354224	345.572
0.404086	347.649
0.452562	348.687
0.506579	352.841
0.52874	351.802
0.55644	355.956
0.605609	356.475
0.657549	359.071
0.70741	362.706
0.733726	365.302
0.761427	365.302
0.808518	370.494
0.85561	375.687
0.908241	387.109
0.936635	396.975
0.991344	442.147
1.00104	464.993
0.947022	415.147
0.905471	395.417
0.852839	381.917
0.798823	374.129
0.762812	368.417
0.711565	365.302
0.661704	361.148
0.61115	358.033
0.510734	351.802
0.458102	348.687
