Adsorption isotherm of Nitrogen on Co-MOF-74 synthesized using DMF
DOI: 10.1021/acssuschemeng.6b02115
Article source: Figure S1B
Adsorbate Nitrogen: InChIKey IJGRMHOSHXDMSA-UHFFFAOYSA-N
Kind: experiment
Temperature: 77 K
Tabular data in the source: 0
pressure (bar)	uptake (cm3(STP)/g)
0.002912	5.38117
0.002912	59.1928
0.002912	89.6861
0.00222	116.45
0.003624	124.668
0.003624	130.723
0.006432	157.539
0.00573	161.432
0.006432	163.594
0.006432	167.919
0.010645	169.649
0.017665	175.272
0.030303	177.002
0.049961	180.03
0.079448	183.057
0.10051	183.922
0.108935	184.355
0.120168	185.22
0.148251	186.95
0.159484	186.517
0.170717	187.382
0.180546	187.815
0.191779	187.815
0.201608	187.815
0.211437	188.247
0.221267	189.112
0.226883	189.112
0.2325	189.112
0.242329	189.112
0.252158	189.545
0.261987	189.545
0.270412	189.977
0.280241	189.977
0.292878	190.41
0.304111	190.41
0.35466	190.842
0.420655	190.842
0.472609	190.842
0.522456	190.41
0.548433	189.977
0.555453	190.842
0.603194	189.977
0.673402	189.545
0.725355	188.68
0.753438	187.815
0.777308	188.68
0.826454	187.815
0.877003	187.382
0.927552	186.517
0.958443	186.95
1.0125	201.655
0.934573	187.599
0.893853	189.112
0.841899	189.545
0.792754	190.842
0.740801	191.275
0.688847	191.707
0.641106	192.573
0.589153	193.438
0.492267	194.303
0.440313	194.735
0.385552	195.168
0.336407	195.168
0.287261	196.033
0.27322	195.6
0.247945	196.033
0.2325	195.6
0.200204	195.168
0.151059	194.303
0.099106	193.005
