Adsorption isotherm of Nitrogen on ZIF-8 synthesized using DMF
DOI: 10.1021/acssuschemeng.6b02115
Article source: Figure S1C
Adsorbate Nitrogen: InChIKey IJGRMHOSHXDMSA-UHFFFAOYSA-N
Kind: experiment
Temperature: 77 K
Tabular data in the source: 0
pressure (bar)	uptake (cm3(STP)/g)
0	251.553
0.001412	207.039
0.001412	196.687
0.001412	170.807
0.001412	164.596
0.001412	153.209
0.001412	138.716
0.001412	2.07039
0.004237	277.433
0.004237	271.222
0.004237	240.166
0.005649	326.087
0.005649	291.925
0.007061	297.101
0.008473	345.238
0.01271	346.791
0.022595	363.354
0.029656	374.741
0.043778	419.255
0.056488	419.255
0.084732	422.36
0.108739	424.431
0.120037	424.431
0.16099	424.431
0.170876	424.431
0.182173	424.431
0.192059	424.431
0.214654	424.431
0.221715	424.431
0.235837	424.431
0.24431	423.395
0.254195	425.466
0.266905	425.466
0.273966	427.536
0.283851	426.501
0.295149	427.536
0.305034	427.536
0.353049	428.571
0.4053	428.571
0.458963	429.607
0.504154	429.607
0.529573	429.089
0.60442	431.677
0.655259	431.677
0.70751	432.712
0.730105	434.783
0.758349	434.783
0.807776	436.853
0.860027	442.029
0.906629	449.275
0.93911	457.557
0.992773	507.764
1.00266	531.056
0.947583	481.366
0.905217	457.557
0.848729	443.064
0.79789	439.959
0.744227	433.747
0.690563	432.712
0.641137	432.712
0.608656	432.712
0.50839	433.747
0.455433	429.089
0.406712	429.607
0.357285	427.536
0.203356	425.466
0.151105	423.395
0.105915	424.431
