Adsorption isotherm of Nitrogen on UiO-66 synthesized using Cyrene
DOI: 10.1021/acssuschemeng.6b02115
Article source: Figure S1A
Adsorbate Nitrogen: InChIKey IJGRMHOSHXDMSA-UHFFFAOYSA-N
Kind: experiment
Temperature: 77 K
Tabular data in the source: 0
pressure (bar)	uptake (cm3(STP)/g)
0.001038	7.03915
0.002423	30.9233
0.005194	49.6153
0.007964	56.8844
0.019044	57.9229
0.028739	59.9998
0.0509	64.1535
0.078601	65.192
0.095221	66.2304
0.106302	68.3073
0.120152	68.3073
0.152008	69.3457
0.163088	69.3457
0.170014	69.3457
0.179709	71.4226
0.185249	72.4611
0.194944	72.4611
0.20464	72.4611
0.214335	72.4611
0.22403	72.4611
0.235111	73.4995
0.253116	73.4995
0.262811	74.538
0.273892	74.538
0.282202	73.4995
0.289127	73.4995
0.305748	73.4995
0.355609	75.5764
0.405471	75.5764
0.453947	77.6533
0.506579	77.6533
0.527355	77.6533
0.555055	78.6917
0.606302	77.6533
0.656163	78.6917
0.70741	80.7686
0.733726	81.8071
0.757272	83.884
0.805748	85.9608
0.85838	92.1915
0.906856	98.4222
0.938712	106.73
0.999654	142.037
0.935942	112.441
0.896468	101.537
0.847299	94.2684
0.814058	90.1146
0.764197	85.9608
0.71295	81.8071
0.661704	80.7686
0.611842	80.7686
0.508656	77.6533
0.45741	76.6149
