Adsorption isotherm of Nitrogen on ZIF-8 synthesized using Cyrene
DOI: 10.1021/acssuschemeng.6b02115
Article source: Figure S1C
Adsorbate Nitrogen: InChIKey IJGRMHOSHXDMSA-UHFFFAOYSA-N
Kind: experiment
Temperature: 77 K
Tabular data in the source: 0
pressure (bar)	uptake (cm3(STP)/g)
0	20.7039
0.001412	52.795
0.001412	81.7805
0.001412	90.0621
0.001412	98.3437
0.001412	110.766
0.002824	119.048
0.007061	125.259
0.01271	133.54
0.029656	137.681
0.050839	142.857
0.080495	148.033
0.097441	148.033
0.122861	149.068
0.159578	154.244
0.170876	155.28
0.179349	155.28
0.189234	156.315
0.214654	156.315
0.227363	155.28
0.235837	156.315
0.242898	158.385
0.251371	158.385
0.265493	160.455
0.272554	160.455
0.282439	160.455
0.295149	160.455
0.303622	160.455
0.354461	161.491
0.403888	162.526
0.454727	164.596
0.504154	165.631
0.529573	165.631
0.554993	166.667
0.607244	167.702
0.656671	168.737
0.703273	170.807
0.730105	173.913
0.759761	174.948
0.809188	179.089
0.857202	185.3
0.905217	193.582
0.93911	204.969
0.994185	254.658
0.999834	276.398
0.944759	227.743
0.905217	203.934
0.848729	190.476
0.79789	184.265
0.745639	180.124
0.711746	179.089
0.659495	172.878
0.61148	171.843
0.509802	169.772
0.458963	167.702
0.403888	165.631
0.355873	163.561
0.200532	157.35
0.152517	155.28
0.105915	152.174
