Adsorption isotherm of Nitrogen on Zn2(BDC)2(DABCO) synthesized using DMF
DOI: 10.1021/acssuschemeng.6b02115
Article source: Figure S1D
Adsorbate Nitrogen: InChIKey IJGRMHOSHXDMSA-UHFFFAOYSA-N
Kind: experiment
Temperature: 77 K
Tabular data in the source: 0
pressure (bar)	uptake (cm3(STP)/g)
0.001417	8.29875
0.001417	37.3444
0.002834	66.39
0.001417	99.5851
0.004251	127.593
0.004251	154.564
0.004251	186.722
0.004251	216.805
0.002834	246.888
0.002834	274.896
0.002834	302.905
0.002834	332.988
0.001417	362.033
0.004251	391.079
0.002834	414.938
0.004251	430.498
0.004251	457.469
0.007086	477.178
0.00992	480.29
0.018423	489.627
0.035428	488.589
0.058102	493.776
0.080777	492.739
0.120456	492.739
0.171473	491.701
0.194147	489.627
0.211153	490.664
0.229576	490.664
0.249415	488.589
0.267838	488.589
0.293347	488.589
0.313186	490.664
0.334443	487.552
0.364203	489.627
0.386877	487.552
0.426557	484.44
0.477574	483.402
0.527173	485.477
0.549848	485.477
0.57819	482.365
0.626373	480.29
0.675972	479.253
0.729823	480.29
0.755332	478.216
0.779423	479.253
0.827606	478.216
0.88004	477.178
0.928222	476.141
0.962233	476.141
1.01042	488.589
0.935308	476.141
0.897045	475.104
0.846028	476.141
0.795012	476.141
0.743995	479.253
0.692978	479.253
0.641961	481.328
0.590944	483.402
0.494579	485.477
0.437894	485.477
0.285552	488.071
0.225324	488.589
0.205484	488.589
0.184227	488.589
0.154467	489.627
0.104868	490.664
