Adsorption isotherm of Nitrogen on Zn2(BDC)2(DABCO) synthesized using Cyrene
DOI: 10.1021/acssuschemeng.6b02115
Article source: Figure S1D
Adsorbate Nitrogen: InChIKey IJGRMHOSHXDMSA-UHFFFAOYSA-N
Kind: experiment
Temperature: 77 K
Tabular data in the source: 0
pressure (bar)	uptake (cm3(STP)/g)
0.002834	39.4191
0.004251	170.124
0.004251	197.095
0.004251	205.394
0.004251	223.029
0.007086	233.402
0.008503	241.701
0.015588	274.896
0.01984	288.382
0.031177	308.091
0.053851	313.278
0.080777	317.427
0.106285	320.539
0.123291	320.539
0.151633	322.614
0.161553	322.614
0.17289	323.651
0.18281	324.689
0.19273	325.726
0.211153	325.726
0.225324	327.801
0.233827	328.838
0.253667	327.801
0.26217	327.801
0.274924	327.801
0.284844	327.801
0.293347	327.801
0.301849	329.876
0.3557	328.838
0.406717	328.838
0.452065	328.838
0.505916	329.876
0.531425	329.876
0.554099	332.988
0.605116	331.95
0.65755	331.95
0.709984	336.1
0.732658	336.1
0.758166	334.025
0.809183	336.1
0.863034	336.1
0.909799	337.137
0.942393	337.137
1.00475	354.772
0.936725	341.286
0.898462	337.137
0.848863	335.062
0.797846	334.544
0.745412	335.062
0.692978	334.025
0.663218	332.988
0.60795	332.988
0.511585	332.988
0.460568	331.95
0.403883	330.913
0.341529	327.801
0.286261	325.726
0.265004	326.763
0.243747	327.282
0.226741	324.689
0.206901	324.689
0.18281	322.614
0.157302	322.614
0.100616	317.427
