Adsorption isotherm of Nitrogen on Zn-MOF-74
DOI: 10.1166/jnn.2014.8621
Adsorbate Nitrogen: InChIKey IJGRMHOSHXDMSA-UHFFFAOYSA-N
Temperature: 77 K
Tabular data in the source: 0
pressure (bar)	uptake (cm3(STP)/g)
-0.00468787	193.627
-0.00341487	59.5819
-0.00240455	253.197
-0.00210146	221.281
-0.0015761	165.961
-0.00123259	129.79
-0.000889078	93.619
-0.000323301	34.0433
0.000181857	280.851
0.00858768	295.726
0.0168521	325.495
0.0224694	333.993
0.036432	363.75
0.0560927	393.494
0.0701968	408.357
0.0928279	425.329
0.106932	440.191
0.126734	455.042
0.163691	463.471
0.183595	467.683
0.203518	469.767
0.240496	476.069
0.28889	480.218
0.340153	482.234
0.38	486.402
0.528072	494.588
0.579336	496.604
0.624901	498.631
0.673315	500.653
0.724598	500.541
0.773013	502.562
0.790067	506.78
0.818538	508.846
0.84416	510.917
0.864083	513.001
0.892533	517.194
0.918115	523.521
0.935068	538.378
0.949192	551.113
0.95196	559.617
0.957619	563.86
