Adsorption isotherm of Carbon Dioxide on Zn-MOF-74
DOI: 10.1166/jnn.2014.8621
Adsorbate Carbon Dioxide: InChIKey CURLTUGMZLYLDI-UHFFFAOYSA-N
Temperature: 273 K
Tabular data in the source: 0
pressure (bar)	uptake (mmol/g)
0.000127628	0.0806452
0.0179573	0.0967742
0.0433171	0.370968
0.086532	0.677419
0.133206	0.919355
0.187001	1.16129
0.240745	1.37097
0.326792	1.74194
0.401953	1.98387
0.469991	2.22581
0.537979	2.43548
0.602406	2.64516
0.670368	2.83871
0.738304	3.01613
0.802706	3.20968
0.874229	3.40323
0.938604	3.58065
1.00652	3.74194
1.07443	3.90323
1.14239	4.09677
