Adsorption isotherm of Nitrogen on Cu-MOF-74
DOI: 10.1166/jnn.2014.8621
Adsorbate Nitrogen: InChIKey IJGRMHOSHXDMSA-UHFFFAOYSA-N
Temperature: 77 K
Tabular data in the source: 0
pressure (bar)	uptake (cm3(STP)/g)
-0.00216208	227.664
-0.00185898	195.749
-0.000969903	102.13
0.00125279	168.082
0.00159629	131.911
0.00218229	70.208
0.00252579	34.037
0.00598108	270.2
0.00616292	251.05
0.0170744	302.09
0.0284101	308.448
0.0451611	344.582
0.0564161	359.451
0.073349	376.435
0.0931714	389.158
0.110104	406.142
0.129947	416.737
0.155548	420.936
0.178281	427.269
0.195355	429.359
0.235202	433.527
0.292163	435.53
0.337668	443.941
0.383253	443.842
0.428818	445.869
0.480082	447.885
0.525648	449.913
0.576911	451.928
0.625325	453.95
0.673719	458.099
0.773377	464.264
0.801867	464.201
0.82458	472.662
0.844564	468.363
0.870145	474.69
0.892917	476.768
0.915629	485.229
0.935412	502.207
0.946667	517.076
0.95487	553.228
0.955011	538.334
