Adsorption isotherm of Carbon Dioxide on Cu-MOF-74
DOI: 10.1166/jnn.2014.8621
Adsorbate Carbon Dioxide: InChIKey CURLTUGMZLYLDI-UHFFFAOYSA-N
Temperature: 273 K
Tabular data in the source: 0
pressure (bar)	uptake (mmol/g)
0.0110399	0.225806
0.0756708	0.564516
0.136511	0.758065
0.186695	0.967742
0.240362	1.12903
0.329843	1.41935
0.401366	1.6129
0.469328	1.80645
0.533703	1.98387
0.601666	2.17742
0.669577	2.33871
0.737488	2.5
0.805373	2.64516
0.869749	2.82258
0.937609	2.95161
1.00549	3.09677
1.07694	3.24194
1.14127	3.3871
