Adsorption isotherm of Hydrogen on IRMOF-1
DOI: 10.1007/s11426-008-0079-3
Adsorbate Hydrogen: InChIKey UFHFLCQGNIYNRP-UHFFFAOYSA-N
Temperature: 200 K
Tabular data in the source: 0
pressure (bar)	uptake (mmol/g)
0.902299	0.103594
4.51073	0.547569
9.74582	1.08034
20.0365	2.08668
30.1489	2.98943
39.902	3.78858
49.6567	4.52854
59.7767	5.13531
69.7143	5.80127
