Adsorption isotherm of Hydrogen on IRMOF-1
DOI: 10.1007/s11426-008-0079-3
Adsorbate Hydrogen: InChIKey UFHFLCQGNIYNRP-UHFFFAOYSA-N
Temperature: 200 K
Tabular data in the source: 0
pressure (bar)	uptake (mmol/g)
3.06812	0.340381
6.49517	0.799154
14.084	1.30233
17.1517	1.65751
22.2043	2.24947
27.9831	2.75264
30.6942	2.90063
33.2236	3.07822
44.0703	3.5814
48.9518	3.78858
55.46	4.08457
59.2582	4.18816
62.6968	4.20296
