Adsorption isotherm of Hydrogen on IRMOF-1
DOI: 10.1007/s11426-008-0079-3
Adsorbate Hydrogen: InChIKey UFHFLCQGNIYNRP-UHFFFAOYSA-N
Temperature: 200 K
Tabular data in the source: 0
pressure (bar)	uptake (mmol/g)
3.61073	0.35518
5.41188	0.69556
7.57962	0.858351
11.3713	1.21353
16.0699	1.49471
22.753	2.02748
28.1695	2.54545
35.9347	3.22622
42.9859	3.5222
50.3917	4.09937
57.4433	4.38055
63.4073	4.72093
