Adsorption isotherm of Hydrogen on CuBTC
DOI: 10.1007/s11426-008-0079-3
Adsorbate Hydrogen: InChIKey UFHFLCQGNIYNRP-UHFFFAOYSA-N
Temperature: 200 K
Tabular data in the source: 0
pressure (bar)	uptake (mmol/g)
0.717874	0.173423
4.85592	0.772523
10.0738	1.51351
15.8343	2.22297
19.7974	2.60135
24.4797	3.10586
29.8855	3.56306
39.9772	4.38288
50.0754	4.95045
55.8445	5.32883
56.5636	5.45495
59.8109	5.58108
65.4022	5.8491
69.9128	6.00676
74.9639	6.21171
80.0155	6.4009
