Adsorption isotherm of Hydrogen on CuBTC
DOI: 10.1007/s11426-008-0079-3
Adsorbate Hydrogen: InChIKey UFHFLCQGNIYNRP-UHFFFAOYSA-N
Temperature: 200 K
Tabular data in the source: 0
pressure (bar)	uptake (mmol/g)
1.79855	0.283784
3.41773	0.52027
4.49759	0.662162
5.75682	0.851351
6.83709	0.977477
7.55699	1.07207
8.63726	1.1982
9.35595	1.34009
11.1565	1.54505
12.2368	1.67117
14.5787	1.89189
15.1185	1.97072
16.3793	2.09685
17.46	2.20721
18.5403	2.33333
19.8011	2.45946
21.0624	2.56982
22.143	2.68018
23.4043	2.79054
24.6652	2.91667
25.9268	3.01126
27.3687	3.12162
28.8101	3.24775
30.0722	3.32658
31.5144	3.42117
32.9567	3.51577
34.399	3.61036
35.8412	3.70495
37.2839	3.78378
38.7261	3.87838
40.349	3.97297
41.7916	4.0518
43.2339	4.1464
44.6766	4.22523
46.2998	4.30405
47.7421	4.39865
49.3653	4.47748
50.8076	4.57207
52.2502	4.6509
53.8735	4.72973
55.4963	4.82432
56.5782	4.88739
58.2015	4.96622
59.8251	5.02928
62.3501	5.15541
