Adsorption isotherm of Hydrogen on CoPc-BPDA COF
DOI: 10.1039/c3ce41091a
Article source: Figure 3b
Adsorbate Hydrogen: InChIKey UFHFLCQGNIYNRP-UHFFFAOYSA-N
Kind: experiment
Temperature: 77 K
Tabular data in the source: 0
pressure (bar)	uptake (cm3(STP)/g)
14.6585	12.0068
25.437	16.8925
47.2467	23.5809
72.9151	27.9252
96.25	38.8323
119.585	44.9328
147.587	50.2939
175.589	55.1004
201.257	59.1675
226.925	63.4194
250.26	67.3015
275.929	71.4148
301.597	74.881
352.934	81.9059
429.939	90.5945
455.607	95.1237
478.942	96.6027
506.944	101.132
555.947	107.232
607.284	113.009
656.287	118.786
707.624	124.517
768.295	130.618
807.964	134.616
530.21	101.925
579.504	107.416
685.792	120.23
736.626	127.247
374.629	85.145
326.876	78.433
72.7075	38.7714
125.082	48.2292
21.8739	25.3475
8.01015	18.2694
0.308083	15.2185
15.7122	14.9134
8.01015	9.72693
3.38891	7.28621
1.8485	4.54041
403.897	88.1959
631.878	113.213
