Adsorption isotherm of Methane on CoPc-BPDA COF
DOI: 10.1039/c3ce41091a
Article source: Figure 3c
Adsorbate Methane: InChIKey VNWKTOKETHGBQD-UHFFFAOYSA-N
Kind: experiment
Temperature: 273 K
Tabular data in the source: 0
pressure (bar)	uptake (cm3(STP)/g)
0.02897	0.459884
0.066141	0.95062
0.097117	1.377
0.134288	1.76315
0.165264	2.10908
0.19624	2.43892
0.233411	2.76071
0.268723	3.13882
0.305894	3.37695
0.335631	3.60006
0.363509	3.91112
0.400681	4.22487
0.462632	4.69148
0.530779	5.14199
0.598926	5.58445
0.663976	6.03497
0.729025	6.41307
0.797172	6.75096
0.865319	7.14515
0.933466	7.51522
1.014	7.90942
1.06357	8.22316
0.877228	7.44344
0.944708	7.7196
0.811794	7.16729
0.764763	6.91237
0.695239	6.57249
0.62776	6.12639
0.562326	5.74403
0.496892	5.3829
0.429413	4.89432
0.363978	4.42698
0.294454	3.83218
0.22902	3.23739
0.161541	2.51514
0.098151	1.66543
0.028628	0.730749
0.008179	0.199681
