Adsorption isotherm of Nitrogen on CoPc-BPDA COF
DOI: 10.1039/c3ce41091a
Article source: Figure 3a
Adsorbate Nitrogen: InChIKey IJGRMHOSHXDMSA-UHFFFAOYSA-N
Kind: experiment
Temperature: 77 K
Tabular data in the source: 0
pressure (bar)	uptake ()
0.000899	150.537
0.007018	174.915
0.044959	236.477
0.201938	339.381
0.22888	342.644
0.252075	345.294
0.280335	346.137
0.304091	347.811
0.35216	349.004
0.403914	350.745
0.453744	353.773
0.50576	355.761
0.551657	355.893
0.606733	357.218
0.655689	356.865
0.704645	359.073
0.759721	359.868
0.808677	360.133
0.841315	361.281
0.863753	360.839
0.90659	362.253
0.955546	364.902
0.986143	370.732
0.076716	266.173
0.045545	243.397
0.093275	300.759
0.100094	324.8
0.138083	331.97
0.155616	334.501
0.150746	342.936
0.187761	337.032
0.203346	346.732
0.249128	351.372
0.303676	353.059
0.354329	355.168
0.782924	360.651
0.888125	362.76
0.941699	366.556
0.003465	107.163
0.003465	99.9927
0.003465	89.87
0.004439	82.278
0.005413	75.9514
0.005413	69.2029
0.002491	60.7674
0.002491	52.7536
0.003465	46.4269
0.004439	40.1003
0.000543	32.9301
0.004439	24.4945
0.001517	16.059
0.001517	9.31054
