Adsorption isotherm of Methane on CoPc-BPDA COF
DOI: 10.1039/c3ce41091a
Article source: Figure 3c
Adsorbate Methane: InChIKey VNWKTOKETHGBQD-UHFFFAOYSA-N
Kind: experiment
Temperature: 298 K
Tabular data in the source: 0
pressure (bar)	uptake ()
0.103312	0.475973
0.13119	0.802594
0.165264	1.02302
0.199337	1.31746
0.230313	1.51376
0.264387	1.81946
0.29846	1.98036
0.329436	2.14126
0.366607	2.36008
0.397583	2.63038
0.46573	2.77197
0.530779	3.38821
0.598926	3.9433
0.663976	4.16212
0.732123	4.36164
0.797172	4.68343
0.865319	5.07763
0.930368	5.48792
1.01091	5.98991
1.06357	6.2924
0.075658	0.327138
0.100196	0.220924
0.163586	0.794477
0.22902	1.28306
0.298544	1.79288
0.433502	2.72756
0.498936	3.23739
0.566416	3.68348
0.62776	3.98088
0.697284	4.38449
0.768853	4.76686
0.832242	5.12799
0.899722	5.63781
0.956977	5.91397
0.024538	0.050982
0.00409	0.050982
0.010224	-0.140202
0.034762	-0.246415
0.006134	-0.373871
0.00409	-0.586298
0.028628	-0.671269
0.00409	-0.841211
0.010224	-1.01115
