Adsorption isotherm of 1,2,4-Benzenetricarboxylic acid, Water on PANi/ANS
DOI: 10.1016/j.susmat.2017.04.004
Article source: Figure 8
Adsorbate 1,2,4-Benzenetricarboxylic acid: InChIKey ARCGXLSVLAOJQL-UHFFFAOYSA-N
Adsorbate Water: InChIKey XLYOFNOQVPJJNP-UHFFFAOYSA-N
Kind: experiment
Temperature: 298 K
Tabular data in the source: 0
pressure (bar)	1,2,4-Benzenetricarboxylic acid fraction	1,2,4-Benzenetricarboxylic acid uptake (mg/g)	Water fraction	Water uptake (mg/g)	total uptake (mg/g)
1.01325	0.694	38.544			
1.01325	4.511	71.085			
1.01325	8.275	103.523			
1.01325	12.971	133.939			
1.01325	22.439	155.316			
1.01325	55.463	190.267			
1.01325	102.121	196.456			
