Adsorption isotherm of 1,2,4,5-Benzenetetracarboxylic acid, Water on PANi/ANS
DOI: 10.1016/j.susmat.2017.04.004
Article source: Figure 8
Adsorbate 1,2,4,5-Benzenetetracarboxylic acid: InChIKey CYIDZMCFTVVTJO-UHFFFAOYSA-N
Adsorbate Water: InChIKey XLYOFNOQVPJJNP-UHFFFAOYSA-N
Kind: experiment
Temperature: 298 K
Tabular data in the source: 0
pressure (bar)	1,2,4,5-Benzenetetracarboxylic acid fraction	1,2,4,5-Benzenetetracarboxylic acid uptake (mg/g)	Water fraction	Water uptake (mg/g)	total uptake (mg/g)
1.01325	0.557	38.94			
1.01325	1.751	77.04			
1.01325	5.339	110.68			
1.01325	8.797	143.02			
1.01325	11.537	177.63			
1.01325	39.682	221.54			
1.01325	73.837	253.14			
