Adsorption isotherm of 1,2,4-Benzenetricarboxylic acid, Water on PANi/ANS
DOI: 10.1016/j.susmat.2017.04.004
Article source: Figure 5
Adsorbate 1,2,4-Benzenetricarboxylic acid: InChIKey ARCGXLSVLAOJQL-UHFFFAOYSA-N
Adsorbate Water: InChIKey XLYOFNOQVPJJNP-UHFFFAOYSA-N
Kind: experiment
Temperature: 298 K
Tabular data in the source: 0
pressure (bar)	1,2,4-Benzenetricarboxylic acid fraction	1,2,4-Benzenetricarboxylic acid uptake (mg/g)	Water fraction	Water uptake (mg/g)	total uptake (mg/g)
1.01325	0.09853	122.317			
1.01325	0.25529	171.226			
1.01325	0.50123	203.384			
1.01325	0.75264	205.988			
1.01325	0.99882	208.3			
1.01325	1.49644	209.139			
1.01325	2.00106	209.105			
