Adsorption isotherm of Benzene-1,2,3-tricarboxylic acid, Water on PANi/ANS
DOI: 10.1016/j.susmat.2017.04.004
Article source: Figure 5
Adsorbate Benzene-1,2,3-tricarboxylic acid: InChIKey UJMDYLWCYJJYMO-UHFFFAOYSA-N
Adsorbate Water: InChIKey XLYOFNOQVPJJNP-UHFFFAOYSA-N
Kind: experiment
Temperature: 298 K
Tabular data in the source: 0
pressure (bar)	Benzene-1,2,3-tricarboxylic acid fraction	Benzene-1,2,3-tricarboxylic acid uptake (mg/g)	Water fraction	Water uptake (mg/g)	total uptake (mg/g)
1.01325	0.09757	76.1734			
1.01325	0.24899	108.602			
1.01325	0.5039	134.354			
1.01325	0.75092	138.832			
1.01325	1.0032	141.115			
1.01325	1.4982	142.19			
1.01325	1.99757	142.815			
