Adsorption isotherm of 1,2,4,5-Benzenetetracarboxylic acid, Benzene-1,2,3-tricarboxylic acid, Water on PANi/ANS
DOI: 10.1016/j.susmat.2017.04.004
Article source: Figure 8
Adsorbate 1,2,4,5-Benzenetetracarboxylic acid: InChIKey CYIDZMCFTVVTJO-UHFFFAOYSA-N
Adsorbate Benzene-1,2,3-tricarboxylic acid: InChIKey UJMDYLWCYJJYMO-UHFFFAOYSA-N
Adsorbate Water: InChIKey XLYOFNOQVPJJNP-UHFFFAOYSA-N
Kind: experiment
Temperature: 298 K
Tabular data in the source: 0
pressure (bar)	1,2,4,5-Benzenetetracarboxylic acid fraction	1,2,4,5-Benzenetetracarboxylic acid uptake (mg/g)	Benzene-1,2,3-tricarboxylic acid fraction	Benzene-1,2,3-tricarboxylic acid uptake (mg/g)	Water fraction	Water uptake (mg/g)	total uptake (mg/g)
1.01325	0.918	18.1	3.7	12.861			
1.01325	1.123	38.39	6.104	28.5			
1.01325	3.662	53.02	10.578	39.541			
1.01325	5.682	69.7	16.026	48.191			
1.01325	9.62	81.5	21.962	55.922			
1.01325	25.014	100.2	42.46	64.952			
1.01325	45.593	109.89	65.271	70.489			
