Adsorption isotherm of 1,2,4-Benzenetricarboxylic acid, 1,2,4,5-Benzenetetracarboxylic acid, Benzene-1,2,3-tricarboxylic acid, Water on PANi/ANS
DOI: 10.1016/j.susmat.2017.04.004
Article source: Figure 8
Adsorbate 1,2,4-Benzenetricarboxylic acid: InChIKey ARCGXLSVLAOJQL-UHFFFAOYSA-N
Adsorbate 1,2,4,5-Benzenetetracarboxylic acid: InChIKey CYIDZMCFTVVTJO-UHFFFAOYSA-N
Adsorbate Benzene-1,2,3-tricarboxylic acid: InChIKey UJMDYLWCYJJYMO-UHFFFAOYSA-N
Adsorbate Water: InChIKey XLYOFNOQVPJJNP-UHFFFAOYSA-N
Kind: experiment
Temperature: 298 K
Tabular data in the source: 0
pressure (bar)	1,2,4-Benzenetricarboxylic acid fraction	1,2,4-Benzenetricarboxylic acid uptake (mg/g)	1,2,4,5-Benzenetetracarboxylic acid fraction	1,2,4,5-Benzenetetracarboxylic acid uptake (mg/g)	Benzene-1,2,3-tricarboxylic acid fraction	Benzene-1,2,3-tricarboxylic acid uptake (mg/g)	Water fraction	Water uptake (mg/g)	total uptake (mg/g)
1.01325	1.649	10.185	0.711	12.2	2.615	8.445			
1.01325	2.221	22.354	1.592	23.75	4.299	18.196			
1.01325	3.653	32.452	2.42	35.04	7.445	24.821			
1.01325	5.371	42.291	3.714	46.08	10.467	32.55			
1.01325	8.424	50.578	5.787	55.83	14.1	38.072			
1.01325	17.013	66.117	14.494	70.96	25.614	48.934			
1.01325	27.797	78.033	23.876	85.56	39.321	54.28			
