Adsorption isotherm of 1,2,4,5-Benzenetetracarboxylic acid, Water on PANi/ANS
DOI: 10.1016/j.susmat.2017.04.004
Article source: Figure 5
Adsorbate 1,2,4,5-Benzenetetracarboxylic acid: InChIKey CYIDZMCFTVVTJO-UHFFFAOYSA-N
Adsorbate Water: InChIKey XLYOFNOQVPJJNP-UHFFFAOYSA-N
Kind: experiment
Temperature: 298 K
Tabular data in the source: 0
pressure (bar)	1,2,4,5-Benzenetetracarboxylic acid fraction	1,2,4,5-Benzenetetracarboxylic acid uptake (mg/g)	Water fraction	Water uptake (mg/g)	total uptake (mg/g)
1.01325	0.09952	180.941			
1.01325	0.24991	230.527			
1.01325	0.5027	262.674			
1.01325	0.75127	265.11			
1.01325	1.00096	265.671			
1.01325	1.49814	266.564			
1.01325	2.00081	267.222			
