Adsorption isotherm of 1,2,4-Benzenetricarboxylic acid, Benzene-1,2,3-tricarboxylic acid, Water on PANi/ANS
DOI: 10.1016/j.susmat.2017.04.004
Article source: Figure 8
Adsorbate 1,2,4-Benzenetricarboxylic acid: InChIKey ARCGXLSVLAOJQL-UHFFFAOYSA-N
Adsorbate Benzene-1,2,3-tricarboxylic acid: InChIKey UJMDYLWCYJJYMO-UHFFFAOYSA-N
Adsorbate Water: InChIKey XLYOFNOQVPJJNP-UHFFFAOYSA-N
Kind: experiment
Temperature: 298 K
Tabular data in the source: 0
pressure (bar)	1,2,4-Benzenetricarboxylic acid fraction	1,2,4-Benzenetricarboxylic acid uptake (mg/g)	Benzene-1,2,3-tricarboxylic acid fraction	Benzene-1,2,3-tricarboxylic acid uptake (mg/g)	Water fraction	Water uptake (mg/g)	total uptake (mg/g)
1.01325	2.699	15.363	2.239	16.355			
1.01325	3.939	32.711	3.792	32.177			
1.01325	6.42	46.952	6.439	47.08			
1.01325	9.856	60.159	10.549	58.12			
1.01325	14.914	70.776	15.753	68.242			
1.01325	30.66	88.908	34.303	81.502			
1.01325	51.368	98.24	57.723	85.199			
