Adsorption isotherm of Benzene-1,2,3-tricarboxylic acid, Water on PANi/ANS
DOI: 10.1016/j.susmat.2017.04.004
Article source: Figure 8
Adsorbate Benzene-1,2,3-tricarboxylic acid: InChIKey UJMDYLWCYJJYMO-UHFFFAOYSA-N
Adsorbate Water: InChIKey XLYOFNOQVPJJNP-UHFFFAOYSA-N
Kind: experiment
Temperature: 298 K
Tabular data in the source: 0
pressure (bar)	Benzene-1,2,3-tricarboxylic acid fraction	Benzene-1,2,3-tricarboxylic acid uptake (mg/g)	Water fraction	Water uptake (mg/g)	total uptake (mg/g)
1.01325	1.726	36.723			
1.01325	6.594	66.074			
1.01325	13.875	92.361			
1.01325	25.796	108.578			
1.01325	40.035	120.416			
1.01325	85.105	130.379			
1.01325	131.142	137.716			
