Adsorption isotherm of 1,2,4-Benzenetricarboxylic acid, 1,2,4,5-Benzenetetracarboxylic acid, Water on PANi/ANS
DOI: 10.1016/j.susmat.2017.04.004
Article source: Figure 8
Adsorbate 1,2,4-Benzenetricarboxylic acid: InChIKey ARCGXLSVLAOJQL-UHFFFAOYSA-N
Adsorbate 1,2,4,5-Benzenetetracarboxylic acid: InChIKey CYIDZMCFTVVTJO-UHFFFAOYSA-N
Adsorbate Water: InChIKey XLYOFNOQVPJJNP-UHFFFAOYSA-N
Kind: experiment
Temperature: 298 K
Tabular data in the source: 0
pressure (bar)	1,2,4-Benzenetricarboxylic acid fraction	1,2,4-Benzenetricarboxylic acid uptake (mg/g)	1,2,4,5-Benzenetetracarboxylic acid fraction	1,2,4,5-Benzenetetracarboxylic acid uptake (mg/g)	Water fraction	Water uptake (mg/g)	total uptake (mg/g)
1.01325	3.557	14.328	1.54	18.36			
1.01325	5.561	28.828	1.901	36.33			
1.01325	8.806	43.07	5.529	48.65			
1.01325	13.768	52.393	8.586	63.02			
1.01325	18.826	62.234	12.887	75.07			
1.01325	36.767	75.966	29.94	90.17			
1.01325	56.521	87.627	49.69	100.63			
