Adsorption isotherm of Nitrogen on JUC-565
DOI: 10.1002/anie.202108357
Article source: Figure 3
Adsorbate Nitrogen: InChIKey IJGRMHOSHXDMSA-UHFFFAOYSA-N
Kind: experiment
Temperature: 77 K
Tabular data in the source: 0
pressure (bar)	uptake (cm3(STP)/g)
0.006988	77.2201
0.013976	80.3089
0.026205	85.7143
0.038434	89.5753
0.048916	91.8919
0.083855	97.2973
0.122289	99.6139
0.157228	100.386
0.193915	102.703
0.227108	104.247
0.263794	105.019
0.298734	105.792
0.333674	106.564
0.368613	107.336
0.4053	108.108
0.44024	108.88
0.476926	109.653
0.511866	110.425
0.546806	111.197
0.583492	111.969
0.616685	113.514
0.651625	115.058
0.688311	115.83
0.724998	118.147
0.759937	120.463
0.794877	122.78
0.82807	127.413
0.864756	132.819
0.897949	141.313
0.934636	162.162
0.973069	210.039
1.00277	304.247
1.00801	331.274
1.00801	340.541
1.0115	366.023
1.00277	349.035
1.00102	335.135
0.971322	268.726
0.929395	216.988
0.901443	195.367
0.854275	172.973
0.817588	162.934
0.794877	158.301
0.758191	152.124
0.721504	148.263
0.686564	145.946
0.649878	143.629
0.613191	141.313
0.578251	139.768
0.543312	138.996
0.508372	138.224
0.469938	128.185
0.428011	128.185
0.380842	126.641
0.345903	126.641
0.328433	126.641
0.29524	125.869
0.258553	125.097
0.223614	125.097
0.188674	123.552
0.151987	122.78
0.117048	122.008
0.082108	119.691
0.052409	116.602
