Adsorption isotherm of Nitrogen on JUC-566
DOI: 10.1002/anie.202108357
Article source: Figure 3
Adsorbate Nitrogen: InChIKey IJGRMHOSHXDMSA-UHFFFAOYSA-N
Kind: experiment
Temperature: 77 K
Tabular data in the source: 0
pressure (bar)	uptake (cm3(STP)/g)
0.001564	76.7021
0.007818	115.957
0.0172	123.617
0.031273	131.277
0.035964	133.67
0.053164	139.894
0.08131	144.681
0.118838	148.032
0.156366	150.904
0.190766	153.298
0.22673	155.691
0.262694	157.128
0.297095	158.085
0.333059	159.521
0.367459	160.479
0.403424	161.915
0.437824	162.872
0.475352	163.83
0.509752	164.787
0.544153	165.745
0.581681	166.702
0.616081	167.66
0.652045	168.617
0.688009	169.574
0.72241	171.489
0.75681	173.404
0.792774	174.84
0.825611	179.149
0.864703	182.021
0.897539	186.809
0.93194	193.032
0.967904	201.17
0.997613	221.277
1.00387	231.809
1.00387	236.596
1.00543	243.777
0.997613	234.202
0.969468	215.532
0.919431	207.872
0.878775	205
0.841248	203.085
0.824047	202.606
0.789647	200.691
0.753683	199.734
0.717719	198.777
0.681755	197.819
0.647354	197.34
0.61139	196.862
0.575426	196.862
0.541025	196.383
0.505061	195.426
0.472225	183.936
0.425315	182.021
0.378405	180.585
0.344005	180.106
0.328368	179.628
0.29084	179.149
0.25644	179.149
0.222039	177.713
0.187639	177.234
0.150111	175.798
0.115711	173.404
0.08131	170.532
0.050037	165.266
