Adsorption isotherm of Methane on Zn4O
DOI: 10.1007/s10450-014-9620-1
Adsorbate Methane: InChIKey VNWKTOKETHGBQD-UHFFFAOYSA-N
Temperature: 298 K
Tabular data in the source: 0
pressure (bar)	uptake (g/g)
1.70404	0.0445205
2.15247	0.0490868
2.42152	0.053653
2.95964	0.0616438
3.58744	0.0673516
4.12556	0.0730594
4.84305	0.0799087
5.47085	0.0856164
6.27803	0.0924658
6.81614	0.0947489
7.62332	0.0993151
8.43049	0.105023
9.23767	0.109589
10.1345	0.113014
11.3004	0.119863
12.1973	0.122146
13.0045	0.125571
13.8117	0.127854
14.7085	0.131279
15.3363	0.133562
16.1435	0.135845
17.0404	0.138128
17.9372	0.140411
18.7444	0.142694
19.5516	0.146119
20.4484	0.14726
21.3453	0.149543
22.1525	0.150685
23.0493	0.152968
23.9462	0.15411
24.7534	0.155251
25.6502	0.157534
26.5471	0.158676
27.4439	0.1621
28.4305	0.1621
28.6099	0.1621
29.5067	0.164384
30.3139	0.165525
31.2108	0.165525
32.1076	0.166667
33.0045	0.167808
33.9013	0.16895
