Adsorption isotherm of Methane on Zn4O (rho=300kg/m^3)
DOI: 10.1007/s10450-014-9620-1
Adsorbate Methane: InChIKey VNWKTOKETHGBQD-UHFFFAOYSA-N
Temperature: 298 K
Tabular data in the source: 0
pressure (bar)	uptake (g/g)
1.88341	0.105023
2.33184	0.114155
2.51121	0.124429
2.86996	0.134703
3.04933	0.142694
3.40807	0.15411
4.03587	0.1621
4.21525	0.167808
4.66368	0.178082
5.38117	0.189498
5.91928	0.19863
6.4574	0.207763
7.0852	0.215753
7.53363	0.222603
8.16143	0.230594
8.78924	0.238584
9.50673	0.245434
9.77578	0.25
10.4933	0.256849
11.2108	0.262557
11.8386	0.269406
12.6457	0.275114
13.3632	0.280822
14.1704	0.28653
14.9776	0.293379
15.7848	0.297945
16.5919	0.303653
17.3094	0.308219
18.1166	0.311644
18.9238	0.317352
19.4619	0.320776
20.2691	0.325342
21.1659	0.328767
21.9731	0.332192
22.7803	0.336758
23.5874	0.340183
24.4843	0.342466
25.3812	0.34589
26.009	0.350457
26.9058	0.35274
27.713	0.355023
28.6099	0.358447
29.417	0.360731
30.4036	0.364155
31.2108	0.366438
32.0179	0.368721
32.9148	0.371005
33.722	0.373288
34.6188	0.373288
