Adsorption isotherm of Nitrogen on PCN-61
DOI: 10.1021/ja110042b
Adsorbate Nitrogen: InChIKey IJGRMHOSHXDMSA-UHFFFAOYSA-N
Temperature: 298 K
Tabular data in the source: 0
pressure (bar)	uptake (mmol/g)
0.508906	0.150033
1.52672	0.376025
2.49364	0.675902
3.51145	0.82782
4.58015	1.20215
5.54707	1.35388
6.51399	1.57968
7.53181	1.80567
8.49873	2.03148
9.51654	2.18339
10.5344	2.40939
11.5522	2.5613
12.5191	2.78711
13.486	2.93884
14.5038	3.09075
15.4707	3.24248
16.4885	3.3944
17.5064	3.54632
18.4733	3.62398
19.542	3.85016
20	3.92593
