Adsorption isotherm of Carbon Dioxide on PCN-66
DOI: 10.1021/ja110042b
Adsorbate Carbon Dioxide: InChIKey CURLTUGMZLYLDI-UHFFFAOYSA-N
Temperature: 298 K
Tabular data in the source: 0
pressure (bar)	uptake (mmol/g)
1.83206	3.1179
2.54453	4.15757
3.15522	5.1228
4.02036	6.31119
5.03817	7.57422
5.64885	8.24314
6.00509	8.68891
6.97201	9.95175
8.04071	11.0668
8.90585	12.2552
9.77099	13.0732
10.9415	14.2627
11.9593	15.3036
12.9771	16.4184
14.1476	17.4598
15.1654	18.4265
16.4377	19.6164
17.4555	20.1387
