Adsorption isotherm of Carbon Dioxide on PCN-68
DOI: 10.1021/ja110042b
Adsorbate Carbon Dioxide: InChIKey CURLTUGMZLYLDI-UHFFFAOYSA-N
Temperature: 298 K
Tabular data in the source: 0
pressure (bar)	uptake (mmol/g)
1.01781	1.18895
2.23919	2.74903
3.257	3.93799
4.02036	4.90378
5.54707	6.61314
6.4631	7.65357
7.48092	8.9166
8.95674	10.4035
9.97455	11.4444
10.9924	12.6333
12.4682	14.1943
13.486	15.3092
14.9618	17.0925
15.9796	18.2073
16.9975	19.3963
18.4733	20.8832
19.9491	22.222
