Adsorption isotherm of Carbon Dioxide on PCN-61
DOI: 10.1021/ja110042b
Adsorbate Carbon Dioxide: InChIKey CURLTUGMZLYLDI-UHFFFAOYSA-N
Temperature: 298 K
Tabular data in the source: 0
pressure (bar)	uptake (mmol/g)
0.458015	1.85355
1.47583	4.52398
2.49364	6.52775
3.46056	8.23504
4.47837	9.72029
5.44529	11.0572
6.4631	12.2462
7.48092	13.361
8.44784	14.3276
9.46565	15.2202
10.4326	16.0386
11.4504	16.8572
12.4173	17.5275
13.4351	18.1979
14.4529	18.8683
15.4707	19.3906
17.4555	20.435
19.4402	21.2572
19.9491	21.4813
