Adsorption isotherm of Nitrogen on C33H15Cu3N3O18
DOI: 10.1021/ja110042b
Adsorbate Nitrogen: InChIKey IJGRMHOSHXDMSA-UHFFFAOYSA-N
Temperature: 298 K
Tabular data in the source: 0
pressure (bar)	uptake (mmol/g)
2.49364	0.824051
3.56234	1.1243
4.47837	1.34992
5.54707	1.65017
6.51399	1.87598
7.53181	2.10197
8.49873	2.40185
9.51654	2.55376
10.5344	2.85383
11.4504	3.00537
12.5191	3.30563
13.4351	3.45717
14.5038	3.60927
15.4707	3.83508
16.4885	4.06107
17.4555	4.13872
18.4224	4.29045
19.4402	4.51645
20	4.51852
