Adsorption isotherm of Carbon Dioxide on C33H15Cu3N3O18
DOI: 10.1021/ja110042b
Adsorbate Carbon Dioxide: InChIKey CURLTUGMZLYLDI-UHFFFAOYSA-N
Temperature: 298 K
Tabular data in the source: 0
pressure (bar)	uptake (mmol/g)
0.661578	3.63208
0.814249	4.37339
0.86514	4.66987
1.01781	5.41118
1.67939	7.63585
1.88295	8.30327
2.1374	8.97088
2.49364	9.86109
2.79898	10.4548
3.05344	11.0483
3.46056	11.8647
3.81679	12.3104
4.12214	12.8301
4.47837	13.424
4.83461	13.7957
5.19084	14.3155
5.49618	14.687
5.90331	15.133
6.31043	15.5789
6.4631	15.8017
6.87023	16.1736
7.27735	16.6195
7.43003	16.8423
7.73537	17.0657
8.19338	17.4378
8.44784	17.6609
8.85496	17.9587
9.26209	18.3306
9.46565	18.4795
9.87277	18.7773
10.3308	19.1494
10.4326	19.2238
10.8397	19.5216
11.3995	19.8941
11.7557	20.1176
12.2646	20.4158
12.4173	20.4904
12.8244	20.7142
13.3333	21.0123
13.4351	21.0127
13.8931	21.2366
14.402	21.6089
14.8092	21.7586
15.4198	22.0571
15.8779	22.207
16.3868	22.5051
16.7939	22.5807
17.2519	22.8046
17.659	22.9543
18.0153	23.1038
18.4224	23.1793
18.8804	23.3292
