Adsorption isotherm of Water on Zeolite NaY52
DOI: 10.1007/s10450-008-9123-z
Adsorbate Water: InChIKey XLYOFNOQVPJJNP-UHFFFAOYSA-N
Temperature: 300 K
Tabular data in the source: 0
pressure (bar)	uptake (molecules/unitcell)
8.9e-05	56.7345
0.000174	1.32237
0.000174	86.3441
0.000216	110.032
0.000343	129.066
0.000724	166.713
0.00106191	191.669
0.0015695	203.09
0.00254238	213.665
0.00406516	222.125
0.00605323	228.047
0.007999	233.123
0.0100717	234.392
0.0151053	239.891
0.0200543	243.698
0.0241997	248.774
0.0259762	259.348
