Adsorption isotherm of Water on Zeolite NaY56
DOI: 10.1007/s10450-008-9123-z
Adsorbate Water: InChIKey XLYOFNOQVPJJNP-UHFFFAOYSA-N
Temperature: 300 K
Tabular data in the source: 0
pressure (bar)	uptake (molecules/unitcell)
5.03e-08	9.37951
9.57e-08	12.2962
5.13e-06	21.0462
7.3e-05	64.7577
0.000250234	74.8265
0.000434091	94.293
0.000642315	105.704
0.000812881	129.87
0.00110971	187.598
