Adsorption isotherm of Water on Zeolite NaY52
DOI: 10.1007/s10450-008-9123-z
Adsorbate Water: InChIKey XLYOFNOQVPJJNP-UHFFFAOYSA-N
Temperature: 300 K
Tabular data in the source: 0
pressure (bar)	uptake (molecules/unitcell)
9.79e-08	3.96284
2.21e-06	4.79618
4.16e-06	7.29618
5.02e-06	8.54618
6.64e-06	13.9628
9.03e-06	31.0462
9.58e-06	36.4628
0.000104035	43.9487
0.000248019	63.4152
0.000449597	90.9367
0.000735351	127.185
0.000928069	163.432
0.00103218	188.94
0.00114515	205.05
0.00132679	225.188
0.0014885	229.216
