Adsorption isotherm of Water on Zeolite NaY56
DOI: 10.1007/s10450-008-9123-z
Adsorbate Water: InChIKey XLYOFNOQVPJJNP-UHFFFAOYSA-N
Temperature: 300 K
Tabular data in the source: 0
pressure (bar)	uptake (molecules/unitcell)
0.000343	122.299
0.000597	147.255
0.000977	171.789
0.0014849	192.515
0.001781	199.283
0.00266928	207.743
0.00503804	219.587
0.00749141	229.316
0.010537	233.969
0.0145131	236.507
0.0167973	241.583
0.0184046	246.236
0.0200966	250.043
0.0231422	251.735
0.0267376	253.426
