Adsorption isotherm of Water on Zeolite NaY56
DOI: 10.1007/s10450-008-9123-z
Adsorbate Water: InChIKey XLYOFNOQVPJJNP-UHFFFAOYSA-N
Temperature: 300 K
Tabular data in the source: 0
pressure (bar)	uptake (molecules/unitcell)
4.67e-05	118.069
8.9e-05	24.164
0.000131	51.6586
0.000131	68.1553
0.000174	149.793
0.000597	190.823
0.00106191	216.626
0.00250008	246.236
0.00503804	260.617
0.0101563	271.615
0.0299524	289.381
