Adsorption isotherm of Water on Zeolite NaY56
DOI: 10.1007/s10450-008-9123-z
Adsorbate Water: InChIKey XLYOFNOQVPJJNP-UHFFFAOYSA-N
Temperature: 300 K
Tabular data in the source: 0
pressure (bar)	uptake (molecules/unitcell)
6.07e-08	3.54618
7.56e-08	9.37951
9.81e-08	18.9628
1.36e-06	24.3795
3.78e-06	31.8795
6.28e-06	39.3795
8.3e-06	50.2128
9.95e-06	60.2128
0.000341055	49.9901
0.000511621	53.3463
0.000894842	77.5116
0.00103883	120.472
0.00117395	192.968
0.00151951	227.873
