Adsorption isotherm of Water on Zeolite NaY56
DOI: 10.1007/s10450-008-9123-z
Adsorbate Water: InChIKey XLYOFNOQVPJJNP-UHFFFAOYSA-N
Temperature: 300 K
Tabular data in the source: 0
pressure (bar)	uptake (molecules/unitcell)
0.000258	56.3115
0.000554	81.2681
0.00106191	118.915
0.00266928	195.899
0.00516494	216.626
0.0100294	232.7
0.0199274	250.466
0.0298255	255.964
