Adsorption isotherm of Water on Zeolite NaY56
DOI: 10.1007/s10450-008-9123-z
Adsorbate Water: InChIKey XLYOFNOQVPJJNP-UHFFFAOYSA-N
Temperature: 300 K
Tabular data in the source: 0
pressure (bar)	uptake (molecules/unitcell)
4.64e-09	33.9628
3.48e-08	45.6295
4.84e-08	49.3795
9.94e-08	63.9628
9.94e-06	116.463
0.000523548	150.213
0.000845298	186.88
0.00102405	213.963
0.00120275	243.312
0.00135338	259.422
0.00148629	269.491
