Adsorption isotherm of Carbon Dioxide on CALF-30 after 24h at 80C and 90%RH
DOI: 10.1021/ic502478u
Article source: Figure 4
Adsorbate Carbon Dioxide: InChIKey CURLTUGMZLYLDI-UHFFFAOYSA-N
Kind: experiment
Temperature: 195 K
Tabular data in the source: 0
pressure (bar)	uptake (cm3(STP)/g)
0.005217	5.21739
0.006522	32.3832
0.007826	1.40187
0.00913	35.4673
0.010435	1.68224
0.013043	1.96262
0.016956	2.38318
0.022174	2.80374
0.026087	3.2243
0.031304	3.92523
0.036522	4.90654
0.041739	6.30841
0.045652	7.85047
0.049565	9.6729
0.053478	11.7757
0.058696	13.4579
0.062609	15.2804
0.065217	47.6636
0.066522	17.1028
0.070435	18.6449
0.075652	20.3271
0.08087	22.0093
0.083478	23.5514
0.087391	49.0654
0.088696	25.0935
0.123913	34.6262
0.130435	51.1682
0.173478	52.4299
0.18	43.0374
0.216522	53.6916
0.223043	47.8037
0.259565	54.6729
0.266087	50.3271
0.302609	55.6542
0.307826	52.0093
0.344348	53.1308
0.345652	56.215
0.387391	57.0561
0.388696	54.2523
0.430435	57.4766
0.431739	55.0935
0.473478	55.9346
0.476087	58.1776
0.516522	58.5981
0.559565	57.1963
0.56087	59.0187
0.603913	57.8972
0.645652	58.5981
0.646957	59.7196
0.670435	60
0.688696	59.1589
0.713478	60.2804
0.755217	59.8598
0.756522	60.5607
0.776087	60.2804
0.798261	60.8411
0.81913	61.1215
