Adsorption isotherm of Carbon Dioxide on CALF-30 post activation
DOI: 10.1021/ic502478u
Article source: Figure 4
Adsorbate Carbon Dioxide: InChIKey CURLTUGMZLYLDI-UHFFFAOYSA-N
Kind: experiment
Temperature: 195 K
Tabular data in the source: 0
pressure (bar)	uptake (cm3(STP)/g)
0.002609	7.57009
0.003913	19.6262
0.005217	31.6822
0.007826	34.3458
0.011739	1.96262
0.018261	2.94393
0.02087	43.1776
0.024783	3.92523
0.032609	5.74766
0.037826	7.28972
0.043043	8.41121
0.048261	9.39252
0.052174	10.2336
0.058696	11.4953
0.065217	12.4766
0.071739	13.5981
0.078261	14.4393
0.083478	15.4206
0.088696	49.2056
0.09	15.9813
0.126522	23.1308
0.130435	50.6075
0.168261	34.486
0.172174	51.729
0.215217	41.9159
0.216522	52.5701
0.259565	53.1308
0.263478	46.8224
0.302609	53.5514
0.30913	49.3458
0.344348	53.972
0.363913	50.8879
0.387391	54.1121
0.406957	51.729
0.430435	54.6729
0.452609	52.2897
0.474783	54.8131
0.476087	52.7103
0.517826	52.9907
0.559565	55.2336
0.56087	53.4112
0.584348	55.3738
0.605217	53.6916
0.645652	55.3738
0.66913	55.3738
0.69	54.2523
0.713478	55.3738
0.752609	54.6729
0.755217	55.2336
0.795652	54.9533
0.816522	55.3738
