Adsorption isotherm of Carbon Dioxide on CALF-30 after 24h at 25C and 90%RH
DOI: 10.1021/ic502478u
Article source: Figure 4
Adsorbate Carbon Dioxide: InChIKey CURLTUGMZLYLDI-UHFFFAOYSA-N
Kind: experiment
Temperature: 195 K
Tabular data in the source: 0
pressure (bar)	uptake (cm3(STP)/g)
0.001304	2.80374
0.002609	9.6729
0.003913	1.26168
0.005217	24.1121
0.007826	33.6449
0.014348	2.38318
0.02087	3.08411
0.022174	43.5981
0.027391	3.78505
0.031304	4.34579
0.036522	5.04673
0.041739	6.58879
0.044348	46.6822
0.045652	7.85047
0.049565	9.11215
0.054783	10.3738
0.06	11.4953
0.065217	12.3364
0.066522	48.3645
0.070435	13.3178
0.075652	14.4393
0.08087	15.1402
0.086087	15.8411
0.088696	49.6262
0.091304	16.8224
0.123913	25.0935
0.130435	51.729
0.169565	38.6916
0.172174	52.8505
0.215217	54.2523
0.220435	46.1215
0.259565	55.0935
0.266087	50.1869
0.302609	55.7944
0.30913	52.2897
0.345652	56.6355
0.363913	53.972
0.388696	57.0561
0.406957	54.9533
0.430435	55.514
0.431739	57.8972
0.474783	58.4579
0.516522	58.5981
0.517826	56.7757
0.559565	57.4766
0.56087	59.0187
0.602609	58.5981
0.603913	59.4393
0.645652	59.8598
0.670435	60
0.688696	59.1589
0.713478	60.4206
0.755217	59.8598
0.756522	60.5607
0.776087	60.2804
0.798261	60.9813
0.816522	61.1215
