Adsorption isotherm of Ethane on UTSA
DOI: 10.1021/acs.jpcc.6b10751
Article source: Figure 16B
Adsorbate Ethane: InChIKey OTMSDBZUPAUEDD-UHFFFAOYSA-N
Kind: experiment
Temperature: 296 K
Tabular data in the source: 0
pressure (bar)	uptake (mmol/g)
0.011229	0.142814
0.016855	0.26296
0.033715	0.353069
0.064634	0.63341
0.096252	0.86369
0.128572	1.08396
0.159486	1.29421
0.191805	1.50447
0.222016	1.6947
0.252226	1.86491
0.288055	2.05514
0.316859	2.20532
0.348475	2.40557
0.380087	2.53572
0.413108	2.73597
0.443314	2.85611
0.472821	3.01631
0.503029	3.15648
0.534641	3.29665
0.569062	3.4168
0.595758	3.54695
0.630882	3.69714
0.661088	3.80727
0.691996	3.90739
0.725715	4.04756
0.755218	4.14768
0.788935	4.24781
0.821947	4.29787
0.850746	4.36795
0.883058	4.46807
0.913262	4.53816
0.946275	4.60824
0.975072	4.64829
