Adsorption isotherm of Ethane on NOTT-101
DOI: 10.1021/acs.jpcc.6b10751
Article source: Figure 6B
Adsorbate Ethane: InChIKey OTMSDBZUPAUEDD-UHFFFAOYSA-N
Kind: experiment
Temperature: 273 K
Tabular data in the source: 0
pressure (bar)	uptake (mmol/g)
0.0173	0.260555
0.033333	0.564536
0.061181	0.955368
0.094937	1.43305
0.127848	1.86731
0.157384	2.30157
0.189451	2.7503
0.218143	3.18456
0.250211	3.66224
0.283966	4.2123
0.316034	4.71894
0.348101	5.19662
0.379325	5.64536
0.411392	6.20989
0.442616	6.6152
0.474684	7.06393
0.505063	7.46924
0.533755	7.8456
0.566667	8.22195
0.598734	8.58384
0.627426	8.85887
0.665401	9.09047
0.694093	9.40893
0.721941	9.61158
0.757384	9.85766
0.789451	10.0893
0.818143	10.2051
0.850211	10.4077
0.880591	10.5814
0.911814	10.6972
0.940506	10.8565
0.975949	11.0302
