Adsorption isotherm of Methane on UMCM-150
DOI: 10.1021/acs.jpcc.6b10751
Article source: Figure 13A
Adsorbate Methane: InChIKey VNWKTOKETHGBQD-UHFFFAOYSA-N
Kind: experiment
Temperature: 296 K
Tabular data in the source: 0
pressure (bar)	uptake (mmol/g)
0.137935	0.09986
0.277394	0.187193
0.470091	0.349812
0.661954	0.470271
0.832685	0.578684
