Adsorption isotherm of Ethene on UTSA
DOI: 10.1021/acs.jpcc.6b10751
Article source: Figure 16C
Adsorbate Ethene: InChIKey VGGSQFUCUMXWEO-UHFFFAOYSA-N
Kind: experiment
Temperature: 296 K
Tabular data in the source: 0
pressure (bar)	uptake (mmol/g)
0.005189	0.292521
0.018313	0.50892
0.032132	0.776897
0.065277	1.20954
0.094973	1.64226
0.128101	1.90981
0.158476	2.22901
0.192297	2.52749
0.220592	2.73324
0.250956	2.94925
0.283388	3.14458
0.317193	3.28829
0.352383	3.48356
0.380669	3.59644
0.411714	3.71957
0.446896	3.84261
0.474492	3.9555
0.503466	4.05804
0.533816	4.11927
0.566927	4.22172
0.595213	4.3346
0.633834	4.36469
0.662121	4.48788
0.696604	4.50775
0.723509	4.61034
0.756958	4.64055
0.793859	4.70164
0.822138	4.7526
0.851798	4.81385
0.880765	4.84416
0.912493	4.90537
0.9456	4.95622
0.978707	5.00708
