Adsorption isotherm of Ethane on PCN-16
DOI: 10.1021/acs.jpcc.6b10751
Article source: Figure 4B
Adsorbate Ethane: InChIKey OTMSDBZUPAUEDD-UHFFFAOYSA-N
Kind: experiment
Temperature: 296 K
Tabular data in the source: 0
pressure (bar)	uptake (mmol/g)
0.019127	0.172703
0.034229	0.259102
0.061408	0.535397
0.098659	0.760017
0.12584	0.984551
0.159061	1.2609
0.189261	1.51997
0.221476	1.77905
0.254698	2.03814
0.284899	2.27996
0.316105	2.59079
0.349328	2.81538
0.379528	3.0917
0.410735	3.36803
0.440938	3.57534
0.475167	3.81718
0.503352	4.11074
0.536575	4.33533
0.569798	4.57717
0.596981	4.74994
0.629196	5.00902
0.660405	5.23359
0.692621	5.45817
0.726854	5.61375
0.755043	5.80378
0.78424	5.99382
0.817466	6.1494
0.851697	6.35674
0.878883	6.46049
0.913115	6.65058
0.943823	6.81476
0.976548	6.90993
