Adsorption isotherm of Ethane on NOTT-101
DOI: 10.1021/acs.jpcc.6b10751
Article source: Figure 6B
Adsorbate Ethane: InChIKey OTMSDBZUPAUEDD-UHFFFAOYSA-N
Kind: experiment
Temperature: 296 K
Tabular data in the source: 0
pressure (bar)	uptake (mmol/g)
0.018143	0.188179
0.030802	0.405308
0.063713	0.636912
0.095781	0.926417
0.129536	1.18697
0.15654	1.41858
0.193671	1.67913
0.222363	1.95416
0.25443	2.14234
0.286498	2.47527
0.316034	2.6924
0.348101	2.98191
0.381013	3.18456
0.415612	3.45959
0.442616	3.73462
0.475527	3.93727
0.505907	4.22678
0.538819	4.53076
0.567511	4.74789
0.601266	5.03739
0.630802	5.22557
0.662025	5.47165
0.694093	5.68878
0.725316	5.90591
0.754008	6.12304
0.790295	6.36912
0.818987	6.6152
0.848523	6.77443
0.879747	6.99156
0.914346	7.16526
0.944726	7.31001
0.972574	7.49819
