Adsorption isotherm of Methane on UTSA
DOI: 10.1021/acs.jpcc.6b10751
Article source: Figure 16A
Adsorbate Methane: InChIKey VNWKTOKETHGBQD-UHFFFAOYSA-N
Kind: experiment
Temperature: 273 K
Tabular data in the source: 0
pressure (bar)	uptake (mmol/g)
0.13942	0.290238
0.363413	0.63286
0.543635	0.867335
0.711234	1.06276
0.858611	1.25515
