Adsorption isotherm of Ethene on NOTT-101
DOI: 10.1021/acs.jpcc.6b10751
Article source: Figure 6C
Adsorbate Ethene: InChIKey VGGSQFUCUMXWEO-UHFFFAOYSA-N
Kind: experiment
Temperature: 296 K
Tabular data in the source: 0
pressure (bar)	uptake (mmol/g)
0.009453	0.347796
0.017409	0.543936
0.032323	0.811328
0.06116	1.39966
0.092971	1.8095
0.119811	2.1659
0.1546	2.52216
0.188394	2.86059
0.220199	3.12768
0.252994	3.32338
0.279831	3.6084
0.309647	3.83984
0.342443	4.07122
0.379211	4.23116
0.411013	4.44472
0.440826	4.60478
0.474616	4.83615
0.504428	4.96053
0.537222	5.13838
0.569023	5.33409
0.596848	5.4585
0.62666	5.60072
0.664421	5.76064
0.693241	5.93857
0.722057	6.02727
0.75187	6.18734
0.785653	6.24026
0.814968	6.38249
0.850247	6.57815
0.881051	6.66681
0.909866	6.73768
0.939679	6.89774
0.973463	6.98636
