Adsorption isotherm of Methane on PCN-16
DOI: 10.1021/acs.jpcc.6b10751
Article source: Figure 4A
Adsorbate Methane: InChIKey VNWKTOKETHGBQD-UHFFFAOYSA-N
Kind: experiment
Temperature: 296 K
Tabular data in the source: 0
pressure (bar)	uptake (mmol/g)
0.127852	0.106344
0.302014	0.254139
0.470135	0.398327
0.615105	0.535278
0.735908	0.625423
0.871816	0.74797
