Adsorption isotherm of Ethane on PCN-16
DOI: 10.1021/acs.jpcc.6b10751
Article source: Figure 4B
Adsorbate Ethane: InChIKey OTMSDBZUPAUEDD-UHFFFAOYSA-N
Kind: experiment
Temperature: 273 K
Tabular data in the source: 0
pressure (bar)	uptake (mmol/g)
0.016103	0.241692
0.032201	0.586906
0.066415	1.19108
0.097608	1.79524
0.124774	2.3821
0.156469	3.02939
0.191186	3.65945
0.222379	4.2636
0.25307	4.82461
0.285773	5.45466
0.317476	5.91216
0.348171	6.3869
0.382391	6.85305
0.411583	7.14661
0.441782	7.45744
0.469962	7.87178
0.504193	8.07912
0.534392	8.37269
0.573658	8.58008
0.599831	8.82185
0.630035	8.99465
0.665276	9.15024
0.692458	9.34027
0.726692	9.47859
0.75589	9.63413
0.78811	9.75518
0.820334	9.80722
0.851546	9.96277
0.882759	10.0838
0.913972	10.2221
0.947203	10.2569
0.974387	10.4124
