Adsorption isotherm of Ethane on UTSA
DOI: 10.1021/acs.jpcc.6b10751
Article source: Figure 16B
Adsorbate Ethane: InChIKey OTMSDBZUPAUEDD-UHFFFAOYSA-N
Kind: experiment
Temperature: 273 K
Tabular data in the source: 0
pressure (bar)	uptake (mmol/g)
0.018979	0.553313
0.031646	0.963812
0.064683	1.43438
0.093507	1.92498
0.123035	2.42559
0.158175	2.83609
0.186993	3.21655
0.220733	3.69714
0.252359	4.05757
0.281872	4.31789
0.314896	4.57821
0.347917	4.78846
0.377424	4.94866
0.409738	5.07882
0.439946	5.21899
0.472962	5.33913
0.503868	5.41923
0.535477	5.48932
0.566385	5.59945
0.599399	5.68956
0.628898	5.71959
0.662614	5.79969
0.69352	5.87979
0.72302	5.91984
0.754626	5.95989
0.788342	6.05
0.819244	6.05
0.84734	6.10006
0.879648	6.13009
0.914063	6.17014
0.941453	6.17014
0.973061	6.23022
