Adsorption isotherm of Methane on UMCM-150
DOI: 10.1021/acs.jpcc.6b10751
Article source: Figure 13A
Adsorbate Methane: InChIKey VNWKTOKETHGBQD-UHFFFAOYSA-N
Kind: experiment
Temperature: 273 K
Tabular data in the source: 0
pressure (bar)	uptake (mmol/g)
0.14805	0.217308
0.289197	0.319697
0.487795	0.548569
0.713449	0.759372
0.929796	1.0033
