Adsorption isotherm of Ethene on CuBTC
DOI: 10.1021/acs.jpcc.6b10751
Article source: Figure 2
Adsorbate Ethene: InChIKey VGGSQFUCUMXWEO-UHFFFAOYSA-N
Kind: experiment
Temperature: 273 K
Tabular data in the source: 0
pressure (bar)	uptake (mmol/g)
0.007191	1.68495
0.011026	2.4538
0.026366	3.50058
0.03883	4.05662
0.060882	4.95605
0.104986	5.68335
0.13279	6.03463
0.155801	6.32873
0.19559	6.63074
0.22627	6.86746
0.256472	7.1369
0.284276	7.27551
0.32023	7.47124
0.348514	7.62619
0.387824	7.83005
0.420422	7.94403
0.452061	8.09076
0.500479	8.319
0.559444	8.498
0.629434	8.70953
0.693672	8.92116
0.758869	9.08369
0.824065	9.2135
0.888303	9.32697
0.952541	9.44044
