Adsorption isotherm of Ethene on PCN-16
DOI: 10.1021/acs.jpcc.6b10751
Article source: Figure 4C
Adsorbate Ethene: InChIKey VGGSQFUCUMXWEO-UHFFFAOYSA-N
Kind: experiment
Temperature: 273 K
Tabular data in the source: 0
pressure (bar)	uptake (mmol/g)
0.002954	0.829824
0.007079	1.26244
0.018764	1.60872
0.031138	2.36282
0.067569	3.35226
0.095065	3.84718
0.132184	4.40411
0.15693	4.70124
0.1913	5.03567
0.218796	5.39465
0.253853	5.71673
0.284098	6.00163
0.315718	6.28656
0.347338	6.55914
0.380333	6.73288
0.411266	7.01779
0.441511	7.19147
0.472444	7.4146
0.503377	7.65008
0.533622	7.77433
0.569366	7.98521
0.598924	8.18359
0.631919	8.3079
0.661821	8.50628
0.695159	8.65532
0.723343	8.79188
0.750838	8.91607
0.79002	9.05287
0.812704	9.21402
0.853947	9.35087
0.882818	9.45037
0.911001	9.54986
0.944683	9.67419
0.976303	9.74903
