Adsorption isotherm of Ethene on NOTT-101
DOI: 10.1021/acs.jpcc.6b10751
Article source: Figure 6C
Adsorbate Ethene: InChIKey VGGSQFUCUMXWEO-UHFFFAOYSA-N
Kind: experiment
Temperature: 273 K
Tabular data in the source: 0
pressure (bar)	uptake (mmol/g)
0.00449	0.472791
0.009474	0.865267
0.016444	1.23986
0.032368	1.8998
0.064197	2.75574
0.091046	3.30842
0.126838	3.91447
0.157659	4.4314
0.190462	4.80553
0.21929	5.17974
0.250105	5.55391
0.28489	5.82095
0.3167	6.21294
0.348502	6.4265
0.376333	6.71151
0.410127	7.0321
0.438948	7.22786
0.47075	7.44142
0.504542	7.72632
0.538332	7.95769
0.567152	8.14454
0.599449	8.29563
0.628269	8.47356
0.658579	8.63361
0.694356	8.88279
0.726158	9.0785
0.756962	9.18501
0.78578	9.30941
0.819569	9.52293
0.848386	9.61164
0.882171	9.73594
0.912976	9.8603
0.939807	9.98473
0.972599	10.109
