Adsorption isotherm of Methane on UTSA
DOI: 10.1021/acs.jpcc.6b10751
Article source: Figure 16A
Adsorbate Methane: InChIKey VNWKTOKETHGBQD-UHFFFAOYSA-N
Kind: experiment
Temperature: 296 K
Tabular data in the source: 0
pressure (bar)	uptake (mmol/g)
0.139496	0.101117
0.296176	0.209468
0.457904	0.338842
0.596054	0.429148
0.751885	0.552508
0.897618	0.64583
