Adsorption isotherm of Ethane on MOF-505
DOI: 10.1021/acs.jpcc.6b10751
Article source: Figure 8B
Adsorbate Ethane: InChIKey OTMSDBZUPAUEDD-UHFFFAOYSA-N
Kind: experiment
Temperature: 296 K
Tabular data in the source: 0
pressure (bar)	uptake (mmol/g)
0.007595	0.101354
0.00962	0.231614
0.014684	0.419784
0.032911	0.796182
0.059241	1.38972
0.093671	2.05567
0.129114	2.57691
0.155443	3.04019
0.189873	3.46013
0.226329	3.79324
0.255696	4.08289
0.289114	4.31468
0.319494	4.50303
0.352911	4.73482
0.380253	4.85079
0.414684	5.01023
0.448101	5.14072
0.475443	5.28564
0.507848	5.38717
0.541266	5.45977
0.574684	5.56132
0.602025	5.6194
0.633418	5.7354
0.667848	5.80801
0.696203	5.86611
0.726582	5.89527
0.761013	5.98235
0.79038	6.02598
0.821772	6.06962
0.85519	6.14222
0.88557	6.15691
0.918987	6.24398
0.945316	6.25865
0.978734	6.28783
