Adsorption isotherm of Ethene on MOF-505
DOI: 10.1021/acs.jpcc.6b10751
Article source: Figure 8C
Adsorbate Ethene: InChIKey VGGSQFUCUMXWEO-UHFFFAOYSA-N
Kind: experiment
Temperature: 273 K
Tabular data in the source: 0
pressure (bar)	uptake (mmol/g)
0	0.347284
0.002382	0.739113
0.011912	1.04196
0.019059	1.34478
0.025015	1.54074
0.032162	1.77233
0.065515	2.50281
0.095295	3.07298
0.125074	3.64314
0.162001	4.08871
0.19059	4.48077
0.22156	4.81943
0.253722	5.10466
0.287076	5.35429
0.316855	5.53265
0.34723	5.71102
0.379988	5.92502
0.414532	6.0678
0.443121	6.15711
0.474687	6.29986
0.503871	6.38917
0.538416	6.49634
0.569387	6.60347
0.599166	6.67497
0.630137	6.74648
0.662299	6.83582
0.694461	6.94296
0.725432	6.96105
0.758785	7.05039
0.785587	7.05063
0.821918	7.14
0.850506	7.14025
0.880286	7.22957
0.913639	7.31891
0.939845	7.30133
0.975581	7.31946
