Adsorption isotherm of Methane on MOF-505
DOI: 10.1021/acs.jpcc.6b10751
Article source: Figure 8A
Adsorbate Methane: InChIKey VNWKTOKETHGBQD-UHFFFAOYSA-N
Kind: experiment
Temperature: 273 K
Tabular data in the source: 0
pressure (bar)	uptake (mmol/g)
0.102807	0.274654
0.242707	0.620675
0.38869	0.979671
0.54194	1.29109
0.684258	1.61116
0.843566	1.88798
