Adsorption isotherm of Ethene on MOF-505
DOI: 10.1021/acs.jpcc.6b10751
Article source: Figure 8C
Adsorbate Ethene: InChIKey VGGSQFUCUMXWEO-UHFFFAOYSA-N
Kind: experiment
Temperature: 296 K
Tabular data in the source: 0
pressure (bar)	uptake (mmol/g)
0.003574	0.276078
0.009529	0.543273
0.015485	0.73923
0.027397	0.988668
0.066706	1.41644
0.095295	1.71946
0.123883	2.05809
0.156045	2.34333
0.188207	2.61076
0.220369	2.87819
0.253722	3.0922
0.28112	3.28835
0.314473	3.48455
0.349017	3.68076
0.376415	3.8769
0.409768	3.98406
0.44193	4.19806
0.472901	4.37643
0.502085	4.47464
0.533651	4.60849
0.571769	4.72459
0.601549	4.84062
0.628946	4.96553
0.66349	5.03708
0.694461	5.16202
0.724241	5.23352
0.757594	5.32286
0.790947	5.35878
0.819535	5.46589
0.846933	5.50175
0.885051	5.60895
0.916021	5.66265
0.946397	5.73416
0.979154	5.80569
