Adsorption isotherm of Ethane on UMCM-150
DOI: 10.1021/acs.jpcc.6b10751
Article source: Figure 13B
Adsorbate Ethane: InChIKey OTMSDBZUPAUEDD-UHFFFAOYSA-N
Kind: experiment
Temperature: 296 K
Tabular data in the source: 0
pressure (bar)	uptake (mmol/g)
0.02052	0.103168
0.030385	0.213645
0.06139	0.374218
0.095214	0.58502
0.129038	0.745573
0.158634	0.916206
0.187525	1.06675
0.21853	1.26752
0.255172	1.46825
0.283359	1.63889
0.31225	1.81958
0.34396	1.9701
0.377783	2.11055
0.410903	2.33141
0.444022	2.47187
0.475027	2.66259
0.508146	2.82315
0.534923	2.98375
0.570156	3.16439
0.598343	3.31494
0.630757	3.4755
0.661762	3.60592
0.694881	3.74638
0.725182	3.85671
0.75971	4.00721
0.789306	4.16779
0.816788	4.28819
0.847088	4.43872
0.880207	4.54903
0.911917	4.69955
0.945741	4.85005
0.973928	4.9403
