Adsorption isotherm of Ethene on UTSA
DOI: 10.1021/acs.jpcc.6b10751
Article source: Figure 16C
Adsorbate Ethene: InChIKey VGGSQFUCUMXWEO-UHFFFAOYSA-N
Kind: experiment
Temperature: 273 K
Tabular data in the source: 0
pressure (bar)	uptake (mmol/g)
0.00933	0.323385
0.017626	0.529573
0.031444	0.797549
0.065279	1.23018
0.096353	1.65255
0.127413	1.92014
0.157096	2.21872
0.192984	2.49652
0.219902	2.73325
0.251645	2.93892
0.284765	3.12392
0.315813	3.278
0.351002	3.46295
0.380669	3.59644
0.410335	3.72992
0.444824	3.8117
0.4738	3.92456
0.504845	4.04769
0.535883	4.10891
0.56693	4.25268
0.593143	4.32432
0.633836	4.38533
0.661428	4.45694
0.697295	4.52838
0.724886	4.58967
0.754544	4.63028
0.793166	4.6707
0.821449	4.75262
0.851106	4.79323
0.878701	4.8958
0.913182	4.89503
0.94284	4.93565
0.976639	5.01744
