Adsorption isotherm of Ethene on UMCM-150
DOI: 10.1021/acs.jpcc.6b10751
Article source: Figure 13C
Adsorbate Ethene: InChIKey VGGSQFUCUMXWEO-UHFFFAOYSA-N
Kind: experiment
Temperature: 273 K
Tabular data in the source: 0
pressure (bar)	uptake (mmol/g)
0.004842	0.369917
0.011476	0.59339
0.016451	0.82926
0.033864	1.27624
0.064544	1.87229
0.091907	2.29454
0.122587	2.67958
0.156584	3.02742
0.188093	3.41246
0.219602	3.67339
0.255257	3.9716
0.284279	4.23251
0.316003	4.4504
0.345274	4.66615
0.377424	4.89628
0.409574	5.1336
0.444604	5.27757
0.476274	5.49334
0.504585	5.65161
0.532417	5.78834
0.567926	5.96104
0.602955	6.12656
0.628388	6.24889
0.663417	6.40723
0.689809	6.5152
0.720519	6.6735
0.756509	6.78875
0.78578	6.88238
0.81697	7.04069
0.84912	7.14153
0.877432	7.30699
0.912941	7.40068
0.943651	7.53025
0.971003	7.62387
