Adsorption isotherm of Methane on PCN-16
DOI: 10.1021/acs.jpcc.6b10751
Article source: Figure 4A
Adsorbate Methane: InChIKey VNWKTOKETHGBQD-UHFFFAOYSA-N
Kind: experiment
Temperature: 273 K
Tabular data in the source: 0
pressure (bar)	uptake (mmol/g)
0.145989	0.199902
0.323184	0.419645
0.546711	0.786954
0.714837	0.952724
0.902109	1.22644
