Adsorption isotherm of Ethene on CuBTC
DOI: 10.1021/acs.jpcc.6b10751
Article source: Figure 2
Adsorbate Ethene: InChIKey VGGSQFUCUMXWEO-UHFFFAOYSA-N
Kind: experiment
Temperature: 296 K
Tabular data in the source: 0
pressure (bar)	uptake (mmol/g)
0.002397	0.425311
0.011985	0.752352
0.014861	1.29218
0.032119	2.09354
0.067593	3.07455
0.103068	3.79381
0.121285	4.13707
0.154842	4.57824
0.188399	4.85581
0.220038	5.11705
0.248802	5.37833
0.284276	5.62315
0.317833	5.81892
0.347555	5.96568
0.377277	6.09607
0.412752	6.24273
0.443432	6.40583
0.475072	6.48711
0.501918	6.61755
0.533557	6.71519
0.570949	6.86182
0.596836	6.94319
0.630393	7.00808
0.662991	7.13843
0.694631	7.18699
0.724353	7.28467
0.754075	7.36598
0.787632	7.43087
0.82023	7.5285
0.848035	7.60984
0.879674	7.6584
0.908437	7.73973
0.943912	7.78823
0.974593	7.83681
