Adsorption isotherm of Ethene on PCN-16
DOI: 10.1021/acs.jpcc.6b10751
Article source: Figure 4C
Adsorbate Ethene: InChIKey VGGSQFUCUMXWEO-UHFFFAOYSA-N
Kind: experiment
Temperature: 296 K
Tabular data in the source: 0
pressure (bar)	uptake (mmol/g)
0.005704	0.236708
0.009828	0.434525
0.018077	0.743654
0.032512	1.263
0.071006	1.88175
0.088879	2.35174
0.124623	2.74799
0.15968	3.14421
0.189925	3.45383
0.223608	3.72645
0.253166	3.94954
0.285473	4.18506
0.319155	4.4206
0.350775	4.58196
0.378959	4.80502
0.414016	5.01588
0.446323	5.18961
0.476568	5.33857
0.507501	5.49991
0.534997	5.62409
0.568679	5.81021
0.599612	5.93447
0.630544	6.08345
0.661477	6.183
0.693097	6.34435
0.723343	6.48096
0.7584	6.56824
0.791394	6.66783
0.823702	6.81684
0.85326	6.92872
0.883505	7.02825
0.9165	7.17727
0.947433	7.23975
0.976303	7.32689
