Adsorption isotherm of Ethane on MOF-505
DOI: 10.1021/acs.jpcc.6b10751
Article source: Figure 8B
Adsorbate Ethane: InChIKey OTMSDBZUPAUEDD-UHFFFAOYSA-N
Kind: experiment
Temperature: 273 K
Tabular data in the source: 0
pressure (bar)	uptake (mmol/g)
0.00557	0.130283
0.007595	0.31843
0.010633	0.651303
0.013671	0.897346
0.017722	1.17234
0.022785	1.5197
0.033924	2.06971
0.066329	3.34346
0.098734	4.28436
0.123038	4.79105
0.15443	5.18201
0.190886	5.60196
0.222278	5.87715
0.256709	6.05106
0.289114	6.23943
0.318481	6.36988
0.350886	6.48589
0.384304	6.60191
0.415696	6.6745
0.444051	6.73259
0.479494	6.83415
0.508861	6.92119
0.539241	6.90694
0.571646	6.994
0.602025	7.03764
0.631392	7.09574
0.666835	7.13941
0.700253	7.15412
0.72962	7.22669
0.761013	7.24139
0.79038	7.29949
0.821772	7.31419
0.854177	7.34337
0.88557	7.38701
0.914937	7.43064
0.947342	7.4164
0.975696	7.44555
