Adsorption isotherm of Ethene on UMCM-150
DOI: 10.1021/acs.jpcc.6b10751
Article source: Figure 13C
Adsorbate Ethene: InChIKey VGGSQFUCUMXWEO-UHFFFAOYSA-N
Kind: experiment
Temperature: 296 K
Tabular data in the source: 0
pressure (bar)	uptake (mmol/g)
0.009127	0.221013
0.016727	0.324513
0.033311	0.593585
0.064406	0.93519
0.092736	1.2354
0.127286	1.45291
0.160453	1.70145
0.186711	1.90855
0.218496	2.11569
0.251664	2.30217
0.283449	2.49898
0.317308	2.65443
0.345638	2.82017
0.379497	2.98597
0.4099	3.1207
0.441686	3.27613
0.475544	3.4109
0.50733	3.5353
0.533588	3.67
0.563991	3.79439
0.59785	3.98087
0.632399	4.03289
0.659348	4.19862
0.69597	4.30238
0.72361	4.38538
0.754704	4.49943
0.785108	4.56176
0.817584	4.67583
0.853516	4.78992
0.883228	4.92465
0.915014	5.00768
0.942653	5.08033
0.974439	5.14267
