Adsorption isotherm of Ethane on UMCM-150
DOI: 10.1021/acs.jpcc.6b10751
Article source: Figure 13B
Adsorbate Ethane: InChIKey OTMSDBZUPAUEDD-UHFFFAOYSA-N
Kind: experiment
Temperature: 273 K
Tabular data in the source: 0
pressure (bar)	uptake (mmol/g)
0.018406	0.213731
0.032499	0.404576
0.062095	0.816406
0.096623	1.2483
0.125514	1.66013
0.159338	2.07193
0.189639	2.44356
0.219939	2.85538
0.250944	3.21695
0.282654	3.58857
0.319296	3.94005
0.348188	4.26143
0.379897	4.6029
0.408789	4.88409
0.441203	5.1351
0.471503	5.42632
0.507441	5.72756
0.538446	6.00873
0.566633	6.18942
0.599752	6.41028
0.630052	6.70151
0.663172	6.96256
0.693472	7.13319
0.728705	7.39423
0.755482	7.55484
0.787192	7.76565
0.816083	7.98654
0.849907	8.20739
0.880207	8.39812
0.911213	8.59889
0.945036	8.77955
0.974632	8.93008
