Adsorption isotherm of Methane on NOTT-101
DOI: 10.1021/acs.jpcc.6b10751
Article source: Figure 6A
Adsorbate Methane: InChIKey VNWKTOKETHGBQD-UHFFFAOYSA-N
Kind: experiment
Temperature: 273 K
Tabular data in the source: 0
pressure (bar)	uptake (mmol/g)
0.123894	0.206959
0.312684	0.503899
0.450063	0.767846
0.591656	0.941812
0.718078	1.11278
0.866414	1.31374
