Adsorption isotherm of Argon on TFPT-COF
DOI: 10.1039/c4sc00016a
Article source: Figure 3
Adsorbate Argon: InChIKey XKRFYHLGVUSROY-UHFFFAOYSA-N
Kind: experiment
Temperature: 87 K
Tabular data in the source: 0
pressure (bar)	uptake (cm3(STP)/g)
0.00255	4.33604
0.00255	13.7459
0.00255	25.5081
0.004534	58.5366
0.004534	78.0488
0.0068	92.6829
0.008987	109.081
0.009067	114.634
0.024935	163.415
0.049869	192.683
0.079337	219.512
0.104272	239.024
0.129206	256.098
0.154141	278.049
0.179076	297.561
0.20401	321.951
0.231211	348.78
0.253879	376.829
0.278814	404.878
0.303748	434.146
0.328683	465.854
0.353617	531.707
0.378552	617.073
0.403487	629.268
0.430688	641.463
0.455622	651.219
0.485091	656.098
0.510025	660.976
0.537227	663.415
0.562161	668.293
0.587096	673.171
0.61203	678.049
0.638098	681.707
0.664166	685.366
0.689101	690.244
0.714035	692.683
0.73897	695.122
0.763904	700
0.789626	700.662
0.813676	707.72
0.839911	715.953
0.866147	719.482
0.89129	725.363
0.914246	729.48
0.93611	743.007
0.962345	755.945
0.984209	787.703
0.964532	777.117
0.93611	751.24
0.910967	740.654
0.885824	733.597
0.860681	726.539
0.831166	720.658
0.809303	718.306
0.779788	714.777
0.754645	711.248
0.730595	706.544
0.704359	703.015
0.679217	699.486
0.655167	695.958
0.628931	690.076
0.603789	687.724
0.577553	685.372
0.551317	680.667
0.530547	675.962
0.503218	672.433
0.476982	666.552
0.450746	661.847
0.42779	654.79
0.402647	647.732
0.377504	639.499
0.356734	607.741
0.332685	500.704
0.305356	450.126
0.280213	420.72
0.25507	390.139
0.228834	360.733
0.201505	330.151
0.17527	305.45
0.156686	290.159
0.124984	264.282
0.103121	247.815
0.072512	224.29
0.053929	206.647
0.02332	164.303
