Adsorption isotherm of Argon on TFPT-COF/Ptreconv
DOI: 10.1039/c4sc00016a
Article source: Figure S19
Adsorbate Argon: InChIKey XKRFYHLGVUSROY-UHFFFAOYSA-N
Kind: experiment
Temperature: 87 K
Tabular data in the source: 0
pressure (bar)	uptake (cm3(STP)/g)
0.001703	3.20427
0.001703	9.61282
0.001703	16.0214
0.001703	24.032
0.003406	46.4619
0.003406	64.0854
0.006812	78.5047
0.008515	89.7196
0.009366	94.526
0.027247	131.375
0.047682	150.601
0.073226	166.622
0.098771	184.246
0.124315	197.063
0.149859	213.084
0.1737	227.503
0.200947	245.127
0.224788	264.352
0.250332	285.18
0.275876	306.008
0.299718	326.836
0.323559	354.072
0.352509	427.77
0.37635	474.232
0.406151	483.845
0.432547	493.458
0.458943	499.866
0.483635	503.071
0.510882	506.275
0.536426	509.479
0.560268	511.081
0.585812	515.888
0.613059	517.49
0.636049	520.694
0.662444	523.899
0.687988	525.501
0.713532	528.705
0.739076	531.909
0.762918	535.113
0.788462	538.318
0.814006	539.92
0.837847	544.726
0.865094	547.931
0.888935	552.737
0.914479	559.146
0.940024	567.156
0.962162	581.575
0.986003	624.833
0.991112	645.661
0.989409	647.263
0.982597	639.252
0.958756	600.801
0.935766	581.575
0.907668	568.758
0.880421	560.748
0.854876	555.941
0.829332	551.135
0.803788	547.931
0.776541	544.726
0.7527	541.522
0.727156	538.318
0.701612	535.113
0.676068	531.909
0.650524	530.307
0.624979	527.103
0.601138	525.501
0.573891	522.296
0.55005	520.694
0.524506	517.49
0.498962	514.286
0.473418	511.081
0.449576	509.479
0.424032	503.071
0.398488	499.866
0.372944	496.662
0.354212	475.834
0.331222	399.733
0.306529	349.266
0.280134	323.632
0.252035	301.202
0.228194	278.772
0.20265	259.546
0.177106	239.519
0.151562	223.498
0.124315	208.278
0.100474	195.461
0.074929	179.439
0.049385	161.816
0.023841	134.579
0.010218	100.935
0.003406	68.8919
