Adsorption isotherm of Hydrogen on PAN Fiber KOH-Activated at 700K
DOI: 10.1016/j.jallcom.2013.02.085
Article source: Figure 2
Adsorbate Hydrogen: InChIKey UFHFLCQGNIYNRP-UHFFFAOYSA-N
Kind: experiment
Temperature: 303 K
Tabular data in the source: 0
pressure (bar)	uptake (wt%)
0	0
4.81222	0.079461
6.90681	0.094276
19.9681	0.192593
39.6784	0.309764
79.344	0.536027
99.1743	0.632997
119.007	0.743434
