Adsorption isotherm of Nitrogen on Rice Husk KOH-Activated at 700K
DOI: 10.1016/j.jallcom.2013.02.085
Article source: Figure 1c
Adsorbate Nitrogen: InChIKey IJGRMHOSHXDMSA-UHFFFAOYSA-N
Kind: experiment
Temperature: 77 K
Tabular data in the source: 0
pressure (bar)	uptake (cm3(STP)/g)
0	28.5953
0	57.1906
0	78.2609
0	109.866
0	133.946
0	164.047
0	200.167
0	218.227
0.002123	325.084
0.004682	347.659
0.007237	373.244
0.008543	365.719
0.017557	404.849
0.018857	401.839
0.027895	424.415
0.03953	442.475
0.047281	459.03
0.070567	484.615
0.073147	492.14
0.09902	520.736
0.124904	541.806
0.139135	556.856
0.148197	562.876
0.176674	582.441
0.199978	595.987
0.246589	620.067
0.255655	623.077
0.281561	629.097
0.317819	644.147
0.383881	657.692
0.418856	663.712
0.473251	681.773
0.541932	675.753
0.556172	684.783
0.640391	686.288
0.683145	689.298
0.733672	693.813
0.746632	692.308
0.784205	693.813
0.836028	698.328
0.847689	698.328
0.881376	699.833
0.946155	704.348
0.951328	710.368
0.968173	710.368
0.982411	720.903
0.990185	720.903
1.00312	737.458
