Adsorption isotherm of Nitrogen on PAN Fiber KOH-Activated at 700K
DOI: 10.1016/j.jallcom.2013.02.085
Article source: Figure 1b
Adsorbate Nitrogen: InChIKey IJGRMHOSHXDMSA-UHFFFAOYSA-N
Kind: experiment
Temperature: 77 K
Tabular data in the source: 0
pressure (bar)	uptake (cm3(STP)/g)
0.004625	462.857
0.008513	488.571
0.015017	514.286
0.021524	537.143
0.029342	557.143
0.039768	582.857
0.04889	605.714
0.068453	642.857
0.074971	657.143
0.095849	688.571
0.099752	702.857
0.120633	731.429
0.125845	745.714
0.145407	782.857
0.149319	791.429
0.168889	822.857
0.176715	837.143
0.183233	851.429
0.193678	862.857
0.200192	880
0.230203	925.714
0.236713	945.714
0.249766	962.857
0.278465	1011.43
0.282381	1017.14
0.300651	1042.86
0.378953	1151.43
0.389409	1154.29
0.405079	1168.57
0.472976	1237.14
0.512202	1234.29
0.548783	1254.29
0.672962	1274.29
0.697807	1271.43
0.717418	1271.43
0.735708	1282.86
0.769696	1285.71
0.838978	1294.29
0.918727	1297.14
0.969706	1305.71
