Adsorption isotherm of Hydrogen on Rice Husk KOH-Activated at 500K
DOI: 10.1016/j.jallcom.2013.02.085
Article source: Figure 2
Adsorbate Hydrogen: InChIKey UFHFLCQGNIYNRP-UHFFFAOYSA-N
Kind: experiment
Temperature: 303 K
Tabular data in the source: 0
pressure (bar)	uptake (wt%)
0	0
2.8374	0.043098
9.98456	0.099663
19.8434	0.181818
39.6809	0.325926
79.4658	0.527946
99.178	0.657239
116.052	0.740741
