Adsorption isotherm of Hydrogen on PAN Fiber KOH-Activated at 700K
DOI: 10.1016/j.jallcom.2013.02.085
Article source: Figure 2
Adsorbate Hydrogen: InChIKey UFHFLCQGNIYNRP-UHFFFAOYSA-N
Kind: experiment
Temperature: 303 K
Tabular data in the source: 0
pressure (bar)	uptake (wt%)
0	0
6.90515	0.083502
19.8409	0.165657
39.678	0.307071
79.2174	0.513131
99.1718	0.616835
118.88	0.717845
