Adsorption isotherm of Hydrogen on PAN Fiber KOH-Activated at 600K
DOI: 10.1016/j.jallcom.2013.02.085
Article source: Figure 2
Adsorbate Hydrogen: InChIKey UFHFLCQGNIYNRP-UHFFFAOYSA-N
Kind: experiment
Temperature: 303 K
Tabular data in the source: 0
pressure (bar)	uptake (wt%)
0	0
9.98249	0.086195
19.8392	0.154882
39.6716	0.26532
79.3314	0.453872
99.0373	0.542761
118.984	0.596633
