Adsorption isotherm of Hydrogen on PAN Fiber KOH-Activated at 600K
DOI: 10.1016/j.jallcom.2013.02.085
Article source: Figure 2
Adsorbate Hydrogen: InChIKey UFHFLCQGNIYNRP-UHFFFAOYSA-N
Kind: experiment
Temperature: 303 K
Tabular data in the source: 0
pressure (bar)	uptake (wt%)
0	0
4.56151	0.049832
9.12116	0.087542
40.1658	0.277441
80.0733	0.476768
99.907	0.595286
119.121	0.684175
