Adsorption isotherm of Hydrogen on Rice Husk KOH-Activated at 700K
DOI: 10.1016/j.jallcom.2013.02.085
Article source: Figure 2
Adsorbate Hydrogen: InChIKey UFHFLCQGNIYNRP-UHFFFAOYSA-N
Kind: experiment
Temperature: 303 K
Tabular data in the source: 0
pressure (bar)	uptake (wt%)
0	0
4.92971	0.043098
9.98104	0.076768
19.8363	0.136027
39.6656	0.226263
79.3142	0.342088
99.2636	0.413468
116.013	0.483502
