Adsorption isotherm of Nitrogen on PAN Fiber KOH-Activated at 500K
DOI: 10.1016/j.jallcom.2013.02.085
Article source: Figure 1a
Adsorbate Nitrogen: InChIKey IJGRMHOSHXDMSA-UHFFFAOYSA-N
Kind: experiment
Temperature: 77 K
Tabular data in the source: 0
pressure (bar)	uptake (cm3(STP)/g)
0	189.781
0	236.496
0.002615	256.934
0.00523	274.453
0.007845	283.212
0.009152	289.051
0.018304	310.949
0.030071	327.007
0.037915	338.686
0.049682	351.825
0.071908	375.182
0.07583	378.102
0.099364	397.08
0.100671	401.46
0.122897	416.058
0.135972	424.818
0.149046	432.117
0.175194	448.175
0.184346	454.015
0.198728	459.854
0.249717	486.131
0.28371	502.19
0.312473	508.029
0.400071	535.766
0.402685	537.226
0.4759	569.343
0.530812	572.263
0.559575	566.423
0.651095	575.182
0.674628	579.562
0.732155	581.022
0.773992	585.401
0.831519	585.401
0.853745	583.942
0.874664	588.321
0.930883	588.321
0.977949	591.241
0.980565	591.241
1.01194	602.92
