Adsorption isotherm of Hydrogen on PAN Fiber KOH-Activated at 600K
DOI: 10.1016/j.jallcom.2013.02.085
Article source: Figure 2
Adsorbate Hydrogen: InChIKey UFHFLCQGNIYNRP-UHFFFAOYSA-N
Kind: experiment
Temperature: 303 K
Tabular data in the source: 0
pressure (bar)	uptake (wt%)
0	0
10.3501	0.075421
40.1554	0.210101
79.9335	0.367677
99.643	0.479461
119.592	0.545455
