Adsorption isotherm of Nitrogen on PAN Fiber KOH-Activated at 600K
DOI: 10.1016/j.jallcom.2013.02.085
Article source: Figure 1b
Adsorbate Nitrogen: InChIKey IJGRMHOSHXDMSA-UHFFFAOYSA-N
Kind: experiment
Temperature: 77 K
Tabular data in the source: 0
pressure (bar)	uptake (cm3(STP)/g)
0	342.857
0.011165	460
0.048939	568.571
0.073731	605.714
0.098512	651.429
0.124604	694.286
0.150697	737.143
0.176797	774.286
0.201585	814.286
0.23553	851.429
0.252493	877.143
0.290348	922.857
0.303404	937.143
0.38174	1020
0.40264	1034.29
0.497988	1105.71
0.504521	1108.57
0.623441	1151.43
0.811679	1174.29
0.981625	1188.57
