Adsorption isotherm of Nitrogen on Rice Husk KOH-Activated at 500K
DOI: 10.1016/j.jallcom.2013.02.085
Article source: Figure 1c
Adsorbate Nitrogen: InChIKey IJGRMHOSHXDMSA-UHFFFAOYSA-N
Kind: experiment
Temperature: 77 K
Tabular data in the source: 0
pressure (bar)	uptake (cm3(STP)/g)
0	25.5853
0	42.1405
0	69.2308
0	91.806
0	117.391
0	142.977
0	177.592
0	216.722
0	240.803
0	261.873
0	288.963
0	316.054
0	344.649
0.000732	391.304
0.000758	373.244
0.004574	422.91
0.004585	415.385
0.00582	457.525
0.008433	442.475
0.016144	486.12
0.018725	493.645
0.026463	519.231
0.039387	541.806
0.047131	562.876
0.065232	589.967
0.072987	603.512
0.093673	635.117
0.098849	639.632
0.122133	666.722
0.12472	669.732
0.138951	684.783
0.149304	693.813
0.173888	717.893
0.19978	732.943
0.24509	761.538
0.258042	764.548
0.282642	778.094
0.327979	787.124
0.339633	791.639
0.451046	805.184
0.47436	811.204
0.52877	818.729
0.570241	812.709
0.650564	820.234
0.657034	826.254
0.734775	827.759
0.76587	829.264
0.780125	827.759
0.833243	832.274
0.844907	830.769
0.870814	835.284
0.930413	838.294
0.97705	844.314
0.986118	845.819
1.00424	856.355
