Adsorption isotherm of Nitrogen on PAN Fiber KOH-Activated at 700K
DOI: 10.1016/j.jallcom.2013.02.085
Article source: Figure 1b
Adsorbate Nitrogen: InChIKey IJGRMHOSHXDMSA-UHFFFAOYSA-N
Kind: experiment
Temperature: 77 K
Tabular data in the source: 0
pressure (bar)	uptake (cm3(STP)/g)
0.004583	494.286
0.008468	522.857
0.011057	542.857
0.022779	577.143
0.030582	608.571
0.041019	625.714
0.050145	645.714
0.072319	685.714
0.076234	691.429
0.098411	728.571
0.101022	731.429
0.123193	774.286
0.125804	777.143
0.145374	808.571
0.150592	817.143
0.17277	854.286
0.176684	860
0.187114	882.857
0.200158	905.714
0.232766	965.714
0.249721	997.143
0.279713	1057.14
0.284932	1065.71
0.30058	1097.14
0.320134	1140
0.386627	1282.86
0.400967	1314.29
0.403559	1331.43
0.44131	1457.14
0.458314	1451.43
0.459449	1582.86
0.486708	1734.29
0.515676	1577.14
0.572948	1771.43
0.595249	1714.29
0.605698	1722.86
0.686649	1805.71
0.724572	1800
0.736309	1822.86
0.783365	1831.43
0.836954	1842.86
0.863106	1840
0.882699	1854.29
0.938903	1865.71
0.942832	1860
0.975503	1871.43
