Adsorption isotherm of Hydrogen on PAN Fiber KOH-Activated at 500K
DOI: 10.1016/j.jallcom.2013.02.085
Article source: Figure 2
Adsorbate Hydrogen: InChIKey UFHFLCQGNIYNRP-UHFFFAOYSA-N
Kind: experiment
Temperature: 303 K
Tabular data in the source: 0
pressure (bar)	uptake (wt%)
0	28.5953
0	57.1906
0	78.2609
0	109.866
0	133.946
0	164.047
0	200.167
0	218.227
0.020956	325.084
0.046211	347.659
0.071423	373.244
0.084318	365.719
0.173276	404.849
0.186106	401.839
0.2753	424.415
0.390132	442.475
0.466624	459.03
0.696439	484.615
0.721908	492.14
0.977256	520.736
1.23271	541.806
1.37316	556.856
1.46259	562.876
1.74364	582.441
1.97363	595.987
2.43364	620.067
2.52312	623.077
2.77879	629.097
3.13663	644.147
3.78861	657.692
4.13379	663.712
4.67062	681.773
5.34845	675.753
5.48899	684.783
6.32017	686.288
6.74212	689.298
7.24078	693.813
7.36868	692.308
7.7395	693.813
8.25095	698.328
8.36604	698.328
8.6985	699.833
9.33782	704.348
9.38888	710.368
9.55512	710.368
9.69564	720.903
9.77237	720.903
9.90001	737.458
