Adsorption isotherm of Nitrogen on PAN Fiber KOH-Activated at 600K
DOI: 10.1016/j.jallcom.2013.02.085
Article source: Figure 1a
Adsorbate Nitrogen: InChIKey IJGRMHOSHXDMSA-UHFFFAOYSA-N
Kind: experiment
Temperature: 77 K
Tabular data in the source: 0
pressure (bar)	uptake (cm3(STP)/g)
0	-0.002581
0	188.321
0	246.715
0.001307	272.993
0.003922	287.591
0.006537	299.27
0.009152	305.109
0.015689	327.007
0.018304	332.847
0.030071	348.905
0.041837	364.964
0.049682	375.182
0.070601	397.08
0.071908	402.92
0.095442	426.277
0.098056	430.657
0.101979	429.197
0.12159	451.095
0.143816	470.073
0.150353	474.453
0.176502	493.431
0.177809	499.27
0.201343	512.409
0.218339	528.467
0.245795	538.686
0.252332	543.066
0.281095	566.423
0.304629	572.263
0.377844	607.299
0.400071	613.139
0.4759	649.635
0.509894	637.956
0.55696	659.854
0.668091	659.854
0.682473	664.234
0.736077	668.613
0.749151	664.234
0.783144	670.073
0.836748	674.453
0.873356	671.533
0.877278	674.453
0.94265	677.372
0.953109	677.372
0.974027	678.832
1.01194	686.131
