Adsorption isotherm of Nitrogen on PAN Fiber KOH-Activated at 600K
DOI: 10.1016/j.jallcom.2013.02.085
Article source: Figure 1b
Adsorbate Nitrogen: InChIKey IJGRMHOSHXDMSA-UHFFFAOYSA-N
Kind: experiment
Temperature: 77 K
Tabular data in the source: 0
pressure (bar)	uptake (cm3(STP)/g)
0	20
0	42.8571
0	60
0	105.714
0	182.857
0	191.429
0	268.571
0	317.143
0.000758	420
0.001195	85.7143
0.004643	448.571
0.015058	482.857
0.029406	508.571
0.039835	531.429
0.048965	548.571
0.065924	577.143
0.076364	591.429
0.095927	628.571
0.099846	631.429
0.122031	662.857
0.125953	662.857
0.150745	700
0.17425	722.857
0.189908	745.714
0.200356	754.286
0.23039	782.857
0.248675	797.143
0.252593	800
0.283942	822.857
0.316605	840
0.381939	868.571
0.422449	882.857
0.472117	894.286
0.517869	900
0.640755	908.571
0.652529	902.857
0.801557	917.143
0.840776	920
0.945368	920
0.98458	928.571
