Adsorption isotherm of Ethanethiol, N-Heptane on Zeolite 13X
DOI: 10.1007/s10450-008-9136-7
Article source: Figure 2a/4a
Adsorbate Ethanethiol: InChIKey DNJIEGIFACGWOD-UHFFFAOYSA-N
Adsorbate N-Heptane: InChIKey IMNFDUFMRHMDMM-UHFFFAOYSA-N
Kind: experiment
Temperature: 298 K
Tabular data in the source: 0
pressure (bar)	Ethanethiol fraction	Ethanethiol uptake (Molecules/alpha)	N-Heptane fraction	N-Heptane uptake (Molecules/alpha)	total uptake (Molecules/alpha)
0.0002	0	0	1	2.85	
0.0002	0.0442	0.231	0.9558	2.54	
0.0002	0.116	0.718	0.884	2.31	
0.0002	0.204	1.74	0.796	1.64	
0.0002	0.449	3.26	0.551	1.08	
0.0002	0.656	4.44	0.344	0.462	
0.0002	1	5.28	0	0	
