Adsorption isotherm of Ethanethiol, Toluene on Zeolite 13X
DOI: 10.1007/s10450-008-9136-7
Article source: Figure 2b/4b
Adsorbate Ethanethiol: InChIKey DNJIEGIFACGWOD-UHFFFAOYSA-N
Adsorbate Toluene: InChIKey YXFVVABEGXRONW-UHFFFAOYSA-N
Kind: experiment
Temperature: 298 K
Tabular data in the source: 0
pressure (bar)	Ethanethiol fraction	Ethanethiol uptake (Molecules/alpha)	Toluene fraction	Toluene uptake (Molecules/alpha)	total uptake (Molecules/alpha)
0.0002	0	0	1	3.77	
0.0002	0.167	0.41	0.833	3.54	
0.0002	0.204	1.05	0.796	3.1	
0.0002	0.245	2.21	0.755	2.33	
0.0002	0.245	3.79	0.755	1.21	
0.0002	0.524	4.92	0.476	0.513	
0.0002	1	5.33	0	0	
