Adsorption isotherm of Methane on CMS KP 407
DOI: 10.1016/j.ces.2017.01.071
Article source: Figure 3
Adsorbate Methane: InChIKey VNWKTOKETHGBQD-UHFFFAOYSA-N
Kind: experiment
Temperature: 298 K
Tabular data in the source: 0
pressure (bar)	uptake (mmol/g)
0.03	0.0441
0.15	0.1968
0.255	0.4219
0.435	0.4785
0.704	0.5554
0.973	0.6561
1.108	0.7851
1.422	0.9423
1.691	1.0848
2.603	1.3903
3.828	1.5973
4.993	1.767
6.143	1.8982
8.024	2.0498
9.786	2.1799
13.116	2.3247
16.266	2.4299
19.371	2.5124
22.581	2.5713
25.791	2.6335
28.866	2.6742
32.18	2.7161
36.928	2.75
41.511	2.7794
46.377	2.8054
51.005	2.8213
55.648	2.8303
60.186	2.8326
64.769	2.8484
