Adsorption isotherm of Carbon Dioxide on CMS KP 407
DOI: 10.1016/j.ces.2017.01.071
Article source: Figure 2
Adsorbate Carbon Dioxide: InChIKey CURLTUGMZLYLDI-UHFFFAOYSA-N
Kind: experiment
Temperature: 298 K
Tabular data in the source: 0
pressure (bar)	uptake (mmol/g)
0.0003	0.2113
0.0344	0.401
0.0965	0.5646
0.1249	0.7123
0.187	0.8418
0.221	0.9804
0.2775	1.1054
0.3509	1.228
0.4186	1.3485
0.5371	1.453
0.5991	1.528
0.6668	1.5961
0.757	1.6734
0.8585	1.7892
0.9769	1.8267
1.0276	1.8744
1.1234	1.9312
1.2813	2.0482
1.4785	2.1641
1.6138	2.2266
1.7772	2.2868
1.9181	2.3379
2.0984	2.4106
2.2505	2.4515
2.3519	2.481
2.6843	2.5833
3.0618	2.6798
3.3998	2.7627
3.8054	2.8309
4.2335	2.8888
4.594	2.9467
5.0615	3.008
5.5797	3.0648
6.2725	3.1216
6.8526	3.175
7.4834	3.2306
8.0861	3.2669
8.7	3.3067
9.3364	3.3419
10.8458	3.4168
13.0085	3.4906
15.2387	3.5609
17.2887	3.6074
19.4063	3.6414
21.445	3.68
23.388	3.7162
25.2859	3.7355
27.2514	3.7604
29.1549	3.7774
