Adsorption isotherm of Carbon Dioxide on CMS KP 407
DOI: 10.1016/j.ces.2017.01.071
Article source: Figure 2
Adsorbate Carbon Dioxide: InChIKey CURLTUGMZLYLDI-UHFFFAOYSA-N
Kind: experiment
Temperature: 343 K
Tabular data in the source: 0
pressure (bar)	uptake (mmol/g)
-0.0112	0.0364
0.0735	0.1715
0.1469	0.3045
0.2371	0.4158
0.2935	0.4908
0.412	0.6123
0.5191	0.7043
0.6375	0.8054
0.7052	0.8554
0.7897	0.9009
0.8799	0.9406
1.0038	0.9883
1.0715	1.0633
1.2067	1.1133
1.3476	1.1587
1.5392	1.2416
1.7195	1.3212
1.8998	1.3893
2.1646	1.4654
2.3956	1.5347
2.8069	1.6392
3.2125	1.7357
3.573	1.813
3.9561	1.8948
4.4011	1.9618
4.7504	2.0299
5.1447	2.0788
5.753	2.1594
6.3951	2.2332
6.9809	2.2968
7.6286	2.3649
8.2595	2.4172
8.834	2.4671
10.1744	2.5659
12.2978	2.6965
14.4098	2.8043
16.5443	2.8917
18.6226	2.978
20.6839	3.0563
22.6663	3.1267
24.6544	3.1823
26.6481	3.2424
28.5855	3.2957
