Adsorption isotherm of Methane on CMS KP 407
DOI: 10.1016/j.ces.2017.01.071
Article source: Figure 3
Adsorbate Methane: InChIKey VNWKTOKETHGBQD-UHFFFAOYSA-N
Kind: experiment
Temperature: 343 K
Tabular data in the source: 0
pressure (bar)	uptake (mmol/g)
0.568	0.3032
1.047	0.4118
2.108	0.7353
3.243	0.9502
4.468	1.1176
5.722	1.2489
7.619	1.4061
9.545	1.5351
12.755	1.7059
15.995	1.8292
19.1	1.9355
22.31	2.0147
25.595	2.0826
28.819	2.1505
31.925	2.198
36.806	2.2636
41.479	2.319
46.45	2.371
51.183	2.4219
55.945	2.4559
60.692	2.5011
65.38	2.5396
