Adsorption isotherm of Copper(II) Ion, Water on Alkali treated Cucurbita moschata
DOI: 10.1016/j.psep.2017.02.008
Article source: Figure 9
Adsorbate Copper(II) Ion: InChIKey JPVYNHNXODAKFH-UHFFFAOYSA-N
Adsorbate Water: InChIKey XLYOFNOQVPJJNP-UHFFFAOYSA-N
Kind: experiment
Temperature: 313 K
Tabular data in the source: 0
pressure (bar)	Copper(II) Ion fraction	Copper(II) Ion uptake (mg/g)	Water fraction	Water uptake (mg/g)	total uptake (mg/g)
10.1325	-0.23932	1.94706			
10.1325	0.1418	4.89058			
10.1325	0.46216	7.80135			
10.1325	0.6823	9.59887			
