Adsorption isotherm of Lead(II) Ion, Water on Alkali treated Cucurbita moschata
DOI: 10.1016/j.psep.2017.02.008
Article source: Figure 9
Adsorbate Lead(II) Ion: InChIKey RVPVRDXYQKGNMQ-UHFFFAOYSA-N
Adsorbate Water: InChIKey XLYOFNOQVPJJNP-UHFFFAOYSA-N
Kind: experiment
Temperature: 313 K
Tabular data in the source: 0
pressure (bar)	Lead(II) Ion fraction	Lead(II) Ion uptake (mg/g)	Water fraction	Water uptake (mg/g)	total uptake (mg/g)
10.1325	0.38072	1.72759			
10.1325	0.6481	2.52017			
10.1325	0.74874	4.35171			
10.1325	0.93961	6.02019			
10.1325	1.33592	7.92666			
