Adsorption isotherm of Ni(II), Water on Cucurbita moschata
DOI: 10.1016/j.psep.2017.02.008
Article source: Figure 9
Adsorbate Ni(II): InChIKey VEQPNABPJHWNSG-UHFFFAOYSA-N
Adsorbate Water: InChIKey XLYOFNOQVPJJNP-UHFFFAOYSA-N
Kind: experiment
Temperature: 323 K
Tabular data in the source: 0
pressure (bar)	Ni(II) fraction	Ni(II) uptake (mg/g)	Water fraction	Water uptake (mg/g)	total uptake (mg/g)
1.01325	20.8899	7.89702			
1.01325	9.12076	6.21079			
1.01325	5.97943	4.4613			
1.01325	4.7719	2.54304			
1.01325	3.97519	1.61147			
