Adsorption isotherm of Lead(II) Ion, Water on Alkali treated Cucurbita moschata
DOI: 10.1016/j.psep.2017.02.008
Article source: Figure 9
Adsorbate Lead(II) Ion: InChIKey RVPVRDXYQKGNMQ-UHFFFAOYSA-N
Adsorbate Water: InChIKey XLYOFNOQVPJJNP-UHFFFAOYSA-N
Kind: experiment
Temperature: 303 K
Tabular data in the source: 0
pressure (bar)	Lead(II) Ion fraction	Lead(II) Ion uptake (mg/g)	Water fraction	Water uptake (mg/g)	total uptake (mg/g)
10.1325	0.35751	1.73328			
10.1325	0.56129	2.63075			
10.1325	0.68084	4.4979			
10.1325	0.92242	6.0601			
10.1325	1.311	8.05861			
