Adsorption isotherm of Lead(II) Ion, Water on Alkali treated Cucurbita moschata
DOI: 10.1016/j.psep.2017.02.008
Article source: Figure 9
Adsorbate Lead(II) Ion: InChIKey RVPVRDXYQKGNMQ-UHFFFAOYSA-N
Adsorbate Water: InChIKey XLYOFNOQVPJJNP-UHFFFAOYSA-N
Kind: experiment
Temperature: 323 K
Tabular data in the source: 0
pressure (bar)	Lead(II) Ion fraction	Lead(II) Ion uptake (mg/g)	Water fraction	Water uptake (mg/g)	total uptake (mg/g)
10.1325	0.58873	1.54914			
10.1325	0.67131	2.46247			
10.1325	0.77023	4.26619			
10.1325	0.95594	5.92148			
10.1325	1.33162	7.54258			
