Adsorption isotherm of Copper(II) Ion, Water on Alkali treated Cucurbita moschata
DOI: 10.1016/j.psep.2017.02.008
Article source: Figure 9
Adsorbate Copper(II) Ion: InChIKey JPVYNHNXODAKFH-UHFFFAOYSA-N
Adsorbate Water: InChIKey XLYOFNOQVPJJNP-UHFFFAOYSA-N
Kind: experiment
Temperature: 323 K
Tabular data in the source: 0
pressure (bar)	Copper(II) Ion fraction	Copper(II) Ion uptake (mg/g)	Water fraction	Water uptake (mg/g)	total uptake (mg/g)
10.1325	-0.5187	1.92966			
10.1325	-0.09936	4.82781			
10.1325	0.17092	7.60694			
10.1325	0.57819	9.47982			
