Adsorption isotherm of Methane on SNU-9
DOI: 10.1039/B913067e
Adsorbate Methane: InChIKey VNWKTOKETHGBQD-UHFFFAOYSA-N
Temperature: 298 K
Tabular data in the source: 0
pressure (bar)	uptake (wt%)
0.337079	0.628743
1.01124	0.628743
2.02247	1.0479
5.05618	1.67665
10.1124	2.09581
15.1685	2.09581
20.2247	2.30539
25.2809	2.51497
30	2.72455
35.3933	2.93413
40.1124	3.14371
44.8315	3.14371
50.2247	3.35329
54.2697	3.56287
60.3371	3.56287
65.0562	3.77246
