Adsorption isotherm of Carbon Dioxide on SNU-9
DOI: 10.1039/B913067e
Adsorbate Carbon Dioxide: InChIKey CURLTUGMZLYLDI-UHFFFAOYSA-N
Temperature: 298 K
Tabular data in the source: 0
pressure (bar)	uptake (wt%)
0.337079	0.337079
0.674157	7.75449
1.01124	9.64072
1.34831	12.1557
2.02247	15.2994
2.69663	16.976
3.37079	18.6527
4.04494	20.5389
5.05618	21.5868
6.74157	23.8922
8.76404	25.1497
11.1236	26.4072
13.1461	27.0359
16.5169	28.0838
18.8764	28.2934
20.8989	28.7126
23.2584	28.9222
26.2921	29.3413
29.3258	29.3413
31.6854	29.3413
34.7191	29.5509
38.0899	29.7605
41.4607	29.7605
45.5056	29.7605
49.8876	29.9701
