Adsorption isotherm of Hydrogen on SNU-9
DOI: 10.1039/B913067e
Adsorbate Hydrogen: InChIKey UFHFLCQGNIYNRP-UHFFFAOYSA-N
Temperature: 77 K
Tabular data in the source: 0
pressure (bar)	uptake (wt%)
0.512821	0.530244
3.07692	0.699537
10.2564	1.1591
14.8718	1.40117
20.5128	2.14952
24.6154	2.36738
30.2564	2.53741
34.8718	2.73129
40	2.85301
45.1282	3.07112
49.7436	3.16861
54.8718	3.26623
65.1282	3.46148
69.7436	3.48669
74.8718	3.53611
80	3.58554
85.1282	3.65907
89.2308	3.66006
