Adsorption isotherm of Nitrogen on SNU-9
DOI: 10.1039/B913067e
Adsorbate Nitrogen: InChIKey IJGRMHOSHXDMSA-UHFFFAOYSA-N
Temperature: 77 K
Tabular data in the source: 0
pressure (bar)	uptake (cm3(STP)/g)
0.00633281	0.00633281
0.0189984	146.544
0.0253313	177.951
0.0379969	198.903
0.0569953	207.656
0.0886594	211.199
0.120323	218.23
0.15832	225.273
0.208983	228.848
0.259645	230.68
0.310308	234.255
0.367303	236.097
0.417966	239.673
0.462295	241.493
0.512958	243.325
0.56362	246.9
0.626948	248.754
0.664945	250.563
0.709275	250.64
0.772603	252.493
0.816933	254.313
0.873928	259.644
