Adsorption isotherm of Nitrogen on SNU-9
DOI: 10.1039/B913067e
Adsorbate Nitrogen: InChIKey IJGRMHOSHXDMSA-UHFFFAOYSA-N
Temperature: 87 K
Tabular data in the source: 0
pressure (bar)	uptake (cm3(STP)/g)
0.00633281	71.5225
0.0189984	129.102
0.0569953	132.656
0.0696609	139.655
0.0823266	146.653
0.101325	153.663
0.15832	188.645
0.208983	200.941
0.259645	206.261
0.310308	213.325
0.36097	215.156
0.417966	218.743
0.462295	220.563
0.512958	224.139
0.569953	227.725
0.620616	227.812
0.664945	231.377
0.715608	231.464
0.772603	236.795
0.816933	236.871
0.861262	240.436
0.924591	242.289
