Adsorption isotherm of Hydrogen on SNU-9
DOI: 10.1039/B913067e
Adsorbate Hydrogen: InChIKey UFHFLCQGNIYNRP-UHFFFAOYSA-N
Temperature: 77 K
Tabular data in the source: 0
pressure (bar)	uptake (wt%)
0.512821	0.265184
2.05128	0.482422
3.07692	0.723633
5.12821	0.940995
8.20513	1.13451
13.3333	1.23213
19.4872	1.33
26.1538	1.3798
32.8205	1.4055
39.4872	1.4553
47.6923	1.45728
55.3846	1.48323
62.5641	1.50905
70.7692	1.48693
78.4615	1.51288
88.2051	1.53933
