Adsorption isotherm of Hydrogen on SNU-9
DOI: 10.1039/B913067e
Adsorbate Hydrogen: InChIKey UFHFLCQGNIYNRP-UHFFFAOYSA-N
Temperature: 77 K
Tabular data in the source: 0
pressure (bar)	uptake (wt%)
0.512821	0.241087
1.02564	0.409886
3.07692	0.67544
5.64103	0.941118
7.17949	1.15836
10.2564	1.40006
12.8205	1.68984
15.3846	1.90732
20.5128	2.17362
24.6154	2.36738
27.6923	2.5127
30.7692	2.65802
35.8974	2.80383
41.0256	2.97374
46.1538	3.09546
54.359	3.26611
62.0513	3.36435
69.7436	3.46259
75.3846	3.51214
78.9744	3.5853
85.1282	3.65907
90.7692	3.70862
