Adsorption isotherm of Hydrogen on SNU-9
DOI: 10.1039/B913067e
Adsorbate Hydrogen: InChIKey UFHFLCQGNIYNRP-UHFFFAOYSA-N
Temperature: 77 K
Tabular data in the source: 0
pressure (bar)	uptake (cm3(STP)/g)
0.00684628	12.7273
0.0410777	14.8485
0.102694	14.8485
0.157465	14.8485
0.219081	14.8485
0.260159	14.8485
0.308083	14.8485
0.362853	14.8485
0.410777	16.9697
0.472394	16.9697
0.520318	16.9697
0.575088	19.0909
0.623012	19.0909
0.66409	21.2121
0.725706	19.0909
0.766784	19.0909
0.821554	23.3333
0.869478	23.3333
0.917402	23.3333
0.972172	25.4545
1.01325	25.4545
