Adsorption isotherm of Methane on SNU-9
DOI: 10.1039/B913067e
Adsorbate Methane: InChIKey VNWKTOKETHGBQD-UHFFFAOYSA-N
Temperature: 195 K
Tabular data in the source: 0
pressure (bar)	uptake (cm3(STP)/g)
4.44e-16	16.0819
0.0469719	19.0736
0.0939437	20.6034
0.147626	23.6048
0.24828	25.212
0.288541	26.7321
0.342224	26.8096
0.395906	26.887
0.442877	28.4168
0.489849	29.9466
0.543531	28.562
0.704578	30.2564
0.76497	30.3435
0.872334	31.9604
0.926017	30.5759
0.966278	32.096
1.01325	32.1637
