Adsorption isotherm of Carbon Dioxide on SNU-9
DOI: 10.1039/B913067e
Adsorbate Carbon Dioxide: InChIKey CURLTUGMZLYLDI-UHFFFAOYSA-N
Temperature: 273 K
Tabular data in the source: 0
pressure (bar)	uptake (cm3(STP)/g)
0.0402616	2.98207
0.0671026	5.94477
0.114075	6.01255
0.161046	9.0043
0.208018	13.458
0.2617	14.9975
0.315382	16.5369
0.355644	18.057
0.409326	19.5965
0.50998	19.7417
0.563662	22.7431
0.624055	24.2922
0.671026	24.36
0.711288	25.8801
0.76497	25.9576
0.818652	26.035
0.872334	27.5745
0.919306	27.6422
0.959568	30.6243
0.999829	30.6824
