Adsorption isotherm of Oxygen on SNU-9
DOI: 10.1039/B913067e
Adsorbate Oxygen: InChIKey MYMOFIZGZYHOMD-UHFFFAOYSA-N
Temperature: 87 K
Tabular data in the source: 0
pressure (bar)	uptake (cm3(STP)/g)
0	116.667
0.00684628	123.03
0.0273851	142.121
0.047924	152.727
0.0547703	171.818
0.0616166	190.909
0.0684628	205.758
0.0821554	216.364
0.095848	226.97
0.150618	239.697
0.198542	246.061
0.260159	250.303
0.308083	256.667
0.362853	258.788
0.410777	260.909
0.465547	265.152
0.513471	269.394
0.568242	271.515
0.616166	277.879
