Adsorption isotherm of Oxygen on SNU-9
DOI: 10.1039/B913067e
Adsorbate Oxygen: InChIKey MYMOFIZGZYHOMD-UHFFFAOYSA-N
Temperature: 77 K
Tabular data in the source: 0
pressure (bar)	uptake (cm3(STP)/g)
0.0136926	0.0136926
0.0205389	229.091
0.0273851	267.273
0.0342314	301.212
0.0410777	313.939
0.0753091	328.788
0.116387	333.03
0.136926	337.273
0.150618	343.636
0.171157	352.121
0.205389	362.727
