Adsorption isotherm of Carbon Dioxide on SNU-9
DOI: 10.1039/B913067e
Adsorbate Carbon Dioxide: InChIKey CURLTUGMZLYLDI-UHFFFAOYSA-N
Temperature: 298 K
Tabular data in the source: 0
pressure (bar)	uptake (wt%)
0.337079	0.628743
1.01124	4.61078
1.68539	6.07784
3.70787	7.54491
6.40449	8.38323
8.76404	10.6886
9.77528	15.9281
11.7978	24.1018
13.8202	27.0359
15.8427	27.8743
20.5618	28.7126
29.6629	29.5509
40.1124	29.9701
50.2247	29.3413
