Adsorption isotherm of Carbon Dioxide on SNU-9
DOI: 10.1039/B913067e
Adsorbate Carbon Dioxide: InChIKey CURLTUGMZLYLDI-UHFFFAOYSA-N
Temperature: 195 K
Tabular data in the source: 0
pressure (bar)	uptake (cm3(STP)/g)
4.44e-16	26.3158
0.00671026	33.6354
0.0201308	43.8887
0.0335513	46.832
0.0603924	49.7947
0.0805232	52.7478
0.114075	54.2582
0.147626	57.2305
0.167757	60.1836
0.181177	66.0509
0.194598	89.4621
0.221439	143.594
0.24157	175.787
0.301962	199.266
0.355644	205.192
0.409326	209.655
0.463008	211.194
0.50998	211.262
0.570373	212.811
0.617344	214.341
0.664316	215.871
0.717998	217.41
0.77168	217.488
0.825363	217.565
0.885755	217.652
0.932727	220.644
0.972988	220.702
1.01325	220.76
