Adsorption isotherm of Carbon Dioxide on SNU-9
DOI: 10.1039/B913067e
Adsorbate Carbon Dioxide: InChIKey CURLTUGMZLYLDI-UHFFFAOYSA-N
Temperature: 298 K
Tabular data in the source: 0
pressure (bar)	uptake (wt%)
0.337079	0.628743
0.674157	3.14371
1.68539	4.82036
3.03371	6.49701
4.38202	7.54491
6.40449	8.38323
8.76404	8.8024
11.1236	9.22156
15.8427	9.64072
18.2022	9.64072
21.573	10.0599
24.6067	10.0599
26.9663	9.8503
29.3258	10.0599
32.0225	10.0599
35.3933	10.0599
38.0899	10.2695
41.4607	10.2695
43.4831	10.2695
47.5281	10.479
50.2247	10.2695
