Adsorption isotherm of Cadmium(II) Ion, Water on alkaline Lignin-graft-poly(acrylic acid)
DOI: 10.1007/s10853-017-1463-1
Article source: Figure 6
Adsorbate Cadmium(II) Ion: InChIKey WLZRMCYVCSSEQC-UHFFFAOYSA-N
Adsorbate Water: InChIKey XLYOFNOQVPJJNP-UHFFFAOYSA-N
Kind: experiment
Temperature: 308 K
Tabular data in the source: 0
pressure (bar)	Cadmium(II) Ion fraction	Cadmium(II) Ion uptake (mmol/g)	Water fraction	Water uptake (mmol/g)	total uptake (mmol/g)
1.01325	0.009	0.00328			
1.01325	0.0853	0.22815			
1.01325	0.1281	0.38306			
1.01325	0.2136	0.5052			
1.01325	0.3134	0.62734			
1.01325	0.4227	0.71821			
1.01325	0.6032	0.80908			
1.01325	0.8835	0.86271			
