Adsorption isotherm of Cadmium(II) Ion, Water on alkaline Lignin-graft-poly(acrylic acid)
DOI: 10.1007/s10853-017-1463-1
Article source: Figure 6
Adsorbate Cadmium(II) Ion: InChIKey WLZRMCYVCSSEQC-UHFFFAOYSA-N
Adsorbate Water: InChIKey XLYOFNOQVPJJNP-UHFFFAOYSA-N
Kind: experiment
Temperature: 298 K
Tabular data in the source: 0
pressure (bar)	Cadmium(II) Ion fraction	Cadmium(II) Ion uptake (mmol/g)	Water fraction	Water uptake (mmol/g)	total uptake (mmol/g)
1.01325	0.0075	0.00282			
1.01325	0.1077	0.20292			
1.01325	0.1886	0.33522			
1.01325	0.3053	0.48254			
1.01325	0.4848	0.59046			
1.01325	0.6644	0.68148			
1.01325	1.2061	0.76221			
1.01325	1.5002	0.80501			
1.01325	2.3071	0.81924			
