Adsorption isotherm of Cadmium(II) Ion, Water on alkaline Lignin-graft-poly(acrylic acid)
DOI: 10.1007/s10853-017-1463-1
Article source: Figure 6
Adsorbate Cadmium(II) Ion: InChIKey WLZRMCYVCSSEQC-UHFFFAOYSA-N
Adsorbate Water: InChIKey XLYOFNOQVPJJNP-UHFFFAOYSA-N
Kind: experiment
Temperature: 288 K
Tabular data in the source: 0
pressure (bar)	Cadmium(II) Ion fraction	Cadmium(II) Ion uptake (mmol/g)	Water fraction	Water uptake (mmol/g)	total uptake (mmol/g)
1.01325	0.0142	0.00587			
1.01325	0.1201	0.07906			
1.01325	0.3011	0.1701			
1.01325	0.6593	0.28006			
1.01325	1.2023	0.39004			
1.01325	1.6963	0.46218			
1.01325	2.2053	0.51541			
1.01325	2.9142	0.54264			
1.01325	3.5025	0.5545			
