Adsorption isotherm of Copper(II) Ion, Water on alkaline Lignin-graft-poly(acrylic acid)
DOI: 10.1007/s10853-017-1463-1
Article source: Figure 6
Adsorbate Copper(II) Ion: InChIKey JPVYNHNXODAKFH-UHFFFAOYSA-N
Adsorbate Water: InChIKey XLYOFNOQVPJJNP-UHFFFAOYSA-N
Kind: experiment
Temperature: 298 K
Tabular data in the source: 0
pressure (bar)	Copper(II) Ion fraction	Copper(II) Ion uptake (mmol/g)	Water fraction	Water uptake (mmol/g)	total uptake (mmol/g)
1.01325	0.0085	0.00258			
1.01325	0.089	0.16898			
1.01325	0.1805	0.33417			
1.01325	0.2719	0.483			
1.01325	0.4173	0.61398			
1.01325	0.6332	0.73158			
1.01325	0.9029	0.80306			
1.01325	1.2017	0.84181			
1.01325	2.0273	0.90596			
