Adsorption isotherm of Copper(II) Ion, Water on alkaline Lignin-graft-poly(acrylic acid)
DOI: 10.1007/s10853-017-1463-1
Article source: Figure 6
Adsorbate Copper(II) Ion: InChIKey JPVYNHNXODAKFH-UHFFFAOYSA-N
Adsorbate Water: InChIKey XLYOFNOQVPJJNP-UHFFFAOYSA-N
Kind: experiment
Temperature: 308 K
Tabular data in the source: 0
pressure (bar)	Copper(II) Ion fraction	Copper(II) Ion uptake (mmol/g)	Water fraction	Water uptake (mmol/g)	total uptake (mmol/g)
1.01325	0.0098	0.00305			
1.01325	0.0466	0.18023			
1.01325	0.086	0.28898			
1.01325	0.1515	0.41742			
1.01325	0.2484	0.59274			
1.01325	0.4237	0.75682			
1.01325	0.5911	0.83841			
1.01325	0.7663	0.90032			
