Adsorption isotherm of Copper(II) Ion, Water on alkaline Lignin-graft-poly(acrylic acid)
DOI: 10.1007/s10853-017-1463-1
Article source: Figure 6
Adsorbate Copper(II) Ion: InChIKey JPVYNHNXODAKFH-UHFFFAOYSA-N
Adsorbate Water: InChIKey XLYOFNOQVPJJNP-UHFFFAOYSA-N
Kind: experiment
Temperature: 288 K
Tabular data in the source: 0
pressure (bar)	Copper(II) Ion fraction	Copper(II) Ion uptake (mmol/g)	Water fraction	Water uptake (mmol/g)	total uptake (mmol/g)
1.01325	0.045	0.06978			
1.01325	0.1967	0.2139			
1.01325	0.4997	0.32617			
1.01325	0.8983	0.41837			
1.01325	1.501	0.5118			
1.01325	1.9093	0.55086			
1.01325	2.5021	0.60412			
1.01325	3.21	0.64206			
