Adsorption isotherm of Nitrogen on TAPB-TFP
DOI: 10.1039/c5tc00670h
Article source: Figure 7a
Adsorbate Nitrogen: InChIKey IJGRMHOSHXDMSA-UHFFFAOYSA-N
Kind: experiment
Temperature: 77 K
Tabular data in the source: 0
pressure (bar)	uptake (cm3(STP)/g)
0.010288	154.678
0.009844	131.966
0.006544	115.829
0.006544	92.6872
0.00567	71.2116
0.006544	60.3038
0.006045	47.8377
0.021474	167.263
0.024743	148.901
0.04094	161.792
0.060486	165.243
0.065946	177.558
0.078351	166.479
0.086912	182.093
0.096723	171.215
0.109188	179.786
0.120856	175.694
0.132556	177.827
0.149226	179.78
0.161456	191.189
0.171356	181.929
0.188051	183.051
0.206352	185.783
0.226682	185.926
0.251936	188.462
0.272357	189.52
0.288944	191.776
0.309089	193.107
0.320445	199.618
0.329287	193.495
0.343959	198.644
0.366162	197.336
0.385526	197.124
0.412281	198.833
0.432594	200.486
0.450898	202.829
0.469708	206.416
0.48817	203.047
0.49624	210.449
0.513357	205.808
0.5202	211.383
0.537817	207.669
0.546844	210.895
0.562535	208.579
0.572614	211.941
0.58807	209.969
0.599986	212.377
0.615856	210.938
0.639409	211.861
0.649488	215.394
0.664921	213.205
0.675346	216.754
0.691554	214.637
0.697709	220.067
0.716014	215.925
0.721703	220.312
0.739264	216.569
0.751571	220.561
0.768148	219.222
0.776592	221.358
0.792462	220.36
0.801052	223.058
0.816895	222.119
0.827346	224.183
0.842784	222.911
0.851719	226.851
0.878013	227.74
0.90422	228.264
0.928592	230.513
0.946659	231.393
0.965719	232.639
0.986435	235.545
0.129241	185.759
0.052989	171.827
1.01067	237.616
0.00517	103.715
0.18223	189.628
0.202908	193.498
0.227464	193.498
0.255897	196.594
0.279161	195.82
0.356705	201.238
0.383846	203.56
0.412279	204.334
0.431665	205.108
0.452344	206.656
0.306301	198.142
