Adsorption isotherm of Carbon Dioxide on TAPB-TFPB
DOI: 10.1039/c5tc00670h
Article source: Figure 7c
Adsorbate Carbon Dioxide: InChIKey CURLTUGMZLYLDI-UHFFFAOYSA-N
Kind: experiment
Temperature: 273 K
Tabular data in the source: 0
pressure (bar)	uptake (wt%)
0.03558	2.86429
0.083979	0.044878
0.103222	0.089209
0.122465	0.154753
0.141708	0.19286
0.159639	3.3543
0.161893	0.218053
0.180194	0.286222
0.200937	0.317524
0.200312	3.34109
0.22018	0.351956
0.226427	3.5302
0.238423	0.393873
0.257166	0.464005
0.27361	3.74052
0.27491	0.509147
0.294903	0.569029
0.313846	3.84252
0.313729	0.625118
0.332506	0.683803
0.353148	0.734104
0.354996	3.92005
0.37379	0.802569
0.393507	0.877235
0.39385	3.99109
0.412321	0.960566
0.430353	1.05598
0.431869	4.09449
0.449596	1.11123
0.468839	1.25604
0.476586	4.16794
0.489036	1.33797
0.506249	1.36846
0.518571	4.23581
0.526131	1.4798
0.545811	1.57317
0.556307	4.30118
0.565054	1.62377
0.584297	1.69236
0.594418	4.31815
0.602427	1.82108
0.625407	1.9438
0.633279	4.36855
0.647449	2.04607
0.671999	4.41679
0.669141	2.37098
0.695382	2.43316
0.7145	4.4948
0.718998	2.51969
0.746988	2.76571
0.752236	4.48432
0.769875	2.90892
0.789376	3.05322
0.808653	3.21283
0.828208	3.34756
0.831707	4.57864
0.847868	3.51603
0.86557	3.62751
0.871568	4.61706
0.884813	3.7817
0.905633	3.93415
0.914052	4.5453
0.925582	4.0607
0.9435	4.24759
0.961382	4.63499
0.96216	4.23409
0.982527	4.47035
1.01726	4.68576
0.024587	2.35659
0.794554	4.58915
0.120348	3.22481
0.075056	3.06977
