Adsorption isotherm of Hydrogen on iPrTAPB-TFP
DOI: 10.1039/c5tc00670h
Article source: Figure 7b
Adsorbate Hydrogen: InChIKey UFHFLCQGNIYNRP-UHFFFAOYSA-N
Kind: experiment
Temperature: 77 K
Tabular data in the source: 0
pressure (bar)	uptake (wt%)
0.0148	0.19755
0.019836	0.255377
0.015754	0.118097
0.028583	0.300438
0.040245	0.335592
0.046448	0.412472
0.063279	0.433002
0.076982	0.513836
0.095059	0.528889
0.097624	0.561951
0.122465	0.591241
0.143263	0.605446
0.174072	0.67298
0.197688	0.703894
0.212558	0.691057
0.225678	0.735428
0.237049	0.724067
0.250752	0.764535
0.263289	0.74933
0.275049	0.790058
0.296002	0.800933
0.315478	0.816606
0.333439	0.834423
0.353381	0.85495
0.366793	0.842746
0.394977	0.872884
0.420732	0.893384
0.439577	0.906851
0.457132	0.916384
0.477353	0.927105
0.497771	0.932415
0.52237	0.933288
0.538376	0.943348
0.555335	0.972143
0.573072	0.969284
0.591513	0.971446
0.60665	1.00013
0.623658	0.99601
0.644253	1.00165
0.662669	1.00921
0.682678	1.02584
0.702476	1.03571
0.720747	1.04674
0.714625	1.02469
0.740125	1.04463
0.759233	1.07673
0.760283	1.04694
0.7811	1.06289
0.800498	1.07505
0.817374	1.0801
0.838628	1.08039
0.857332	1.09078
0.877269	1.10319
0.894559	1.111
0.913822	1.1127
0.93442	1.12679
0.953965	1.13102
0.972947	1.13822
0.069879	0.449225
0.07635	0.460853
0.080663	0.474419
0.087133	0.486047
0.090369	0.50155
0.103309	0.524806
0.051547	0.387209
0.027822	0.27093
0.020274	0.230233
0.013803	0.150775
0.379376	0.862016
0.350259	0.82907
0.328692	0.811628
0.303889	0.784496
0.275851	0.765116
0.15615	0.627519
0.182031	0.652713
0.730929	1.05775
0.78377	1.07713
0.807494	1.08876
0.831219	1.09457
0.854943	1.10814
0.881903	1.11783
0.908862	1.12558
0.942292	1.12558
0.411727	0.869767
0.433295	0.883333
0.457019	0.900775
0.482901	0.916279
0.555152	0.949225
0.523879	0.949225
0.987584	1.14302
0.995133	1.1469
1.01023	1.1469
