Adsorption isotherm of Hydrogen on iPrTAPB-TFPB
DOI: 10.1039/c5tc00670h
Article source: Figure 7b
Adsorbate Hydrogen: InChIKey UFHFLCQGNIYNRP-UHFFFAOYSA-N
Kind: experiment
Temperature: 77 K
Tabular data in the source: 0
pressure (bar)	uptake (wt%)
0.011381	-0.007393
0.022169	0.026665
0.034324	0.064343
0.047972	0.09513
0.065657	0.113608
0.085729	0.130286
0.104097	0.153378
0.124506	0.166892
0.143458	0.173563
0.16134	0.181813
0.181405	0.196062
0.206435	0.206576
0.212732	0.232029
0.230522	0.22148
0.236174	0.24385
0.252268	0.228141
0.260665	0.255429
0.270578	0.236252
0.285156	0.263686
0.287489	0.24088
0.307225	0.248001
0.311397	0.276074
0.330505	0.258218
0.336762	0.285636
0.351243	0.265449
0.359796	0.298866
0.368951	0.272458
0.388806	0.293718
0.386619	0.276045
0.40667	0.285392
0.427904	0.290546
0.446734	0.29577
0.46398	0.299274
0.484583	0.30725
0.504264	0.312455
0.523706	0.318901
0.543041	0.321131
0.561555	0.324667
0.580798	0.332162
0.600333	0.336256
0.620013	0.339435
0.638702	0.343666
0.657333	0.349036
0.677159	0.354713
0.688384	0.378182
0.695907	0.356443
0.709202	0.385898
0.715674	0.360852
0.734451	0.367087
0.754793	0.371198
0.775415	0.375829
0.793783	0.377256
0.833649	0.386047
0.85195	0.389084
0.910054	0.403129
0.929651	0.40435
0.948821	0.406214
0.967004	0.414049
0.81267	0.381395
0.733733	0.383721
0.75832	0.390698
0.785495	0.393023
0.811376	0.397674
0.832081	0.402326
0.177718	0.210853
0.123799	0.185659
0.102231	0.170155
0.073114	0.144961
0.406335	0.3
0.43006	0.311628
0.453784	0.31938
0.481822	0.325194
0.504468	0.331008
0.533585	0.340698
0.554074	0.346512
0.582112	0.352326
0.607993	0.356202
0.631718	0.365891
0.65652	0.369767
0.871119	0.393023
0.89053	0.396899
0.858178	0.406589
0.885138	0.412403
0.913176	0.416279
0.937979	0.422093
0.96386	0.427907
0.985428	0.424031
0.994055	0.429845
1.00807	0.431783
0.151837	0.199225
0.025666	0.051938
0.054782	0.106202
0.073114	0.125581
0.092525	0.144961
0.01596	0.013178
