Adsorption isotherm of Hydrogen on TAPB-TFP
DOI: 10.1039/c5tc00670h
Article source: Figure 7b
Adsorbate Hydrogen: InChIKey UFHFLCQGNIYNRP-UHFFFAOYSA-N
Kind: experiment
Temperature: 77 K
Tabular data in the source: 0
pressure (bar)	uptake (wt%)
0.010506	0.148187
0.007007	0.08941
0.007007	-0.021803
0.02775	0.289228
0.038496	0.354026
0.057272	0.423142
0.071984	0.45137
0.084526	0.488712
0.113281	0.563733
0.130735	0.576808
0.149143	0.60827
0.167949	0.637463
0.182527	0.635778
0.192003	0.673831
0.206185	0.667141
0.218292	0.702206
0.232425	0.69328
0.244532	0.726075
0.260009	0.723576
0.26635	0.75223
0.283407	0.744589
0.295652	0.771093
0.312069	0.7786
0.33268	0.790573
0.352361	0.807007
0.370146	0.822879
0.389482	0.828099
0.394929	0.845497
0.412994	0.842759
0.419157	0.864857
0.437485	0.857941
0.447497	0.873974
0.462279	0.879162
0.483818	0.886419
0.503593	0.90178
0.520109	0.907158
0.53936	0.915348
0.560025	0.92478
0.573218	0.936187
0.589142	0.932989
0.611155	0.945382
0.623949	0.956185
0.640277	0.954772
0.663422	0.962453
0.674681	0.977406
0.690075	0.978593
0.711376	0.982196
0.732743	0.993349
0.749276	0.998365
0.769147	1.00352
0.789722	1.00667
0.797428	1.0243
0.815563	1.0145
0.826875	1.02849
0.842037	1.02894
0.863612	1.03496
0.882418	1.04212
0.899317	1.04347
0.946915	1.07247
0.972874	1.07617
0.993148	1.08424
1.01347	1.07713
0.914254	1.05194
0.932587	1.06357
0.101152	0.522868
0.094682	0.507364
0.078506	0.462791
0.025666	0.265116
0.048312	0.387209
0.021352	0.234109
0.007333	0.121705
0.006255	0.038372
0.011647	0.172093
