Adsorption isotherm of Carbon Dioxide on TAPB-TFP
DOI: 10.1039/c5tc00670h
Article source: Figure 7c
Adsorbate Carbon Dioxide: InChIKey CURLTUGMZLYLDI-UHFFFAOYSA-N
Kind: experiment
Temperature: 273 K
Tabular data in the source: 0
pressure (bar)	uptake (wt%)
0.012139	1.70659
0.002634	1.32654
0.018753	2.88148
0.028644	2.05402
0.038379	2.95142
0.042578	3.31238
0.04666	4.50528
0.058459	3.61357
0.069984	4.15408
0.069547	5.49733
0.081574	4.58462
0.096808	6.44746
0.095204	5.03948
0.105555	5.31918
0.106721	6.40903
0.124652	7.3941
0.125426	6.0616
0.153254	8.18424
0.153416	6.84997
0.176112	8.75525
0.176157	7.43843
0.199937	9.32679
0.202398	8.03764
0.214598	9.41196
0.229176	9.8928
0.226889	8.58149
0.254017	10.3304
0.250898	9.12494
0.27501	10.825
0.27762	9.59879
0.29762	10.0611
0.32787	10.5117
0.353381	12.0933
0.354592	10.9111
0.378747	12.4941
0.379083	11.3126
0.403238	12.8818
0.429104	13.2161
0.433074	12.0271
0.450762	13.5839
0.456344	12.3883
0.480546	12.7265
0.498928	13.0048
0.503577	14.0954
0.516947	13.1682
0.530942	14.3908
0.535633	13.3397
0.556526	14.7244
0.55689	13.7027
0.579341	14.9288
0.58201	13.9614
0.60429	15.1893
0.60825	14.2613
0.63188	15.415
0.632259	14.5358
0.656021	15.7641
0.658982	14.7966
0.674681	15.1349
0.675264	15.8352
0.688734	15.1611
0.694507	16.0605
0.710876	15.3574
0.715499	16.3037
0.734492	15.5976
0.736492	16.3906
0.751799	16.5845
0.760608	15.8265
0.779876	16.7899
0.785849	16.0525
0.797719	16.9129
0.81034	16.2907
0.83634	16.4765
0.856198	16.6653
0.865167	16.6544
0.886399	16.9424
0.91172	17.1836
0.942647	17.4438
0.962784	17.6427
0.97907	17.8211
0.998459	17.9128
1.01551	17.8001
0.407629	11.6899
0.482685	13.8295
0.83467	16.9612
0.861845	17.2093
0.883844	17.3643
0.914901	17.5194
0.934312	17.6124
0.960193	17.7985
0.30281	11.2868
0.33128	11.6589
