Adsorption isotherm of Nitrogen on iPrTAPB-TFP
DOI: 10.1039/c5tc00670h
Article source: Figure 7a
Adsorbate Nitrogen: InChIKey IJGRMHOSHXDMSA-UHFFFAOYSA-N
Kind: experiment
Temperature: 77 K
Tabular data in the source: 0
pressure (bar)	uptake (cm3(STP)/g)
0.015571	192.294
0.019177	173.598
0.011785	113.98
0.011785	83.4535
0.011785	66.7125
0.023141	197.672
0.036661	183.27
0.051969	219.265
0.055463	191.424
0.074682	198.696
0.0939	205.378
0.110296	209.044
0.13059	216.998
0.179122	226.589
0.198947	250.513
0.202747	231.494
0.229157	238.378
0.231924	261.417
0.255161	263.179
0.25422	240.291
0.279096	262.862
0.279096	247.748
0.303182	250.832
0.32474	251.701
0.35867	256.885
0.381908	260.635
0.441968	273.906
0.458663	275.301
0.507971	282.044
0.532014	286.777
0.558637	288.322
0.583097	291.271
0.604995	291.461
0.620952	294.288
0.635511	319.653
0.638737	295.526
0.658224	321.899
0.659971	300.212
0.684431	321.233
0.684431	301.139
0.708454	307.316
0.730075	327.646
0.730075	309.902
0.749233	311.246
0.766983	336.888
0.763551	312.042
0.784891	341.527
0.784891	318.665
0.809351	341.684
0.810868	325.334
0.833143	330.608
0.833956	347.628
0.85169	334.906
0.858562	355.984
0.867755	338.128
0.885351	364.18
0.887972	342.783
0.911558	352.508
0.941914	360.91
0.960478	395.132
0.966593	375.602
0.985957	392.692
1.00517	407.319
0.407109	267.802
0.010339	179.567
0.306301	266.254
0.329565	268.576
0.352828	271.672
0.379969	276.316
0.409694	279.412
0.42908	280.96
0.461391	283.282
0.4769	287.152
0.510502	298.762
0.533766	302.632
0.553152	306.502
0.580292	308.05
0.61131	311.146
0.710826	324.303
0.912442	370.743
0.935705	379.257
0.077545	225.232
0.100808	233.746
0.125364	239.164
0.155089	243.808
0.178353	250
0.157674	224.458
0.482069	277.864
0.006462	163.313
