Adsorption isotherm of Carbon Dioxide on iPrTAPB-TFP
DOI: 10.1039/c5tc00670h
Article source: Figure 7c
Adsorbate Carbon Dioxide: InChIKey CURLTUGMZLYLDI-UHFFFAOYSA-N
Kind: experiment
Temperature: 273 K
Tabular data in the source: 0
pressure (bar)	uptake (wt%)
0.008174	0.521955
0.011818	0.884657
0.021002	1.40256
0.030984	0.714022
0.049867	2.07826
0.060593	1.26477
0.075233	2.46276
0.078731	1.60377
0.097362	1.91338
0.099724	2.90035
0.115857	2.25105
0.125964	3.34201
0.133961	2.57209
0.151038	3.62548
0.154829	2.89425
0.174946	4.11786
0.178445	3.24522
0.199656	3.54555
0.201187	4.27637
0.216431	3.70386
0.22524	4.75353
0.230051	4.05567
0.246889	5.02226
0.255417	4.21884
0.264164	5.24495
0.281657	4.51227
0.279908	5.44683
0.30265	5.63515
0.306148	4.78854
0.327141	5.77551
0.33064	5.0572
0.353381	5.99399
0.35688	5.32394
0.377872	6.52159
0.381371	5.61546
0.402582	5.79075
0.404113	6.55613
0.428021	6.88526
0.453095	7.0813
0.458343	6.31472
0.475337	7.11964
0.483911	6.54607
0.491581	7.42772
0.509075	6.77391
0.507325	7.51735
0.530067	7.75325
0.533566	6.9854
0.553508	7.94671
0.558263	7.26218
0.580798	8.09145
0.585172	7.40457
0.604348	8.29519
0.609177	7.64482
0.629781	8.50946
0.635029	7.82565
0.667767	8.72372
0.666299	8.04696
0.684011	8.80881
0.687032	8.20418
0.705878	8.94015
0.711126	8.42317
0.731244	9.10795
0.736492	8.63352
0.753716	9.06175
0.770386	9.27078
0.766231	8.77887
0.808715	9.41212
0.817962	9.09624
0.832707	9.65415
0.839227	9.32198
0.857198	9.63382
0.871193	9.53771
0.886114	9.77685
0.904955	9.83579
0.924212	10.0422
0.94175	10.125
0.96216	10.3591
0.983152	10.3331
0.106113	2.10853
0.085408	1.76744
0.065997	1.45736
0.430922	6.04651
0.991251	10.3876
1.01196	10.5116
0.785495	9.39535
0.789377	9.02326
0.88255	9.92248
0.908431	10.0775
0.656089	8.62016
0.050468	1.05426
0.04141	0.837209
0.015529	1.14729
