Adsorption isotherm of Nitrogen on iPrTAPB-TFPB
DOI: 10.1039/c5tc00670h
Article source: Figure 7a
Adsorbate Nitrogen: InChIKey IJGRMHOSHXDMSA-UHFFFAOYSA-N
Kind: experiment
Temperature: 77 K
Tabular data in the source: 0
pressure (bar)	uptake (cm3(STP)/g)
0.010475	46.6014
0.018191	74.2585
0.018774	62.1737
0.013532	9.47902
0.037817	87.133
0.037206	66.6078
0.056462	92.7677
0.057211	72.6537
0.076429	80.5571
0.078176	104.316
0.092444	86.406
0.108576	111.704
0.118069	90.2197
0.13034	114.185
0.156797	97.7619
0.160874	118.645
0.176764	100.284
0.184751	121.734
0.195234	103.695
0.207114	125.864
0.224935	109.925
0.227032	129.073
0.259628	133.218
0.261356	114.942
0.285835	135.261
0.289191	118.121
0.305303	141.053
0.306302	122.257
0.326988	127.454
0.328307	139.92
0.363957	147.842
0.36587	132.242
0.385512	134.704
0.388292	154.394
0.404765	139.297
0.415123	156.187
0.424982	142.082
0.440831	163.213
0.460299	170.163
0.462662	147.383
0.479268	187.278
0.483511	151.815
0.503852	155.066
0.511814	214.557
0.530101	228.333
0.539956	161.436
0.56001	165.866
0.561655	241.682
0.580006	171.014
0.58135	248.705
0.599549	174.317
0.613497	258.24
0.631767	269.339
0.636884	182.009
0.656477	186.259
0.664557	272.954
0.680354	277.161
0.687551	194.266
0.707892	200.618
0.710235	278.355
0.742086	288.322
0.74558	209.706
0.763634	291.199
0.763925	213.197
0.78442	237.375
0.787761	295.646
0.808914	298.262
0.814767	246.94
0.835059	252.934
0.839926	300.878
0.85565	301.924
0.866132	263.353
0.86788	305.848
0.885485	271.742
0.891591	306.035
0.909811	304.968
0.913305	281.473
0.932523	290.652
0.937362	306.904
0.963584	311.399
0.966243	299.936
0.984688	309.933
1.00503	309.705
0.986109	318.885
0.024556	77.3994
