Adsorption isotherm of Carbon Dioxide on iPrTAPB-TFPB
DOI: 10.1039/c5tc00670h
Article source: Figure 7c
Adsorbate Carbon Dioxide: InChIKey CURLTUGMZLYLDI-UHFFFAOYSA-N
Kind: experiment
Temperature: 273 K
Tabular data in the source: 0
pressure (bar)	uptake (wt%)
0.023986	0.10857
0.047709	0.185217
0.066854	0.155385
0.083979	0.404141
0.10355	0.464469
0.124729	0.596964
0.144157	0.630674
0.20072	0.887242
0.22043	0.888473
0.229954	1.12194
0.243171	0.952773
0.273348	1.06805
0.297402	1.13657
0.323992	1.21965
0.342448	1.2936
0.357317	1.74746
0.360816	1.30752
0.381371	1.40715
0.382537	1.79462
0.401975	1.45171
0.406112	1.72176
0.425105	1.53422
0.431353	1.81657
0.449914	1.63806
0.471949	1.65831
0.503826	1.73538
0.507575	2.01917
0.527297	1.78813
0.551536	1.89433
0.557707	2.20122
0.570497	1.92084
0.602904	2.001
0.611704	2.38845
0.622379	2.10896
0.640277	2.13706
0.67957	2.27306
0.698589	2.30372
0.711418	2.70083
0.717567	2.35651
0.735154	2.44625
0.75684	2.52016
0.775727	2.54551
0.79286	2.49596
0.813329	2.598
0.835897	2.67684
0.856615	2.70942
0.867694	2.86281
0.882496	2.74851
0.900349	2.80243
0.917726	2.92716
0.936969	2.94982
0.957349	2.9602
0.976883	2.96265
0.993898	3.04553
1.01202	3.20933
0.175992	0.744186
0.175992	1.05426
0.148817	0.96124
0.125524	0.806202
0.104819	0.806202
0.073761	0.651163
0.051762	0.527132
0.20058	1.14729
0.251048	1.30233
0.276929	1.45736
0.30281	1.48837
0.328692	1.6124
0.45551	1.95349
0.480097	1.9845
0.527977	2.17054
0.579739	2.26357
0.630208	2.3876
0.658677	2.41861
0.659971	2.17054
0.68197	2.51163
0.732439	2.63566
0.760908	2.60465
0.784201	2.66667
0.810082	2.69767
0.833375	2.7907
