Adsorption isotherm of Hydrogen on TAPB-TFPB
DOI: 10.1039/c5tc00670h
Article source: Figure 7b
Adsorbate Hydrogen: InChIKey UFHFLCQGNIYNRP-UHFFFAOYSA-N
Kind: experiment
Temperature: 77 K
Tabular data in the source: 0
pressure (bar)	uptake (wt%)
0.00828	-0.001082
0.012864	0.057304
0.02625	0.104048
0.04135	0.136215
0.047534	0.391565
0.059488	0.162754
0.078731	0.18969
0.097865	0.42547
0.097974	0.212769
0.112844	0.225511
0.14805	0.456057
0.150346	0.261927
0.198781	0.479636
0.20228	0.296115
0.249586	0.501083
0.251809	0.324901
0.300244	0.522634
0.303743	0.35123
0.349773	0.542446
0.366501	0.380605
0.401314	0.562178
0.404003	0.398584
0.451236	0.575522
0.455938	0.418822
0.503127	0.593022
0.507119	0.436084
0.552603	0.609734
0.557401	0.453404
0.601681	0.624939
0.60693	0.47433
0.653616	0.638431
0.658864	0.488674
0.704797	0.653192
0.708296	0.504971
0.755079	0.666365
0.759124	0.521881
0.804608	0.682903
0.809856	0.541922
0.856542	0.691417
0.86004	0.562259
0.906071	0.705794
0.911222	0.588097
0.955745	0.720137
0.960301	0.627198
1.00682	0.679083
