Adsorption isotherm of Nitrogen on TAPB-TFPB
DOI: 10.1039/c5tc00670h
Article source: Figure 7a
Adsorbate Nitrogen: InChIKey IJGRMHOSHXDMSA-UHFFFAOYSA-N
Kind: experiment
Temperature: 77 K
Tabular data in the source: 0
pressure (bar)	uptake (cm3(STP)/g)
0.013205	36.6033
0.008679	5.61346
0.01062	20.5089
0.030671	40.5197
0.048849	80.8278
0.06944	47.7171
0.088659	50.6182
0.099957	83.965
0.149226	88.3014
0.150973	58.3768
0.162912	59.5714
0.200257	90.9281
0.201567	63.0373
0.213579	64.4106
0.25056	94.6026
0.252234	67.4841
0.264246	68.5958
0.300062	99.6801
0.302901	71.7021
0.314912	73.6966
0.350729	102.347
0.35227	79.9879
0.364706	78.6405
0.401395	104.995
0.404068	84.0392
0.416246	83.2442
0.452062	107.959
0.454734	87.8282
0.466913	86.9063
0.502729	111.336
0.504271	91.6342
0.516706	90.8823
0.553396	114.602
0.556068	94.9558
0.568247	95.1461
0.604063	117.757
0.605604	98.1989
0.61804	98.939
0.65473	119.802
0.657023	101.849
0.66958	102.993
0.705396	122.037
0.706938	105.186
0.719373	107.1
0.754549	120.929
0.75902	109.571
0.813719	127.8
0.819833	117.235
0.8573	121.955
0.86555	130.286
0.906317	125.814
0.917673	134.105
0.958525	135.078
0.97096	132.358
1.0055	145.511
0.077545	49.5356
0.040065	44.1176
0.054281	45.6656
0.099516	52.6316
0.105978	55.7276
