Adsorption isotherm of Water on Mg MOF-74
DOI: 10.1021/Ie202325p
Adsorbate Water: InChIKey XLYOFNOQVPJJNP-UHFFFAOYSA-N
Temperature: 298 K
Tabular data in the source: 0
pressure (bar)	uptake (mmol/g)
0.000120673	0.490798
0.00112889	16.1963
0.0019589	29.3252
0.00353622	30.0613
0.00499212	30.7975
0.00650873	31.5337
0.00808605	32.2699
0.00960285	32.8834
0.012637	33.7423
0.0156712	34.6012
0.0187662	35.3374
0.0218007	35.9509
0.0248962	36.4417
0.0278704	36.8098
