Adsorption isotherm of Water on DMOF-1
DOI: 10.1021/Ie202325p
Adsorbate Water: InChIKey XLYOFNOQVPJJNP-UHFFFAOYSA-N
Temperature: 298 K
Tabular data in the source: 0
pressure (bar)	uptake (mmol/g)
0.000521444	-0.156926
0.00332421	0.0168844
0.00645287	0.112563
0.00814756	2.03606
0.00958153	3.31994
0.0125798	4.61177
0.0153174	3.58844
0.0188372	2.40951
0.0250945	2.44129
0.0280276	2.69555
