Adsorption isotherm of Water on UiO-66-NH2
DOI: 10.1021/Ie202325p
Adsorbate Water: InChIKey XLYOFNOQVPJJNP-UHFFFAOYSA-N
Temperature: 298 K
Tabular data in the source: 0
pressure (bar)	uptake (mmol/g)
0.000260722	0.480048
0.0020206	3.76026
0.00280276	5.04083
0.00351975	6.40086
0.00430191	8.55908
0.00508408	10.8769
0.00560552	13.1934
0.00651805	16.3895
0.00710467	17.4297
0.0080172	18.2322
0.00958153	18.8785
0.0125798	19.6118
0.0157085	20.266
0.0187068	20.7599
0.0217051	21.3336
0.0248338	21.6687
0.0278973	22.0034
