Adsorption isotherm of Water on CuBTC
DOI: 10.1021/Ie202325p
Adsorbate Water: InChIKey XLYOFNOQVPJJNP-UHFFFAOYSA-N
Temperature: 298 K
Tabular data in the source: 0
pressure (bar)	uptake (mmol/g)
0.000181569	0.368098
0.00355652	16.6871
0.00658266	22.8221
0.00967604	24.6626
0.0127108	25.1534
0.0157455	25.6442
0.0188409	26.135
0.0217512	28.589
0.024847	28.8344
0.0278158	32.7607
