Adsorption isotherm of Water on UiO-66
DOI: 10.1021/Ie202325p
Adsorbate Water: InChIKey XLYOFNOQVPJJNP-UHFFFAOYSA-N
Temperature: 298 K
Tabular data in the source: 0
pressure (bar)	uptake (mmol/g)
0.000521444	0.162223
0.00351975	1.05511
0.00658323	3.30471
0.00964671	18.4798
0.0125798	19.6118
0.0156433	20.2656
0.0187068	20.8397
0.0217703	21.334
0.024899	21.669
0.0278973	25.2747
