Adsorption isotherm of Water on DMOF-1-NH2
DOI: 10.1021/Ie202325p
Adsorbate Water: InChIKey XLYOFNOQVPJJNP-UHFFFAOYSA-N
Temperature: 298 K
Tabular data in the source: 0
pressure (bar)	uptake (mmol/g)
0.000391083	0.0817736
0.00351975	1.45405
0.00651805	2.26715
0.00958153	2.84122
0.012645	3.49508
0.0157085	3.82979
0.0187068	4.64289
0.0217051	5.45599
0.024899	6.34987
