Adsorption isotherm of Water on UMCM-1
DOI: 10.1021/Ie202325p
Adsorbate Water: InChIKey XLYOFNOQVPJJNP-UHFFFAOYSA-N
Temperature: 298 K
Tabular data in the source: 0
pressure (bar)	uptake (mmol/g)
0.000214443	0.122004
0.00360397	1.61656
0.00660878	2.47059
0.00961416	3.14161
0.0126624	3.84314
0.0157094	4.97168
0.0187569	5.91721
0.0218041	6.95425
0.0248458	9.79085
0.0279277	13.512
