Adsorption isotherm of Nitrogen on TAPM-Amorphous
DOI: 10.1021/jacs.1c02932
Article source: Figure S18
Adsorbate Nitrogen: InChIKey IJGRMHOSHXDMSA-UHFFFAOYSA-N
Kind: experiment
Temperature: 77 K
Tabular data in the source: 0
pressure (bar)	uptake (cm3(STP)/g)
0.007316	105.381
0.014632	112.108
0.029264	118.834
0.040237	123.318
0.054869	125.561
0.073159	127.803
0.095106	130.045
0.120712	133.408
0.155463	135.65
0.1957	137.892
0.245082	140.135
0.294464	141.256
0.345676	143.498
0.398716	144.619
0.449927	144.619
0.502967	149.103
0.55052	147.982
0.60356	152.466
0.660259	155.83
0.709641	159.193
0.757194	163.677
0.810234	164.798
0.863274	168.161
0.910828	172.646
0.956552	180.493
1.00228	210.762
0.9785	189.462
0.910828	177.13
0.85413	171.525
0.804747	164.798
0.757194	159.193
0.702325	159.193
0.654772	155.83
0.60356	152.466
0.55052	151.345
0.499309	150.224
0.451756	146.861
0.400545	146.861
0.347505	146.861
0.296293	146.861
0.243253	146.861
0.1957	146.861
0.14266	145.74
0.093278	143.498
