Adsorption isotherm of Nitrogen on TAPB-COF-P
DOI: 10.1021/jacs.1c02932
Article source: Figure S28
Adsorbate Nitrogen: InChIKey IJGRMHOSHXDMSA-UHFFFAOYSA-N
Kind: experiment
Temperature: 77 K
Tabular data in the source: 0
pressure (bar)	uptake (cm3(STP)/g)
0.003176	100.356
0.004764	108.897
0.007941	119.573
0.014293	130.249
0.020646	138.79
0.028587	144.128
0.038116	150.534
0.046057	154.804
0.058762	164.413
0.076232	170.819
0.096878	180.427
0.119112	188.968
0.150876	201.779
0.188992	217.794
0.239813	237.011
0.292223	247.687
0.347808	253.025
0.397042	257.295
0.449451	260.498
0.500272	263.701
0.551094	267.972
0.603503	273.31
0.652736	277.58
0.703558	281.851
0.754379	286.121
0.8052	290.391
0.856022	295.73
0.916372	302.135
0.994192	327.758
0.967193	324.555
0.895726	311.744
0.844904	305.338
0.792495	302.135
0.741674	297.865
0.694029	293.594
0.643207	291.459
0.593974	288.256
0.543153	283.986
0.495508	273.31
0.443098	262.633
0.390689	259.431
0.339868	256.228
0.292223	251.957
0.244578	243.416
0.195344	227.402
0.147699	210.32
0.096878	190.036
