Adsorption isotherm of Nitrogen on TAPP-COF-P
DOI: 10.1021/jacs.1c02932
Article source: Figure S29
Adsorbate Nitrogen: InChIKey IJGRMHOSHXDMSA-UHFFFAOYSA-N
Kind: experiment
Temperature: 77 K
Tabular data in the source: 0
pressure (bar)	uptake (cm3(STP)/g)
0	160.595
0.003311	178.439
0.009934	196.283
0.016556	214.126
0.023179	231.97
0.029801	249.814
0.043047	258.736
0.05298	276.58
0.062914	285.502
0.082782	298.885
0.10265	312.268
0.12914	334.572
0.163908	361.338
0.203643	394.796
0.233445	463.941
0.329472	524.164
0.397353	530.855
0.447022	537.546
0.500002	544.238
0.552983	548.699
0.599341	553.16
0.650665	557.621
0.70199	564.312
0.753315	571.004
0.806295	575.465
0.855964	584.387
0.903978	595.539
0.951991	615.613
0.978482	660.223
0.998349	805.204
0.996694	840.892
0.988415	751.673
0.976826	671.375
0.942058	613.383
0.882455	586.617
0.824507	575.465
0.771527	568.773
0.718547	564.312
0.668877	557.621
0.617553	550.929
0.566228	548.699
0.514903	542.007
0.468545	539.777
0.417221	535.316
0.367551	530.855
0.317882	524.164
0.268213	513.011
0.238412	481.784
0.210266	414.87
0.167219	368.03
