Adsorption isotherm of Nitrogen on TAPB-COF
DOI: 10.1021/jacs.1c02932
Article source: Figure S28
Adsorbate Nitrogen: InChIKey IJGRMHOSHXDMSA-UHFFFAOYSA-N
Kind: experiment
Temperature: 77 K
Tabular data in the source: 0
pressure (bar)	uptake (cm3(STP)/g)
0.003176	68.3274
0.006353	79.0036
0.009529	91.8149
0.019058	104.626
0.025411	113.167
0.03494	121.708
0.04288	131.317
0.052409	136.655
0.065115	144.128
0.080996	152.669
0.101643	160.142
0.13023	171.886
0.161993	182.562
0.203285	199.644
0.25093	222.064
0.301752	248.754
0.344632	285.053
0.390689	334.164
0.462156	358.719
0.51933	365.125
0.568563	370.463
0.620973	377.936
0.670206	383.274
0.722616	389.68
0.770261	396.085
0.82267	404.626
0.87508	414.235
0.948135	425.979
1.01007	488.968
0.924313	428.114
0.867139	420.641
0.816317	416.37
0.765496	411.032
0.714675	406.762
0.660677	401.423
0.611444	398.221
0.560623	392.883
0.512978	388.612
0.471685	365.125
0.411335	353.381
0.373219	325.623
0.32875	276.512
0.271576	241.281
0.215991	216.726
0.161993	195.374
