Adsorption isotherm of Nitrogen on TAPFY-COF-P
DOI: 10.1021/jacs.1c02932
Article source: Figure S15
Adsorbate Nitrogen: InChIKey IJGRMHOSHXDMSA-UHFFFAOYSA-N
Kind: experiment
Temperature: 77 K
Tabular data in the source: 0
pressure (bar)	uptake (cm3(STP)/g)
0.003867	166.957
0.007735	182.609
0.011602	203.478
0.023204	224.348
0.030939	240
0.042541	255.652
0.054143	276.522
0.061878	281.739
0.07348	302.609
0.092817	323.478
0.117955	346.957
0.158562	360
0.201103	365.217
0.251379	370.435
0.301655	375.652
0.35193	383.478
0.402206	386.087
0.452482	391.304
0.502758	396.522
0.554967	399.13
0.607177	401.739
0.657452	406.957
0.705794	412.174
0.75607	414.783
0.806346	420
0.854688	425.217
0.904964	435.652
0.95524	448.696
0.995847	519.13
0.990046	526.957
0.961041	456.522
0.901096	433.043
0.841152	425.217
0.790876	417.391
0.738667	412.174
0.688391	409.565
0.636182	404.348
0.589773	401.739
0.537564	399.13
0.487288	393.913
0.435079	391.304
0.386737	386.087
0.336461	380.87
0.286185	380.87
0.237843	375.652
0.185634	367.826
0.137292	362.609
0.096684	339.13
