Adsorption isotherm of Nitrogen on TAPP-COF
DOI: 10.1021/jacs.1c02932
Article source: Figure S29
Adsorbate Nitrogen: InChIKey IJGRMHOSHXDMSA-UHFFFAOYSA-N
Kind: experiment
Temperature: 77 K
Tabular data in the source: 0
pressure (bar)	uptake (cm3(STP)/g)
0.003311	182.9
0.006623	209.665
0.009934	227.509
0.016556	245.353
0.023179	267.658
0.033113	285.502
0.046358	303.346
0.06457	321.19
0.081126	343.494
0.10265	361.338
0.12914	383.643
0.162252	408.178
0.203643	443.866
0.251657	484.015
0.294703	539.777
0.314571	646.84
0.488413	767.286
0.556294	776.208
0.605963	785.13
0.655632	794.052
0.706957	802.974
0.758282	811.896
0.807951	825.279
0.85762	834.201
0.903978	852.045
0.94868	881.041
0.980137	939.033
1.00994	1092.94
0.978482	952.416
0.947025	892.193
0.8957	858.736
0.832786	838.662
0.77815	829.74
0.72848	820.818
0.677156	814.126
0.625831	807.435
0.576162	798.513
0.524837	794.052
0.473512	785.13
0.427154	776.208
0.374174	767.286
0.332783	749.442
0.316227	686.989
0.307949	604.461
0.283114	533.086
0.236756	490.706
0.190398	448.327
