Adsorption isotherm of Nitrogen on TAPFY-COF
DOI: 10.1021/jacs.1c02932
Article source: Figure S15
Adsorbate Nitrogen: InChIKey IJGRMHOSHXDMSA-UHFFFAOYSA-N
Kind: experiment
Temperature: 77 K
Tabular data in the source: 0
pressure (bar)	uptake (cm3(STP)/g)
0.003867	219.13
0.007735	234.783
0.011602	255.652
0.017403	276.522
0.021271	294.783
0.027072	313.043
0.03674	331.304
0.046408	352.174
0.05801	370.435
0.071546	388.696
0.088949	412.174
0.112154	433.043
0.139225	461.739
0.172098	495.652
0.210771	553.043
0.235909	714.783
0.375135	777.391
0.431211	780
0.481487	785.217
0.531763	793.043
0.583972	798.261
0.634248	803.478
0.68259	806.087
0.732866	811.304
0.785075	819.13
0.835351	824.348
0.885627	834.783
0.937836	847.826
0.980377	884.348
1.00551	1027.83
0.966842	871.304
0.924301	829.565
0.870157	813.913
0.821815	803.478
0.769606	795.652
0.717396	787.826
0.667121	785.217
0.616845	780
0.566569	774.783
0.51436	772.174
0.466018	764.348
0.413808	761.739
0.363532	756.522
0.31519	751.304
0.262981	743.478
0.228175	683.478
0.214639	555.652
0.175965	493.043
