Adsorption isotherm of Nitrogen on 49.2%SWCNT/50.8%MWCNT(147K)
DOI: 10.1016/j.carbon.2004.02.025
Article source: Figure 5
Adsorbate Nitrogen: InChIKey IJGRMHOSHXDMSA-UHFFFAOYSA-N
Kind: experiment
Temperature: 77 K
Tabular data in the source: 0
pressure (bar)	uptake (ml/g)
0	0
0.002825	67.5676
0.016949	100
0.045198	112.162
0.070622	117.568
0.09887	122.973
0.121469	128.378
0.141243	132.432
0.161017	137.838
0.177966	139.189
0.194915	141.892
0.206215	144.595
0.220339	147.297
0.231638	148.649
0.248588	151.351
0.279661	155.405
0.327684	163.514
0.378531	170.27
0.429379	178.378
0.477401	186.486
0.545198	197.297
0.587571	206.757
0.624294	214.865
0.658192	224.324
0.69209	233.784
0.717514	241.892
0.742938	252.703
0.768362	262.162
0.788136	271.622
0.827684	290.541
0.858757	310.811
0.881356	327.027
0.903955	341.892
0.923729	352.703
0.937853	362.162
0.951977	374.324
0.957627	383.784
0.960452	391.892
0.963277	395.946
0.966102	400
