Adsorption isotherm of Nitrogen on 81.1%SWCNT/18.9%MWCNT
DOI: 10.1016/j.carbon.2004.02.025
Article source: Figure 2a
Adsorbate Nitrogen: InChIKey IJGRMHOSHXDMSA-UHFFFAOYSA-N
Kind: experiment
Temperature: 77 K
Tabular data in the source: 0
pressure (bar)	uptake (ml/g)
0	33.8935
0.005682	96.6198
0.028409	108.523
0.056818	117.045
0.107955	128.997
0.127841	134.115
0.147727	137.539
0.181818	146.071
0.213068	151.209
0.255682	159.755
0.286932	164.893
0.318182	170.031
0.346591	175.164
0.380682	180.306
0.409091	187.134
0.4375	193.962
0.465909	199.095
0.491477	205.918
0.528409	214.455
0.565341	222.992
0.596591	231.52
0.627841	241.742
0.65625	250.265
0.681818	258.783
0.704545	267.296
0.727273	274.114
0.744318	284.312
0.761364	294.511
0.778409	303.014
0.821023	326.815
0.877841	360.81
0.920455	386.306
0.957386	410.097
