Adsorption isotherm of Nitrogen on 96.9%SWCNT/3.1%MWCNT
DOI: 10.1016/j.carbon.2004.02.025
Article source: Figure 2a
Adsorbate Nitrogen: InChIKey IJGRMHOSHXDMSA-UHFFFAOYSA-N
Kind: experiment
Temperature: 77 K
Tabular data in the source: 0
pressure (bar)	uptake (ml/g)
0.03125	123.782
0.071023	135.714
0.107955	145.946
0.144886	156.178
0.184659	166.415
0.210227	173.238
0.269886	188.593
0.335227	202.263
0.394886	215.924
0.454545	231.279
0.508523	244.93
0.559659	256.881
0.602273	273.902
0.642045	282.444
0.698864	307.964
0.738636	324.981
0.789773	362.356
0.84375	396.345
0.889205	423.541
0.920455	455.797
0.940341	472.78
