Adsorption isotherm of Nitrogen on 49.2%SWCNT/50.8%MWCNT(277K)
DOI: 10.1016/j.carbon.2004.02.025
Article source: Figure 5
Adsorbate Nitrogen: InChIKey IJGRMHOSHXDMSA-UHFFFAOYSA-N
Kind: experiment
Temperature: 77 K
Tabular data in the source: 0
pressure (bar)	uptake (ml/g)
0.002825	0.002825
0.028249	87.8378
0.064972	98.6486
0.09322	98.6486
0.127119	101.351
0.177966	105.405
0.217514	108.108
0.237288	112.162
0.254237	112.162
0.274011	114.865
0.288136	118.919
0.299435	118.919
0.313559	118.919
0.330508	120.27
0.344633	121.622
0.358757	124.324
0.364407	124.324
0.372881	124.324
0.40678	127.027
0.463277	131.081
0.514124	136.486
0.562147	137.838
0.612994	140.541
0.655367	143.243
0.700565	150
0.742938	156.757
0.782486	166.216
0.819209	174.324
0.844633	187.838
0.872881	200
0.89548	214.865
0.909605	233.784
0.932203	259.459
0.949153	290.541
