Adsorption isotherm of Nitrogen on SWCNT
DOI: 10.1016/j.carbon.2004.02.025
Article source: Figure 2a
Adsorbate Nitrogen: InChIKey IJGRMHOSHXDMSA-UHFFFAOYSA-N
Kind: experiment
Temperature: 77 K
Tabular data in the source: 0
pressure (bar)	uptake (ml/g)
0	81.6327
0.008523	110.559
0.042614	132.726
0.090909	144.712
0.122159	153.269
0.15625	165.232
0.190341	172.092
0.224432	180.654
0.289773	197.772
0.352273	211.483
0.414773	226.896
0.46875	240.593
0.525568	255.996
0.573864	269.683
0.616477	281.661
0.653409	293.628
0.698864	315.814
0.730114	334.575
0.778409	358.467
0.838068	401.085
0.889205	438.587
0.914773	465.841
0.926136	484.568
