Adsorption isotherm of Nitrogen on MWCNT
DOI: 10.1016/j.carbon.2004.02.025
Article source: Figure 2a
Adsorbate Nitrogen: InChIKey IJGRMHOSHXDMSA-UHFFFAOYSA-N
Kind: experiment
Temperature: 77 K
Tabular data in the source: 0
pressure (bar)	uptake (ml/g)
0	35.5884
0	42.3633
0	52.5424
0.005682	55.9418
0.017046	61.0458
0.028409	64.4549
0.042614	64.479
0.051136	64.4935
0.065341	66.2124
0.076704	66.2317
0.088068	66.251
0.099432	67.9651
0.142045	69.7323
0.190341	71.5091
0.247159	74.9952
0.295455	80.1618
0.340909	85.3236
0.417614	97.318
0.471591	104.189
0.525568	109.365
0.602273	117.97
0.670455	129.95
0.732955	143.615
0.78125	155.561
0.815341	169.179
0.84375	182.786
0.863636	194.684
0.880682	208.272
0.897727	220.166
0.90625	232.044
0.926136	260.892
0.934659	279.55
0.951705	308.393
