Adsorption isotherm of Nitrogen on 49.2%SWCNT/50.8%MWCNT
DOI: 10.1016/j.carbon.2004.02.025
Article source: Figure 5
Adsorbate Nitrogen: InChIKey IJGRMHOSHXDMSA-UHFFFAOYSA-N
Kind: experiment
Temperature: 77 K
Tabular data in the source: 0
pressure (bar)	uptake (ml/g)
0	0
0.002825	27.027
0.025424	71.6216
0.045198	85.1351
0.070622	90.5405
0.149718	104.054
0.19774	110.811
0.234463	117.568
0.248588	121.622
0.265537	122.973
0.274011	124.324
0.288136	124.324
0.322034	131.081
0.378531	136.486
0.440678	147.297
0.497175	156.757
0.556497	167.568
0.601695	177.027
0.661017	191.892
0.720339	208.108
0.765537	225.676
0.799435	241.892
0.836158	262.162
0.878531	290.541
0.918079	312.162
0.940678	328.378
0.943503	333.784
