Adsorption isotherm of Nitrogen on 47.9%SWCNT/52.1%MWCNT
DOI: 10.1016/j.carbon.2004.02.025
Article source: Figure 2a
Adsorbate Nitrogen: InChIKey IJGRMHOSHXDMSA-UHFFFAOYSA-N
Kind: experiment
Temperature: 77 K
Tabular data in the source: 0
pressure (bar)	uptake (ml/g)
0	-0.002841
0	62.7119
0.053977	91.6169
0.119318	100.202
0.173295	110.463
0.207386	117.301
0.28125	127.595
0.355114	136.195
0.409091	143.066
0.460227	155.017
0.505682	161.874
0.553977	170.43
0.59375	178.972
0.636364	187.519
0.690341	204.56
0.735795	218.196
0.798295	247.116
0.823864	259.023
0.877841	287.929
0.926136	323.604
0.9375	342.267
