Adsorption isotherm of Nitrogen on 88.7%SWCNT/11.3%MWCNT
DOI: 10.1016/j.carbon.2004.02.025
Article source: Figure 2a
Adsorbate Nitrogen: InChIKey IJGRMHOSHXDMSA-UHFFFAOYSA-N
Kind: experiment
Temperature: 77 K
Tabular data in the source: 0
pressure (bar)	uptake (ml/g)
0.017046	116.978
0.039773	123.796
0.056818	130.605
0.076704	135.723
0.09375	139.142
0.113636	144.26
0.130682	147.679
0.142045	151.088
0.159091	152.812
0.170455	156.221
0.178977	159.625
0.193182	163.039
0.207386	164.758
0.21875	168.167
0.235795	169.891
0.244318	171.601
0.28125	181.833
0.318182	188.675
0.357955	197.217
0.392045	205.749
0.426136	210.892
0.460227	221.119
0.494318	227.956
0.536932	238.198
0.585227	250.144
0.627841	265.471
0.667614	279.098
0.701705	292.715
0.732955	308.022
0.784091	336.922
0.823864	360.718
0.855114	381.11
0.883523	398.108
0.90625	411.706
0.951705	447.376
