Adsorption isotherm of Hydrogen on Be-BTB
DOI: 10.1021/La401446s
Adsorbate Hydrogen: InChIKey UFHFLCQGNIYNRP-UHFFFAOYSA-N
Temperature: 77 K
Tabular data in the source: 0
pressure (bar)	uptake (wt%)
1.39213	2.08266
10.2338	6.01556
20.3799	7.15967
30.3811	7.74603
50.5285	8.4039
76.0388	8.91875
101.694	9.33349
