Adsorption isotherm of Hydrogen on Be-BTB
DOI: 10.1021/La401446s
Adsorbate Hydrogen: InChIKey UFHFLCQGNIYNRP-UHFFFAOYSA-N
Temperature: 77 K
Tabular data in the source: 0
pressure (bar)	uptake (wt%)
1.24719	1.51061
2.2618	2.51171
3.13147	3.32689
5.45059	4.55681
8.20455	5.4435
10.2338	5.85824
13.7125	6.40169
18.6406	6.97375
26.9025	7.4886
38.3531	7.94625
50.5285	8.21798
60.8196	8.4468
71.5455	8.66132
85.7501	8.93305
96.9109	9.10466
