Adsorption isotherm of Hydrogen on IRMOF-1
DOI: 10.1021/La401446s
Adsorbate Hydrogen: InChIKey UFHFLCQGNIYNRP-UHFFFAOYSA-N
Temperature: 233 K
Tabular data in the source: 0
pressure (bar)	uptake (wt%)
5.37891	0.0845452
12.0972	0.204263
19.4493	0.338066
27.055	0.468348
36.1817	0.640883
45.055	0.792292
53.1676	0.933137
62.1676	1.10215
71.8014	1.2606
81.1817	1.42257
90.6888	1.57398
100.069	1.72539
