Adsorption isotherm of Hydrogen on Be-BTB
DOI: 10.1021/La401446s
Adsorbate Hydrogen: InChIKey UFHFLCQGNIYNRP-UHFFFAOYSA-N
Temperature: 77 K
Tabular data in the source: 0
pressure (bar)	uptake (wt%)
0.812353	1.06726
1.68202	1.82524
2.11686	2.4545
3.13147	3.18387
4.29103	3.82744
5.45059	4.4281
7.18993	5.02876
9.36411	5.65802
14.1473	6.40169
21.5395	7.13107
30.671	7.60301
40.0924	8.00346
49.079	8.23228
61.5443	8.54691
71.9803	8.71853
84.4456	8.97595
101.114	9.16187
