Adsorption isotherm of Hydrogen on Be-BTB
DOI: 10.1021/La401446s
Adsorbate Hydrogen: InChIKey UFHFLCQGNIYNRP-UHFFFAOYSA-N
Temperature: 233 K
Tabular data in the source: 0
pressure (bar)	uptake (wt%)
5.25215	0.221869
11.4634	0.464827
18.3085	0.6937
26.4212	0.933137
33.5198	1.11624
41.5057	1.31694
51.6465	1.53877
62.1676	1.7606
74.8437	1.98243
84.6043	2.15497
94.8719	2.31342
99.6888	2.3944
