Adsorption isotherm of Hydrogen on MOF-177
DOI: 10.1021/La401446s
Adsorbate Hydrogen: InChIKey UFHFLCQGNIYNRP-UHFFFAOYSA-N
Temperature: 233 K
Tabular data in the source: 0
pressure (bar)	uptake (wt%)
6.01271	0.0141226
12.8578	0.0387705
19.8296	0.0634184
28.5761	0.0986297
37.9564	0.137362
48.0972	0.179616
57.4775	0.211306
66.3507	0.246517
76.6183	0.281728
87.1395	0.31694
94.8719	0.34863
99.562	0.369756
