Adsorption isotherm of Hydrogen on Be-BTB
DOI: 10.1021/La401446s
Adsorbate Hydrogen: InChIKey UFHFLCQGNIYNRP-UHFFFAOYSA-N
Temperature: 298 K
Tabular data in the source: 0
pressure (bar)	uptake (wt%)
2.98653	0.0375585
8.49444	0.25208
13.5675	0.380793
19.9451	0.581013
25.8878	0.709726
32.8452	0.881343
41.252	1.09586
50.0937	1.26748
59.2252	1.4677
67.1972	1.63932
75.604	1.79663
83.7209	1.91105
91.5479	2.03976
101.404	2.16847
