Adsorption isotherm of Hydrogen on Be-BTB
DOI: 10.1021/La401446s
Adsorbate Hydrogen: InChIKey UFHFLCQGNIYNRP-UHFFFAOYSA-N
Temperature: 298 K
Tabular data in the source: 0
pressure (bar)	uptake (wt%)
1.82697	0.0375585
10.5237	0.137669
19.9451	0.25208
30.816	0.437999
50.5285	0.681123
76.3287	1.03866
101.404	1.32469
