Adsorption isotherm of Hydrogen on Be-BTB
DOI: 10.1021/La401446s
Adsorbate Hydrogen: InChIKey UFHFLCQGNIYNRP-UHFFFAOYSA-N
Temperature: 298 K
Tabular data in the source: 0
pressure (bar)	uptake (wt%)
5.01576	0.0804628
8.92927	0.15197
17.626	0.309286
26.1777	0.55241
33.8598	0.724027
42.5565	0.924247
50.0937	1.11017
57.6308	1.31039
65.7477	1.51061
72.995	1.71083
80.677	1.92535
88.2142	2.06836
95.6064	2.26858
