Adsorption isotherm of Water on Carbon
DOI: 10.1080/01496399508225610
Adsorbate Water: InChIKey XLYOFNOQVPJJNP-UHFFFAOYSA-N
Temperature: 298 K
Tabular data in the source: 0
pressure (bar)	uptake (cm3(STP)/g)
0.00191373	0.00550674
0.00487412	0.00722291
0.00753419	0.0146597
0.0111381	0.0175199
0.0145276	0.0249567
0.0169302	0.0512713
0.0199764	0.0964638
0.0213065	0.152525
0.0225078	0.206299
0.0243527	0.234902
