Adsorption isotherm of Water on Carbon
DOI: 10.1080/01496399508225610
Adsorbate Water: InChIKey XLYOFNOQVPJJNP-UHFFFAOYSA-N
Temperature: 298 K
Tabular data in the source: 0
pressure (bar)	uptake (cm3(STP)/g)
0.00371571	0.0060788
0.00620416	0.00722291
0.00813485	0.0129435
0.0100226	0.0215243
0.011224	0.0301052
0.0131547	0.0466949
0.0138411	0.0735815
0.0181745	0.140512
0.0195045	0.169115
0.0201051	0.179984
0.0232801	0.196002
0.025082	0.211447
