Adsorption isotherm of Water on Carbon
DOI: 10.1080/01496399508225610
Adsorbate Water: InChIKey XLYOFNOQVPJJNP-UHFFFAOYSA-N
Temperature: 298 K
Tabular data in the source: 0
pressure (bar)	uptake (cm3(STP)/g)
0.000369	0.0020744
0.00122726	0.00264646
0.00985102	0.00550674
0.0124682	0.0100832
0.0137982	0.0192361
0.0149137	0.0306773
0.0159005	0.0461228
0.0172735	0.0752977
0.0184319	0.127355
0.0190325	0.15653
0.0196761	0.187421
0.0209203	0.232041
0.02195	0.262932
0.0234517	0.302404
0.0253395	0.327003
