Adsorption isotherm of Nitrogen on CuBTC
DOI: 10.1039/C0ce00486c
Adsorbate Nitrogen: InChIKey IJGRMHOSHXDMSA-UHFFFAOYSA-N
Temperature: 77 K
Tabular data in the source: 0
pressure (bar)	uptake (cm3(STP)/g)
0.00168667	308.233
0.00337333	330.321
0.0236133	390.562
0.0640933	402.61
0.0843333	405.622
0.102887	409.639
0.124813	412.651
0.14168	413.655
0.163607	415.663
0.18216	417.671
0.200713	419.679
0.219267	419.679
0.241193	420.683
0.259747	421.687
0.279987	422.691
0.29854	423.695
0.315407	424.699
0.33396	426.707
0.355887	425.703
0.453713	429.719
0.49588	430.723
0.51612	431.727
0.553227	430.723
0.573467	431.727
0.593707	433.735
0.6325	433.735
0.671293	434.739
0.711773	435.743
0.730327	436.747
0.750567	436.747
0.76912	436.747
0.791047	437.751
0.8096	438.755
0.82984	438.755
0.848393	439.759
0.868633	440.763
0.888873	443.775
0.907427	445.783
0.92598	449.799
0.94116	456.827
0.95634	475.904
0.964773	492.972
