Adsorption isotherm of Nitrogen on CuBTC
DOI: 10.1039/C0ce00486c
Adsorbate Nitrogen: InChIKey IJGRMHOSHXDMSA-UHFFFAOYSA-N
Temperature: 77 K
Tabular data in the source: 0
pressure (bar)	uptake (cm3(STP)/g)
0.00276421	272.614
0.00289091	303.446
0.00462146	324.54
0.0128807	334.269
0.024411	339.939
0.0408729	345.605
0.0639102	351.265
0.0852936	354.493
0.103386	356.912
0.124763	358.516
0.142855	360.935
0.165872	361.728
0.182318	363.337
0.202047	364.131
0.223424	365.736
0.241506	365.721
0.279322	367.312
0.320424	368.901
0.377966	370.475
0.594971	374.351
0.634427	375.129
0.672236	375.098
0.711695	376.688
0.752794	377.465
0.811976	378.227
0.849795	380.629
0.871165	380.611
0.890898	382.217
0.908987	383.825
0.927083	387.055
0.943534	390.287
0.956719	398.39
0.963317	404.064
