Adsorption isotherm of Nitrogen on CuBTC
DOI: 10.1039/C0ce00486c
Adsorbate Nitrogen: InChIKey IJGRMHOSHXDMSA-UHFFFAOYSA-N
Temperature: 77 K
Tabular data in the source: 0
pressure (bar)	uptake (cm3(STP)/g)
0.0016219	244.638
0.00324381	266.286
0.00810952	300.922
0.0259505	305.238
0.0389257	308.837
0.0535228	313.878
0.0778514	316.746
0.107046	320.333
0.139484	322.474
0.180031	324.609
0.197872	324.595
0.218957	325.301
0.23842	325.287
0.257883	325.994
0.278967	326.7
0.29843	326.686
0.316271	327.394
0.335734	325.936
0.415207	327.32
0.473596	327.277
0.49468	327.983
0.512521	327.248
0.533606	327.233
0.554691	327.938
0.572532	327.925
0.591995	327.189
0.613079	327.173
0.63092	327.882
0.669846	327.853
0.689309	327.838
0.710394	327.823
0.729856	327.087
0.750941	327.793
0.80933	327.749
0.828793	327.735
0.848255	329.164
0.866096	329.872
0.887181	332.021
0.905022	333.451
0.924485	337.767
0.942326	344.248
0.960167	360.833
