Adsorption isotherm of Nitrogen on CuBTC
DOI: 10.1039/C0ce00486c
Adsorbate Nitrogen: InChIKey IJGRMHOSHXDMSA-UHFFFAOYSA-N
Temperature: 77 K
Tabular data in the source: 0
pressure (bar)	uptake (cm3(STP)/g)
0.00164386	244.444
0.00328772	265.079
0.0197263	320.635
0.0394526	324.603
0.0624666	329.365
0.0854806	332.54
0.100275	334.127
0.121645	336.508
0.141372	337.302
0.161098	338.095
0.180824	339.683
0.202195	340.476
0.220277	339.683
0.240003	341.27
0.258086	341.27
0.277812	342.063
0.317265	342.857
0.355073	343.651
0.376443	343.651
0.397814	344.444
0.433978	344.444
0.473431	344.444
0.494801	343.651
0.512884	343.651
0.53261	344.444
0.572063	343.651
0.650968	344.444
0.69042	344.444
0.710147	344.444
0.751243	345.238
0.810422	346.032
0.828504	344.444
0.848231	346.032
0.867957	346.032
0.887683	347.619
0.90741	349.206
0.922204	353.175
0.946862	365.079
0.956725	384.127
0.966588	396.825
