Adsorption isotherm of Nitrogen on 2D-PPQV1
DOI: 10.1002/anie.202010398
Article source: Figure S21
Adsorbate Nitrogen: InChIKey IJGRMHOSHXDMSA-UHFFFAOYSA-N
Kind: experiment
Temperature: 77 K
Tabular data in the source: 0
pressure (bar)	uptake (cm3(STP)/g)
0.005092	36.8421
0.005092	50.6579
0.015275	59.8684
0.028004	69.0789
0.040734	73.6842
0.050917	78.2895
0.063646	82.8947
0.081467	87.5
0.096742	92.1053
0.109472	94.4079
0.124747	99.0132
0.140022	101.316
0.157843	105.921
0.170572	108.224
0.185847	112.829
0.201122	117.434
0.216398	119.737
0.231673	124.342
0.246948	126.645
0.262223	128.947
0.277498	131.25
0.292773	133.553
0.305503	135.855
0.323323	140.461
0.34369	142.763
0.353874	147.368
0.366603	147.368
0.381878	151.974
0.404791	154.276
0.425158	156.579
0.445524	158.882
0.463345	161.184
0.486258	165.789
0.504079	170.395
0.526992	170.395
0.547359	172.697
0.56518	175
0.585546	179.605
0.608459	184.211
0.62628	186.513
0.649193	191.118
0.667014	191.118
0.687381	195.724
0.707747	198.026
0.728114	207.237
0.748481	209.539
0.768848	211.842
0.768848	211.842
0.789215	216.447
0.809582	221.053
0.829948	230.263
0.850315	234.868
0.870682	239.474
0.888503	244.079
0.90887	250.987
0.931783	264.803
0.952149	278.618
0.96997	294.737
0.992883	338.487
1.00307	442.105
1.00561	575.658
0.010183	131.25
0.020367	145.066
0.028004	151.974
0.038188	158.882
0.048371	165.789
0.066192	172.697
0.078921	177.303
0.096742	181.908
0.109472	186.513
0.127293	191.118
0.140022	193.421
0.155297	195.724
0.170572	200.329
0.185847	204.934
0.198577	207.237
0.216398	211.842
0.231673	214.145
0.246948	216.447
0.262223	216.447
0.280044	218.75
0.302957	223.355
0.323323	227.961
0.34369	227.961
0.364057	230.263
0.381878	234.868
0.402245	234.868
0.422612	237.171
0.442979	237.171
0.463345	239.474
0.486258	244.079
0.506625	248.684
0.524446	250.987
0.544813	253.289
0.562634	255.592
0.583001	257.895
0.605913	255.592
0.62628	257.895
0.646647	260.197
0.667014	262.5
0.687381	267.105
0.707747	267.105
0.725568	269.408
0.748481	271.711
0.766302	271.711
0.789215	274.013
0.809582	276.316
0.827403	280.921
0.850315	283.224
0.870682	287.829
0.891049	292.434
0.90887	297.039
0.931783	303.947
0.952149	315.461
0.972516	331.579
0.990337	396.053
1.00307	522.697
