Adsorption isotherm of Nitrogen on 2D-PPQV2
DOI: 10.1002/anie.202010398
Article source: Figure S22
Adsorbate Nitrogen: InChIKey IJGRMHOSHXDMSA-UHFFFAOYSA-N
Kind: experiment
Temperature: 77 K
Tabular data in the source: 0
pressure (bar)	uptake (cm3(STP)/g)
0.005291	4.56026
0.010582	6.84039
0.018519	8.46906
0.031747	9.44625
0.042329	10.4235
0.052911	10.7492
0.066139	11.0749
0.082012	11.7264
0.100531	12.0521
0.113759	12.3778
0.129633	13.0293
0.14286	13.355
0.158734	13.355
0.174607	14.0065
0.187835	14.3322
0.206354	14.658
0.219582	14.9837
0.235455	15.3094
0.248683	15.3094
0.264556	15.3094
0.277784	15.6352
0.296303	15.9609
0.306885	15.9609
0.325404	16.2866
0.343923	16.6124
0.354505	17.2638
0.367733	17.2638
0.383606	17.5896
0.407416	17.5896
0.428581	17.9153
0.444454	17.9153
0.468264	18.241
0.486783	18.8925
0.507948	19.2182
0.526467	19.544
0.544986	19.8697
0.568796	20.1954
0.587315	20.1954
0.608479	20.5212
0.629644	20.8469
0.648163	21.1726
0.669327	22.1498
0.687846	22.4756
0.70901	22.8013
0.730175	23.127
0.748694	23.127
0.769858	23.7785
0.791023	24.43
0.809542	25.4072
0.830706	26.0586
0.851871	26.7101
0.87039	27.3616
0.891554	28.3388
0.910073	29.6417
0.931238	32.2476
0.949757	35.5049
0.970921	39.4137
0.992086	47.557
1.00267	64.8208
1.00531	88.9251
0.007937	14.658
0.010582	17.2638
0.015873	18.241
0.026456	19.544
0.037038	20.1954
0.044975	20.8469
0.055557	21.1726
0.068785	21.4984
0.084658	22.1498
0.100531	22.4756
0.116405	22.8013
0.132278	23.127
0.145506	23.4528
0.161379	23.4528
0.177253	23.7785
0.193126	23.7785
0.206354	24.1042
0.222227	24.43
0.235455	24.43
0.251328	24.7557
0.267202	25.0814
0.285721	25.4072
0.306885	25.4072
0.32805	25.7329
0.349214	25.7329
0.367733	25.7329
0.388898	25.7329
0.412708	25.7329
0.407416	26.0586
0.431227	26.0586
0.4471	26.7101
0.468264	27.0358
0.492074	27.6873
0.510593	28.013
0.526467	28.3388
0.550277	28.6645
0.568796	28.6645
0.58996	28.6645
0.611125	28.9902
0.629644	28.9902
0.632289	29.316
0.650808	29.9674
0.671973	30.2932
0.690492	30.2932
0.711656	30.6189
0.73282	31.2704
0.753985	31.2704
0.772504	31.2704
0.791023	31.5961
0.812187	32.2476
0.833352	33.2248
0.854516	33.8762
0.873035	34.5277
0.8942	35.5049
0.912719	36.8078
0.936529	39.4137
0.955048	42.9967
0.976212	48.2085
0.994731	66.1238
1.00531	84.0391
