Adsorption isotherm of Ethane, Ethene on Zeolite 5A
DOI: 10.1002/ceat.270130103
Article source: Figure 3
Adsorbate Ethane: InChIKey OTMSDBZUPAUEDD-UHFFFAOYSA-N
Adsorbate Ethene: InChIKey VGGSQFUCUMXWEO-UHFFFAOYSA-N
Kind: experiment
Temperature: 313 K
Tabular data in the source: 0
pressure (bar)	Ethane fraction	Ethane uptake (mmol/g)	Ethene fraction	Ethene uptake (mmol/g)	total uptake (mmol/g)
0.06	0.99321	0.392535	0.00679	0.102465	0.495
0.06	0.9868	0.570024	0.0132	0.241976	0.812
0.06	0.9708	0.389382	0.0292	0.372618	0.762
0.06	0.822	0.206325	0.178	0.710675	0.917
0.06	0.496	0.07056	0.504	1.36944	1.44
0.06	0.351	0.03504	0.649	1.42496	1.46
0.06	0.154	0.02664	0.846	1.45336	1.48
0.06	0	0	1	1.84	1.84
