Adsorption isotherm of Carbon Dioxide, Ethene on Zeolite 5A
DOI: 10.1002/ceat.270130103
Article source: Figure 4
Adsorbate Carbon Dioxide: InChIKey CURLTUGMZLYLDI-UHFFFAOYSA-N
Adsorbate Ethene: InChIKey VGGSQFUCUMXWEO-UHFFFAOYSA-N
Kind: experiment
Temperature: 313 K
Tabular data in the source: 0
pressure (bar)	Carbon Dioxide fraction	Carbon Dioxide uptake (mmol/g)	Ethene fraction	Ethene uptake (mmol/g)	total uptake (mmol/g)
0.003	1	0.47	0	0	0.47
0.003	0.843	0.34216	0.157	0.12784	0.47
0.003	0.713	0.288036	0.287	0.219964	0.508
0.003	0.498	0.17714	0.502	0.34386	0.521
0.003	0.323	0.118755	0.677	0.466245	0.585
0.003	0.275	0.09945	0.725	0.48555	0.585
0.003	0.172	0.06161	0.828	0.54839	0.61
0.003	0	0	1	0.597	0.597
