Adsorption isotherm of Carbon Dioxide, Ethene on Zeolite 5A
DOI: 10.1002/ceat.270130103
Article source: Figure 5
Adsorbate Carbon Dioxide: InChIKey CURLTUGMZLYLDI-UHFFFAOYSA-N
Adsorbate Ethene: InChIKey VGGSQFUCUMXWEO-UHFFFAOYSA-N
Kind: experiment
Temperature: 343 K
Tabular data in the source: 0
pressure (bar)	Carbon Dioxide fraction	Carbon Dioxide uptake (mmol/g)	Ethene fraction	Ethene uptake (mmol/g)	total uptake (mmol/g)
0.02	1	0.599	0	0	0.599
0.02	0.859	0.523024	0.141	0.150976	0.674
0.02	0.689	0.400309	0.311	0.288691	0.689
0.02	0.5	0.28905	0.5	0.41595	0.705
0.02	0.356	0.19936	0.644	0.51264	0.712
0.02	0.165	0.097838	0.835	0.591162	0.689
0.02	0	0	1	0.86	0.86
