Adsorption isotherm of Ethane, Ethene on Zeolite 5A
DOI: 10.1002/ceat.270130103
Article source: Figure 3
Adsorbate Ethane: InChIKey OTMSDBZUPAUEDD-UHFFFAOYSA-N
Adsorbate Ethene: InChIKey VGGSQFUCUMXWEO-UHFFFAOYSA-N
Kind: experiment
Temperature: 313 K
Tabular data in the source: 0
pressure (bar)	Ethane fraction	Ethane uptake (mmol/g)	Ethene fraction	Ethene uptake (mmol/g)	total uptake (mmol/g)
0.003	1	0.0395	0	0	0.0395
0.003	0.9423	0.019213	0.0577	0.058887	0.0781
0.003	0.828	0.016975	0.172	0.158025	0.175
0.003	0.714	0.017212	0.286	0.313788	0.331
0.003	0.492	0.011502	0.508	0.414498	0.426
0.003	0.326	0.006492	0.674	0.534508	0.541
0.003	0.268	0.00504	0.732	0.55496	0.56
0.003	0	0	1	0.644	0.644
