Adsorption isotherm of Carbon Dioxide, Ethene on Zeolite 5A
DOI: 10.1002/ceat.270130103
Article source: Figure 4
Adsorbate Carbon Dioxide: InChIKey CURLTUGMZLYLDI-UHFFFAOYSA-N
Adsorbate Ethene: InChIKey VGGSQFUCUMXWEO-UHFFFAOYSA-N
Kind: experiment
Temperature: 313 K
Tabular data in the source: 0
pressure (bar)	Carbon Dioxide fraction	Carbon Dioxide uptake (mmol/g)	Ethene fraction	Ethene uptake (mmol/g)	total uptake (mmol/g)
0.06	1	2.34	0	0	2.34
0.06	0.825	1.66855	0.175	0.54145	2.21
0.06	0.68	1.41024	0.32	0.84976	2.26
0.06	0.332	0.81328	0.668	1.26672	2.08
0.06	0.178	0.5428	0.822	1.7572	2.3
0.06	0	0	1	1.93	1.93
