Adsorption isotherm of Carbon Dioxide, Ethene on Zeolite 5A
DOI: 10.1002/ceat.270130103
Article source: Figure 4
Adsorbate Carbon Dioxide: InChIKey CURLTUGMZLYLDI-UHFFFAOYSA-N
Adsorbate Ethene: InChIKey VGGSQFUCUMXWEO-UHFFFAOYSA-N
Kind: experiment
Temperature: 313 K
Tabular data in the source: 0
pressure (bar)	Carbon Dioxide fraction	Carbon Dioxide uptake (mmol/g)	Ethene fraction	Ethene uptake (mmol/g)	total uptake (mmol/g)
0.02	1	1.44	0	0	1.44
0.02	0.849	1.17312	0.151	0.38688	1.56
0.02	0.746	0.96105	0.254	0.52895	1.49
0.02	0.662	0.969	0.338	0.731	1.7
0.02	0.508	0.663	0.492	0.837	1.5
0.02	0.344	0.468	0.656	0.972	1.44
0.02	0.251	0.40698	0.749	1.12302	1.53
0.02	0	0	1	1.36	1.36
