Adsorption isotherm of Nitrogen on C48H34N18O12S2Zn5
DOI: 10.1021/Ic1010083
Adsorbate Nitrogen: InChIKey IJGRMHOSHXDMSA-UHFFFAOYSA-N
Temperature: 77 K
Tabular data in the source: 0
pressure (bar)	uptake (cm3(STP)/g)
0.0016243	97.561
0.00348746	83.2927
0.00444293	105.976
0.00716601	115.122
0.00773929	110.732
0.0163385	134.878
0.0318171	136.341
0.047439	136.707
0.070848	137.439
0.0982221	137.805
0.129466	138.537
0.164675	138.902
0.223436	138.902
0.243023	138.902
0.28215	139.268
0.333028	139.634
0.395707	139.634
0.446634	139.634
0.470138	139.634
0.521112	139.268
0.583791	139.268
0.658126	140
0.705135	140
0.756014	140.366
0.806893	140.732
0.849937	141.098
0.900768	141.829
