Adsorption isotherm of Methane on C48H34N18O12S2Zn5
DOI: 10.1021/Ic1010083
Adsorbate Methane: InChIKey VNWKTOKETHGBQD-UHFFFAOYSA-N
Temperature: 295 K
Tabular data in the source: 0
pressure (bar)	uptake (cm3(STP)/g)
0.0130686	0.515464
0.0960543	1.28866
0.130979	1.80412
0.19648	2.57732
0.227056	2.83505
0.257609	3.35052
0.292557	3.60825
0.323133	3.86598
0.35808	4.12371
0.384262	4.63918
0.414816	5.15464
0.53712	6.18557
0.663795	7.21649
0.694371	7.47423
0.72497	7.47423
0.755523	7.98969
0.790493	7.98969
0.816698	8.24742
0.847252	8.76289
0.87785	8.76289
0.912775	9.27835
0.947745	9.27835
0.969601	9.27835
1.00455	9.53608
1.0351	10.0515
1.06568	10.3093
