Adsorption isotherm of Methane on C48H34N18O12S2Zn5
DOI: 10.1021/Ic1010083
Adsorbate Methane: InChIKey VNWKTOKETHGBQD-UHFFFAOYSA-N
Temperature: 273 K
Tabular data in the source: 0
pressure (bar)	uptake (cm3(STP)/g)
0.0307934	1.26697
0.0595458	1.99095
0.0924082	2.71493
0.123206	3.8009
0.158133	4.1629
0.186885	4.88688
0.219743	5.79186
0.25056	6.15385
0.281367	6.87783
0.31423	7.60181
0.347097	8.1448
0.375854	8.68778
0.404615	9.04977
0.441593	9.59276
0.4724	10.3167
0.501166	10.4977
0.536093	10.8597
0.56691	11.2217
0.595662	11.9457
0.628538	12.1267
0.661406	12.6697
0.690167	13.0317
0.723044	13.2127
0.751801	13.7557
0.782613	14.2986
0.813429	14.6606
0.84631	14.6606
0.881232	15.2036
0.909994	15.5656
0.94287	15.7466
0.969572	16.2896
1.00449	16.8326
1.03327	16.8326
