Adsorption isotherm of Acetylene on C48H34N18O12S2Zn5
DOI: 10.1021/Ic1010083
Adsorbate Acetylene: InChIKey HSFWRNGVRCDJHI-UHFFFAOYSA-N
Temperature: 273 K
Tabular data in the source: 0
pressure (bar)	uptake (cm3(STP)/g)
0.00400784	3.9819
0.00600711	6.15385
0.0100522	8.68778
0.0120654	10.3167
0.0283664	15.7466
0.0631444	21.9005
0.0897487	26.2443
0.120477	30.0452
0.153279	33.1222
0.184035	35.8371
0.216865	37.8281
0.24969	40
0.278424	41.448
0.309213	42.8959
0.337951	44.1629
0.37491	45.4299
0.407758	46.6968
0.430346	47.4208
0.465254	48.5068
0.498116	49.2308
0.535075	50.4977
0.561777	51.0407
0.592575	52.1267
0.631607	52.6697
0.656249	53.3937
0.682956	53.7557
0.715818	54.4796
0.754855	54.8416
0.783612	55.3846
0.812374	55.7466
0.839076	56.2896
0.871938	57.0136
0.90892	57.3756
0.968503	57.9186
0.997255	58.6425
1.02808	58.8235
