Adsorption isotherm of Acetylene on C48H34N18O12S2Zn5
DOI: 10.1021/Ic1010083
Adsorbate Acetylene: InChIKey HSFWRNGVRCDJHI-UHFFFAOYSA-N
Temperature: 295 K
Tabular data in the source: 0
pressure (bar)	uptake (cm3(STP)/g)
0.0690383	10.3093
0.0949728	13.6598
0.129695	16.4948
0.164484	18.5567
0.19488	20.8763
0.251436	23.9691
0.281876	25.7732
0.312362	27.0619
0.377705	29.6392
0.443116	31.4433
0.534664	34.2784
0.595703	36.0825
0.630583	37.1134
0.722244	38.6598
0.783328	39.9485
0.813904	40.2062
0.844435	40.9794
0.874989	41.4948
0.940444	42.7835
1.02773	44.3299
