Adsorption isotherm of Carbon Dioxide on C48H34N18O12S2Zn5
DOI: 10.1021/Ic1010083
Adsorbate Carbon Dioxide: InChIKey CURLTUGMZLYLDI-UHFFFAOYSA-N
Temperature: 295 K
Tabular data in the source: 0
pressure (bar)	uptake (cm3(STP)/g)
0.0346318	3.86598
0.06496	6.95876
0.0953107	9.79381
0.130078	12.1134
0.15617	13.6598
0.191005	15.2062
0.286811	19.3299
0.317297	20.6186
0.347805	21.6495
0.378336	22.4227
0.443724	24.4845
0.500393	26.2887
0.535272	27.3196
0.570175	28.0928
0.596357	28.6082
0.657419	30.1546
0.68795	30.9278
0.722897	31.1856
0.779588	32.732
0.818861	33.5052
0.845043	34.0206
0.90615	35.0515
0.945401	36.0825
0.967303	35.567
1.03713	36.8557
1.06331	37.3711
