Adsorption isotherm of Carbon Dioxide on C48H34N18O12S2Zn5
DOI: 10.1021/Ic1010083
Adsorbate Carbon Dioxide: InChIKey CURLTUGMZLYLDI-UHFFFAOYSA-N
Temperature: 273 K
Tabular data in the source: 0
pressure (bar)	uptake (cm3(STP)/g)
0.00199462	2.35294
0.0101591	4.52489
0.0162545	7.23982
0.032616	10.3167
0.0612661	15.0226
0.0899533	18.2805
0.122751	21.5385
0.155571	23.8914
0.186332	26.4253
0.215047	28.5973
0.252001	30.0452
0.278671	31.8552
0.31151	33.4842
0.346409	34.9321
0.375142	36.3801
0.405936	37.6471
0.438789	38.733
0.467527	40
0.498325	41.086
0.533234	42.1719
0.564032	43.2579
0.59483	44.3439
0.623591	44.7059
0.656445	45.7919
0.687252	46.5158
0.722169	47.2398
0.750922	47.9638
0.781729	48.6878
0.812527	49.7738
0.841294	49.9548
0.876206	50.8597
0.907014	51.5837
0.939886	51.9457
0.970693	52.6697
0.999455	53.0317
1.03436	54.1176
