Adsorption isotherm of Nitrogen on M-CuBTC
DOI: 10.1039/C0cc05278g
Adsorbate Nitrogen: InChIKey IJGRMHOSHXDMSA-UHFFFAOYSA-N
Temperature: 77 K
Tabular data in the source: 0
pressure (bar)	uptake (cm3(STP)/g)
0.00500268	359.995
0.015008	366.652
0.0240129	371.405
0.0330177	375.206
0.0530284	381.853
0.0630337	383.748
0.0720386	385.644
0.0820439	387.539
0.0910487	389.435
0.103055	392.28
0.113061	393.223
0.122065	395.118
0.132071	396.061
0.142076	397.956
0.155083	399.848
0.165088	400.791
0.175094	401.733
0.184099	402.677
0.210112	405.508
0.220118	406.451
0.230123	407.393
0.239128	408.337
0.251134	409.278
0.26114	410.22
0.271145	411.163
0.28015	412.106
0.297159	413.042
0.307164	413.985
0.31717	414.927
0.327175	414.917
0.345185	417.757
0.35519	417.747
0.365195	417.737
0.3742	418.681
0.39221	419.616
0.402215	420.558
0.412221	421.501
0.422226	421.491
0.431231	422.434
0.452242	423.366
0.462247	424.309
0.472253	425.251
0.496266	426.18
0.506271	427.123
0.516276	428.065
0.526282	428.056
0.54229	428.992
0.552296	429.935
0.562301	429.925
0.572306	430.868
0.586314	431.806
0.596319	432.749
0.606325	432.739
0.61633	433.682
0.625335	433.673
0.639342	434.611
0.649348	435.554
0.659353	435.544
0.669358	436.487
0.681365	437.427
0.69137	437.417
0.701375	438.36
0.711381	439.303
0.720386	440.246
0.733393	441.186
0.743398	441.176
0.753403	442.119
0.763409	442.109
0.774415	444.003
0.80343	446.831
0.835447	446.8
0.876469	452.474
0.905485	457.208
0.919492	458.146
