Adsorption isotherm of Nitrogen on M-DUT-5
DOI: 10.1039/C0cc05278g
Adsorbate Nitrogen: InChIKey IJGRMHOSHXDMSA-UHFFFAOYSA-N
Temperature: 77 K
Tabular data in the source: 0
pressure (bar)	uptake (cm3(STP)/g)
0.00600321	289.518
0.0110059	308.561
0.0210112	324.741
0.0350187	335.204
0.0550295	342.803
0.0740396	345.642
0.100054	349.426
0.13007	352.253
0.162087	356.032
0.194104	357.905
0.232124	359.772
0.258138	361.652
0.296159	365.424
0.338181	367.288
0.3732	368.206
0.402215	369.13
0.440236	370.997
0.471252	372.871
0.490262	373.805
0.524281	374.724
0.562301	377.544
0.590316	378.469
0.620332	380.344
0.661354	382.209
0.685367	383.138
0.717384	385.963
0.748401	388.79
0.774415	391.622
0.797427	393.504
0.830444	398.234
0.870466	405.813
0.893478	417.219
0.911488	427.678
0.936501	440.034
