Adsorption isotherm of Ethanol on (HOC2H4)2dtoaCu
DOI: 10.1021/Jp4031046
Adsorbate Ethanol: InChIKey LFQSCWFLJHTTHZ-UHFFFAOYSA-N
Temperature: 298 K
Tabular data in the source: 0
pressure (bar)	uptake (mol/mol)
0.00721379	0.00568586
0.08959	0.0340027
0.171966	0.0537387
0.26464	0.0717585
0.350877	0.0880621
0.439689	0.107798
0.525927	0.134399
0.616026	0.163574
0.697115	0.188458
0.783352	0.226214
0.861867	0.287138
0.919788	0.40727
