Adsorption isotherm of Hydrogen on C17.5H21.5CuN2.5O7.5
DOI: 10.1021/Ic102188v
Adsorbate Hydrogen: InChIKey UFHFLCQGNIYNRP-UHFFFAOYSA-N
Temperature: 87 K
Tabular data in the source: 0
pressure (bar)	uptake (cm3(STP)/g)
0.01575	4.97409
0.0237058	9.94819
0.0315202	10.5699
0.0590827	19.2746
0.0826067	23.6269
0.117883	29.8446
0.168808	37.9275
0.215795	44.7668
0.274434	50.3627
0.32132	54.0933
0.368207	57.8238
0.41899	61.5544
0.469754	64.6632
0.520477	66.5285
0.57122	69.0155
0.621943	70.8808
0.668789	73.3679
0.715595	74.6114
0.766298	75.8549
0.817021	77.7202
0.867724	78.9637
0.918447	80.829
0.96915	82.0725
1.00426	83.3161
