Adsorption isotherm of Nitrogen on C17.5H21.5CuN2.5O7.5
DOI: 10.1021/Ic102188v
Adsorbate Nitrogen: InChIKey IJGRMHOSHXDMSA-UHFFFAOYSA-N
Temperature: 77 K
Tabular data in the source: 0
pressure (bar)	uptake (cm3(STP)/g)
0.00473481	135.005
0.00946963	137.318
0.0426133	141.972
0.0615526	141.993
0.0994311	144.344
0.146779	145.552
0.189393	147.908
0.241475	149.121
0.284089	150.324
0.326702	151.526
0.369315	151.574
0.416664	152.782
0.459277	153.985
0.506625	154.038
0.549238	155.241
0.601321	157.608
0.6392	157.651
0.691283	157.71
0.743366	158.923
0.781244	158.967
0.823857	161.323
0.871206	163.684
0.918554	163.738
0.970637	168.413
0.999046	176.522
