Adsorption isotherm of Hydrogen on C17.5H21.5CuN2.5O7.5
DOI: 10.1021/Ic102188v
Adsorbate Hydrogen: InChIKey UFHFLCQGNIYNRP-UHFFFAOYSA-N
Temperature: 77 K
Tabular data in the source: 0
pressure (bar)	uptake (cm3(STP)/g)
0.00821827	13.057
0.016174	18.0311
0.0242712	27.3575
0.0283298	32.3316
0.0522173	47.8756
0.0600923	50.3627
0.079901	60.3109
0.107443	68.3938
0.158449	78.9637
0.213251	86.4249
0.264075	91.399
0.314879	95.7513
0.365642	98.8601
0.416386	101.347
0.471006	103.212
0.521749	105.699
0.576369	107.565
0.623175	108.808
0.673898	110.674
0.724601	111.917
0.775304	113.161
0.825966	113.161
0.872792	115.026
0.919578	115.648
0.974158	116.269
1.00925	116.891
