Adsorption isotherm of Carbon Dioxide on C17.5H21.5CuN2.5O7.5
DOI: 10.1021/Ic102188v
Adsorbate Carbon Dioxide: InChIKey CURLTUGMZLYLDI-UHFFFAOYSA-N
Temperature: 195 K
Tabular data in the source: 0
pressure (bar)	uptake (cm3(STP)/g)
0.00710281	65.0323
0.00757423	53.4194
0.00779423	48
0.00804566	41.8065
0.00857994	28.6452
0.0163427	77.4194
0.0165627	72
0.0356397	82.0645
0.0645224	90.5806
0.0790109	93.6774
0.0984022	96
0.127505	99.0968
0.17119	102.968
0.205227	104.516
0.229521	106.065
0.26843	107.613
0.297595	109.161
0.336535	109.935
0.390089	110.71
0.472777	113.806
0.511716	114.581
0.555559	114.581
0.63347	115.355
0.677281	116.129
0.721123	116.129
0.760063	116.903
0.838037	116.129
0.886719	116.903
0.920788	117.677
0.96463	117.677
1.00847	117.677
