Adsorption isotherm of Oxygen on Cu(BDT)(DMF)
DOI: 10.1002/chem.201000053
Adsorbate Oxygen: InChIKey MYMOFIZGZYHOMD-UHFFFAOYSA-N
Temperature: 77 K
Tabular data in the source: 0
pressure (bar)	uptake (mmol/g)
0.000859	3.48785
0.00263654	2.64886
0.00788024	4.11709
0.0253592	4.64146
0.0323508	7.18465
0.0340987	5.06096
0.0340987	6.08348
0.0358466	8.18096
0.0393424	9.25591
0.0546271	11.7927
0.0677363	13.0512
0.0834674	13.9557
0.10182	15.1356
0.141148	16.394
0.180476	17.3772
0.196207	17.8492
