Adsorption isotherm of Hydrogen on Cu(BDTri)(DEF)
DOI: 10.1002/chem.201000053
Adsorbate Hydrogen: InChIKey UFHFLCQGNIYNRP-UHFFFAOYSA-N
Temperature: 77 K
Tabular data in the source: 0
pressure (bar)	uptake (mmol/g)
0.00481196	-0.00562473
0.0310304	0.544963
0.0965767	0.938241
0.201451	1.4495
0.269619	1.56748
0.403333	1.80345
0.534425	1.96076
0.66814	2.07875
0.799232	2.07875
0.8674	2.1574
1.00111	2.23606
1.12172	2.27538
1.18464	2.23606
