Adsorption isotherm of Nitrogen on Cu(BDT)(DMF)
DOI: 10.1002/chem.201000053
Adsorbate Nitrogen: InChIKey IJGRMHOSHXDMSA-UHFFFAOYSA-N
Temperature: 77 K
Tabular data in the source: 0
pressure (bar)	uptake (mmol/g)
0.00219011	0.741602
0.00219011	2.1574
0.0257867	2.51135
0.0860893	2.74732
0.154257	3.96648
0.169988	2.82597
0.204072	5.93286
0.298459	7.70261
0.42693	8.6858
0.518694	9.03975
0.620946	9.3937
0.807098	9.82631
0.911972	10.0623
0.953921	10.2589
