Adsorption isotherm of Oxygen on Cu(BDTri)(DEF)
DOI: 10.1002/chem.201000053
Adsorbate Oxygen: InChIKey MYMOFIZGZYHOMD-UHFFFAOYSA-N
Temperature: 77 K
Tabular data in the source: 0
pressure (bar)	uptake (mmol/g)
0.00481196	0.466308
0.00481196	1.4495
0.00481196	2.43269
0.0126775	2.94396
0.0126775	3.80917
0.0467615	3.06194
0.0624926	12.1073
0.117551	14.2703
0.18572	15.3715
0.198829	15.9221
