Adsorption isotherm of Nitrogen on Cu(BDTri)(DEF)
DOI: 10.1002/chem.201000053
Adsorbate Nitrogen: InChIKey IJGRMHOSHXDMSA-UHFFFAOYSA-N
Temperature: 77 K
Tabular data in the source: 0
pressure (bar)	uptake (mmol/g)
0.00438444	1.02331
0.0445861	1.07575
0.200149	1.18062
0.305023	1.18062
0.425628	1.23306
0.528754	1.23306
0.63188	1.18062
0.733258	1.1544
0.831141	1.20684
0.916788	1.18062
0.965729	1.41659
