Adsorption isotherm of Hydrogen on Cu(BDT)(DMF)
DOI: 10.1002/chem.201000053
Adsorbate Hydrogen: InChIKey UFHFLCQGNIYNRP-UHFFFAOYSA-N
Temperature: 77 K
Tabular data in the source: 0
pressure (bar)	uptake (mmol/g)
0.00219011	0.191014
0.0257867	0.977569
0.0624926	1.48883
0.125417	2.00009
0.201451	2.31471
0.269619	2.59001
0.403333	2.90463
0.537047	3.10127
0.66814	3.21925
0.79661	3.2979
0.927703	3.41589
1.06142	3.49454
1.11385	3.53387
1.17153	3.53387
