Adsorption isotherm of Nitrogen on Carbon
DOI: 10.4209/aaqr.2012.11.0301
Adsorbate Nitrogen: InChIKey IJGRMHOSHXDMSA-UHFFFAOYSA-N
Temperature: 77 K
Tabular data in the source: 0
pressure (bar)	uptake (cm3(STP)/g)
0.00944547	10.6379
0.0380483	17.6456
0.0995445	22.6511
0.141019	24.6533
0.196794	28.6577
0.278312	30.6599
0.3584	37.6676
0.435628	48.6797
0.437058	41.672
0.485683	54.6863
0.518576	47.6786
0.562911	62.6951
0.594374	53.6852
0.620117	69.7028
0.675892	63.6962
0.680183	75.7094
0.75884	87.7226
0.761701	74.7083
0.831778	105.742
0.8518	91.727
0.933318	126.766
0.937608	114.752
0.987663	138.779
