Adsorption isotherm of Nitrogen on Carbon
DOI: 10.4209/aaqr.2012.11.0301
Adsorbate Nitrogen: InChIKey IJGRMHOSHXDMSA-UHFFFAOYSA-N
Temperature: 77 K
Tabular data in the source: 0
pressure (bar)	uptake (cm3(STP)/g)
-0.0014237	87.7571
0.0337876	113.391
0.114069	140.011
0.238013	165.644
0.45914	210.011
0.481675	222.828
0.545055	252.405
0.557731	233.673
0.635196	250.433
0.698576	274.095
0.739421	341.137
0.761957	304.659
0.829562	331.278
0.845055	365.785
0.901393	355.926
0.901393	382.546
0.954914	379.588
0.987309	414.095
