Adsorption isotherm of Nitrogen on Carbon
DOI: 10.4209/aaqr.2012.11.0301
Adsorbate Nitrogen: InChIKey IJGRMHOSHXDMSA-UHFFFAOYSA-N
Temperature: 77 K
Tabular data in the source: 0
pressure (bar)	uptake (cm3(STP)/g)
-0.000566	62.6951
0.00801532	120.759
0.0466292	144.785
0.171052	171.815
0.298334	193.839
0.421327	214.862
0.501415	233.883
0.575782	252.904
0.674462	284.939
0.713076	303.96
0.735958	317.976
0.767421	338.999
0.796024	326.986
0.836068	383.047
0.848939	379.043
0.873252	422.09
0.903285	443.113
0.923307	471.144
0.929027	470.143
0.937608	497.173
0.966211	526.204
0.973362	549.23
0.987663	578.262
