Adsorption isotherm of Nitrogen on Carbon
DOI: 10.4209/aaqr.2012.11.0301
Adsorbate Nitrogen: InChIKey IJGRMHOSHXDMSA-UHFFFAOYSA-N
Temperature: 77 K
Tabular data in the source: 0
pressure (bar)	uptake (cm3(STP)/g)
-1.52e-05	45.3628
0.0126608	80.8557
0.0647735	96.6304
0.138013	102.546
0.280266	117.335
0.398576	129.166
0.438013	140.011
0.480266	149.87
0.518295	143.954
0.581675	169.588
0.639421	159.729
0.674633	191.278
0.725337	183.391
0.757731	220.856
0.802802	207.053
0.852097	264.236
0.880266	240.574
0.925337	272.123
0.933788	323.391
0.952097	312.546
0.987309	369.729
