Adsorption isotherm of Nitrogen on Carbon
DOI: 10.4209/aaqr.2012.11.0301
Adsorbate Nitrogen: InChIKey IJGRMHOSHXDMSA-UHFFFAOYSA-N
Temperature: 77 K
Tabular data in the source: 0
pressure (bar)	uptake (cm3(STP)/g)
0.00280166	80.8557
0.0140693	108.461
0.0873087	135.081
0.199985	160.715
0.319703	182.405
0.442238	208.039
0.532379	235.644
0.55914	236.63
0.65914	270.152
0.688717	322.405
0.721112	303.673
0.75914	376.63
0.780266	334.236
0.809844	423.954
0.832379	377.616
0.878858	502.828
0.883083	425.926
0.925337	557.053
0.929562	498.884
0.960548	560.997
0.961957	610.292
0.987309	645.785
