Adsorption isotherm of Nitrogen on Carbon
DOI: 10.4209/aaqr.2012.11.0301
Adsorbate Nitrogen: InChIKey IJGRMHOSHXDMSA-UHFFFAOYSA-N
Temperature: 77 K
Tabular data in the source: 0
pressure (bar)	uptake (cm3(STP)/g)
0.015166	3.6302
0.0623608	3.6302
0.122427	5.6324
0.195364	7.6346
0.276882	9.6368
0.35697	9.6368
0.392724	12.6401
0.439919	9.6368
0.441349	12.6401
0.499985	16.6445
0.561481	12.6401
0.641569	23.6522
0.680183	17.6456
0.778862	27.6566
0.837498	21.65
0.887553	33.6632
0.897564	25.6544
0.95477	37.6676
0.984803	41.672
