Adsorption isotherm of Nitrogen on Carbon
DOI: 10.4209/aaqr.2012.11.0301
Adsorbate Nitrogen: InChIKey IJGRMHOSHXDMSA-UHFFFAOYSA-N
Temperature: 77 K
Tabular data in the source: 0
pressure (bar)	uptake (cm3(STP)/g)
0.00515504	96.7325
0.0380483	121.76
0.102405	141.782
0.183923	157.8
0.276882	172.816
0.395584	196.843
0.445639	227.877
0.482823	216.865
0.498554	253.905
0.581503	278.933
0.592944	241.892
0.661591	296.953
0.681613	265.918
0.683043	302.959
0.724517	308.966
0.748829	283.938
0.780293	318.977
0.810326	297.954
0.848939	325.984
0.866101	308.966
0.916156	336.997
0.934748	323.982
0.979082	343.003
0.989093	357.019
