Adsorption isotherm of Nitrogen on Carbon
DOI: 10.4209/aaqr.2012.11.0301
Adsorbate Nitrogen: InChIKey IJGRMHOSHXDMSA-UHFFFAOYSA-N
Temperature: 77 K
Tabular data in the source: 0
pressure (bar)	uptake (cm3(STP)/g)
0.0253369	87.7571
0.0816749	100.574
0.157731	113.391
0.238013	116.349
0.316886	124.236
0.419703	140.011
0.4859	159.729
0.54083	165.644
0.598576	151.842
0.630971	184.377
0.676041	162.687
0.6859	189.306
0.72252	193.25
0.74083	172.546
0.760548	197.194
0.811252	184.377
0.815478	203.109
0.876041	197.194
0.914069	217.898
0.930971	210.997
0.9859	235.644
