Adsorption isotherm of Nitrogen on Carbon
DOI: 10.4209/aaqr.2012.11.0301
Adsorbate Nitrogen: InChIKey IJGRMHOSHXDMSA-UHFFFAOYSA-N
Temperature: 77 K
Tabular data in the source: 0
pressure (bar)	uptake (cm3(STP)/g)
0.00229475	100.737
0.00944547	124.763
0.0394785	146.788
0.085243	158.801
0.183923	180.825
0.308345	202.849
0.422757	221.87
0.428477	223.872
0.482823	243.894
0.484253	233.883
0.587223	282.937
0.595804	263.916
0.663021	316.975
0.678752	291.947
0.748829	335.995
0.75884	389.054
0.810326	374.037
0.8518	415.082
0.884693	453.124
0.921877	502.178
0.926167	538.218
0.9562	556.237
0.981943	616.303
