Adsorption isotherm of Nitrogen on Carbon
DOI: 10.4209/aaqr.2012.11.0301
Adsorbate Nitrogen: InChIKey IJGRMHOSHXDMSA-UHFFFAOYSA-N
Temperature: 77 K
Tabular data in the source: 0
pressure (bar)	uptake (cm3(STP)/g)
0.00229475	0.626898
0.0108756	46.6775
0.0437689	55.6874
0.0995445	65.6984
0.201085	76.7105
0.318356	90.7259
0.441349	111.749
0.447069	108.746
0.479963	126.766
0.527157	125.764
0.575782	154.796
0.598664	138.779
0.638708	180.825
0.681613	161.804
0.700205	198.845
0.75884	217.866
0.781723	190.836
0.863241	219.868
0.867531	244.895
0.919016	239.89
0.939038	258.911
0.986233	273.927
