Adsorption isotherm of Nitrogen on Carbon
DOI: 10.4209/aaqr.2012.11.0301
Adsorbate Nitrogen: InChIKey IJGRMHOSHXDMSA-UHFFFAOYSA-N
Temperature: 77 K
Tabular data in the source: 0
pressure (bar)	uptake (cm3(STP)/g)
0.00280166	112.405
0.0295622	138.039
0.0661819	155.785
0.125337	168.602
0.187309	183.391
0.288717	196.208
0.392942	214.94
0.433788	230.715
0.457731	227.757
0.478858	251.419
0.538013	277.053
0.546464	251.419
0.608435	312.546
0.666182	344.095
0.698576	302.687
0.701393	359.87
0.77745	378.602
0.815478	347.053
0.860548	389.447
0.891534	373.673
0.926745	387.475
0.926745	410.152
0.983083	434.799
