Adsorption isotherm of Nitrogen on Carbon
DOI: 10.4209/aaqr.2012.11.0301
Adsorbate Nitrogen: InChIKey IJGRMHOSHXDMSA-UHFFFAOYSA-N
Temperature: 77 K
Tabular data in the source: 0
pressure (bar)	uptake (cm3(STP)/g)
0.00229475	27.6566
0.00372489	52.6841
0.0123058	123.762
0.0838129	162.805
0.183923	185.83
0.282603	211.859
0.399875	239.89
0.438488	261.914
0.45708	276.931
0.484253	265.918
0.484253	297.954
0.532878	331.991
0.561481	293.949
0.580073	358.02
0.624407	381.045
0.641569	325.984
0.678752	401.067
0.721657	363.025
0.738818	417.085
0.798884	393.058
0.838928	434.103
0.876112	414.081
0.936178	454.125
0.939038	437.107
0.95763	456.127
0.989093	469.142
