Adsorption isotherm of Nitrogen on Carbon
DOI: 10.4209/aaqr.2012.11.0301
Adsorbate Nitrogen: InChIKey IJGRMHOSHXDMSA-UHFFFAOYSA-N
Temperature: 77 K
Tabular data in the source: 0
pressure (bar)	uptake (cm3(STP)/g)
-1.52e-05	7.898
0.00984391	28.6022
0.0619566	37.4755
0.138013	46.3487
0.24083	56.2079
0.357731	68.0388
0.439421	74.9402
0.443647	83.8135
0.516886	83.8135
0.518295	95.6445
0.556323	105.504
0.595759	93.6726
0.62252	119.306
0.65914	104.518
0.676041	131.137
0.738013	144.94
0.739421	120.292
0.797168	133.109
0.797168	161.701
0.856323	175.504
0.866182	149.87
0.915478	166.63
0.935196	190.292
0.987309	204.095
