Adsorption isotherm of Nitrogen on Carbon
DOI: 10.4209/aaqr.2012.11.0301
Adsorbate Nitrogen: InChIKey IJGRMHOSHXDMSA-UHFFFAOYSA-N
Temperature: 77 K
Tabular data in the source: 0
pressure (bar)	uptake (cm3(STP)/g)
0.0774495	131.137
0.198576	153.813
0.319703	175.504
0.398576	188.321
0.446464	193.25
0.456323	193.25
0.480266	204.095
0.52252	210.011
0.543647	233.673
0.599985	232.687
0.612661	262.264
0.657731	249.447
0.688717	305.644
0.72252	273.109
0.76759	352.968
0.7859	311.56
0.843647	350.997
0.856323	421.983
0.902802	409.166
0.942238	499.87
0.949281	481.137
0.980266	537.335
