Adsorption isotherm of Nitrogen on Carbon
DOI: 10.1039/C2jm16513a
Adsorbate Nitrogen: InChIKey IJGRMHOSHXDMSA-UHFFFAOYSA-N
Temperature: 77 K
Tabular data in the source: 0
pressure (bar)	uptake (cm3(STP)/g)
0.00768	168.969
0.02304	174.709
0.04608	180.09
0.04992	182.242
0.06528	184.753
0.08448	187.982
0.09984	190.493
0.10752	192.287
0.12672	194.081
0.14592	196.592
0.16896	198.744
0.18432	199.462
0.19584	200.897
0.22656	203.408
0.25344	204.843
0.28416	207.354
0.3072	207.713
0.34176	209.148
0.37248	210.942
0.4032	213.094
0.43776	214.529
0.4608	215.605
0.50688	217.04
0.53376	217.758
0.56448	219.193
0.59904	220.269
0.6336	221.704
0.66432	223.498
0.69504	224.574
0.72576	225.65
0.76416	227.085
0.79104	229.238
0.82944	231.031
0.86016	232.108
0.89856	233.901
