Adsorption isotherm of Nitrogen on MIL-101
DOI: 10.1039/C2jm16513a
Adsorbate Nitrogen: InChIKey IJGRMHOSHXDMSA-UHFFFAOYSA-N
Temperature: 77 K
Tabular data in the source: 0
pressure (bar)	uptake (cm3(STP)/g)
0.0818497	601.75
0.0925257	628.75
0.110319	676
0.120995	685
0.131671	696.25
0.153023	707.5
0.174375	723.25
0.199286	745.75
0.224197	779.5
0.252666	784
0.266901	790.75
0.298929	793
0.330957	799.75
0.370103	799.75
0.409248	806.5
0.444835	811
0.480422	815.5
0.498215	815.5
0.526685	817.75
0.548037	824.5
0.576506	826.75
0.612093	831.25
0.644121	835.75
0.679708	838
0.725971	840.25
0.743764	844.75
0.772234	844.75
0.814938	849.25
0.846966	860.5
0.875436	867.25
0.882553	867.25
0.911022	883
0.943051	901
0.982196	973
