Adsorption isotherm of Nitrogen on MIL-100
DOI: 10.1039/C2jm16513a
Adsorbate Nitrogen: InChIKey IJGRMHOSHXDMSA-UHFFFAOYSA-N
Temperature: 77 K
Tabular data in the source: 0
pressure (bar)	uptake (cm3(STP)/g)
0.103438	421.732
0.150168	465.827
0.203134	473.386
0.256045	478.425
0.305409	482.205
0.358264	484.724
0.407599	487.244
0.456935	489.764
0.506256	491.654
0.559098	493.543
0.60842	495.433
0.661233	496.063
0.714075	497.953
0.763397	499.843
0.812704	501.102
0.86908	503.622
0.918429	506.772
0.964314	512.441
