Adsorption isotherm of Nitrogen on MIL-53(Al)
DOI: 10.1039/C2jm16513a
Adsorbate Nitrogen: InChIKey IJGRMHOSHXDMSA-UHFFFAOYSA-N
Temperature: 77 K
Tabular data in the source: 0
pressure (bar)	uptake (cm3(STP)/g)
0.0487636	266.751
0.101278	278.832
0.146291	286.716
0.195054	291.459
0.240067	295.675
0.28883	297.274
0.337594	299.396
0.405113	302.053
0.442623	303.121
0.487636	303.669
0.528897	304.739
0.577661	305.29
0.622673	305.838
0.671437	306.912
0.7202	307.463
0.768964	308.537
0.817727	309.087
0.86274	310.16
0.915254	311.76
