Adsorption isotherm of Nitrogen on IPr-Chir-UMCM-1
DOI: 10.1039/C1cc14893a
Adsorbate Nitrogen: InChIKey IJGRMHOSHXDMSA-UHFFFAOYSA-N
Temperature: 77 K
Tabular data in the source: 0
pressure (bar)	uptake (cm3(STP)/g)
0.0110549	667.562
0.0256201	804.918
0.0483436	876.765
0.0730805	909.326
0.0978099	935.341
0.124613	974.433
0.149327	987.358
0.174071	1026.46
0.196937	1222.67
0.240184	1242.02
0.297816	1241.63
0.320472	1254.57
0.345179	1260.95
0.363696	1254.28
0.39457	1254.07
0.446043	1266.81
0.495449	1273.03
0.544855	1279.24
0.592203	1285.46
0.618961	1285.28
0.64161	1291.68
0.664244	1284.98
0.71365	1291.19
0.763049	1290.86
0.78569	1290.71
0.884496	1296.59
0.907144	1302.98
0.92977	1289.74
0.950368	1302.69
0.96893	1335.29
