Adsorption isotherm of Nitrogen on Bn-Chir-UMCM-1
DOI: 10.1039/C1cc14893a
Adsorbate Nitrogen: InChIKey IJGRMHOSHXDMSA-UHFFFAOYSA-N
Temperature: 77 K
Tabular data in the source: 0
pressure (bar)	uptake (cm3(STP)/g)
0.00442345	268.334
0.00456566	392.697
0.010995	615.199
0.0275362	680.542
0.0378725	719.745
0.0646902	771.928
0.11004	830.531
0.153301	862.967
0.169783	875.947
0.190583	1065.63
0.211173	1072.03
0.231756	1071.89
0.275002	1091.24
0.365582	1103.72
0.505576	1128.96
0.559084	1122.05
0.614665	1128.22
0.66613	1134.42
0.752585	1140.38
0.797875	1146.62
0.841099	1146.33
0.904914	1152.45
0.935781	1145.7
0.962553	1158.61
