Adsorption isotherm of Hydrogen on Bn-Chir-UMCM-1
DOI: 10.1039/C1cc14893a
Adsorbate Hydrogen: InChIKey UFHFLCQGNIYNRP-UHFFFAOYSA-N
Temperature: 77 K
Tabular data in the source: 0
pressure (bar)	uptake (wt%)
0.0155139	0.0444444
0.0420915	0.107937
0.108492	0.234921
0.166018	0.330159
0.208066	0.406349
0.25671	0.463492
0.281045	0.501587
0.300948	0.526984
0.309822	0.55873
0.329689	0.55873
0.347393	0.590476
0.367296	0.615873
0.384991	0.64127
0.407075	0.647619
0.424778	0.679365
0.444681	0.704762
0.464575	0.72381
0.484469	0.742857
0.499947	0.761905
0.517634	0.780952
0.537536	0.806349
0.557413	0.812698
0.577324	0.844444
0.597218	0.863492
0.617112	0.88254
0.637014	0.907937
0.659098	0.914286
0.676793	0.939683
0.698894	0.95873
0.718788	0.977778
0.738682	0.996825
0.760775	1.00952
0.77847	1.03492
0.800571	1.05397
0.820456	1.06667
0.84035	1.08571
0.862443	1.09841
0.880129	1.11746
0.900032	1.14286
0.919917	1.15556
0.942009	1.16825
0.961885	1.1746
0.981788	1.2
1.00388	1.2127
