Adsorption isotherm of Nitrogen on UMCM-1
DOI: 10.1039/C1cc14893a
Adsorbate Nitrogen: InChIKey IJGRMHOSHXDMSA-UHFFFAOYSA-N
Temperature: 77 K
Tabular data in the source: 0
pressure (bar)	uptake (cm3(STP)/g)
0.0362409	1092.85
0.0568312	1099.25
0.0692408	1151.53
0.108416	1210.18
0.131087	1236.21
0.15994	1268.74
0.176474	1327.54
0.180658	1386.42
0.184849	1451.85
0.193202	1556.52
0.22615	1569.39
0.250857	1575.76
0.273505	1582.16
0.304387	1588.49
0.324978	1594.9
0.345561	1594.76
0.366151	1601.17
0.3888	1607.56
0.409383	1607.42
0.429973	1613.83
0.450556	1613.69
0.471146	1620.1
0.495846	1619.93
0.516429	1619.79
0.537011	1619.65
0.557602	1626.06
0.584352	1619.34
0.602884	1625.76
0.623467	1625.62
0.64405	1625.48
0.66464	1631.89
0.695507	1625.13
0.716098	1631.54
0.73668	1631.4
0.757271	1637.81
0.786079	1631.07
0.804611	1637.49
0.825194	1637.35
0.845777	1637.21
0.874593	1637.02
0.893118	1636.89
0.932225	1636.63
0.950757	1643.05
0.96929	1649.47
