Adsorption isotherm of Hydrogen on IPr-Chir-UMCM-1
DOI: 10.1039/C1cc14893a
Adsorbate Hydrogen: InChIKey UFHFLCQGNIYNRP-UHFFFAOYSA-N
Temperature: 77 K
Tabular data in the source: 0
pressure (bar)	uptake (wt%)
0.0132976	0.0380952
0.0576141	0.15873
0.101896	0.253968
0.112951	0.266667
0.128456	0.304762
0.148376	0.342857
0.17936	0.4
0.214768	0.463492
0.250175	0.526984
0.309909	0.622222
0.329812	0.647619
0.349723	0.679365
0.369626	0.704762
0.458092	0.825397
0.475796	0.857143
0.495699	0.88254
0.663758	1.09206
0.683661	1.11746
0.701347	1.13651
0.758848	1.2127
0.778741	1.23175
0.798626	1.24444
0.858334	1.32063
0.878237	1.34603
0.898122	1.35873
0.915817	1.38413
0.93572	1.40952
0.955605	1.42222
0.971092	1.44762
0.990977	1.46032
0.999842	1.48571
