Adsorption isotherm of Ammonia on Mg-MOF-74
DOI: 10.1002/chem.201403542
Adsorbate Ammonia: InChIKey QGZKDVFQNNGYKY-UHFFFAOYSA-N
Temperature: 298 K
Tabular data in the source: 0
pressure (bar)	uptake (cm3(STP)/g)
0.0131579	51.4435
0.0263158	66.7696
0.0432331	81.186
0.0507519	84.7842
0.0789474	101.889
0.101504	111.781
0.169173	135.135
0.204887	143.197
0.280075	160.217
0.306391	165.587
0.385338	180.794
0.407895	182.559
0.488722	194.151
0.505639	196.83
0.609023	209.284
0.712406	219.03
0.81391	227.876
0.919173	235.812
0.969925	237.526
