Adsorption isotherm of Ammonia on Al-BTB
DOI: 10.1002/chem.201403542
Adsorbate Ammonia: InChIKey QGZKDVFQNNGYKY-UHFFFAOYSA-N
Temperature: 298 K
Tabular data in the source: 0
pressure (bar)	uptake (cm3(STP)/g)
0.040153	12.7819
0.0535373	15.2653
0.105163	24.4887
0.189293	37.6104
0.208413	39.7363
0.296367	50.724
0.309751	53.2074
0.395793	65.6176
0.407266	67.0353
0.497132	77.6669
0.512428	80.5051
0.613767	93.6207
0.717017	107.091
0.814532	120.919
0.91587	134.39
0.975143	142.544
