Adsorption isotherm of Ammonia on MOF-74(Mg)-1st cycle
DOI: 10.1002/chem.201403542
Adsorbate Ammonia: InChIKey QGZKDVFQNNGYKY-UHFFFAOYSA-N
Temperature: 298 K
Tabular data in the source: 0
pressure (bar)	uptake (cm3(STP)/g)
0	31.6027
0.0018797	124.602
0.0037594	62.2957
0.0112782	147.158
0.0206767	167.908
0.0319549	178.723
0.0413534	190.445
0.0507519	196.748
0.075188	212.957
0.0996241	226.457
0.159774	248.921
0.193609	260.598
0.206767	263.283
0.270677	278.518
0.308271	286.576
0.381579	301.794
0.404135	305.365
0.50188	319.635
0.610902	332.983
0.712406	342.732
0.81391	349.772
0.915414	356.812
0.971805	359.419
