Adsorption isotherm of Ammonia on ZIF-8
DOI: 10.1002/chem.201403542
Adsorbate Ammonia: InChIKey QGZKDVFQNNGYKY-UHFFFAOYSA-N
Temperature: 298 K
Tabular data in the source: 0
pressure (bar)	uptake (cm3(STP)/g)
0.0531732	0.271493
0.0977702	1.49321
0.204117	4.00452
0.303602	6.31222
0.404803	8.82353
0.507719	11.267
0.61235	14.1176
0.713551	16.9005
0.814751	19.819
0.917667	22.8733
0.984563	25.1131
