Adsorption isotherm of Ammonia on MIL-53(Al)
DOI: 10.1002/chem.201403542
Adsorbate Ammonia: InChIKey QGZKDVFQNNGYKY-UHFFFAOYSA-N
Temperature: 298 K
Tabular data in the source: 0
pressure (bar)	uptake (cm3(STP)/g)
0	0.35461
0.00382409	3.54339
0.00573614	9.92501
0.00764818	46.4485
0.00956023	40.0641
0.0114723	50.7011
0.0133843	64.8841
0.0210325	69.134
0.042065	74.0836
0.0630975	77.2602
0.0917782	80.786
0.120459	82.5387
0.1587	83.93
0.193117	85.324
0.227533	86.3635
0.26195	87.0483
0.296367	87.7331
0.325048	88.422
0.359465	89.1068
0.395793	89.7902
0.418738	90.1286
0.451243	89.7509
0.483748	90.0824
0.520076	90.7659
0.552581	91.0975
0.581262	91.4317
0.615679	91.7619
0.648184	91.7389
0.676864	92.0731
0.711281	92.0487
0.741874	92.7363
0.776291	92.3572
0.806883	92.3355
0.8413	93.0204
0.873805	93.7065
0.90631	93.6835
0.940727	94.0137
0.971319	93.992
1.00191	93.9703
1.03442	94.6564
1.06501	94.2801
