Adsorption isotherm of Hydrogen on CuBTC
DOI: 10.1080/08927020802398926
Adsorbate Hydrogen: InChIKey UFHFLCQGNIYNRP-UHFFFAOYSA-N
Temperature: 77 K
Tabular data in the source: 0
pressure (bar)	uptake (wt%)
0.128205	0.128205
0.25641	0.678063
0.512821	1.8547
0.641026	2.07407
0.769231	2.39316
1.15385	2.53276
1.66667	2.87179
2.4359	3.07123
2.94872	3.21083
3.33333	3.33048
3.97436	3.45014
4.87179	3.52991
5.64103	3.60969
6.41026	3.68946
7.30769	3.78917
10.8974	3.90883
14.6154	3.9886
16.1538	4.00855
17.1795	4.02849
18.7179	4.02849
20.1282	4.04843
25	4.04843
26.2821	4.04843
27.6923	4.06838
28.4615	4.04843
30.2564	4.02849
36.0256	4.00855
36.9231	3.9886
38.3333	3.96866
40.1282	3.94872
41.5385	3.92877
42.6923	3.90883
43.8462	3.92877
45.1282	3.90883
46.4103	3.88889
47.4359	3.86895
48.4615	3.86895
49.359	3.86895
50.7692	3.80912
