Adsorption isotherm of Hydrogen on CuBTC
DOI: 10.1080/08927020802398926
Adsorbate Hydrogen: InChIKey UFHFLCQGNIYNRP-UHFFFAOYSA-N
Temperature: 77 K
Tabular data in the source: 0
pressure (bar)	uptake (wt%)
0.136986	0.136986
0.273973	1.00304
0.410959	1.29179
0.684932	1.50456
0.821918	1.71733
0.958904	1.8693
2.87671	2.85714
4.65753	3.31307
6.43836	3.58663
8.21918	3.7538
10.137	3.89058
18.0822	4.14894
26.1644	4.19453
34.5205	4.16413
42.8767	4.07295
51.3699	3.99696
