Adsorption isotherm of Hydrogen on CuBTC
DOI: 10.1080/08927020802398926
Adsorbate Hydrogen: InChIKey UFHFLCQGNIYNRP-UHFFFAOYSA-N
Temperature: 77 K
Tabular data in the source: 0
pressure (bar)	uptake (wt%)
0.25641	0.877493
0.384615	1.09687
0.512821	1.27635
0.769231	1.41595
1.02564	1.55556
2.69231	2.39316
4.48718	2.83191
6.41026	3.09117
8.46154	3.2906
10.1282	3.4302
18.2051	3.72934
26.2821	3.78917
34.4872	3.76923
42.9487	3.7094
51.4103	3.62963
