Adsorption isotherm of Hydrogen on CuBTC
DOI: 10.1080/08927020802398926
Adsorbate Hydrogen: InChIKey UFHFLCQGNIYNRP-UHFFFAOYSA-N
Temperature: 77 K
Tabular data in the source: 0
pressure (bar)	uptake (wt%)
2.82051	2.89174
4.61538	3.4302
6.53846	3.7094
8.33333	3.94872
10.2564	4.12821
18.3333	4.48718
26.7949	4.60684
35.2564	4.60684
44.1026	4.50712
53.3333	4.36752
