Adsorption isotherm of Hydrogen on CuBTC
DOI: 10.1080/08927020802398926
Adsorbate Hydrogen: InChIKey UFHFLCQGNIYNRP-UHFFFAOYSA-N
Temperature: 77 K
Tabular data in the source: 0
pressure (bar)	uptake (wt%)
0	0.607903
0.136986	0.379939
0.410959	1.00304
0.547945	1.48936
0.821918	1.67173
0.958904	1.8693
2.87671	2.84195
4.65753	3.28267
6.43836	3.55623
8.35616	3.7234
10.274	3.86018
18.0822	4.08815
26.3014	4.17933
34.5205	4.13374
42.8767	4.07295
51.3699	3.96657
