Adsorption isotherm of Hydrogen on CuBTC
DOI: 10.1080/08927020802398926
Adsorbate Hydrogen: InChIKey UFHFLCQGNIYNRP-UHFFFAOYSA-N
Temperature: 77 K
Tabular data in the source: 0
pressure (bar)	uptake (wt%)
0.128205	0.128205
0.25641	4.92593
0.512821	5.24501
0.769231	5.40456
0.897436	5.60399
2.94872	5.90313
4.74359	6.06268
6.53846	6.22222
8.46154	6.28205
10.2564	6.32194
18.0769	6.34188
26.2821	6.22222
34.4872	6.16239
42.8205	6.06268
51.2821	5.94302
