Adsorption isotherm of Hydrogen on CuBTC
DOI: 10.1080/08927020802398926
Adsorbate Hydrogen: InChIKey UFHFLCQGNIYNRP-UHFFFAOYSA-N
Temperature: 77 K
Tabular data in the source: 0
pressure (bar)	uptake (wt%)
0.91499	0.00529412
2.48464	0.0194118
4.44479	0.0282353
6.53586	0.0388235
8.10475	0.0494118
9.80379	0.0582353
17.3848	0.100588
24.8334	0.134118
32.2815	0.165882
39.4682	0.195882
46.6541	0.222353
54.6241	0.252353
