Adsorption isotherm of Hydrogen on CuBTC
DOI: 10.1080/08927020802398926
Adsorbate Hydrogen: InChIKey UFHFLCQGNIYNRP-UHFFFAOYSA-N
Temperature: 77 K
Tabular data in the source: 0
pressure (bar)	uptake (wt%)
1.30932	0.0176471
2.09453	0.0264706
3.66418	0.0405882
4.44824	0.0441176
5.10252	0.0511765
6.27822	0.0547059
7.32414	0.0617647
8.10859	0.0670588
8.76248	0.0723529
9.93895	0.0794118
10.7226	0.0811765
16.3427	0.111176
17.3879	0.114706
18.5628	0.114706
19.0862	0.12
20.5237	0.127059
21.3074	0.128824
22.3518	0.128824
23.5286	0.137647
24.1833	0.146471
25.7522	0.157059
26.6653	0.153529
27.4493	0.157059
28.7594	0.178235
29.6755	0.188824
30.3298	0.195882
31.6384	0.21
32.5534	0.215294
38.961	0.264706
40.2684	0.273529
41.3132	0.275294
42.098	0.282353
43.4046	0.287647
44.1879	0.287647
45.2327	0.289412
46.4103	0.301765
47.3249	0.305294
48.1094	0.310588
49.1549	0.315882
50.0691	0.317647
