Adsorption isotherm of Hydrogen on CuBTC
DOI: 10.1080/08927020802398926
Adsorbate Hydrogen: InChIKey UFHFLCQGNIYNRP-UHFFFAOYSA-N
Temperature: 77 K
Tabular data in the source: 0
pressure (bar)	uptake (wt%)
0.78521	0.00882353
2.61557	0.0211765
4.57572	0.03
6.4057	0.0405882
8.23606	0.0529412
9.93549	0.0635294
17.386	0.105882
24.7047	0.142941
32.1533	0.176471
39.4709	0.208235
46.7885	0.24
54.6287	0.273529
