Adsorption isotherm of Hydrogen on CuBTC
DOI: 10.1080/08927020802398926
Adsorbate Hydrogen: InChIKey UFHFLCQGNIYNRP-UHFFFAOYSA-N
Temperature: 77 K
Tabular data in the source: 0
pressure (bar)	uptake (wt%)
0.524113	0.00882353
1.04899	0.0211765
2.75111	0.0441176
4.58417	0.0688235
6.41683	0.0917647
8.11934	0.116471
9.82146	0.139412
17.2831	0.232941
24.8718	0.310588
39.5235	0.45
46.7171	0.511765
54.8238	0.57
