Adsorption isotherm of Hydrogen on CuBTC
DOI: 10.1080/08927020802398926
Adsorbate Hydrogen: InChIKey UFHFLCQGNIYNRP-UHFFFAOYSA-N
Temperature: 77 K
Tabular data in the source: 0
pressure (bar)	uptake (wt%)
0.25641	0.598291
0.384615	1.01709
0.512821	1.27635
0.769231	1.49573
0.897436	1.69516
1.02564	1.87464
2.82051	2.85185
4.74359	3.2906
6.53846	3.5698
8.46154	3.74929
10.1282	3.88889
18.0769	4.14815
26.1538	4.18803
34.4872	4.16809
42.8205	4.04843
51.2821	3.9886
