Adsorption isotherm of Hydrogen on IRMOF-1
DOI: 10.1016/j.micromeso.2010.07.018
Adsorbate Hydrogen: InChIKey UFHFLCQGNIYNRP-UHFFFAOYSA-N
Temperature: 288 K
Tabular data in the source: 0
pressure (bar)	uptake (wt%)
0.774194	0.00265487
20.5161	0.130088
39.871	0.19646
60.3871	0.228319
80.5161	0.268142
100.258	0.329204
120.387	0.369027
