Adsorption isotherm of Hydrogen on IRMOF-1
DOI: 10.1016/j.micromeso.2010.07.018
Adsorbate Hydrogen: InChIKey UFHFLCQGNIYNRP-UHFFFAOYSA-N
Temperature: 288 K
Tabular data in the source: 0
pressure (bar)	uptake (wt%)
0.776699	0.00452489
19.8058	0.11086
40.3883	0.171946
60.1942	0.233032
79.6117	0.271493
100.194	0.289593
120	0.321267
