Adsorption isotherm of Hydrogen on IRMOF-1
DOI: 10.1016/j.micromeso.2010.07.018
Adsorbate Hydrogen: InChIKey UFHFLCQGNIYNRP-UHFFFAOYSA-N
Temperature: 288 K
Tabular data in the source: 0
pressure (bar)	uptake (wt%)
0.774194	0.00265487
20.9032	0.106195
40.2581	0.172566
60.3871	0.270796
80.129	0.337168
100.258	0.387611
120	0.424779
