Adsorption isotherm of Hydrogen on Carbon
DOI: 10.1016/j.micromeso.2010.07.018
Adsorbate Hydrogen: InChIKey UFHFLCQGNIYNRP-UHFFFAOYSA-N
Temperature: 288 K
Tabular data in the source: 0
pressure (bar)	uptake (wt%)
0.776699	0.00452489
19.8058	0.160633
40.3883	0.230769
60.1942	0.282805
80.3883	0.334842
100.194	0.371041
120.388	0.393665
