Adsorption isotherm of Hydrogen on IRMOF-1
DOI: 10.1016/j.micromeso.2010.07.018
Adsorbate Hydrogen: InChIKey UFHFLCQGNIYNRP-UHFFFAOYSA-N
Temperature: 288 K
Tabular data in the source: 0
pressure (bar)	uptake (wt%)
0.776699	0.00452489
20.1942	0.149321
39.6117	0.242081
59.8058	0.303167
80	0.364253
99.8058	0.420814
120.388	0.472851
