Adsorption isotherm of Hydrogen on IRMOF-1
DOI: 10.1016/j.micromeso.2010.07.018
Adsorbate Hydrogen: InChIKey UFHFLCQGNIYNRP-UHFFFAOYSA-N
Temperature: 288 K
Tabular data in the source: 0
pressure (bar)	uptake (wt%)
0.776699	0.00452489
20.1942	0.0701357
40.3883	0.138009
60.1942	0.199095
80	0.239819
100.194	0.260181
120.388	0.271493
