Adsorption isotherm of Hydrogen on Carbon
DOI: 10.1016/j.micromeso.2010.07.018
Adsorbate Hydrogen: InChIKey UFHFLCQGNIYNRP-UHFFFAOYSA-N
Temperature: 288 K
Tabular data in the source: 0
pressure (bar)	uptake (wt%)
0.774194	0.00265487
20.129	0.180531
40.2581	0.230973
60	0.3
80.5161	0.390265
100.258	0.469912
120.387	0.530973
