Adsorption isotherm of Hydrogen on IRMOF-1
DOI: 10.1016/j.micromeso.2010.07.018
Adsorbate Hydrogen: InChIKey UFHFLCQGNIYNRP-UHFFFAOYSA-N
Temperature: 288 K
Tabular data in the source: 0
pressure (bar)	uptake (wt%)
0.774194	0.00265487
20.5161	0.0982301
40.6452	0.180531
60.3871	0.19646
80.129	0.215044
100.258	0.236283
120.774	0.268142
