Adsorption isotherm of Carbon Dioxide on Norit RB2
DOI: 10.1021/Ja0570032
Adsorbate Carbon Dioxide: InChIKey CURLTUGMZLYLDI-UHFFFAOYSA-N
Temperature: 298 K
Tabular data in the source: 0
pressure (bar)	uptake (mmol/g)
1.13782	2.64094
2.31082	3.72528
3.32075	4.75121
4.26608	5.3661
5.27687	5.86338
6.35307	6.27244
7.52707	6.74004
8.40796	6.85578
9.41899	7.20623
10.3975	7.498
11.4413	7.7309
12.4851	8.02255
13.6598	8.07898
14.5079	8.25353
15.5519	8.4277
17.5422	8.60002
19.6628	8.88955
21.849	8.97337
23.7087	9.17531
25.6339	9.28902
27.82	9.40221
30.1696	9.39761
32.062	9.54075
34.4767	9.62413
36.3368	9.56175
38.262	9.64609
40.2854	9.55402
42.4716	9.60847
