Adsorption isotherm of Carbon Dioxide on MOF-177
DOI: 10.1021/Ja0570032
Adsorbate Carbon Dioxide: InChIKey CURLTUGMZLYLDI-UHFFFAOYSA-N
Temperature: 298 K
Tabular data in the source: 0
pressure (bar)	uptake (mmol/g)
3.19376	2.57818
6.32102	5.92008
10.3577	11.9034
12.4723	15.8933
13.4804	18.0353
14.4888	20.001
15.5947	22.1721
17.645	25.5455
18.5892	26.8652
19.697	27.9203
20.6748	28.6233
21.8156	29.4433
23.7393	30.4675
25.7284	31.374
27.7177	32.1043
30.5884	32.7154
31.8934	32.8891
36.0039	33.6153
38.2554	33.699
40.0829	33.6366
42.3994	33.8671
