Adsorption isotherm of Carbon Dioxide on MOF-505
DOI: 10.1021/Ja0570032
Adsorbate Carbon Dioxide: InChIKey CURLTUGMZLYLDI-UHFFFAOYSA-N
Temperature: 298 K
Tabular data in the source: 0
pressure (bar)	uptake (mmol/g)
1.07155	3.25781
2.01554	4.69503
3.31917	5.72037
4.23187	6.33533
5.56884	6.92008
6.319	7.15356
7.36252	7.59205
8.40642	7.79558
9.35248	7.96994
10.2658	8.2031
11.5381	8.40619
12.4841	8.60992
13.4953	8.87226
15.5836	8.98564
17.5085	9.24619
19.6296	9.24204
22.0766	9.47219
23.6427	9.67471
25.7636	9.78803
27.9824	9.90116
30.1033	10.0145
32.159	10.0986
34.019	10.1243
36.042	10.2378
38.1956	10.3217
40.741	10.3167
42.6337	10.2543
