Adsorption isotherm of Carbon Dioxide on IRMOF-11
DOI: 10.1021/Ja0570032
Adsorbate Carbon Dioxide: InChIKey CURLTUGMZLYLDI-UHFFFAOYSA-N
Temperature: 298 K
Tabular data in the source: 0
pressure (bar)	uptake (mmol/g)
1.13907	1.87736
2.11593	3.16766
3.19079	4.39904
4.10249	5.63073
5.17749	6.774
6.57934	7.59358
8.27264	9.79291
9.44645	10.378
10.3593	10.9048
11.4352	11.4901
12.3484	11.8114
13.3921	12.1324
14.501	12.512
15.4795	12.7744
17.4367	13.2405
19.6551	13.5885
21.7431	13.8781
23.7661	14.0504
25.8542	14.2519
27.9424	14.3946
29.9328	14.5082
32.1191	14.5627
34.077	14.5588
36.1002	14.6136
38.2537	14.7269
40.2117	14.723
42.3654	14.7188
