Adsorption isotherm of Carbon Dioxide on Zeolite 13X
DOI: 10.1021/Ja0570032
Adsorbate Carbon Dioxide: InChIKey CURLTUGMZLYLDI-UHFFFAOYSA-N
Temperature: 298 K
Tabular data in the source: 0
pressure (bar)	uptake (cm3(STP)/cm3)
0.159011	0.159011
0.636042	11.4236
1.59011	12.8819
3.0212	14.2188
5.24735	15.191
10.1767	16.5278
14.47	17.5
19.3993	17.7431
22.8975	17.9861
26.7138	18.3507
32.1201	18.8368
