Adsorption isotherm of Carbon Dioxide on MOF-74
DOI: 10.1021/Ja0570032
Adsorbate Carbon Dioxide: InChIKey CURLTUGMZLYLDI-UHFFFAOYSA-N
Temperature: 298 K
Tabular data in the source: 0
pressure (bar)	uptake (mmol/g)
1.26481	4.81397
1.78606	5.34158
2.37206	6.19213
3.31682	7.15944
4.36038	7.56856
5.40414	7.8602
6.31737	8.1521
7.36118	8.41437
8.53561	8.61765
9.41631	8.85087
10.4604	8.90757
11.537	9.11104
12.6137	9.19704
13.6579	9.19499
15.5502	9.42624
17.6385	9.56899
19.6288	9.71194
21.7171	9.82532
23.7077	9.82142
25.7631	10.0523
27.9494	10.1362
30.0702	10.2789
31.9956	10.2457
34.1168	10.2122
36.2377	10.3255
38.2935	10.3509
40.0883	10.3474
42.2421	10.3138
