Adsorption isotherm of Carbon Dioxide on MOF-2
DOI: 10.1021/Ja0570032
Adsorbate Carbon Dioxide: InChIKey CURLTUGMZLYLDI-UHFFFAOYSA-N
Temperature: 298 K
Tabular data in the source: 0
pressure (bar)	uptake (mmol/g)
1.07562	0.761477
2.02115	1.25889
3.19554	1.49154
4.27188	1.81249
5.31573	2.04539
6.45768	2.16063
7.40397	2.18815
8.28481	2.33327
9.3289	2.41933
10.4707	2.62267
11.4172	2.50334
12.3307	2.6484
13.4726	2.76364
15.5612	2.73018
17.9104	2.90179
19.6074	2.8691
21.6958	2.89438
23.8166	3.09581
25.9052	3.00361
28.1567	3.08731
29.984	3.1131
31.7461	3.16839
34.3893	3.19258
36.3144	3.30629
38.207	3.33195
40.2305	3.15178
42.2209	3.29472
