Adsorption isotherm of Carbon Dioxide on CuBTC
DOI: 10.1021/Ja0570032
Adsorbate Carbon Dioxide: InChIKey CURLTUGMZLYLDI-UHFFFAOYSA-N
Temperature: 298 K
Tabular data in the source: 0
pressure (bar)	uptake (mmol/g)
1.0048	4.16837
2.14387	6.04573
3.08849	7.10115
4.26186	7.95054
5.27275	8.38909
6.349	8.76877
7.36022	9.00174
8.43666	9.26395
9.44817	9.32071
10.4922	9.46551
11.4383	9.58113
13.6239	10.0761
15.549	10.1898
17.5396	10.1859
19.7258	10.2991
21.8467	10.4124
23.7067	10.4088
25.8603	10.4927
27.9488	10.518
29.9068	10.4848
32.0604	10.5099
34.0836	10.5647
36.172	10.59
38.1628	10.4686
40.1205	10.5822
42.2414	10.6956
