Adsorption isotherm of Carbon Dioxide on IRMOF-6
DOI: 10.1021/Ja0570032
Adsorbate Carbon Dioxide: InChIKey CURLTUGMZLYLDI-UHFFFAOYSA-N
Temperature: 298 K
Tabular data in the source: 0
pressure (bar)	uptake (mmol/g)
2.1834	1.81658
3.193	3.04808
4.0724	4.07426
5.17998	5.24683
6.22245	6.33143
10.3912	11.3453
11.3683	12.5181
12.4114	13.2209
13.389	14.0413
14.3994	14.7442
15.4754	15.3295
16.584	15.8266
17.5621	16.412
18.671	16.7623
19.7475	16.9951
20.6278	17.4339
21.7045	17.5787
23.5312	18.0156
25.8475	18.3635
27.9681	18.6824
29.9581	19.0309
31.9814	18.9682
33.9388	19.2874
36.1578	19.3125
38.0179	19.2795
40.2037	19.5982
42.3574	19.6234
