Adsorption isotherm of Carbon Dioxide on IRMOF-3
DOI: 10.1021/Ja0570032
Adsorbate Carbon Dioxide: InChIKey CURLTUGMZLYLDI-UHFFFAOYSA-N
Temperature: 298 K
Tabular data in the source: 0
pressure (bar)	uptake (mmol/g)
1.14027	1.14314
2.01967	2.16932
3.48535	3.86983
4.33178	5.10165
7.26137	9.58931
8.36852	11.0262
9.34577	12.0816
10.2252	13.0784
11.366	13.8985
12.5397	14.5423
13.4523	15.216
14.398	15.6546
15.5397	15.9167
16.616	16.2377
17.4965	16.5884
18.6056	16.8505
19.519	16.9956
20.5304	17.1698
21.7046	17.5199
23.7601	17.6921
26.0439	17.9813
27.8711	18.0952
29.796	18.3558
31.7211	18.4988
34.7558	18.5516
36.2243	18.5488
38.2473	18.6623
40.1401	18.5998
42.3262	18.713
