Adsorption isotherm of Carbon Dioxide on Carbon
DOI: 10.1021/Ja0570032
Adsorbate Carbon Dioxide: InChIKey CURLTUGMZLYLDI-UHFFFAOYSA-N
Temperature: 298 K
Tabular data in the source: 0
pressure (bar)	uptake (cm3(STP)/cm3)
2.06714	2.55208
3.97527	4.61806
6.0424	6.5625
9.85866	8.62847
12.8799	9.84375
18.1272	11.7882
23.0565	13.4896
27.6678	14.5833
30.8481	15.434
34.0283	16.0417
38.1625	16.5278
41.9788	16.8924
