Adsorption isotherm of Carbon Dioxide on IRMOF-1
DOI: 10.1021/Ja0570032
Adsorbate Carbon Dioxide: InChIKey CURLTUGMZLYLDI-UHFFFAOYSA-N
Temperature: 298 K
Tabular data in the source: 0
pressure (bar)	uptake (mmol/g)
3.19328	2.87187
4.23632	3.60404
5.3764	4.86466
6.32092	5.97881
7.00452	7.00538
7.59061	7.79718
10.3909	11.5509
11.694	12.8993
12.4101	14.0139
13.5176	15.1865
14.3646	16.0659
15.5382	16.8271
16.5813	17.5299
17.5266	18.1448
18.5702	18.5246
19.6462	19.0511
20.69	19.3428
21.6032	19.664
24.0171	20.1586
25.6156	20.5079
27.9317	20.9732
30.0198	21.1747
31.9121	21.4059
34.131	21.5191
36.1538	21.7501
38.1441	21.893
40.2	21.889
42.2885	21.8555
