Adsorption isotherm of Water on C24H39N4O60Ni2PW12
DOI: 10.1016/j.jssc.2013.03.041
Adsorbate Water: InChIKey XLYOFNOQVPJJNP-UHFFFAOYSA-N
Temperature: 298 K
Tabular data in the source: 0
pressure (bar)	uptake (cm3(STP)/g)
0.00132982	0.125
0.00249341	0.25
0.00374012	0.625
0.00506994	1
0.00631665	1.375
0.00756335	1.875
0.00881006	2.25
0.00997365	2.625
0.0112204	3.375
0.0125502	4
0.01388	4.875
0.0151267	6
0.0163734	7.5
0.017537	8.75
0.0188668	10.125
0.0200304	11.125
0.0213602	12.625
0.0226069	13.875
0.0237705	15
0.0251835	18.375
0.0265133	21.75
0.0275938	24.375
0.0289236	27.25
0.0300872	30.25
