Adsorption isotherm of Acetylene on UTSA-100a
DOI: 10.1038/ncomms8328
Article source: Figure 4b- acetylene
Adsorbate Acetylene: InChIKey HSFWRNGVRCDJHI-UHFFFAOYSA-N
Kind: experiment
Temperature: 296 K
Tabular data in the source: 0
pressure (bar)	uptake (cm3(STP)/g)
0.001	2.92
0.0046	9.948
0.008119	15.64
0.011039	18.831
0.015719	23.098
0.033544	36.021
0.063235	45.434
0.094766	52.087
0.123123	56.068
0.154734	59.835
0.188864	63.046
0.220062	65.669
0.251593	68.236
0.28271	70.294
0.313988	72.283
0.344932	74.148
0.377222	75.832
0.40774	77.392
0.439444	78.77
0.470895	80.08
0.501839	81.233
0.533463	82.362
0.564407	83.469
0.595604	84.553
0.626802	85.501
0.658333	86.461
0.68945	87.341
0.721314	88.052
0.751925	88.921
0.783789	89.722
0.81516	90.444
0.84661	91.189
0.877554	91.866
0.908325	92.384
0.940363	92.993
0.970893	93.771
1.00293	94.301
1.03379	94.876
1.06499	95.541
0.007106	32.462
0.009373	36.129
0.013546	39.094
0.021918	44.391
0.033957	50.197
0.070008	61.503
0.100872	67.229
0.130909	71.031
0.162107	73.905
0.192971	76.236
0.223675	78.148
0.255032	79.732
0.286403	81.202
0.317267	82.537
0.349731	83.769
0.379582	84.73
0.411713	85.725
0.442737	86.687
0.474361	87.444
0.504972	88.258
0.536009	88.97
0.568047	89.693
0.598737	90.247
0.629442	90.891
0.660892	91.524
0.692263	92.032
0.723714	92.495
0.754738	92.913
0.785615	93.455
0.817653	93.828
0.84801	94.212
0.879461	94.618
0.909659	94.821
0.940696	95.08
0.953828	95.148
0.983519	95.43
1.01572	95.508
