Adsorption isotherm of Acetylene on UTSA-100a
DOI: 10.1038/ncomms8328
Article source: Supplementary Figure 13- Cycle 16
Adsorbate Acetylene: InChIKey HSFWRNGVRCDJHI-UHFFFAOYSA-N
Kind: experiment
Temperature: 296 K
Tabular data in the source: 0
pressure (bar)	uptake (cm3(STP)/g)
0.096056	53.542
0.382927	75.853
1.01788	95.186
