Adsorption isotherm of Acetylene on UTSA-100a
DOI: 10.1038/ncomms8328
Article source: Supplementary Figure 13- Cycle 14
Adsorbate Acetylene: InChIKey HSFWRNGVRCDJHI-UHFFFAOYSA-N
Kind: experiment
Temperature: 296 K
Tabular data in the source: 0
pressure (bar)	uptake (cm3(STP)/g)
0.001145	2.526
0.096482	55.046
0.378429	78.045
0.772613	92.484
1.0181	97.9
