Adsorption isotherm of Acetylene on UTSA-100a
DOI: 10.1038/ncomms8328
Article source: Supplementary Figure 13- Cycle 6
Adsorbate Acetylene: InChIKey HSFWRNGVRCDJHI-UHFFFAOYSA-N
Kind: experiment
Temperature: 296 K
Tabular data in the source: 0
pressure (bar)	uptake (cm3(STP)/g)
0.10626	53.238
0.193642	63.359
0.377527	73.985
0.769381	88.404
1.02753	96.187
