Adsorption isotherm of Acetylene on UTSA-100a
DOI: 10.1038/ncomms8328
Article source: Supplementary Figure 13- Cycle 8
Adsorbate Acetylene: InChIKey HSFWRNGVRCDJHI-UHFFFAOYSA-N
Kind: experiment
Temperature: 296 K
Tabular data in the source: 0
pressure (bar)	uptake (cm3(STP)/g)
0.09102	53.483
0.381073	74.755
0.76088	90.589
1.01993	95.218
