Adsorption isotherm of Ethene on UTSA-100a
DOI: 10.1038/ncomms8328
Article source: Figure 4b- ethylene
Adsorbate Ethene: InChIKey VGGSQFUCUMXWEO-UHFFFAOYSA-N
Kind: experiment
Temperature: 296 K
Tabular data in the source: 0
pressure (bar)	uptake (cm3(STP)/g)
0.001427	1.019
0.006693	3.012
0.008613	4.653
0.012959	6.069
0.017732	7.801
0.033117	11.22
0.065901	16.076
0.092246	18.533
0.125203	20.91
0.15664	22.585
0.188345	24.113
0.218875	25.177
0.251993	26.274
0.281843	27.202
0.313628	28.062
0.346078	28.865
0.377516	29.476
0.40846	30.245
0.43983	30.867
0.471361	31.342
0.502972	31.783
0.533996	32.178
0.565274	32.631
0.596724	33.14
0.627588	33.479
0.659372	33.897
0.689397	34.202
0.721754	34.484
0.753125	34.699
0.784655	35.162
0.81568	35.445
0.846957	35.806
0.878568	35.998
0.908179	36.133
0.940043	36.416
0.97132	36.574
1.00285	36.947
1.0353	37.184
1.06574	37.308
0.005853	4.425
0.009373	6.112
0.012892	7.481
0.021838	10.062
0.038157	13.898
0.069034	18.277
0.099978	21.219
0.130603	23.448
0.161973	25.19
0.192837	26.593
0.224048	27.746
0.255086	28.752
0.287123	29.691
0.317494	30.482
0.349531	31.194
0.380982	31.782
0.412353	32.369
0.442884	32.776
0.474588	33.307
0.505878	33.747
0.536916	34.222
0.567527	34.594
0.598991	34.899
0.630441	35.237
0.661479	35.531
0.692263	35.835
0.723301	36.027
0.754418	36.32
0.786122	36.478
0.817159	36.578
0.848277	36.815
0.879061	36.893
0.910765	37.051
0.941549	37.152
0.953762	37.117
0.984466	37.297
1.01525	37.308
