Adsorption isotherm of Acetylene on NOTT-300
DOI: 10.1038/ncomms8328
Article source: Supplementary Figure 9- C2H2 experiment
Adsorbate Acetylene: InChIKey HSFWRNGVRCDJHI-UHFFFAOYSA-N
Kind: experiment
Temperature: 296 K
Tabular data in the source: 0
pressure (bar)	uptake (mmol/g)
0.00787	0.1625
0.03053	0.5435
0.05416	0.8854
0.08018	1.3757
0.10258	1.6396
0.12771	1.9858
0.14913	2.4115
0.1771	2.7435
0.19958	3.1018
0.23349	3.48
0.2665	3.8922
0.30219	4.1136
0.34106	4.4946
0.37736	4.7309
0.41969	4.9884
0.46503	5.2091
0.50179	5.3291
0.55103	5.5306
0.60514	5.6293
0.65651	5.7826
0.70443	5.8763
0.75651	5.992
0.80452	6.0063
0.85146	6.1298
0.89938	6.2136
0.94925	6.2583
0.99619	6.3279
