Adsorption isotherm of Acetylene on UTSA-100a
DOI: 10.1038/ncomms8328
Article source: Figure 4a- acetylene
Adsorbate Acetylene: InChIKey HSFWRNGVRCDJHI-UHFFFAOYSA-N
Kind: experiment
Temperature: 273 K
Tabular data in the source: 0
pressure (bar)	uptake (cm3(STP)/g)
4e-06	4.49
0.00296	15.608
0.007093	25.414
0.011306	33.082
0.015332	37.6
0.030824	49.231
0.064741	59.393
0.094539	65.094
0.122377	69.185
0.155761	73.147
0.187531	76.467
0.219209	79.389
0.251246	82.025
0.282297	84.434
0.313534	86.415
0.345212	87.911
0.375902	89.934
0.40786	92.186
0.439977	93.868
0.469775	95.478
0.501812	97.131
0.534036	98.655
0.56482	100.38
0.595964	101.862
0.627548	103.201
0.658599	104.597
0.689303	105.951
0.721061	107.333
0.752111	108.502
0.783522	109.613
0.815026	110.682
0.846704	111.921
0.877674	113.047
0.908632	114.001
0.940669	114.87
0.97208	116.039
1.00286	116.908
1.03374	117.962
1.06641	118.86
0.0048	20.007
0.008733	28.107
0.014079	34.924
0.018199	40.115
0.033197	53.406
0.070661	71.931
0.100712	81.158
0.130856	86.677
0.16136	90.414
0.192584	93.253
0.223182	95.821
0.254126	97.818
0.285083	99.63
0.316481	101.342
0.348518	102.911
0.380009	104.224
0.409713	105.38
0.441737	106.493
0.473681	107.606
0.504092	108.463
0.535769	109.476
0.567167	110.29
0.597951	111.089
0.629348	111.846
0.660572	112.588
0.69189	113.245
0.723021	113.873
0.753885	114.387
0.785109	115.044
0.816253	115.544
0.847477	116.172
0.878248	116.672
0.909565	117.144
0.940603	117.544
0.953855	117.844
0.984092	118.158
1.01505	118.401
