Adsorption isotherm of Ethene on NOTT-300
DOI: 10.1038/ncomms8328
Article source: Supplementary Figure 9- C2H4 experiment
Adsorbate Ethene: InChIKey VGGSQFUCUMXWEO-UHFFFAOYSA-N
Kind: experiment
Temperature: 296 K
Tabular data in the source: 0
pressure (bar)	uptake (mmol/g)
0.00833	0.1546
0.0264	0.3313
0.04677	0.5292
0.07645	0.8718
0.09797	1.0173
0.12499	1.2223
0.1497	1.4926
0.16866	1.6529
0.20019	1.8863
0.2304	2.0963
0.26513	2.2566
0.29604	2.4538
0.34308	2.6787
0.38019	2.7859
0.42333	2.9796
0.46213	3.1321
0.49739	3.2626
0.54788	3.4365
0.60555	3.5571
0.64461	3.6366
0.69997	3.7607
0.7502	3.8643
0.79972	3.975
0.84994	4.1084
0.89512	4.1581
0.95199	4.2106
1.00035	4.2823
