Adsorption isotherm of Ethene on UTSA-100a
DOI: 10.1038/ncomms8328
Article source: Supplementary Figure 8- C2H4
Adsorbate Ethene: InChIKey VGGSQFUCUMXWEO-UHFFFAOYSA-N
Kind: experiment
Temperature: 296 K
Tabular data in the source: 0
pressure (bar)	uptake (mmol/g)
0.0008	0.03714
0.00447	0.13514
0.00831	0.2121
0.01189	0.2752
0.0168	0.32576
0.032	0.49847
0.06463	0.70829
0.09074	0.81788
0.12328	0.9288
0.15511	1.00661
0.18677	1.06742
0.21636	1.12062
0.24837	1.1765
0.2785	1.21672
0.30944	1.24978
0.34207	1.2891
0.37185	1.32082
0.40314	1.34851
0.43399	1.37531
0.46492	1.40568
0.49658	1.42397
0.5276	1.4445
0.55773	1.46548
0.58769	1.48736
0.62014	1.50341
0.65135	1.51991
0.68121	1.53373
0.7117	1.5471
0.74327	1.55823
0.77393	1.57697
0.8055	1.58766
0.83661	1.5961
0.86755	1.60947
0.89795	1.6224
0.92907	1.6304
0.96027	1.6384
0.9904	1.64863
