Adsorption isotherm of Ethene on UTSA-100a
DOI: 10.1038/ncomms8328
Article source: Figure 4a- ethylene
Adsorbate Ethene: InChIKey VGGSQFUCUMXWEO-UHFFFAOYSA-N
Kind: experiment
Temperature: 273 K
Tabular data in the source: 0
pressure (bar)	uptake (cm3(STP)/g)
7e-06	4.052
0.00288	6.943
0.017132	14.399
0.029144	18.848
0.064061	24.322
0.100312	27.559
0.139149	30.353
0.155347	31.137
0.187478	32.548
0.219342	33.789
0.250579	35.029
0.282617	36.113
0.312868	37.082
0.344452	38.137
0.376676	38.85
0.407273	39.777
0.438511	40.518
0.469921	41.288
0.501692	42.001
0.53265	42.571
0.564154	43.07
0.595124	43.74
0.627788	43.94
0.657133	44.396
0.689797	45.151
0.721127	45.593
0.752885	46.007
0.783762	46.663
0.815173	47.076
0.846317	47.575
0.877634	47.732
0.909592	48.231
0.939829	48.73
0.952988	49.158
0.972053	49.072
1.00257	49.543
1.03406	49.856
1.06566	50.17
0.005826	8.383
0.009239	10.806
0.011479	13.116
0.020972	16.466
0.038424	20.9
0.068501	25.86
0.099645	29.053
0.130083	31.419
0.161133	33.357
0.192371	34.953
0.223435	36.092
0.254486	37.289
0.285177	38.229
0.316321	39.212
0.348185	40.024
0.379875	40.707
0.41102	41.405
0.442697	42.174
0.474014	42.829
0.504532	43.37
0.535676	43.982
0.567273	44.538
0.598591	44.879
0.629202	45.477
0.660879	45.889
0.692036	46.345
0.723527	46.729
0.754591	47.013
0.785469	47.554
0.81616	47.881
0.847397	48.08
0.879248	48.507
0.909952	48.748
0.940909	49.047
0.953442	49.218
0.984492	49.516
1.01546	49.687
