Adsorption isotherm of Acetylene on UTSA-100a
DOI: 10.1038/ncomms8328
Article source: Supplementary Figure 8- C2H2
Adsorbate Acetylene: InChIKey HSFWRNGVRCDJHI-UHFFFAOYSA-N
Kind: experiment
Temperature: 296 K
Tabular data in the source: 0
pressure (bar)	uptake (mmol/g)
0.00017	0.13271
0.00513	0.44006
0.00919	0.6882
0.01213	0.8337
0.01585	1.02488
0.03444	1.60348
0.06239	2.02414
0.09371	2.32072
0.12164	2.50282
0.15319	2.67251
0.1862	2.81681
0.21729	2.93461
0.24872	3.04057
0.27947	3.13807
0.31034	3.2288
0.34143	3.30769
0.37331	3.38319
0.40282	3.45475
0.43436	3.52517
0.46568	3.57417
0.49609	3.63106
0.52685	3.68344
0.5576	3.73131
0.58846	3.77693
0.61989	3.81746
0.65008	3.86195
0.68185	3.90079
0.71294	3.93964
0.7429	3.97059
0.77343	4.00774
0.80486	4.04433
0.83606	4.07302
0.86659	4.10172
0.8979	4.13041
0.9282	4.1608
0.95941	4.19231
0.99095	4.21987
