Adsorption isotherm of Acetylene on UTSA-100a
DOI: 10.1038/ncomms8328
Article source: Supplementary Figure 13- Cycle 1
Adsorbate Acetylene: InChIKey HSFWRNGVRCDJHI-UHFFFAOYSA-N
Kind: experiment
Temperature: 296 K
Tabular data in the source: 0
pressure (bar)	uptake (cm3(STP)/g)
0.100798	55.327
0.766098	93.01
1.05122	98.752
