Adsorption isotherm of Nitrogen on UTSA-100a
DOI: 10.1038/ncomms8328
Article source: Supplementary Figure 7a- N2
Adsorbate Nitrogen: InChIKey IJGRMHOSHXDMSA-UHFFFAOYSA-N
Kind: experiment
Temperature: 77 K
Tabular data in the source: 0
pressure (bar)	uptake (cm3(STP)/g)
4e-06	184.242
0.000945	193.239
0.001571	197.697
0.002894	200.679
0.004682	203.157
0.006082	204.499
0.006315	205.71
0.006627	206.222
0.008261	207.548
0.008882	208.55
0.01067	209.867
0.01168	210.696
0.01308	212.088
0.014635	212.668
0.016577	213.471
0.031729	218.89
0.072359	225.915
0.101957	229.163
0.115473	230.224
0.132329	231.574
0.162159	233.438
0.196802	235.269
0.228961	236.636
0.24706	237.432
0.261818	238.028
0.277044	238.567
0.293511	239.122
0.301046	239.478
0.30858	239.751
0.325669	240.257
0.357128	241.284
0.389131	242.154
0.421832	243.049
0.456321	243.911
0.488634	244.855
0.521569	245.717
0.553261	246.603
0.585885	247.606
0.617811	248.708
0.65028	249.859
0.683369	251.036
0.715528	252.353
0.748152	253.438
0.781009	254.234
0.813012	254.482
0.845636	255.153
0.878648	255.733
0.90964	256.471
0.941565	257.589
0.008046	212.746
0.048657	226.245
0.087024	230.92
0.125547	233.937
0.164693	236.143
0.203218	238
0.241743	239.476
0.281122	240.754
0.301394	241.376
0.341473	242.562
0.394134	244.312
0.442989	247.778
0.474597	252.609
0.5139	253.025
0.554057	253.341
0.592894	253.724
0.630721	254.023
0.669869	254.34
0.709715	254.656
0.747776	254.914
0.786534	255.189
0.806963	255.38
0.845877	255.862
0.884791	256.46
