Adsorption isotherm of Nitrogen on IL-1.0@NUST-7
DOI: 10.1021/acs.chemmater.1c00978
Article source: Figure 2
Adsorbate Nitrogen: InChIKey IJGRMHOSHXDMSA-UHFFFAOYSA-N
Kind: experiment
Temperature: 77 K
Tabular data in the source: 0
pressure (bar)	uptake (cm3(STP)/g)
1.00517	26.5781
1.00786	13.289
0.00539	0
0.018864	1.66113
0.035033	0
0.048507	0
0.06737	0
0.075455	0
0.113182	0
0.86234	3.32226
0.832697	1.66113
0.808444	1.66113
0.778801	1.66113
0.751853	3.32226
0.886594	1.66113
0.988997	9.96678
0.730295	1.66113
0.697957	0
0.21828	1.66113
0.242533	1.66113
0.264092	3.32226
0.288345	0
0.309904	0
0.334157	0
0.361105	1.66113
0.379969	1.66113
0.409612	1.66113
0.433865	3.32226
0.460813	3.32226
0.487761	1.66113
0.517404	3.32226
0.538963	3.32226
0.557826	4.98339
0.590164	0
0.611723	0
0.638671	0
0.665619	3.32226
0.910847	4.98339
0.94049	6.64452
0.964743	6.64452
0.142825	1.66113
0.167078	1.66113
0.180553	0
0.196721	1.66113
0.091624	1.66113
0.999776	19.9336
0.978217	3.32226
0.953964	4.98339
0.929711	1.66113
0.902763	3.32226
0.883899	1.66113
0.854256	4.98339
0.821918	0
0.78958	1.66113
0.768022	1.66113
0.746463	3.32226
0.72221	1.66113
0.695262	1.66113
0.671009	0
0.646755	0
0.622502	1.66113
0.600943	1.66113
0.58208	3.32226
0.547047	0
0.522794	0
0.498541	0
0.471592	0
0.447339	0
0.417696	0
0.393443	0
0.369189	0
0.339547	0
0.320683	1.66113
0.301819	0
0.274871	0
0.253312	0
0.231754	0
0.207501	0
0.191332	0
0.172468	0
0.156299	0
0.142825	0
0.107793	1.66113
0.088929	1.66113
