Adsorption isotherm of Nitrogen on COF-NUST-8
DOI: 10.1021/acs.chemmater.1c00978
Article source: Figure S20
Adsorbate Nitrogen: InChIKey IJGRMHOSHXDMSA-UHFFFAOYSA-N
Kind: experiment
Temperature: 77 K
Tabular data in the source: 0
pressure (bar)	uptake (cm3(STP)/g)
0.095519	52.9954
0.125486	58.7558
0.136723	58.7558
0.162944	59.9078
0.187292	63.3641
0.215386	63.3641
0.230369	61.0599
0.249098	64.5161
0.273446	61.0599
0.28843	65.6682
0.307159	65.6682
0.335253	66.8203
0.359601	65.6682
0.507561	76.0369
0.556257	79.4931
0.60308	79.4931
0.64803	80.6452
0.696726	80.6452
0.743549	84.1014
0.790372	86.4055
0.83345	87.5576
0.951444	97.9263
0.979537	105.991
0.987029	116.359
1.00576	129.032
0.269701	63.3641
0.290303	71.4286
0.324015	64.5161
0.337126	65.6682
0.357728	69.1244
0.412043	70.2765
0.45512	71.4286
0.488832	76.0369
0.54502	77.1889
0.597462	80.6452
0.638666	82.9493
0.681743	81.7972
0.736058	85.2535
0.777262	91.0138
0.83345	91.0138
0.880273	91.0138
0.917731	99.0783
0.932714	100.23
0.966427	107.143
0.977665	112.903
0.990775	124.424
