Adsorption isotherm of Nitrogen on COF-NUST-7
DOI: 10.1021/acs.chemmater.1c00978
Article source: Figure 2
Adsorbate Nitrogen: InChIKey IJGRMHOSHXDMSA-UHFFFAOYSA-N
Kind: experiment
Temperature: 77 K
Tabular data in the source: 0
pressure (bar)	uptake (cm3(STP)/g)
0.008106	18.0921
0.002702	67.4342
0.002702	118.421
0.01351	166.118
0.018914	203.947
0.032424	230.263
0.035126	250
0.043232	268.092
0.045934	281.25
0.05404	287.829
0.070252	305.921
0.08106	310.855
0.110782	317.434
0.137802	319.079
0.167524	325.658
0.181034	332.237
0.210756	335.526
0.24318	335.526
0.2702	340.461
0.286412	343.75
0.321538	345.395
0.370174	348.684
0.421512	351.974
0.467446	353.618
0.521486	356.908
0.570122	358.553
0.618758	363.487
0.670096	366.776
0.71603	375
0.767368	373.355
0.821408	381.579
0.872746	389.803
0.91868	398.026
0.967316	419.408
0.991634	455.592
1.00244	483.553
0.994386	476.744
0.962049	436.877
0.886594	408.638
0.86234	403.654
0.805749	395.349
0.762632	385.382
0.708736	383.721
0.660229	378.738
0.600943	368.771
0.557826	367.11
0.506625	360.465
0.460813	355.482
0.401527	353.821
0.355715	347.176
0.309904	342.193
0.282955	342.193
0.256007	338.87
0.207501	337.209
0.229059	335.548
