Adsorption isotherm of Nitrogen on COF-NUST-9
DOI: 10.1021/acs.chemmater.1c00978
Article source: Figure S20
Adsorbate Nitrogen: InChIKey IJGRMHOSHXDMSA-UHFFFAOYSA-N
Kind: experiment
Temperature: 77 K
Tabular data in the source: 0
pressure (bar)	uptake (cm3(STP)/g)
0.095519	49.5392
0.116121	61.0599
0.138596	65.6682
0.159198	64.5161
0.185419	67.9724
0.209767	67.9724
0.230369	66.8203
0.25659	69.1244
0.30154	73.7327
0.282811	71.4286
0.329634	69.1244
0.352109	70.2765
0.370838	72.5806
0.42328	73.7327
0.464484	76.0369
0.516926	76.0369
0.560003	74.8848
0.604953	78.341
0.651776	76.0369
0.694854	78.341
0.743549	78.341
0.7885	80.6452
0.837195	79.4931
0.882146	78.341
0.921477	84.1014
0.962681	89.8617
0.985156	94.47
1.00389	101.382
0.265955	70.2765
0.28843	71.4286
0.312778	71.4286
0.342744	70.2765
0.359601	71.4286
0.41017	69.1244
0.456993	72.5806
0.503816	74.8848
0.548766	74.8848
0.593716	76.0369
0.636793	78.341
0.685489	78.341
0.726693	82.9493
0.773516	80.6452
0.820339	84.1014
0.867162	84.1014
0.919604	87.5576
0.970173	96.7742
0.992648	101.382
