Adsorption isotherm of Nitrogen on COF-NUST-7
DOI: 10.1021/acs.chemmater.1c00978
Article source: Figure S20
Adsorbate Nitrogen: InChIKey IJGRMHOSHXDMSA-UHFFFAOYSA-N
Kind: experiment
Temperature: 77 K
Tabular data in the source: 0
pressure (bar)	uptake (cm3(STP)/g)
0.006166	17.7665
0	63.4518
0.008221	116.751
0.008221	161.168
0.020553	199.239
0.03494	228.426
0.03494	250
0.043161	266.497
0.053437	281.726
0.049327	291.878
0.065769	302.03
0.082211	307.107
0.110985	319.797
0.135648	324.873
0.164422	324.873
0.184975	329.949
0.213748	332.487
0.240467	338.832
0.263075	337.563
0.293904	340.102
0.320623	343.909
0.369949	350.254
0.419276	350.254
0.468602	351.523
0.515874	359.137
0.563145	361.675
0.620693	362.944
0.723456	375.635
0.772783	376.904
0.871436	388.325
0.815944	384.518
0.910486	401.015
0.961868	423.858
0.982421	447.97
1.00708	484.772
0.205527	335.025
0.230191	337.563
0.252799	341.371
0.277462	341.371
0.304181	343.909
0.353507	347.716
0.402834	350.254
0.460381	357.868
0.501487	360.406
0.556979	366.751
0.608361	366.751
0.659743	373.096
0.709069	378.173
0.762507	387.056
0.817999	394.67
0.86527	399.746
0.891989	403.553
0.963923	439.086
0.996808	473.35
