Adsorption isotherm of Acetylene on UTSA-5A
DOI: 10.1039/C3ce40452h
Adsorbate Acetylene: InChIKey HSFWRNGVRCDJHI-UHFFFAOYSA-N
Temperature: 273 K
Tabular data in the source: 0
pressure (bar)	uptake (cm3(STP)/g)
0.0151719	4.6912
0.0385719	11.7702
0.0671719	19.4391
0.0983719	26.3215
0.137372	32.024
0.158172	35.7601
0.194572	39.6929
0.254372	45.9853
0.319372	51.2946
0.410372	57.587
0.503972	62.503
0.592372	66.829
0.685972	70.5652
0.810772	74.4979
0.904372	77.0542
0.997972	79.4139
1.06557	80.3971
