Adsorption isotherm of Acetylene on UTSA-5A
DOI: 10.1039/C3ce40452h
Adsorbate Acetylene: InChIKey HSFWRNGVRCDJHI-UHFFFAOYSA-N
Temperature: 296 K
Tabular data in the source: 0
pressure (bar)	uptake (cm3(STP)/g)
0.0150664	2.1981
0.033503	4.22627
0.0653481	8.11359
0.129038	15.0432
0.1877	20.8742
0.249714	25.6065
0.31508	29.8319
0.382123	33.8037
0.440785	37.2685
0.502799	40.2263
0.559785	43.015
0.626827	45.8037
0.717334	49.353
0.811193	52.4798
0.9017	55.2685
0.963714	57.1277
1.02908	58.7333
1.05925	59.4094
