Adsorption isotherm of Carbon Dioxide on UTSA-5A
DOI: 10.1039/C3ce40452h
Adsorbate Carbon Dioxide: InChIKey CURLTUGMZLYLDI-UHFFFAOYSA-N
Temperature: 273 K
Tabular data in the source: 0
pressure (bar)	uptake (cm3(STP)/g)
0.0214513	2.26872
0.03847	4.45684
0.0674018	8.31822
0.132073	16.041
0.191638	23.3776
0.254608	30.3281
0.332894	38.0509
0.395863	43.3281
0.458832	48.0905
0.518397	52.0806
0.615404	57.6153
0.709007	61.7341
0.80261	65.7242
0.894511	69.1994
0.955778	71.5162
1.01875	73.4469
1.08682	75.2489
