Adsorption isotherm of Methane on UTSA-5A
DOI: 10.1039/C3ce40452h
Adsorbate Methane: InChIKey VNWKTOKETHGBQD-UHFFFAOYSA-N
Temperature: 296 K
Tabular data in the source: 0
pressure (bar)	uptake (cm3(STP)/g)
0.033503	0.169929
0.100545	0.338943
0.160883	0.676971
0.221221	1.015
0.288264	1.26852
0.351954	1.69106
0.410616	2.11359
0.502799	2.53613
0.598334	2.95866
0.692193	3.4657
0.754207	3.80373
0.811193	3.97275
0.873207	4.22627
0.936897	4.56429
0.992207	4.90232
1.05925	5.15584
