Adsorption isotherm of Methane on UTSA-5A
DOI: 10.1039/C3ce40452h
Adsorbate Methane: InChIKey VNWKTOKETHGBQD-UHFFFAOYSA-N
Temperature: 273 K
Tabular data in the source: 0
pressure (bar)	uptake (cm3(STP)/g)
0.0180476	0.46674
0.101439	1.1103
0.16611	1.49644
0.230781	1.88258
0.288645	2.39743
0.349912	2.91228
0.416285	3.29842
0.477553	3.81327
0.569454	4.32813
0.664758	4.84298
0.751554	5.48654
0.843455	6.13011
0.954076	6.77367
1.02896	7.28852
1.05959	7.41723
