Adsorption isotherm of Carbon Dioxide on UTSA-5A
DOI: 10.1039/C3ce40452h
Adsorbate Carbon Dioxide: InChIKey CURLTUGMZLYLDI-UHFFFAOYSA-N
Temperature: 296 K
Tabular data in the source: 0
pressure (bar)	uptake (cm3(STP)/g)
0.035179	1.18401
0.0971931	4.47979
0.159207	7.60655
0.249714	12.0009
0.346926	16.6488
0.437433	20.2826
0.532968	24.0854
0.628503	27.5502
0.720686	30.3389
0.843038	33.6347
0.900024	35.0713
0.963714	36.5925
1.0274	37.522
1.0559	37.8601
