Adsorption isotherm of Carbon Dioxide on MOF-74-Ni
DOI: 10.1039/B810574j
Adsorbate Carbon Dioxide: InChIKey CURLTUGMZLYLDI-UHFFFAOYSA-N
Temperature: 313 K
Tabular data in the source: 0
pressure (bar)	uptake (wt%)
0.00182509	0.265297
0.0280436	3.2695
0.0870352	7.58462
0.130733	9.49639
0.189724	11.7905
0.283674	13.5384
0.451909	15.7779
0.602665	17.1981
0.799304	18.7821
0.995943	19.9838
