Adsorption isotherm of Carbon Dioxide on MOF-74-Ni
DOI: 10.1039/B810574j
Adsorbate Carbon Dioxide: InChIKey CURLTUGMZLYLDI-UHFFFAOYSA-N
Temperature: 303 K
Tabular data in the source: 0
pressure (bar)	uptake (wt%)
0.0105646	1.95857
0.0498923	7.20227
0.113254	11.3535
0.17443	13.5384
0.274934	15.5594
0.355775	16.5426
0.552413	18.8913
0.70317	20.3115
0.899808	21.7317
0.998128	22.3871
