Adsorption isotherm of Carbon Dioxide on MOF-74-Ni
DOI: 10.1039/B810574j
Adsorbate Carbon Dioxide: InChIKey CURLTUGMZLYLDI-UHFFFAOYSA-N
Temperature: 353 K
Tabular data in the source: 0
pressure (bar)	uptake (wt%)
0.00837971	0.210675
0.0739259	1.74009
0.148212	3.37874
0.246531	4.85353
0.351405	6.2737
0.449724	7.36614
0.600481	8.67706
0.742497	9.60563
0.851741	10.3157
0.945691	10.8619
