Adsorption isotherm of Hydrogen on V-Oxamide150
DOI: 10.1021/Ja110243r
Adsorbate Hydrogen: InChIKey UFHFLCQGNIYNRP-UHFFFAOYSA-N
Temperature: 77 K
Tabular data in the source: 0
pressure (bar)	uptake (wt%)
1.13947	0.371892
3.54792	0.647948
9.63243	0.867667
20.6606	1.13246
32.1958	1.51555
39.9282	1.75781
59.4493	2.56344
81.5057	3.35217
85.6888	3.51555
