Adsorption isotherm of Hydrogen on V-Glycolamide150
DOI: 10.1021/Ja110243r
Adsorbate Hydrogen: InChIKey UFHFLCQGNIYNRP-UHFFFAOYSA-N
Temperature: 77 K
Tabular data in the source: 0
pressure (bar)	uptake (wt%)
1.01271	0.0946723
5.19581	0.166785
9.75919	0.200588
20.4071	0.362841
30.0409	0.520588
40.8155	0.687348
50.069	0.890165
59.5761	1.01411
70.8578	1.25298
82.0127	1.41298
