Adsorption isotherm of Nitrogen on V-Glycolate150
DOI: 10.1021/Ja110243r
Adsorbate Nitrogen: InChIKey IJGRMHOSHXDMSA-UHFFFAOYSA-N
Temperature: 77 K
Tabular data in the source: 0
pressure (bar)	uptake (cm3(STP)/g)
0.00984391	28.528
0.0619566	42.4716
0.119703	50.7111
0.183083	57.6829
0.350689	74.7956
0.499985	89.3731
0.650689	107.753
0.746464	130.57
0.795759	147.683
0.850689	179.373
0.873224	206.627
0.897168	232.612
0.921112	282.683
0.952097	342.26
0.992943	396.767
