Adsorption isotherm of Nitrogen on V-Oxamide100
DOI: 10.1021/Ja110243r
Adsorbate Nitrogen: InChIKey IJGRMHOSHXDMSA-UHFFFAOYSA-N
Temperature: 77 K
Tabular data in the source: 0
pressure (bar)	uptake (cm3(STP)/g)
0.000865	0.297726
0.0280373	1.32743
0.0809526	2.80763
0.119566	3.70862
0.141019	3.77297
0.176772	5.0601
0.219676	5.44624
0.248279	6.15416
0.402735	9.11456
0.5529	11.5601
0.705925	14.2631
0.821767	17.0948
0.897564	18.6393
0.898994	19.7334
0.961921	21.6641
0.981943	23.8522
0.989093	25.8472
