Adsorption isotherm of Hydrogen on V-Oxalate150
DOI: 10.1021/Ja110243r
Adsorbate Hydrogen: InChIKey UFHFLCQGNIYNRP-UHFFFAOYSA-N
Temperature: 298 K
Tabular data in the source: 0
pressure (bar)	uptake (wt%)
1.13947	0.00677886
4.94229	0.0236803
11.0268	0.0219901
19.9	0.0676239
31.055	0.0980465
41.9564	0.116638
51.4634	0.13692
60.4634	0.13861
70.224	0.163962
80.1113	0.224807
