Adsorption isotherm of Hydrogen on V-Glycolamide150
DOI: 10.1021/Ja110243r
Adsorbate Hydrogen: InChIKey UFHFLCQGNIYNRP-UHFFFAOYSA-N
Temperature: 298 K
Tabular data in the source: 0
pressure (bar)	uptake (wt%)
1.26623	0.0248131
5.70285	0.0315737
14.8296	0.0338272
16.8578	0.0338272
22.4352	0.0496019
30.4212	0.0563624
39.6747	0.0743906
50.7029	0.139743
60.7169	0.247912
69.9705	0.317771
79.6043	0.353827
81.8859	0.371855
