Adsorption isotherm of Nitrogen on V-Oxamide150
DOI: 10.1021/Ja110243r
Adsorbate Nitrogen: InChIKey IJGRMHOSHXDMSA-UHFFFAOYSA-N
Temperature: 77 K
Tabular data in the source: 0
pressure (bar)	uptake (cm3(STP)/g)
0.00515504	0.426439
0.0580703	0.748221
0.0995445	1.07
0.15532	1.32743
0.198224	1.64921
0.301195	2.09971
0.399875	2.61456
0.499985	3.0007
0.65301	3.83733
0.824627	4.93139
0.896134	5.57495
0.966211	6.66901
0.979082	7.44129
0.989093	9.24327
0.993384	14.3274
