Adsorption isotherm of Hydrogen on V-Glycolate150
DOI: 10.1021/Ja110243r
Adsorbate Hydrogen: InChIKey UFHFLCQGNIYNRP-UHFFFAOYSA-N
Temperature: 298 K
Tabular data in the source: 0
pressure (bar)	uptake (wt%)
1.26623	0.0152387
4.68877	0.0228443
15.2099	0.0279148
19.6465	0.0355204
29.5338	0.0481965
40.4352	0.0862246
51.2099	0.15214
61.3507	0.207915
70.9845	0.238337
78.8437	0.266225
83.1536	0.271295
