Adsorption isotherm of Hydrogen on V-Glycolate150
DOI: 10.1021/Ja110243r
Adsorbate Hydrogen: InChIKey UFHFLCQGNIYNRP-UHFFFAOYSA-N
Temperature: 77 K
Tabular data in the source: 0
pressure (bar)	uptake (wt%)
0.759191	0.253549
2.78736	0.365098
4.94229	0.408196
10.6465	0.555239
20.1536	0.699746
30.4212	0.834112
40.1817	0.99383
52.4775	1.19918
60.8437	1.27524
70.0972	1.36397
76.3085	1.46791
82.2662	1.57693
