Adsorption isotherm of Nitrogen on V-Oxalate150
DOI: 10.1021/Ja110243r
Adsorbate Nitrogen: InChIKey IJGRMHOSHXDMSA-UHFFFAOYSA-N
Temperature: 77 K
Tabular data in the source: 0
pressure (bar)	uptake (cm3(STP)/g)
0.0260462	27.9975
0.141539	47.8567
0.20445	51.237
0.24952	54.1947
0.549051	66.4482
0.648581	75.3215
0.750929	87.1525
0.798816	98.5609
0.850459	113.772
0.898347	139.124
0.923699	161.941
0.952807	209.688
0.971586	275.181
0.976281	308.138
0.994121	329.688
