Adsorption isotherm of Hydrogen on V-Oxamide150
DOI: 10.1021/Ja110243r
Adsorbate Hydrogen: InChIKey UFHFLCQGNIYNRP-UHFFFAOYSA-N
Temperature: 298 K
Tabular data in the source: 0
pressure (bar)	uptake (wt%)
1.26623	0.107103
3.92821	0.185976
10.393	0.298653
20.5338	0.484568
28.0127	0.585976
42.0831	0.681751
52.6043	0.749357
62.7451	0.816962
72.5057	0.845131
80.8719	0.890202
85.6888	0.918371
