Adsorption isotherm of Hydrogen on V-Oxamide100
DOI: 10.1021/Ja110243r
Adsorbate Hydrogen: InChIKey UFHFLCQGNIYNRP-UHFFFAOYSA-N
Temperature: 298 K
Tabular data in the source: 0
pressure (bar)	uptake (wt%)
1.64652	0.0451314
6.2099	0.112737
14.1958	0.214145
20.2803	0.26485
30.6747	0.326822
40.562	0.377526
55.2662	0.439498
73.0127	0.507103
86.3226	0.507103
