Adsorption isotherm of Hydrogen on V-Oxamide100
DOI: 10.1021/Ja110243r
Adsorbate Hydrogen: InChIKey UFHFLCQGNIYNRP-UHFFFAOYSA-N
Temperature: 77 K
Tabular data in the source: 0
pressure (bar)	uptake (wt%)
1.39299	0.467667
2.6606	0.563441
5.19581	0.653582
9.75919	0.800061
19.1395	0.985976
27.7592	1.14372
34.3507	1.25077
42.4634	1.43105
54.7592	1.65077
68.0691	1.89865
79.0972	2.124
85.4352	2.26485
