Adsorption isotherm of Hydrogen on H2-V-Oxalate150
DOI: 10.1021/Ja110243r
Adsorbate Hydrogen: InChIKey UFHFLCQGNIYNRP-UHFFFAOYSA-N
Temperature: 298 K
Tabular data in the source: 0
pressure (bar)	uptake (wt%)
1.64652	0.00903848
3.92821	0.0248131
7.85778	0.0450948
15.2099	0.06763
16.8578	0.0834047
19.0127	0.0856582
23.5761	0.119461
28.1395	0.148757
35.6183	0.198334
43.0972	0.22763
50.1958	0.263686
55.6465	0.297489
62.9986	0.344813
73.9	0.401151
80.9986	0.434954
83.5338	0.448475
