Adsorption isotherm of Nitrogen on H2-V-Oxalate150
DOI: 10.1021/Ja110243r
Adsorbate Nitrogen: InChIKey IJGRMHOSHXDMSA-UHFFFAOYSA-N
Temperature: 77 K
Tabular data in the source: 0
pressure (bar)	uptake (cm3(STP)/g)
0.00561856	25.9928
0.0619566	37.4012
0.143647	45.6407
0.250689	52.6125
0.602802	72.2604
0.697168	81.1336
0.797168	100.148
0.850689	114.091
0.897168	138.81
0.919703	161.627
0.953506	215.5
0.96759	292.824
0.97745	333.387
0.992943	361.274
