Adsorption isotherm of Hydrogen on H2-V-Glycolate150
DOI: 10.1021/Ja110243r
Adsorbate Hydrogen: InChIKey UFHFLCQGNIYNRP-UHFFFAOYSA-N
Temperature: 298 K
Tabular data in the source: 0
pressure (bar)	uptake (wt%)
1.64652	0.0177739
4.43525	0.03045
10.0127	0.0253796
21.0409	0.109042
30.8014	0.162281
40.562	0.21552
50.7029	0.281436
60.7169	0.334675
70.3507	0.357492
81.8859	0.360027
