Adsorption isotherm of Nitrogen on H2-V-Glycolate150
DOI: 10.1021/Ja110243r
Adsorbate Nitrogen: InChIKey IJGRMHOSHXDMSA-UHFFFAOYSA-N
Temperature: 77 K
Tabular data in the source: 0
pressure (bar)	uptake (cm3(STP)/g)
0.0112524	19.0209
0.063365	30.4294
0.121112	38.6688
0.199985	43.1055
0.301393	51.9787
0.397168	57.6829
0.498576	65.9224
0.602802	75.4294
0.701393	92.5421
0.742238	103.951
0.798576	122.965
0.849281	154.655
0.898576	207.894
0.946464	293.458
0.990126	345.429
0.995759	368.88
