Adsorption isotherm of Hydrogen on V-Oxalate150
DOI: 10.1021/Ja110243r
Adsorbate Hydrogen: InChIKey UFHFLCQGNIYNRP-UHFFFAOYSA-N
Temperature: 77 K
Tabular data in the source: 0
pressure (bar)	uptake (wt%)
0.632431	0.351568
4.68877	0.576356
10.393	0.677765
20.2803	0.794384
30.8014	0.843399
41.069	0.914384
50.5761	0.97523
58.9423	1.00227
67.3085	1.04284
72.6324	1.04622
77.4493	1.0834
79.6043	1.09861
