Adsorption isotherm of Hydrogen on H2-V-Oxalate150
DOI: 10.1021/Ja110243r
Adsorbate Hydrogen: InChIKey UFHFLCQGNIYNRP-UHFFFAOYSA-N
Temperature: 77 K
Tabular data in the source: 0
pressure (bar)	uptake (wt%)
1.13947	0.383123
3.2944	0.545376
5.32257	0.62425
10.7733	0.712137
20.6606	0.894672
30.4212	1.02988
41.7029	1.13129
50.9564	1.20115
62.8719	1.32509
70.3507	1.3927
71.4916	1.40622
79.9845	1.46932
