Adsorption isotherm of Hydrogen on H2-V-Glycolate150
DOI: 10.1021/Ja110243r
Adsorbate Hydrogen: InChIKey UFHFLCQGNIYNRP-UHFFFAOYSA-N
Temperature: 77 K
Tabular data in the source: 0
pressure (bar)	uptake (wt%)
0.885952	0.182563
2.78736	0.271295
4.94229	0.342281
20.9141	0.684534
30.5479	0.836647
38.2803	0.971013
49.055	1.18904
59.5761	1.35383
68.9564	1.54904
76.1817	1.64284
82.5198	1.70876
