Adsorption isotherm of Nitrogen on V-Glycolamide150
DOI: 10.1021/Ja110243r
Adsorbate Nitrogen: InChIKey IJGRMHOSHXDMSA-UHFFFAOYSA-N
Temperature: 77 K
Tabular data in the source: 0
pressure (bar)	uptake (cm3(STP)/g)
0.00351096	3.06795
0.0326189	3.49049
0.060788	3.91302
0.100225	3.91302
0.123699	3.91302
0.15938	3.49049
0.185671	3.49049
0.82229	6.44824
0.875811	8.56091
0.924638	11.9412
0.951868	16.5891
0.973464	20.8144
0.994121	33.913
