Adsorption isotherm of Nitrogen on MFe(LAG)
DOI: 10.1016/j.micromeso.2015.04.005
Article source: Figure 6- MFe LAG
Adsorbate Nitrogen: InChIKey IJGRMHOSHXDMSA-UHFFFAOYSA-N
Kind: experiment
Temperature: 77 K
Tabular data in the source: 0
pressure (bar)	uptake (cm3(STP)/g)
7.1e-05	108.16
7.1e-05	97.75
7.1e-05	95.45
7.1e-05	70.34
0.000152	124.85
0.000162	17.96
0.000324	30.28
0.000395	137.17
0.000578	43.56
0.000648	88.58
0.00074	56.95
0.002138	161.82
0.003638	174.04
0.006535	184.66
0.008785	191.25
0.012939	198.37
0.017843	204.21
0.023325	210.48
0.030144	217.38
0.035879	222.91
0.039861	228.64
0.044846	233.53
0.0505	238.63
0.057978	243.94
0.065041	246.91
0.070776	250.53
0.078922	252.97
0.086076	255.62
0.093057	257.85
0.100535	260.72
0.108509	262.84
0.117071	269.85
0.121813	269.11
0.123799	270.28
0.131368	274.31
0.137761	273.89
0.145746	273.99
0.150731	277.07
0.154308	275.58
0.161948	276.11
0.170348	276.64
0.173418	279.09
0.180906	277.91
0.186722	278.34
0.196196	278.66
0.199357	280.99
0.20492	279.72
0.211901	280.25
0.220544	281.09
0.228863	280.77
0.229694	282.79
0.237415	282.05
0.245237	283
0.25388	282.68
0.261692	283.64
0.264934	283.95
0.269332	283.95
0.278897	284.8
0.286952	284.59
0.294349	285.22
0.305161	285.86
0.310804	285.75
0.351618	286.8
0.38619	289.77
0.405979	288.71
0.420357	290.08
0.456175	292.2
0.468557	290.39
0.491994	292.3
0.526495	294.95
0.539951	292.08
0.562232	296
0.580015	295.04
0.597797	297.59
0.62481	297.16
0.633869	298.43
0.671856	299.81
0.673183	299.78
0.705019	302.46
0.722305	304.05
0.741253	304.68
0.752976	305.85
0.776828	307.12
0.808249	310.83
0.810326	310.61
0.837755	315.18
0.84498	313.79
0.869166	321.44
0.882794	319.84
0.899918	328.98
0.92992	339.91
0.953114	340.97
0.956265	356.17
0.980279	381.24
0.984362	370.72
0.990837	422.78
0.996065	473.56
1.00038	528.18
1.00228	585.34
1.00435	642.29
1.00684	699.77
1.00874	758.95
1.0094	817.71
1.01038	876.47
1.01062	588.05
1.01088	937.14
1.01237	996.64
1.01242	961.68
1.0126	1160.68
1.01268	1117.55
1.01382	706.78
