Adsorption isotherm of Nitrogen on Fe-BTC
DOI: 10.1016/j.micromeso.2015.04.005
Article source: Figure 6- Basolite F300
Adsorbate Nitrogen: InChIKey IJGRMHOSHXDMSA-UHFFFAOYSA-N
Kind: experiment
Temperature: 77 K
Tabular data in the source: 0
pressure (bar)	uptake (cm3(STP)/g)
0.000415	7.12
0.000578	18.28
0.000578	18.24
0.000659	24.23
0.00074	30.07
0.000912	35.49
0.000993	41.23
0.001074	47.18
0.002817	61.94
0.010214	71.4
0.018522	76.5
0.0275	80.75
0.032819	82.34
0.041716	86.05
0.049436	89.98
0.061575	92
0.07645	94.87
0.093989	98.05
0.114102	99.96
0.126484	102.19
0.137457	101.44
0.143111	102.08
0.162059	102.92
0.183337	103.66
0.185161	103.56
0.20877	104.51
0.210594	104.51
0.23861	104.39
0.265705	106.09
0.273517	105.98
0.294795	106.93
0.313581	107.35
0.323217	107.03
0.35788	107.03
0.3602	107.13
0.394033	107.23
0.412403	108.4
0.427115	108.61
0.462599	108.81
0.472904	109.02
0.494851	108.38
0.528258	109.43
0.541643	110.71
0.563083	110.49
0.583034	110.7
0.598658	110.59
0.626665	111.01
0.634153	111.11
0.670133	111.1
0.672545	112.27
0.702973	112.48
0.723825	112.58
0.736876	112.26
0.751092	113.74
0.77162	112.78
0.805199	114.16
0.835283	115.32
0.839771	115.32
0.865954	117.12
0.87252	116.16
0.896625	117.22
0.907183	117.85
0.925462	119.13
0.936932	119.55
0.951067	122.52
0.970927	124.32
0.972092	124.22
0.985467	130.69
0.993532	131.44
1.0124	159.27
1.01298	159.27
1.01365	172.13
