Adsorption isotherm of Nitrogen on [Ni2(dhtp)Mo0.5(CO)1.5]
DOI: 10.1021/Cs200530e
Adsorbate Nitrogen: InChIKey IJGRMHOSHXDMSA-UHFFFAOYSA-N
Temperature: 77 K
Tabular data in the source: 0
pressure (bar)	uptake (cm3(STP)/g)
0.0403272	0.0515038
0.0733223	0.0526316
0.117316	0.0533835
0.161309	0.0548872
0.19797	0.0545113
0.249296	0.0556391
0.300621	0.056015
0.344615	0.056391
0.384942	0.056391
0.439934	0.056391
0.491259	0.0575188
0.542585	0.0578947
0.582912	0.0578947
0.634238	0.0578947
0.681897	0.0586466
0.72589	0.0590226
0.747887	0.0597744
0.806545	0.062406
0.850538	0.0646617
0.887199	0.0676692
0.909196	0.0714286
0.923861	0.0781955
0.953189	0.087218
0.97152	0.093985
