Adsorption isotherm of Nitrogen on zeolite NaKA (29.3% K+)
DOI: 10.1016/j.cclet.2016.01.017
Article source: Figure 1
Adsorbate Nitrogen: InChIKey IJGRMHOSHXDMSA-UHFFFAOYSA-N
Kind: experiment
Temperature: 293 K
Tabular data in the source: 0
pressure (bar)	uptake (mmol/g)
0.0344	0.00164
1.8093	0.00844
3.9639	0.00956
5.6832	0.01177
