Adsorption isotherm of Nitrogen on zeolite NaKA (14.7% K+)
DOI: 10.1016/j.cclet.2016.01.017
Article source: Figure 3
Adsorbate Nitrogen: InChIKey IJGRMHOSHXDMSA-UHFFFAOYSA-N
Kind: experiment
Temperature: 293 K
Tabular data in the source: 0
pressure (bar)	uptake (mmol/g)
0.0427	0.000145
1.4347	0.006509
3.334	0.005636
6.0743	0.010662
8.9359	0.016153
