Adsorption isotherm of Nitrogen on zeolite NaKA (12.8% K+)
DOI: 10.1016/j.cclet.2016.01.017
Article source: Figure 1
Adsorbate Nitrogen: InChIKey IJGRMHOSHXDMSA-UHFFFAOYSA-N
Kind: experiment
Temperature: 293 K
Tabular data in the source: 0
pressure (bar)	uptake (mmol/g)
0.0282	0.00409
1.0389	0.04122
2.2826	0.07836
4.3362	0.15446
6.7552	0.2404
