Adsorption isotherm of Carbon Dioxide on zeolite NaKA (12.8% K+)
DOI: 10.1016/j.cclet.2016.01.017
Article source: Figure 1
Adsorbate Carbon Dioxide: InChIKey CURLTUGMZLYLDI-UHFFFAOYSA-N
Kind: experiment
Temperature: 293 K
Tabular data in the source: 0
pressure (bar)	uptake (mmol/g)
0.00791	0.00677
0.29597	1.8176
0.85734	3.14681
2.99546	3.94024
6.11647	4.37516
