Adsorption isotherm of Carbon Dioxide on zeolite NaKA (14.7% K+)
DOI: 10.1016/j.cclet.2016.01.017
Article source: Figure 3
Adsorbate Carbon Dioxide: InChIKey CURLTUGMZLYLDI-UHFFFAOYSA-N
Kind: experiment
Temperature: 348 K
Tabular data in the source: 0
pressure (bar)	uptake (mmol/g)
0.3995	1.30447
0.7782	2.10629
1.1978	2.65781
3.5742	3.49854
5.715	3.62528
7.2043	3.71531
9.1419	3.90696
