Adsorption isotherm of Nitrogen on zeolite NaKA (10.2% K+)
DOI: 10.1016/j.cclet.2016.01.017
Article source: Figure 1
Adsorbate Nitrogen: InChIKey IJGRMHOSHXDMSA-UHFFFAOYSA-N
Kind: experiment
Temperature: 293 K
Tabular data in the source: 0
pressure (bar)	uptake (mmol/g)
0.0136	0.00305
0.6989	0.15181
2.1582	0.4538
4.787	0.7796
8.1303	1.01554
