Adsorption isotherm of Carbon Dioxide on zeolite NaKA (14.7% K+)
DOI: 10.1016/j.cclet.2016.01.017
Article source: Figure 1
Adsorbate Carbon Dioxide: InChIKey CURLTUGMZLYLDI-UHFFFAOYSA-N
Kind: experiment
Temperature: 293 K
Tabular data in the source: 0
pressure (bar)	uptake (mmol/g)
0.01095	0.00948
0.37773	2.2134
1.18975	3.07901
4.0166	3.92735
6.71296	4.36647
9.85147	4.83338
