Adsorption isotherm of Nitrogen on zeolite NaKA (22.5% K+)
DOI: 10.1016/j.cclet.2016.01.017
Article source: Figure 1
Adsorbate Nitrogen: InChIKey IJGRMHOSHXDMSA-UHFFFAOYSA-N
Kind: experiment
Temperature: 293 K
Tabular data in the source: 0
pressure (bar)	uptake (mmol/g)
0.0194	0.00297
0.4775	0.00706
1.2085	0.00809
1.3581	0.00932
2.7347	0.0096
5.0505	0.01019
8.3219	0.01086
