Adsorption isotherm of Carbon Dioxide on zeolite NaKA (14.7% K+)
DOI: 10.1016/j.cclet.2016.01.017
Article source: Figure 3
Adsorbate Carbon Dioxide: InChIKey CURLTUGMZLYLDI-UHFFFAOYSA-N
Kind: experiment
Temperature: 293 K
Tabular data in the source: 0
pressure (bar)	uptake (mmol/g)
0.3804	2.21867
1.1831	3.08288
4.0093	3.93502
6.7004	4.38124
9.8351	4.84492
