Adsorption isotherm of Carbon Dioxide on zeolite NaKA (14.7% K+)
DOI: 10.1016/j.cclet.2016.01.017
Article source: Figure 3
Adsorbate Carbon Dioxide: InChIKey CURLTUGMZLYLDI-UHFFFAOYSA-N
Kind: experiment
Temperature: 313 K
Tabular data in the source: 0
pressure (bar)	uptake (mmol/g)
0.5192	2.09754
1.5361	3.26406
2.9032	3.5907
4.3466	3.88885
6.4021	4.09756
8.0316	4.30193
