Adsorption isotherm of Carbon Dioxide on zeolite NaKA (29.3% K+)
DOI: 10.1016/j.cclet.2016.01.017
Article source: Figure 1
Adsorbate Carbon Dioxide: InChIKey CURLTUGMZLYLDI-UHFFFAOYSA-N
Kind: experiment
Temperature: 293 K
Tabular data in the source: 0
pressure (bar)	uptake (mmol/g)
0.0146	0.01038
1.12653	1.20276
2.81008	1.88692
6.11486	2.33525
8.75194	2.62356
