Adsorption isotherm of Nitrogen on zeolite NaKA (14.7% K+)
DOI: 10.1016/j.cclet.2016.01.017
Article source: Figure 3
Adsorbate Nitrogen: InChIKey IJGRMHOSHXDMSA-UHFFFAOYSA-N
Kind: experiment
Temperature: 348 K
Tabular data in the source: 0
pressure (bar)	uptake (mmol/g)
0.0194	6.6e-05
0.9895	0.000865
1.9754	0.00172
5.9422	0.00502
8.2303	0.006885
9.7975	0.008139
