Adsorption isotherm of Nitrogen on zeolite NaKA (14.7% K+)
DOI: 10.1016/j.cclet.2016.01.017
Article source: Figure 3
Adsorbate Nitrogen: InChIKey IJGRMHOSHXDMSA-UHFFFAOYSA-N
Kind: experiment
Temperature: 313 K
Tabular data in the source: 0
pressure (bar)	uptake (mmol/g)
0.0171	5.3e-05
1.14	0.001311
2.4522	0.002794
5.9573	0.006691
7.5566	0.008393
