Adsorption isotherm of Nitrogen on zeolite NaKA (14.7% K+)
DOI: 10.1016/j.cclet.2016.01.017
Article source: Figure 1
Adsorbate Nitrogen: InChIKey IJGRMHOSHXDMSA-UHFFFAOYSA-N
Kind: experiment
Temperature: 293 K
Tabular data in the source: 0
pressure (bar)	uptake (mmol/g)
0.0395	0.00336
1.1586	0.00805
2.7344	0.01057
4.9666	0.01574
7.305	0.01948
