Adsorption isotherm of Carbon Dioxide on zeolite NaKA (22.5% K+)
DOI: 10.1016/j.cclet.2016.01.017
Article source: Figure 1
Adsorbate Carbon Dioxide: InChIKey CURLTUGMZLYLDI-UHFFFAOYSA-N
Kind: experiment
Temperature: 293 K
Tabular data in the source: 0
pressure (bar)	uptake (mmol/g)
0.00912	0.00768
0.78266	1.6189
1.35605	2.17768
2.72284	2.67604
5.2916	3.08308
9.04164	3.46704
