Adsorption isotherm of Carbon Dioxide on zeolite NaKA (10.2% K+)
DOI: 10.1016/j.cclet.2016.01.017
Article source: Figure 1
Adsorbate Carbon Dioxide: InChIKey CURLTUGMZLYLDI-UHFFFAOYSA-N
Kind: experiment
Temperature: 293 K
Tabular data in the source: 0
pressure (bar)	uptake (mmol/g)
0.01095	1.4087
0.21354	1.91875
2.46556	3.95236
5.85852	4.59044
