Adsorption isotherm of Methane on Zn(bdc)(ted)0.5
DOI: 10.1016/j.micromeso.2012.05.032
Adsorbate Methane: InChIKey VNWKTOKETHGBQD-UHFFFAOYSA-N
Temperature: 103 K
Tabular data in the source: 0
pressure (bar)	uptake (mmol/g)
8.88509e-05	2.85655
9.44562e-05	4.74429
0.000100415	6.5621
0.000100415	8.51975
0.00010675	10.4075
0.00010675	11.2465
0.000113484	12.9245
0.000117009	12.1554
0.000140581	13.9732
0.000168901	14.4626
0.000236461	15.1618
0.000385752	15.8609
0.000588176	16.376
0.00110378	17.0016
0.00218793	17.5646
0.00279902	17.8148
0.00320949	18.5655
0.00445726	18.8783
0.00749723	19.3162
0.0122701	19.5664
0.0224047	19.8166
0.030275	19.9417
0.0509234	20.0668
0.0767727	20.192
0.132717	20.192
0.184314	20.3796
0.229427	20.755
0.277873	24.0705
0.293507	31.89
