Adsorption isotherm of Methane on Zn(bdc)(ted)0.5
DOI: 10.1016/j.micromeso.2012.05.032
Adsorbate Methane: InChIKey VNWKTOKETHGBQD-UHFFFAOYSA-N
Temperature: 88 K
Tabular data in the source: 0
pressure (bar)	uptake (mmol/g)
3.80521e-06	2.08748
4.43405e-06	4.39471
5.32729e-06	6.42227
5.83928e-06	8.65958
6.40047e-06	10.827
6.80425e-06	12.9245
7.9287e-06	15.0918
9.52594e-06	15.791
1.37505e-05	16.2804
2.31288e-05	16.6999
3.65946e-05	17.3292
4.67403e-05	17.8186
5.28237e-05	18.3779
7.62501e-05	18.9372
0.000174147	19.4966
0.000669	19.986
0.00519367	20.2656
0.0122302	20.3355
0.0193508	20.3355
0.0239712	20.3355
0.0582015	20.5453
0.0814819	20.6851
0.092087	21.594
0.092087	23.0623
0.092087	26.1386
