Adsorption isotherm of Methane on Zn(bdc)(ted)0.5
DOI: 10.1016/j.micromeso.2012.05.032
Adsorbate Methane: InChIKey VNWKTOKETHGBQD-UHFFFAOYSA-N
Temperature: 93 K
Tabular data in the source: 0
pressure (bar)	uptake (mmol/g)
8.4289e-06	1.24849
9.52594e-06	2.85655
1.07658e-05	4.25487
1.18004e-05	5.79303
1.2167e-05	7.54093
1.37505e-05	9.07908
1.41776e-05	10.7571
1.55402e-05	12.2253
1.65206e-05	13.8334
2.04652e-05	15.3715
7.86185e-05	16.8397
0.000185134	18.7275
0.00201215	19.7762
0.0187679	20.0559
0.0766466	20.3355
0.114074	20.4055
0.150227	23.9013
0.150227	25.9288
0.154893	21.8038
0.159704	27.9564
0.159704	30.1937
0.159704	31.8717
