Adsorption isotherm of Methane on Zn(bdc)(ted)0.5
DOI: 10.1016/j.micromeso.2012.05.032
Adsorbate Methane: InChIKey VNWKTOKETHGBQD-UHFFFAOYSA-N
Temperature: 98 K
Tabular data in the source: 0
pressure (bar)	uptake (mmol/g)
2.53516e-05	2.29723
2.53516e-05	4.25487
2.77881e-05	7.12143
2.86512e-05	10.1278
3.04587e-05	11.0367
3.14048e-05	12.2253
3.3386e-05	13.1342
3.4423e-05	14.0431
4.13575e-05	14.7423
6.54363e-05	15.5813
0.000144948	16.4902
0.000410088	17.3292
0.000540052	18.2381
0.00127173	19.147
0.00535499	19.6364
0.0166065	20.0559
0.0315681	20.1258
0.0499473	20.2656
0.0840128	20.3355
0.132926	20.4055
0.169779	20.4754
0.23769	20.825
0.268627	24.1809
0.27697	31.8717
