Adsorption isotherm of Methane on Zn(bdc)(ted)0.5
DOI: 10.1016/j.micromeso.2012.05.032
Adsorbate Methane: InChIKey VNWKTOKETHGBQD-UHFFFAOYSA-N
Temperature: 103 K
Tabular data in the source: 0
pressure (bar)	uptake (mmol/g)
0	10.8418
0.000143885	14.5413
0.000431655	16.0728
0.000863309	16.7119
0.00201439	17.4809
0.00273381	18.121
0.00374101	18.7619
0.00546763	19.4052
0.00690647	19.5373
0.00820144	19.669
0.00964029	19.6736
0.0110791	19.6782
0.012518	19.6828
0.0139568	19.6874
0.0153957	19.8195
0.0168345	19.8241
0.0181295	19.8282
0.0195683	19.8328
0.0210072	19.8374
0.022446	19.842
0.0238849	19.9741
0.0251799	19.9783
0.0266187	19.9828
0.0280576	19.9874
0.0294964	19.992
0.0309353	19.9966
0.0323741	20.0012
0.0338129	20.0058
0.0351079	20.1375
0.0365468	20.142
0.0379856	20.1466
0.0394245	20.1512
0.04	20.2806
