Adsorption isotherm of Nitrogen on ZIF-100
DOI: 10.1039/c4ta06763k
Article source: Figure 3- N2 experiment
Adsorbate Nitrogen: InChIKey IJGRMHOSHXDMSA-UHFFFAOYSA-N
Kind: experiment
Temperature: 298 K
Tabular data in the source: 0
pressure (bar)	uptake (mmol/g)
0.012212	0.0015
0.124976	0.01199
0.238327	0.01669
0.392234	0.02782
0.515851	0.03703
0.627762	0.04334
0.789522	0.05757
0.905019	0.06356
1.01564	0.07084
