Adsorption isotherm of Carbon Dioxide on ZIF-100
DOI: 10.1039/c4ta06763k
Article source: Figure 3- CO2 experiment
Adsorbate Carbon Dioxide: InChIKey CURLTUGMZLYLDI-UHFFFAOYSA-N
Kind: experiment
Temperature: 298 K
Tabular data in the source: 0
pressure (bar)	uptake (mmol/g)
0.012972	0.01252
0.117884	0.17167
0.277857	0.35168
0.390355	0.45463
0.495359	0.55042
0.655826	0.68676
0.770297	0.75814
0.875968	0.8354
1.04114	0.93942
