Adsorption isotherm of Methane on ZIF-100
DOI: 10.1039/c4ta06763k
Article source: Figure 3- CH4 experiment
Adsorbate Methane: InChIKey VNWKTOKETHGBQD-UHFFFAOYSA-N
Kind: experiment
Temperature: 298 K
Tabular data in the source: 0
pressure (bar)	uptake (mmol/g)
0.013306	0.00471
0.127989	0.03979
0.234141	0.0691
0.406513	0.11584
0.519824	0.14311
0.631441	0.17231
0.799881	0.21135
0.915325	0.23616
1.02728	0.26022
