Adsorption isotherm of Nitrogen on C30H42LiN3O13V
DOI: 10.1039/C2ce26400e
Adsorbate Nitrogen: InChIKey IJGRMHOSHXDMSA-UHFFFAOYSA-N
Temperature: 77 K
Tabular data in the source: 0
pressure (bar)	uptake (cm3(STP)/g)
0.00400996	67.5563
0.00619484	0.873899
0.00619484	35.4386
0.0149343	71.5327
0.0608167	76.7327
0.229052	81.321
0.626699	87.4386
0.792749	89.5798
0.87796	91.1092
0.908548	92.6386
0.95443	98.4504
0.976279	104.874
