Adsorption isotherm of Nitrogen on C16.5H17.5N1.5NaO9.5V
DOI: 10.1039/C2ce26400e
Adsorbate Nitrogen: InChIKey IJGRMHOSHXDMSA-UHFFFAOYSA-N
Temperature: 77 K
Tabular data in the source: 0
pressure (bar)	uptake (cm3(STP)/g)
0.00400996	0.568017
0.00619484	12.8033
0.0127495	16.168
0.0673713	19.8386
0.246531	33.2974
0.392918	42.4739
0.52838	51.0386
0.646363	59.2974
0.738128	64.8033
0.827707	70.3092
0.891069	75.5092
0.941321	80.4033
0.974094	83.768
