Adsorption isotherm of Nitrogen on DCM - toluene treament
DOI: 10.1021/acs.chemmater.9b02718
Article source: Figure S8
Adsorbate Nitrogen: InChIKey IJGRMHOSHXDMSA-UHFFFAOYSA-N
Kind: experiment
Temperature: 77 K
Tabular data in the source: 0
pressure (bar)	uptake (cm3(STP)/g)
0.028244	6.38298
0.028244	12.766
0.028244	17.0213
0.028244	23.4043
0.028244	25.5319
0.028244	29.7872
0.028244	34.0426
0.028244	36.1702
0.028244	42.5532
0.028244	46.8085
0.028244	51.0638
0.028244	59.5745
0.031774	70.2128
0.031774	78.7234
0.042366	104.255
0.049427	108.511
0.067079	121.277
0.084732	125.532
0.102384	125.532
0.120037	131.915
0.14122	131.915
0.162402	134.043
0.194177	138.298
0.21536	140.426
0.236543	140.426
0.29303	142.553
0.342457	144.681
0.391884	148.936
0.444841	148.936
0.497799	153.191
0.547226	153.191
0.656671	157.447
0.759055	161.702
0.861439	168.085
0.960293	191.489
0.903805	180.851
0.857909	174.468
0.79789	170.213
0.751994	170.213
0.695506	168.085
0.646079	165.957
0.589591	163.83
0.543695	161.702
0.497799	161.702
0.483677	161.702
0.441311	157.447
0.391884	157.447
0.331866	157.447
0.28597	153.191
0.247134	151.064
0.233012	151.064
0.211829	151.064
0.197707	151.064
0.187116	151.064
0.172994	148.936
0.162402	148.936
0.134159	144.681
0.112976	144.681
