Adsorption isotherm of Nitrogen on CHCl3
DOI: 10.1021/acs.chemmater.9b02718
Article source: Figure 2
Adsorbate Nitrogen: InChIKey IJGRMHOSHXDMSA-UHFFFAOYSA-N
Kind: experiment
Temperature: 77 K
Tabular data in the source: 0
pressure (bar)	uptake (cm3(STP)/g)
0	3.27103
0	8.72274
0	13.0841
0	17.4455
0	23.9875
0	28.3489
0	32.7103
0	37.0717
0	43.6137
0	52.3364
0	58.8785
0	63.2399
0	71.9626
0	78.5047
0	85.0467
0	89.4081
0	95.9502
0	104.673
0	111.215
0	117.757
0	122.118
0	124.299
0.002954	133.022
0.002954	141.745
0.008862	159.19
0.013293	172.274
0.01477	178.816
0.017724	183.178
0.026587	202.804
0.035449	209.346
0.050219	218.069
0.070898	224.611
0.085668	226.791
0.109301	228.972
0.135888	233.333
0.153612	237.695
0.180199	239.875
0.212694	244.237
0.265867	248.598
0.316087	255.14
0.375168	259.502
0.428342	263.863
0.481515	270.405
0.534689	272.586
0.641036	281.308
0.744429	290.031
0.850776	305.296
0.94826	329.283
0.900995	320.561
0.847821	311.838
0.791694	307.477
0.747383	303.115
0.735566	300.935
0.688301	298.754
0.629219	294.393
0.584908	290.031
0.528781	287.85
0.469699	283.489
0.425388	279.128
0.366306	274.766
0.321995	274.766
0.310179	270.405
0.262913	266.044
0.22451	263.863
0.200878	261.682
0.189061	259.502
0.180199	257.321
0.168383	257.321
0.14475	255.14
0.132934	252.96
0.106347	248.598
0.085668	242.056
0.067944	239.875
0.056128	235.514
0.038403	228.972
0.029541	220.249
0.026587	213.707
0.020679	207.165
0.020679	202.804
