Adsorption isotherm of Nitrogen on DCM - acetonitrile treatment
DOI: 10.1021/acs.chemmater.9b02718
Article source: Figure S8
Adsorbate Nitrogen: InChIKey IJGRMHOSHXDMSA-UHFFFAOYSA-N
Kind: experiment
Temperature: 77 K
Tabular data in the source: 0
pressure (bar)	uptake (cm3(STP)/g)
0.031885	4.78261
0.031885	11.9565
0.031885	19.1304
0.031885	21.5217
0.031885	28.6957
0.031885	31.087
0.031885	35.8696
0.031885	40.6522
0.031885	50.2174
0.035428	59.7826
0.046057	78.913
0.067314	95.6522
0.088571	100.435
0.102742	105.217
0.120456	105.217
0.13817	110
0.16297	114.783
0.198399	117.174
0.216113	119.565
0.258627	124.348
0.290512	126.739
0.343655	133.913
0.393254	136.304
0.446397	138.696
0.499539	148.261
0.549139	153.043
0.655424	165
0.761709	174.565
0.860908	187.717
0.96365	212.826
0.903422	200.87
0.860908	193.696
0.80068	188.913
0.754623	184.13
0.694395	179.348
0.648338	176.957
0.602281	172.174
0.595196	169.783
0.545596	165
0.495997	160.217
0.488911	160.217
0.439311	155.435
0.389712	150.652
0.333026	148.261
0.283427	143.478
0.251541	141.087
0.230284	138.696
0.216113	136.304
0.205484	136.304
0.194856	136.304
0.180684	133.913
0.155885	129.13
0.127542	129.13
0.109828	124.348
0.095656	124.348
0.088571	119.565
0.067314	114.783
0.0496	100.435
