Adsorption isotherm of Nitrogen on DCM - 1 M NaOH treatment
DOI: 10.1021/acs.chemmater.9b02718
Article source: Figure S8
Adsorbate Nitrogen: InChIKey IJGRMHOSHXDMSA-UHFFFAOYSA-N
Kind: experiment
Temperature: 77 K
Tabular data in the source: 0
pressure (bar)	uptake (cm3(STP)/g)
0	6.31579
0	14.7368
0	23.1579
0	31.5789
0	37.8947
0	50.5263
0.003619	54.7368
0.019903	70.5263
0.043425	80
0.0579	86.3158
0.075994	88.4211
0.094088	90.5263
0.112181	94.7368
0.137512	96.8421
0.1737	101.053
0.195413	103.158
0.235219	107.368
0.267788	111.579
0.322069	116.842
0.37635	122.105
0.427012	124.211
0.481294	130.526
0.535575	134.737
0.644137	143.158
0.749081	153.684
0.854025	166.316
0.95535	195.789
0.89745	178.947
0.854025	174.737
0.83955	170.526
0.794316	166.316
0.738225	160
0.689372	157.895
0.629662	149.474
0.582619	149.474
0.524719	145.263
0.481294	141.053
0.466819	140
0.419775	136.842
0.37635	136.842
0.361875	132.632
0.314831	130.526
0.264169	128.421
0.253312	126.316
0.227981	122.105
0.20265	124.211
0.191794	122.105
0.177319	120
0.166463	117.895
0.151987	117.895
0.126656	115.789
0.101325	111.579
0.083231	109.474
0.068756	109.474
0.0579	103.158
0.039806	101.053
0.021713	88.4211
