Adsorption isotherm of Nitrogen on DCE
DOI: 10.1021/acs.chemmater.9b02718
Article source: Figure 2
Adsorbate Nitrogen: InChIKey IJGRMHOSHXDMSA-UHFFFAOYSA-N
Kind: experiment
Temperature: 77 K
Tabular data in the source: 0
pressure (bar)	uptake (cm3(STP)/g)
0	3.5443
0	7.08861
0	12.4051
0	15.9494
0	24.8101
0	19.4937
0	30.1266
0	37.2152
0	44.3038
0	47.8481
0	54.9367
0	58.481
0	63.7975
0	69.1139
0	79.7468
0.002954	88.6076
0.002954	90.3797
0.002954	97.4684
0.002954	105.443
0.008862	124.051
0.01477	132.911
0.020679	136.456
0.038403	152.405
0.041357	155.949
0.059082	163.038
0.073852	164.81
0.091577	171.899
0.118163	175.443
0.138842	178.987
0.171337	184.304
0.218602	186.076
0.271776	191.392
0.324949	200.253
0.378122	203.797
0.43425	209.114
0.552413	217.975
0.655806	226.835
0.762153	235.696
0.865546	248.101
0.960077	274.684
0.898041	260.506
0.838959	253.418
0.78874	251.646
0.741474	246.329
0.685347	242.785
0.629219	242.785
0.573092	239.241
0.528781	233.924
0.472653	230.38
0.413571	225.063
0.378122	223.291
0.357444	219.747
0.316087	217.975
0.254051	212.658
0.228941	209.114
0.203832	207.342
0.187584	205.57
0.174291	202.025
0.162474	200.253
0.141796	200.253
0.12998	198.481
0.103393	194.937
0.085668	191.392
0.076806	189.62
0.06499	186.076
0.053173	180.759
0.041357	177.215
0.035449	173.671
0.020679	159.494
0.017724	154.177
