Adsorption isotherm of Nitrogen on DCM
DOI: 10.1021/acs.chemmater.9b02718
Article source: Figure 2
Adsorbate Nitrogen: InChIKey IJGRMHOSHXDMSA-UHFFFAOYSA-N
Kind: experiment
Temperature: 77 K
Tabular data in the source: 0
pressure (bar)	uptake (cm3(STP)/g)
0	6.4
0	16
0	25.6
0	33.6
0	43.2
0	49.6
0	54.4
0	59.2
0	65.6
0	72
0	78.4
0	86.4
0.002954	96
0.002954	104
0.002954	110.4
0.01477	131.2
0.017724	140.8
0.032495	153.6
0.038403	160
0.056128	164.8
0.073852	169.6
0.090099	172
0.110778	174.4
0.132934	177.6
0.153612	179.2
0.180199	182.4
0.212694	185.6
0.265867	188.8
0.321995	192
0.375168	196.8
0.425388	198.4
0.478561	200
0.534689	204.8
0.641036	208
0.744429	214.4
0.85373	224
0.954168	246.4
0.898041	238.4
0.847821	233.6
0.78874	230.4
0.744429	227.2
0.68387	225.6
0.635128	224
0.579	222.4
0.534689	220.8
0.516964	222.4
0.475607	219.2
0.428342	216
0.413571	217.6
0.366306	215.2
0.316087	212.8
0.307224	212.8
0.259959	211.2
0.22451	209.6
0.20974	206.4
0.186107	204.8
0.177245	204.8
0.15952	203.2
0.150658	203.2
0.135888	203.2
0.103393	198.4
0.085668	195.2
0.06499	192
0.053173	187.2
0.038403	182.4
0.029541	176
0.017724	166.4
0.017724	161.6
