Adsorption isotherm of Nitrogen on DCM - methanol treatment
DOI: 10.1021/acs.chemmater.9b02718
Article source: Figure S8
Adsorbate Nitrogen: InChIKey IJGRMHOSHXDMSA-UHFFFAOYSA-N
Kind: experiment
Temperature: 77 K
Tabular data in the source: 0
pressure (bar)	uptake (cm3(STP)/g)
0	6.94737
0.003645	11.5789
0.003645	16.2105
0.003645	20.8421
0.003645	23.1579
0.003645	27.7895
0.00729	34.7368
0.003645	39.3684
0.003645	44
0.003645	53.2632
0.003645	57.8947
0.003645	67.1579
0.00729	71.7895
0.00729	78.7368
0.00729	85.6842
0.018224	104.211
0.018224	111.158
0.036448	127.368
0.054672	134.316
0.072896	134.316
0.09112	136.632
0.112988	138.947
0.138502	145.895
0.153081	145.895
0.16766	145.895
0.193174	145.895
0.215042	148.211
0.236911	150.526
0.262424	150.526
0.324386	155.158
0.371768	155.158
0.430085	159.789
0.481112	162.105
0.528494	164.421
0.590455	166.737
0.688864	173.684
0.794563	178.316
0.903906	189.895
0.951289	208.421
0.896617	199.158
0.841945	194.526
0.801853	192.211
0.743536	187.579
0.685219	189.895
0.630548	189.895
0.590455	187.579
0.532138	187.579
0.470177	185.263
0.415505	182.947
0.371768	182.947
0.317096	180.632
0.255135	176
0.229621	176
0.204108	173.684
0.185884	173.684
0.171305	173.684
0.160371	173.684
0.142147	171.368
0.131212	169.053
0.098409	169.053
0.09112	166.737
0.072896	164.421
0.061961	159.789
0.051027	157.474
0.040093	155.158
0.029158	148.211
0.021869	138.947
