Adsorption isotherm of Nitrogen on DCM - boiling water treatment
DOI: 10.1021/acs.chemmater.9b02718
Article source: Figure S8
Adsorbate Nitrogen: InChIKey IJGRMHOSHXDMSA-UHFFFAOYSA-N
Kind: experiment
Temperature: 77 K
Tabular data in the source: 0
pressure (bar)	uptake (cm3(STP)/g)
0.028343	6.12245
0.031885	10.2041
0.028343	18.3673
0.028343	24.4898
0.031885	32.6531
0.031885	36.7347
0.031885	40.8163
0.031885	44.898
0.031885	53.0612
0.031885	61.2245
0.031885	69.3878
0.035428	77.551
0.046057	95.9184
0.0496	100
0.067314	118.367
0.085028	122.449
0.102742	122.449
0.116913	124.49
0.13817	128.571
0.166513	130.612
0.194856	132.653
0.216113	132.653
0.26217	134.694
0.290512	134.694
0.343655	138.776
0.393254	140.816
0.446397	144.898
0.499539	144.898
0.552682	146.939
0.658967	151.02
0.758166	155.102
0.860908	163.265
0.96365	179.592
0.903422	171.429
0.860908	167.347
0.85028	163.265
0.802451	161.224
0.758166	157.143
0.747538	161.224
0.701481	159.184
0.641253	159.184
0.598739	157.143
0.549139	155.102
0.53851	155.102
0.495997	155.102
0.435768	151.02
0.389712	151.02
0.343655	148.98
0.333026	148.98
0.286969	146.939
0.247998	146.939
0.235598	144.898
0.216113	142.857
0.198399	144.898
0.184227	142.857
0.173599	140.816
0.16297	140.816
0.141713	140.816
0.127542	140.816
0.113371	138.776
