Adsorption isotherm of Nitrogen on DCM - 9 M NaOH treament
DOI: 10.1021/acs.chemmater.9b02718
Article source: Figure S8
Adsorbate Nitrogen: InChIKey IJGRMHOSHXDMSA-UHFFFAOYSA-N
Kind: experiment
Temperature: 77 K
Tabular data in the source: 0
pressure (bar)	uptake (cm3(STP)/g)
0	4.26136
0	6.81818
0	12.7841
0	17.0455
0.003632	21.3068
0.018159	27.2727
0.043581	30.6818
0.058108	32.3864
0.072634	32.3864
0.090793	34.0909
0.116215	35.7955
0.141637	35.7955
0.174323	35.7955
0.192481	37.5
0.236062	38.3523
0.265116	39.2045
0.323223	40.9091
0.377699	41.7614
0.432175	44.3182
0.483019	45.1705
0.595602	46.875
0.69729	50.2841
0.806242	54.5455
0.911562	63.9205
0.958774	75
0.900667	67.3295
0.849823	64.7727
0.795347	62.2159
0.748134	61.3636
0.690027	60.5114
0.639183	60.5114
0.577444	58.8068
0.526599	58.8068
0.468492	58.8068
0.42128	57.1023
0.377699	57.9545
0.363172	57.9545
0.31596	57.9545
0.265116	56.25
0.225167	56.25
0.203376	56.25
0.192481	56.25
0.177954	56.25
0.167059	56.25
0.152532	56.25
0.141637	56.25
0.112583	55.3977
0.101688	55.3977
0.087161	54.5455
