Adsorption isotherm of Nitrogen on DCM - 12 M HCl treatment
DOI: 10.1021/acs.chemmater.9b02718
Article source: Figure S8
Adsorbate Nitrogen: InChIKey IJGRMHOSHXDMSA-UHFFFAOYSA-N
Kind: experiment
Temperature: 77 K
Tabular data in the source: 0
pressure (bar)	uptake (cm3(STP)/g)
0.028244	2.15054
0.030009	10.7527
0.028244	19.3548
0.028244	27.957
0.028244	36.5591
0.035305	45.1613
0.045896	62.3656
0.067079	75.2688
0.091793	81.7204
0.105915	86.0215
0.120037	86.0215
0.14122	88.172
0.169463	90.3226
0.197707	92.4731
0.240073	96.7742
0.296561	101.075
0.349518	105.376
0.402476	107.527
0.455433	113.978
0.571939	122.581
0.663732	126.882
0.773177	135.484
0.875561	148.387
0.967354	174.194
0.903805	154.839
0.854378	150.538
0.808482	146.237
0.755524	137.634
0.700802	135.484
0.646079	131.183
0.593122	131.183
0.543695	124.731
0.490738	122.581
0.43778	119.355
0.381293	116.129
0.328335	111.828
0.2895	109.677
0.275378	109.677
0.247134	105.376
0.229482	106.452
0.197707	105.376
0.187116	103.226
0.172994	103.226
0.155341	101.075
0.130628	98.9247
0.109445	96.7742
0.095323	94.6237
0.081201	90.3226
0.067079	88.172
0.049427	75.2688
