Adsorption isotherm of Nitrogen on Carbon
DOI: 10.1016/j.jcis.2004.05.047
Adsorbate Nitrogen: InChIKey IJGRMHOSHXDMSA-UHFFFAOYSA-N
Temperature: 77 K
Tabular data in the source: 0
pressure (bar)	uptake (cm3(STP)/g)
0.00400996	-0.249988
0.0127495	18.9769
0.0608167	27.7164
0.17443	36.4559
0.257455	43.4475
0.401657	53.9349
0.502161	64.4223
0.60922	76.6576
0.70317	87.145
0.753422	97.6324
0.827707	115.111
0.86922	137.834
0.899808	158.809
0.928212	185.027
0.947875	235.716
0.971909	363.313
0.982834	417.498
0.982834	517.128
0.995943	555.582
