Adsorption isotherm of Nitrogen on Carbon
DOI: 10.1016/j.jcis.2004.05.047
Adsorbate Nitrogen: InChIKey IJGRMHOSHXDMSA-UHFFFAOYSA-N
Temperature: 77 K
Tabular data in the source: 0
pressure (bar)	uptake (cm3(STP)/g)
0.00182509	4.99371
0.00182509	18.9769
0.0498923	31.2122
0.159136	38.2038
0.296783	46.9433
0.384178	46.9433
0.497791	55.6828
0.593926	69.666
0.69443	78.4055
0.792749	90.6408
0.849556	109.868
0.895439	139.582
0.917287	174.54
0.945691	214.742
0.967539	330.103
0.967539	384.288
0.982834	480.422
0.991573	508.389
