Adsorption isotherm of Nitrogen on Carbon
DOI: 10.1016/j.jcis.2004.05.047
Adsorbate Nitrogen: InChIKey IJGRMHOSHXDMSA-UHFFFAOYSA-N
Temperature: 77 K
Tabular data in the source: 0
pressure (bar)	uptake (cm3(STP)/g)
0.00400996	15.4811
0.00837971	41.6996
0.0630016	53.9349
0.132918	62.6744
0.246531	71.4139
0.347035	81.9013
0.497791	99.3803
0.644178	120.355
0.746867	139.582
0.814598	162.305
0.867035	186.775
0.912918	230.473
0.939136	298.641
0.969724	510.137
0.978464	660.456
0.985018	777.565
