Adsorption isotherm of Nitrogen on Carbon
DOI: 10.1016/j.jcis.2004.05.047
Adsorbate Nitrogen: InChIKey IJGRMHOSHXDMSA-UHFFFAOYSA-N
Temperature: 77 K
Tabular data in the source: 0
pressure (bar)	uptake (cm3(STP)/g)
0.00619484	6.74161
0.0564469	20.7248
0.113254	24.2206
0.176615	25.9685
0.248716	27.7164
0.305523	31.2122
0.35796	31.2122
0.445354	38.2038
0.548044	45.1954
0.644178	48.6912
0.751237	57.4307
0.827707	66.1702
0.87796	90.6408
0.921657	118.607
0.952245	164.053
0.965355	268.926
0.982834	330.103
0.985018	386.036
0.995943	417.498
