Adsorption isotherm of Nitrogen on Carbon
DOI: 10.1016/j.jcis.2004.05.047
Adsorbate Nitrogen: InChIKey IJGRMHOSHXDMSA-UHFFFAOYSA-N
Temperature: 77 K
Tabular data in the source: 0
pressure (bar)	uptake (cm3(STP)/g)
-0.00036	6.74161
0.00182509	31.2122
0.0258587	43.4475
0.132918	46.9433
0.248716	62.6744
0.342665	69.666
0.440985	78.4055
0.596111	97.6324
0.69443	111.616
0.799304	130.842
0.86922	164.053
0.917287	207.75
0.943506	260.187
0.967539	403.515
0.974094	433.229
0.982834	559.078
0.993758	581.8
