Adsorption isotherm of Nitrogen on Carbon
DOI: 10.1016/j.jcis.2004.05.047
Adsorbate Nitrogen: InChIKey IJGRMHOSHXDMSA-UHFFFAOYSA-N
Temperature: 77 K
Tabular data in the source: 0
pressure (bar)	uptake (cm3(STP)/g)
0.00400996	4.99371
0.0171192	38.2038
0.0542621	41.6996
0.180985	48.6912
0.305523	60.9265
0.406027	69.666
0.548044	87.145
0.6988	104.624
0.799304	120.355
0.856111	139.582
0.899808	172.792
0.923842	206.002
0.947875	254.943
0.974094	398.271
0.980649	457.7
0.987203	517.128
0.995943	557.33
