Adsorption isotherm of Nitrogen on TFPB-DHzDPr COF
DOI: 10.1038/s41467-018-04769-6
Article source: Figure 3
Adsorbate Nitrogen: InChIKey IJGRMHOSHXDMSA-UHFFFAOYSA-N
Kind: experiment
Temperature: 77 K
Tabular data in the source: 0
pressure (bar)	uptake (cm3(STP)/g)
-0.002309	6.42379
-0.001723	16.2206
-0.002349	25.0611
-0.002666	31.1539
-0.003588	36.0518
-0.002694	43.8177
-0.002403	49.9108
-0.000899	56.6017
0.002413	69.7448
0.002394	78.5856
0.002533	84.3202
0.004188	91.4891
0.005995	98.658
0.007954	105.588
0.014785	107.264
0.020853	110.372
0.02965	115.394
0.035411	120.175
0.043601	125.196
0.052098	128.545
0.059987	132.61
0.071821	137.872
0.082438	144.089
0.091234	149.827
0.102156	155.566
0.126129	165.612
0.151618	177.092
0.17589	189.766
0.200774	200.051
0.227783	210.814
0.251754	221.816
0.278002	233.774
0.301048	250.868
0.326325	289.945
0.334207	297.117
0.345742	300.467
0.352117	302.142
0.357883	304.056
0.367601	305.016
0.373366	307.886
0.379437	309.322
0.3849	311.475
0.387935	312.671
0.39674	314.108
0.407063	315.785
0.431355	319.379
0.457472	321.302
0.482675	324.658
0.506967	327.535
0.533388	329.458
0.559199	332.575
0.584404	334.975
0.609914	336.897
0.634509	340.492
0.661234	342.414
0.685832	344.336
0.710277	346.975
0.735637	348.18
0.76084	351.297
0.786349	353.459
0.810644	355.38
0.837673	357.303
0.862269	360.181
0.88808	363.298
0.912981	365.698
0.936965	370.726
0.961249	377.904
0.984607	391.534
0.99505	407.906
0.982453	404.436
0.961826	391.763
0.934814	382.194
0.907793	377.165
0.882285	374.048
0.857688	371.648
0.831268	369.487
0.806061	367.803
0.780551	366.12
0.755648	364.437
0.729225	363.231
0.704627	361.309
0.678812	360.103
0.653605	358.659
0.628094	357.215
0.602887	355.77
0.576769	354.326
0.552472	353.121
0.527267	350.96
0.511474	350.236
0.501149	349.515
0.491127	348.555
0.481712	348.073
0.475639	347.593
0.470172	347.352
0.460606	346.75
0.449825	345.909
0.439802	345.427
0.424012	343.509
0.41976	343.507
0.400932	341.827
0.390608	340.389
0.380889	340.146
0.374514	338.59
0.370262	338.23
0.364797	337.51
0.35994	336.075
0.350223	334.876
0.345972	334.157
0.339596	333.079
0.334734	333.914
0.328965	332.955
0.324109	331.52
0.300945	298.297
0.279875	280.129
0.252873	266.02
0.226778	254.062
0.201287	243.299
0.176101	232.297
0.150005	220.578
0.124215	207.665
0.100246	195.707
0.073851	181.838
0.053527	169.882
0.022897	148.126
0.009581	125.66
0.005947	120.64
0.004444	113.472
0.001435	100.329
