Adsorption isotherm of Nitrogen on TFOB-DHzDAII COF
DOI: 10.1038/s41467-018-04769-6
Article source: Figure 3
Adsorbate Nitrogen: InChIKey IJGRMHOSHXDMSA-UHFFFAOYSA-N
Kind: experiment
Temperature: 77 K
Tabular data in the source: 0
pressure (bar)	uptake (cm3(STP)/g)
-0.000243	0.680549
-0.000262	9.62644
0.000155	18.9166
0.000137	27.1744
0.000553	36.8086
0.004469	46.1002
0.008824	55.048
0.019745	61.2459
0.031538	68.4764
0.039841	71.9206
0.04902	74.6771
0.058198	78.1217
0.067811	82.2547
0.077861	86.7319
0.087474	91.2089
0.094028	94.3083
0.103642	98.0972
0.126368	106.365
0.15128	114.977
0.175314	124.965
0.201973	134.61
0.227326	141.847
0.252016	151.835
0.276706	161.824
0.300731	176.285
0.328232	201.07
0.335221	205.202
0.344399	208.302
0.351393	210.37
0.358385	213.125
0.366255	214.505
0.377186	216.23
0.388114	218.987
0.397292	222.432
0.407349	223.468
0.432273	226.919
0.457197	230.027
0.482561	231.758
0.507925	233.489
0.533726	235.564
0.558653	237.639
0.583579	239.714
0.610255	241.446
0.635182	243.177
0.660109	244.907
0.685035	247.327
0.709524	249.401
0.734451	251.132
0.760689	253.208
0.78693	254.251
0.811418	256.67
0.838094	258.746
0.862145	260.82
0.886632	263.583
0.911995	266.346
0.937793	269.798
0.963152	273.594
0.985002	282.549
0.995911	294.252
0.989783	296.314
0.982354	293.558
0.962693	283.572
0.935151	277.711
0.907165	274.602
0.882678	272.011
0.856876	270.108
0.831073	269.065
0.805709	267.334
0.781218	266.291
0.75454	265.248
0.729612	263.861
0.704247	262.474
0.678445	260.743
0.655264	260.389
0.627277	258.312
0.602349	256.926
0.577637	256.743
0.552492	254.84
0.526688	254.141
0.511819	253.103
0.501325	251.722
0.491267	251.029
0.481207	251.025
0.474646	251.022
0.469836	250.676
0.459558	250.328
0.450593	249.636
0.440534	249.288
0.425664	248.937
0.419979	248.591
0.399861	247.55
0.389805	246.17
0.38062	245.822
0.374936	245.131
0.369252	244.096
0.364444	242.718
0.35876	242.028
0.34914	240.647
0.34433	240.301
0.339084	238.923
0.333401	237.544
0.329902	237.542
0.324659	235.132
0.303251	224.112
0.281419	206.899
0.25477	192.781
0.227678	181.071
0.201456	171.254
0.175668	163.157
0.151196	153.513
0.125413	143.18
0.10138	132.504
0.076034	122.515
0.047632	109.428
0.024704	93.5909
0.008813	59.865
