Adsorption isotherm of Nitrogen on Tf-DHzDPr COF
DOI: 10.1038/s41467-018-04769-6
Article source: Figure 3
Adsorbate Nitrogen: InChIKey IJGRMHOSHXDMSA-UHFFFAOYSA-N
Kind: experiment
Temperature: 77 K
Tabular data in the source: 0
pressure (bar)	uptake (cm3(STP)/g)
-0.001495	13.1355
-0.001785	25.7284
-0.001548	37.7023
-0.001831	47.1986
-0.001857	59.1723
-0.001906	81.4682
-0.003502	91.3769
-0.002471	100.048
-0.003017	109.751
-0.003035	118.008
8.4e-05	131.635
0.000589	140.719
0.001622	148.564
0.002656	155.79
0.003953	162.81
0.0063	169.83
0.008382	177.675
0.020398	203.28
0.028755	221.863
0.039737	240.448
0.048621	258.206
0.059073	278.854
0.067957	296.612
0.080529	307.766
0.093637	313.965
0.10517	320.163
0.127196	328.843
0.153421	337.111
0.178602	342.49
0.204836	346.63
0.229497	349.943
0.255732	353.67
0.280919	356.571
0.305579	360.091
0.330419	362.824
0.337099	363.782
0.346208	365.22
0.356533	366.419
0.366553	367.857
0.374449	368.577
0.385075	370.732
0.396617	370.737
0.408157	371.697
0.432149	373.141
0.45705	375.302
0.482408	377.463
0.508675	380.341
0.53388	382.742
0.558478	384.902
0.583986	387.541
0.608889	389.225
0.634398	391.625
0.660211	393.786
0.686023	396.186
0.709103	398.108
0.73613	400.747
0.76179	403.506
0.785324	406.025
0.81144	408.425
0.836643	411.781
0.862148	415.615
0.887045	419.926
0.91194	425.433
0.938045	433.09
0.960492	446.719
0.983826	471.339
0.993794	496.432
0.98287	491.649
0.963184	465.596
0.937411	445.036
0.908579	434.511
0.882474	427.093
0.855755	422.303
0.830858	417.991
0.805351	414.874
0.781058	412.236
0.754943	409.357
0.730041	406.957
0.704228	404.796
0.679023	402.396
0.652603	400.473
0.627397	398.551
0.60219	396.868
0.577288	394.707
0.552386	392.785
0.526875	391.34
0.511083	390.139
0.500151	389.179
0.489826	387.98
0.482539	387.021
0.476466	386.062
0.470395	384.626
0.460371	384.622
0.450654	383.423
0.440026	382.224
0.425145	381.262
0.418315	379.586
0.399637	378.623
0.389617	377.185
0.380809	376.942
0.374735	376.462
0.368967	375.265
0.364411	375.263
0.358032	375.26
0.349834	373.823
0.344063	373.821
0.339204	373.58
0.33465	372.622
0.328577	371.902
0.322201	370.705
0.298211	368.306
0.272703	365.666
0.247803	362.789
0.223207	359.433
0.197701	355.838
0.171893	351.287
0.146997	346.737
0.123021	337.886
0.098136	328.079
0.073261	313.493
0.049356	272.147
0.021979	221.121
0.009462	180.496
