Adsorption isotherm of Nitrogen on Tf-DHzDAII COF
DOI: 10.1038/s41467-018-04769-6
Article source: Figure 3
Adsorbate Nitrogen: InChIKey IJGRMHOSHXDMSA-UHFFFAOYSA-N
Kind: experiment
Temperature: 77 K
Tabular data in the source: 0
pressure (bar)	uptake (cm3(STP)/g)
-0.000779	1.4067
-0.000513	18.8494
-0.001747	27.4507
-0.000548	34.8584
0.001819	63.7711
0.005443	73.3302
0.009675	82.4117
0.029364	107.509
0.053319	125.678
0.062096	140.496
0.070731	149.938
0.081189	159.619
0.092413	166.553
0.103643	170.142
0.127318	177.559
0.15373	183.783
0.177413	187.616
0.203827	192.645
0.229938	197.674
0.253619	202.463
0.304325	210.608
0.328614	215.397
0.336203	217.312
0.345919	218.988
0.352294	220.425
0.357151	222.099
0.366258	224.254
0.372633	225.69
0.377796	226.17
0.382653	227.606
0.387358	228.563
0.398138	230.002
0.407553	230.364
0.431845	233.6
0.456746	236
0.483319	237.923
0.507157	240.561
0.533271	243.678
0.558173	245.72
0.584289	248.479
0.608582	251.117
0.635304	254.474
0.660507	257.352
0.684792	264.052
0.709691	267.647
0.735806	270.286
0.760702	275.314
0.786817	278.073
0.812021	280.832
0.836922	283.71
0.860911	286.587
0.887936	289.705
0.912531	293.299
0.938645	296.655
0.96263	301.683
0.987521	308.623
0.998438	316.513
0.992968	317.944
0.983866	313.161
0.959585	305.027
0.933929	300.715
0.908272	296.404
0.883067	294.003
0.85756	291.125
0.832052	288.247
0.806544	285.369
0.780732	282.73
0.756135	280.33
0.730322	278.169
0.70451	275.53
0.679306	272.413
0.653797	270.252
0.628591	268.329
0.604297	266.169
0.578484	263.768
0.553583	261.607
0.528682	258.73
0.513497	258.245
0.502869	256.807
0.491933	257.28
0.482217	255.843
0.477358	255.602
0.472043	255.36
0.462475	255.595
0.451238	254.874
0.441215	254.631
0.427247	252.713
0.421173	252.472
0.401133	249.357
0.391114	247.441
0.381092	246.72
0.376538	245.763
0.371073	245.043
0.367429	244.325
0.361661	242.889
0.351033	241.929
0.34587	241.449
0.34071	240.013
0.335853	238.816
0.330387	238.097
0.325073	237.258
0.300627	235.217
0.274057	231.861
0.249309	228.983
0.224412	224.672
0.198299	220.838
0.173402	216.526
0.148203	211.02
0.121791	205.035
0.098718	200.247
0.073535	187.811
0.049299	158.889
0.023842	132.595
