Adsorption isotherm of Nitrogen on C5.33H8.67N3.17O2.25Zn
DOI: 10.1021/Ic802446m
Adsorbate Nitrogen: InChIKey IJGRMHOSHXDMSA-UHFFFAOYSA-N
Temperature: 77 K
Tabular data in the source: 0
pressure (bar)	uptake (cm3(STP)/g)
0.0689438	1.96536
0.166789	2.32052
0.218578	2.66096
0.267513	2.6766
0.313568	2.69133
0.371138	2.70973
0.420049	3.04925
0.466128	2.74009
0.517918	3.08053
0.566828	3.42005
0.624421	3.11458
0.670454	3.45318
0.719388	3.46882
0.774056	3.81018
0.820112	3.8249
0.87478	4.16626
0.923691	4.50579
