Adsorption isotherm of Carbon Dioxide on C5.33H8.67N3.17O2.25Zn
DOI: 10.1021/Ic802446m
Adsorbate Carbon Dioxide: InChIKey CURLTUGMZLYLDI-UHFFFAOYSA-N
Temperature: 195 K
Tabular data in the source: 0
pressure (bar)	uptake (cm3(STP)/g)
0.00273479	4.2114
0.00452292	34.6573
0.0129026	42.4333
0.0271609	47.2961
0.0559229	50.2203
0.0731848	51.8453
0.104833	54.7704
0.156666	58.3497
0.21142	60.9583
0.260401	63.565
0.303643	65.1983
0.352671	66.5095
0.407448	68.4703
0.453601	69.4567
0.508401	70.7698
0.560339	71.4342
0.60939	72.0976
0.661316	73.0859
0.70748	73.7484
0.759406	74.7367
0.811343	75.401
0.866168	76.0663
0.912332	76.7289
0.967156	77.3942
1.00465	78.3778
