Adsorption isotherm of Nitrogen on C4H6FN3Zn
DOI: 10.1021/Ic802446m
Adsorbate Nitrogen: InChIKey IJGRMHOSHXDMSA-UHFFFAOYSA-N
Temperature: 77 K
Tabular data in the source: 0
pressure (bar)	uptake (cm3(STP)/g)
0.00382989	6.67585
0.00390744	8.02587
0.00533772	2.92619
0.00699634	1.80155
0.00715143	4.50159
0.0159873	8.32855
0.0263354	8.48085
0.0676973	8.56503
0.0745989	8.71657
0.112501	8.57498
0.15731	8.65993
0.21073	8.67179
0.260713	8.83289
0.360665	8.93009
0.464055	8.87805
0.562283	8.97486
0.662235	9.07205
0.763902	9.01963
0.862122	8.96644
0.965538	9.36441
1.00347	9.74783
