Adsorption isotherm of Nitrogen on C5.33H8.67N3.17O2.25Zn
DOI: 10.1021/Ic802446m
Adsorbate Nitrogen: InChIKey IJGRMHOSHXDMSA-UHFFFAOYSA-N
Temperature: 195 K
Tabular data in the source: 0
pressure (bar)	uptake (cm3(STP)/g)
0.0115139	0.00368045
0.0345185	0.334921
0.0776026	1.64424
0.114976	2.30396
0.195481	3.62524
0.238611	4.2868
0.281742	4.94836
0.324873	5.60992
0.36227	5.94576
0.402545	6.28252
0.439942	6.61836
0.485974	6.95696
0.523395	6.96892
0.56367	7.30568
0.603946	7.64244
0.641343	7.97829
0.684497	8.31597
0.724749	8.97661
0.762169	8.98857
0.805346	9.00237
0.885944	9.02813
0.923341	9.36397
0.975107	10.0283
1.00963	10.3632
