Adsorption isotherm of Carbon Dioxide on C4H6FN3Zn
DOI: 10.1021/Ic802446m
Adsorbate Carbon Dioxide: InChIKey CURLTUGMZLYLDI-UHFFFAOYSA-N
Temperature: 195 K
Tabular data in the source: 0
pressure (bar)	uptake (cm3(STP)/g)
0.00533772	2.92619
0.00716435	4.72659
0.0370453	14.9332
0.0666117	19.6648
0.0857052	22.069
0.115091	23.6506
0.163462	25.7613
0.216986	27.5732
0.273908	28.5608
0.317015	29.0204
0.367011	29.4065
0.418729	29.793
0.470452	30.2545
0.52563	30.8667
0.566988	30.8759
0.625599	31.2639
0.673859	31.4246
0.725569	31.6611
0.778998	31.823
0.828984	32.0591
0.878963	32.1452
0.927213	32.1559
0.97203	32.3908
1.01511	32.4004
