Adsorption isotherm of Methane on ZNJU-60a
DOI: 10.1039/c5ce00930h
Article source: Figure 2b
Adsorbate Methane: InChIKey VNWKTOKETHGBQD-UHFFFAOYSA-N
Kind: experiment
Temperature: 283 K
Tabular data in the source: 0
pressure (bar)	uptake (cm3(STP)/g)
0	0
0.018039	1.04651
0.029314	1.04651
0.060883	1.04651
0.067648	1.9186
0.090197	1.74419
0.099217	2.7907
0.121766	2.61628
0.130786	3.48837
0.153335	3.31395
0.1601	4.18605
0.184903	4.01163
0.189414	5.05814
0.218727	4.7093
0.220983	5.75581
0.245786	5.23256
0.252551	6.10465
0.27961	5.93023
0.28863	6.80233
0.315689	6.45349
0.320199	7.32558
0.345004	6.97674
0.351768	7.84884
0.378828	8.54651
0.408141	8.37209
0.412651	9.06977
0.439711	8.72093
0.444219	9.59302
0.471279	9.94186
0.473534	9.4186
0.502848	9.94186
0.507358	10.814
0.534417	11.1628
0.568241	10.814
0.599809	12.2093
0.626868	11.686
0.631379	12.5581
0.653928	12.3837
0.660692	13.0814
0.687751	13.0814
0.723831	13.7791
0.755399	14.1279
0.784714	14.6512
0.816282	15
0.847852	15.5233
0.87942	16.0465
0.910989	16.0465
0.958343	16.9186
0.974127	17.093
0.985402	17.093
1.01246	17.4419
1.03726	17.6163
1.06658	18.1395
