Adsorption isotherm of Methane on ZNJU-60a
DOI: 10.1039/c5ce00930h
Article source: Figure 2a
Adsorbate Methane: InChIKey VNWKTOKETHGBQD-UHFFFAOYSA-N
Kind: experiment
Temperature: 296 K
Tabular data in the source: 0
pressure (bar)	uptake (cm3(STP)/g)
0	0
0.038941	0.826446
0.066394	0.495868
0.068702	0.991736
0.091583	0.826446
0.098475	1.4876
0.123645	1.32231
0.128248	1.98347
0.155707	1.81818
0.160316	2.64463
0.185474	2.14876
0.190083	2.97521
0.217543	2.80992
0.219857	3.47107
0.251901	3.47107
0.254195	3.63636
0.286238	3.63636
0.28627	4.46281
0.32059	4.13223
0.320614	4.79339
0.345772	4.29752
0.35267	5.12397
0.377828	4.6281
0.382443	5.61983
0.409884	4.95868
0.414493	5.78512
0.441952	5.61983
0.444266	6.28099
0.471713	5.78512
0.471744	6.61157
0.506057	6.1157
0.508384	7.10744
0.533541	6.61157
0.535856	7.27273
0.565597	6.94215
0.567912	7.60331
0.597654	7.27273
0.597679	7.93388
0.661784	8.42975
0.693839	8.76033
0.723612	9.2562
0.785429	9.75207
0.817478	9.91736
0.847245	10.2479
0.881583	10.4132
0.91364	10.7438
0.938829	11.0744
0.950273	11.0744
0.968596	11.405
0.984618	11.405
1.00293	11.5702
1.01438	11.5702
1.03041	11.7355
1.06475	12.0661
