Adsorption isotherm of Carbon Dioxide on ZNJU-60a
DOI: 10.1039/c5ce00930h
Article source: Figure 2a
Adsorbate Carbon Dioxide: InChIKey CURLTUGMZLYLDI-UHFFFAOYSA-N
Kind: experiment
Temperature: 296 K
Tabular data in the source: 0
pressure (bar)	uptake (cm3(STP)/g)
0	0
0.002358	1.81818
0.006974	2.80992
0.013878	3.80165
0.020763	4.29752
0.034414	2.14876
0.036829	5.45455
0.057371	3.96694
0.066659	7.43802
0.091779	5.95041
0.0942	9.42149
0.126186	7.93388
0.126319	11.405
0.15601	9.75207
0.158431	13.2231
0.183552	11.7355
0.190544	15.0413
0.217939	13.2231
0.220362	16.6942
0.252335	14.876
0.254756	18.3471
0.282146	16.3636
0.286856	19.8347
0.314239	17.686
0.318956	21.3223
0.346333	19.0083
0.351043	22.4793
0.376144	20.4959
0.383136	23.8017
0.410533	21.9835
0.415225	24.9587
0.442621	23.1405
0.445022	26.1157
0.472418	24.2975
0.474828	27.438
0.504512	25.6198
0.509197	28.4298
0.536587	26.4463
0.538989	29.4215
0.566385	27.6033
0.57107	30.4132
0.593883	28.4298
0.603145	31.2397
0.628252	29.4215
0.632931	32.0661
0.660428	32.8926
0.662623	30.4132
0.692402	31.0744
0.692496	33.5537
0.724483	32.0661
0.726866	34.5455
0.754269	32.8926
0.754345	34.876
0.786337	33.5537
0.786419	35.7025
0.816122	34.3802
0.818481	36.1983
0.845914	35.3719
0.852833	36.6942
0.87804	37.5207
0.880266	35.8678
0.912334	36.5289
0.912385	37.8512
0.944402	37.1901
0.946742	38.5124
0.955897	38.5124
0.974183	37.8512
0.990241	38.843
1.00626	38.6777
1.01542	39.0083
1.03603	39.1736
1.07039	39.8347
