Adsorption isotherm of Carbon Dioxide on ZNJU-60a
DOI: 10.1039/c5ce00930h
Article source: Figure 2b
Adsorbate Carbon Dioxide: InChIKey CURLTUGMZLYLDI-UHFFFAOYSA-N
Kind: experiment
Temperature: 283 K
Tabular data in the source: 0
pressure (bar)	uptake (cm3(STP)/g)
0	0
0.00451	2.61628
0.01353	3.66279
0.018039	5.05814
0.029314	3.66279
0.036079	6.97674
0.060883	7.5
0.069903	10.4651
0.092452	10.4651
0.096962	13.6047
0.124021	13.2558
0.128531	16.2209
0.15108	16.2209
0.1601	19.186
0.182649	18.4884
0.189414	21.4535
0.216473	21.1047
0.220983	23.5465
0.248042	23.0233
0.250297	25.9884
0.284121	25.2907
0.286375	28.0814
0.317945	30.1744
0.345004	28.7791
0.347258	31.9186
0.372063	30.5233
0.378828	33.314
0.405887	32.2674
0.410396	35.0581
0.439711	33.6628
0.441965	36.4535
0.471279	35.0581
0.475789	38.0233
0.502848	36.6279
0.507358	39.0698
0.529907	37.8488
0.536672	40.4651
0.563731	38.8953
0.568241	41.3372
0.5953	40.1163
0.599809	42.3837
0.626868	41.1628
0.629124	43.4302
0.658438	42.2093
0.662948	44.3023
0.687751	42.907
0.692262	45.1744
0.721575	43.9535
0.755399	46.7442
0.782458	45.6977
0.784714	47.2674
0.811772	46.5698
0.818537	47.9651
0.845596	47.2674
0.847852	48.8372
0.877165	47.7907
0.87942	49.0116
0.908735	48.4884
0.910989	49.7093
0.933538	50.407
0.942558	49.3605
0.951578	50.5814
0.969618	50.0581
0.976382	50.5814
1.0057	50.9302
1.03501	51.2791
1.06658	51.6279
