Adsorption isotherm of Ethane on ZNJU-60a
DOI: 10.1039/c5ce00930h
Article source: Figure 2a
Adsorbate Ethane: InChIKey OTMSDBZUPAUEDD-UHFFFAOYSA-N
Kind: experiment
Temperature: 296 K
Tabular data in the source: 0
pressure (bar)	uptake (cm3(STP)/g)
0	0
0.020795	5.12397
0.036942	8.42975
0.062251	11.9008
0.066955	15.2066
0.094515	17.686
0.096911	20.4959
0.124446	22.314
0.13142	25.124
0.161212	26.1157
0.161313	28.7603
0.186515	29.4215
0.191187	31.9008
0.220972	32.7273
0.223324	34.3802
0.253117	35.3719
0.255456	36.6942
0.285223	37.0248
0.287575	38.6777
0.312745	38.5124
0.319682	40.3306
0.347146	40.3306
0.35407	41.8182
0.379234	41.4876
0.383868	42.9752
0.411316	42.4793
0.41595	43.9669
0.438825	43.6364
0.44803	44.9587
0.475484	44.6281
0.477817	45.7851
0.502973	45.2893
0.505306	46.4463
0.535048	46.1157
0.539664	47.1074
0.571688	46.6116
0.571733	47.7686
0.601468	47.2727
0.601505	48.2645
0.633524	47.6033
0.633568	48.7603
0.658719	48.0992
0.663335	49.0909
0.695352	48.4298
0.695391	49.4215
0.725119	48.7603
0.727447	49.7521
0.754893	49.2562
0.759496	49.9174
0.789238	49.5868
0.791551	50.2479
0.818998	49.7521
0.8236	50.4132
0.851066	50.4132
0.880833	50.7438
0.915165	50.7438
0.944926	50.9091
0.956369	50.9091
0.976962	50.7438
0.986124	50.9091
0.997569	50.9091
1.01817	50.9091
1.04106	50.9091
1.06853	51.0744
