Adsorption isotherm of Ethane on ZNJU-60a
DOI: 10.1039/c5ce00930h
Article source: Figure 2b
Adsorbate Ethane: InChIKey OTMSDBZUPAUEDD-UHFFFAOYSA-N
Kind: experiment
Temperature: 283 K
Tabular data in the source: 0
pressure (bar)	uptake (cm3(STP)/g)
0	0
0.011275	5.5814
0.015784	8.72093
0.036079	15
0.065393	24.7674
0.099217	31.3953
0.130786	35.9302
0.157844	39.593
0.189414	42.2093
0.220983	44.3023
0.252551	46.2209
0.286375	47.6163
0.322453	49.0116
0.349513	49.8837
0.381082	50.7558
0.410396	51.4535
0.444219	52.1512
0.475789	52.8488
0.505102	53.3721
0.536672	53.7209
0.565985	54.2442
0.597555	54.4186
0.629124	54.9419
0.660692	55.1163
0.694516	55.1163
0.721575	55.2907
0.755399	55.4651
0.784714	55.6395
0.802753	55.9884
0.818537	55.6395
0.850106	55.6395
0.87942	55.9884
0.890695	55.9884
0.906479	55.6395
0.926773	55.9884
0.951578	55.814
0.965107	55.814
0.983147	55.814
1.00344	55.9884
1.01471	55.9884
1.05305	56.1628
1.08687	55.9884
