Adsorption isotherm of Water on ZIF-8
DOI: 10.1021/ic200937u
Adsorbate Water: InChIKey XLYOFNOQVPJJNP-UHFFFAOYSA-N
Temperature: 298 K
Tabular data in the source: 0
pressure (bar)	uptake (cm3(STP)/g)
0.000373271	5.68e-14
0.00155552	1.42349
0.00317281	5.68e-14
0.00472832	1.42349
0.0062834	5.68e-14
0.00783914	2.84698
0.00939422	1.42349
0.0108877	4.27046
0.012542	1.99887
0.0130387	0.592885
0.0130649	2.84698
0.0142472	4.27046
0.0154601	2.13156
0.0156158	4.27046
0.0166398	2.18521
0.0179177	4.27046
0.0184404	5.12422
0.0188511	5.69395
0.0201789	6.63185
0.0212776	7.11744
0.0219174	8.13947
0.022273	7.11744
0.0231592	8.19593
0.0238909	9.96441
0.0250218	12.5663
0.0251976	11.3879
0.0265741	16.9226
0.0268777	14.2349
0.0281884	25.5675
0.0284964	21.3523
0.029869	46.9751
0.029989	105.649
0.0306719	154.252
