Adsorption isotherm of Water on C62H44N2O8Zn2
DOI: 10.1021/ic200937u
Adsorbate Water: InChIKey XLYOFNOQVPJJNP-UHFFFAOYSA-N
Temperature: 298 K
Tabular data in the source: 0
pressure (bar)	uptake (cm3(STP)/g)
0.00162194	28.4698
0.00168061	5.69395
0.00324055	35.5872
0.00329878	9.96441
0.00473076	17.0819
0.00479696	42.7046
0.00629115	49.8221
0.00647402	25.6228
0.00771937	32.7402
0.00784755	56.9395
0.00940041	41.2811
0.00946617	64.0569
0.0108357	69.7509
0.0110195	51.2456
0.0127005	59.7865
0.0127036	79.7153
0.0139492	88.2562
0.0142571	68.3274
0.0158169	96.7972
0.0159384	78.2918
0.0173082	85.4093
0.0173733	103.915
0.0189266	91.1032
0.0190541	111.032
0.0206103	116.726
0.0207318	98.2206
0.021977	103.915
0.0219798	122.42
0.0235365	130.961
0.0238442	109.609
0.0250931	139.502
0.0254626	115.302
0.0264009	148.043
0.0268324	122.42
0.0283272	133.808
0.0284589	180.783
0.0297663	186.477
0.0299193	370.107
0.0305403	362.989
