Adsorption isotherm of Carbon Dioxide on C31H22NO4Zn
DOI: 10.1021/ic200937u
Adsorbate Carbon Dioxide: InChIKey CURLTUGMZLYLDI-UHFFFAOYSA-N
Temperature: 273 K
Tabular data in the source: 0
pressure (bar)	uptake (cm3(STP)/g)
0.00379507	1.14396
0.0151803	2.28356
0.0246679	3.99732
0.028463	3.99515
0.0436433	6.27871
0.0626186	5.69477
0.0740038	7.40745
0.0796964	8.55032
0.0967742	7.96746
0.121442	9.67253
0.129032	11.9604
0.172676	10.7893
0.180266	14.2233
0.222011	13.6264
0.229602	15.9143
0.275142	15.3151
0.280835	17.6041
0.326376	17.0049
0.332068	18.7209
0.375712	18.6959
0.381404	20.4118
0.428843	19.2385
0.43074	21.5297
0.478178	21.5025
0.483871	23.7915
0.529412	22.6192
0.535104	24.3352
0.580645	23.736
0.58444	25.453
0.629981	24.2808
0.633776	26.5709
0.679317	25.9717
0.685009	27.1146
0.732448	27.0874
0.736243	28.8044
0.781784	27.6322
0.787476	28.7751
0.833017	28.749
0.836812	29.3199
0.88425	30.4388
0.933586	30.4106
