Adsorption isotherm of Nitrogen on C31H22NO4Zn
DOI: 10.1021/ic200937u
Adsorbate Nitrogen: InChIKey IJGRMHOSHXDMSA-UHFFFAOYSA-N
Temperature: 77 K
Tabular data in the source: 0
pressure (bar)	uptake (cm3(STP)/g)
2.78e-17	2.78e-17
2.78e-17	17.3554
0.00184349	11.5702
0.00184349	201.653
0.00368698	29.7521
0.00368698	214.876
0.00921746	35.5372
0.00921746	219.008
0.0110609	50.4132
0.0129044	40.4959
0.0147479	108.264
0.0165914	140.496
0.0184349	171.074
0.0184349	226.446
0.0258089	233.884
0.0313394	212.397
0.0368698	238.017
0.0497743	228.099
0.0516178	240.496
0.0608352	241.322
0.0700527	242.149
0.0755831	234.711
0.0848006	238.017
0.0866441	243.802
0.0995485	240.496
0.106923	241.322
0.132731	244.628
0.132731	247.107
0.15854	245.455
0.184349	248.76
0.204628	247.934
0.230436	251.24
0.27468	252.066
0.280211	252.066
0.326298	254.545
0.329985	253.719
0.372385	256.198
0.377916	256.198
0.42216	257.851
0.42769	257.851
0.471934	260.331
0.473777	261.157
0.495899	261.157
0.523552	262.81
0.545673	261.983
0.573326	264.463
0.593604	264.463
0.6231	266.116
0.643379	265.289
0.671031	266.942
0.693153	267.769
0.717118	267.769
0.73924	269.421
0.766892	270.248
0.789014	270.248
0.814823	272.727
0.835102	272.727
0.866441	274.38
0.883032	274.38
0.921746	277.686
0.932807	279.339
0.953085	284.298
