Adsorption isotherm of Hydrogen on C31H22NO4Zn
DOI: 10.1021/ic200937u
Adsorbate Hydrogen: InChIKey UFHFLCQGNIYNRP-UHFFFAOYSA-N
Temperature: 77 K
Tabular data in the source: 0
pressure (bar)	uptake (wt%)
0.00466926	0.0086163
0.0583658	0.405545
0.0957198	0.536948
0.102724	0.560782
0.193774	0.734095
0.203113	0.741715
0.305837	0.858023
0.308171	0.862201
0.396887	0.917585
0.415564	0.935196
0.50428	0.981331
0.513619	0.986642
0.597665	1.01937
0.616342	1.02512
0.714397	1.05294
0.719066	1.05928
0.807782	1.07378
0.817121	1.0762
0.903502	1.0903
0.926848	1.1017
1.01556	1.111
