Adsorption isotherm of Carbon Dioxide on C31H22NO4Zn
DOI: 10.1021/ic200937u
Adsorbate Carbon Dioxide: InChIKey CURLTUGMZLYLDI-UHFFFAOYSA-N
Temperature: 195 K
Tabular data in the source: 0
pressure (bar)	uptake (cm3(STP)/g)
0.0056926	32.0884
0.00948767	38.39
0.0151803	43.5443
0.0189753	96.2642
0.0227704	116.319
0.028463	160.442
0.0493359	161.576
0.0550285	165.011
0.0721063	165.002
0.0910816	166.71
0.0986717	166.133
0.12334	166.691
0.13852	167.829
0.172676	168.382
0.187856	168.374
0.223909	168.353
0.233397	170.067
0.275142	168.897
0.3074	176.901
0.324478	169.442
0.341556	185.478
0.377609	169.411
0.404175	193.465
0.428843	169.955
0.451613	194.011
0.478178	169.927
0.500949	195.128
0.529412	170.47
0.548387	195.674
0.57685	172.162
0.595825	195.647
0.622391	176.721
0.643264	196.193
0.669829	181.851
0.6926	196.738
0.721063	186.979
0.741935	196.709
0.777989	190.385
0.789374	196.682
0.829222	192.648
0.836812	196.655
0.880455	194.338
0.931689	196.601
