Adsorption isotherm of Nitrogen on CD-COF-2
DOI: 10.1021/jacs.9b10007
Article source: Figure 1d
Adsorbate Nitrogen: InChIKey IJGRMHOSHXDMSA-UHFFFAOYSA-N
Kind: experiment
Temperature: 77 K
Tabular data in the source: 0
pressure (bar)	uptake (cm3(STP)/g)
0.000685	13.8678
0.00267	20.8096
0.002811	31.9205
0.002952	43.0314
0.004972	52.7509
0.005095	62.4729
0.005323	80.5282
0.005481	93.0279
0.011297	102.742
0.051424	124.909
0.087616	135.971
0.121963	151.202
0.16007	163.649
0.201866	167.759
0.230469	178.831
0.278028	188.488
0.314026	184.272
0.340538	180.069
0.391821	184.165
0.437342	182.714
0.458196	181.296
0.484761	181.26
0.537906	182.576
0.58536	183.9
0.613786	181.083
0.65553	181.026
0.680179	179.603
0.706761	180.956
0.74471	180.904
0.784556	180.849
0.81112	180.813
0.843377	180.768
0.888827	173.762
0.924896	175.101
0.945838	180.628
0.989532	184.735
1.01051	193.039
0.061298	155.451
0.095452	155.405
0.118414	170.651
0.162284	188.646
0.198405	194.152
0.238375	203.82
0.268734	203.778
0.299128	206.514
0.314307	206.493
0.350359	206.444
0.395897	206.382
0.418684	207.739
0.44711	204.923
0.473675	204.886
0.511606	203.445
0.553349	203.388
0.593161	200.556
0.633024	201.89
0.672853	200.446
0.710784	199.006
0.746871	201.734
0.784767	197.515
0.815143	198.863
0.853092	198.811
0.894836	198.753
0.917587	197.333
0.961193	194.496
1.01436	197.201
