Adsorption isotherm of Nitrogen on CD-COF-1
DOI: 10.1021/jacs.9b10007
Article source: Figure 1c
Adsorbate Nitrogen: InChIKey IJGRMHOSHXDMSA-UHFFFAOYSA-N
Kind: experiment
Temperature: 77 K
Tabular data in the source: 0
pressure (bar)	uptake (cm3(STP)/g)
0.003935	6.94694
0.001967	15.3217
0.001967	25.0892
0.001967	30.6706
0.005902	37.6419
0.003935	48.8074
0.003935	62.7609
0.003935	72.5283
0.005902	82.2931
0.009837	92.0551
0.047219	125.492
0.098374	140.77
0.125918	150.5
0.161333	164.405
0.188878	175.529
0.230195	183.845
0.263642	183.799
0.304959	186.532
0.336438	187.884
0.369885	187.838
0.424975	189.158
0.462357	190.502
0.485967	186.283
0.513511	187.641
0.566633	186.172
0.602048	184.728
0.63943	184.676
0.668942	186.031
0.700421	181.802
0.745673	181.739
0.781088	181.691
0.816502	181.642
0.84995	180.201
0.887332	178.754
0.920779	180.103
0.954226	180.057
0.975868	181.422
1.00538	193.94
0.051154	146.417
0.082634	157.536
0.118049	168.65
0.159366	183.942
0.19478	193.661
0.22626	206.176
0.242	206.154
0.283317	201.911
0.320699	200.464
0.352178	201.816
0.38956	201.765
0.442682	200.296
0.480064	200.245
0.495804	201.618
0.529251	201.572
0.5686	200.123
0.60008	202.87
0.643365	195.834
0.670909	197.191
0.706324	195.747
0.745673	191.507
0.775185	191.466
0.812567	192.81
0.846015	188.578
0.877494	191.325
0.922746	187.077
0.958161	191.214
1.00538	195.335
