Adsorption isotherm of Nitrogen on COF-1
DOI: 10.1021/jacs.9b10007
Article source: Figure 1c
Adsorbate Nitrogen: InChIKey IJGRMHOSHXDMSA-UHFFFAOYSA-N
Kind: experiment
Temperature: 77 K
Tabular data in the source: 0
pressure (bar)	uptake (cm3(STP)/g)
0.001967	37.6527
0.003935	51.6089
0.001967	65.5597
0	76.7198
0.005902	83.6884
0.00787	103.221
0.00787	94.8485
0.003935	19.5159
0.094439	160.311
0.114114	172.842
0.157398	190.922
0.192813	209.012
0.230195	228.496
0.271512	239.602
0.302991	240.954
0.336438	242.303
0.37382	242.252
0.4053	242.208
0.442682	240.761
0.470227	243.514
0.513511	244.85
0.554828	244.793
0.586308	247.54
0.617787	247.497
0.659104	251.626
0.690584	252.978
0.727966	254.322
0.755511	255.679
0.792893	252.837
0.830275	255.576
0.865689	258.318
0.903071	256.872
0.932583	261.017
0.975868	260.957
1.00932	269.283
0.051154	171.533
0.092471	191.011
0.121983	200.738
0.161333	218.823
0.204617	238.298
0.222325	261.995
0.265609	263.331
0.304959	260.486
0.330536	260.451
0.367918	263.19
0.399398	267.333
0.442682	263.087
0.476129	263.041
0.491869	263.019
0.531218	265.756
0.562698	271.294
0.60008	268.452
0.633527	268.406
0.672877	268.351
0.708291	268.303
0.737803	266.867
0.775185	266.815
0.808633	265.374
0.847982	265.319
0.887332	265.265
0.918811	266.617
0.954226	266.569
1.00538	266.498
