Adsorption isotherm of Nitrogen on COF-2
DOI: 10.1021/jacs.9b10007
Article source: Figure 1d
Adsorbate Nitrogen: InChIKey IJGRMHOSHXDMSA-UHFFFAOYSA-N
Kind: experiment
Temperature: 77 K
Tabular data in the source: 0
pressure (bar)	uptake (cm3(STP)/g)
0.002547	11.0875
0.006571	29.1376
0.008644	43.0236
0.00882	56.9122
0.009013	72.1898
0.011121	88.8535
0.011279	101.353
0.007678	116.636
0.011666	131.908
0.057608	163.79
0.090093	181.801
0.118801	201.206
0.160703	213.648
0.18934	227.498
0.223687	242.729
0.263691	255.174
0.313148	264.828
0.353029	267.552
0.400483	268.875
0.427047	268.839
0.440329	268.821
0.485885	270.147
0.533268	265.916
0.563645	267.263
0.588347	270.007
0.62438	268.568
0.679406	268.493
0.690843	272.644
0.72115	268.436
0.789493	271.12
0.817972	272.47
0.835084	275.224
0.878708	273.775
0.907222	277.903
0.947138	283.404
0.975653	287.531
0.055939	181.848
0.092237	201.242
0.120874	215.092
0.157118	230.32
0.199073	246.929
0.24108	267.705
0.284915	282.923
0.309511	277.333
0.341803	280.067
0.356982	280.046
0.394948	281.383
0.446197	282.702
0.484198	286.816
0.506985	288.174
0.542966	282.569
0.57719	288.078
0.609429	286.645
0.647378	286.592
0.689192	292.091
0.738473	287.857
0.759309	285.05
0.770729	287.812
0.850474	291.87
0.878971	294.608
0.905588	298.739
0.937809	295.917
0.968256	302.819
1.00434	305.548
