Adsorption isotherm of Methane on Sorbonorit-4
DOI: 10.1021/acs.jced.1c00904
Article source: AIF Supplementary Data
Adsorbate Methane: InChIKey VNWKTOKETHGBQD-UHFFFAOYSA-N
Kind: experiment
Isotherm type: excess
Temperature: 333 K
Tabular data in the source: 0
pressure (bar)	uptake (mmol/g)
0.00109	0.003
0.00237	0.006
0.00442	0.012
0.00725	0.018
0.01032	0.025
0.0135	0.031
0.0276	0.057
0.0407	0.077
0.0599	0.101
0.1072	0.139
0.1385	0.167
0.1851	0.199
0.245	0.243
0.2993	0.276
0.3658	0.316
0.4333	0.359
0.4994	0.397
0.586	0.446
0.6763	0.494
0.7675	0.541
0.8464	0.584
0.9487	0.633
1.0509	0.676
1.1397	0.72
