Adsorption isotherm of Methane on Sorbonorit-4
DOI: 10.1021/acs.jced.1c00904
Article source: AIF Supplementary Data
Adsorbate Methane: InChIKey VNWKTOKETHGBQD-UHFFFAOYSA-N
Kind: experiment
Isotherm type: excess
Temperature: 293 K
Tabular data in the source: 0
pressure (bar)	uptake (mmol/g)
0.00074	0.0035
0.00096	0.0046
0.00208	0.01
0.00405	0.015
0.00684	0.023
0.0101	0.033
0.0141	0.047
0.0274	0.082
0.0407	0.111
0.0599	0.149
0.0924	0.213
0.1384	0.292
0.1843	0.372
0.2446	0.462
0.2984	0.541
0.3653	0.631
0.4327	0.712
0.4988	0.789
0.5855	0.881
0.6777	0.975
0.7698	1.066
0.8466	1.138
0.9503	1.229
1.0509	1.316
1.1253	1.377
