Adsorption isotherm of Methane on Sorbonorit-4
DOI: 10.1021/acs.jced.1c00904
Article source: AIF Supplementary Data
Adsorbate Methane: InChIKey VNWKTOKETHGBQD-UHFFFAOYSA-N
Kind: experiment
Isotherm type: excess
Temperature: 243 K
Tabular data in the source: 0
pressure (bar)	uptake (mmol/g)
0.00097	0.016
0.00191	0.027
0.00407	0.058
0.00692	0.096
0.01028	0.134
0.0134	0.173
0.0285	0.306
0.0413	0.412
0.0607	0.555
0.0924	0.755
0.1392	0.992
0.1857	1.179
0.2458	1.393
0.2999	1.565
0.3658	1.752
0.4379	1.924
0.5052	2.078
0.5918	2.258
0.6817	2.426
0.7694	2.566
0.8538	2.698
0.9576	2.857
1.1457	3.14
