Adsorption isotherm of Methane on Sorbonorit-4
DOI: 10.1021/acs.jced.1c00904
Article source: AIF Supplementary Data
Adsorbate Methane: InChIKey VNWKTOKETHGBQD-UHFFFAOYSA-N
Kind: experiment
Isotherm type: excess
Temperature: 393 K
Tabular data in the source: 0
pressure (bar)	uptake (mmol/g)
0.00051	0.0007
0.00194	0.0016
0.0039	0.0024
0.00625	0.0038
0.00908	0.0067
0.012	0.0085
0.0276	0.013
0.0406	0.019
0.0615	0.03
0.0927	0.04
0.1387	0.048
0.1852	0.061
0.2457	0.075
0.2996	0.088
0.3664	0.106
0.4347	0.116
0.5002	0.133
0.5872	0.151
0.6804	0.173
0.7698	0.188
0.8473	0.21
0.9514	0.234
1.0607	0.261
1.1447	0.272
