Adsorption isotherm of Methane on Sorbonorit-4
DOI: 10.1021/acs.jced.1c00904
Article source: AIF Supplementary Data
Adsorbate Methane: InChIKey VNWKTOKETHGBQD-UHFFFAOYSA-N
Kind: experiment
Isotherm type: excess
Temperature: 213 K
Tabular data in the source: 0
pressure (bar)	uptake (mmol/g)
0.00084	0.061
0.0023	0.143
0.00412	0.227
0.00689	0.333
0.01011	0.447
0.0134	0.541
0.0268	0.853
0.0395	1.081
0.0594	1.383
0.0912	1.749
0.1377	2.151
0.1825	2.45
0.2456	2.75
0.2973	2.999
0.3647	3.282
0.4321	3.534
0.4994	3.764
0.5859	4.021
0.6786	4.269
0.768	4.472
0.8473	4.644
0.9526	4.836
1.0525	5.008
1.1262	5.126
