Adsorption isotherm of Methane on Sorbonorit-4
DOI: 10.1021/acs.jced.1c00904
Article source: AIF Supplementary Data
Adsorbate Methane: InChIKey VNWKTOKETHGBQD-UHFFFAOYSA-N
Kind: experiment
Isotherm type: excess
Temperature: 273 K
Tabular data in the source: 0
pressure (bar)	uptake (mmol/g)
0.00013	0.003
0.00081	0.009
0.00221	0.021
0.00422	0.036
0.0069	0.055
0.0102	0.077
0.0158	0.103
0.0286	0.156
0.0416	0.206
0.0611	0.28
0.0938	0.38
0.1397	0.502
0.1862	0.617
0.2468	0.743
0.3004	0.852
0.3673	0.97
0.4345	1.08
0.5017	1.182
0.5872	1.305
0.6661	1.41
0.756	1.529
0.8473	1.636
0.9534	1.755
1.0525	1.86
1.1585	1.967
