Adsorption isotherm of Methanol on CuBTC
DOI: 10.1021/acs.iecr.6b03637
Article source: Figure 4
Adsorbate Methanol: InChIKey OKKJLVBELUTLKV-UHFFFAOYSA-N
Kind: experiment
Temperature: 298 K
Tabular data in the source: 0
pressure (bar)	uptake (g/g)
0.043422	0.327268
0.069941	0.413951
0.096502	0.43961
0.144899	0.45953
0.198045	0.473262
0.245497	0.486549
0.300063	0.507798
0.343246	0.517546
0.400662	0.534375
0.452865	0.540146
0.522629	0.545484
0.548256	0.548148
0.595715	0.550822
0.642699	0.553939
0.747584	0.558407
0.797891	0.561082
0.974916	0.567351
0.788398	0.561963
0.743312	0.559289
0.694429	0.557499
0.592865	0.553474
0.499371	0.548569
0.380251	0.538346
0.296726	0.529907
0.200866	0.513061
0.103603	0.466145
0.05479	0.360438
