Adsorption isotherm of Methanol on CuBTC
DOI: 10.1021/acs.iecr.6b03637
Article source: Figure 4
Adsorbate Methanol: InChIKey OKKJLVBELUTLKV-UHFFFAOYSA-N
Kind: experiment
Temperature: 313 K
Tabular data in the source: 0
pressure (bar)	uptake (g/g)
0.0453	0.357338
0.050985	0.372376
0.071833	0.424122
0.098378	0.472333
0.14772	0.497561
0.196594	0.513943
0.246412	0.537844
0.296707	0.556881
0.402056	0.577711
0.49792	0.588366
0.587143	0.592827
0.68301	0.599061
0.70674	0.599071
0.818747	0.600447
0.999093	0.607602
0.800712	0.600881
0.699146	0.599952
0.644094	0.59639
0.596634	0.5946
0.517853	0.589259
0.4647	0.583929
0.361245	0.570618
0.290538	0.556436
0.201798	0.538709
0.101208	0.499309
