Adsorption isotherm of Hydrogen on DUT-9
DOI: 10.1002/anie.201001735
Adsorbate Hydrogen: InChIKey UFHFLCQGNIYNRP-UHFFFAOYSA-N
Temperature: 77 K
Tabular data in the source: 0
pressure (bar)	uptake (wt%)
0.619484	0.0636713
1.71192	1.96451
3.67831	3.31476
7.17411	4.15376
10.8884	4.61258
16.1321	5.03207
23.1237	5.47779
30.5523	5.66132
35.796	5.79241
50.8716	5.75308
96.317	5.04518
