Adsorption isotherm of Nitrogen on DUT-9
DOI: 10.1002/anie.201001735
Adsorbate Nitrogen: InChIKey IJGRMHOSHXDMSA-UHFFFAOYSA-N
Temperature: 77 K
Tabular data in the source: 0
pressure (bar)	uptake (cm3(STP)/g)
0.00837971	468.187
0.0171192	615.666
0.0411528	753.313
0.0935898	1008.94
0.115439	1271.13
0.137287	1330.12
0.196279	1346.51
0.467203	1392.39
0.77964	1402.22
0.993758	1431.72
