Adsorption isotherm of Nitrogen on DUT-9-SCD
DOI: 10.1002/anie.201001735
Adsorbate Nitrogen: InChIKey IJGRMHOSHXDMSA-UHFFFAOYSA-N
Temperature: 77 K
Tabular data in the source: 0
pressure (bar)	uptake (cm3(STP)/g)
0.00400996	261.716
0.0193041	530.456
0.0804806	887.683
0.126363	1061.38
0.180985	1074.49
0.272749	1097.43
0.502161	1123.65
0.558968	1120.37
0.853926	1143.31
0.995943	1146.59
