Adsorption isotherm of Methane on DUT-9
DOI: 10.1002/anie.201001735
Adsorbate Methane: InChIKey VNWKTOKETHGBQD-UHFFFAOYSA-N
Temperature: 298 K
Tabular data in the source: 0
pressure (bar)	uptake (g/g)
0.000456	1.34832
0.00701089	20.2256
0.0141117	35.9567
0.0304983	65.3214
0.0463386	88.0441
0.0785655	118.458
0.0938596	129.644
0.110246	134.888
0.126087	139.083
0.141381	140.481
0.174154	139.782
0.234238	127.547
