Adsorption isotherm of Hydrogen on DUT-9-SCD
DOI: 10.1002/anie.201001735
Adsorbate Hydrogen: InChIKey UFHFLCQGNIYNRP-UHFFFAOYSA-N
Temperature: 77 K
Tabular data in the source: 0
pressure (bar)	uptake (wt%)
1.49343	1.82031
3.24133	2.39712
4.77074	2.97392
9.57747	3.69493
16.3506	4.27174
25.7455	4.75678
36.0144	4.9272
50.4346	4.94031
66.3842	4.86165
97.8464	4.46838
