Adsorption isotherm of Methane on DUT-9
DOI: 10.1002/anie.201001735
Adsorbate Methane: InChIKey VNWKTOKETHGBQD-UHFFFAOYSA-N
Temperature: 298 K
Tabular data in the source: 0
pressure (bar)	uptake (g/g)
0.00810333	17.0794
0.014658	32.8105
0.0321369	57.6307
0.0474311	79.3046
0.062179	92.5887
0.0785655	102.726
0.092221	109.718
0.124448	117.758
0.15449	120.205
0.202557	114.962
0.23533	110.068
