Adsorption isotherm of Nitrogen on HKUST-1 (granule)
DOI: 10.1007/s10450-022-00368-6
Article source: Figure 3
Adsorbate Nitrogen: InChIKey IJGRMHOSHXDMSA-UHFFFAOYSA-N
Kind: experiment
Temperature: 77 K
Tabular data in the source: 0
pressure (bar)	uptake (mmol/g)
-0.001543	16.907
0.010961	17.8133
0.05294	18.388
0.082415	18.5648
0.091347	18.6754
0.119929	18.8522
0.144938	18.9848
0.161015	19.0069
0.184238	19.0954
0.206567	19.1617
0.230683	19.2722
0.254799	19.3385
0.278915	19.3827
0.300351	19.4048
0.324467	19.5154
0.346796	19.5375
0.386096	19.6038
0.426289	19.6038
0.468268	19.6259
0.507568	19.6922
0.547761	19.7364
0.588847	19.8248
0.62904	19.869
0.66834	19.8911
0.709426	19.9353
0.74962	19.9796
0.790706	20.0238
0.831792	20.068
0.871985	20.1122
0.911285	20.1564
0.930935	20.1564
0.941653	20.2227
0.950585	20.2669
0.966215	20.2706
0.978869	20.3811
0.9878	20.418
0.997476	20.4917
1.00864	20.639
