Adsorption isotherm of Nitrogen on HKUST-1 (powder)
DOI: 10.1007/s10450-022-00368-6
Article source: Figure 3
Adsorbate Nitrogen: InChIKey IJGRMHOSHXDMSA-UHFFFAOYSA-N
Kind: experiment
Temperature: 77 K
Tabular data in the source: 0
pressure (bar)	uptake (mmol/g)
-0.00065	14.3428
0.001136	15.2491
-0.00065	16.1554
0.011854	17.5922
0.050261	18.0122
0.093133	18.388
0.120822	18.5427
0.144045	18.6975
0.164588	18.7417
0.184238	18.8301
0.206567	18.8964
0.230683	18.9185
0.254799	19.0291
0.278021	19.0733
0.303924	19.1175
0.324467	19.1838
0.346796	19.228
0.386096	19.2501
0.427182	19.3606
0.466482	19.4048
0.506675	19.4269
0.547761	19.5154
0.586168	19.5375
0.62904	19.5375
0.670127	19.648
0.712106	19.648
0.748726	19.7143
0.789813	19.7364
0.832685	19.7806
0.871985	19.8027
0.911285	19.858
0.932721	19.9353
0.944332	19.9353
0.953264	19.9575
0.962196	19.9796
0.9747	20.0017
0.988098	20.0238
0.991671	20.0238
0.995244	20.0901
0.999709	20.1122
1.01132	20.2006
