Adsorption isotherm of Nitrogen on HKUST-1 (after water vapor)
DOI: 10.1007/s10450-022-00368-6
Article source: Figure 7
Adsorbate Nitrogen: InChIKey IJGRMHOSHXDMSA-UHFFFAOYSA-N
Kind: experiment
Temperature: 77 K
Tabular data in the source: 0
pressure (bar)	uptake (mmol/g)
-0.000965	15.3416
0.002991	16.333
0.006174	16.5709
0.029299	16.9075
0.04844	17.0657
0.069171	17.4222
0.090706	17.5804
0.105859	17.7388
0.147338	17.8966
0.202379	18.0739
0.25423	18.2315
0.302095	18.29
0.353949	18.3683
0.403409	18.4268
0.454466	18.4852
0.507119	18.504
0.553388	18.5625
0.606839	18.6011
0.657895	18.6596
0.708952	18.6783
0.759214	18.6377
0.810269	18.7358
0.858935	18.6951
0.912385	18.7535
0.960251	18.7922
1.00572	19.0094
