Adsorption isotherm of Acetaldehyde on HKUST-1 (non-activated granule)
DOI: 10.1007/s10450-022-00368-6
Article source: Figure 8
Adsorbate Acetaldehyde: InChIKey IKHGUXGNUITLKF-UHFFFAOYSA-N
Kind: experiment
Temperature: 298 K
Tabular data in the source: 0
pressure (bar)	uptake (mmol/g)
0.000285	0.047176
0.000293	0.120305
0.000299	0.214921
0.000306	0.28374
0.000313	0.378363
0.00032	0.460084
0.000327	0.528909
0.000337	0.619242
0.000346	0.683778
0.000355	0.774107
0.000374	0.860182
0.000392	0.937657
0.000415	1.01515
0.000417	1.01946
0.000449	1.1013
0.000494	1.166
0.000547	1.26943
0.000618	1.32566
0.000707	1.41206
0.000814	1.50285
0.00093	1.57648
0.001053	1.64584
0.0009	1.59783
0.000825	1.55449
0.000758	1.50259
0.000702	1.45933
0.000658	1.41183
0.000615	1.36434
0.000597	1.32986
0.000554	1.27377
0.000509	1.17897
0.00049	1.14019
0.000455	1.10563
0.000434	1.04104
0.000402	0.980699
0.000383	0.924714
0.000381	0.838716
0.000346	0.752569
0.000342	0.696657
0.000344	0.614974
0.00034	0.563365
