Adsorption isotherm of Water on HKUST-1 (granule)
DOI: 10.1007/s10450-022-00368-6
Article source: Figure 5
Adsorbate Water: InChIKey XLYOFNOQVPJJNP-UHFFFAOYSA-N
Kind: experiment
Temperature: 293 K
Tabular data in the source: 0
pressure (bar)	uptake (mmol/g)
0.000578	3.70949
0.001123	8.76173
0.00168	11.5023
0.002432	15.3153
0.002783	16.1256
0.003353	17.5555
0.003911	20.8442
0.004598	25.3007
0.005	25.7773
0.006102	26.5161
0.00701	26.9688
0.007503	27.2072
0.007866	27.2787
0.008579	27.517
0.008916	27.7076
0.009383	27.9221
0.010291	28.0889
0.010758	28.2557
0.011316	28.4226
0.011782	28.5894
0.012301	28.7562
0.012781	28.8754
0.013559	29.1852
0.014013	29.3043
0.014558	29.495
0.015154	29.6618
0.015478	29.9478
0.015128	29.9478
0.014415	29.7571
0.013767	29.6856
0.013105	29.6141
0.012522	29.4711
0.011977	29.3758
0.011342	29.3043
0.010771	29.1375
0.010226	29.0183
0.009682	28.8515
0.008838	28.6212
0.008424	28.4888
0.007668	28.2571
0.007181	28.0419
0.006587	27.7606
0.006011	27.4296
0.005398	27.0324
0.004849	26.4863
0.004254	25.3278
0.003642	20.3133
0.00303	17.533
0.002399	16.0932
0.001805	13.7431
0.001229	10.7311
0.000625	6.2793
0.000256	4.12786
