Adsorption isotherm of Acetaldehyde on HKUST-1 (activated granule)
DOI: 10.1007/s10450-022-00368-6
Article source: Figure 8
Adsorbate Acetaldehyde: InChIKey IKHGUXGNUITLKF-UHFFFAOYSA-N
Kind: experiment
Temperature: 298 K
Tabular data in the source: 0
pressure (bar)	uptake (mmol/g)
0.000269	0.141691
0.000276	0.2879
0.000283	0.47281
0.000285	0.636198
0.000289	0.786697
0.000293	0.954394
0.000295	1.12638
0.000298	1.28977
0.000304	1.43168
0.000311	1.59939
0.000314	1.76278
0.00032	1.91329
0.000324	2.08099
0.00033	2.2444
0.000336	2.4078
0.000344	2.56262
0.00035	2.68733
0.00036	2.85935
0.000371	3.02279
0.00038	3.1819
0.000388	3.32812
0.000401	3.48296
0.000415	3.63351
0.000433	3.78837
0.000452	3.93894
0.000478	4.09814
0.000505	4.24015
0.000543	4.4123
0.00059	4.5587
0.000647	4.69225
0.00068	4.76979
0.000713	4.83874
0.000754	4.92491
0.000795	4.9982
0.000845	5.08442
0.000896	5.15345
0.000951	5.22679
0.001011	5.31306
0.001076	5.36926
0.000907	5.27818
0.000816	5.17457
0.000747	5.07536
0.000686	4.98049
0.000634	4.87706
0.000585	4.78655
0.000547	4.66168
0.000514	4.60134
0.000484	4.50662
0.000457	4.4119
0.00045	4.30868
0.000423	4.22687
0.000394	4.04186
0.000383	3.94722
0.000374	3.84829
0.00036	3.75794
0.000355	3.66333
0.000346	3.5687
0.000345	3.4784
