Adsorption isotherm of Xenon on DUT-8(Ni)
DOI: 10.1021/Ja201951t
Adsorbate Xenon: InChIKey FHNFHKCVQCLJFQ-UHFFFAOYSA-N
Temperature: 165 K
Tabular data in the source: 0
pressure (bar)	uptake (molecules/unitcell)
0.00658518	0.12965
0.0494895	0.201157
0.109555	0.236911
0.15675	0.272664
0.181063	0.272664
0.198224	0.344171
0.222537	0.916229
0.243989	3.56199
0.298334	9.28257
0.344099	12.9652
0.398444	15.5037
0.472812	17.8634
0.602955	19.8299
0.75169	20.974
0.794594	21.2243
0.848939	21.5818
0.897564	22.2969
