Adsorption isotherm of Xenon on DUT-8(Ni)
DOI: 10.1021/Ja201951t
Adsorbate Xenon: InChIKey FHNFHKCVQCLJFQ-UHFFFAOYSA-N
Temperature: 165 K
Tabular data in the source: 0
pressure (bar)	uptake (molecules/unitcell)
1.52e-05	0.493339
0.00280166	4.08489
0.00280166	14.3314
0.00421011	20.0356
0.00984391	21.937
0.0295622	23.5567
0.0661819	24.1553
0.197168	24.3666
0.301393	24.4722
0.347872	24.1905
0.405619	24.4722
0.50421	24.5074
0.602802	24.437
0.701393	24.8947
0.805619	24.6483
1.0028	24.6131
