Adsorption isotherm of Xenon on DUT-8(Ni)
DOI: 10.1021/Ja201951t
Adsorbate Xenon: InChIKey FHNFHKCVQCLJFQ-UHFFFAOYSA-N
Temperature: 165 K
Tabular data in the source: 0
pressure (bar)	uptake (molecules/unitcell)
0.000865	0.558693
0.00801532	2.02459
0.0394785	2.41788
0.0866732	2.59665
0.169621	2.73966
0.241129	2.95418
0.269731	5.1709
0.292614	8.03119
0.331228	11.8211
0.394154	16.183
0.439919	18.1495
0.474242	19.1148
0.545749	20.1874
0.645859	20.8667
0.837498	21.6533
0.943329	22.0466
