Adsorption isotherm of Xenon on DUT-8(Ni)
DOI: 10.1021/Ja201951t
Adsorbate Xenon: InChIKey FHNFHKCVQCLJFQ-UHFFFAOYSA-N
Temperature: 165 K
Tabular data in the source: 0
pressure (bar)	uptake (molecules/unitcell)
0.0197031	19.5778
0.0478721	20.1412
0.0985763	20.4581
0.143647	20.6342
0.194351	20.775
0.239421	20.9159
0.311252	21.1271
0.364773	21.2328
0.415478	21.4793
0.46759	21.444
0.543647	21.5497
0.639421	21.6553
0.746464	21.7962
0.801393	21.8666
0.908435	22.3595
