Adsorption isotherm of Xenon on DUT-8(Ni)
DOI: 10.1021/Ja201951t
Adsorbate Xenon: InChIKey FHNFHKCVQCLJFQ-UHFFFAOYSA-N
Temperature: 273 K
Tabular data in the source: 0
pressure (bar)	uptake (molecules/unitcell)
0.273224	0.0338943
0.40421	0.00854218
0.55914	0.0169929
0.636604	0.566289
0.739421	2.92404
0.849281	4.3184
0.998576	5.43389
