Adsorption isotherm of 1-hexanol on CuBTC
DOI: 10.1038/Srep06247
Adsorbate 1-hexanol: InChIKey ZSIAUFGUXNUGDI-UHFFFAOYSA-N
Temperature: 333 K
Tabular data in the source: 0
pressure (bar)	uptake (mmol/g)
1.03669e-05	0.603624
2.76449e-05	0.807325
3.97395e-05	1.04606
5.35621e-05	1.18656
6.56567e-05	1.30599
0.000136497	1.50327
0.000276449	1.76448
0.000554626	1.80968
