Adsorption isotherm of N-Hexane on CuBTC
DOI: 10.1038/Srep06247
Adsorbate N-Hexane: InChIKey VLKZOEOYAKHREP-UHFFFAOYSA-N
Temperature: 333 K
Tabular data in the source: 0
pressure (bar)	uptake (mmol/g)
0.00104167	0.596683
0.0015625	1.0038
0.00250001	1.17941
0.00343752	1.3059
0.00416668	1.34814
0.00843754	1.58752
0.0167709	1.8066
0.033646	1.90796
