Adsorption isotherm of Acetone on CuBTC
DOI: 10.1038/Srep06247
Adsorbate Acetone: InChIKey CSCPPACGZOOCGX-UHFFFAOYSA-N
Temperature: 333 K
Tabular data in the source: 0
pressure (bar)	uptake (mmol/g)
0.000380523	0.379592
0.000684878	0.685714
0.000758179	0.869388
0.00113775	1.28571
0.00222545	1.49388
0.00347219	1.59184
0.00456278	1.6898
0.00690264	1.78776
0.0126012	1.83673
0.0249338	1.99592
