Adsorption isotherm of M-Xylene on CuBTC
DOI: 10.1038/Srep06247
Adsorbate M-Xylene: InChIKey IVSZLXZYQVIEFR-UHFFFAOYSA-N
Temperature: 333 K
Tabular data in the source: 0
pressure (bar)	uptake (mmol/g)
-4.47472e-06	0.0041873
6.60825e-06	0.470609
2.48659e-05	0.533693
3.85732e-05	0.584158
6.57615e-05	0.634665
0.000137999	0.710527
0.000219092	0.757007
0.000286628	0.786635
0.000358639	0.812077
0.000718426	0.88046
0.00144226	0.962617
