Adsorption isotherm of Acetone on Zn4O(BDC)3
DOI: 10.1038/Srep06247
Adsorbate Acetone: InChIKey CSCPPACGZOOCGX-UHFFFAOYSA-N
Temperature: 333 K
Tabular data in the source: 0
pressure (bar)	uptake (mmol/g)
0.00112961	0.190236
0.00243387	0.380367
0.00356466	0.529693
0.00469547	0.679019
0.00696104	0.841305
0.0125309	1.47889
0.0252479	2.56222
