Adsorption isotherm of N-Heptane on CuBTC
DOI: 10.1038/Srep06247
Adsorbate N-Heptane: InChIKey IMNFDUFMRHMDMM-UHFFFAOYSA-N
Temperature: 333 K
Tabular data in the source: 0
pressure (bar)	uptake (mmol/g)
0.000267333	0.722942
0.000572855	0.870464
0.000916569	0.954847
0.00122209	1.01114
0.00152762	1.04638
0.00309343	1.23665
0.00611046	1.3715
0.0122209	1.4658
