Adsorption isotherm of 1-Octanol on CuBTC
DOI: 10.1038/Srep06247
Adsorbate 1-Octanol: InChIKey KBPLFHHGFOOTCA-UHFFFAOYSA-N
Temperature: 333 K
Tabular data in the source: 0
pressure (bar)	uptake (mmol/g)
2.83287e-07	-0.00699832
1.41644e-06	0.0492189
2.2663e-06	0.112435
4.5326e-06	0.281009
6.51561e-06	0.40746
9.0652e-06	0.44272
1.13315e-05	0.491997
2.23797e-05	0.583975
4.56093e-05	0.606604
9.0652e-05	0.616679
