Adsorption isotherm of N-Octane on CuBTC
DOI: 10.1038/Srep06247
Adsorbate N-Octane: InChIKey TVMXDCGIABBOFY-UHFFFAOYSA-N
Temperature: 333 K
Tabular data in the source: 0
pressure (bar)	uptake (mmol/g)
4.26658e-05	0.414093
0.000142219	0.449315
0.000227551	0.484518
0.000355548	0.519779
0.000469324	0.55502
0.000583099	0.569209
0.0011662	0.584033
0.00228973	0.641692
0.00459368	0.686912
