Adsorption isotherm of Methanol on Zn4O(BDC)3
DOI: 10.1038/Srep06247
Adsorbate Methanol: InChIKey OKKJLVBELUTLKV-UHFFFAOYSA-N
Temperature: 333 K
Tabular data in the source: 0
pressure (bar)	uptake (mmol/g)
0.000490742	0.599282
0.000948349	0.994067
0.00140709	1.2934
0.00186712	1.48363
0.00278929	1.68683
0.00513033	2.18795
0.0102418	2.97137
