Adsorption isotherm of Toluene on CuBTC
DOI: 10.1038/Srep06247
Adsorbate Toluene: InChIKey YXFVVABEGXRONW-UHFFFAOYSA-N
Temperature: 333 K
Tabular data in the source: 0
pressure (bar)	uptake (mmol/g)
2.32093e-05	0.465306
3.53272e-05	0.57551
0.000110552	0.636735
0.000185673	0.722449
0.000399229	0.795918
0.000600256	0.857143
0.000801436	0.881633
0.00102783	0.893878
0.00202114	1.01633
0.00403348	1.13878
