Adsorption isotherm of P-Xylene on CuBTC
DOI: 10.1038/Srep06247
Adsorbate P-Xylene: InChIKey URLKBWYHVLBVBO-UHFFFAOYSA-N
Temperature: 333 K
Tabular data in the source: 0
pressure (bar)	uptake (mmol/g)
5.98038e-06	0.273128
3.03756e-05	0.46648
3.05532e-05	0.504296
4.00665e-05	0.529535
7.32447e-05	0.592662
0.000148739	0.664323
0.000228774	0.702384
0.000299335	0.723609
0.000379309	0.749065
0.000755364	0.804843
0.00150725	0.870179
