Adsorption isotherm of N-Octane on CuBTC
DOI: 10.1038/Srep06247
Adsorbate N-Octane: InChIKey TVMXDCGIABBOFY-UHFFFAOYSA-N
Temperature: 333 K
Tabular data in the source: 0
pressure (bar)	uptake (mmol/g)
0	-4.44089e-16
6.82636e-06	0.110204
0.000104998	0.55102
0.000211154	0.612245
0.000416553	0.661224
0.000622008	0.685714
0.000827465	0.710204
0.00113931	0.697959
0.00227309	0.734694
