Adsorption isotherm of N-Octane on Zn4O(BDC)3
DOI: 10.1038/Srep06247
Adsorbate N-Octane: InChIKey TVMXDCGIABBOFY-UHFFFAOYSA-N
Temperature: 333 K
Tabular data in the source: 0
pressure (bar)	uptake (mmol/g)
7.92533e-06	-5.20481e-05
1.11315e-05	1.78629
3.46913e-05	1.86795
9.81299e-05	1.8539
0.000209049	1.86681
0.000415035	1.89273
0.000620949	1.94592
0.00114395	1.96976
0.0022772	1.98959
