Adsorption isotherm of Methanol on CuBTC
DOI: 10.1038/Srep06247
Adsorbate Methanol: InChIKey OKKJLVBELUTLKV-UHFFFAOYSA-N
Temperature: 333 K
Tabular data in the source: 0
pressure (bar)	uptake (mmol/g)
5.43811e-05	0.869388
0.000146531	1.17551
0.000241017	1.26122
0.000303186	1.39592
0.000458802	1.71429
0.000932012	2.06939
0.00140704	2.25306
0.00185065	2.4
0.00280343	2.5102
0.00515339	2.80408
0.010205	3.20816
