Adsorption isotherm of Toluene on Zn4O(BDC)3
DOI: 10.1038/Srep06247
Adsorbate Toluene: InChIKey YXFVVABEGXRONW-UHFFFAOYSA-N
Temperature: 333 K
Tabular data in the source: 0
pressure (bar)	uptake (mmol/g)
0.000167804	0.217561
0.000377432	0.516786
0.000545299	0.72071
0.000755055	0.992661
0.00110499	1.37318
0.00202599	2.97887
0.00405147	3.06683
