Adsorption isotherm of Hydrogen on IRMOF-1
DOI: 10.1002/ejic.201201312
Adsorbate Hydrogen: InChIKey UFHFLCQGNIYNRP-UHFFFAOYSA-N
Temperature: 77 K
Tabular data in the source: 0
pressure (bar)	uptake (wt%)
1.28049	1.36588
1.64138	1.53372
2.18405	1.84536
3.80351	2.39703
5.59779	2.78112
7.57172	3.21321
10.0792	3.54974
13.3016	3.91056
15.6257	4.03144
20.097	4.34496
24.2068	4.46669
27.6029	4.61203
31.893	4.8057
38.8606	4.95275
43.3276	5.07465
47.6144	5.12461
51.7216	5.12657
