Adsorption isotherm of Hydrogen on (OCH3).75-MOF-5
DOI: 10.1002/ejic.201201312
Adsorbate Hydrogen: InChIKey UFHFLCQGNIYNRP-UHFFFAOYSA-N
Temperature: 77 K
Tabular data in the source: 0
pressure (bar)	uptake (wt%)
3.80618	2.51679
6.3169	2.99704
10.4337	3.43015
20.8011	3.8902
32.9489	4.11159
43.843	4.16472
53.3084	4.21715
