Adsorption isotherm of Hydrogen on (OCH3).5-MOF-5
DOI: 10.1002/ejic.201201312
Adsorbate Hydrogen: InChIKey UFHFLCQGNIYNRP-UHFFFAOYSA-N
Temperature: 77 K
Tabular data in the source: 0
pressure (bar)	uptake (wt%)
0.74958	1.5812
2.37118	2.22868
6.14474	3.28438
9.90815	3.88499
17.243	4.4873
23.8566	4.7779
28.1451	4.89971
35.1127	5.04676
42.2583	5.16994
51.0116	5.31785
