Adsorption isotherm of Hydrogen on IRMOF-1
DOI: 10.1002/ejic.201201312
Adsorbate Hydrogen: InChIKey UFHFLCQGNIYNRP-UHFFFAOYSA-N
Temperature: 77 K
Tabular data in the source: 0
pressure (bar)	uptake (wt%)
1.57052	1.38922
1.74313	1.62874
1.75272	1.1976
2.44902	1.89222
4.04032	2.34731
5.45368	2.8024
7.75886	3.16168
9.88397	3.61677
13.2589	3.88024
15.7473	4
19.6539	4.35928
23.9212	4.50299
27.1219	4.5988
31.566	4.79042
38.3244	4.93413
42.9476	5.07784
47.5728	5.12575
51.3095	5.12575
