Adsorption isotherm of Hydrogen on OCH3-MOF-5
DOI: 10.1002/ejic.201201312
Adsorbate Hydrogen: InChIKey UFHFLCQGNIYNRP-UHFFFAOYSA-N
Temperature: 77 K
Tabular data in the source: 0
pressure (bar)	uptake (wt%)
0.00801976	0.359285
0.373186	0.718742
0.734075	0.886579
1.80712	0.95895
2.34551	1.07897
3.77731	1.22337
6.45912	1.36836
9.6745	1.41781
13.7838	1.51559
18.608	1.63766
24.5036	1.76024
30.9344	1.85913
35.3998	1.90917
41.4739	2.03184
46.6536	2.08223
51.8344	2.18052
