Adsorption isotherm of Hydrogen on (OCH3).75-MOF-5
DOI: 10.1002/ejic.201201312
Adsorbate Hydrogen: InChIKey UFHFLCQGNIYNRP-UHFFFAOYSA-N
Temperature: 77 K
Tabular data in the source: 0
pressure (bar)	uptake (wt%)
3.68125	2.49102
6.87291	2.99401
10.7779	3.42515
20.7322	3.88024
32.2932	4.09581
43.5016	4.16766
52.9322	4.16766
