Adsorption isotherm of Hydrogen on (OCH3).25-MOF-5
DOI: 10.1002/ejic.201201312
Adsorbate Hydrogen: InChIKey UFHFLCQGNIYNRP-UHFFFAOYSA-N
Temperature: 77 K
Tabular data in the source: 0
pressure (bar)	uptake (wt%)
0.559245	1.05416
1.27728	1.22217
1.46227	1.50968
1.64726	1.7972
2.00922	2.01294
2.18939	2.08488
3.45224	2.66034
7.22634	3.73999
12.6023	4.58089
19.0416	5.06301
26.1925	5.42572
36.1991	5.71794
43.8815	5.88928
52.6337	5.98929
