Adsorption isotherm of Hydrogen on OCH3-MOF-5
DOI: 10.1002/ejic.201201312
Adsorbate Hydrogen: InChIKey UFHFLCQGNIYNRP-UHFFFAOYSA-N
Temperature: 77 K
Tabular data in the source: 0
pressure (bar)	uptake (wt%)
0.519424	0.646707
0.693631	0.814371
0.702687	0.407186
1.22477	0.934132
2.11232	1.02994
3.53208	1.1976
6.5538	1.34132
9.75451	1.43713
13.667	1.53293
18.4686	1.65269
24.5168	1.72455
30.9198	1.84431
35.1892	1.89222
41.2369	1.98802
46.3955	2.05988
52.0868	2.17964
