Adsorption isotherm of Hydrogen on (OCH3).25-MOF-5
DOI: 10.1002/ejic.201201312
Adsorbate Hydrogen: InChIKey UFHFLCQGNIYNRP-UHFFFAOYSA-N
Temperature: 77 K
Tabular data in the source: 0
pressure (bar)	uptake (wt%)
0.687238	1.1018
1.03885	1.29341
1.39046	1.48503
1.73514	1.98802
1.741	1.72455
1.91041	2.10778
3.67752	2.65868
7.0338	3.76048
12.3559	4.47904
19.1047	5.05389
26.2147	5.38922
35.6389	5.67665
43.8202	5.84431
52.0026	5.96407
