Adsorption isotherm of Hydrogen on (OCH3).5-MOF-5
DOI: 10.1002/ejic.201201312
Adsorbate Hydrogen: InChIKey UFHFLCQGNIYNRP-UHFFFAOYSA-N
Temperature: 77 K
Tabular data in the source: 0
pressure (bar)	uptake (wt%)
2.61843	2.27545
6.15371	3.32934
9.69964	3.90419
17.1602	4.47904
23.7374	4.76647
28.0041	4.93413
34.9404	5.07784
42.4116	5.17365
50.7719	5.29341
