Adsorption isotherm of Nitrogen on Cr-MIL(101)
DOI: 10.1039/C1ce06274c
Adsorbate Nitrogen: InChIKey IJGRMHOSHXDMSA-UHFFFAOYSA-N
Temperature: 77 K
Tabular data in the source: 0
pressure (bar)	uptake (cm3(STP)/g)
0.00336166	0.00336166
0.00672332	194.595
0.010085	415.135
0.0268933	467.027
0.0369783	499.459
0.0504249	531.892
0.0672332	577.297
0.10085	635.676
0.12102	687.568
0.144551	758.919
0.194976	810.811
0.215146	836.757
0.248763	895.135
0.279018	901.622
0.299188	908.108
0.339528	914.595
0.443739	940.541
0.484079	953.514
0.534504	960
0.584929	972.973
0.642077	998.919
0.682417	1011.89
0.736204	1031.35
0.786629	1063.78
0.833692	1102.7
0.880755	1180.54
0.93118	1264.86
0.958073	1284.32
