Adsorption isotherm of Nitrogen on Cr-MIL(101)
DOI: 10.1039/C1ce06274c
Adsorbate Nitrogen: InChIKey IJGRMHOSHXDMSA-UHFFFAOYSA-N
Temperature: 77 K
Tabular data in the source: 0
pressure (bar)	uptake (cm3(STP)/g)
0.00667711	0.00667711
0.0133542	466.768
0.0267085	511.315
0.0367241	533.613
0.0500784	563.345
0.0767868	637.623
0.0934796	674.787
0.123527	741.683
0.143558	830.724
0.170266	860.557
0.193636	890.365
0.220345	912.791
0.243715	994.451
0.2771	994.705
0.297132	1009.67
0.343871	1017.44
0.39395	1025.23
0.440689	1032.99
0.490768	1048.19
0.540846	1055.98
0.587586	1063.74
0.634326	1078.91
0.681066	1079.27
0.731144	1094.46
0.767868	1109.56
0.824624	1124.81
0.874702	1184.45
0.911426	1281.02
0.921442	1325.54
0.944812	1436.83
0.961504	1466.59
