Adsorption isotherm of Nitrogen on Cr-MIL(101)
DOI: 10.1039/C1ce06274c
Adsorbate Nitrogen: InChIKey IJGRMHOSHXDMSA-UHFFFAOYSA-N
Temperature: 77 K
Tabular data in the source: 0
pressure (bar)	uptake (cm3(STP)/g)
0.00667711	103.27
0.0100157	348.454
0.0267085	464.693
0.0367241	490.566
0.0434012	509.966
0.0701097	574.659
0.0934796	613.524
0.120188	678.217
0.150235	742.933
0.170266	768.873
0.193636	794.834
0.213668	820.774
0.243715	872.586
0.270423	872.764
0.297132	885.844
0.333856	892.54
0.387273	905.798
0.434012	919.011
0.477414	938.654
0.530831	945.461
0.57757	958.674
0.641003	971.999
0.674388	991.575
0.727805	1017.74
0.771207	1043.83
0.824624	1089.35
0.868025	1160.6
0.921442	1244.83
0.94815	1257.91
