Adsorption isotherm of Nitrogen on Cr-MIL(101)
DOI: 10.1039/C1ce06274c
Adsorbate Nitrogen: InChIKey IJGRMHOSHXDMSA-UHFFFAOYSA-N
Temperature: 77 K
Tabular data in the source: 0
pressure (bar)	uptake (cm3(STP)/g)
0.00358421	83.871
0.00378234	154.839
0.00412455	277.419
0.00756467	309.677
0.00761871	329.032
0.014499	393.548
0.0246752	438.71
0.0449017	483.871
0.0684963	535.484
0.0920549	574.194
0.119018	632.258
0.13928	690.323
0.146034	709.677
0.172925	741.935
0.193061	754.839
0.216584	780.645
0.240214	845.161
0.250283	851.613
0.273751	858.065
0.334088	870.968
0.391076	883.871
0.434662	896.774
0.488282	903.226
0.535219	916.129
0.58212	916.129
0.629056	929.032
0.675993	941.935
0.732981	954.839
0.779936	974.194
0.826891	993.548
0.880654	1051.61
0.907617	1109.68
0.921125	1148.39
0.938055	1212.9
0.951528	1238.71
0.961722	1290.32
