Adsorption isotherm of Nitrogen on Cr-MIL(101)
DOI: 10.1039/C1ce06274c
Adsorbate Nitrogen: InChIKey IJGRMHOSHXDMSA-UHFFFAOYSA-N
Temperature: 77 K
Tabular data in the source: 0
pressure (bar)	uptake (cm3(STP)/g)
0.00335007	0.00335007
0.00670014	7.84314
0.0167503	301.961
0.0268006	329.412
0.046901	368.627
0.0770516	407.843
0.097152	431.373
0.123953	470.588
0.147403	498.039
0.174204	513.725
0.217754	545.098
0.251255	568.627
0.278056	568.627
0.308206	576.471
0.348407	588.235
0.395308	592.157
0.442209	600
0.49246	611.765
0.539361	615.686
0.589612	627.451
0.633163	639.216
0.693464	654.902
0.740365	674.51
0.783916	690.196
0.824117	713.725
0.877718	737.255
0.931319	745.098
0.95477	752.941
