Adsorption isotherm of Nitrogen on Cr-MIL(101)
DOI: 10.1039/C1ce06274c
Adsorbate Nitrogen: InChIKey IJGRMHOSHXDMSA-UHFFFAOYSA-N
Temperature: 77 K
Tabular data in the source: 0
pressure (bar)	uptake (cm3(STP)/g)
4.44e-16	4.44e-16
0.00336166	319.565
0.010085	339.13
0.0302549	443.478
0.0336166	476.087
0.0705949	554.348
0.0941265	600
0.117658	645.652
0.147913	723.913
0.174806	743.478
0.191615	763.043
0.215146	789.13
0.248763	841.304
0.279018	847.826
0.299188	860.87
0.342889	867.391
0.393314	880.435
0.440378	893.478
0.490802	900
0.625269	932.609
0.692502	958.696
0.739565	978.261
0.779905	997.826
0.826969	1036.96
0.874032	1134.78
0.91101	1239.13
0.93118	1271.74
0.961435	1310.87
