Adsorption isotherm of Ethane on Co-FA
DOI: 10.1080/08927020902744672
Adsorbate Ethane: InChIKey OTMSDBZUPAUEDD-UHFFFAOYSA-N
Temperature: 300 K
Tabular data in the source: 0
pressure (bar)	uptake (molecules/unitcell)
0.00104725	0.0249685
0.00523853	0.0948845
0.010075	0.208498
0.0208954	0.400767
0.054347	1.00379
0.0969251	1.73791
0.196028	2.67304
0.497188	3.51203
1.11199	3.78295
2.0855	3.88783
5.56237	3.95774
100	3.98396
