Adsorption isotherm of 1-Butanol on Co-FA
DOI: 10.1080/08927020902744672
Adsorbate 1-Butanol: InChIKey LRHPLDYGYMQRHN-UHFFFAOYSA-N
Temperature: 313 K
Tabular data in the source: 0
pressure (bar)	uptake (molecules/unitcell)
0.0195909	0.182279
0.0479691	0.479422
0.0710201	0.855221
0.0989881	1.33589
0.122278	1.88648
0.148038	2.47203
0.172155	3.11875
0.200201	3.63438
0.223631	3.96648
0.351699	4.06262
