Adsorption isotherm of N-Heptane on Co-FA
DOI: 10.1080/08927020902744672
Adsorbate N-Heptane: InChIKey IMNFDUFMRHMDMM-UHFFFAOYSA-N
Temperature: 300 K
Tabular data in the source: 0
pressure (bar)	uptake (molecules/unitcell)
0.00182132	0.374548
0.00341582	0.811523
0.00888426	1.48446
0.0188952	1.79909
0.0354374	1.89522
0.08988	1.97388
0.177264	1.97388
0.349606	1.98262
0.932459	2.00883
1.66299	2.00009
3.19833	2.00009
9.19914	1.98262
19.5649	1.96514
