Adsorption isotherm of Methane on Co-FA
DOI: 10.1080/08927020902744672
Adsorbate Methane: InChIKey VNWKTOKETHGBQD-UHFFFAOYSA-N
Temperature: 300 K
Tabular data in the source: 0
pressure (bar)	uptake (molecules/unitcell)
0.00201411	0.0162291
0.00485776	0.0249685
0.010075	0.033708
0.0184259	0.0249685
0.0479241	0.0599265
0.0921696	0.112364
0.201022	0.217237
0.52284	0.52312
0.98057	0.951355
2.13862	1.55438
4.90499	2.62934
10.432	3.24984
20.0633	3.58194
48.39	3.85287
93.0656	3.96648
