Adsorption isotherm of N-Propanal on Co-FA
DOI: 10.1080/08927020902744672
Adsorbate N-Propanal: InChIKey NBBJYMSMWIIQGU-UHFFFAOYSA-N
Temperature: 313 K
Tabular data in the source: 0
pressure (bar)	uptake (molecules/unitcell)
0.0223285	0.610515
0.0535832	1.64178
0.085121	3.04009
0.113962	4.11505
0.140775	4.16749
0.165364	4.15875
0.200201	4.19371
0.25233	4.21119
0.281862	4.24615
0.417308	4.25488
