Adsorption isotherm of N-Pentane on Co-FA
DOI: 10.1080/08927020902744672
Adsorbate N-Pentane: InChIKey OFBQJSOFQDEBGM-UHFFFAOYSA-N
Temperature: 300 K
Tabular data in the source: 0
pressure (bar)	uptake (molecules/unitcell)
0.00124888	0.0162291
0.00246308	0.033708
0.00594061	0.0424475
0.0123208	0.068666
0.0249184	0.121103
0.0664616	0.330851
0.134417	0.549338
0.239725	0.8727
0.655675	1.27472
1.14031	1.68547
2.30625	1.83404
5.56237	2.07001
11.2497	2.07875
