Adsorption isotherm of N-propane on Co-FA
DOI: 10.1080/08927020902744672
Adsorbate N-propane: InChIKey ATUOYWHBWRKTHZ-UHFFFAOYSA-N
Temperature: 300 K
Tabular data in the source: 0
pressure (bar)	uptake (molecules/unitcell)
0.00102123	0.086145
0.00206542	0.121103
0.00523853	0.322111
0.010075	0.645473
0.0203763	1.34463
0.052997	2.75169
0.104522	3.3722
0.206142	3.72178
0.509853	3.87909
1.00555	3.949
2.03369	3.97522
106	4.01018
