Adsorption isotherm of N-Butane on Co-FA
DOI: 10.1080/08927020902744672
Adsorbate N-Butane: InChIKey IJDNQMDRQITEOD-UHFFFAOYSA-N
Temperature: 300 K
Tabular data in the source: 0
pressure (bar)	uptake (molecules/unitcell)
107.393	0.0249685
211.803	0.051187
510.84	0.103624
982.469	0.252195
2142.76	0.461943
4914.49	0.933876
10991.5	1.30967
49718.8	2.36715
100555	2.51572
203369	2.91774
528946	3.25858
2163590	3.6606
5627320	3.81791
10000000	3.83539
