Adsorption isotherm of N-Hexane on Co-FA
DOI: 10.1080/08927020902744672
Adsorbate N-Hexane: InChIKey VLKZOEOYAKHREP-UHFFFAOYSA-N
Temperature: 300 K
Tabular data in the source: 0
pressure (bar)	uptake (molecules/unitcell)
0.00138108	0.0599265
0.00301213	0.112364
0.00726484	0.278414
0.014328	0.558078
0.0320453	0.995053
0.0772889	1.54564
0.160296	1.64178
0.308289	1.88648
0.801832	1.98262
1.43003	1.98262
2.75028	1.98262
7.71395	1.99136
16.8241	2.00009
26.4588	2.00883
