Adsorption isotherm of Oxygen on MAMS-1
DOI: 10.1002/anie.200604353
Adsorbate Oxygen: InChIKey MYMOFIZGZYHOMD-UHFFFAOYSA-N
Temperature: 77 K
Tabular data in the source: 0
pressure (bar)	uptake (mmol/g)
0.0195154	0.0487805
0.0400579	0.0487805
0.0472478	0.097561
0.0606005	0.121951
0.0852515	0.146341
0.0965499	0.146341
0.106821	0.146341
0.117092	0.170732
0.128391	0.195122
0.139689	0.243902
0.148933	0.219512
0.158177	0.268293
0.167422	0.292683
0.176666	0.365854
0.183856	0.439024
0.191046	0.512195
0.197208	0.658537
