Adsorption isotherm of Propene on MAMS-1
DOI: 10.1002/anie.200604353
Adsorbate Propene: InChIKey QQONPFPTGQHPMA-UHFFFAOYSA-N
Temperature: 195 K
Tabular data in the source: 0
pressure (bar)	uptake (mmol/g)
0.00730904	0.0432099
0.0146181	0.108025
0.0182726	0.151235
0.0233889	0.17284
0.0285053	0.237654
0.0343525	0.237654
0.038007	0.280864
0.0438543	0.302469
0.0489706	0.324074
0.0562796	0.367284
0.0657814	0.410494
0.0752831	0.475309
0.0847849	0.518519
0.0942867	0.583333
0.103788	0.604938
0.114021	0.691358
0.122792	0.756173
0.133025	0.820988
0.142526	0.907407
