Adsorption isotherm of Carbon monoxide on MAMS-1
DOI: 10.1002/anie.200604353
Adsorbate Carbon monoxide: InChIKey UGFAIRIUMAVXCW-UHFFFAOYSA-N
Temperature: 77 K
Tabular data in the source: 0
pressure (bar)	uptake (mmol/g)
0.0869928	0.0036309
0.233981	0.0343057
0.266978	0.035683
0.380969	0.1386
0.398967	0.139351
0.413966	0.189057
0.48296	0.241017
0.494959	0.266057
0.512958	0.315888
0.527957	0.316514
0.545955	0.390885
0.581952	0.539627
