Adsorption isotherm of Sulfur Hexafluoride on MAMS-1
DOI: 10.1002/anie.200604353
Adsorbate Sulfur Hexafluoride: InChIKey SFZCNBIFKDRMGX-UHFFFAOYSA-N
Temperature: 295 K
Tabular data in the source: 0
pressure (bar)	uptake (mmol/g)
0.0480595	8.88e-16
0.115908	8.88e-16
0.144198	0.0170648
0.197931	0.0341297
0.248798	0.0170648
0.285549	0.0170648
0.565483	0.0682594
0.602235	0.0682594
0.64466	0.0853242
0.67293	0.0853242
0.695585	0.119454
0.780434	0.153584
0.851129	0.170648
0.904862	0.187713
0.955768	0.204778
0.998231	0.255973
