Adsorption isotherm of Nitrogen on MAMS-1
DOI: 10.1002/anie.200604353
Adsorbate Nitrogen: InChIKey IJGRMHOSHXDMSA-UHFFFAOYSA-N
Temperature: 113 K
Tabular data in the source: 0
pressure (bar)	uptake (mmol/g)
0	0.368098
0.0051231	0.699387
0.0153693	0.90184
0.0256155	1.06748
0.0358617	1.19632
0.0461079	1.30675
0.0563541	1.45399
0.0819695	1.52761
0.107585	1.63804
0.138324	1.73006
0.169062	1.82209
0.199801	1.8773
0.245909	1.91411
0.286893	1.98773
0.322755	2.02454
0.368863	2.04294
0.404725	2.07975
0.445709	2.11656
0.486694	2.13497
0.522556	2.19018
0.568664	2.20859
0.604525	2.28221
0.671126	2.30061
0.701864	2.30061
0.742849	2.30061
0.783834	2.33742
0.819695	2.35583
0.850434	2.35583
0.876049	2.33742
0.901665	2.37423
0.937527	2.39264
0.988758	2.41104
1.00925	2.41104
