Adsorption isotherm of Hydrogen on MAMS-1
DOI: 10.1002/anie.200604353
Adsorbate Hydrogen: InChIKey UFHFLCQGNIYNRP-UHFFFAOYSA-N
Temperature: 77 K
Tabular data in the source: 0
pressure (bar)	uptake (mmol/g)
0.0226162	0.0276097
0.0621947	0.0417969
0.090465	0.0558312
0.121562	0.0699037
0.15266	0.11128
0.175276	0.111586
0.200719	0.11193
0.245952	0.126194
0.282703	0.153995
0.325109	0.181872
0.364687	0.209711
0.404265	0.223898
0.443844	0.265389
0.483422	0.293229
0.531482	0.348486
0.565406	0.362597
0.607812	0.404126
0.64739	0.445617
0.678487	0.45969
0.712412	0.501104
0.749163	0.528905
0.785915	0.570358
0.822666	0.584507
0.85659	0.612269
0.896169	0.640109
0.93292	0.667909
0.969672	0.682058
0.997942	0.709745
