Adsorption isotherm of Isobutane on MAMS-1
DOI: 10.1002/anie.200604353
Adsorbate Isobutane: InChIKey NNPPMTNAJDCUHE-UHFFFAOYSA-N
Temperature: 195 K
Tabular data in the source: 0
pressure (bar)	uptake (mmol/g)
0.00138736	0.0246914
0.0291347	0.0246914
0.056882	0.0740741
0.0707556	0.0987654
0.0887913	0.123457
0.10544	0.148148
0.119313	0.197531
0.1318	0.222222
0.145673	0.222222
0.172033	0.296296
0.185907	0.320988
0.208105	0.395062
0.221978	0.444444
0.246951	0.54321
0.259437	0.641975
0.271923	0.765432
