Adsorption isotherm of Propene on MAMS-1
DOI: 10.1002/anie.200604353
Adsorbate Propene: InChIKey QQONPFPTGQHPMA-UHFFFAOYSA-N
Temperature: 241 K
Tabular data in the source: 0
pressure (bar)	uptake (mmol/g)
0.0051231	0.888889
0.0256155	1.1358
0.0461079	1.30864
0.0717234	1.40741
0.102462	1.50617
0.117831	1.58025
0.14857	1.62963
0.184431	1.7284
0.240786	1.85185
0.276647	1.92593
0.312509	2
0.394478	2.12346
0.466202	2.2963
0.553294	2.49383
0.589156	2.5679
0.630141	2.66667
0.671126	2.83951
0.706987	2.88889
0.737726	2.98765
0.778711	3.06173
0.814572	3.16049
0.86068	3.35802
0.886296	3.4321
0.92728	3.58025
0.963142	3.7284
0.983635	3.82716
