Adsorption isotherm of Nitrogen on MAMS-1
DOI: 10.1002/anie.200604353
Adsorbate Nitrogen: InChIKey IJGRMHOSHXDMSA-UHFFFAOYSA-N
Temperature: 77 K
Tabular data in the source: 0
pressure (bar)	uptake (mmol/g)
0.0209016	0.0149555
0.0686768	0.00832304
0.107494	0.0162126
0.164227	0.0170362
0.185129	0.0173397
0.20603	0.0249691
0.244848	0.0255327
0.286651	0.0407916
0.325468	0.0413551
0.370257	0.0566573
0.409075	0.0645469
0.447892	0.0724364
0.489695	0.0876953
0.531499	0.0956282
0.56733	0.1108
0.609133	0.126059
0.650936	0.148644
0.671838	0.148948
0.710655	0.164163
0.737529	0.186531
0.755445	0.194118
0.78829	0.209246
0.809192	0.224202
0.833079	0.246527
0.856967	0.261525
0.88384	0.276568
0.907728	0.306218
0.931615	0.335869
0.955503	0.372846
0.982376	0.43917
0.988348	0.475887
0.997306	0.527299
1.00328	0.600646
