Adsorption isotherm of Ethene on MAMS-1
DOI: 10.1002/anie.200604353
Adsorbate Ethene: InChIKey VGGSQFUCUMXWEO-UHFFFAOYSA-N
Temperature: 143 K
Tabular data in the source: 0
pressure (bar)	uptake (mmol/g)
0.000793624	0.0217139
0.0143395	0.153204
0.0382616	0.307724
0.0486329	0.352358
0.0542031	0.439543
0.0621738	0.505452
0.0701495	0.549757
0.0861107	0.595159
0.115633	0.707238
0.156334	0.820852
