Adsorption isotherm of Hydrogen on MAMS-1
DOI: 10.1002/anie.200604353
Adsorbate Hydrogen: InChIKey UFHFLCQGNIYNRP-UHFFFAOYSA-N
Temperature: 77 K
Tabular data in the source: 0
pressure (bar)	uptake (mmol/g)
0.0197892	0.0412233
0.0424055	0.0961367
0.0537136	0.164549
0.0735028	0.219424
0.093292	0.274299
0.124389	0.288372
0.15266	0.302406
0.178103	0.316402
0.212027	0.330513
0.240298	0.344547
0.282703	0.372425
0.325109	0.38665
0.36186	0.400799
0.404265	0.401373
0.446671	0.442902
0.486249	0.457089
0.528655	0.471315
0.565406	0.485464
0.604985	0.513303
0.644563	0.52749
0.670006	0.541486
0.69545	0.555482
0.732201	0.583283
0.754817	0.610893
0.80005	0.625157
0.839628	0.666648
0.865071	0.707947
0.898996	0.73571
0.938574	0.763549
0.978153	0.791388
1.00077	0.791694
