Adsorption isotherm of Carbon monoxide on MAMS-1
DOI: 10.1002/anie.200604353
Adsorbate Carbon monoxide: InChIKey UGFAIRIUMAVXCW-UHFFFAOYSA-N
Temperature: 87 K
Tabular data in the source: 0
pressure (bar)	uptake (mmol/g)
0.0614772	0.182927
0.0870926	0.152439
0.117831	0.182927
0.133201	0.182927
0.163939	0.182927
0.179308	0.182927
0.204924	0.213415
0.240786	0.213415
0.286893	0.243902
0.327878	0.27439
0.368863	0.27439
0.409848	0.304878
0.445709	0.304878
0.486694	0.304878
0.532802	0.365854
0.568664	0.396341
0.604525	0.426829
0.650633	0.457317
0.681372	0.487805
0.706987	0.518293
0.737726	0.579268
0.773588	0.579268
0.809449	0.640244
0.850434	0.70122
0.906788	0.731707
0.947773	0.823171
0.993881	0.884146
1.0195	0.884146
