Adsorption isotherm of Nitrogen on MAMS-1
DOI: 10.1002/anie.200604353
Adsorbate Nitrogen: InChIKey IJGRMHOSHXDMSA-UHFFFAOYSA-N
Temperature: 77 K
Tabular data in the source: 0
pressure (bar)	uptake (mmol/g)
0.0308954	0.0487805
0.0926862	0.0243902
0.242014	0.0243902
0.278059	0.0243902
0.324402	0.0487805
0.525222	0.121951
0.571565	0.121951
0.60761	0.146341
0.669401	0.146341
0.731191	0.170732
0.792982	0.219512
0.839325	0.268293
0.865071	0.268293
0.911415	0.317073
0.952608	0.390244
0.983504	0.463415
1.0041	0.512195
