Adsorption isotherm of Isobutane on MAMS-1
DOI: 10.1002/anie.200604353
Adsorbate Isobutane: InChIKey NNPPMTNAJDCUHE-UHFFFAOYSA-N
Temperature: 295 K
Tabular data in the source: 0
pressure (bar)	uptake (mmol/g)
0.0367707	0.0170648
0.070753	0.0682594
0.107562	0.119454
0.12739	0.153584
0.161411	0.238908
0.189778	0.324232
0.220972	0.409556
0.246511	0.494881
0.286206	0.59727
0.328765	0.733788
0.371344	0.887372
0.40827	1.04096
0.456541	1.22867
0.493486	1.39932
0.533296	1.6041
0.575894	1.77474
0.612858	1.96246
0.658322	2.16724
0.683958	2.33788
0.706767	2.50853
0.726672	2.61092
0.769387	2.88396
0.786503	3.02048
0.829217	3.29352
0.869105	3.56655
0.908992	3.83959
0.948898	4.12969
0.991574	4.3686
