Adsorption isotherm of Hydrogen on MAMS-1
DOI: 10.1002/anie.200604353
Adsorbate Hydrogen: InChIKey UFHFLCQGNIYNRP-UHFFFAOYSA-N
Temperature: 77 K
Tabular data in the source: 0
pressure (bar)	uptake (mmol/g)
0.00514923	0.00514923
0.0102985	1.2439
0.0308954	1.5122
0.0360446	1.65854
0.0463431	1.73171
0.0566416	1.87805
0.0669401	1.97561
0.0772385	2.04878
0.0978355	2.17073
0.113283	2.2439
0.13388	2.34146
0.159626	2.41463
0.180223	2.4878
0.195671	2.53659
0.242014	2.60976
0.278059	2.68293
0.319253	2.7561
0.365596	2.80488
0.40164	2.85366
0.437685	2.90244
0.484028	2.95122
0.525222	3
0.561267	3.02439
0.60761	3.02439
0.643654	3.04878
0.669401	3.09756
0.705445	3.12195
0.731191	3.17073
0.787833	3.19512
0.839325	3.19512
0.885668	3.21951
0.94231	3.26829
0.978355	3.26829
1.00925	3.2439
