Adsorption isotherm of Methane on MAMS-1
DOI: 10.1002/anie.200604353
Adsorbate Methane: InChIKey VNWKTOKETHGBQD-UHFFFAOYSA-N
Temperature: 143 K
Tabular data in the source: 0
pressure (bar)	uptake (mmol/g)
0.0134082	1.33979
0.0182781	1.51274
0.0283026	1.66419
0.0383587	1.79403
0.06878	2.01073
0.0891453	2.09759
0.109542	2.16284
0.13503	2.2498
0.155396	2.33666
0.19113	2.42384
0.23711	2.51125
0.31895	2.59942
0.370116	2.64373
0.411036	2.68781
0.441743	2.71007
0.482663	2.75416
0.523583	2.79825
0.559412	2.82062
0.610578	2.86492
0.641252	2.90879
0.661741	2.90923
0.687325	2.93138
0.723123	2.97536
0.764046	3.01944
0.784472	3.06309
0.81515	3.10696
0.866311	3.15126
0.902173	3.15203
0.932851	3.1959
0.984012	3.2402
1.00454	3.21903
