Adsorption isotherm of Carbon Dioxide on MAMS-1
DOI: 10.1002/anie.200604353
Adsorbate Carbon Dioxide: InChIKey CURLTUGMZLYLDI-UHFFFAOYSA-N
Temperature: 195 K
Tabular data in the source: 0
pressure (bar)	uptake (mmol/g)
0.00562256	0.423729
0.00843384	0.694915
0.0281128	1.27119
0.0337354	1.45763
0.0421692	1.62712
0.0562256	1.79661
0.0815272	2.0339
0.120885	2.27119
0.143375	2.38983
0.168677	2.47458
0.19679	2.62712
0.236148	2.69492
0.286751	2.83051
0.320486	2.89831
0.402013	3.0678
0.449805	3.15254
0.565068	3.33898
0.604425	3.42373
0.649406	3.47458
0.674708	3.54237
0.705632	3.57627
0.756235	3.69492
0.815272	3.76271
0.891176	3.91525
0.938968	3.98305
0.967081	4.0339
1.00925	4.05085
