Adsorption isotherm of Methane on MAMS-1
DOI: 10.1002/anie.200604353
Adsorbate Methane: InChIKey VNWKTOKETHGBQD-UHFFFAOYSA-N
Temperature: 113 K
Tabular data in the source: 0
pressure (bar)	uptake (mmol/g)
0.0051231	0.0552147
0.0256155	0.0920245
0.0461079	0.128834
0.0717234	0.184049
0.107585	0.239264
0.117831	0.257669
0.163939	0.294479
0.194678	0.312883
0.261278	0.349693
0.307386	0.386503
0.368863	0.423313
0.414971	0.460123
0.461079	0.496933
0.491817	0.496933
0.522556	0.533742
0.568664	0.533742
0.604525	0.570552
0.640387	0.570552
0.671126	0.588957
0.691618	0.607362
0.753095	0.607362
0.79408	0.625767
0.829942	0.625767
0.881173	0.625767
0.917034	0.662577
0.958019	0.662577
1.00413	0.699387
