Adsorption isotherm of Ethene on MAMS-1
DOI: 10.1002/anie.200604353
Adsorbate Ethene: InChIKey VGGSQFUCUMXWEO-UHFFFAOYSA-N
Temperature: 195 K
Tabular data in the source: 0
pressure (bar)	uptake (mmol/g)
0.0051231	1.38272
0.0153693	1.70679
0.0256155	1.79321
0.0358617	1.87963
0.0563541	1.98765
0.0768464	2.05247
0.0973388	2.13889
0.117831	2.2037
0.14857	2.26852
0.179308	2.31173
0.199801	2.37654
0.235662	2.44136
0.276647	2.46296
0.312509	2.52778
0.353494	2.57099
0.399602	2.6142
0.445709	2.6358
0.476448	2.67901
0.522556	2.70062
0.604525	2.76543
0.640387	2.80864
0.686495	2.85185
0.717234	2.91667
0.763341	2.95988
0.799203	3.00309
0.855557	3.02469
0.891419	3.0679
0.932404	3.11111
0.958019	3.13272
0.993881	3.15432
1.00413	3.21914
