Adsorption isotherm of Ethene on MAMS-1
DOI: 10.1002/anie.200604353
Adsorbate Ethene: InChIKey VGGSQFUCUMXWEO-UHFFFAOYSA-N
Temperature: 175 K
Tabular data in the source: 0
pressure (bar)	uptake (mmol/g)
0	8.88e-16
0.00347222	0.745455
0.0158777	1.27273
0.0310851	1.43636
0.0402162	1.54545
0.0523689	1.65455
0.0796522	1.8
0.103881	1.89091
0.125066	1.94545
0.161392	2.05455
0.200718	2.12727
0.240055	2.21818
0.282403	2.29091
0.324762	2.38182
0.361055	2.43636
0.400404	2.54545
0.442795	2.69091
0.491187	2.76364
0.530513	2.83636
0.578893	2.89091
0.627284	2.96364
0.651491	3.01818
0.690795	3.05455
0.730132	3.14545
0.772458	3.18182
0.811773	3.23636
0.839002	3.29091
0.872251	3.30909
0.923653	3.36364
0.947838	3.38182
0.978088	3.43636
1.00227	3.45455
