Adsorption isotherm of Carbon Dioxide on MAMS-1
DOI: 10.1002/anie.200604353
Adsorbate Carbon Dioxide: InChIKey CURLTUGMZLYLDI-UHFFFAOYSA-N
Temperature: 195 K
Tabular data in the source: 0
pressure (bar)	uptake (mmol/g)
0.0140564	0.0508475
0.0590369	0.135593
0.101206	0.220339
0.151809	0.237288
0.199601	0.271186
0.238959	0.305085
0.283939	0.322034
0.317675	0.355932
0.362655	0.40678
0.402013	0.440678
0.444182	0.457627
0.520087	0.508475
0.567879	0.542373
0.640972	0.59322
0.68033	0.644068
0.733744	0.694915
0.801215	0.79661
0.857441	0.864407
0.9221	0.949153
0.964269	1
0.998005	1.05085
