Adsorption isotherm of Oxygen on MAMS-1
DOI: 10.1002/anie.200604353
Adsorbate Oxygen: InChIKey MYMOFIZGZYHOMD-UHFFFAOYSA-N
Temperature: 87 K
Tabular data in the source: 0
pressure (bar)	uptake (mmol/g)
0.0062939	0.488114
0.0220286	0.854742
0.0251756	0.94636
0.0377634	1.12991
0.0472042	1.22183
0.0566451	1.34425
0.0660859	1.43618
0.0786737	1.58923
0.0849676	1.68101
0.100702	1.83422
0.11329	1.9263
0.119584	2.04856
0.151054	2.23304
0.173082	2.47802
0.198258	2.60121
0.229727	2.7552
0.245462	2.81695
0.267491	2.93998
0.308401	3.09443
0.33043	3.24796
0.361899	3.31048
0.383928	3.40303
0.409103	3.43475
0.427985	3.52714
0.450014	3.61969
0.472042	3.71224
0.487777	3.7435
0.506659	3.86638
0.528687	3.92844
0.544422	3.99019
0.563304	4.08258
0.58848	4.08382
0.604214	4.17606
0.619949	4.2378
