Adsorption isotherm of Nitrogen on MAMS-1
DOI: 10.1002/anie.200604353
Adsorbate Nitrogen: InChIKey IJGRMHOSHXDMSA-UHFFFAOYSA-N
Temperature: 87 K
Tabular data in the source: 0
pressure (bar)	uptake (mmol/g)
0.0461079	0.0304878
0.0973388	0.0304878
0.128077	0.0609756
0.153693	0.0609756
0.204924	0.0304878
0.245909	0.0609756
0.28177	0.0609756
0.327878	0.121951
0.36374	0.121951
0.409848	0.152439
0.445709	0.182927
0.486694	0.182927
0.522556	0.213415
0.563541	0.243902
0.609648	0.27439
0.64551	0.335366
0.681372	0.335366
0.717234	0.365854
0.758218	0.396341
0.809449	0.426829
0.850434	0.487805
0.881173	0.54878
0.932404	0.579268
0.963142	0.640244
0.999004	0.640244
