Adsorption isotherm of Carbon monoxide on MAMS-1
DOI: 10.1002/anie.200604353
Adsorbate Carbon monoxide: InChIKey UGFAIRIUMAVXCW-UHFFFAOYSA-N
Temperature: 113 K
Tabular data in the source: 0
pressure (bar)	uptake (mmol/g)
0.0102462	0.0552147
0.0409848	0.110429
0.0614772	0.184049
0.117831	0.257669
0.158816	0.294479
0.179308	0.312883
0.199801	0.349693
0.251032	0.404908
0.28177	0.423313
0.317632	0.460123
0.36374	0.496933
0.404725	0.515337
0.450832	0.533742
0.491817	0.570552
0.532802	0.588957
0.563541	0.588957
0.614772	0.644172
0.64551	0.644172
0.681372	0.662577
0.732603	0.662577
0.768464	0.680982
0.819695	0.699387
0.876049	0.717791
0.937527	0.754601
0.983635	0.754601
0.999004	0.754601
