Adsorption isotherm of Glycidol on SU-32b
DOI: 10.1016/j.memsci.2010.10.038
Adsorbate Glycidol: InChIKey CTKINSOISVBQLD-UHFFFAOYSA-N
Temperature: 250 K
Tabular data in the source: 0
pressure (bar)	uptake (molecules/unitcell)
3.02e-05	3.68656
7.3e-05	3.69958
0.0001	3.72562
0.000189	3.7777
0.000321	3.81675
0.000639	3.88185
0.001028	3.89487
0.00193952	3.89487
0.00312225	3.94694
0.00666462	3.92091
0.00965163	3.93393
0.0185335	3.92091
0.0337552	3.92091
0.0636855	3.92091
0.10073	3.94694
0.234832	3.90789
0.34008	3.93393
0.653039	3.92091
1.05127	3.95996
