Adsorption isotherm of Glycidol on SU-32b
DOI: 10.1016/j.memsci.2010.10.038
Adsorbate Glycidol: InChIKey CTKINSOISVBQLD-UHFFFAOYSA-N
Temperature: 350 K
Tabular data in the source: 0
pressure (bar)	uptake (molecules/unitcell)
3.02e-05	0.145354
9.51e-05	0.197431
0.000173	0.262527
0.000315	0.392718
0.000574	0.614044
0.000992	1.00462
0.00204488	1.6035
0.0031778	1.942
0.00578774	2.44974
0.00999809	2.80126
0.0188633	3.15278
0.0337552	3.38712
0.060404	3.60845
0.108091	3.73864
0.222731	3.97298
0.358555	4.11619
0.713232	4.24639
1.03289	4.35054
