Adsorption isotherm of Glycidol on SU-32b
DOI: 10.1016/j.memsci.2010.10.038
Adsorbate Glycidol: InChIKey CTKINSOISVBQLD-UHFFFAOYSA-N
Temperature: 300 K
Tabular data in the source: 0
pressure (bar)	uptake (molecules/unitcell)
3.08e-05	0.848388
5.91e-05	1.52538
9.68e-05	2.17634
0.000145	2.46276
0.00021	2.65805
0.000304	2.85334
0.000535	3.08768
0.00101003	3.32203
0.00183958	3.51731
0.00306768	3.67354
0.00621073	3.81675
0.010176	3.86883
0.0209685	3.93393
0.0331652	3.92091
0.0859473	4.02506
0.108091	4.03808
0.186723	4.10317
0.334136	4.14223
0.641624	4.16827
1.05127	4.23337
