Adsorption isotherm of Glycidol on SU-32b
DOI: 10.1016/j.memsci.2010.10.038
Adsorbate Glycidol: InChIKey CTKINSOISVBQLD-UHFFFAOYSA-N
Temperature: 300 K
Tabular data in the source: 0
pressure (bar)	uptake (molecules/unitcell)
3.08e-05	0.952542
9.85e-05	2.95749
0.00017	3.84279
0.000289	4.46771
0.000526	4.80621
0.000992	4.98848
0.00312225	5.13169
0.010357	5.28792
0.0325855	5.35301
0.102522	5.39207
0.334136	5.47019
1.03289	5.60038
