Adsorption isotherm of Glycidol on SU-32b
DOI: 10.1016/j.memsci.2010.10.038
Adsorbate Glycidol: InChIKey CTKINSOISVBQLD-UHFFFAOYSA-N
Temperature: 250 K
Tabular data in the source: 0
pressure (bar)	uptake (molecules/unitcell)
3.08e-05	5.0015
9.85e-05	5.50924
0.000304	5.86076
0.001028	6.01699
0.00312225	6.23831
0.010176	6.34247
0.0331652	6.31643
0.102522	6.44662
0.34008	6.44662
1.08901	6.44662
