Adsorption isotherm of Glycidol on SU-32b
DOI: 10.1016/j.memsci.2010.10.038
Adsorbate Glycidol: InChIKey CTKINSOISVBQLD-UHFFFAOYSA-N
Temperature: 350 K
Tabular data in the source: 0
pressure (bar)	uptake (molecules/unitcell)
3.02e-05	0.132335
0.0001	0.184412
0.000203	0.275546
0.000315	0.418757
0.000574	0.757254
0.00101003	1.25198
0.00197402	2.04615
0.0031778	2.69711
0.00493838	3.25693
0.00690387	3.6475
0.010357	4.01204
0.0147367	4.22035
0.0225009	4.40262
0.0331652	4.53281
0.0583108	4.75413
0.104346	4.96244
0.186723	5.0015
0.328295	5.02753
0.557204	5.06659
1.05127	5.14471
