Adsorption isotherm of Ethane on UiO-66(Zr)
DOI: 10.1021/Jp509672c
Adsorbate Ethane: InChIKey OTMSDBZUPAUEDD-UHFFFAOYSA-N
Temperature: 303 K
Tabular data in the source: 0
pressure (bar)	uptake (mmol/g)
1.49278	0.858296
2.30049	1.35908
2.86925	1.70831
3.3708	1.97016
3.92387	2.25656
4.42284	2.4807
4.84938	2.64268
5.26845	2.81685
5.80315	2.9789
6.24676	3.11589
7.30523	3.40236
8.27191	3.60189
9.19556	3.76408
10.557	3.97618
11.4689	4.08862
