Adsorption isotherm of N-Butane on UiO-66(Zr)
DOI: 10.1021/Jp509672c
Adsorbate N-Butane: InChIKey IJDNQMDRQITEOD-UHFFFAOYSA-N
Temperature: 303 K
Tabular data in the source: 0
pressure (bar)	uptake (mmol/g)
0.00211802	5.72483
0.00234623	5.56012
0.00283041	5.31508
0.00324422	5.09961
0.00419006	4.75926
0.00532022	4.40392
0.00723203	3.95326
0.0108903	3.3379
0.0211802	2.3946
0.0472139	1.329
0.122713	0.0132275
0.33568	-1.66751
