Adsorption isotherm of N-propane on UiO-66(Zr)
DOI: 10.1021/Jp509672c
Adsorbate N-propane: InChIKey ATUOYWHBWRKTHZ-UHFFFAOYSA-N
Temperature: 303 K
Tabular data in the source: 0
pressure (bar)	uptake (mmol/g)
0.00546097	0.783133
0.0241891	1.3253
0.0703915	1.77108
0.127538	2.13253
0.235296	2.49398
0.374063	2.75904
0.924564	3.19277
1.70128	3.49398
2.55512	3.6988
4.52282	3.93976
5.85943	4.07229
8.00582	4.18072
9.62786	4.26506
10.583	4.36145
