Adsorption isotherm of N-propane on UiO-66(Zr)
DOI: 10.1021/Jp509672c
Adsorbate N-propane: InChIKey ATUOYWHBWRKTHZ-UHFFFAOYSA-N
Temperature: 303 K
Tabular data in the source: 0
pressure (bar)	uptake (mmol/g)
0.00541951	1.0241
0.0248245	1.50602
0.127205	2.07229
0.234314	2.39759
0.407752	2.66265
0.898549	2.95181
1.7152	3.26506
2.61756	3.42169
4.46175	3.62651
5.8827	3.74699
7.60128	3.81928
9.47801	3.90361
11.4104	4.01205
