Adsorption isotherm of Ethane on UiO-66(Zr)
DOI: 10.1021/Jp509672c
Adsorbate Ethane: InChIKey OTMSDBZUPAUEDD-UHFFFAOYSA-N
Temperature: 303 K
Tabular data in the source: 0
pressure (bar)	uptake (mmol/g)
1.48624	1.08045
2.35458	1.6434
2.8964	1.95538
3.37152	2.20473
3.96074	2.42955
4.44397	2.66597
4.85015	2.81552
5.26918	2.965
5.77733	3.12698
6.24754	3.25169
7.30606	3.52582
8.31086	3.71307
9.15476	3.92451
10.5104	4.14895
11.4185	4.31078
