Adsorption isotherm of N-Butane on UiO-66(Zr)
DOI: 10.1021/Jp509672c
Adsorbate N-Butane: InChIKey IJDNQMDRQITEOD-UHFFFAOYSA-N
Temperature: 303 K
Tabular data in the source: 0
pressure (bar)	uptake (mmol/g)
0.0023866	5.6248
0.00268924	5.42539
0.00330005	5.15187
0.00426216	4.83015
0.00579375	4.45403
0.00814911	3.99609
0.0122713	3.45526
0.0178587	2.8596
0.0268924	2.17591
0.0966474	0.244345
0.251189	-1.40062
