Adsorption isotherm of Carbon Dioxide on Pocahontas No. 3 Coal
DOI: 10.1016/j.fuel.2003.11.005
Article source: Figure 5
Adsorbate Carbon Dioxide: InChIKey CURLTUGMZLYLDI-UHFFFAOYSA-N
Kind: experiment
Isotherm type: excess
Temperature: 295 K
Tabular data in the source: 0
pressure (bar)	uptake (mmol/g)
1.73913	0.574895
2.08696	0.638186
3.36232	0.791139
3.53623	0.801688
5.62319	0.944093
6.84058	1.00738
10.4928	1.11287
11.4203	1.14451
15.8261	1.23418
16.9855	1.25527
20.9855	1.31857
23.8261	1.35549
26.6087	1.37658
28	1.39768
32.3478	1.44515
33.7391	1.46097
35.5942	1.48734
