Adsorption isotherm of Carbon Dioxide on Illinois No. 6 Coal
DOI: 10.1016/j.fuel.2003.11.005
Article source: Figure 5
Adsorbate Carbon Dioxide: InChIKey CURLTUGMZLYLDI-UHFFFAOYSA-N
Kind: experiment
Isotherm type: excess
Temperature: 295 K
Tabular data in the source: 0
pressure (bar)	uptake (mmol/g)
2.36337	0.763123
6.14476	1.0852
6.20384	1.19809
10.1034	1.41262
12.2895	1.40695
16.4254	1.68059
21.3294	1.7552
23.8109	1.92153
29.8966	2.07125
30.3693	2.12495
34.9778	2.22111
