Adsorption isotherm of Carbon Dioxide on Upper Freeport Coal
DOI: 10.1016/j.fuel.2003.11.005
Article source: Figure 5
Adsorbate Carbon Dioxide: InChIKey CURLTUGMZLYLDI-UHFFFAOYSA-N
Kind: experiment
Isotherm type: excess
Temperature: 295 K
Tabular data in the source: 0
pressure (bar)	uptake (mmol/g)
2.23859	0.51694
5.36082	0.807468
6.71576	0.920432
10.8984	1.07612
11.7231	1.0329
16.9072	1.15613
20.7953	1.17177
23.5052	1.23067
29.6907	1.26755
30.81	1.29434
35.6406	1.32602
