Adsorption isotherm of Carbon Dioxide on Beulah Zap Coal
DOI: 10.1016/j.fuel.2003.11.005
Article source: Figure 5
Adsorbate Carbon Dioxide: InChIKey CURLTUGMZLYLDI-UHFFFAOYSA-N
Kind: experiment
Isotherm type: excess
Temperature: 295 K
Tabular data in the source: 0
pressure (bar)	uptake (mmol/g)
1.61671	0.806058
5.47143	1.16809
7.72738	1.48164
10.7451	1.48123
11.9332	1.67587
16.5487	1.68066
18.3283	1.86981
23.1218	1.89622
24.3075	1.99346
30.3457	2.10628
30.5828	2.12249
35.2012	2.25173
