Adsorption isotherm of Carbon Dioxide on Lewiston-Stockton Coal
DOI: 10.1016/j.fuel.2003.11.005
Article source: Figure 5
Adsorbate Carbon Dioxide: InChIKey CURLTUGMZLYLDI-UHFFFAOYSA-N
Kind: experiment
Isotherm type: excess
Temperature: 295 K
Tabular data in the source: 0
pressure (bar)	uptake (mmol/g)
1.87288	0.519734
5.93142	0.785434
6.98938	0.888391
11.1094	1.04588
11.2879	0.970142
16.8806	1.12782
17.3499	1.21447
23.7114	1.2478
23.7689	1.30733
30.4831	1.37317
30.9544	1.37324
35.3118	1.45499
