Adsorption isotherm of Carbon Dioxide on Pittsburgh No. 8 Coal
DOI: 10.1016/j.fuel.2003.11.005
Article source: Figure 5
Adsorbate Carbon Dioxide: InChIKey CURLTUGMZLYLDI-UHFFFAOYSA-N
Kind: experiment
Isotherm type: excess
Temperature: 295 K
Tabular data in the source: 0
pressure (bar)	uptake (mmol/g)
1.52437	0.404968
5.64677	0.718143
7.35552	0.809935
11.3058	0.917927
11.6001	0.944924
17.0839	1.06911
17.9091	1.10151
23.8656	1.1933
24.1019	1.18251
30.3532	1.2851
31.3562	1.2797
35.8381	1.36069
