Adsorption isotherm of Carbon Dioxide on Blind Canyon Coal
DOI: 10.1016/j.fuel.2003.11.005
Article source: Figure 5
Adsorbate Carbon Dioxide: InChIKey CURLTUGMZLYLDI-UHFFFAOYSA-N
Kind: experiment
Isotherm type: excess
Temperature: 295 K
Tabular data in the source: 0
pressure (bar)	uptake (mmol/g)
1.4328	0.535714
5.05149	0.925325
6.535	1.1039
10.3855	1.28788
11.6861	1.23918
16.4844	1.46645
21.3971	1.52597
23.4112	1.62338
30.5136	1.69913
30.8103	1.73701
36.2555	1.79654
