Adsorption isotherm of Carbon Dioxide on Wyodak Coal
DOI: 10.1016/j.fuel.2003.11.005
Article source: Figure 5
Adsorbate Carbon Dioxide: InChIKey CURLTUGMZLYLDI-UHFFFAOYSA-N
Kind: experiment
Isotherm type: excess
Temperature: 295 K
Tabular data in the source: 0
pressure (bar)	uptake (mmol/g)
1.04348	0.57611
2.31884	1.07822
2.43478	0.887949
3.76812	1.26321
5.44928	1.19979
5.73913	1.42706
9.33333	1.63319
10.087	1.4852
14.4348	1.69133
15.7101	1.90275
19.5362	1.88689
22.5507	1.98203
27.1304	2.11945
30.7246	2.30973
31.4783	2.25687
34.8986	2.34672
