Adsorption isotherm of Nitrogen on Manganese Oxide (from 0.1 wt% KMnO4: PVA 1:1)
DOI: 10.1134/s0036024417080143
Article source: Figure 4
Adsorbate Nitrogen: InChIKey IJGRMHOSHXDMSA-UHFFFAOYSA-N
Kind: experiment
Temperature: 77 K
Tabular data in the source: 0
pressure (bar)	uptake (cm3(STP)/g)
0.065282	5.439
0.074564	5.518
0.116866	5.996
0.158814	6.434
0.196303	7.152
0.236812	7.75
0.345552	9.502
0.445396	12.018
0.544804	13.626
0.645995	15.032
0.736405	16.54
0.737297	19.264
0.779123	20.674
0.796672	17.848
0.817798	23.294
0.836695	20.569
0.873121	27.629
0.873577	22.786
0.898755	31.663
0.901461	25.811
0.919435	37.615
0.920793	28.534
0.940136	30.854
0.942365	46.492
0.949123	33.375
0.963967	39.125
0.964392	56.882
0.974302	43.665
0.981486	51.433
0.98643	58.798
