Adsorption isotherm of Nitrogen on Manganese Oxide (from 0.3 wt% KMnO4: PVA 1:3)
DOI: 10.1134/s0036024417080143
Article source: Figure 4
Adsorbate Nitrogen: InChIKey IJGRMHOSHXDMSA-UHFFFAOYSA-N
Kind: experiment
Temperature: 77 K
Tabular data in the source: 0
pressure (bar)	uptake (cm3(STP)/g)
0.351175	4.552
0.454657	6.305
0.553203	7.553
0.654374	8.893
0.748291	12.115
0.748574	10.783
0.807129	12.028
0.808578	14.324
0.848286	16.761
0.849735	14.235
0.883364	20.392
0.885391	16.397
0.895543	23.102
0.916993	28.018
0.91902	19.43
0.932932	34.081
0.934958	22.325
0.947421	41.798
0.949163	25.311
0.960755	28.986
0.968293	54.245
0.97264	33.763
0.979307	66.416
0.979885	39.183
0.988294	45.245
0.992357	58.196
0.992641	53.604
0.994668	62.605
0.995833	67.106
0.998153	72.204
