Adsorption isotherm of Nitrogen on Manganese Oxide (from 0.1 wt% KMnO4; PVA 1:5)
DOI: 10.1134/s0036024417080143
Article source: Figure 4
Adsorbate Nitrogen: InChIKey IJGRMHOSHXDMSA-UHFFFAOYSA-N
Kind: experiment
Temperature: 77 K
Tabular data in the source: 0
pressure (bar)	uptake (cm3(STP)/g)
0.063094	4.979
0.075242	5.18
0.114819	4.976
0.160252	6.184
0.194429	6.485
0.23356	7.289
0.346008	8.493
0.44495	11.513
0.546597	13.828
0.646441	17.05
0.739546	19.869
0.74134	21.382
0.779123	23.095
0.797118	21.782
0.821851	26.321
0.837141	24.403
0.874914	30.454
0.876718	27.831
0.900549	30.755
0.902798	35.396
0.921685	41.347
0.922586	33.276
0.936528	36.302
0.938768	50.124
0.950015	40.438
0.960805	44.674
0.962579	71.108
0.965304	49.618
0.972893	98.449
0.977878	62.935
0.980574	68.282
0.98416	73.528
0.98641	79.682
0.993107	119.433
