Adsorption isotherm of Nitrogen on Manganese Oxide (from 0.5 wt% KMnO4: PVA 1:3)
DOI: 10.1134/s0036024417080143
Article source: Figure 4
Adsorbate Nitrogen: InChIKey IJGRMHOSHXDMSA-UHFFFAOYSA-N
Kind: experiment
Temperature: 77 K
Tabular data in the source: 0
pressure (bar)	uptake (cm3(STP)/g)
0.061767	3.435
0.072122	3.269
0.116055	3.214
0.156422	4.148
0.192493	4.423
0.239649	4.642
0.348227	5.74
0.448253	8.049
0.449317	6.784
0.548613	7.772
0.551835	10.138
0.653635	12.227
0.653989	9.201
0.726152	13.822
0.744005	10.795
0.80259	12.389
0.806166	17.177
0.841883	13.984
0.842247	20.974
0.880456	16.68
0.884043	23.834
0.910823	19.431
0.911198	28.677
0.928331	22.458
0.92978	34.95
0.94123	42.38
0.948697	25.979
0.955172	47.112
0.957279	29.887
0.961971	55.037
0.971221	35.39
0.975872	40.232
0.978061	67.804
0.984809	46.341
0.993077	73.142
0.99484	59.934
0.996998	68.464
