Adsorption isotherm of Nitrogen on Manganese Oxide (from 0.5 wt% KMnO4: PVA 1:1)
DOI: 10.1134/s0036024417080143
Article source: Figure 4
Adsorbate Nitrogen: InChIKey IJGRMHOSHXDMSA-UHFFFAOYSA-N
Kind: experiment
Temperature: 77 K
Tabular data in the source: 0
pressure (bar)	uptake (cm3(STP)/g)
0.062486	2.115
0.239295	3.102
0.348602	4.201
0.458618	4.75
0.552565	5.684
0.651507	6.397
0.742232	6.726
0.745454	7.937
0.787249	8.982
0.805467	8.101
0.829045	9.752
0.8394	8.706
0.859776	11.349
0.881561	10.192
0.892645	13.55
0.90828	15.867
0.912282	11.127
0.924643	18.753
0.932476	12.999
0.947309	14.816
0.948778	24.176
0.957117	30.201
0.959103	17.486
0.966216	35.707
0.970208	39.029
0.97109	21.285
0.97646	42.35
0.978608	24.699
0.985771	28.636
0.991344	34.528
0.991891	37.749
0.992803	40.557
0.995326	44.989
