Adsorption isotherm of Nitrogen on Manganese Oxide (from 0.3 wt% KMnO4: PVA 1:1)
DOI: 10.1134/s0036024417080143
Article source: Figure 4
Adsorbate Nitrogen: InChIKey IJGRMHOSHXDMSA-UHFFFAOYSA-N
Kind: experiment
Temperature: 77 K
Tabular data in the source: 0
pressure (bar)	uptake (cm3(STP)/g)
0.066853	5.446
0.082497	5.994
0.121608	6.507
0.161418	7.021
0.201673	7.753
0.244239	8.012
0.352756	8.887
0.452093	9.936
0.455011	10.284
0.555078	12.49
0.653685	11.457
0.658062	14.003
0.74133	12.852
0.747176	16.44
0.808527	18.991
0.843595	15.522
0.847972	20.73
0.864772	21.657
0.894723	23.511
0.913711	19.231
0.916629	24.67
0.934897	20.968
0.942932	28.491
0.94585	22.126
0.964838	24.211
0.967027	34.279
0.978719	26.411
0.983826	28.031
0.986025	42.034
0.989672	30.578
0.995519	32.661
0.996248	34.397
1.00574	49.557
