Adsorption isotherm of Nitrogen on Manganese Oxide (from 0.3 wt% KMnO4: PVA 1:5)
DOI: 10.1134/s0036024417080143
Article source: Figure 4
Adsorbate Nitrogen: InChIKey IJGRMHOSHXDMSA-UHFFFAOYSA-N
Kind: experiment
Temperature: 77 K
Tabular data in the source: 0
pressure (bar)	uptake (cm3(STP)/g)
0.067319	3.113
0.078819	3.223
0.120007	3.628
0.161418	4.251
0.200295	4.655
0.243317	4.84
0.351449	6.198
0.454981	7.263
0.554369	9.13
0.654445	10.632
0.727145	12.461
0.790411	13.596
0.86771	19.564
0.885107	17.912
0.897853	24.802
0.916406	21.037
0.922789	29.764
0.935536	35.367
0.946559	26.826
0.954088	44.186
0.962791	30.777
0.97496	62.19
0.977281	40.698
0.985397	81.112
0.996988	62.835
1.00453	92.686
