Adsorption isotherm of Nitrogen on Manganese Oxide (from 0.1 wt% KMnO4; PVA 1:3)
DOI: 10.1134/s0036024417080143
Article source: Figure 4
Adsorbate Nitrogen: InChIKey IJGRMHOSHXDMSA-UHFFFAOYSA-N
Kind: experiment
Temperature: 77 K
Tabular data in the source: 0
pressure (bar)	uptake (cm3(STP)/g)
0.236711	4.363
0.346008	5.517
0.445629	7.78
0.544804	8.884
0.645549	10.29
0.733254	11.596
0.737307	12.706
0.793075	13.61
0.796227	15.325
0.834	17.341
0.836249	14.717
0.871783	21.677
0.873131	16.935
0.883476	23.088
0.901917	19.96
0.907307	27.93
0.922151	23.288
0.933377	38.925
0.936539	26.717
0.946428	30.046
0.957198	53.553
0.957675	35.191
0.964413	39.428
0.972052	43.564
0.972914	77.968
0.976997	48.306
0.982387	53.753
0.985082	57.385
0.991334	95.118
