Adsorption isotherm of Nitrogen on Manganese Oxide (from 0.5 wt% KMnO4: PVA 1:5)
DOI: 10.1134/s0036024417080143
Article source: Figure 4
Adsorbate Nitrogen: InChIKey IJGRMHOSHXDMSA-UHFFFAOYSA-N
Kind: experiment
Temperature: 77 K
Tabular data in the source: 0
pressure (bar)	uptake (cm3(STP)/g)
0.073287	0.763
0.131406	1.985
0.19605	2.638
0.348298	7.44
0.450077	10.67
0.548178	14.075
0.65024	17.655
0.653929	18.746
0.7421	22.501
0.802772	25.732
0.825458	27.304
0.841336	28.134
0.860617	30.011
0.881318	30.229
0.892088	32.37
0.906547	32.588
0.929243	38.222
0.944553	42.458
0.946245	37.086
0.957887	47.394
0.958161	39.139
0.962153	55.213
0.968374	42.021
0.975497	62.114
0.984262	49.097
0.989946	56.61
0.991354	52.941
0.991638	54.207
0.996765	66.743
