Adsorption isotherm of Nitrogen on UiO-66
DOI: 10.1039/c2nr30244f
Adsorbate Nitrogen: InChIKey IJGRMHOSHXDMSA-UHFFFAOYSA-N
Temperature: 77 K
Tabular data in the source: 0
pressure (bar)	uptake (a.u.)
0.00870799	81.0811
0.0241872	114.865
0.0419185	135.135
0.0707975	138.514
0.0907733	148.649
0.106312	155.405
0.126311	155.405
0.144087	155.405
0.164086	155.405
0.186298	158.784
0.206297	158.784
0.226295	158.784
0.239628	158.784
0.257396	162.162
0.275165	165.541
0.2996	168.919
0.315147	172.297
0.339597	168.919
0.355136	175.676
0.37292	172.297
0.386252	172.297
0.410687	175.676
0.428463	175.676
0.448461	175.676
0.464009	179.054
0.484014	175.676
0.50622	182.432
0.524003	179.054
0.546209	185.811
0.557334	179.054
0.579539	185.811
0.597316	185.811
0.619528	189.189
0.639534	185.811
0.65063	192.568
0.677309	185.811
0.686175	195.946
0.706189	189.189
0.73063	189.189
0.748407	189.189
0.770612	195.946
0.783944	195.946
0.803936	199.324
0.821711	199.324
0.843925	202.703
0.861708	199.324
0.883921	202.703
0.899475	202.703
0.921689	206.081
0.932799	206.081
0.957233	209.459
0.966122	209.459
1.00164	222.973
