Adsorption isotherm of Carbon Dioxide on UiO-66
DOI: 10.1039/c2nr30244f
Adsorbate Carbon Dioxide: InChIKey CURLTUGMZLYLDI-UHFFFAOYSA-N
Temperature: 307 K
Tabular data in the source: 0
pressure (bar)	uptake (cm3(STP)/g)
0.118573	5.79519
0.14823	6.81506
0.175604	7.83566
0.20525	9.19867
0.232636	9.87614
0.262304	10.5529
0.289666	11.9166
0.3193	13.6228
0.346697	13.9571
0.374071	14.9777
0.403739	15.6544
0.431123	16.3319
0.460791	17.0086
0.488165	18.0292
0.517823	19.0491
0.547503	19.3827
0.574875	20.4033
0.604545	21.08
0.631929	21.7575
0.659303	22.7781
0.686688	23.4556
0.716356	24.1323
0.74374	24.8097
0.773408	25.4865
0.803089	25.8201
0.832757	26.4968
0.860141	27.1743
0.887538	27.5086
0.914922	28.186
0.94459	28.8628
0.97426	29.5395
1.00163	30.5601
