Adsorption isotherm of Carbon Dioxide on UiO-66
DOI: 10.1039/c2nr30244f
Adsorbate Carbon Dioxide: InChIKey CURLTUGMZLYLDI-UHFFFAOYSA-N
Temperature: 273 K
Tabular data in the source: 0
pressure (bar)	uptake (cm3(STP)/g)
-0.00229372	0
0.0301799	5.51724
0.0579758	9.65517
0.0857263	13.1034
0.115748	16.2069
0.145792	19.6552
0.173475	22.069
0.203451	24.4828
0.231089	26.2069
0.258817	29.3103
0.316386	32.7586
0.346318	34.4828
0.373955	36.2069
0.40157	37.5862
0.431502	39.3103
0.463727	41.0345
0.489048	42.4138
0.51664	43.4483
0.546571	45.1724
0.576458	46.2069
0.606389	47.931
0.633981	48.9655
0.661619	50.6897
0.691483	51.3793
0.719076	52.4138
0.746691	53.7931
0.776599	55.1724
0.806484	56.2069
0.834077	57.2414
0.863964	58.2759
0.891556	59.3103
0.949034	61.3793
0.976604	62.069
1.00651	63.4483
