Adsorption isotherm of Carbon Dioxide on UiO-66
DOI: 10.1039/c2nr30244f
Adsorbate Carbon Dioxide: InChIKey CURLTUGMZLYLDI-UHFFFAOYSA-N
Temperature: 273 K
Tabular data in the source: 0
pressure (bar)	uptake (cm3(STP)/g)
0.0595087	8.04305
0.0869743	11.0204
0.116729	13.9972
0.146483	16.3769
0.173948	18.7573
0.231169	22.6219
0.288388	26.1879
0.315854	27.9713
0.345608	29.4555
0.373073	30.9404
0.402828	32.1261
0.430294	33.9094
0.460047	35.0951
0.489802	35.9823
0.517268	37.1687
0.544734	38.952
0.576777	39.8386
0.601953	41.0256
0.631708	41.9128
0.661462	43.0985
0.686638	43.9869
0.718682	44.8735
0.746148	46.3583
0.773614	47.2462
0.803367	48.4319
0.830833	49.0212
0.860588	50.2069
0.888052	51.0947
0.917807	51.9819
0.945273	52.8698
0.975026	53.757
1.00249	54.6448
