Adsorption isotherm of Carbon Dioxide on UiO-66
DOI: 10.1039/c2nr30244f
Adsorbate Carbon Dioxide: InChIKey CURLTUGMZLYLDI-UHFFFAOYSA-N
Temperature: 273 K
Tabular data in the source: 0
pressure (bar)	uptake (cm3(STP)/g)
0.0616652	7.46582
0.0890719	10.1162
0.118763	12.5268
0.146169	14.6964
0.17586	16.6262
0.205551	18.5559
0.232957	20.2448
0.262648	21.6938
0.290055	23.1423
0.317462	24.8312
0.347151	26.0398
0.379126	27.2489
0.401966	28.456
0.43394	29.6651
0.461347	30.6328
0.488753	31.8409
0.518444	33.0495
0.545851	33.7769
0.573258	34.7446
0.602948	35.9532
0.630355	36.6805
0.66233	37.8897
0.689737	38.617
0.719428	39.5852
0.746833	40.5529
0.776524	41.2808
0.803931	42.0081
0.831338	42.9758
0.858744	43.7032
0.890719	44.4315
0.915842	45.1583
0.945533	46.1266
0.975224	46.8544
1.00263	47.3414
