Adsorption isotherm of Carbon Dioxide on UiO-66
DOI: 10.1039/c2nr30244f
Adsorbate Carbon Dioxide: InChIKey CURLTUGMZLYLDI-UHFFFAOYSA-N
Temperature: 302 K
Tabular data in the source: 0
pressure (bar)	uptake (cm3(STP)/g)
0.127598	8.07692
0.157042	10
0.188957	11.5385
0.215953	13.0769
0.24788	14.2308
0.279793	15.7692
0.311708	17.3077
0.343622	18.8462
0.37309	20
0.405016	21.1538
0.434483	22.3077
0.466409	23.4615
0.495877	24.6154
0.527816	25.3846
0.55973	26.9231
0.589221	27.3077
0.618677	28.8462
0.650614	29.6154
0.680095	30.3846
0.712032	31.1538
0.741511	31.9231
0.770979	33.0769
0.802904	34.2308
0.864334	35.3846
0.893813	36.1538
0.925752	36.9231
0.955231	37.6923
0.98471	38.4615
1.01665	39.2308
1.04859	40
1.08052	40.7692
