Adsorption isotherm of Carbon Dioxide on UiO-66
DOI: 10.1039/c2nr30244f
Adsorbate Carbon Dioxide: InChIKey CURLTUGMZLYLDI-UHFFFAOYSA-N
Temperature: 273 K
Tabular data in the source: 0
pressure (bar)	uptake (cm3(STP)/g)
0.0322079	8.17204
0.0575271	15.0538
0.089649	20.2151
0.112623	24.9462
0.147016	29.6774
0.204274	35.2688
0.26153	40.8602
0.339355	46.8817
0.405735	52.043
0.458338	54.6237
0.515522	57.6344
0.577298	61.5054
0.632172	63.6559
0.689355	66.6667
0.753378	69.2473
0.803698	71.828
0.860856	73.9785
0.915719	75.6989
0.975161	77.8495
1.00489	79.1398
