Adsorption isotherm of Carbon Dioxide on UiO-66
DOI: 10.1039/c2nr30244f
Adsorbate Carbon Dioxide: InChIKey CURLTUGMZLYLDI-UHFFFAOYSA-N
Temperature: 307 K
Tabular data in the source: 0
pressure (bar)	uptake (cm3(STP)/g)
0.0045776	0.477442
0.0320431	1.66745
0.0595087	2.85747
0.0892631	3.80773
0.116729	4.75851
0.146483	5.94801
0.173948	6.89878
0.203703	7.60981
0.231169	8.56059
0.258633	9.51137
0.288388	10.2224
0.318143	10.9334
0.375362	12.1168
0.402828	13.0675
0.432583	13.5393
0.462337	14.4896
0.489802	15.2011
0.517268	15.9127
0.547022	16.3845
0.574487	17.096
0.604242	17.5678
0.631708	18.2794
0.659174	18.7517
0.688927	19.2235
0.716393	19.6958
0.746148	20.1676
0.773614	20.6399
0.803367	21.3509
0.833122	21.8227
0.858299	22.2955
0.888052	22.7673
0.917807	23.2391
0.947562	23.4717
0.972739	23.9445
1.00478	24.4158
