Adsorption isotherm of Carbon Dioxide on UiO-66
DOI: 10.1039/c2nr30244f
Adsorbate Carbon Dioxide: InChIKey CURLTUGMZLYLDI-UHFFFAOYSA-N
Temperature: 305 K
Tabular data in the source: 0
pressure (bar)	uptake (cm3(STP)/g)
0.00737576	0.6
0.0368787	1.8
0.0663818	3.3
0.0983434	4.5
0.127846	6
0.159808	7.2
0.189311	8.4
0.218815	9.3
0.250775	10.2
0.280278	11.7
0.31224	12.3
0.341744	13.2
0.376164	14.1
0.405666	15
0.435169	15.9
0.464673	16.8
0.494175	17.4
0.526137	18.3
0.55564	19.2
0.587602	20.1
0.619564	20.7
0.651524	21.9
0.683486	21.9
0.710531	22.8
0.742493	23.4
0.771995	24.6
0.801498	25.2
0.835918	25.5
0.862963	26.4
0.897384	26.7
0.924427	27.3
0.956389	27.9
0.985892	28.8
1.01785	29.1
1.05227	29.7
1.08178	30.9
