Adsorption isotherm of Carbon Dioxide on IRMOF-1
DOI: 10.1021/Ie900665f
Adsorbate Carbon Dioxide: InChIKey CURLTUGMZLYLDI-UHFFFAOYSA-N
Temperature: 332 K
Tabular data in the source: 0
pressure (bar)	uptake (mmol/g)
0.124439	0.0839552
0.158077	0.102612
0.225352	0.139925
0.259003	0.149254
0.289261	0.177239
0.326278	0.186567
0.359916	0.205224
0.427191	0.242537
0.460829	0.261194
0.528104	0.298507
0.561742	0.317164
0.592013	0.335821
0.625663	0.345149
0.659301	0.363806
0.689572	0.382463
0.729942	0.401119
0.76358	0.419776
0.793852	0.438433
0.827502	0.447761
0.861139	0.466418
0.891411	0.485075
0.931781	0.503731
0.965419	0.522388
