Adsorption isotherm of Carbon Dioxide on IRMOF-1
DOI: 10.1021/Ie900665f
Adsorbate Carbon Dioxide: InChIKey CURLTUGMZLYLDI-UHFFFAOYSA-N
Temperature: 314 K
Tabular data in the source: 0
pressure (bar)	uptake (mmol/g)
0.104141	0.158582
0.204991	0.261194
0.305804	0.391791
0.406654	0.494403
0.507479	0.615672
0.608304	0.73694
0.709192	0.811567
0.810017	0.932836
0.91088	1.02612
1.01169	1.15672
