Adsorption isotherm of Carbon Dioxide on IRMOF-1
DOI: 10.1021/Ie900665f
Adsorbate Carbon Dioxide: InChIKey CURLTUGMZLYLDI-UHFFFAOYSA-N
Temperature: 323 K
Tabular data in the source: 0
pressure (bar)	uptake (mmol/g)
0.104216	0.102612
0.205092	0.186567
0.30598	0.261194
0.410246	0.326493
0.507718	0.438433
0.608606	0.51306
0.709506	0.578358
0.810394	0.652985
0.911269	0.73694
1.01213	0.830224
