Adsorption isotherm of Carbon Dioxide on IRMOF-1
DOI: 10.1021/Ie900665f
Adsorbate Carbon Dioxide: InChIKey CURLTUGMZLYLDI-UHFFFAOYSA-N
Temperature: 314 K
Tabular data in the source: 0
pressure (bar)	uptake (mmol/g)
0.117606	0.158582
0.147853	0.195896
0.178099	0.233209
0.218431	0.279851
0.248678	0.317164
0.278924	0.354478
0.319256	0.401119
0.349503	0.438433
0.383128	0.466418
0.420094	0.51306
0.450353	0.541045
0.483965	0.578358
0.524298	0.625
0.554544	0.662313
0.588169	0.690299
0.625136	0.73694
0.655394	0.764925
0.68902	0.79291
0.72262	0.839552
0.752878	0.867537
0.786503	0.895522
0.82347	0.942164
0.853729	0.970149
0.887354	0.998134
0.92432	1.04478
0.957945	1.07276
0.988191	1.11007
