Adsorption isotherm of Carbon Dioxide on IRMOF-1
DOI: 10.1021/Ie900665f
Adsorbate Carbon Dioxide: InChIKey CURLTUGMZLYLDI-UHFFFAOYSA-N
Temperature: 305 K
Tabular data in the source: 0
pressure (bar)	uptake (mmol/g)
0.107457	0.195896
0.204803	0.401119
0.305578	0.559701
0.406378	0.699627
0.507153	0.858209
0.60794	1.00746
0.705399	1.12873
0.80959	1.25
0.910415	1.37127
1.01123	1.50187
