Adsorption isotherm of Carbon Dioxide on IRMOF-1
DOI: 10.1021/Ie900665f
Adsorbate Carbon Dioxide: InChIKey CURLTUGMZLYLDI-UHFFFAOYSA-N
Temperature: 305 K
Tabular data in the source: 0
pressure (bar)	uptake (mmol/g)
0.117506	0.233209
0.144373	0.279851
0.174594	0.335821
0.221622	0.410448
0.251855	0.45709
0.278723	0.503731
0.322397	0.56903
0.35263	0.615672
0.382877	0.652985
0.423184	0.718284
0.450051	0.764925
0.480285	0.811567
0.523971	0.867537
0.554205	0.914179
0.584451	0.951493
0.624759	1.01679
0.655005	1.0541
0.685239	1.10075
0.725559	1.15672
0.755805	1.19403
0.786039	1.24067
0.826359	1.29664
0.856605	1.33396
0.886839	1.3806
0.920451	1.41791
0.950698	1.45522
0.980931	1.50187
