Adsorption isotherm of Carbon Dioxide on IRMOF-1
DOI: 10.1021/Ie900665f
Adsorbate Carbon Dioxide: InChIKey CURLTUGMZLYLDI-UHFFFAOYSA-N
Temperature: 296 K
Tabular data in the source: 0
pressure (bar)	uptake (mmol/g)
0.120684	0.373134
0.144172	0.429104
0.171015	0.494403
0.221333	0.625
0.248188	0.68097
0.271676	0.73694
0.32202	0.848881
0.348875	0.904851
0.375729	0.960821
0.422719	1.06343
0.449574	1.1194
0.476429	1.17537
0.523431	1.26866
0.550286	1.32463
0.577141	1.3806
0.604008	1.42724
0.624156	1.46455
0.651011	1.52052
0.677866	1.57649
0.72488	1.66045
0.751735	1.71642
0.778603	1.76306
0.825618	1.84701
0.852472	1.90299
0.87934	1.94963
0.912927	2.0056
0.939782	2.06157
0.96665	2.10821
0.996883	2.15485
