Adsorption isotherm of Carbon Dioxide on IRMOF-1
DOI: 10.1021/Ie900665f
Adsorbate Carbon Dioxide: InChIKey CURLTUGMZLYLDI-UHFFFAOYSA-N
Temperature: 296 K
Tabular data in the source: 0
pressure (bar)	uptake (mmol/g)
0.103915	0.326493
0.204552	0.587687
0.305226	0.820896
0.405926	1.03545
0.506625	1.25
0.607287	1.49254
0.708074	1.64179
0.808799	1.83769
0.909636	1.94963
1.01041	2.10821
