Adsorption isotherm of Nitrogen on IRMOF-1
DOI: 10.1021/Ie900665f
Adsorbate Nitrogen: InChIKey IJGRMHOSHXDMSA-UHFFFAOYSA-N
Temperature: 77 K
Tabular data in the source: 0
pressure (bar)	uptake (mmol/g)
6.84e-05	1.89805
7.16e-05	2.52602
9.84e-05	3.28163
0.000148099	4.289
0.000185841	5.0439
0.000267234	6.17644
0.000306226	6.80512
0.000367208	7.55967
0.000504594	8.81737
0.000693381	10.4516
0.000910504	11.5835
0.00125116	13.3433
0.00143371	13.8464
0.00171926	14.4755
0.00225763	15.7328
0.00270721	16.2363
0.00324632	16.9909
0.00426287	17.4951
0.00559773	18.2503
0.00804937	18.8808
0.0126748	19.6375
0.0190727	20.2683
0.025045	20.6469
0.0328876	21.2767
0.0412688	21.655
0.0517859	22.0334
0.0744666	22.2872
0.117258	22.6673
0.161128	22.7953
0.22141	23.0489
0.399518	23.43
0.6291	23.8101
0.826094	23.9378
0.990609	24.1902
2.94538	25.0774
5.81992	25.7103
7.99732	25.9638
11.4998	26.2177
17.3042	26.3464
26.0388	26.4751
37.4431	26.6035
53.8408	26.6063
70.7004	26.6084
84.7816	26.8609
88.718	26.8612
97.152	28.3682
