Adsorption isotherm of Carbon Dioxide on IRMOF-1
DOI: 10.1021/Ie900665f
Adsorbate Carbon Dioxide: InChIKey CURLTUGMZLYLDI-UHFFFAOYSA-N
Temperature: 323 K
Tabular data in the source: 0
pressure (bar)	uptake (mmol/g)
0.124439	0.0839552
0.158077	0.102612
0.218595	0.158582
0.248866	0.177239
0.282491	0.205224
0.316116	0.233209
0.349754	0.251866
0.380013	0.279851
0.420358	0.317164
0.450617	0.345149
0.484254	0.363806
0.514513	0.391791
0.548138	0.419776
0.578397	0.447761
0.622108	0.485075
0.655746	0.503731
0.686005	0.531716
0.72635	0.56903
0.759975	0.597015
0.790234	0.625
0.827225	0.652985
0.857484	0.68097
0.891109	0.708955
0.928088	0.746269
0.95836	0.764925
0.991985	0.79291
