Adsorption isotherm of Carbon Dioxide on IRMOF-1
DOI: 10.1021/Ie900665f
Adsorbate Carbon Dioxide: InChIKey CURLTUGMZLYLDI-UHFFFAOYSA-N
Temperature: 332 K
Tabular data in the source: 0
pressure (bar)	uptake (mmol/g)
0.104267	0.0652985
0.201813	0.121269
0.30608	0.186567
0.407006	0.233209
0.507919	0.289179
0.605453	0.354478
0.709757	0.391791
0.81067	0.447761
0.914962	0.494403
1.01253	0.531716
