Adsorption isotherm of Arsenate, Water on GNP/Fe-Mg binary oxide composite
DOI: 10.1021/acsomega.6b00304
Article source: Figure 7
Adsorbate Arsenate: InChIKey HAYXDMNJJFVXCI-UHFFFAOYSA-N
Adsorbate Water: InChIKey XLYOFNOQVPJJNP-UHFFFAOYSA-N
Kind: experiment
Temperature: 298 K
Tabular data in the source: 0
pressure (bar)	Arsenate fraction	Arsenate uptake (mg/g)	Water fraction	Water uptake (mg/g)	total uptake (mg/g)
1.01325	5.234	24.855			
1.01325	11.531	40.892			
1.01325	22.55	51.417			
1.01325	44.709	63.09			
1.01325	67.474	76.901			
1.01325	90.965	91.781			
