Adsorption isotherm of Nitrogen on [Zn3(TPATTTADTIOA)(H2O)3]n
DOI: 10.1002/anie.201504346
Article source: Figure 2a
Adsorbate Nitrogen: InChIKey IJGRMHOSHXDMSA-UHFFFAOYSA-N
Kind: experiment
Temperature: 77 K
Tabular data in the source: 0
pressure (bar)	uptake (cm3(STP)/g)
0	0
8.4e-05	24.0004
0.000268	76.8013
0.000469	134.402
0.000636	182.403
0.005041	244.824
0.005192	288.025
0.005292	316.825
0.00541	350.426
0.009865	427.247
0.027015	542.528
0.027132	576.129
0.03142	604.949
0.035707	633.769
0.039961	652.989
0.052656	691.449
0.065318	720.309
0.07798	749.169
0.090641	778.029
0.103269	797.289
0.124221	802.188
0.136799	807.048
0.153564	811.927
0.17872	821.647
0.203859	826.566
0.228999	831.485
0.258324	836.424
0.283464	841.343
0.308585	841.462
0.329538	846.361
0.358864	851.3
0.3798	851.399
0.430061	856.437
0.4552	861.356
0.484493	856.695
0.505445	861.594
0.534754	861.733
0.555706	866.633
0.585015	866.771
0.610138	866.89
0.63526	867.009
0.660399	871.928
0.685521	872.047
0.706456	872.147
0.735783	877.086
0.756717	877.185
0.790214	877.343
0.811149	877.443
0.832085	877.542
0.86141	882.481
0.882346	882.58
0.911655	882.719
0.940965	882.858
0.987022	883.076
0.999583	883.135
