Adsorption isotherm of Carbon Dioxide on [Zn3(BTTTDTIOA)(H2O)3]n
DOI: 10.1002/anie.201504346
Article source: Figure 2c
Adsorbate Carbon Dioxide: InChIKey CURLTUGMZLYLDI-UHFFFAOYSA-N
Kind: experiment
Temperature: 273 K
Tabular data in the source: 0
pressure (bar)	uptake (cm3(STP)/g)
0	0
0.570112	3.824
1.42832	6.38208
1.71216	9.56525
2.71259	13.3971
3.13987	16.5829
4.28192	22.3242
5.1377	27.4246
5.99469	31.2538
6.85047	36.3542
7.70747	40.1835
8.70727	44.651
9.56364	49.1158
10.4194	54.2162
11.2758	58.681
12.1328	62.5103
12.8463	66.3369
13.8462	70.8044
14.5597	74.631
15.703	79.1011
16.2737	82.2895
17.2742	86.1214
18.1311	89.9506
18.8441	94.4128
19.988	98.2473
20.8449	102.077
21.5591	105.268
22.5595	109.1
23.4171	112.293
24.2747	115.487
25.2745	119.954
26.1322	123.148
26.9904	125.706
27.7045	128.897
28.7049	132.729
29.2775	134.011
30.2773	138.478
31.1355	141.036
32.28	144.235
32.8519	146.152
33.7095	149.346
34.138	151.261
