Adsorption isotherm of Hydrogen on [Zn3(TPATTTADTIOA)(H2O)3]n
DOI: 10.1002/anie.201504346
Article source: Figure 2a
Adsorbate Hydrogen: InChIKey UFHFLCQGNIYNRP-UHFFFAOYSA-N
Kind: experiment
Temperature: 77 K
Tabular data in the source: 0
pressure (bar)	uptake (cm3(STP)/g)
0	0
0.003369	17.7083
0.021196	23.9583
0.042517	37.5
0.074616	47.9167
0.088901	51.0417
0.099592	55.2083
0.124568	62.5
0.153111	70.8333
0.170964	75
0.199544	80.2083
0.224545	85.4167
0.253126	90.625
0.274558	94.7917
0.299571	98.9583
0.328152	104.167
0.378178	112.5
0.406772	116.667
0.417476	119.792
0.442514	121.875
0.460378	125
0.485391	129.167
0.506837	132.292
0.539023	135.417
0.574764	140.625
0.614098	144.792
0.639125	147.917
0.664162	150
0.692756	154.167
0.714188	158.333
0.732053	161.458
0.749955	161.458
0.782153	163.542
0.810759	166.667
0.839365	169.792
0.864403	171.875
0.889428	175
0.914478	176.042
0.939491	180.208
0.953801	181.25
0.96811	182.292
0.985986	184.375
1.00028	186.458
