Adsorption isotherm of Hydrogen on [Zn3(BTTTDTIOA)(H2O)3]n
DOI: 10.1002/anie.201504346
Article source: Figure 2a
Adsorbate Hydrogen: InChIKey UFHFLCQGNIYNRP-UHFFFAOYSA-N
Kind: experiment
Temperature: 77 K
Tabular data in the source: 0
pressure (bar)	uptake (cm3(STP)/g)
0	0
0.006949	17.7083
0.01406	21.875
0.031838	32.2917
0.042517	37.5
0.049578	45.8333
0.078035	61.4583
0.095862	67.7083
0.102924	76.0417
0.124257	88.5417
0.149183	100
0.174109	111.458
0.206195	122.917
0.227578	131.25
0.252529	140.625
0.277493	148.958
0.309617	157.292
0.327456	162.5
0.34884	170.833
0.37742	176.042
0.405964	184.375
0.423804	189.583
0.452373	195.833
0.480953	201.042
0.502373	206.25
0.530966	210.417
0.555967	215.625
0.580968	220.833
0.609561	225
0.638155	229.167
0.659562	235.417
0.684588	238.542
0.7096	242.708
0.734613	246.875
0.759626	251.042
0.78464	255.208
0.813246	258.333
0.838259	262.5
0.863284	265.625
0.884729	268.75
0.913334	271.875
0.945508	276.042
0.959805	278.125
0.995572	281.25
1.00271	283.333
