Adsorption isotherm of Nitrobenzene on [Zn3(TPBTTTATIOA)(H2O)3]n
DOI: 10.1002/anie.201504346
Article source: Figure 2a
Adsorbate Nitrobenzene: InChIKey LQNUZADURLCDLV-UHFFFAOYSA-N
Kind: experiment
Temperature: 77 K
Tabular data in the source: 0
pressure (bar)	uptake (cm3(STP)/g)
0	0
0.000202	19.201
0.006273	196.83
0.008392	398.44
0.022419	532.906
0.027178	585.729
0.040801	681.793
0.049664	725.035
0.062631	758.697
0.071293	782.738
0.0758	811.559
0.08436	826
0.097176	845.26
0.114347	878.942
0.122908	893.382
0.135824	922.243
0.140483	965.466
0.153349	989.526
0.166165	1008.79
0.195899	1037.73
0.216922	1037.83
0.237945	1037.93
0.267528	1052.47
0.288601	1057.37
0.313829	1057.49
0.343362	1067.23
0.36864	1072.15
0.389713	1077.05
0.419196	1081.99
0.46965	1082.22
0.490774	1091.92
0.53287	1096.92
0.545483	1096.98
0.574916	1097.12
0.591785	1102
0.617011	1102.12
0.642239	1102.24
0.671671	1102.38
0.696949	1107.3
0.722177	1107.42
0.743249	1112.32
0.772681	1112.46
0.793704	1112.56
0.823187	1117.5
0.84421	1117.6
0.88205	1117.78
0.919942	1122.76
0.957784	1122.94
0.978856	1127.84
0.995675	1127.92
1.01249	1128
