Adsorption isotherm of Hydrogen on [Zn3(TPBTTTATIOA)(H2O)3]n
DOI: 10.1002/anie.201504346
Article source: Figure 2a
Adsorbate Hydrogen: InChIKey UFHFLCQGNIYNRP-UHFFFAOYSA-N
Kind: experiment
Temperature: 77 K
Tabular data in the source: 0
pressure (bar)	uptake (cm3(STP)/g)
0	0
0.042704	21.875
0.082013	28.125
0.089137	31.25
0.103434	33.3333
0.124828	40.625
0.146274	43.75
0.174842	50
0.199868	53.125
0.232029	58.3333
0.257054	61.4583
0.274895	66.6667
0.303475	71.875
0.328501	75
0.357107	78.125
0.378539	82.2917
0.403576	84.375
0.428577	89.5833
0.453603	92.7083
0.482209	95.8333
0.507222	100
0.532259	102.083
0.553717	104.167
0.578742	107.292
0.607336	111.458
0.657386	117.708
0.678844	119.792
0.70745	122.917
0.753933	128.125
0.786119	131.25
0.814725	134.375
0.871961	138.542
0.889826	141.667
0.925593	144.792
0.95063	146.875
0.964939	147.917
0.982817	150
1.00429	151.042
