Adsorption isotherm of Carbon Dioxide on [Zn3(TPBTTTATIOA)(H2O)3]n
DOI: 10.1002/anie.201504346
Article source: Figure 2c
Adsorbate Carbon Dioxide: InChIKey CURLTUGMZLYLDI-UHFFFAOYSA-N
Kind: experiment
Temperature: 273 K
Tabular data in the source: 0
pressure (bar)	uptake (cm3(STP)/g)
0	0
1.00409	2.53165
1.57786	3.16456
2.7254	5.6962
3.44261	6.96203
4.4467	8.22785
5.16391	10.1266
6.31145	11.3924
6.88522	12.6582
7.88933	14.557
8.74997	15.8228
9.46717	17.0886
10.4713	18.3544
11.3319	19.6203
12.0491	20.2532
13.0532	22.7848
13.9139	23.4177
14.7745	24.6835
15.7786	26.5823
16.6393	27.2152
17.4999	29.1139
18.3606	29.7468
19.0778	31.0127
20.0819	32.2785
20.9426	33.5443
21.8032	35.443
22.6639	36.0759
23.3811	37.3418
24.2417	37.9747
25.2458	39.8734
26.1065	41.1392
26.9671	41.7722
27.8278	43.6709
28.8319	44.9367
29.6925	46.2025
30.4097	46.8354
31.2704	48.1013
32.131	49.3671
32.9917	50.6329
33.8524	51.2658
34.4261	52.5316
