Adsorption isotherm of Nitrogen on [Zn3(BTTTDTIOA)(H2O)3]n
DOI: 10.1002/anie.201504346
Article source: Figure 2a
Adsorbate Nitrogen: InChIKey IJGRMHOSHXDMSA-UHFFFAOYSA-N
Kind: experiment
Temperature: 77 K
Tabular data in the source: 0
pressure (bar)	uptake (cm3(STP)/g)
0	0
0.004204	288
0.008409	590.4
0.016817	614.4
0.046248	676.8
0.063065	724.8
0.092496	744
0.134539	753.6
0.176583	763.2
0.227035	768
0.277488	772.8
0.327939	777.6
0.378392	782.4
0.428845	782.4
0.454071	787.2
0.508727	787.2
0.533953	787.2
0.584405	787.2
0.634858	787.2
0.685311	792
0.706332	792
0.760988	796.8
0.786215	796.8
0.811441	796.8
0.832463	796.8
0.88712	801.6
0.912345	801.6
0.937571	801.6
0.967002	801.6
0.992228	801.6
1.00905	801.6
