Adsorption isotherm of Carbon Dioxide on [Zn3(TPATTTADTIOA)(H2O)3]n
DOI: 10.1002/anie.201504346
Article source: Figure 2c
Adsorbate Carbon Dioxide: InChIKey CURLTUGMZLYLDI-UHFFFAOYSA-N
Kind: experiment
Temperature: 273 K
Tabular data in the source: 0
pressure (bar)	uptake (cm3(STP)/g)
0	0
0.990244	5.10288
2.69472	10.2188
4.40039	14.6992
6.10369	20.4507
7.80935	24.9311
9.51504	29.4115
11.3624	34.5301
12.7824	39.0052
14.775	42.8553
16.6235	47.3383
18.472	51.8213
19.8933	55.6609
21.5989	60.1412
23.4475	64.6242
24.1605	65.2729
24.8675	69.0994
26.7196	71.6757
27.4302	73.5955
28.5682	76.1587
29.4216	78.0811
29.8489	78.7245
30.5596	80.6443
31.6975	83.2075
32.5509	85.1299
33.1199	86.4115
33.6889	87.6931
34.259	88.3391
