Adsorption isotherm of Carbon Dioxide on MIL-96-A2
DOI: 10.1039/c5dt02379c
Article source: Figure 8a
Adsorbate Carbon Dioxide: InChIKey CURLTUGMZLYLDI-UHFFFAOYSA-N
Kind: experiment
Temperature: 298 K
Tabular data in the source: 0
pressure (bar)	uptake (mmol/g)
0.034131	0.424378
0.038397	0.355454
0.066128	0.527349
0.068261	0.619163
0.091726	0.768145
0.093859	0.710724
0.119457	0.848204
0.142922	1.06606
0.145055	0.997163
0.170653	1.11168
0.172786	1.21498
0.196251	1.23768
0.226115	1.35216
0.249579	1.54706
0.251713	1.46668
0.277311	1.65008
0.279444	1.55822
0.305042	1.64978
0.307175	1.74159
0.330639	1.75282
0.358371	1.92471
0.360504	1.83285
0.388235	1.92439
0.407433	1.99306
0.413833	2.08483
0.437297	2.06162
0.439431	2.15343
0.467162	2.21053
0.492759	2.27914
0.518357	2.33626
0.546088	2.39336
0.548222	2.32446
0.575953	2.38156
0.599417	2.42722
0.605817	2.49603
0.625015	2.55322
0.627148	2.48432
0.654879	2.59882
0.678344	2.57561
0.680477	2.63298
0.706075	2.62123
0.708208	2.69008
0.731673	2.72427
0.733806	2.66685
0.761537	2.75839
0.789268	2.79253
0.791402	2.74658
0.816999	2.78075
0.819133	2.83812
0.840464	2.81493
0.842597	2.86083
0.863929	2.84912
0.870328	2.89497
0.893793	2.88324
0.895926	2.91765
0.921524	2.95182
0.923657	2.91735
0.947122	2.9745
0.970587	2.97425
0.981253	3.00857
1.00045	3.00836
1.01112	3.03121
1.03245	3.0195
1.06018	3.05364
1.08364	3.07635
