Adsorption isotherm of Carbon Dioxide on MIL-96
DOI: 10.1039/c5dt02379c
Article source: Figure 8b
Adsorbate Carbon Dioxide: InChIKey CURLTUGMZLYLDI-UHFFFAOYSA-N
Kind: experiment
Temperature: 298 K
Tabular data in the source: 0
pressure (bar)	uptake (mmol/g)
0.012907	0.153453
0.068677	0.521739
0.092276	0.685422
0.12015	0.849105
0.120183	0.910486
0.145871	0.982097
0.145903	1.04348
0.171639	1.20716
0.173739	1.13555
0.199442	1.23785
0.199481	1.30946
0.223015	1.35038
0.225191	1.42199
0.253005	1.47315
0.253054	1.56522
0.27656	1.55499
0.278752	1.65729
0.306593	1.75959
0.308687	1.67775
0.3301	1.74936
0.334418	1.8312
0.360068	1.8312
0.360122	1.9335
0.387908	1.9335
0.387947	2.00512
0.411458	2.00512
0.415771	2.07673
0.439316	2.13811
0.44141	2.05627
0.467147	2.21995
0.471377	2.13811
0.494966	2.28133
0.497071	2.21995
0.516319	2.24041
0.520627	2.30179
0.546291	2.33248
0.546335	2.41432
0.574138	2.44501
0.576249	2.39386
0.599777	2.42455
0.599825	2.51662
0.625454	2.4757
0.625491	2.54731
0.653262	2.51662
0.653294	2.57801
0.683224	2.58824
0.683246	2.62916
0.706747	2.6087
0.706779	2.67008
0.73245	2.711
0.736698	2.65985
0.760227	2.69054
0.764534	2.75192
0.788046	2.75192
0.788073	2.80307
0.815876	2.83376
0.817981	2.77238
0.841536	2.85422
0.843652	2.8133
0.867207	2.89514
0.869318	2.84399
0.895005	2.9156
0.899263	2.88491
0.920671	2.94629
0.922785	2.90537
0.948474	2.97698
0.952727	2.93606
0.97626	2.97698
0.978409	2.99744
0.997651	3.00767
1.00834	3.0179
1.02758	3.0179
1.03828	3.04859
1.05752	3.04859
1.08319	3.08951
