Adsorption isotherm of Carbon Dioxide on MIL-96-M3
DOI: 10.1039/c5dt02379c
Article source: Figure 8b
Adsorbate Carbon Dioxide: InChIKey CURLTUGMZLYLDI-UHFFFAOYSA-N
Kind: experiment
Temperature: 298 K
Tabular data in the source: 0
pressure (bar)	uptake (mmol/g)
0.012825	0.112655
0.014962	0.143366
0.032061	0.378824
0.038474	0.337965
0.059848	0.573464
0.061986	0.522334
0.09191	0.696534
0.094047	0.737475
0.117559	0.942304
0.119696	0.870713
0.143208	1.10623
0.145345	1.03464
0.170995	1.18834
0.194507	1.38294
0.198781	1.3216
0.224431	1.52645
0.252217	1.64948
0.254355	1.56766
0.277866	1.68041
0.305654	1.85459
0.307791	1.80346
0.329165	1.89574
0.331302	1.95714
0.354813	2.04944
0.359089	1.9881
0.382601	2.07017
0.386875	2.16228
0.410388	2.1625
0.438173	2.32645
0.440312	2.24463
0.46596	2.33695
0.491609	2.45996
0.495885	2.39862
0.519396	2.5523
0.521533	2.47048
0.547183	2.60371
0.551457	2.53214
0.570694	2.65509
0.57497	2.61421
0.596344	2.73718
0.600619	2.65538
0.626267	2.78862
0.628406	2.71702
0.651917	2.77863
0.654054	2.81957
0.677566	2.89141
0.679704	2.81982
0.705353	2.87122
0.70749	2.93262
0.731003	2.98399
0.735277	2.93288
0.758788	3.01495
0.786575	3.06637
0.79085	3.00503
0.812224	3.08707
0.840011	3.13849
0.842148	3.09759
0.867798	3.15922
0.893447	3.20039
0.895584	3.19018
0.919096	3.21086
0.923371	3.24159
0.946882	3.24182
0.949021	3.27253
0.972532	3.28299
0.983219	3.30355
1.00032	3.30371
1.00887	3.33448
1.02597	3.33465
1.03238	3.35517
1.05376	3.37584
1.08368	3.39658
