Adsorption isotherm of Carbon Dioxide on MIL-96-M1
DOI: 10.1039/c5dt02379c
Article source: Figure 8b
Adsorbate Carbon Dioxide: InChIKey CURLTUGMZLYLDI-UHFFFAOYSA-N
Kind: experiment
Temperature: 298 K
Tabular data in the source: 0
pressure (bar)	uptake (mmol/g)
0.012825	0.153184
0.064123	0.572042
0.06626	0.633287
0.094047	0.735594
0.117559	0.929696
0.145345	1.23608
0.170995	1.27715
0.173132	1.39962
0.194507	1.56309
0.198781	1.45088
0.224431	1.71643
0.250079	1.85954
0.252217	1.7269
0.277866	1.98225
0.280004	1.85982
0.303515	2.11515
0.305654	1.98252
0.331302	2.09501
0.333439	2.22768
0.356951	2.32995
0.359089	2.20752
0.384738	2.43225
0.386875	2.29962
0.410388	2.52433
0.414662	2.41213
0.438173	2.47358
0.463823	2.68811
0.46596	2.56568
0.491609	2.78021
0.498022	2.65783
0.519396	2.85191
0.521533	2.74989
0.547183	2.9236
0.54932	2.82158
0.570694	2.98505
0.572832	2.88303
0.598481	2.9445
0.62413	3.00597
0.626267	3.10803
0.64978	3.16948
0.656191	3.0675
0.675428	3.22075
0.677566	3.12893
0.705353	3.27205
0.70749	3.18024
0.73314	3.2315
0.758788	3.29297
0.771614	3.37473
0.784438	3.33404
0.812224	3.43634
0.8165	3.39557
0.840011	3.49783
0.842148	3.42642
0.863522	3.46745
0.865661	3.52869
0.891309	3.55955
0.895584	3.50857
0.919096	3.59043
0.921234	3.52922
0.942608	3.56004
0.944745	3.63149
0.974669	3.61137
1.00032	3.64222
1.00459	3.68308
1.03238	3.72416
1.08154	3.73484
