Adsorption isotherm of Carbon Dioxide on MIL-96-A3
DOI: 10.1039/c5dt02379c
Article source: Figure 8a
Adsorbate Carbon Dioxide: InChIKey CURLTUGMZLYLDI-UHFFFAOYSA-N
Kind: experiment
Temperature: 298 K
Tabular data in the source: 0
pressure (bar)	uptake (mmol/g)
0	0
0.010917	0.241688
0.034746	0.575448
0.041234	0.65601
0.064965	0.886189
0.065041	0.966752
0.090909	1.19693
0.09309	1.24297
0.118925	1.43862
0.118969	1.48465
0.1427	1.71483
0.144783	1.65729
0.17065	1.88747
0.174903	1.86445
0.194293	2.02558
0.196475	2.07161
0.226497	2.17519
0.22654	2.22123
0.252277	2.3133
0.252321	2.35934
0.278101	2.49744
0.280184	2.4399
0.305954	2.5665
0.306019	2.63555
0.331701	2.67008
0.331767	2.73913
0.359576	2.76215
0.35963	2.81969
0.385378	2.92327
0.387449	2.85422
0.413186	2.94629
0.413251	3.01535
0.443186	3.02685
0.443252	3.09591
0.46683	3.16496
0.468901	3.09591
0.494682	3.23402
0.496754	3.16496
0.524606	3.23402
0.524661	3.29156
0.550375	3.36061
0.552459	3.30307
0.576069	3.40665
0.578151	3.3491
0.601728	3.41816
0.603909	3.46419
0.627464	3.51023
0.62957	3.4757
0.65318	3.57928
0.655251	3.51023
0.683137	3.61381
0.68523	3.56777
0.70883	3.65985
0.713049	3.6023
0.736617	3.65985
0.738809	3.71739
0.76449	3.75192
0.766584	3.70588
0.790162	3.77494
0.792266	3.74041
0.817959	3.78645
0.817981	3.80946
0.843652	3.83248
0.843673	3.8555
0.869323	3.8555
0.873631	3.89003
0.89929	3.90153
0.924973	3.93606
0.924984	3.94757
0.952803	3.9821
0.978474	4.00512
0.984898	4.01662
1.00412	4.00512
1.01269	4.02813
1.03837	4.05115
1.05761	4.06266
1.08544	4.1087
