Adsorption isotherm of Carbon Dioxide on MIL-96
DOI: 10.1039/c5dt02379c
Article source: Figure 8a
Adsorbate Carbon Dioxide: InChIKey CURLTUGMZLYLDI-UHFFFAOYSA-N
Kind: experiment
Temperature: 298 K
Tabular data in the source: 0
pressure (bar)	uptake (mmol/g)
0.012799	0.172194
0.038397	0.355867
0.066128	0.528061
0.068261	0.608418
0.091726	0.723214
0.093859	0.780612
0.119457	0.941327
0.12159	0.860969
0.145055	1.09056
0.147188	0.987245
0.170653	1.10204
0.172786	1.22832
0.198384	1.22832
0.226115	1.44643
0.230381	1.36607
0.251713	1.54974
0.255979	1.46939
0.279444	1.5727
0.305042	1.7449
0.307175	1.66454
0.330639	1.7449
0.332773	1.82526
0.356237	1.83673
0.358371	1.92857
0.383968	2.02041
0.386102	1.90561
0.413833	1.98597
0.439431	2.14668
0.443697	2.06633
0.467162	2.12372
0.492759	2.20408
0.494893	2.28444
0.518357	2.31888
0.520491	2.27296
0.548222	2.29592
0.571686	2.45663
0.575953	2.37628
0.597284	2.43367
0.599417	2.51403
0.625015	2.47959
0.652746	2.59439
0.654879	2.53699
0.678344	2.66327
0.682611	2.57143
0.703942	2.6977
0.706075	2.62883
0.733806	2.66327
0.761537	2.76658
0.787135	2.8125
0.812733	2.78954
0.840464	2.82398
0.842597	2.8699
0.868195	2.89286
0.893793	2.9273
0.921524	2.96173
0.947122	2.99617
0.951388	2.93878
0.97272	2.99617
0.979119	3.01913
1.00258	3.00765
1.00898	3.03061
1.03458	3.05357
1.05378	3.07653
1.08151	3.09949
