Adsorption isotherm of Carbon Dioxide on MIL-96-A1
DOI: 10.1039/c5dt02379c
Article source: Figure 8a
Adsorbate Carbon Dioxide: InChIKey CURLTUGMZLYLDI-UHFFFAOYSA-N
Kind: experiment
Temperature: 298 K
Tabular data in the source: 0
pressure (bar)	uptake (mmol/g)
0.014932	0.21867
0.04053	0.460358
0.061862	0.690537
0.093859	0.909207
0.119457	1.08184
0.145055	1.31202
0.147188	1.27749
0.170653	1.45013
0.196251	1.62276
0.228248	1.81841
0.249579	1.96803
0.253846	1.91049
0.277311	2.11765
0.281577	2.04859
0.302908	2.20972
0.309308	2.1867
0.330639	2.34783
0.337039	2.30179
0.358371	2.47442
0.386102	2.52046
0.411699	2.62404
0.439431	2.78517
0.462895	2.85422
0.469295	2.77366
0.494893	2.88875
0.497026	2.9578
0.522624	3.02685
0.524757	2.96931
0.550355	3.04987
0.573819	3.16496
0.578086	3.11893
0.601551	3.24552
0.629282	3.29156
0.631415	3.25703
0.654879	3.29156
0.680477	3.42967
0.684744	3.3491
0.708208	3.41816
0.733806	3.46419
0.735939	3.53325
0.761537	3.55627
0.763671	3.51023
0.789268	3.6023
0.814866	3.61381
0.816999	3.67136
0.840464	3.67136
0.866062	3.7289
0.868195	3.70588
0.895926	3.75192
0.923657	3.79795
0.949255	3.84399
0.974853	3.86701
0.981253	3.87852
1.00045	3.89003
1.01112	3.92455
1.02818	3.92455
1.03458	3.95908
1.05378	3.95908
1.08151	3.99361
