Adsorption isotherm of Carbon Dioxide on MIL-96-M2
DOI: 10.1039/c5dt02379c
Article source: Figure 8b
Adsorbate Carbon Dioxide: InChIKey CURLTUGMZLYLDI-UHFFFAOYSA-N
Kind: experiment
Temperature: 298 K
Tabular data in the source: 0
pressure (bar)	uptake (mmol/g)
0.012799	0.235294
0.038397	0.491049
0.04053	0.439898
0.061862	0.624041
0.066128	0.705882
0.091726	0.808184
0.119457	1.05371
0.147188	1.22762
0.172786	1.30946
0.200517	1.51407
0.206916	1.47315
0.223982	1.63683
0.228248	1.59591
0.253846	1.76982
0.255979	1.71867
0.281577	1.82097
0.305042	2.01535
0.309308	1.94373
0.332773	2.04604
0.360504	2.15857
0.383968	2.30179
0.388235	2.21995
0.411699	2.33248
0.413833	2.38363
0.441564	2.4757
0.467162	2.48593
0.497026	2.56777
0.520491	2.70077
0.522624	2.63939
0.546088	2.72123
0.571686	2.84399
0.573819	2.76215
0.599417	2.83376
0.601551	2.90537
0.627148	2.89514
0.652746	2.95652
0.654879	3.0179
0.678344	3.00767
0.680477	3.06905
0.703942	3.05882
0.708208	3.1202
0.72954	3.10997
0.731673	3.17136
0.757271	3.21228
0.759404	3.16113
0.785002	3.20205
0.787135	3.2532
0.812733	3.28389
0.838331	3.34527
0.840464	3.29412
0.863929	3.38619
0.868195	3.34527
0.89166	3.40665
0.895926	3.37596
0.919391	3.41688
0.947122	3.47826
0.949255	3.4578
0.97272	3.49872
0.979119	3.51918
0.998318	3.51918
1.00898	3.54987
1.03458	3.58056
1.05165	3.59079
1.08151	3.61125
