Adsorption isotherm of Nitrogen on C21H35ClN6O9
DOI: 10.1021/Ic901004m
Adsorbate Nitrogen: InChIKey IJGRMHOSHXDMSA-UHFFFAOYSA-N
Temperature: 77 K
Tabular data in the source: 0
pressure (bar)	uptake (cm3(STP)/g)
0.016811	0.386473
0.033622	0.772947
0.0653811	1.44928
0.0896707	1.93237
0.112079	2.51208
0.155043	3.47826
0.199896	4.25121
0.25221	5.31401
0.298899	6.47343
0.34935	7.43961
0.394204	8.21256
0.444673	8.98551
0.49138	9.95169
0.53995	11.0145
0.584813	11.6908
0.631502	12.8502
0.680072	13.913
0.72677	14.9758
0.775377	15.6522
0.822021	17.2947
0.870573	18.5507
0.911574	20.4831
0.958742	36.5217
