Adsorption isotherm of Acetylene on PCP-N
DOI: 10.1021/jacs.5b09666
Article source: Figure 2c
Adsorbate Acetylene: InChIKey HSFWRNGVRCDJHI-UHFFFAOYSA-N
Kind: experiment
Temperature: 195 K
Tabular data in the source: 0
pressure (bar)	uptake (ml/g)
0	0
0.002357	13.7319
0.005208	18.0301
0.006641	6.00301
0.012774	22.3283
0.031033	25.7771
0.048983	25.7922
0.050401	81.5873
0.063498	27.5211
0.077936	28.3916
0.082944	84.1898
0.099631	30.1265
0.116873	102.244
0.132266	153.759
0.135687	31.8735
0.167998	31.9006
0.172913	166.669
0.200309	31.9277
0.226997	169.289
0.232698	32.8133
0.265086	33.6988
0.280927	170.193
0.29763	36.3012
0.320712	53.488
0.331188	170.235
0.333485	75.8163
0.349926	99.006
0.369649	118.765
0.385118	171.139
0.389063	135.09
0.411528	145.41
0.435535	172.898
0.440943	153.16
0.466537	158.331
0.492977	172.946
0.499233	162.651
0.531699	164.395
0.539726	173.843
0.564242	166.997
0.593502	173.03
0.596554	167.024
0.625505	169.623
0.651021	173.937
0.661408	169.654
0.704874	173.982
0.726107	170.566
0.755213	174.883
0.762163	172.313
0.790961	173.196
0.812657	174.931
0.826862	173.226
0.870099	174.979
0.880792	174.13
0.924028	175.883
0.927542	175.027
0.988651	175.937
