Adsorption isotherm of Nitrogen on PCP-N
DOI: 10.1021/jacs.5b09666
Article source: Figure 2a
Adsorbate Nitrogen: InChIKey IJGRMHOSHXDMSA-UHFFFAOYSA-N
Kind: experiment
Temperature: 77 K
Tabular data in the source: 0
pressure (bar)	uptake (ml/g)
0	0
0.000547	41.2844
0.000911	68.8073
0.001094	82.5688
0.001291	97.4771
0.00243	183.486
0.003478	12.6147
0.003661	26.3761
0.004025	53.8991
0.004785	111.239
0.004982	126.147
0.005149	138.761
0.005301	150.229
0.008779	162.844
0.009144	190.367
0.012212	172.018
0.018926	178.899
0.019123	193.807
0.028981	188.073
0.032399	196.101
0.042272	191.514
0.042348	197.248
0.058859	193.807
0.068868	199.541
0.082083	197.248
0.098655	198.394
0.108619	200.688
0.118522	198.394
0.148339	199.541
0.158333	204.128
0.171533	200.688
0.198039	201.835
0.227856	202.982
0.241115	204.128
0.254345	202.982
0.280866	205.275
0.307356	205.275
0.333847	205.275
0.360352	206.422
0.390138	205.275
0.416643	206.422
0.439838	207.569
0.472951	207.569
0.49944	207.569
0.52265	209.862
0.555747	208.716
0.578942	209.862
0.605432	209.862
0.635233	209.862
0.661738	211.009
0.688229	211.009
0.711423	212.156
0.744535	212.156
0.771025	212.156
0.797516	212.156
0.827348	214.45
0.867083	214.45
0.91013	214.45
0.949896	216.743
0.989661	219.037
