Adsorption isotherm of Carbon Dioxide on PCP-N
DOI: 10.1021/jacs.5b09666
Article source: Figure 2e
Adsorbate Carbon Dioxide: InChIKey CURLTUGMZLYLDI-UHFFFAOYSA-N
Kind: experiment
Temperature: 195 K
Tabular data in the source: 0
pressure (bar)	uptake (ml/g)
0.006023	71.0942
0.006748	19.4879
0.006925	6.87307
0.006989	2.28584
0.009824	50.4478
0.010049	34.3925
0.010146	27.5117
0.010339	13.75
0.012932	79.1141
0.013431	43.5631
0.016748	57.3209
0.018842	158.236
0.019035	144.474
0.019164	135.3
0.019277	127.272
0.019373	120.391
0.019486	112.364
0.019583	105.483
0.019711	96.3084
0.019792	90.5744
0.019889	83.6936
0.020227	59.6106
0.023689	63.0472
0.025831	160.522
0.027103	69.9241
0.02997	115.793
0.03303	147.899
0.033191	136.431
0.033335	126.11
0.033641	104.321
0.033803	92.8525
0.033947	82.5312
0.036395	158.217
0.046782	168.526
0.057234	174.249
0.074707	179.963
0.095707	184.527
0.106207	186.809
0.127239	189.079
0.137738	191.361
0.17283	192.469
0.207888	195.871
0.225425	196.998
0.239452	198.129
0.278054	199.233
0.306122	200.349
0.334192	201.465
0.372794	202.569
0.38682	203.7
0.407884	203.677
0.442976	204.785
0.474556	205.897
0.49562	205.873
0.506136	207.008
0.551775	206.958
0.576334	208.077
0.611425	209.185
0.650043	209.143
0.66758	210.27
0.678112	210.258
0.71673	210.216
0.727262	210.204
0.75182	211.323
0.779906	211.292
0.815013	211.253
0.839572	212.373
0.853614	212.358
0.902764	212.303
0.958919	213.388
1.0186	213.322
