Adsorption isotherm of Methane on C3N
DOI: 10.1021/acsami.7b09648
Article source: Figure 8
Adsorbate Methane: InChIKey VNWKTOKETHGBQD-UHFFFAOYSA-N
Kind: experiment
Temperature: 300 K
Tabular data in the source: 0
pressure (bar)	uptake (mmol/g)
0.00813	0.0408
0.04655	0.0499
0.14663	0.0564
0.29784	0.0952
0.49771	0.1677
0.70004	0.2157
0.79951	0.2325
0.89774	0.2701
0.99906	0.2934
1.50011	0.4358
1.99558	0.5718
