Adsorption isotherm of Carbon Dioxide on C3N
DOI: 10.1021/acsami.7b09648
Article source: Figure 4
Adsorbate Carbon Dioxide: InChIKey CURLTUGMZLYLDI-UHFFFAOYSA-N
Kind: experiment
Temperature: 300 K
Tabular data in the source: 0
pressure (bar)	uptake (mmol/g)
0.0107	0.6305
0.05286	2.0019
0.14931	3.1038
0.29932	3.6716
0.50161	4.1061
0.70102	4.5937
0.90254	4.8983
1.00329	5.1721
1.49916	5.6847
2.00704	5.9891
