Adsorption isotherm of Carbon monoxide on C3N
DOI: 10.1021/acsami.7b09648
Article source: Figure 4
Adsorbate Carbon monoxide: InChIKey UGFAIRIUMAVXCW-UHFFFAOYSA-N
Kind: experiment
Temperature: 300 K
Tabular data in the source: 0
pressure (bar)	uptake (mmol/g)
0.01119	0.0489
0.0516	0.0932
0.15037	0.2011
0.30004	0.2878
0.5026	0.4034
0.70067	0.465
0.90123	0.5594
1.00301	0.6114
1.50094	0.7056
2.00535	0.8807
