Adsorption isotherm of Carbon Dioxide on C3N
DOI: 10.1021/acsami.7b09648
Article source: Figure 2
Adsorbate Carbon Dioxide: InChIKey CURLTUGMZLYLDI-UHFFFAOYSA-N
Kind: experiment
Temperature: 350 K
Tabular data in the source: 0
pressure (bar)	uptake (mmol/g)
0.01001	0.2258
0.05012	1.0057
0.10272	1.6503
0.15065	2.0635
0.29954	2.908
0.49953	3.4396
0.59973	3.6644
0.80013	3.8427
0.90131	4.1617
1.00005	4.2385
