Adsorption isotherm of Carbon Dioxide on C3N
DOI: 10.1021/acsami.7b09648
Article source: Figure 2
Adsorbate Carbon Dioxide: InChIKey CURLTUGMZLYLDI-UHFFFAOYSA-N
Kind: experiment
Temperature: 400 K
Tabular data in the source: 0
pressure (bar)	uptake (mmol/g)
0.05134	0.2901
0.10045	0.5538
0.15073	0.7855
0.30001	1.687
0.50041	1.8946
0.59943	2.123
0.79927	2.4952
0.90108	2.6117
0.99979	2.7365
