Adsorption isotherm of Hydrogen on C3N
DOI: 10.1021/acsami.7b09648
Article source: Figure 6
Adsorbate Hydrogen: InChIKey UFHFLCQGNIYNRP-UHFFFAOYSA-N
Kind: experiment
Temperature: 300 K
Tabular data in the source: 0
pressure (bar)	uptake (mmol/g)
0.0123	0.018
0.04859	0.0153
0.09794	0.0204
0.14584	0.0151
0.2968	0.0332
0.49929	0.0327
0.70105	0.0455
0.89846	0.0503
0.99934	0.0554
1.49867	0.0622
1.99654	0.0743
