Adsorption isotherm of Carbon Dioxide on C3N
DOI: 10.1021/acsami.7b09648
Article source: Figure 8
Adsorbate Carbon Dioxide: InChIKey CURLTUGMZLYLDI-UHFFFAOYSA-N
Kind: experiment
Temperature: 300 K
Tabular data in the source: 0
pressure (bar)	uptake (mmol/g)
0.0084	0.5297
0.04875	1.8892
0.15068	3.0106
0.29769	3.6105
0.49928	4.0246
0.70006	4.38
0.80087	4.6245
0.90011	4.856
1.00317	4.8723
1.50228	5.4463
2.00363	5.7757
