Adsorption isotherm of Carbon Dioxide on C3N
DOI: 10.1021/acsami.7b09648
Article source: Figure 6
Adsorbate Carbon Dioxide: InChIKey CURLTUGMZLYLDI-UHFFFAOYSA-N
Kind: experiment
Temperature: 300 K
Tabular data in the source: 0
pressure (bar)	uptake (mmol/g)
0.00885	0.4843
0.04925	1.5608
0.10055	2.1602
0.14815	2.488
0.30003	3.0674
0.49853	3.5472
0.70156	3.8052
0.90368	4.0333
1.00062	4.1027
1.49903	4.5422
2.00018	4.8889
