Adsorption isotherm of Carbon Dioxide on C3N
DOI: 10.1021/acsami.7b09648
Article source: Figure 2
Adsorbate Carbon Dioxide: InChIKey CURLTUGMZLYLDI-UHFFFAOYSA-N
Kind: experiment
Temperature: 300 K
Tabular data in the source: 0
pressure (bar)	uptake (mmol/g)
0.01036	1.1875
0.05029	2.9594
0.09888	3.6975
0.15142	3.9915
0.29925	4.6539
0.50059	5.1911
0.60039	5.4693
0.8	5.8549
0.89863	6.0761
0.99771	6.2769
