Adsorption isotherm of Carbon Dioxide on C3N
DOI: 10.1021/acsami.7b09648
Article source: Figure 2
Adsorbate Carbon Dioxide: InChIKey CURLTUGMZLYLDI-UHFFFAOYSA-N
Kind: experiment
Temperature: 500 K
Tabular data in the source: 0
pressure (bar)	uptake (mmol/g)
0.01244	0.0044
0.05174	0.0527
0.10095	0.0897
0.15046	0.1323
0.30147	0.2745
0.50045	0.4621
0.60102	0.6011
0.8	0.6869
0.90027	0.7468
0.9996	0.8293
