Adsorption isotherm of Nitrogen on S-MIL-101
DOI: 10.1016/j.molcata.2015.09.025
Article source: Figure 4
Adsorbate Nitrogen: InChIKey IJGRMHOSHXDMSA-UHFFFAOYSA-N
Kind: experiment
Temperature: 77 K
Tabular data in the source: 0
pressure (bar)	uptake (cm3(STP)/g)
0	0
0.001327	280.2
0.007166	393.894
0.05594	493.289
0.062058	497.338
0.108961	529.731
0.110998	531.757
0.161878	606.782
0.188435	606.729
0.212945	608.71
0.241544	608.653
0.264015	608.608
0.290568	610.585
0.315081	610.536
0.339591	612.517
0.364099	614.499
0.392699	614.441
0.417214	614.392
0.443766	616.37
0.466237	616.325
0.492789	618.302
0.517304	618.253
0.543855	620.23
0.568369	620.181
0.594922	622.158
0.619435	622.109
0.645987	624.086
0.668459	624.041
0.69501	626.018
0.719525	625.969
0.746077	627.947
0.770586	629.928
0.799181	631.901
0.819609	631.86
0.850246	633.829
0.868628	635.823
0.907426	641.836
0.919683	641.812
0.96459	655.935
