Adsorption isotherm of Nitrogen on MIL-101
DOI: 10.1016/j.molcata.2015.09.025
Article source: Figure 4
Adsorbate Nitrogen: InChIKey IJGRMHOSHXDMSA-UHFFFAOYSA-N
Kind: experiment
Temperature: 77 K
Tabular data in the source: 0
pressure (bar)	uptake (cm3(STP)/g)
0	0
0.001457	229.439
0.003059	402.024
0.019112	515.698
0.061897	560.282
0.0924	615.043
0.137157	688.05
0.16167	688.001
0.188217	692.009
0.212737	689.929
0.239283	693.937
0.265845	691.853
0.292393	695.861
0.314869	693.785
0.341416	697.793
0.36593	697.744
0.392476	701.752
0.414958	697.646
0.443543	703.68
0.466025	699.574
0.494609	705.608
0.517086	703.532
0.543627	709.571
0.566104	707.495
0.596736	711.495
0.619212	709.419
0.645759	713.427
0.670279	711.347
0.696825	715.355
0.721345	713.275
0.745849	717.287
0.770368	715.208
0.79692	717.185
0.82143	719.166
0.850024	721.139
0.870448	723.129
0.905166	727.12
0.921508	727.087
