Adsorption isotherm of Nitrogen on Rh@S-MIL-101 (2.2 wt% Rh)
DOI: 10.1016/j.molcata.2015.09.025
Article source: Figure 4
Adsorbate Nitrogen: InChIKey IJGRMHOSHXDMSA-UHFFFAOYSA-N
Kind: experiment
Temperature: 77 K
Tabular data in the source: 0
pressure (bar)	uptake (cm3(STP)/g)
0	0
0.001452	231.469
0.007295	343.133
0.060145	446.58
0.111128	480.996
0.162008	556.021
0.18856	557.998
0.213073	557.949
0.239631	557.895
0.26414	559.877
0.290691	561.854
0.313163	561.809
0.341758	563.782
0.364229	563.737
0.392829	563.68
0.415296	565.665
0.443891	567.638
0.466361	567.593
0.492919	567.54
0.517427	569.521
0.543979	571.499
0.568494	571.45
0.595046	573.427
0.617517	573.382
0.646112	575.355
0.668583	575.31
0.695135	577.287
0.71965	577.238
0.746202	579.215
0.768673	579.17
0.79931	581.139
0.821776	583.125
0.850371	585.098
0.868751	587.092
0.907556	591.075
0.919808	593.081
0.964714	607.204
