Adsorption isotherm of Nitrogen on AlPO-5
DOI: 10.1007/s10450-018-9966-x
Article source: Figure 3a
Adsorbate Nitrogen: InChIKey IJGRMHOSHXDMSA-UHFFFAOYSA-N
Kind: experiment
Temperature: 77 K
Tabular data in the source: 0
pressure (bar)	uptake (cm3(STP)/g)
0.000952	7.32648
0.013332	8.48329
0.033331	9.51157
0.067613	10.4113
0.079993	10.7969
0.099992	10.9255
0.130465	11.4396
0.161891	11.9537
0.20665	12.3393
0.328544	13.3676
0.481865	14.5244
0.633281	15.8098
0.708513	16.3239
0.769461	17.3522
0.83136	18.7661
0.871357	20.1799
0.912306	22.4936
0.949446	26.4781
0.975158	33.9332
0.989442	46.9152
0.140941	11.1825
0.199984	11.9537
0.253312	12.7249
0.302832	12.7249
0.354257	13.2391
0.404729	13.7532
0.456153	14.2674
0.505673	14.7815
0.555192	15.1671
0.606617	15.8098
0.658041	16.3239
0.709465	17.0951
0.759937	18.1234
0.793268	18.8946
0.817076	19.4087
0.84374	20.9512
0.873262	22.8792
0.916115	29.3059
0.934209	35.347
0.96373	64.1388
0.977063	85.6041
0.98849	95.1157
1.00658	99.3573
