Adsorption isotherm of Nitrogen on 0.05FeAlPO-5
DOI: 10.1007/s10450-018-9966-x
Article source: Figure 3c
Adsorbate Nitrogen: InChIKey IJGRMHOSHXDMSA-UHFFFAOYSA-N
Kind: experiment
Temperature: 77 K
Tabular data in the source: 0
pressure (bar)	uptake (cm3(STP)/g)
0	20.4793
0	7.66885
0.000963	33.4641
0.000963	45.9259
0.004816	53.6819
0.022153	55.0763
0.034674	55.8606
0.069348	56.9063
0.080906	57.1678
0.102096	57.6035
0.131954	58.0392
0.160849	58.3007
0.204191	58.5621
0.329403	59.4336
0.404529	59.6078
0.48062	59.8693
0.555746	59.9564
0.6328	60.2179
0.707927	60.305
0.769569	60.305
0.828322	60.7407
0.869738	61.1765
0.910191	61.6122
0.946792	62.7451
0.97376	64.488
0.989171	66.7538
0.142548	58.3007
0.200338	58.8235
0.252349	59.085
0.302434	59.3464
0.352519	59.695
0.403566	59.9564
0.454614	60.4793
0.504699	61.0022
0.555746	61.1765
0.607757	61.2636
0.657842	61.4379
0.707927	61.6122
0.758011	61.6993
0.791722	61.9608
0.817727	62.1351
0.841807	62.3965
0.867812	62.658
0.889965	62.9194
0.917897	63.7037
0.944865	65.7081
0.982429	69.8911
1.00555	70.9368
