Adsorption isotherm of Nitrogen on 0.10FeAlPO-5
DOI: 10.1007/s10450-018-9966-x
Article source: Figure 3e
Adsorbate Nitrogen: InChIKey IJGRMHOSHXDMSA-UHFFFAOYSA-N
Kind: experiment
Temperature: 77 K
Tabular data in the source: 0
pressure (bar)	uptake (cm3(STP)/g)
0	9.17647
0	43.3412
0.000961	36
0.000961	27.2471
0.000961	18.0706
0.004807	47.5765
0.010575	49.5529
0.034608	51.3882
0.067294	53.2235
0.080752	53.7882
0.10094	54.2118
0.131703	55.2
0.161505	55.7647
0.20861	56.4706
0.328778	58.0235
0.406646	58.8706
0.48163	59.8588
0.556615	60.5647
0.63256	61.1294
0.708506	62.4
0.770993	63.3882
0.828673	65.6471
0.870011	68.0471
0.910387	71.8588
0.947879	77.9294
0.973835	87.3882
0.990178	99.6706
0.141317	55.4824
0.20092	56.4706
0.252832	57.3176
0.302821	57.8824
0.352811	58.8706
0.403762	59.5765
0.454713	60.2824
0.504702	60.8471
0.555653	61.6941
0.605643	62.4
0.637367	62.9647
0.690241	63.5294
0.757534	65.6471
0.811369	67.9059
0.835403	71.0118
0.86232	77.0824
0.883469	84.9882
0.908464	95.2941
0.922884	103.906
0.945956	115.906
0.980565	123.529
1.00652	120.424
