Adsorption isotherm of Nitrogen on 0.02FeAlPO-5
DOI: 10.1007/s10450-018-9966-x
Article source: Figure 3b
Adsorbate Nitrogen: InChIKey IJGRMHOSHXDMSA-UHFFFAOYSA-N
Kind: experiment
Temperature: 77 K
Tabular data in the source: 0
pressure (bar)	uptake (cm3(STP)/g)
0	27.0684
0	44.8667
0	8.80649
0	35.9676
0	53.3951
0.000964	17.9838
0.000964	61.2746
0.00482	63.6848
0.009641	64.8899
0.032779	66.4658
0.06845	67.7636
0.080983	68.2271
0.101229	68.6906
0.130151	69.2468
0.161002	69.803
0.206314	70.3592
0.254518	70.6373
0.327788	71.2862
0.40395	71.7497
0.479149	71.9351
0.556275	72.0278
0.650755	72.0278
0.727882	72.1205
0.769337	72.1205
0.82911	72.0278
0.888883	72.2132
0.908165	72.3986
0.947692	72.9548
0.975651	73.8818
0.991076	74.8088
0.14172	69.7103
0.202457	70.4519
0.250661	71.0081
0.302722	71.4716
0.352854	71.9351
0.40395	72.3059
0.455047	72.6767
0.504215	73.0475
0.536029	73.1402
0.606407	73.2329
0.657504	73.3256
0.689319	73.4183
0.758732	73.511
0.813685	73.6037
0.841643	73.6964
0.864781	73.8818
0.890812	74.0672
0.916842	74.2526
0.942872	74.8088
0.982399	76.6628
1.00554	77.0336
