Adsorption isotherm of Nitrogen on 0.08FeAlPO-5
DOI: 10.1007/s10450-018-9966-x
Article source: Figure 3d
Adsorbate Nitrogen: InChIKey IJGRMHOSHXDMSA-UHFFFAOYSA-N
Kind: experiment
Temperature: 77 K
Tabular data in the source: 0
pressure (bar)	uptake (cm3(STP)/g)
0.001908	18.1022
0.001908	8.95377
0.001908	27.056
0.001908	51.9708
0.002862	44.6715
0.003816	36.1071
0.006679	54.9878
0.012403	56.253
0.035302	57.8102
0.069649	58.9781
0.08396	59.562
0.103996	60.0487
0.129757	60.5353
0.16315	61.1192
0.209901	61.8005
0.328209	62.871
0.404537	63.163
0.480864	63.5523
0.556238	63.8443
0.652602	63.9416
0.707939	64.4282
0.769001	64.7202
0.829109	64.9148
0.870136	65.7908
0.910208	66.8613
0.947417	69.0998
0.973178	72.3114
0.990352	76.399
0.143114	60.8273
0.203222	61.8005
0.25379	62.2871
0.302448	62.871
0.354924	63.2603
0.405491	63.8443
0.455104	64.2336
0.506625	64.6229
0.556238	64.9148
0.607759	65.3041
0.657372	65.4988
0.707939	65.5961
0.75946	65.9854
0.789037	66.3747
0.816706	66.764
0.841513	67.3479
0.883493	68.3212
0.910208	70.1703
0.916886	72.3114
0.943601	76.8856
0.981765	82.8224
1.00562	83.017
