Adsorption isotherm of Hydrogen on UTSA-33a
DOI: 10.1002/chem.201102734
Adsorbate Hydrogen: InChIKey UFHFLCQGNIYNRP-UHFFFAOYSA-N
Temperature: 77 K
Tabular data in the source: 0
pressure (bar)	uptake (cm3(STP)/g)
0.00917651	8.27586
0.024374	24.8276
0.033623	31.0345
0.0490623	40.6897
0.0739441	51.0345
0.101933	62.7586
0.117469	69.6552
0.145579	77.931
0.170582	84.8276
0.20192	91.0345
0.226971	96.5517
0.280252	106.897
0.31477	112.414
0.343049	115.862
0.396452	122.759
0.427887	126.207
0.468764	130.345
0.509641	134.483
0.550566	137.241
0.588312	140.69
0.622903	144.138
0.657565	145.517
0.704802	148.276
0.745728	151.034
0.789784	154.483
0.852823	156.552
0.903191	160
0.963098	161.379
1.00716	164.828
1.05131	165.517
