Adsorption isotherm of Methane on UTSA-33a
DOI: 10.1002/chem.201102734
Adsorbate Methane: InChIKey VNWKTOKETHGBQD-UHFFFAOYSA-N
Temperature: 296 K
Tabular data in the source: 0
pressure (bar)	uptake (mmol/g)
0.00159263	0.00224687
0.00619484	0.00486872
0.0091717	0.0101124
0.0135791	0.00749056
0.0175509	0.0101124
0.0335852	0.0232217
0.0623573	0.0363309
0.0923224	0.0546838
0.128679	0.0809023
0.190515	0.114986
0.257645	0.156936
0.328016	0.193642
0.393143	0.230348
0.471201	0.274919
0.539757	0.309003
0.599902	0.348331
0.697632	0.395524
0.787161	0.437474
0.848861	0.489911
0.957797	0.53186
1.06453	0.589541
