Adsorption isotherm of Ethane on UTSA-33a
DOI: 10.1002/chem.201102734
Adsorbate Ethane: InChIKey OTMSDBZUPAUEDD-UHFFFAOYSA-N
Temperature: 296 K
Tabular data in the source: 0
pressure (bar)	uptake (mmol/g)
0.00112553	0.0162291
0.00196734	0.0162291
0.00393905	0.0424475
0.00812855	0.086145
0.0139952	0.1648
0.0244625	0.269674
0.0356752	0.400767
0.0578248	0.566817
0.0951517	0.86396
0.136687	1.12615
0.199339	1.38833
0.253786	1.65051
0.353727	1.89522
0.436952	2.09623
0.590916	2.3322
0.874875	2.61186
1.20114	2.82161
1.5063	3.01388
1.97649	3.17993
