Adsorption isotherm of Ethane on UTSA-33a
DOI: 10.1002/chem.201102734
Article source: Figure 3b
Adsorbate Ethane: InChIKey OTMSDBZUPAUEDD-UHFFFAOYSA-N
Kind: experiment
Temperature: 273 K
Tabular data in the source: 0
pressure (bar)	uptake (cm3(STP)/g)
0.009467	6.66667
0.013108	9.58333
0.019756	12.5
0.026585	16.25
0.039972	22.5
0.04325	23.75
0.075676	34.5833
0.078864	35.4167
0.100911	40
0.110385	42.0833
0.13216	45.4167
0.141454	46.6667
0.169151	49.5833
0.175438	50.8333
0.199949	52.9167
0.206054	53.3333
0.233571	55.4167
0.236761	56.25
0.267194	57.9167
0.300637	59.5833
0.334169	61.6667
0.364513	62.9167
0.397865	64.1667
0.425202	65.4167
0.458462	66.25
0.491724	67.0833
0.525075	68.3333
0.555329	69.1667
0.585583	70
0.615745	70.4167
0.645999	71.25
0.676254	72.0833
0.709424	72.5
0.739587	72.9167
0.772758	73.3333
0.803011	74.1667
0.833174	74.5833
0.866254	74.5833
0.896508	75.4167
0.929678	75.8333
0.959841	76.25
0.971871	76.25
0.990005	76.6667
1.00203	76.6667
1.02008	76.6667
1.0322	77.0833
1.05024	77.0833
1.08341	77.5
