Adsorption isotherm of Ethane on UTSA-33a
DOI: 10.1002/chem.201102734
Adsorbate Ethane: InChIKey OTMSDBZUPAUEDD-UHFFFAOYSA-N
Temperature: 273 K
Tabular data in the source: 0
pressure (bar)	uptake (mmol/g)
0.00121375	0.0249685
0.00225357	0.068666
0.0043124	0.147321
0.00776872	0.252195
0.0124034	0.426985
0.0186431	0.593036
0.0293195	0.802784
0.0408656	1.07371
0.0578248	1.31841
0.0793891	1.59808
0.108995	1.869
0.151918	2.16615
0.224921	2.45455
0.29513	2.6643
0.45719	2.98766
0.599902	3.17993
0.86177	3.3722
1.13077	3.56446
1.52921	3.71304
2.03706	3.84413
