Adsorption isotherm of Acetylene on UTSA-33a
DOI: 10.1002/chem.201102734
Adsorbate Acetylene: InChIKey HSFWRNGVRCDJHI-UHFFFAOYSA-N
Temperature: 273 K
Tabular data in the source: 0
pressure (bar)	uptake (mmol/g)
0.00126997	0.0243436
0.00524722	0.155436
0.0091717	0.286528
0.0133757	0.391402
0.0167739	0.496276
0.0320984	0.941991
0.0652456	1.59745
0.0909395	2.08249
0.122983	2.43644
0.156574	2.73796
0.18485	2.96081
0.211744	3.14434
0.249984	3.31476
0.273678	3.47207
0.304174	3.59006
0.370111	3.82602
0.430406	4.00955
0.500524	4.17997
0.582064	4.37661
0.687182	4.5077
0.799131	4.73056
0.987149	4.9272
1.06453	5.01897
