Adsorption isotherm of Ethane on UTSA-33a
DOI: 10.1002/chem.201102734
Article source: Figure 3a
Adsorbate Ethane: InChIKey OTMSDBZUPAUEDD-UHFFFAOYSA-N
Kind: experiment
Temperature: 296 K
Tabular data in the source: 0
pressure (bar)	uptake (cm3(STP)/g)
0.008649	3.76963
0.014926	5.34031
0.024315	7.53927
0.036712	9.73822
0.042989	11.3089
0.064722	15.3927
0.074059	17.2775
0.101754	21.0471
0.104971	22.3037
0.132509	25.1309
0.135778	26.7016
0.163212	28.9005
0.169435	30.1571
0.196816	32.0419
0.199981	32.9843
0.227309	34.555
0.230526	35.8115
0.257853	37.3822
0.263973	38.0105
0.294256	39.267
0.294413	40.2094
0.324644	41.1518
0.327756	41.7801
0.358039	43.0366
0.358144	43.6649
0.385367	44.6073
0.391486	45.2356
0.421716	46.178
0.421768	46.4921
0.451999	47.4346
0.455059	47.7487
0.485236	48.377
0.485341	49.0052
0.515467	49.3194
0.518579	49.9476
0.545748	50.5759
0.548862	51.2042
0.575979	51.5183
0.579091	52.1466
0.609165	52.1466
0.612276	52.7749
0.639446	53.4031
0.642506	53.7173
0.672631	54.0314
0.672685	54.3455
0.702809	54.6597
0.705922	55.288
0.73304	55.6021
0.733145	56.2304
0.766277	56.5445
0.799462	57.1728
0.826632	57.801
0.859817	58.4293
0.889995	59.0576
0.923127	59.3717
0.953306	60
0.968394	60.3141
0.983483	60.6283
0.995511	60.6283
1.01361	60.9424
1.0287	61.2565
1.04679	61.5707
1.07993	61.8848
