Adsorption isotherm of Acetylene on UTSA-33a
DOI: 10.1002/chem.201102734
Adsorbate Acetylene: InChIKey HSFWRNGVRCDJHI-UHFFFAOYSA-N
Temperature: 296 K
Tabular data in the source: 0
pressure (bar)	uptake (mmol/g)
0.00141149	-0.0149842
0.00540802	0.0505621
0.00945278	0.0505621
0.0135791	0.102999
0.017029	0.142327
0.0320984	0.299638
0.0614232	0.561823
0.0937264	0.824007
0.122983	1.07308
0.18485	1.46636
0.253786	1.85964
0.318263	2.12182
0.393143	2.35779
0.478367	2.63308
0.556298	2.86905
0.708241	3.15745
0.874875	3.47207
1.03287	3.6556
1.09715	3.72115
