Adsorption isotherm of Ethene on UTSA-33a
DOI: 10.1002/chem.201102734
Adsorbate Ethene: InChIKey VGGSQFUCUMXWEO-UHFFFAOYSA-N
Temperature: 296 K
Tabular data in the source: 0
pressure (bar)	uptake (mmol/g)
0.00931118	0.0280896
0.0133757	0.0575854
0.0165227	0.0772493
0.0320984	0.205064
0.0623573	0.411535
0.0951517	0.627838
0.124853	0.765485
0.154228	0.932627
0.182081	1.07027
0.214964	1.20792
0.246239	1.3259
0.286354	1.44389
0.34321	1.61103
0.393143	1.71918
0.450342	1.85683
0.485641	1.96498
0.556298	2.10263
0.627689	2.22061
0.729945	2.34843
0.823621	2.46641
0.915398	2.58439
1.04858	2.72204
