Adsorption isotherm of Methane on UTSA-33a
DOI: 10.1002/chem.201102734
Article source: Figure 3b
Adsorbate Methane: InChIKey VNWKTOKETHGBQD-UHFFFAOYSA-N
Kind: experiment
Temperature: 273 K
Tabular data in the source: 0
pressure (bar)	uptake (cm3(STP)/g)
0.008367	2.66413
0.03554	3.49252
0.038492	3.06961
0.065666	3.898
0.06572	4.31932
0.095901	5.14612
0.126026	5.5516
0.129088	5.97133
0.159214	6.37681
0.189394	7.20361
0.192456	7.62335
0.222582	8.02883
0.252762	8.85563
0.25577	8.85404
0.282943	9.68243
0.288958	9.67926
0.316075	10.0863
0.319138	10.5061
0.349263	10.9115
0.352324	11.3313
0.379443	11.7383
0.38245	11.7368
0.415638	12.562
0.442812	13.3904
0.445763	12.9675
0.475944	13.7943
0.506069	14.1997
0.539257	15.0249
0.569383	15.4304
0.602625	16.677
0.629688	16.6627
0.629744	17.084
0.65987	17.4895
0.662876	17.4879
0.696064	18.3131
0.723237	19.1415
0.726244	19.1399
0.75637	19.5454
0.783489	19.9525
0.789502	19.9493
0.82269	20.7745
0.849809	21.1816
0.879989	22.0084
0.916129	22.4107
0.943246	22.8178
0.958337	23.2312
0.976434	23.643
0.988463	23.6367
1.00656	24.0485
1.01859	24.0421
1.03969	24.4524
1.06987	25.2792
