Adsorption isotherm of Ethene on UTSA-33a
DOI: 10.1002/chem.201102734
Adsorbate Ethene: InChIKey VGGSQFUCUMXWEO-UHFFFAOYSA-N
Temperature: 273 K
Tabular data in the source: 0
pressure (bar)	uptake (mmol/g)
0.00205846	0.0182577
0.00405976	0.0674173
0.00753772	0.155905
0.014208	0.28372
0.0198032	0.391871
0.0373276	0.647501
0.0561054	0.981787
0.0965987	1.3849
0.136687	1.76834
0.199339	2.14196
0.282065	2.4959
0.399122	2.87935
0.573346	3.2333
0.848861	3.61674
1.09715	3.81338
1.46151	4.09851
2.00655	4.41313
