Adsorption isotherm of Acetylene on UTSA-33a
DOI: 10.1002/chem.201102734
Adsorbate Acetylene: InChIKey HSFWRNGVRCDJHI-UHFFFAOYSA-N
Temperature: 273 K
Tabular data in the source: 0
pressure (bar)	uptake (mmol/g)
0.00126997	0.0243436
0.00524722	0.155436
0.0091717	0.286528
0.0133757	0.391402
0.0167739	0.496276
0.0280215	0.810898
0.047523	1.20418
0.0633055	1.54502
0.0951517	2.01695
0.128679	2.41023
0.193412	2.97392
0.282065	3.45897
0.393143	3.91779
0.609025	4.40283
0.929318	4.87476
1.35528	5.25493
2.00655	5.6351
