Adsorption isotherm of Methane on UTSA-33a
DOI: 10.1002/chem.201102734
Adsorbate Methane: InChIKey VNWKTOKETHGBQD-UHFFFAOYSA-N
Temperature: 273 K
Tabular data in the source: 0
pressure (bar)	uptake (mmol/g)
0.00143295	0.00224687
0.00557375	0.00749056
0.00931118	0.0127343
0.0135791	0.0127343
0.0167739	0.0205998
0.0320984	0.0363309
0.0642682	0.0730368
0.0965987	0.114986
0.122983	0.154314
0.154228	0.183154
0.190515	0.222482
0.249984	0.298516
0.313496	0.364062
0.364567	0.43223
0.405191	0.468936
0.478367	0.534482
0.539757	0.594785
0.609025	0.662953
0.666749	0.71539
0.697632	0.778314
0.799131	0.833373
0.86177	0.88581
0.929318	0.961843
1.0174	1.01952
1.04858	1.05885
