Adsorption isotherm of Ethene on UTSA-33a
DOI: 10.1002/chem.201102734
Article source: Figure 3b
Adsorbate Ethene: InChIKey VGGSQFUCUMXWEO-UHFFFAOYSA-N
Kind: experiment
Temperature: 273 K
Tabular data in the source: 0
pressure (bar)	uptake (cm3(STP)/g)
0.008774	4.63158
0.024976	11.7895
0.040698	16
0.040836	16.8421
0.066265	25.2632
0.07563	27.3684
0.100717	33.6842
0.106937	34.9474
0.134757	39.5789
0.140978	40.8421
0.162645	44.6316
0.168798	45.4737
0.196343	48.4211
0.199556	49.6842
0.226964	51.7895
0.233117	52.6316
0.257517	54.7368
0.263669	55.5789
0.294085	57.6842
0.297161	58.1053
0.3245	59.7895
0.327576	60.2105
0.357992	62.3158
0.388339	64
0.424769	66.1053
0.455048	67.3684
0.488333	68.6316
0.518612	69.8947
0.548959	71.5789
0.579168	72.4211
0.612455	73.6842
0.642664	74.5263
0.672874	75.3684
0.706161	76.6316
0.73637	77.4737
0.769587	78.3158
0.799797	79.1579
0.829938	79.5789
0.860148	80.4211
0.893297	80.8421
0.923507	81.6842
0.953716	82.5263
0.968822	82.9474
0.986866	82.9474
0.995955	83.3684
1.01707	83.7895
1.03211	83.7895
1.04722	84.2105
1.08036	84.6316
