Adsorption isotherm of Ethane on UTSA-33a
DOI: 10.1002/chem.201102734
Adsorbate Ethane: InChIKey OTMSDBZUPAUEDD-UHFFFAOYSA-N
Temperature: 273 K
Tabular data in the source: 0
pressure (bar)	uptake (mmol/g)
0.00125095	0.0162291
0.00501493	0.1648
0.00974246	0.304632
0.012978	0.418246
0.0167739	0.51438
0.0325865	0.942616
0.0662377	1.46699
0.0895773	1.76413
0.119326	1.96514
0.156574	2.18362
0.18485	2.32346
0.218233	2.43707
0.257645	2.55942
0.286354	2.6643
0.34321	2.76917
0.381454	2.89152
0.478367	2.97018
0.523707	3.05757
0.637234	3.17993
0.719011	3.25858
0.848861	3.36346
1.04858	3.49455
