Adsorption isotherm of Hydrogen on UTSA-33a
DOI: 10.1002/chem.201102734
Article source: Figure 2b
Adsorbate Hydrogen: InChIKey UFHFLCQGNIYNRP-UHFFFAOYSA-N
Kind: experiment
Temperature: 77 K
Tabular data in the source: 0
pressure (bar)	uptake (cm3(STP)/g)
0.002085	1.73745
0.00228	4.05405
0.005432	6.94981
0.008974	14.4788
0.011785	13.3205
0.039814	35.3282
0.042674	34.749
0.073126	50.9653
0.091163	57.9151
0.097321	61.9691
0.121176	68.9189
0.127188	71.2355
0.150994	77.6062
0.151141	79.3436
0.180666	84.556
0.180813	86.2934
0.207431	91.5058
0.207528	92.6641
0.234097	97.2973
0.237103	98.4556
0.260715	102.51
0.263624	102.51
0.290192	107.143
0.290241	107.722
0.319622	111.197
0.319671	111.776
0.346142	115.251
0.34619	115.83
0.372565	118.147
0.37562	119.884
0.401946	121.622
0.401995	122.201
0.428417	125.097
0.431375	125.676
0.457749	127.992
0.460755	129.151
0.484123	130.309
0.484172	130.888
0.510498	132.625
0.510595	133.784
0.536872	134.942
0.539878	136.1
0.563247	137.259
0.566204	137.838
0.59253	139.575
0.595487	140.154
0.618904	141.892
0.621862	142.471
0.645182	143.05
0.645279	144.208
0.671555	145.367
0.674513	145.946
0.70079	147.104
0.703747	147.683
0.727067	148.263
0.727164	149.421
0.753393	150
0.756399	151.158
0.782628	151.737
0.782725	152.896
0.805995	152.896
0.811911	154.054
0.835327	155.792
0.838139	154.633
0.858647	156.371
0.864513	156.95
0.890789	158.108
0.917067	159.266
0.943344	160.425
0.975438	161.583
0.984214	162.162
1.00172	162.741
1.01049	163.32
1.02213	163.32
1.03677	164.479
1.05136	165.058
1.0805	165.637
