Adsorption isotherm of Ethane on UTSA-33a
DOI: 10.1002/chem.201102734
Adsorbate Ethane: InChIKey OTMSDBZUPAUEDD-UHFFFAOYSA-N
Temperature: 296 K
Tabular data in the source: 0
pressure (bar)	uptake (mmol/g)
0.00139034	0.00748956
0.00549026	0.051187
0.00945278	0.086145
0.0131753	0.147321
0.0167739	0.17354
0.0335852	0.34833
0.0623573	0.636733
0.0980676	0.881439
0.124853	1.09119
0.158955	1.23976
0.190515	1.38833
0.221552	1.50194
0.282065	1.73791
0.353727	1.90396
0.423959	2.03505
0.478367	2.13993
0.539757	2.2448
0.618286	2.38463
0.848861	2.5769
0.94345	2.69925
1.06453	2.76917
