Adsorption isotherm of Acetylene on UTSA-33a
DOI: 10.1002/chem.201102734
Article source: Figure 3b
Adsorbate Acetylene: InChIKey HSFWRNGVRCDJHI-UHFFFAOYSA-N
Kind: experiment
Temperature: 273 K
Tabular data in the source: 0
pressure (bar)	uptake (cm3(STP)/g)
0.013016	12.2105
0.019373	14.3158
0.026279	19.7895
0.035781	22.7368
0.042756	28.6316
0.071193	37.0526
0.078236	43.3684
0.103049	48
0.10975	52.2105
0.134357	55.5789
0.141056	59.7895
0.168465	61.8947
0.172022	65.2632
0.199361	66.9474
0.202849	69.8947
0.23012	71.1579
0.236614	74.1053
0.266893	75.3684
0.267235	77.4737
0.297514	78.7368
0.300795	80.4211
0.330937	80.8421
0.331349	83.3684
0.361558	84.2105
0.361764	85.4737
0.391974	86.3158
0.395255	88
0.422389	88.4211
0.42861	89.6842
0.45882	90.5263
0.459026	91.7895
0.489166	92.2105
0.49238	93.4737
0.516439	93.4737
0.522728	95.1579
0.549792	95.1579
0.553005	96.4211
0.583079	96.4211
0.583284	97.6842
0.613426	98.1053
0.616569	98.9474
0.646711	99.3684
0.646848	100.211
0.67699	100.632
0.680133	101.474
0.707199	101.474
0.710344	102.316
0.737478	102.737
0.740622	103.579
0.770695	103.579
0.770833	104.421
0.80405	105.263
0.83419	105.684
0.834259	106.105
0.867407	106.526
0.867477	106.947
0.897686	107.789
0.927828	108.211
0.958037	109.053
0.976218	109.895
0.988179	109.474
1.00335	110.316
1.02133	109.895
1.0365	110.737
1.05461	111.158
1.08475	111.579
