Adsorption isotherm of Methane on UTSA-33a
DOI: 10.1002/chem.201102734
Adsorbate Methane: InChIKey VNWKTOKETHGBQD-UHFFFAOYSA-N
Temperature: 273 K
Tabular data in the source: 0
pressure (bar)	uptake (mmol/g)
0.0191529	0.00224687
0.0982469	0.00749056
0.208954	0.0127343
0.52997	0.0127343
1.27822	0.0258435
3.24195	0.0415746
8.64682	0.0677931
18.3902	0.117608
41.1308	0.183154
68.0229	0.246079
127.575	0.335222
190.789	0.434852
315.531	0.558079
448.727	0.683928
606.841	0.804533
761.017	0.88581
884.995	0.972331
1082.27	1.06672
1323.52	1.18994
