Adsorption isotherm of Nitrogen on UTSA-33a
DOI: 10.1002/chem.201102734
Adsorbate Nitrogen: InChIKey IJGRMHOSHXDMSA-UHFFFAOYSA-N
Temperature: 77 K
Tabular data in the source: 0
pressure (bar)	uptake (cm3(STP)/g)
0.00238118	190.323
0.00476235	196.774
0.00714353	204.032
0.0166682	212.903
0.0285741	217.742
0.0619106	220.968
0.100009	224.194
0.111915	225.806
0.130965	226.613
0.159539	227.419
0.192875	228.226
0.228593	229.839
0.252405	231.452
0.271454	231.452
0.290504	231.452
0.307172	232.258
0.321459	232.258
0.352414	232.258
0.383369	233.065
0.414325	233.871
0.450042	233.871
0.478616	234.677
0.509572	233.871
0.542908	235.484
0.573864	235.484
0.604819	236.29
0.638155	235.484
0.669111	236.29
0.700066	237.097
0.764358	236.29
0.797694	237.097
0.859605	237.097
0.895322	237.097
