Adsorption isotherm of Acetylene on UTSA-33a
DOI: 10.1002/chem.201102734
Article source: Figure 3a
Adsorbate Acetylene: InChIKey HSFWRNGVRCDJHI-UHFFFAOYSA-N
Kind: experiment
Temperature: 296 K
Tabular data in the source: 0
pressure (bar)	uptake (cm3(STP)/g)
0.006322	6.02873
0.012742	7.89798
0.025109	9.45295
0.043896	12.8772
0.075254	18.7921
0.106543	24.3952
0.130938	25.9455
0.137765	29.6863
0.165032	30.6116
0.168715	33.7297
0.195983	34.6549
0.202674	37.7719
0.229873	38.3852
0.233557	41.5034
0.263762	42.1155
0.264373	44.9229
0.297517	45.2219
0.298059	47.7174
0.325191	48.0188
0.331746	50.5119
0.358877	50.8133
0.36229	52.6837
0.392429	52.9839
0.39591	55.1662
0.423041	55.4676
0.426454	57.338
0.453517	57.3275
0.45693	59.1979
0.487001	59.1862
0.487408	61.0578
0.517477	61.046
0.52383	62.6033
0.550961	62.9047
0.5513	64.4644
0.581303	64.1407
0.584716	66.0111
0.611779	66.0006
0.615057	67.2471
0.645127	67.2354
0.645467	68.7951
0.675536	68.7833
0.678815	70.0299
0.708884	70.0182
0.709088	70.954
0.739226	71.2542
0.742436	72.1888
0.772642	72.8009
0.772778	73.4248
0.799908	73.7262
0.803118	74.6608
0.833257	74.961
0.836467	75.8956
0.866605	76.1958
0.866673	76.5078
0.89681	76.808
0.899953	77.4307
0.930158	78.0428
0.930294	78.6667
0.9605	79.2788
0.972595	79.586
0.990637	79.579
1.00588	80.5089
1.02091	80.5031
1.03608	81.1211
1.05118	81.4271
1.0874	82.0369
