Adsorption isotherm of Ethene on UTSA-33a
DOI: 10.1002/chem.201102734
Adsorbate Ethene: InChIKey VGGSQFUCUMXWEO-UHFFFAOYSA-N
Temperature: 296 K
Tabular data in the source: 0
pressure (bar)	uptake (mmol/g)
0.00444455	0.00842575
0.00688513	0.00842575
0.0105061	0.0575854
0.0153217	0.106745
0.0255955	0.155905
0.0367684	0.244392
0.0536217	0.352543
0.0909395	0.559014
0.130636	0.804812
0.196353	1.08011
0.261563	1.33574
0.353727	1.62086
0.500524	1.93548
0.627689	2.21078
0.915398	2.54506
1.16542	2.78103
1.41806	3.00717
1.69961	3.18414
1.97649	3.29229
