Adsorption isotherm of Acetylene on UTSA-33a
DOI: 10.1002/chem.201102734
Adsorbate Acetylene: InChIKey HSFWRNGVRCDJHI-UHFFFAOYSA-N
Temperature: 296 K
Tabular data in the source: 0
pressure (bar)	uptake (mmol/g)
0.00110867	0.0112343
0.00205846	0.0112343
0.00333649	0.0112343
0.00628904	0.0636713
0.0120346	0.129218
0.0175509	0.194764
0.0284477	0.299638
0.041487	0.417621
0.0614232	0.561823
0.0882355	0.78468
0.121141	1.11241
0.214964	1.62367
0.313496	2.06939
0.417609	2.46266
0.582064	2.89527
0.787161	3.3672
1.04858	3.70804
1.35528	4.03577
1.67415	4.31107
1.97649	4.52081
