Adsorption isotherm of Ethene on UTSA-33a
DOI: 10.1002/chem.201102734
Article source: Figure 3a
Adsorbate Ethene: InChIKey VGGSQFUCUMXWEO-UHFFFAOYSA-N
Kind: experiment
Temperature: 296 K
Tabular data in the source: 0
pressure (bar)	uptake (cm3(STP)/g)
0.017776	0
0.020888	0
0.039404	0
0.06404	0
0.070212	0
0.097802	0
0.104026	0
0.128557	0
0.137683	0
0.162161	0
0.165326	0
0.192759	0
0.198932	0
0.226312	0
0.229424	0
0.256752	0
0.262872	0
0.290252	0
0.293364	0
0.320692	0
0.326758	0
0.354087	0
0.357199	0
0.387481	0
0.387587	0
0.41787	0
0.451264	0
0.484501	0
0.514836	0
0.545119	0
0.575349	0
0.608691	0
0.641929	0
0.672107	0
0.702389	0
0.73262	0
0.762797	0
0.796035	0
0.826265	0
0.859503	0
0.88968	0
0.922865	0
0.953043	0
0.968131	0
0.98322	0
0.995302	0
1.01335	0
1.02849	0
1.04658	0
1.07676	0
