Adsorption isotherm of Hydrogen on UTSA-33a
DOI: 10.1002/chem.201102734
Adsorbate Hydrogen: InChIKey UFHFLCQGNIYNRP-UHFFFAOYSA-N
Temperature: 77 K
Tabular data in the source: 0
pressure (bar)	uptake (cm3(STP)/g)
0.00917651	8.27586
0.0152942	13.7931
0.0429446	35.1724
0.0739441	51.0345
0.0894317	59.3103
0.117469	69.6552
0.145579	77.931
0.170582	84.8276
0.20192	91.0345
0.226971	96.5517
0.280252	106.897
0.333631	114.483
0.387034	121.379
0.44046	127.586
0.497067	133.103
0.547387	137.931
0.607197	142.069
0.657565	145.517
0.711089	148.966
0.767792	151.724
0.821316	155.172
0.877995	158.621
0.928411	160.69
0.978828	162.759
1.03242	164.138
1.06078	165.517
