Adsorption isotherm of Methane on UTSA-33a
DOI: 10.1002/chem.201102734
Adsorbate Methane: InChIKey VNWKTOKETHGBQD-UHFFFAOYSA-N
Temperature: 296 K
Tabular data in the source: 0
pressure (bar)	uptake (mmol/g)
0.00159263	0.00224687
0.00333649	0.00486872
0.0059206	0.00749056
0.00863439	0.00749056
0.0153217	0.00749056
0.0288803	0.0153561
0.0454193	0.0284654
0.0805964	0.0468183
0.112336	0.0677931
0.163826	0.104499
0.269579	0.156936
0.381454	0.225104
0.500524	0.298516
0.676889	0.382415
0.823621	0.476801
1.03287	0.552835
1.16542	0.657709
1.31498	0.731121
1.46151	0.799289
1.62437	0.877944
1.83283	0.943491
2.03706	1.01952
