Adsorption isotherm of Methane on UTSA-33a
DOI: 10.1002/chem.201102734
Article source: Figure 3a
Adsorbate Methane: InChIKey VNWKTOKETHGBQD-UHFFFAOYSA-N
Kind: experiment
Temperature: 296 K
Tabular data in the source: 0
pressure (bar)	uptake (cm3(STP)/g)
0.008497	2.19895
0.035562	2.19895
0.038638	2.51309
0.062833	3.14136
0.068779	2.82723
0.095981	3.4555
0.101995	3.4555
0.129197	4.08377
0.132204	4.08377
0.159338	4.39791
0.162345	4.39791
0.192487	4.71204
0.195493	4.71204
0.222695	5.34031
0.225703	5.34031
0.255844	5.65445
0.285984	5.96859
0.288992	5.96859
0.316126	6.28272
0.319132	6.28272
0.349274	6.59686
0.352282	6.59686
0.38249	7.22513
0.38543	6.91099
0.412631	7.53927
0.415639	7.53927
0.445779	7.8534
0.448787	7.8534
0.475921	8.16754
0.478927	8.16754
0.509137	8.79581
0.539278	9.10995
0.572426	9.42408
0.602566	9.73822
0.632708	10.0524
0.665856	10.3665
0.695997	10.6806
0.726138	10.9948
0.759286	11.3089
0.789427	11.623
0.819569	11.9372
0.852717	12.2513
0.882926	12.8796
0.913066	13.1937
0.946214	13.5079
0.958244	13.5079
0.976288	13.5079
0.988384	13.822
1.00944	13.822
1.01853	14.1361
1.03958	14.1361
1.06978	14.7644
