Adsorption isotherm of Nitrogen on UTSA-33a
DOI: 10.1002/chem.201102734
Article source: Figure 2a
Adsorbate Nitrogen: InChIKey IJGRMHOSHXDMSA-UHFFFAOYSA-N
Kind: experiment
Temperature: 77 K
Tabular data in the source: 0
pressure (bar)	uptake (cm3(STP)/g)
0.027478	188.71
0.028226	194.355
0.031457	200
0.034475	204.032
0.037813	210.484
0.045583	212.903
0.063502	216.935
0.07915	222.581
0.093944	221.774
0.119312	225.806
0.134107	225
0.149114	225.806
0.159368	228.226
0.166606	226.613
0.196514	227.419
0.199211	229.032
0.229012	229.032
0.239159	230.645
0.26637	229.839
0.281485	231.452
0.283755	229.839
0.298763	230.645
0.316146	230.645
0.318843	232.258
0.333744	232.258
0.346055	231.452
0.358685	233.065
0.366029	232.258
0.395938	233.065
0.398421	233.065
0.430706	233.065
0.438263	233.871
0.462991	233.065
0.480482	233.871
0.497866	233.871
0.517841	234.677
0.530151	233.871
0.557683	235.484
0.565027	234.677
0.597204	233.871
0.599902	235.484
0.629702	235.484
0.639636	235.484
0.664471	235.484
0.679586	237.097
0.696756	235.484
0.71673	236.29
0.731631	236.29
0.75895	236.29
0.7664	236.29
0.796202	236.29
0.828486	236.29
0.836044	237.097
0.858395	237.097
0.865738	236.29
0.89813	237.097
0.927931	237.097
0.937972	237.903
0.9627	237.097
0.997468	237.097
