Adsorption isotherm of Ethene on UTSA-33a
DOI: 10.1002/chem.201102734
Adsorbate Ethene: InChIKey VGGSQFUCUMXWEO-UHFFFAOYSA-N
Temperature: 273 K
Tabular data in the source: 0
pressure (bar)	uptake (mmol/g)
0.0013288	0.00842575
0.0050912	0.0870812
0.0091717	0.155905
0.012978	0.244392
0.0167739	0.293552
0.0320984	0.598342
0.0614232	1.03095
0.0909395	1.42422
0.128679	1.68969
0.154228	1.90599
0.214964	2.23044
0.238918	2.39759
0.318263	2.63355
0.370111	2.78103
0.405191	2.88918
0.478367	3.06616
0.590916	3.25296
0.676889	3.37095
0.763755	3.4791
0.888179	3.61674
0.972363	3.73473
1.03287	3.78389
