Adsorption isotherm of Nitrogen on ZSM-5
DOI: 10.1016/j.micromeso.2005.12.008
Adsorbate Nitrogen: InChIKey IJGRMHOSHXDMSA-UHFFFAOYSA-N
Temperature: 77 K
Tabular data in the source: 0
pressure (bar)	uptake (cm3(STP)/g)
0.00712606	152.878
0.0190028	153.777
0.040381	157.374
0.0665099	159.173
0.0783867	160.072
0.0950142	160.971
0.118768	163.669
0.135395	164.568
0.154398	168.165
0.173401	170.863
0.197154	174.46
0.239911	181.655
0.304045	183.453
0.356303	186.151
0.389558	187.95
0.437065	188.849
0.484572	190.647
0.534455	192.446
0.584337	194.245
0.631844	196.043
0.679351	196.942
0.745861	202.338
0.779116	204.137
0.795744	205.935
0.836125	208.633
0.876506	211.331
0.912136	215.827
0.943016	219.424
0.957268	224.82
0.962019	231.115
