Adsorption isotherm of Nitrogen on ZSM-5
DOI: 10.1016/j.micromeso.2005.12.008
Adsorbate Nitrogen: InChIKey IJGRMHOSHXDMSA-UHFFFAOYSA-N
Temperature: 77 K
Tabular data in the source: 0
pressure (bar)	uptake (cm3(STP)/g)
0.00712606	109.712
0.0190028	113.309
0.0427564	116.906
0.0617592	120.504
0.0807621	121.403
0.116392	123.201
0.154398	126.799
0.194779	129.496
0.239911	132.194
0.292169	133.993
0.334925	134.892
0.389558	136.691
0.43469	138.489
0.482197	140.288
0.532079	141.187
0.579587	142.086
0.631844	143.885
0.679351	145.683
0.719732	145.683
0.745861	145.683
0.833749	148.381
0.86938	149.281
0.897884	151.978
0.919262	153.777
0.94064	156.475
0.957268	160.971
0.97152	169.065
