Adsorption isotherm of Nitrogen on ZSM-5
DOI: 10.1016/j.micromeso.2005.12.008
Adsorbate Nitrogen: InChIKey IJGRMHOSHXDMSA-UHFFFAOYSA-N
Temperature: 77 K
Tabular data in the source: 0
pressure (bar)	uptake (cm3(STP)/g)
0.0162695	1.97187
0.0348632	2.02888
0.0534568	2.10007
0.0743747	2.12875
0.0906442	2.15735
0.111562	2.18603
0.130156	2.21467
0.151074	2.22916
0.171992	2.27201
0.190585	2.30065
0.213827	2.30099
0.234745	2.31548
0.257987	2.34419
0.278905	2.35868
0.295175	2.3731
0.343983	2.388
0.388143	2.4312
0.439276	2.46031
0.488084	2.4894
0.536893	2.49011
0.583377	2.53334
0.634509	2.54827
0.678669	2.5631
0.718181	2.57786
0.780935	2.59296
0.859958	2.63667
0.904118	2.69405
0.922712	2.73688
0.957575	2.85086
0.97152	2.99291
