Adsorption isotherm of Nitrogen on ZSM-5
DOI: 10.1016/j.micromeso.2005.12.008
Adsorbate Nitrogen: InChIKey IJGRMHOSHXDMSA-UHFFFAOYSA-N
Temperature: 77 K
Tabular data in the source: 0
pressure (bar)	uptake (cm3(STP)/g)
0.00697263	2.31216
0.0395116	2.39774
0.0813474	2.45509
0.116211	2.51233
0.155722	2.58383
0.197558	2.7121
0.244042	2.81207
0.304472	2.88388
0.355604	2.91299
0.388143	2.94184
0.439276	2.97095
0.48576	2.98582
0.534568	3.02908
0.583377	3.05816
0.632185	3.10143
0.680994	3.13051
0.718181	3.17361
0.748396	3.20242
0.776286	3.21701
0.799528	3.2599
0.836716	3.303
0.869255	3.36021
0.890173	3.40307
0.913415	3.44596
0.936657	3.51722
0.959899	3.61685
0.966872	3.73043
