Adsorption isotherm of Hydrogen on Cu2(tptc)
DOI: 10.1039/C0fd00010h
Adsorbate Hydrogen: InChIKey UFHFLCQGNIYNRP-UHFFFAOYSA-N
Temperature: 70 K
Tabular data in the source: 0
pressure (bar)	uptake (wt%)
0.845308	3.93574
2.768	2.58549
4.86548	2.00868
8.59433	1.57608
12.2067	1.39255
15.8772	1.30078
19.6061	1.23524
24.3837	1.23524
34.1719	1.37944
