Adsorption isotherm of Hydrogen on Cu2(tptc)
DOI: 10.1039/C0fd00010h
Adsorbate Hydrogen: InChIKey UFHFLCQGNIYNRP-UHFFFAOYSA-N
Temperature: 65 K
Tabular data in the source: 0
pressure (bar)	uptake (wt%)
0.612255	3.68666
2.36015	2.16599
4.39937	1.64162
6.90469	1.36633
9.17696	1.22213
11.5658	1.15658
14.0711	1.09103
18.9069	1.07793
22.5775	1.16969
24.4419	1.23524
