Adsorption isotherm of Hydrogen on Cu2(tptc)
DOI: 10.1039/C0fd00010h
Adsorbate Hydrogen: InChIKey UFHFLCQGNIYNRP-UHFFFAOYSA-N
Temperature: 50 K
Tabular data in the source: 0
pressure (bar)	uptake (wt%)
0.262675	2.96566
1.31141	0.64532
3.05931	0.186497
6.26379	0.0422951
10.4005	0.13406
12.4397	0.186497
15.2946	0.317589
18.0912	0.527337
20.9461	0.776413
30.4431	1.79893
33.8223	2.16599
40.0565	3.04431
