Adsorption isotherm of Hydrogen on Cu2(tptc)
DOI: 10.1039/C0fd00010h
Adsorbate Hydrogen: InChIKey UFHFLCQGNIYNRP-UHFFFAOYSA-N
Temperature: 60 K
Tabular data in the source: 0
pressure (bar)	uptake (wt%)
0.437465	3.31961
1.95231	1.64162
4.16632	1.10414
6.32206	0.894396
8.65259	0.789522
10.9249	0.750194
14.3041	0.776413
17.6834	0.881287
21.0044	0.973051
30.0935	1.53675
