Adsorption isotherm of Hydrogen on Cu2(tptc)
DOI: 10.1039/C0fd00010h
Adsorbate Hydrogen: InChIKey UFHFLCQGNIYNRP-UHFFFAOYSA-N
Temperature: 50 K
Tabular data in the source: 0
pressure (bar)	uptake (wt%)
0.160399	2.36127
0.160399	4.09169
0.597373	5.79808
2.17048	6.71135
3.30662	7.21606
5.92847	7.64866
9.86124	8.05723
14.5806	8.29757
19.1251	8.48984
24.3688	8.63404
29.8747	8.75421
35.1184	8.85034
39.8377	8.89841
