Adsorption isotherm of Hydrogen on Cu2(tptc)
DOI: 10.1039/C0fd00010h
Adsorbate Hydrogen: InChIKey UFHFLCQGNIYNRP-UHFFFAOYSA-N
Temperature: 50 K
Tabular data in the source: 0
pressure (bar)	uptake (wt%)
0.160399	0.030008
0.160399	2.91404
0.335188	5.19724
0.946953	6.20665
2.86964	6.87959
5.49149	7.09589
9.51166	7.04782
13.357	6.78345
18.6007	6.37488
24.3688	5.79808
31.0982	5.07707
40.0125	4.04362
