Adsorption isotherm of Hydrogen on Cu2(tptc)
DOI: 10.1039/C0fd00010h
Adsorbate Hydrogen: InChIKey UFHFLCQGNIYNRP-UHFFFAOYSA-N
Temperature: 50 K
Tabular data in the source: 0
pressure (bar)	uptake (wt%)
0.0730036	0.0197086
0.247794	3.14626
0.422583	6.29248
0.597373	5.15198
1.55872	7.11836
3.74359	7.21668
8.8125	6.98072
13.5318	6.6071
19.5621	6.11551
25.7671	5.62391
31.5352	5.07332
40.0125	4.34576
