Adsorption isotherm of Hydrogen on Cu2(tptc)
DOI: 10.1039/C0fd00010h
Adsorbate Hydrogen: InChIKey UFHFLCQGNIYNRP-UHFFFAOYSA-N
Temperature: 50 K
Tabular data in the source: 0
pressure (bar)	uptake (wt%)
0.0730036	4.48e-05
0.247794	4.03114
1.20914	6.35147
3.21922	6.80374
6.36544	7.00038
8.46292	6.98072
10.473	6.94139
12.3083	6.86273
15.3671	6.72509
18.0764	6.48912
20.873	6.25315
23.5822	6.03685
26.8159	5.6829
30.3117	5.26996
33.7201	4.83736
36.9537	4.36542
40.0125	3.95248
