Adsorption isotherm of Hydrogen on Cu2(tptc)
DOI: 10.1039/C0fd00010h
Adsorbate Hydrogen: InChIKey UFHFLCQGNIYNRP-UHFFFAOYSA-N
Temperature: 55 K
Tabular data in the source: 0
pressure (bar)	uptake (wt%)
0.146148	7.01641
0.379201	3.09675
1.42794	1.16969
4.57416	0.527337
7.8369	0.461791
10.9249	0.435572
14.3041	0.540446
17.4503	0.65843
20.5383	0.841959
29.3361	1.31389
