Adsorption isotherm of Hydrogen on Cu2(tptc)
DOI: 10.1039/C0fd00010h
Adsorbate Hydrogen: InChIKey UFHFLCQGNIYNRP-UHFFFAOYSA-N
Temperature: 50 K
Tabular data in the source: 0
pressure (bar)	uptake (wt%)
0.0730036	0.030008
0.247794	4.06766
1.12174	6.39892
2.95704	6.83152
6.01586	7.02379
8.28813	6.99976
12.3083	6.85555
17.9016	6.51908
23.4075	6.06245
30.3117	5.26934
33.6327	4.83673
36.7789	4.40413
40.0125	3.97152
