Adsorption isotherm of Hydrogen on Cu2(tptc)
DOI: 10.1039/C0fd00010h
Adsorbate Hydrogen: InChIKey UFHFLCQGNIYNRP-UHFFFAOYSA-N
Temperature: 87 K
Tabular data in the source: 0
pressure (bar)	uptake (wt%)
1.66099	4.95826
3.99153	3.89641
6.38032	3.39826
9.17696	2.95255
13.1971	2.58549
17.3338	2.40196
21.2375	2.19221
25.3742	2.04801
29.5109	1.99557
