Adsorption isotherm of Hydrogen on Cu2(tptc)
DOI: 10.1039/C0fd00010h
Adsorbate Hydrogen: InChIKey UFHFLCQGNIYNRP-UHFFFAOYSA-N
Temperature: 77 K
Tabular data in the source: 0
pressure (bar)	uptake (wt%)
1.31141	4.46011
3.2341	3.26717
5.68116	2.62482
8.18648	2.3233
10.6918	2.04801
13.3719	1.86448
17.159	1.72028
21.0627	1.6154
24.8498	1.58919
30.3265	1.70717
