Adsorption isotherm of Nitrogen on Y2O3/ZrO2 catalyst
DOI: 10.1021/acs.iecr.7b02579
Article source: Figure 4
Adsorbate Nitrogen: InChIKey IJGRMHOSHXDMSA-UHFFFAOYSA-N
Kind: experiment
Temperature: 77 K
Tabular data in the source: 0
pressure (bar)	uptake (cm3(STP)/g)
0.053975	9.907
0.075709	10.698
0.093815	11.219
0.107392	12.023
0.111921	12.2
0.136371	12.709
0.154487	12.769
0.175775	13.008
0.204754	13.326
0.233732	13.735
0.256378	14.248
0.278567	14.578
0.307992	15.078
0.327922	15.504
0.341955	15.663
0.379718	16.497
0.384511	16.786
0.423003	17.271
0.431058	17.103
0.465113	18.026
0.465863	17.506
0.508074	18.94
0.513566	19.046
0.544013	19.573
0.547519	20.091
0.587937	20.54
0.589173	21.031
0.630148	22.322
0.630158	21.51
0.669502	23.529
0.670079	23.644
0.703151	25.558
0.708288	25.433
0.747622	28.147
0.749344	27.333
0.782963	32.029
0.785841	29.704
0.829136	35.544
0.834709	47.017
0.846017	55.813
0.869544	44.753
0.870851	78.851
0.87535	84.411
0.897864	62.797
0.900802	104.085
0.910792	79.245
0.911563	110.677
0.921766	116.807
0.922029	93.956
0.929385	99.395
0.930844	120.966
0.935049	103.097
0.943317	127.904
0.945212	112.358
0.951251	132.878
0.95423	121.621
0.959772	135.646
0.961039	124.973
0.962609	137.497
0.967138	140.041
0.968992	128.439
0.970543	141.659
0.971242	131.335
0.977473	134.572
0.979631	145.587
0.981435	137.464
0.982468	147.206
0.98414	150.334
0.989379	141.51
0.990503	143.016
0.994354	155.536
0.994424	148.925
0.994455	146.953
0.997272	150.08
1.00688	158.182
1.00693	153.542
1.00748	155.397
