Adsorption isotherm of Nitrogen on UMCM-1
DOI: 10.1002/anie.200705020
Adsorbate Nitrogen: InChIKey IJGRMHOSHXDMSA-UHFFFAOYSA-N
Temperature: 77 K
Tabular data in the source: 0
pressure (bar)	uptake (cm3(STP)/g)
0.0171192	247.702
0.0193041	72.9118
0.0236738	310.626
0.0258587	432.979
0.0280436	555.332
0.0389679	810.525
0.0477074	932.878
0.0761108	1013.28
0.113254	1069.21
0.207203	1191.57
0.209388	1387.33
0.26401	1411.8
0.412581	1446.76
0.552413	1471.23
0.707539	1478.22
0.803674	1488.71
0.95443	1502.69
