Adsorption isotherm of Carbon Dioxide, Methane on Granular Activated Carbon
DOI: 10.1016/j.cej.2019.122509
Article source: Figure 4b
Adsorbate Carbon Dioxide: InChIKey CURLTUGMZLYLDI-UHFFFAOYSA-N
Adsorbate Methane: InChIKey VNWKTOKETHGBQD-UHFFFAOYSA-N
Kind: experiment
Temperature: 298 K
Tabular data in the source: 0
pressure (bar)	Carbon Dioxide fraction	Carbon Dioxide uptake (mmol/g)	Methane fraction	Methane uptake (mmol/g)	total uptake (mmol/g)
2	0.75	4.4009	0.25	0.429	
2	0.5	3.2914	0.5	0.8802	
2	0.25	1.7973	0.75	1.4201	
