Adsorption isotherm of Nitrogen on Granular Activated Carbon
DOI: 10.1016/j.cej.2019.122509
Article source: Figure 3a
Adsorbate Nitrogen: InChIKey IJGRMHOSHXDMSA-UHFFFAOYSA-N
Kind: experiment
Temperature: 298 K
Tabular data in the source: 0
pressure (bar)	uptake (mmol/g)
0.128	0.0747
0.209	0.121
0.389	0.222
0.588	0.319
0.778	0.412
0.978	0.499
1.48	0.711
2.02	0.903
