Adsorption isotherm of Nitrogen, Methane on Granular Activated Carbon
DOI: 10.1016/j.cej.2019.122509
Article source: Figure 4a
Adsorbate Nitrogen: InChIKey IJGRMHOSHXDMSA-UHFFFAOYSA-N
Adsorbate Methane: InChIKey VNWKTOKETHGBQD-UHFFFAOYSA-N
Kind: experiment
Temperature: 298 K
Tabular data in the source: 0
pressure (bar)	Nitrogen fraction	Nitrogen uptake (mmol/g)	Methane fraction	Methane uptake (mmol/g)	total uptake (mmol/g)
2	0.8	0.7306	0.2	0.6689	
2	0.6	0.4593	0.4	1.2145	
2	0.4	0.3083	0.6	1.7386	
