Adsorption isotherm of Carbon Dioxide on Granular Activated Carbon
DOI: 10.1016/j.cej.2019.122509
Article source: Figure 3c
Adsorbate Carbon Dioxide: InChIKey CURLTUGMZLYLDI-UHFFFAOYSA-N
Kind: experiment
Temperature: 298 K
Tabular data in the source: 0
pressure (bar)	uptake (mmol/g)
0.2	1.41
0.391	2.14
0.579	2.73
0.779	3.26
0.969	3.71
1.32	4.3
2.04	5.45
