Adsorption isotherm of Methane on Granular Activated Carbon
DOI: 10.1016/j.cej.2019.122509
Article source: Figure 3b
Adsorbate Methane: InChIKey VNWKTOKETHGBQD-UHFFFAOYSA-N
Kind: experiment
Temperature: 298 K
Tabular data in the source: 0
pressure (bar)	uptake (mmol/g)
0.1	0.262
0.191	0.455
0.391	0.809
0.579	1.1
0.779	1.36
0.979	1.6
1.48	2.07
2.02	2.47
