Adsorption isotherm of Carbon Dioxide, Nitrogen on Granular Activated Carbon
DOI: 10.1016/j.cej.2019.122509
Article source: Figure 4c
Adsorbate Carbon Dioxide: InChIKey CURLTUGMZLYLDI-UHFFFAOYSA-N
Adsorbate Nitrogen: InChIKey IJGRMHOSHXDMSA-UHFFFAOYSA-N
Kind: experiment
Temperature: 298 K
Tabular data in the source: 0
pressure (bar)	Carbon Dioxide fraction	Carbon Dioxide uptake (mmol/g)	Nitrogen fraction	Nitrogen uptake (mmol/g)	total uptake (mmol/g)
2	0.3	2.6995	0.7	0.4951	
2	0.5	3.7229	0.5	0.3978	
2	0.7	4.5492	0.3	0.2697	
