Adsorption isotherm of Benzene on CuBTC
DOI: 10.1016/j.seppur.2012.04.032
Adsorbate Benzene: InChIKey UHOVQNZJYSORNB-UHFFFAOYSA-N
Temperature: 330 K
Tabular data in the source: 0
pressure (bar)	uptake (mmol/g)
0.0098254	0.0811663
0.05302	0.565534
0.0998895	1.56534
0.466739	3.05065
0.980496	3.19832
4.46778	3.69646
9.36779	4.0605
45.59	4.76139
99.0171	4.96311
