Adsorption isotherm of Thiophene on IRMOF-1
DOI: 10.1016/j.seppur.2012.04.032
Adsorbate Thiophene: InChIKey YTPLMLYBLZKORZ-UHFFFAOYSA-N
Temperature: 300 K
Tabular data in the source: 0
pressure (bar)	uptake (mmol/g)
0.0108648	0.218902
0.0547155	1.02673
0.0989874	12.7228
0.481565	13.6398
0.945502	13.8246
4.6189	14.1587
8.7628	14.4162
41.4276	14.6045
93.1859	14.6806
