Adsorption isotherm of Benzene on IRMOF-1
DOI: 10.1016/j.seppur.2012.04.032
Adsorbate Benzene: InChIKey UHOVQNZJYSORNB-UHFFFAOYSA-N
Temperature: 330 K
Tabular data in the source: 0
pressure (bar)	uptake (mmol/g)
0.0918248	0.350462
0.469849	2.12445
0.92951	9.17285
4.75608	10.5127
9.18254	10.915
46.9851	11.2863
97.5933	11.2881
