Adsorption isotherm of Benzene on CuBTC
DOI: 10.1016/j.seppur.2012.04.032
Adsorbate Benzene: InChIKey UHOVQNZJYSORNB-UHFFFAOYSA-N
Temperature: 330 K
Tabular data in the source: 0
pressure (bar)	uptake (mmol/g)
0.000537353	0.00429281
0.00109262	0.0167742
0.00516952	0.0821093
0.0105	0.216303
0.0506396	1.94499
0.102589	2.3767
0.498432	3.26693
0.974331	3.91507
5.07092	4.66995
9.61515	4.93948
46.9386	5.28876
92.2253	5.35539
193.905	5.40839
