Adsorption isotherm of Thiophene on IRMOF-1
DOI: 10.1016/j.seppur.2012.04.032
Adsorbate Thiophene: InChIKey YTPLMLYBLZKORZ-UHFFFAOYSA-N
Temperature: 330 K
Tabular data in the source: 0
pressure (bar)	uptake (mmol/g)
0.0101679	0.0364948
0.0588925	0.189158
0.104506	0.337142
0.469679	12.4011
1.08827	13.0601
5.12639	13.7584
9.72559	14.0159
41.4706	14.4588
87.1405	14.6075
183.054	14.7926
