Adsorption isotherm of Thiophene on CuBTC
DOI: 10.1016/j.seppur.2012.04.032
Adsorbate Thiophene: InChIKey YTPLMLYBLZKORZ-UHFFFAOYSA-N
Temperature: 300 K
Tabular data in the source: 0
pressure (bar)	uptake (mmol/g)
0.000110306	0.100197
0.00521231	2.72229
0.0101242	2.9665
0.0313971	3.21169
0.0513559	3.32698
0.0625058	3.45595
0.0742301	3.57059
0.090367	3.64242
0.0996919	3.71404
0.293704	4.45909
0.492091	4.71728
0.955422	5.06149
4.72862	5.42192
9.41924	5.52334
46.6563	5.68378
90.6358	5.89942
