Adsorption isotherm of Benzene on CuBTC
DOI: 10.1016/j.seppur.2012.04.032
Adsorbate Benzene: InChIKey UHOVQNZJYSORNB-UHFFFAOYSA-N
Temperature: 300 K
Tabular data in the source: 0
pressure (bar)	uptake (mmol/g)
0.000555559	0.0583375
0.00109157	0.124963
0.00564404	1.62365
0.00996667	2.29898
0.0517976	3.21616
0.101387	3.71554
0.493179	4.47053
0.999227	4.88871
4.7192	5.1569
9.58544	5.2911
42.3721	5.3971
95.284	5.49058
181.08	5.50316
