Adsorption isotherm of Thiophene on IRMOF-1
DOI: 10.1016/j.seppur.2012.04.032
Adsorbate Thiophene: InChIKey YTPLMLYBLZKORZ-UHFFFAOYSA-N
Temperature: 300 K
Tabular data in the source: 0
pressure (bar)	uptake (mmol/g)
0.0133039	0.256132
0.0546311	1.2453
0.0987825	13.0142
0.497604	13.7856
0.944523	13.9703
4.7678	14.4503
9.0523	14.5985
48.979	14.8238
92.9694	15.0085
189.252	14.8655
