Adsorption isotherm of Thiophene on IRMOF-1
DOI: 10.1016/j.seppur.2012.04.032
Adsorbate Thiophene: InChIKey YTPLMLYBLZKORZ-UHFFFAOYSA-N
Temperature: 330 K
Tabular data in the source: 0
pressure (bar)	uptake (mmol/g)
0.0101679	0.0364948
0.0588925	0.189158
0.104506	0.337142
0.454187	12.3645
1.05211	13.06
5.48632	13.7222
9.72559	14.0159
42.9181	14.3861
90.182	14.5348
149.572	14.6825
