Adsorption isotherm of Thiophene on CuBTC
DOI: 10.1016/j.seppur.2012.04.032
Adsorbate Thiophene: InChIKey YTPLMLYBLZKORZ-UHFFFAOYSA-N
Temperature: 330 K
Tabular data in the source: 0
pressure (bar)	uptake (mmol/g)
0.000107649	0.0430068
0.00539237	0.46536
0.0104653	0.90956
0.0314942	2.46888
0.0489948	2.79835
0.0626571	2.87028
0.0841705	2.9566
0.105024	3.02848
0.302384	3.3735
0.506754	3.57456
0.983775	3.94733
4.85828	4.8363
9.43654	5.08051
44.4805	5.32656
84.316	5.51358
