Adsorption isotherm of Benzene on CuBTC
DOI: 10.1016/j.seppur.2012.04.032
Adsorbate Benzene: InChIKey UHOVQNZJYSORNB-UHFFFAOYSA-N
Temperature: 300 K
Tabular data in the source: 0
pressure (bar)	uptake (mmol/g)
0.00109209	0.0708686
0.00533581	0.325484
0.0104602	0.649058
0.0519159	2.95921
0.101859	3.18812
0.497306	3.52387
0.975955	3.72574
4.91057	4.48067
8.99094	4.88549
46.9948	5.15353
92.3018	5.26072
