Adsorption isotherm of Benzene on IRMOF-1
DOI: 10.1016/j.seppur.2012.04.032
Adsorbate Benzene: InChIKey UHOVQNZJYSORNB-UHFFFAOYSA-N
Temperature: 330 K
Tabular data in the source: 0
pressure (bar)	uptake (mmol/g)
0.0442079	0.148313
0.0918248	0.317065
0.458539	10.6072
0.885299	11.3435
4.64159	12.1825
9.18254	12.6517
45.8543	12.9227
86.3993	13.0245
