Adsorption isotherm of Thiophene on CuBTC
DOI: 10.1016/j.seppur.2012.04.032
Adsorbate Thiophene: InChIKey YTPLMLYBLZKORZ-UHFFFAOYSA-N
Temperature: 300 K
Tabular data in the source: 0
pressure (bar)	uptake (mmol/g)
0.000115848	0.157437
0.00538406	0.836762
0.0107142	1.18102
0.0306902	2.76881
0.0489519	3.01262
0.0625835	3.15597
0.0800405	3.21362
0.0974339	3.29974
0.110208	3.28571
0.294627	3.702
0.506184	3.84597
0.935608	4.17579
4.85426	5.03628
8.97454	5.30896
45.5544	5.51231
86.3873	5.59934
