Adsorption isotherm of Thiophene on CuBTC
DOI: 10.1016/j.seppur.2012.04.032
Adsorbate Thiophene: InChIKey YTPLMLYBLZKORZ-UHFFFAOYSA-N
Temperature: 330 K
Tabular data in the source: 0
pressure (bar)	uptake (mmol/g)
0.000113089	0.028824
0.00526211	0.422455
0.0104809	0.552443
0.0301801	0.868896
0.0493299	1.15561
0.060033	1.31315
0.0695376	1.49915
0.0825658	1.65664
0.0910332	1.87112
0.0979152	2.11411
0.288244	3.04485
0.471361	3.21729
0.985815	3.44737
4.75247	4.20772
9.00434	4.50902
46.7283	5.31238
