Adsorption isotherm of Benzene on IRMOF-1
DOI: 10.1016/j.seppur.2012.04.032
Adsorbate Benzene: InChIKey UHOVQNZJYSORNB-UHFFFAOYSA-N
Temperature: 300 K
Tabular data in the source: 0
pressure (bar)	uptake (mmol/g)
0.00952445	0.144602
0.043144	0.41543
0.0940892	1.51941
0.469849	10.6073
0.907135	10.8092
4.75608	11.1806
8.96151	11.3157
45.8543	11.5535
92.9501	11.7889
