Adsorption isotherm of Benzene on IRMOF-1
DOI: 10.1016/j.seppur.2012.04.032
Adsorbate Benzene: InChIKey UHOVQNZJYSORNB-UHFFFAOYSA-N
Temperature: 300 K
Tabular data in the source: 0
pressure (bar)	uptake (mmol/g)
0.00975933	0.0778673
0.0452981	1.08349
0.0964118	11.3382
0.481438	12.2104
0.952436	12.6796
4.75608	12.8839
9.18254	12.9856
45.8543	13.2233
88.5299	13.2583
