Adsorption isotherm of Carbon Dioxide on Zeolite 13X
DOI: 10.1016/j.micromeso.2013.12.005
Article source: Figure 2a
Adsorbate Carbon Dioxide: InChIKey CURLTUGMZLYLDI-UHFFFAOYSA-N
Kind: experiment
Temperature: 273 K
Tabular data in the source: 0
pressure (bar)	uptake (cm3(STP)/g)
4e-05	7.13166
5e-05	8.77743
6.3e-05	10.9718
8.7e-05	15.3605
0.00011	19.2006
0.00012	20.8464
0.000241	29.6238
0.000371	34.5611
0.000492	37.8527
0.000612	40.047
0.000712	41.6928
0.000847	42.79
0.000944	44.4357
0.001053	44.9843
0.001366	47.1787
0.00235	55.9561
0.003473	61.9906
0.004707	66.9279
0.005849	71.3166
0.006958	74.6082
0.008278	77.8997
0.00903	80.094
0.010287	82.837
0.029175	105.878
0.057203	121.238
0.084562	128.918
0.109735	134.404
0.13933	137.696
0.16577	141.536
0.192981	144.279
0.219829	146.473
0.245033	148.119
0.273127	149.765
0.29791	151.411
0.354401	153.605
0.386558	155.251
0.421624	156.348
0.459881	157.994
0.501597	159.091
0.547123	161.285
0.609853	162.931
0.665143	163.48
0.709913	164.577
0.774328	166.223
0.882034	167.868
0.962067	169.514
1.07235	170.611
