Adsorption isotherm of Argon on Zeolite 13X
DOI: 10.1016/j.micromeso.2013.12.005
Article source: Figure 2a
Adsorbate Argon: InChIKey XKRFYHLGVUSROY-UHFFFAOYSA-N
Kind: experiment
Temperature: 87 K
Tabular data in the source: 0
pressure (bar)	uptake (cm3(STP)/g)
2e-06	-0.548589
5e-06	0
7e-06	0
1.1e-05	1.64577
2.4e-05	3.29154
3.6e-05	4.9373
4.7e-05	7.68025
5.9e-05	9.32602
7.2e-05	11.5204
8.4e-05	14.2633
9.4e-05	17.5549
0.000105	18.652
0.000114	20.8464
0.000234	44.9843
0.000346	67.4765
0.000469	85.0313
0.000583	94.3574
0.000693	99.8433
0.00079	104.781
0.00092	108.621
0.001025	111.364
0.001118	113.558
0.00234	126.176
0.003458	132.759
0.004391	136.599
0.005575	139.342
0.006632	140.987
0.00789	143.182
0.008987	144.279
0.010017	145.925
0.011165	146.473
0.02188	153.605
0.028389	156.348
0.032336	157.445
0.042877	160.188
0.054437	162.382
0.064759	164.577
0.075386	166.771
0.082224	167.868
0.097816	170.063
0.129711	174.451
0.154313	177.194
0.183576	179.389
0.209124	182.132
0.233109	184.326
0.259845	186.52
0.283433	188.715
0.315951	191.458
0.352188	193.652
0.375916	195.846
0.401257	198.589
0.419102	200.784
0.447324	202.429
0.48798	206.27
0.520892	209.561
0.532422	212.853
0.568312	215.596
0.593627	218.887
0.6336	220.533
0.661823	223.824
0.706438	226.567
0.706556	229.31
0.754161	231.505
0.787727	234.248
0.805163	237.539
0.822984	240.831
0.840971	239.734
0.918091	255.643
0.938508	260.58
0.959541	268.26
0.981213	278.683
1.00392	297.884
1.02736	320.376
