Adsorption isotherm of Argon on Zeolite 13X
DOI: 10.1016/j.micromeso.2013.12.005
Article source: Figure 2a
Adsorbate Argon: InChIKey XKRFYHLGVUSROY-UHFFFAOYSA-N
Kind: experiment
Temperature: 87 K
Tabular data in the source: 0
pressure (bar)	uptake (cm3(STP)/g)
2e-06	0
4e-06	0.548589
6e-06	0
1e-05	1.09718
1.3e-05	1.64577
2.3e-05	3.29154
3.6e-05	6.03448
4.8e-05	8.22884
5.9e-05	10.9718
6.9e-05	12.6176
8.4e-05	15.3605
9.6e-05	18.652
0.000107	21.395
0.000117	23.5893
0.000229	56.5047
0.000346	91.0658
0.00046	116.85
0.000584	131.661
0.000695	139.89
0.000809	145.925
0.000942	151.959
0.001006	154.702
0.001146	157.445
0.002347	175
0.003469	183.229
0.004502	188.166
0.005716	191.458
0.0068	194.201
0.007916	196.395
0.009017	198.041
0.010271	199.138
0.011202	200.235
0.021954	207.915
0.028483	209.561
0.032444	211.207
0.043962	213.95
0.053444	215.596
0.063577	217.241
0.075629	218.887
0.082486	219.436
0.088036	219.984
0.096018	220.533
0.107019	221.082
0.132952	222.727
0.158159	224.373
0.188144	226.019
0.209716	227.665
0.233752	228.762
0.260544	229.859
0.296774	230.956
0.316747	232.053
0.338065	233.15
0.368715	233.699
0.385074	234.248
0.410975	234.796
0.438635	235.893
0.478404	236.442
0.521796	237.539
0.556914	238.636
0.581642	239.734
0.64833	241.379
0.691985	243.025
0.738582	244.671
0.771404	246.317
0.823348	247.962
0.859906	249.06
0.87882	250.157
0.958531	251.254
1.04569	255.643
1.04618	263.323
