Adsorption isotherm of Carbon Dioxide on Zeolite 13X
DOI: 10.1016/j.micromeso.2013.12.005
Article source: Figure 2a
Adsorbate Carbon Dioxide: InChIKey CURLTUGMZLYLDI-UHFFFAOYSA-N
Kind: experiment
Temperature: 273 K
Tabular data in the source: 0
pressure (bar)	uptake (cm3(STP)/g)
4.1e-05	1.09718
5.2e-05	2.19436
6e-05	3.84013
9.3e-05	6.03448
0.000117	8.77743
0.000262	16.4577
0.000371	19.7492
0.000481	22.4922
0.000598	24.6865
0.000727	26.8809
0.000865	27.9781
0.000943	29.6238
0.001052	30.721
0.001172	31.2696
0.002347	38.9498
0.003469	43.8871
0.004702	48.8245
0.005716	51.5674
0.006949	53.7618
0.00809	55.9561
0.009215	57.6019
0.010272	59.2476
0.028497	76.2539
0.055862	88.3229
0.082572	94.906
0.111901	99.8433
0.139032	103.135
0.161847	105.329
0.188415	108.072
0.219339	110.266
0.249853	112.461
0.266677	114.107
0.303763	115.204
0.353619	117.947
0.394181	120.141
0.458865	122.335
0.500501	123.981
0.54594	126.176
0.59545	127.273
0.649494	128.918
0.693195	130.016
0.756093	131.661
0.824736	133.856
0.899571	135.502
0.939475	136.05
1.00278	138.245
1.04731	139.342
