Adsorption isotherm of Nitrogen on Zeolite 13X
DOI: 10.1016/j.micromeso.2013.12.005
Article source: Figure 2a
Adsorbate Nitrogen: InChIKey IJGRMHOSHXDMSA-UHFFFAOYSA-N
Kind: experiment
Temperature: 77 K
Tabular data in the source: 0
pressure (bar)	uptake (cm3(STP)/g)
1e-06	70.2194
2e-06	99.2947
5e-06	119.592
7e-06	125.078
1e-05	127.821
1.2e-05	128.918
3.5e-05	135.502
6e-05	138.245
8.1e-05	139.89
0.000108	141.536
0.000246	145.925
0.000492	149.216
0.000711	151.411
0.000942	152.508
0.001146	153.605
0.003464	157.994
0.005582	160.188
0.007899	161.285
0.010027	162.382
0.010936	162.382
0.053286	167.868
0.106681	170.063
0.157643	171.708
0.213593	173.354
0.265353	175
0.315651	176.097
0.367426	177.194
0.437102	179.389
0.476732	179.937
0.51999	181.583
0.592317	183.229
0.660228	184.875
0.735951	187.069
0.785561	189.812
0.820498	192.006
0.895071	195.846
0.9351	201.881
1.04547	252.351
