Adsorption isotherm of Nitrogen on Zeolite 13X
DOI: 10.1016/j.micromeso.2013.12.005
Article source: Figure 2a
Adsorbate Nitrogen: InChIKey IJGRMHOSHXDMSA-UHFFFAOYSA-N
Kind: experiment
Temperature: 77 K
Tabular data in the source: 0
pressure (bar)	uptake (cm3(STP)/g)
1e-06	104.232
2e-06	147.022
5e-06	159.639
8e-06	162.382
1.1e-05	163.48
1.2e-05	164.028
3.6e-05	172.257
5.9e-05	175.549
8.3e-05	177.743
0.000108	179.389
0.000236	184.326
0.000462	188.166
0.000697	190.909
0.000945	192.555
0.001148	193.652
0.003472	198.589
0.005596	200.784
0.007749	201.881
0.010272	201.881
0.011204	202.429
0.053415	206.818
0.106935	208.464
0.158013	209.561
0.214088	210.658
0.265949	211.207
0.323285	211.755
0.360314	211.755
0.419401	212.304
0.477689	212.304
0.520998	212.853
0.580653	212.304
0.619669	211.755
0.675829	211.755
0.737102	212.304
0.786683	212.853
0.821586	213.401
0.87682	213.401
0.977318	214.498
0.998882	216.693
1.04366	224.373
