Adsorption isotherm of Ethene on Activated carbon (P. C. C. A 366C-EY-51C))
DOI: 10.1021/ja01159a023
Article source: Table II
Adsorbate Ethene: InChIKey VGGSQFUCUMXWEO-UHFFFAOYSA-N
Kind: experiment
Temperature: 298 K
Tabular data in the source: 0
pressure (bar)	uptake (mmol/g)
0.017332	0.186
0.059995	0.485
0.138655	0.831
0.28531	1.22
0.457296	1.52
0.663945	1.8
0.859929	2
1.00925	2.14
