Adsorption isotherm of Ethene on Silica gel (Davison Chemical Company, 14/20 mesh)
DOI: 10.1021/ja01159a023
Article source: Table II
Adsorbate Ethene: InChIKey VGGSQFUCUMXWEO-UHFFFAOYSA-N
Kind: experiment
Temperature: 298 K
Tabular data in the source: 0
pressure (bar)	uptake (mmol/g)
0.018932	0.0348
0.087193	0.1572
0.116257	0.203
0.24598	0.3353
0.333973	0.4599
0.462762	0.5797
0.735939	0.791
0.902059	0.895
1.01885	0.962
