Adsorption isotherm of Acetylene, Ethene on Activated carbon (P. C. C. A 366C-EY-51C))
DOI: 10.1021/ja01159a023
Article source: Table III
Adsorbate Acetylene: InChIKey HSFWRNGVRCDJHI-UHFFFAOYSA-N
Adsorbate Ethene: InChIKey VGGSQFUCUMXWEO-UHFFFAOYSA-N
Kind: experiment
Temperature: 298 K
Tabular data in the source: 0
pressure (bar)	Acetylene fraction	Acetylene uptake (mmol/g)	Ethene fraction	Ethene uptake (mmol/g)	total uptake (mmol/g)
1.01325	0.9097	1.88174	0.0903	0.175256	2.057
1.01325	0.8634	1.7805	0.1366	0.252499	2.033
1.01325	0.888	1.74236	0.112	0.28364	2.026
1.01325	0.814	1.55981	0.186	0.471192	2.031
1.01325	0.711	1.35661	0.289	0.711392	2.068
1.01325	0.655	1.16116	0.345	0.86884	2.03
1.01325	0.547	0.89631	0.453	1.17369	2.07
1.01325	0.449	0.723495	0.551	1.36151	2.085
1.01325	0.447	0.675288	0.553	1.31671	1.992
1.01325	0.158	0.201566	0.842	1.87643	2.078
