Adsorption isotherm of Acetylene, Ethene on Silica gel (Davison Chemical Company, 14/20 mesh)
DOI: 10.1021/ja01159a023
Article source: Table III
Adsorbate Acetylene: InChIKey HSFWRNGVRCDJHI-UHFFFAOYSA-N
Adsorbate Ethene: InChIKey VGGSQFUCUMXWEO-UHFFFAOYSA-N
Kind: experiment
Temperature: 298 K
Tabular data in the source: 0
pressure (bar)	Acetylene fraction	Acetylene uptake (mmol/g)	Ethene fraction	Ethene uptake (mmol/g)	total uptake (mmol/g)
1.01325	0.7578	1.51073	0.2422	0.111269	1.622
1.01325	0.438	0.989076	0.562	0.407924	1.397
1.01325	0.286	0.703516	0.714	0.594484	1.298
1.01325	0.186	0.486744	0.814	0.706256	1.193
1.01325	0.162	0.4329	0.838	0.7371	1.17
1.01325	0.068	0.146608	0.932	0.931392	1.078
