Adsorption isotherm of Acetylene on Activated carbon (P. C. C. A 366C-EY-51C))
DOI: 10.1021/ja01159a023
Article source: Table I
Adsorbate Acetylene: InChIKey HSFWRNGVRCDJHI-UHFFFAOYSA-N
Kind: experiment
Temperature: 298 K
Tabular data in the source: 0
pressure (bar)	uptake (mmol/g)
0.328373	1.152
0.502092	1.408
0.759004	1.789
1.01165	2.05
