Adsorption isotherm of Acetylene on Silica gel (Davison Chemical Company, 14/20 mesh)
DOI: 10.1021/ja01159a023
Article source: Table I
Adsorbate Acetylene: InChIKey HSFWRNGVRCDJHI-UHFFFAOYSA-N
Kind: experiment
Temperature: 298 K
Tabular data in the source: 0
pressure (bar)	uptake (mmol/g)
0.519024	1.301
0.914191	1.731
