Adsorption isotherm of Hydrogen on CuBTC
DOI: 10.1021/Jp206821f
Adsorbate Hydrogen: InChIKey UFHFLCQGNIYNRP-UHFFFAOYSA-N
Temperature: 77 K
Tabular data in the source: 0
pressure (bar)	uptake (wt%)
0.00743381	0.0318357
0.0152994	0.294021
0.0310304	0.575869
0.0782237	0.890491
0.135904	1.23789
0.2434	1.58528
0.38498	1.86713
0.558022	2.08999
0.765148	2.3194
1.00374	2.55537
1.22659	2.70612
