Adsorption isotherm of Nitrogen on Desolvated C102H158O25N24F6Ni3
DOI: 10.1021/Cg2002157
Adsorbate Nitrogen: InChIKey IJGRMHOSHXDMSA-UHFFFAOYSA-N
Temperature: 77 K
Tabular data in the source: 0
pressure (bar)	uptake (cm3(STP)/g)
0.0147561	0.746359
0.0368902	1.2409
0.0467275	0.988471
0.100833	1.22512
0.15002	1.21299
0.201666	1.45024
0.253312	1.4375
0.30004	1.42597
0.354146	0.912621
0.425467	0.395024
0.477113	0.132282
0.528759	0.119539
0.580405	-0.393204
0.627133	-0.904733
0.678779	-1.16748
0.730425	-1.43022
0.779612	-1.69235
0.831258	-1.9551
0.877986	-1.71663
0.912417	-1.22512
0.961604	0.512743
0.983738	2.50728
1.00095	9.75303
1.00587	13.7518
