Adsorption isotherm of Carbon Dioxide on Desolvated C102H158O25N24F6Ni3
DOI: 10.1021/Cg2002157
Adsorbate Carbon Dioxide: InChIKey CURLTUGMZLYLDI-UHFFFAOYSA-N
Temperature: 195 K
Tabular data in the source: 0
pressure (bar)	uptake (cm3(STP)/g)
0.0172154	10.7458
0.0319715	11.4921
0.0418089	12.2397
0.0614836	12.7348
0.078699	12.9806
0.0983738	13.9757
0.15002	14.463
0.196748	15.4515
0.248394	16.1887
0.277906	17.6814
0.292662	39.1778
0.297581	46.1766
0.302499	52.9254
0.349227	56.4138
0.398414	56.9017
0.445141	57.6402
0.499247	58.3768
0.545975	58.8653
0.60008	59.3519
0.698454	59.8277
0.799287	60.0528
0.895201	60.5291
0.944388	60.517
0.986197	59.7567
