Adsorption isotherm of Hydrogen on Desolvated C102H158O25N24F6Ni3
DOI: 10.1021/Cg2002157
Adsorbate Hydrogen: InChIKey UFHFLCQGNIYNRP-UHFFFAOYSA-N
Temperature: 77 K
Tabular data in the source: 0
pressure (bar)	uptake (cm3(STP)/g)
0.0614836	0.23483
0.078699	0.230583
0.108211	0.223301
0.162317	0.209951
0.211504	0.447816
0.258231	0.436286
0.309877	0.673544
0.363983	0.660194
0.415629	0.897451
0.464816	1.38532
0.511544	1.37379
0.56319	1.86104
0.614836	2.0983
0.664023	2.33617
0.718129	2.57282
0.764856	2.81129
0.818962	3.04794
0.868149	3.2858
0.917336	3.52367
0.968982	4.01092
1.00833	4.25121
