Adsorption isotherm of Carbon monoxide on CuBTC
DOI: 10.1002/cphc.201100602
Adsorbate Carbon monoxide: InChIKey UGFAIRIUMAVXCW-UHFFFAOYSA-N
Temperature: 303 K
Tabular data in the source: 0
pressure (bar)	uptake (mmol/g)
0.0829016	0.101525
0.145078	0.214289
0.331606	0.417368
0.476684	0.575319
0.663212	0.699526
0.80829	0.902547
1.03627	1.00428
1.43005	1.33159
1.86528	1.62516
2.27979	1.8849
2.59067	2.06562
3.21244	2.40452
4.0829	2.77758
4.64249	3.02626
5.4715	3.32038
6.09326	3.55788
