Adsorption isotherm of Nitrogen on Cr-MIL(101)
DOI: 10.1039/c5dt02625c
Article source: Figure  4
Adsorbate Nitrogen: InChIKey IJGRMHOSHXDMSA-UHFFFAOYSA-N
Kind: experiment
Temperature: 77 K
Tabular data in the source: 0
pressure (bar)	uptake (cm3(STP)/g)
0.001408	123.5
0.0015	227.18
0.00154	141.7
0.001753	246.1
0.002077	288.04
0.00232	274.83
0.002776	333.91
0.004742	362.82
0.006069	383.34
0.008015	409.22
0.009464	430.99
0.010842	443.48
0.011166	455.08
0.012422	467.04
0.019363	519.69
0.037024	616.06
0.048312	657.99
0.059133	699.4
0.07037	734.02
0.081587	767.21
0.086744	784.7
0.094435	813.44
0.104476	844.49
0.113109	859.84
0.163022	916.05
0.204514	1000.29
0.212337	1015.28
0.266738	1032.23
0.309882	1044.96
0.317512	1046.87
0.4068	1061.86
0.416517	1065.78
0.506949	1078.28
0.518196	1083.09
0.605934	1093.62
0.619846	1097.37
0.719742	1109.86
0.721627	1112.36
0.817794	1127
0.824259	1131.99
0.913708	1152.87
0.91993	1154.45
