Adsorption isotherm of Carbon Dioxide on 3D-Por-COF
DOI: 10.1021/jacs.7b04141
Article source: Figure S8
Adsorbate Carbon Dioxide: InChIKey CURLTUGMZLYLDI-UHFFFAOYSA-N
Kind: experiment
Temperature: 273 K
Tabular data in the source: 0
pressure (bar)	uptake (cm3(STP)/g)
0.004587	0.339463
0.010321	0.678925
0.025229	2.37624
0.043578	4.24328
0.058486	5.94059
0.073394	7.80764
0.084862	8.99576
0.103211	11.0325
0.141055	15.785
0.175459	19.5191
0.211009	24.611
0.25344	28.8543
0.288991	33.7765
0.326835	38.1895
0.365826	43.1117
0.402523	48.2037
0.441514	52.6167
0.479358	57.5389
0.513761	61.9519
0.553899	66.7044
0.590596	71.4569
0.626147	75.7001
0.665138	80.4526
0.701835	84.3564
0.739679	88.9392
0.777523	92.6733
0.81422	96.7468
0.854358	100.311
0.891055	104.724
0.931193	108.119
0.965596	111.344
0.004587	0.678925
0.012615	4.07355
0.024083	5.77086
0.051606	8.31683
0.079128	11.7115
0.103211	14.4272
0.151376	20.8769
0.205275	27.157
0.255734	33.4371
0.307339	40.0566
0.365826	46.1669
0.416284	52.9562
0.465596	59.4059
0.517202	66.0255
0.569954	72.1358
0.62156	77.7369
0.674312	83.8472
0.723624	89.6181
0.776376	94.8798
0.830275	99.9717
0.881881	104.554
0.930046	109.137
0.981651	112.871
1.00229	114.569
