Adsorption isotherm of Nitrogen on 3D-CuPor-COF
DOI: 10.1021/jacs.7b04141
Article source: Figure 2
Adsorbate Nitrogen: InChIKey IJGRMHOSHXDMSA-UHFFFAOYSA-N
Kind: experiment
Temperature: 77 K
Tabular data in the source: 0
pressure (bar)	uptake (cm3(STP)/g)
0.001552	0.965251
0.001552	4.82625
0.001552	84.9421
0.001552	116.795
0	134.17
0.003103	149.614
0.003103	159.266
0.003103	165.058
0.001552	176.641
0.003103	187.259
0.00931	291.506
0.012413	297.297
0.01862	305.019
0.02793	312.741
0.03724	316.602
0.052757	320.463
0.068274	322.394
0.083791	324.324
0.100859	329.151
0.1381	333.012
0.17534	333.977
0.207926	338.803
0.246718	341.699
0.282407	344.595
0.318095	346.525
0.353784	348.456
0.391025	350.386
0.431368	351.351
0.459299	353.282
0.499642	356.178
0.535331	358.108
0.567917	360.039
0.605157	361.969
0.642397	363.9
0.682741	365.83
0.713775	367.761
0.751015	370.656
0.788256	370.656
0.823944	375.483
0.859633	375.483
0.898425	378.378
0.931011	381.274
0.966699	387.066
1.00394	446.911
0.003103	195.946
0.006207	293.436
0.012413	305.019
0.021724	311.776
0.031034	317.568
0.041895	320.463
0.055861	324.324
0.069826	328.185
0.082239	330.116
0.099308	331.081
0.142755	335.907
0.18465	340.734
0.226546	342.664
0.269993	346.525
0.314992	348.456
0.355336	351.351
0.400335	352.317
0.436023	355.212
0.479471	357.143
0.524469	360.039
0.569468	361.004
0.606709	362.934
0.651708	367.761
0.692051	367.761
0.730843	370.656
0.774291	372.587
0.820841	374.517
0.86584	379.344
0.904632	381.274
0.949631	385.135
0.986871	406.371
1.00859	446.911
