Adsorption isotherm of Carbon Dioxide on 3D-CuPor-COF
DOI: 10.1021/jacs.7b04141
Article source: Figure S8
Adsorbate Carbon Dioxide: InChIKey CURLTUGMZLYLDI-UHFFFAOYSA-N
Kind: experiment
Temperature: 273 K
Tabular data in the source: 0
pressure (bar)	uptake (cm3(STP)/g)
0.002296	0.508475
0.011481	1.18644
0.027555	3.38983
0.040184	4.74576
0.058553	6.27119
0.072331	7.79661
0.082664	9.49152
0.097589	10.5085
0.137773	15.2542
0.176808	19.1525
0.2124	23.0508
0.253731	27.7966
0.291619	32.5424
0.326062	36.7797
0.365098	41.6949
0.401837	46.4407
0.437428	50.8475
0.475316	55.9322
0.515499	60.339
0.549943	65.0847
0.590126	69.8305
0.626866	74.2373
0.665901	78.6441
0.704937	83.0508
0.741676	86.9492
0.777268	90.5085
0.819747	95.2542
0.854191	98.983
0.893226	102.712
0.929966	106.271
0.965557	109.661
0.005741	1.01695
0.014925	5.25424
0.021814	6.1017
0.049369	8.81356
0.074627	12.2034
0.097589	15.5932
0.152698	21.0169
0.203215	26.9492
0.257176	32.8814
0.304248	40
0.361653	45.9322
0.414466	52.3729
0.464983	58.4746
0.517796	64.4068
0.564868	70.8475
0.622273	76.7797
0.673938	82.5424
0.729047	88.1356
0.774971	93.3898
0.828932	98.1356
0.880597	102.712
0.931114	107.627
0.983927	111.186
1.00459	112.712
