Adsorption isotherm of Nitrogen on 3D-Por-COF
DOI: 10.1021/jacs.7b04141
Article source: Figure 2
Adsorbate Nitrogen: InChIKey IJGRMHOSHXDMSA-UHFFFAOYSA-N
Kind: experiment
Temperature: 77 K
Tabular data in the source: 0
pressure (bar)	uptake (cm3(STP)/g)
0	0
0.001552	100
0.001552	132.692
0	150.962
0	161.538
0	169.231
0	174.038
0	182.692
0	194.231
0	205.769
0.003103	244.231
0.003103	251.923
0.003103	259.615
0.004655	296.154
0.00931	306.731
0.012413	310.577
0.024827	319.231
0.03724	328.846
0.046551	334.615
0.062067	338.462
0.082239	344.231
0.102411	349.038
0.139652	355.769
0.17534	359.615
0.212581	366.346
0.251373	369.231
0.288613	375
0.32275	376.923
0.366198	381.731
0.40499	385.577
0.44223	386.538
0.477919	389.423
0.516711	395.192
0.553951	396.154
0.588088	399.038
0.628432	401.923
0.664121	405.769
0.706016	409.615
0.741705	409.615
0.778946	413.462
0.816186	415.385
0.853426	421.154
0.89377	423.077
0.931011	426.923
0.965148	432.692
1.00394	475.962
0.001552	272.115
0.004655	287.5
0.004655	296.154
0.006207	304.808
0.012413	317.308
0.015517	328.846
0.02793	338.462
0.035689	340.385
0.048102	346.154
0.058964	350
0.068274	351.923
0.080688	353.846
0.099308	357.692
0.108618	359.615
0.130342	364.423
0.145858	367.308
0.158272	367.308
0.176892	370.192
0.212581	374.038
0.232753	375
0.263786	379.808
0.318095	383.654
0.373956	387.5
0.422058	393.269
0.476367	398.077
0.527573	400.962
0.58033	405.769
0.634639	408.654
0.684293	413.462
0.740154	417.308
0.788256	420.192
0.808428	421.154
0.841013	423.077
0.896874	427.885
0.910839	430.769
0.951183	433.654
1.00549	475
