Adsorption isotherm of Ethanol on [Zn(SiF6)(pyz)2]n
DOI: 10.1002/ejic.200900144
Adsorbate Ethanol: InChIKey LFQSCWFLJHTTHZ-UHFFFAOYSA-N
Temperature: 298 K
Tabular data in the source: 0
pressure (bar)	uptake (ml/g)
0.000973704	6.13636
0.00146056	11.9318
0.00194741	16.7045
0.00219083	21.4773
0.00267769	26.25
0.00316454	30.3409
0.00365139	35.1136
0.00413824	40.9091
0.00486852	45
0.00535537	49.7727
0.00632907	52.5
0.00730278	55.2273
0.00900676	57.9545
0.0107107	59.3182
0.0129016	61.0227
0.0155793	62.0455
0.0182569	63.0682
0.0214215	63.75
0.024586	65.1136
0.0287243	66.1364
0.0316454	66.4773
0.0345665	67.1591
0.0379744	67.8409
0.0404087	68.5227
0.0433298	68.8636
0.0455206	68.8636
0.0489286	69.5455
0.05258	69.8864
0.0555011	70.5682
0.0584222	70.9091
0.0613433	70.9091
0.0625605	71.5909
0.0645079	71.9318
0.0676724	72.6136
0.0718106	73.2955
0.0757055	73.9773
0.07887	74.6591
