Adsorption isotherm of 1-Propanol on [Zn(SiF6)(pyz)2]n
DOI: 10.1002/ejic.200900144
Adsorbate 1-Propanol: InChIKey BDERNNFJNOPAEC-UHFFFAOYSA-N
Temperature: 298 K
Tabular data in the source: 0
pressure (bar)	uptake (ml/g)
0.000377707	0.681818
0.000755414	2.04545
0.00151083	3.40909
0.00207739	5.11364
0.00302166	6.81818
0.00434363	7.15909
0.00566561	7.15909
0.00698758	7.15909
0.00868726	7.5
0.0100092	7.5
0.0115201	7.5
0.0132197	7.5
0.0145417	7.5
0.0162414	7.84091
0.0179411	7.84091
0.0194519	7.84091
0.0209627	7.5
0.0226624	7.84091
0.0241732	7.84091
0.0260618	7.84091
0.0277615	7.84091
0.0307831	8.18182
0.0324828	8.18182
0.0339936	8.18182
0.0355045	8.18182
0.0372041	8.18182
0.038715	8.18182
0.0404146	8.52273
0.0417366	8.86364
0.0434363	8.86364
0.0447583	8.86364
0.046458	9.20455
0.0479688	9.20455
0.0494796	9.20455
0.0508016	9.54545
0.0523124	9.54545
0.0538232	9.88636
0.0549564	10.2273
0.0562783	10.5682
0.057978	10.9091
0.0593	11.5909
