Adsorption isotherm of Hydrogen on [Zn(SiF6)(pyz)2]n
DOI: 10.1002/ejic.200900144
Adsorbate Hydrogen: InChIKey UFHFLCQGNIYNRP-UHFFFAOYSA-N
Temperature: 298 K
Tabular data in the source: 0
pressure (bar)	uptake (cm3(STP)/g)
1.70373	0.345911
3.69155	0.690822
5.67853	1.38764
9.08682	1.72755
11.3579	2.42337
13.9139	2.76629
16.4691	3.46111
19.3092	3.80302
21.5794	4.85075
24.9869	5.54257
29.5307	6.23039
33.2223	6.92121
36.9146	7.26012
40.8894	8.30186
44.8667	8.28786
48.8424	8.97768
52.8172	10.0194
56.5096	10.3583
59.9179	10.6982
64.1776	11.3871
68.1541	11.725
72.1305	12.0629
75.8221	12.7537
87.4666	14.1204
91.4422	14.8102
95.4195	14.7962
98.8278	15.1361
102.519	15.8269
