Adsorption isotherm of Nitrogen on [Zn(SiF6)(pyz)2]n
DOI: 10.1002/ejic.200900144
Adsorbate Nitrogen: InChIKey IJGRMHOSHXDMSA-UHFFFAOYSA-N
Temperature: 77 K
Tabular data in the source: 0
pressure (bar)	uptake (cm3(STP)/g)
0.0327479	35.2542
0.0600378	37.0621
0.0818697	38.8701
0.103702	39.774
0.13372	40.678
0.155552	41.5819
0.177384	42.4859
0.204674	43.3898
0.229235	43.8418
0.253796	44.7458
0.281086	45.6497
0.302918	46.5537
0.327479	47.0056
0.349311	47.9096
0.371142	48.8136
0.398432	50.1695
0.425722	51.0734
0.450283	52.4294
0.474844	52.8814
0.496676	54.6893
0.523966	56.0452
0.545798	57.8531
0.56763	59.661
0.592191	61.4689
0.616751	64.6328
0.641312	68.2486
0.665873	71.8644
0.690434	75.9322
0.712266	80.452
0.736827	84.5198
0.761388	89.0395
0.785949	93.5593
0.81051	99.435
0.835071	104.407
0.856902	108.927
0.884192	113.446
0.906024	118.418
0.930585	123.39
0.952417	130.169
0.963333	145.989
