Adsorption isotherm of Acetone on [Zn(SiF6)(pyz)2]n
DOI: 10.1002/ejic.200900144
Adsorbate Acetone: InChIKey CSCPPACGZOOCGX-UHFFFAOYSA-N
Temperature: 298 K
Tabular data in the source: 0
pressure (bar)	uptake (ml/g)
0.000963	5.79545
0.002889	15.6818
0.003852	18.4091
0.004815	20.7955
0.006741	24.2045
0.010593	30.6818
0.013482	34.0909
0.022149	38.1818
0.027927	40.2273
0.03852	42.6136
0.04815	45.3409
0.059706	47.0455
0.071262	48.4091
0.083781	49.7727
0.098226	50.4545
0.110745	51.4773
0.123264	52.1591
0.130005	52.5
0.138672	53.1818
0.153117	53.1818
0.16371	53.8636
0.175266	54.5455
0.188748	55.2273
0.197415	55.2273
0.21186	55.9091
0.22149	56.5909
0.232083	57.2727
0.245565	57.9545
0.259047	58.6364
0.267714	58.9773
0.277344	59.6591
0.2889	60
0.300456	60.3409
0.30816	60.6818
