Adsorption isotherm of Hydrogen on [Zn(SiF6)(pyz)2]n
DOI: 10.1002/ejic.200900144
Adsorbate Hydrogen: InChIKey UFHFLCQGNIYNRP-UHFFFAOYSA-N
Temperature: 77 K
Tabular data in the source: 0
pressure (bar)	uptake (cm3(STP)/g)
0.207446	32.3746
0.242437	17.5945
0.426556	59.8225
0.456549	47.1538
0.677325	73.8979
0.68399	71.0826
0.693154	67.2116
1.52461	76.0064
2.08696	78.4677
2.93424	80.5762
4.06562	82.6836
5.48275	84.0863
6.0476	85.4919
8.60028	87.2425
12.0036	89.6938
17.6788	92.4891
21.0829	94.5886
24.4887	95.9842
27.6095	97.7328
29.8806	98.4286
31.0153	99.1284
34.137	100.525
37.2587	101.922
40.0963	103.319
42.9347	104.365
45.205	105.413
46.6246	105.76
48.3267	106.809
52.3015	107.851
55.7064	109.599
59.1131	110.642
62.8029	112.037
66.2096	113.081
67.9125	113.779
72.1705	115.171
73.5902	115.518
76.9968	116.562
78.4156	117.261
80.4026	117.958
82.1055	118.655
84.3782	118.647
91.4764	120.382
92.6102	121.434
98.003	123.526
99.7067	123.872
