Adsorption isotherm of Methanol on [Zn(SiF6)(pyz)2]n
DOI: 10.1002/ejic.200900144
Adsorbate Methanol: InChIKey OKKJLVBELUTLKV-UHFFFAOYSA-N
Temperature: 298 K
Tabular data in the source: 0
pressure (bar)	uptake (ml/g)
0.00568939	32.0455
0.00620661	35.4545
0.00724104	42.9545
0.00827547	46.0227
0.00879269	49.4318
0.00982713	52.5
0.0103443	55.5682
0.0108616	58.2955
0.011896	60.6818
0.0134476	63.0682
0.0170682	67.8409
0.0206887	70.5682
0.0227576	72.6136
0.0248264	74.6591
0.0274125	76.7045
0.0305158	79.0909
0.0346535	82.1591
0.0387913	83.8636
0.0413774	85.5682
0.0455151	87.2727
0.0506873	89.3182
0.0563767	91.0227
0.0620661	91.7045
0.0703415	93.75
0.0780998	94.4318
0.0837892	95.4545
0.0894786	96.1364
0.095168	97.1591
0.0993057	97.5
0.10603	98.8636
0.113788	100.227
0.121546	100.909
0.12827	101.591
0.134994	102.614
0.144821	103.636
0.1562	105.341
0.164475	106.023
0.16913	107.045
