Adsorption isotherm of Methane on EcoSorb Activated Carbon
DOI: 10.1007/s10973-011-1820-2
Article source: Table 6
Adsorbate Methane: InChIKey VNWKTOKETHGBQD-UHFFFAOYSA-N
Kind: experiment
Temperature: 383 K
Tabular data in the source: 1
pressure (bar)	uptake (mmol/g)
0.6	0.116
1.3	0.242
2.3	0.386
4.5	0.691
6.1	0.87
7.8	1.045
9.5	1.199
11.6	1.357
13.6	1.508
15.5	1.638
18	1.794
20.3	1.929
