Adsorption isotherm of Methane on EcoSorb Activated Carbon
DOI: 10.1007/s10973-011-1820-2
Article source: Table 6
Adsorbate Methane: InChIKey VNWKTOKETHGBQD-UHFFFAOYSA-N
Kind: experiment
Temperature: 353 K
Tabular data in the source: 1
pressure (bar)	uptake (mmol/g)
0.5	0.177
1.9	0.516
3.5	0.825
5.4	1.127
7.3	1.391
9.5	1.649
11.7	1.862
14.7	2.125
17.2	2.314
20	2.512
22.4	2.657
