Adsorption isotherm of Methane on EcoSorb Activated Carbon
DOI: 10.1007/s10973-011-1820-2
Article source: Table 6
Adsorbate Methane: InChIKey VNWKTOKETHGBQD-UHFFFAOYSA-N
Kind: experiment
Temperature: 323 K
Tabular data in the source: 1
pressure (bar)	uptake (mmol/g)
0.2	0.136
0.6	0.296
1.1	0.481
1.7	0.689
2.5	0.914
3.5	1.145
4.5	1.364
5.6	1.544
6.7	1.715
7.8	1.872
9	2.041
10.4	2.201
11.6	2.355
13.1	2.502
14.7	2.673
16.8	2.853
18.6	3.016
