Adsorption isotherm of Carbon Dioxide on F400
DOI: 10.1007/s10973-011-1820-2
Article source: Table 4
Adsorbate Carbon Dioxide: InChIKey CURLTUGMZLYLDI-UHFFFAOYSA-N
Kind: experiment
Temperature: 318 K
Tabular data in the source: 1
pressure (bar)	uptake (mmol/g)
0.2	0.463
0.6	0.946
0.8	1.157
1.9	2.139
2.1	2.222
4.1	3.317
4.2	3.337
7.3	4.393
7.4	4.413
10.9	5.212
11.2	5.267
14.8	5.835
15.1	5.861
18.9	6.3
19.3	6.331
23	6.648
