Adsorption isotherm of Carbon Dioxide on EcoSorb Activated Carbon
DOI: 10.1007/s10973-011-1820-2
Article source: Table 7
Adsorbate Carbon Dioxide: InChIKey CURLTUGMZLYLDI-UHFFFAOYSA-N
Kind: experiment
Temperature: 383 K
Tabular data in the source: 1
pressure (bar)	uptake (mmol/g)
0.6	0.207
1.4	0.464
2.7	0.783
4	1.075
5.5	1.364
7.1	1.641
8.8	1.901
10.6	2.159
12.3	2.381
14.1	2.591
15.8	2.78
17.5	2.955
19.2	3.12
21	3.282
