Adsorption isotherm of Carbon Dioxide on EcoSorb Activated Carbon
DOI: 10.1007/s10973-011-1820-2
Article source: Table 7
Adsorbate Carbon Dioxide: InChIKey CURLTUGMZLYLDI-UHFFFAOYSA-N
Kind: experiment
Temperature: 353 K
Tabular data in the source: 1
pressure (bar)	uptake (mmol/g)
0.4	0.28
1.1	0.632
2.2	1.036
3.6	1.498
5.2	1.94
6.8	2.328
8.6	2.699
10.4	3.021
12.3	3.339
14.1	3.608
16.1	3.874
17.6	4.07
19.3	4.253
21.2	4.45
