Adsorption isotherm of Carbon Dioxide on EcoSorb Activated Carbon
DOI: 10.1007/s10973-011-1820-2
Article source: Table 7
Adsorbate Carbon Dioxide: InChIKey CURLTUGMZLYLDI-UHFFFAOYSA-N
Kind: experiment
Temperature: 323 K
Tabular data in the source: 1
pressure (bar)	uptake (mmol/g)
0.3	0.302
0.8	0.794
1.7	1.421
3	2.1
4.6	2.716
6.3	3.335
8.3	3.899
10.1	4.347
11.9	4.743
13.8	5.094
15.6	5.402
17.4	5.674
19.2	5.929
20.9	6.161
