Adsorption isotherm of Mercury Dichloride on Carbon
DOI: 10.1071/En06034
Adsorbate Mercury Dichloride: InChIKey LWJROJCJINYWOX-UHFFFAOYSA-L
Temperature: 450 K
Tabular data in the source: 0
pressure (bar)	uptake (mmol/g)
0.000157183	0.00015241
0.000291944	0.00030482
0.000437954	0.000482632
0.000561466	0.00060964
0.000651345	0.000736648
0.000752435	0.000863657
0.000853487	0.000965263
0.000943366	0.00109227
0.00105555	0.00114307
0.00114543	0.00127008
0.00124652	0.00139709
0.00134757	0.0014987
0.00144866	0.00162571
0.00153843	0.00167651
0.00163948	0.00177812
0.00174057	0.00190512
0.00184162	0.00200673
0.00194267	0.00210834
0.00204364	0.00215914
0.00213356	0.00231155
0.0022234	0.00241316
0.00232449	0.00254017
0.00242555	0.00264177
0.0025266	0.00274338
