Adsorption isotherm of Mercury Dichloride on Carbon
DOI: 10.1071/En06034
Adsorbate Mercury Dichloride: InChIKey LWJROJCJINYWOX-UHFFFAOYSA-L
Temperature: 450 K
Tabular data in the source: 0
pressure (bar)	uptake (mmol/g)
0.000107411	0.0160381
0.000156268	0.0226746
0.0001855	0.028205
0.000214762	0.0331824
0.000243994	0.0387127
0.000273256	0.0436901
0.000302488	0.0492205
0.000331749	0.0541978
0.000370824	0.0597282
0.000409928	0.0647056
0.000507791	0.0752133
0.000566728	0.0774255
0.000655193	0.0796376
0.000753559	0.0807437
0.000851984	0.0807437
0.000950409	0.0807437
0.0010389	0.0824028
0.00113727	0.0835089
0.00122573	0.0857211
0.00131423	0.0873802
0.00141256	0.0890393
0.0015699	0.0918045
0.00165839	0.0934636
0.00175673	0.0951227
0.00184522	0.0967819
0.00194356	0.098441
0.00203205	0.1001
0.00213045	0.100653
0.00221897	0.101759
0.00231734	0.102865
0.00241573	0.103418
0.00250429	0.103971
