Adsorption isotherm of Mercury Dichloride on Carbon
DOI: 10.1071/En06034
Adsorbate Mercury Dichloride: InChIKey LWJROJCJINYWOX-UHFFFAOYSA-L
Temperature: 450 K
Tabular data in the source: 0
pressure (bar)	uptake (mmol/g)
9.49e-06	0.00663647
6.73e-05	0.0304172
9.61e-05	0.0431371
0.000105696	0.0481144
0.000154672	0.0525387
0.000203619	0.0575161
0.000252595	0.0619404
0.000301542	0.0669177
0.000350488	0.0718951
0.000399464	0.0763194
0.000467889	0.085168
0.00054657	0.0862741
0.00061529	0.0895924
0.000713597	0.0918045
0.000802062	0.0940167
0.000890497	0.0967819
0.000978961	0.098994
0.00106743	0.101206
0.00115589	0.103418
0.00124435	0.10563
0.00133282	0.107843
0.00142125	0.110608
0.00149988	0.11282
0.00157856	0.113926
0.00167689	0.115585
0.00176539	0.117244
0.00186372	0.118903
0.00206034	0.123328
0.00213902	0.124434
0.00223736	0.126093
0.00232585	0.127752
0.00242419	0.129411
0.00251268	0.13107
0.00259133	0.132729
0.00267983	0.134389
0.00276829	0.136601
0.00286663	0.13826
0.00295512	0.139919
0.00305343	0.142131
0.00314192	0.14379
0.00323042	0.145449
0.00332872	0.147661
0.00341722	0.149321
0.00349587	0.15098
0.00358442	0.151533
0.00368279	0.152639
0.00377134	0.153192
0.00386971	0.154298
0.00395823	0.155404
0.00405663	0.155957
0.00415499	0.157063
0.00424352	0.158169
0.00434191	0.158722
0.00443043	0.159828
0.0044993	0.160381
