Adsorption isotherm of Mercury Dichloride on Carbon
DOI: 10.1071/En06034
Adsorbate Mercury Dichloride: InChIKey LWJROJCJINYWOX-UHFFFAOYSA-L
Temperature: 450 K
Tabular data in the source: 0
pressure (bar)	uptake (mmol/g)
0.000104504	0.0104313
0.000156641	0.0277325
0.000229797	0.0346891
0.000323775	0.0520192
0.000428279	0.0624505
0.000773269	0.083407
0.000877871	0.0834792
0.00107658	0.0870695
0.00118118	0.0871417
0.00128575	0.090667
0.00139035	0.0907392
0.00155768	0.0943078
0.00166225	0.097833
0.00176686	0.0979053
0.00187142	0.101431
0.00205964	0.108467
0.00216424	0.108539
0.00225835	0.112057
0.00236292	0.115582
0.00277074	0.129676
0.00287531	0.133201
0.00297988	0.136726
0.00308448	0.136799
0.00317859	0.140317
0.00328319	0.140389
0.00338776	0.143914
0.0034923	0.150892
0.00359693	0.147512
0.0037015	0.151037
0.00379561	0.154555
0.00390021	0.154627
0.00400478	0.158152
0.00410935	0.161678
0.00421395	0.16175
0.00431852	0.165275
0.00441263	0.168793
0.00448582	0.172297
