Adsorption isotherm of Mercury Dichloride on Carbon
DOI: 10.1071/En06034
Adsorbate Mercury Dichloride: InChIKey LWJROJCJINYWOX-UHFFFAOYSA-L
Temperature: 500 K
Tabular data in the source: 0
pressure (bar)	uptake (mmol/g)
1.07e-05	0.00290782
3.21e-05	0.0222933
8.57e-05	0.0329553
0.000139186	0.0378017
0.000214133	0.0445866
0.000310493	0.049433
0.000406852	0.0533101
0.000503212	0.0562179
0.000546039	0.0562179
0.000653105	0.0581564
0.000749465	0.060095
0.000856531	0.0610643
0.000963597	0.0630028
0.00105996	0.0630028
0.00116702	0.0639721
0.00127409	0.0649414
0.00138116	0.0659106
0.00147752	0.0659106
0.00157388	0.0678492
0.00167024	0.0688185
0.0017773	0.0697877
0.00188437	0.0697877
0.00199143	0.070757
0.0020985	0.0717263
0.00220557	0.0726956
0.00230193	0.0736648
0.00240899	0.0736648
0.00249465	0.0746341
0.0025803	0.0746341
0.00268737	0.0756034
0.00279443	0.0756034
0.0029015	0.0756034
0.00300857	0.0765726
0.00311563	0.0765726
0.00321199	0.0775419
0.00331906	0.0775419
0.00342612	0.0775419
0.00351178	0.0775419
0.00360814	0.0785112
0.0037152	0.0785112
0.00382227	0.0785112
0.00392934	0.0794805
0.0040364	0.0794805
0.00413276	0.0804497
0.00423983	0.0804497
0.0043469	0.081419
0.00445396	0.0804497
0.00449679	0.081419
