Adsorption isotherm of Mercury Dichloride on Carbon
DOI: 10.1071/En06034
Adsorbate Mercury Dichloride: InChIKey LWJROJCJINYWOX-UHFFFAOYSA-L
Temperature: 500 K
Tabular data in the source: 0
pressure (bar)	uptake (mmol/g)
3.1e-05	0.00351982
0.000105372	0.0110623
0.000142562	0.0145821
0.00018595	0.0181019
0.00022314	0.0221246
0.000266529	0.0261472
0.000309917	0.0296671
0.000347107	0.0331869
0.000390496	0.0367067
0.000440083	0.0402265
0.000489669	0.0427407
0.00052686	0.0452548
0.000582645	0.0467633
0.00063843	0.0487747
0.000700413	0.0502832
0.000756198	0.0512888
0.000818182	0.0522945
0.000873967	0.0533001
0.00093595	0.053803
0.000991736	0.0553115
0.00104752	0.0558143
0.0011095	0.05682
0.00116529	0.0578256
0.00122727	0.0588313
0.00128306	0.059837
0.00134504	0.0608426
0.00140702	0.0613455
0.00146901	0.0618483
0.00153099	0.0633568
0.00159298	0.0633568
0.00164876	0.0638596
0.00171074	0.0643624
0.00177273	0.0648653
0.00183471	0.0648653
0.00189669	0.0653681
0.00195248	0.0658709
0.00203306	0.0668766
0.00209504	0.0668766
0.00215083	0.0673794
0.00221281	0.0678823
0.00227479	0.0683851
0.00233678	0.0683851
0.00239876	0.0688879
0.00245455	0.0693908
0.00249793	0.0693908
