Adsorption isotherm of Mercury Dichloride on Carbon
DOI: 10.1071/En06034
Adsorbate Mercury Dichloride: InChIKey LWJROJCJINYWOX-UHFFFAOYSA-L
Temperature: 450 K
Tabular data in the source: 0
pressure (bar)	uptake (mmol/g)
5.2e-05	0.0311133
0.000145952	0.0518964
0.000239996	0.0623204
0.0003445	0.0727517
0.000438576	0.0797228
0.000637254	0.0867661
0.000773171	0.093766
0.00087774	0.0972913
0.00107642	0.104335
0.00118099	0.10786
0.00128556	0.111385
0.00139016	0.111457
0.00155749	0.115026
0.00166209	0.115098
0.00176666	0.118623
0.00187126	0.118696
0.00205951	0.122279
0.00216411	0.122351
0.00226868	0.125876
0.00237325	0.129401
0.00277074	0.129676
0.00287531	0.133201
0.00297988	0.136726
0.00308448	0.136799
0.00317859	0.140317
0.00328319	0.140389
0.00338776	0.143914
0.0034923	0.150892
0.00359693	0.147512
0.0037015	0.151037
0.00379561	0.154555
0.00390021	0.154627
0.00400478	0.158152
0.00410935	0.161678
0.00421395	0.16175
0.00431852	0.165275
0.00441263	0.168793
0.00449628	0.172304
