Adsorption isotherm of Mercury Dichloride on Zeolite 13X
DOI: 10.1071/En06034
Adsorbate Mercury Dichloride: InChIKey LWJROJCJINYWOX-UHFFFAOYSA-L
Temperature: 409 K
Tabular data in the source: 0
pressure (bar)	uptake (molecules/nm2)
3.81e-05	0.240781
5.08e-05	0.305857
6.33e-05	0.436009
6.36e-05	0.370933
0.000101547	0.644252
0.0001398	0.845987
0.000152561	0.911063
0.000165321	0.976139
0.000178082	1.04121
0.000190842	1.10629
0.000203603	1.17137
0.000241913	1.36009
0.000293634	1.46421
0.000319438	1.52928
0.000345242	1.59436
0.000371074	1.65293
0.000409922	1.718
0.000435726	1.78308
0.00053931	1.95879
0.000591229	2.01735
0.000643148	2.07592
0.000695067	2.13449
0.000759974	2.20607
0.000798821	2.27115
0.000837669	2.33623
0.000876544	2.39479
0.000915392	2.45987
0.00104515	2.61605
0.00112318	2.66811
0.00120122	2.72017
0.00131827	2.79826
