Adsorption isotherm of Mercury Dichloride on Carbon
DOI: 10.1071/En06034
Adsorbate Mercury Dichloride: InChIKey LWJROJCJINYWOX-UHFFFAOYSA-L
Temperature: 409 K
Tabular data in the source: 0
pressure (bar)	uptake (mmol/g)
0.000106157	0.000151449
0.000276008	0.000484637
0.000477707	0.000848114
0.000541401	0.000938983
0.000626327	0.00112072
0.000721868	0.00124188
0.000806794	0.00142362
0.000902335	0.00157507
0.000987261	0.00172652
0.0010828	0.00190826
0.00116773	0.00205971
0.00126327	0.00221116
0.0013482	0.0023929
0.00144374	0.00254434
0.00154989	0.00272609
0.00163482	0.00290782
0.00173036	0.00302898
0.00181529	0.00321072
0.00191083	0.00336217
0.00199575	0.00351362
0.0020913	0.00366507
0.00217622	0.00384681
0.00227176	0.00399827
0.0023673	0.00414969
0.00245223	0.00430114
0.00254777	0.00448291
0.0026327	0.00463433
0.00272824	0.00478578
0.00282378	0.00493724
0.0029087	0.00511897
0.00300425	0.00527042
0.00308917	0.00542188
0.00318471	0.00557333
0.00326964	0.00572479
0.00336518	0.00590652
0.00346072	0.00602766
0.00354565	0.00617912
0.00364119	0.00633057
0.00372611	0.00648203
0.00382166	0.00663348
0.0039172	0.00675462
0.00401274	0.00690608
0.00409766	0.00705753
0.00419321	0.00717867
0.00428875	0.00733013
0.00438429	0.00745131
0.00447983	0.00760273
