Adsorption isotherm of Mercury Dichloride on Carbon
DOI: 10.1071/En06034
Adsorbate Mercury Dichloride: InChIKey LWJROJCJINYWOX-UHFFFAOYSA-L
Temperature: 400 K
Tabular data in the source: 0
pressure (bar)	uptake (mmol/g)
2.48e-05	0.00603398
4.96e-05	0.012068
6.82e-05	0.0165934
0.00011157	0.0246387
0.000130165	0.0281586
0.000154959	0.0326841
0.000179752	0.0372095
0.000204545	0.0422379
0.00022314	0.0467633
0.000247934	0.0512888
0.000272727	0.0558143
0.000297521	0.0608426
0.000322314	0.0653681
0.000353306	0.0693908
0.000384298	0.0739162
0.000409091	0.0784417
0.000446281	0.0829672
0.000477273	0.0869899
0.000514463	0.0900069
0.000539256	0.092521
0.000588843	0.095538
0.000644628	0.0980522
0.000700413	0.0995607
0.000762397	0.100566
0.000818182	0.101572
0.000880165	0.102075
0.000942149	0.102578
0.000997934	0.104086
0.00105992	0.105092
0.0011157	0.1066
0.00117769	0.107606
0.00123347	0.108612
0.00129545	0.109617
0.00135124	0.110623
0.00141322	0.112131
0.00146901	0.113137
0.00152479	0.11364
0.00157438	0.116154
0.00163636	0.117663
0.00169215	0.119171
0.00174793	0.121182
0.00180992	0.123194
0.0018657	0.124702
0.00192149	0.126211
0.00197727	0.128725
0.00203926	0.129228
0.00209504	0.130736
0.00215083	0.132245
0.00221281	0.13325
0.0022686	0.134759
0.00233058	0.135765
0.00238636	0.137273
0.00244835	0.138279
0.00250413	0.139787
