Adsorption isotherm of Mercury Dichloride on Zeolite 13X
DOI: 10.1071/En06034
Adsorbate Mercury Dichloride: InChIKey LWJROJCJINYWOX-UHFFFAOYSA-L
Temperature: 440 K
Tabular data in the source: 0
pressure (bar)	uptake (molecules/nm2)
0.000143167	0.0715835
0.000181732	0.201735
0.000298246	0.403471
0.000363152	0.475054
0.000428115	0.533623
0.00046699	0.592191
0.000571225	0.618221
0.000623144	0.67679
0.000714222	0.72885
0.000792285	0.774403
0.00087032	0.826464
0.000935311	0.878525
0.00103955	0.904555
0.00110454	0.956616
0.0011826	1.00217
0.00128672	1.05423
0.00136478	1.09978
0.00145589	1.14534
0.001547	1.19089
0.0016381	1.23644
0.00171617	1.282
0.00180724	1.33406
0.00189835	1.37961
0.00195027	1.43818
0.00206758	1.4577
0.00211949	1.51627
0.00219753	1.56833
0.00227556	1.62039
0.0023536	1.67245
0.00243163	1.72451
0.00249662	1.77657
0.00257463	1.83514
0.00266574	1.88069
0.00274377	1.93275
0.00282181	1.98482
0.00289984	2.03688
0.00296486	2.08243
0.00305605	2.10846
0.00314716	2.15401
0.00325133	2.19306
0.00335554	2.2256
0.00347279	2.25813
0.003577	2.29067
0.0036812	2.32321
0.00379845	2.35575
0.0039157	2.38829
0.00396776	2.41432
