Adsorption isotherm of Mercury Dichloride on Carbon
DOI: 10.1071/En06034
Adsorbate Mercury Dichloride: InChIKey LWJROJCJINYWOX-UHFFFAOYSA-L
Temperature: 500 K
Tabular data in the source: 0
pressure (bar)	uptake (mmol/g)
0.000106157	0.000121159
0.000307856	0.000363478
0.000498938	0.000575506
0.000626327	0.000757245
0.000785563	0.000969274
0.000881104	0.00109043
0.000976645	0.00121159
0.00107219	0.00133275
0.00117834	0.00145391
0.00127389	0.00157507
0.00136943	0.00169623
0.00145435	0.00184768
0.00153928	0.00184768
0.0016242	0.00202942
0.00171975	0.00212029
0.00181529	0.00227174
0.00191083	0.0023929
0.00201699	0.00251405
0.00211253	0.00260492
0.00220807	0.00275637
0.00230361	0.00284724
0.00239915	0.00299869
0.00253715	0.00311985
0.00262208	0.0032713
0.00271762	0.00339246
0.00282378	0.00351362
0.00291932	0.00363478
0.00301486	0.00372563
0.0031104	0.00387709
0.00320594	0.00396796
0.00330149	0.00408913
0.00340764	0.00421028
0.00354565	0.00433146
0.00363057	0.00448291
0.00373673	0.00457377
0.00383227	0.00469492
0.00392781	0.0048161
0.00402335	0.00490696
0.00412951	0.00499783
0.00422505	0.00511897
0.00432059	0.00524015
0.00442675	0.00533101
0.00451168	0.00542188
