Adsorption isotherm of Mercury Dichloride on Carbon
DOI: 10.1071/En06034
Adsorbate Mercury Dichloride: InChIKey LWJROJCJINYWOX-UHFFFAOYSA-L
Temperature: 450 K
Tabular data in the source: 0
pressure (bar)	uptake (mmol/g)
3.63e-06	0.721688
4.05e-06	0.676798
3.46e-05	0.759692
0.00010774	0.773555
0.000212276	0.780533
0.000306418	0.780598
0.000390001	0.791015
0.000494571	0.79454
0.00059914	0.798066
0.000703709	0.801591
0.000797818	0.805109
0.00090242	0.805181
0.00100699	0.808706
0.00111156	0.812232
0.00121613	0.815757
0.00131024	0.819275
0.00141481	0.8228
0.00151937	0.826326
0.00162394	0.829851
0.00172851	0.833376
0.00182262	0.836894
0.00192719	0.840419
0.00203176	0.843945
0.00213636	0.844017
0.00224093	0.847542
0.00233504	0.85106
0.00243961	0.854585
0.00253378	0.851197
0.00261737	0.861614
0.00272197	0.861686
0.00282654	0.865212
0.00293111	0.868737
0.00302522	0.872255
0.00312978	0.87578
0.00323435	0.879305
0.00333892	0.882831
0.00344352	0.882903
0.00349583	0.882939
