Adsorption isotherm of Mercury Dichloride on Carbon
DOI: 10.1071/En06034
Adsorbate Mercury Dichloride: InChIKey LWJROJCJINYWOX-UHFFFAOYSA-L
Temperature: 450 K
Tabular data in the source: 0
pressure (bar)	uptake (mmol/g)
3.91e-05	0.00442431
9.76e-05	0.0154851
0.000156268	0.0226746
0.0001855	0.028205
0.000214762	0.0331824
0.000243994	0.0387127
0.000273256	0.0436901
0.000302488	0.0492205
0.000331749	0.0541978
0.000370824	0.0597282
0.000409928	0.0647056
0.000507791	0.0752133
0.00056658	0.0801907
0.000645143	0.0835089
0.00074348	0.085168
0.000832033	0.0857211
0.000930399	0.0868272
0.00101892	0.0879332
0.00110742	0.0895924
0.00120581	0.0901454
0.00129431	0.0918045
0.00139267	0.0929106
0.00147132	0.0945697
0.00156969	0.0956758
0.00165818	0.0973349
0.00175652	0.098994
0.00184498	0.101206
0.00193348	0.102865
0.0020121	0.105077
0.00208091	0.106737
0.00216937	0.108949
0.00225781	0.111714
0.00233643	0.113926
0.00242487	0.116691
0.00250352	0.11835
