Adsorption isotherm of Mercury Dichloride on Carbon
DOI: 10.1071/En06034
Adsorbate Mercury Dichloride: InChIKey LWJROJCJINYWOX-UHFFFAOYSA-L
Temperature: 450 K
Tabular data in the source: 0
pressure (bar)	uptake (mmol/g)
1.13e-05	7.62e-05
9e-05	0.000177812
0.000168587	0.000279418
0.000258505	0.000431828
0.000359595	0.000558837
0.000438302	0.000711247
0.000561775	0.000812853
0.000640482	0.000965263
0.000741573	0.00109227
0.000831491	0.00124468
0.000932581	0.00137169
0.0010225	0.0015241
0.00111238	0.00165111
0.00121347	0.00177812
0.00130339	0.00193053
0.00140448	0.00205753
0.00148318	0.00220994
0.00157302	0.00231155
0.0016629	0.00243856
0.00175282	0.00259097
0.00185391	0.00271798
0.00194379	0.00284499
0.00203371	0.0029974
0.0021348	0.0031244
0.00222468	0.00325141
0.0023146	0.00340382
0.00241569	0.00353083
0.00249436	0.00365784
0.0025842	0.00375945
0.00267411	0.00391186
0.0027752	0.00403886
0.00286508	0.00416587
0.00296621	0.00431828
0.00305609	0.00444529
0.00314597	0.0045723
0.0032471	0.00472471
0.00333698	0.00485172
0.00343807	0.00497873
0.0035167	0.00508033
0.00360658	0.00520734
0.00370767	0.00533435
0.00379755	0.00546136
0.00389864	0.00558837
0.00399973	0.00571537
0.00408961	0.00584238
0.00419066	0.00594399
0.00429175	0.006071
0.00439284	0.00619801
0.00447155	0.00635042
