Adsorption isotherm of Mercury Dichloride on Carbon
DOI: 10.1071/En06034
Adsorbate Mercury Dichloride: InChIKey LWJROJCJINYWOX-UHFFFAOYSA-L
Temperature: 475 K
Tabular data in the source: 0
pressure (bar)	uptake (mmol/g)
5.58e-05	0.00653681
0.000105372	0.0145821
0.00014876	0.0206161
0.00018595	0.0241359
0.000216942	0.0286614
0.000247934	0.0326841
0.000278926	0.0372095
0.000309917	0.041735
0.000347107	0.0457577
0.000378099	0.0497803
0.000415289	0.053803
0.000452479	0.0578256
0.000495868	0.0618483
0.000533058	0.0643624
0.000582645	0.0668766
0.00063843	0.0693908
0.000700413	0.0708993
0.000756198	0.0724077
0.000818182	0.0734134
0.000873967	0.0749219
0.00093595	0.0754247
0.000991736	0.0764304
0.00103512	0.0779389
0.00109711	0.0789446
0.00115289	0.0799502
0.00121488	0.0804531
0.00127066	0.0814587
0.00133264	0.0819615
0.00139463	0.0829672
0.00145041	0.08347
0.0015062	0.0844757
0.00156198	0.0849785
0.00161777	0.0859842
0.00167975	0.0869899
0.00173554	0.0879955
0.00179752	0.0884984
0.0018595	0.089504
0.00191529	0.0905097
0.00197727	0.0910125
0.00203306	0.0920182
0.00209504	0.0930238
0.00215083	0.0940295
0.00221281	0.0950352
0.0022686	0.095538
0.00233058	0.0965437
0.00238636	0.0975493
0.00244835	0.098555
0.00249793	0.0990578
