Adsorption isotherm of Mercury Dichloride on Carbon
DOI: 10.1071/En06034
Adsorbate Mercury Dichloride: InChIKey LWJROJCJINYWOX-UHFFFAOYSA-L
Temperature: 450 K
Tabular data in the source: 0
pressure (bar)	uptake (mmol/g)
0.000123473	0.000101607
0.000370419	0.00030482
0.000561234	0.00045723
0.000673419	0.000508033
0.000774432	0.000584238
0.000886655	0.000660443
0.000987668	0.000736648
0.00109989	0.000812853
0.0012009	0.000889058
0.00131313	0.000965263
0.00141414	0.00104147
0.00154886	0.00116848
0.0016498	0.00119388
0.00176202	0.00127008
0.00186304	0.00134629
0.00197526	0.00142249
0.00207627	0.0014987
0.0021885	0.0015749
0.00228951	0.00165111
0.00239052	0.00172731
0.0025477	0.00187972
0.00264864	0.00190512
0.00276086	0.00198133
0.00286188	0.00205753
0.00296289	0.00213374
0.00307511	0.00220994
0.00317612	0.00228615
0.00328835	0.00236235
0.00338936	0.00243856
0.00354651	0.00256557
0.00365865	0.00259097
0.00375966	0.00266717
0.00387189	0.00274338
0.00397286	0.00279418
0.00407388	0.00287039
0.00418606	0.00292119
0.00429828	0.0029974
0.00439926	0.0030482
0.00450027	0.0031244
