Adsorption isotherm of Mercury Dichloride on Carbon
DOI: 10.1071/En06034
Adsorbate Mercury Dichloride: InChIKey LWJROJCJINYWOX-UHFFFAOYSA-L
Temperature: 450 K
Tabular data in the source: 0
pressure (bar)	uptake (mmol/g)
0.000166613	0.0132729
0.000205718	0.0182503
0.000264507	0.0232276
0.000313483	0.027652
0.000372301	0.0320763
0.000440992	0.0359475
0.000489998	0.0398188
0.00064733	0.042584
0.000725952	0.0447962
0.000824318	0.0459023
0.000912842	0.0470083
0.00100137	0.0481144
0.00109976	0.0486675
0.00118826	0.0503266
0.00128665	0.0508796
0.00137517	0.0519857
0.00154232	0.0553039
0.0016309	0.0553039
0.0017194	0.056963
0.00181776	0.0580691
0.00190629	0.0591752
0.00200462	0.0608343
0.00209315	0.0619404
0.00219148	0.0635995
0.00228001	0.0647056
0.00237834	0.0663647
0.00255536	0.0691299
0.0026341	0.0691299
0.0027325	0.0696829
0.00283086	0.070789
0.00291939	0.0718951
0.00301778	0.0724481
0.00311618	0.0730012
0.00320473	0.0735542
0.0033031	0.0746603
0.00340149	0.0752133
0.00354904	0.0768725
0.0036475	0.0763194
0.00373602	0.0774255
0.00383444	0.0774255
0.00393284	0.0779785
0.00403124	0.0785316
0.00412963	0.0790846
0.00421818	0.0796376
0.00431658	0.0801907
0.00441498	0.0807437
0.00449372	0.0807437
