Adsorption isotherm of Mercury Dichloride on Carbon
DOI: 10.1071/En06034
Adsorbate Mercury Dichloride: InChIKey LWJROJCJINYWOX-UHFFFAOYSA-L
Temperature: 473 K
Tabular data in the source: 0
pressure (bar)	uptake (mmol/g)
0.000106157	9.09e-05
0.000318471	0.000393768
0.000498938	0.000636085
0.000774947	0.00112072
0.000870488	0.00124188
0.00096603	0.00139333
0.00106157	0.00151449
0.00115711	0.00166594
0.00125265	0.0017871
0.00133758	0.00193855
0.00143312	0.00209
0.0014862	0.00205971
0.00167728	0.0023626
0.0018259	0.00254434
0.00192144	0.0026655
0.0020276	0.00275637
0.00212314	0.00287753
0.00221868	0.00299869
0.00231423	0.00308956
0.00242038	0.00321072
0.00253715	0.00339246
0.0026327	0.00348333
0.00272824	0.00360449
0.00282378	0.00375595
0.00292994	0.00387709
0.00302548	0.00399827
0.00312102	0.00411941
0.00321656	0.00424059
0.0033121	0.00439201
0.00340764	0.00451319
0.00354565	0.00466464
0.00364119	0.00478578
0.00374735	0.00487665
0.00384289	0.00499783
0.00393843	0.00511897
0.00403397	0.00520983
0.00414013	0.00533101
0.00423567	0.00542188
0.00433121	0.00554302
0.00443737	0.0056642
0.00450106	0.00575506
