Adsorption isotherm of Mercury Dichloride on Carbon
DOI: 10.1071/En06034
Adsorbate Mercury Dichloride: InChIKey LWJROJCJINYWOX-UHFFFAOYSA-L
Temperature: 450 K
Tabular data in the source: 0
pressure (bar)	uptake (mmol/g)
3.85e-05	0.352237
5.84e-05	0.455841
8.95e-05	0.493846
0.000110093	0.524938
0.00015164	0.556044
0.000235289	0.559555
0.000350351	0.559634
0.000444558	0.552793
0.00054916	0.552865
0.000653729	0.556391
0.000758298	0.559916
0.0008629	0.559988
0.000967469	0.563513
0.00106158	0.567031
0.00116618	0.567104
0.00127075	0.570629
0.00137532	0.574154
0.00147989	0.577679
0.001574	0.581198
0.0016786	0.58127
0.00178317	0.584795
0.0018877	0.591773
0.00198181	0.595291
0.00208638	0.598817
0.00219095	0.602342
0.00229552	0.605867
0.00240009	0.609392
0.0024942	0.61291
0.0025988	0.612983
0.0027034	0.613055
0.002808	0.613127
0.00291261	0.613199
0.00301721	0.613272
0.00312181	0.613344
0.00322641	0.613416
0.00333101	0.613488
0.00343561	0.613561
0.00354022	0.613633
0.00364482	0.613705
0.00374942	0.613777
0.00385399	0.617302
0.00395859	0.617375
0.00406319	0.617447
0.00416779	0.617519
0.0042724	0.617591
0.004377	0.617664
0.0044816	0.617736
