Adsorption isotherm of Mercury Dichloride on Carbon
DOI: 10.1071/En06034
Adsorbate Mercury Dichloride: InChIKey LWJROJCJINYWOX-UHFFFAOYSA-L
Temperature: 450 K
Tabular data in the source: 0
pressure (bar)	uptake (mmol/g)
0.000100936	2.54e-05
0.00026929	0.00015241
0.000482449	0.000254017
0.000560963	0.000279418
0.000661938	0.000330222
0.000774122	0.000381025
0.000886307	0.000431828
0.000976109	0.000508033
0.00107701	0.000508033
0.00118919	0.000558837
0.00129017	0.00060964
0.00140235	0.000660443
0.00151454	0.000711247
0.00161551	0.00076205
0.00171648	0.000812853
0.00182867	0.000863657
0.00192964	0.00091446
0.00204179	0.000939862
0.00215397	0.000990665
0.00225495	0.00104147
0.00236709	0.00106687
0.00247928	0.00111767
