Adsorption isotherm of Mercury Dichloride on Carbon
DOI: 10.1071/En06034
Adsorbate Mercury Dichloride: InChIKey LWJROJCJINYWOX-UHFFFAOYSA-L
Temperature: 409 K
Tabular data in the source: 0
pressure (bar)	uptake (mmol/g)
2.14e-05	0.0222933
4.28e-05	0.0416788
5.35e-05	0.0571872
9.64e-05	0.0726956
0.000139186	0.0823883
0.000182013	0.0911118
0.000224839	0.0998352
0.000278373	0.108559
0.000331906	0.116313
0.000406852	0.124067
0.000460385	0.131821
0.000546039	0.134729
0.000631692	0.140545
0.000728051	0.144422
0.000824411	0.148299
0.000920771	0.152176
0.00102784	0.156053
0.00114561	0.15993
0.00122056	0.161869
0.00131692	0.165746
0.00141328	0.168654
0.00150964	0.170592
0.00159529	0.174469
0.00169165	0.177377
0.00179872	0.180285
0.00189507	0.183193
0.00200214	0.185131
0.0020985	0.188039
0.00220557	0.190947
0.00230193	0.193855
0.00240899	0.196763
0.00249465	0.198701
0.00259101	0.201609
0.00268737	0.204517
0.00278373	0.208394
0.00289079	0.211302
0.00298715	0.215179
0.00309422	0.218087
0.00319058	0.220994
0.00328694	0.223902
0.003394	0.22681
0.00347966	0.228749
0.00357602	0.230687
0.00368308	0.232626
0.00377944	0.234564
0.00388651	0.235534
0.00399358	0.237472
0.00408994	0.238441
0.004197	0.239411
0.00430407	0.241349
0.00440043	0.242319
0.00450749	0.244257
