Adsorption isotherm of Mercury Dichloride on Carbon
DOI: 10.1071/En06034
Adsorbate Mercury Dichloride: InChIKey LWJROJCJINYWOX-UHFFFAOYSA-L
Temperature: 450 K
Tabular data in the source: 0
pressure (bar)	uptake (mmol/g)
5.88e-05	0.00387127
0.000107824	0.00829559
0.000166613	0.0132729
0.000205718	0.0182503
0.000264507	0.0232276
0.000313483	0.027652
0.000372301	0.0320763
0.000440992	0.0359475
0.00049987	0.0392658
0.000598147	0.042031
0.000726071	0.042584
0.000824496	0.042584
0.000922921	0.042584
0.00106066	0.0436901
0.00115902	0.0447962
0.00124758	0.0453492
0.00134594	0.0464553
0.00143447	0.0475614
0.00155255	0.0481144
0.00165091	0.0492205
0.00173944	0.0503266
0.00183783	0.0508796
0.00192636	0.0519857
0.00205428	0.0525387
0.0021428	0.0536448
0.00223133	0.0547509
0.00232969	0.055857
0.00242809	0.05641
0.00248711	0.056963
