Adsorption isotherm of Mercury Dichloride on Zeolite 13X
DOI: 10.1071/En06034
Adsorbate Mercury Dichloride: InChIKey LWJROJCJINYWOX-UHFFFAOYSA-L
Temperature: 473 K
Tabular data in the source: 0
pressure (bar)	uptake (molecules/nm2)
0.000143139	0.0780911
0.00022106	0.156182
0.000338253	0.201735
0.000416288	0.253796
0.000481279	0.305857
0.000572413	0.344902
0.000611289	0.403471
0.000676252	0.462039
0.000754287	0.5141
0.000832349	0.559653
0.000923456	0.605206
0.00102766	0.637744
0.00106671	0.657267
0.00117089	0.696312
0.00127506	0.735358
0.00137927	0.767896
0.00149649	0.806941
0.0016007	0.839479
0.00170488	0.878525
0.00182213	0.911063
0.00192633	0.943601
0.00203051	0.982646
0.00214776	1.01518
0.00225194	1.05423
0.00236919	1.08677
0.00247339	1.11931
0.0025776	1.15184
0.00269482	1.19089
0.00279903	1.22343
0.00291625	1.26247
0.00302046	1.29501
0.00312466	1.32755
0.00324191	1.36009
0.00334609	1.39913
0.00346334	1.43167
0.00356755	1.46421
0.00368477	1.50325
0.00378897	1.53579
0.00389315	1.57484
0.0040104	1.60738
0.00411461	1.63991
0.00423186	1.67245
0.00433604	1.7115
0.00445329	1.74403
0.00455749	1.77657
0.0046617	1.80911
0.00477892	1.84816
0.00488313	1.88069
0.00498736	1.90672
