Adsorption isotherm of Mercury Dichloride on Carbon
DOI: 10.1071/En06034
Adsorbate Mercury Dichloride: InChIKey LWJROJCJINYWOX-UHFFFAOYSA-L
Temperature: 450 K
Tabular data in the source: 0
pressure (bar)	uptake (mmol/g)
4.94e-05	0.307355
5.95e-05	0.341892
0.000100712	0.410981
0.000142422	0.424822
0.00022594	0.442145
0.000330542	0.442217
0.000435176	0.438836
0.000529285	0.442354
0.000633887	0.442427
0.000738456	0.445952
0.000842993	0.45293
0.000937069	0.459901
0.00104167	0.459974
0.00114624	0.463499
0.00125081	0.467024
0.00135538	0.470549
0.00144949	0.474067
0.00155409	0.47414
0.00165866	0.477665
0.00176326	0.477737
0.00185737	0.481255
0.00196197	0.481327
0.00206654	0.484853
0.00217114	0.484925
0.00227571	0.48845
0.00238031	0.488522
0.00248488	0.492048
0.00258948	0.49212
0.00268356	0.499091
0.00278813	0.502616
0.00289267	0.509594
0.00298677	0.513112
0.00309138	0.513185
0.00319595	0.51671
0.00330055	0.516782
0.00340515	0.516854
0.00350972	0.52038
0.00361432	0.520452
0.00371892	0.520524
0.00382352	0.520596
0.00392813	0.520669
0.00403269	0.524194
0.0041373	0.524266
0.0042419	0.524338
0.0043465	0.524411
0.00444061	0.527929
0.00448242	0.531411
