Adsorption isotherm of Mercury Dichloride on Carbon
DOI: 10.1071/En06034
Adsorbate Mercury Dichloride: InChIKey LWJROJCJINYWOX-UHFFFAOYSA-L
Temperature: 473 K
Tabular data in the source: 0
pressure (bar)	uptake (mmol/g)
2.14e-05	0.0193855
5.35e-05	0.031986
8.57e-05	0.0407095
0.000139186	0.0465252
0.000203426	0.0542793
0.000289079	0.0610643
0.000374732	0.0659106
0.000481799	0.070757
0.000578158	0.0726956
0.000674518	0.0746341
0.000781585	0.0765726
0.000877944	0.0785112
0.000985011	0.0794805
0.00109208	0.0804497
0.00118844	0.0823883
0.0012955	0.0833576
0.00140257	0.0843268
0.00150964	0.0852961
0.00154176	0.0852961
0.00164882	0.0862654
0.00175589	0.0872347
0.00185225	0.0882039
0.00195931	0.0891732
0.00206638	0.0891732
0.00217345	0.0901425
0.00228051	0.0911118
0.00237687	0.092081
0.00248394	0.0930503
0.0025803	0.0930503
0.00267666	0.0940196
0.00278373	0.0949889
0.00289079	0.0949889
0.00299786	0.0959581
0.00310493	0.0969274
0.00320128	0.0978967
0.00330835	0.0988659
0.00341542	0.0988659
0.00352248	0.0998352
0.0035439	0.101774
0.00365096	0.100804
0.00375803	0.101774
0.00385439	0.102743
0.00396146	0.102743
0.00406852	0.103712
0.00417559	0.104682
0.00428266	0.105651
0.00438972	0.105651
0.00448608	0.10662
