Adsorption isotherm of Mercury Dichloride on Carbon
DOI: 10.1071/En06034
Adsorbate Mercury Dichloride: InChIKey LWJROJCJINYWOX-UHFFFAOYSA-L
Temperature: 450 K
Tabular data in the source: 0
pressure (bar)	uptake (mmol/g)
0.000118081	0.000553039
0.000305029	0.00165912
0.000403425	0.00221216
0.000551033	0.0027652
0.000649429	0.00331824
0.000747854	0.00331824
0.00084625	0.00387127
0.000934803	0.00442431
0.0010332	0.00497735
0.00113162	0.00497735
0.00123002	0.00553039
0.00132842	0.00608343
0.00142684	0.00608343
0.00155476	0.00663647
0.00165319	0.00663647
0.00175155	0.00774255
0.00184998	0.00774255
0.00193853	0.00829559
0.00203693	0.00884863
0.00213535	0.00884863
0.00223375	0.00940167
0.00233217	0.00940167
0.00243057	0.00995471
0.00255849	0.0105077
0.00265689	0.0110608
0.00275531	0.0110608
0.00285371	0.0116138
0.00294226	0.0121669
0.00304069	0.0121669
0.00313911	0.0121669
0.00323751	0.0127199
0.00332606	0.0132729
0.00342449	0.0132729
0.00355241	0.013826
0.00365081	0.014379
0.00374923	0.014379
0.00384766	0.014379
0.00394605	0.0149321
0.00404448	0.0149321
0.00413306	0.0149321
0.00423146	0.0154851
0.00432001	0.0160381
0.00441843	0.0160381
0.00448733	0.0160381
