Adsorption isotherm of Mercury Dichloride on Zeolite 13X
DOI: 10.1071/En06034
Adsorbate Mercury Dichloride: InChIKey LWJROJCJINYWOX-UHFFFAOYSA-L
Temperature: 500 K
Tabular data in the source: 0
pressure (bar)	uptake (molecules/nm2)
0.00010432	0.00650759
0.000182411	0.0455531
0.000260587	0.0650759
0.000364793	0.0976139
0.000468999	0.130152
0.000560191	0.156182
0.000664397	0.18872
0.000781647	0.221258
0.000885825	0.260304
0.0010031	0.286334
0.00106824	0.305857
0.00117241	0.344902
0.00128969	0.370933
0.00139387	0.409978
0.00151115	0.436009
0.0016284	0.468547
0.0017326	0.501085
0.00184985	0.533623
0.0019671	0.566161
0.00205832	0.585683
0.00217557	0.618221
0.00229285	0.644252
0.00241013	0.670282
0.00252741	0.696312
0.00264469	0.722343
0.00276196	0.748373
0.00287921	0.780911
0.00299652	0.800434
0.00306168	0.813449
0.00317896	0.839479
0.00329621	0.872017
0.00341349	0.898048
0.00353076	0.924078
0.00364804	0.950108
0.00376529	0.982646
0.00388257	1.00868
0.00399985	1.03471
