Adsorption isotherm of Carbon Dioxide on CuBTC
DOI: 10.1007/s10973-013-3497-1
Adsorbate Carbon Dioxide: InChIKey CURLTUGMZLYLDI-UHFFFAOYSA-N
Temperature: 273 K
Tabular data in the source: 0
pressure (bar)	uptake (mmol/g)
0.283155	0.150943
0.424512	0.213836
0.56653	0.314465
0.988619	0.389937
1.83411	0.616352
2.46724	0.72956
3.52268	0.930818
4.15626	1.06918
4.78939	1.18239
5.3524	1.2956
6.2667	1.44654
6.89938	1.53459
7.60263	1.6478
8.51649	1.77358
10.484	2
12.2412	2.22642
13.9273	2.40252
15.6838	2.59119
17.3697	2.75472
19.1957	2.90566
20.7405	3.01887
22.5664	3.16981
24.3917	3.28302
26.9196	3.4717
29.6577	3.6478
32.3249	3.78616
34.6409	3.88679
