Adsorption isotherm of Nitrogen on CuBTC
DOI: 10.1007/s10973-013-3497-1
Adsorbate Nitrogen: InChIKey IJGRMHOSHXDMSA-UHFFFAOYSA-N
Temperature: 77 K
Tabular data in the source: 0
pressure (bar)	uptake (cm3(STP)/g)
0.00352638	0.00362976
0.00528959	138.992
0.00705278	155.097
0.0105792	236.459
0.0123424	271.208
0.0141056	273.753
0.0440799	281.433
0.0899229	285.75
0.12695	287.51
0.156925	290.104
0.192188	291.013
0.223926	291.916
0.25919	294.52
0.294453	293.734
0.327954	296.335
0.363218	295.549
0.398482	296.458
0.435509	294.828
0.470773	297.431
0.504273	298.337
0.541301	298.402
0.578327	298.467
0.610065	301.064
0.643566	300.275
0.685882	300.349
0.715857	301.249
0.754648	302.164
0.786384	302.219
0.823412	303.131
0.858676	301.498
0.895703	304.105
0.930967	303.319
