Adsorption isotherm of Carbon Dioxide on CuBTC
DOI: 10.1007/s10973-013-3497-1
Adsorbate Carbon Dioxide: InChIKey CURLTUGMZLYLDI-UHFFFAOYSA-N
Temperature: 298 K
Tabular data in the source: 0
pressure (bar)	uptake (mmol/g)
1.0039	0.1316
1.57933	0.157766
3.73409	0.341697
4.73989	0.420491
6.32113	0.52545
7.75826	0.630469
8.90814	0.709203
10.0581	0.787938
11.4957	0.879755
12.7882	0.998035
14.2268	1.06345
15.9507	1.20795
19.1136	1.40467
22.5633	1.64087
25.8708	1.82433
28.7451	2.03437
32.0527	2.21783
35.5038	2.41442
38.6672	2.59794
41.5429	2.76837
44.995	2.93857
49.8852	3.18738
54.4866	3.44951
59.3778	3.67192
63.6934	3.86816
