Adsorption isotherm of Nitrogen on CuBTC
DOI: 10.1007/s10973-013-3497-1
Adsorbate Nitrogen: InChIKey IJGRMHOSHXDMSA-UHFFFAOYSA-N
Temperature: 298 K
Tabular data in the source: 0
pressure (bar)	uptake (mmol/g)
0.00680845	0.0394265
0.0250094	0.0653549
0.0591645	0.0644649
0.0773804	0.0639903
0.102435	0.0501361
0.120651	0.0496614
0.138867	0.0491868
0.163891	0.0881387
0.184392	0.0744032
0.202616	0.060727
0.225378	0.0733352
0.250418	0.085884
0.30505	0.110863
0.357421	0.109498
0.405231	0.121454
0.459872	0.133231
0.507681	0.145187
0.55776	0.170285
0.6124	0.182062
0.660209	0.194018
0.710303	0.192712
0.78543	0.217158
0.862833	0.241543
0.94479	0.26581
1.00855	0.264149
