Adsorption isotherm of Nitrogen on CuBTC
DOI: 10.1007/s10973-013-3497-1
Adsorbate Nitrogen: InChIKey IJGRMHOSHXDMSA-UHFFFAOYSA-N
Temperature: 273 K
Tabular data in the source: 0
pressure (bar)	uptake (mmol/g)
0.0122883	0.0125786
0.0307045	-8.88178e-16
0.0634753	0.0377358
0.0778041	0.0377358
0.100327	0.0503145
0.116709	0.0628931
0.14332	0.0628931
0.161755	0.0880503
0.184273	0.0880503
0.202702	0.100629
0.227272	0.113208
0.251835	0.113208
0.305082	0.163522
0.35625	0.150943
0.409484	0.176101
0.456584	0.213836
0.507764	0.226415
0.558945	0.238994
0.612185	0.27673
0.659272	0.289308
0.708406	0.301887
0.790305	0.339623
0.866048	0.352201
0.939759	0.389937
1.00527	0.415094
