Adsorption isotherm of Hydrogen on [H[Mg(HCOO)3]]inf
DOI: 10.1021/La201769x
Adsorbate Hydrogen: InChIKey UFHFLCQGNIYNRP-UHFFFAOYSA-N
Temperature: 77 K
Tabular data in the source: 0
pressure (bar)	uptake (wt%)
0.0104286	0.0453933
0.0207144	0.096125
0.0350401	0.157003
0.050478	0.205198
0.0656521	0.253393
0.0805432	0.291442
0.100265	0.332027
0.150908	0.423345
0.199159	0.47154
0.308634	0.545101
0.407316	0.590759
0.820959	0.67193
1.42987	0.727735
2.05984	0.755637
2.96736	0.791149
4.87506	0.849491
6.9211	0.890076
11.5379	0.971247
15.0063	1.01437
23.255	1.08539
31.142	1.15642
46.8713	1.22237
62.7677	1.26295
103.121	1.29086
