Adsorption isotherm of Nitrogen on [H[Mg(HCOO)3]]inf
DOI: 10.1021/La201769x
Adsorbate Nitrogen: InChIKey IJGRMHOSHXDMSA-UHFFFAOYSA-N
Temperature: 77 K
Tabular data in the source: 0
pressure (bar)	uptake (cm3(STP)/g)
0.00259072	39.0244
0.00518144	47.561
0.00777216	57.3171
0.0103629	59.7561
0.0284979	75.6098
0.0595866	87.8049
0.0751309	92.6829
0.0958566	97.561
0.116582	101.22
0.155443	112.195
0.176169	117.073
0.225393	126.829
0.266844	135.366
0.331612	145.122
0.367882	150
0.422287	154.878
0.437832	156.098
0.487055	157.317
0.533688	160.976
0.588093	162.195
0.632136	164.634
0.68395	167.073
0.730583	169.512
0.75649	170.732
0.782397	171.951
0.797942	173.171
0.82903	174.39
0.852347	174.39
0.875663	174.39
0.901571	175.61
0.948204	178.049
0.97152	185.366
