Adsorption isotherm of Nitrogen on Beta-Mg(HCOO)2
DOI: 10.1021/La201769x
Adsorbate Nitrogen: InChIKey IJGRMHOSHXDMSA-UHFFFAOYSA-N
Temperature: 77 K
Tabular data in the source: 0
pressure (bar)	uptake (cm3(STP)/g)
0.00721536	2.39948
0.0185948	2.75159
0.0299777	3.17429
0.0427741	3.45572
0.0555639	3.59596
0.0697707	3.66552
0.0825605	3.80577
0.0967707	3.94591
0.10956	4.08616
0.119506	4.15602
0.13371	4.15499
0.146499	4.29524
0.1607	4.22362
0.173489	4.36387
0.186279	4.50411
0.200483	4.50308
0.213276	4.71392
0.227479	4.71288
0.241686	4.78244
0.254473	4.8521
0.268679	4.92165
0.282886	4.99121
0.295676	5.13146
0.308466	5.27171
0.321252	5.34136
0.335462	5.48151
0.348252	5.62176
0.362462	5.7619
0.375252	5.90215
0.389469	6.18347
0.400845	6.46499
0.410781	6.32309
0.423574	6.53393
0.436364	6.67418
0.449154	6.81442
0.461943	6.95467
0.474733	7.09492
0.487526	7.30575
0.500313	7.37541
0.511682	7.51576
0.525889	7.58532
0.538682	7.79615
0.552886	7.79512
0.567092	7.86468
0.579879	7.93434
0.594086	8.00389
0.608292	8.07345
0.622496	8.07242
0.636703	8.14197
0.649486	8.14105
0.663693	8.2106
0.677896	8.20957
0.692103	8.27913
0.694947	8.34951
0.709154	8.41906
0.721937	8.41813
0.736144	8.48769
0.75035	8.55725
0.764557	8.6268
0.778761	8.62577
0.792971	8.76591
0.807174	8.76488
0.819961	8.83454
0.828489	8.9751
0.841279	9.11535
0.855486	9.1849
0.866859	9.39584
0.879652	9.60667
0.892449	9.8881
0.903828	10.2402
0.915204	10.5217
0.92375	11.0152
0.932298	11.5793
0.946572	13.0606
0.95231	14.2602
0.959482	15.7421
0.959562	17.4362
0.96396	20.33
0.968325	22.5179
0.968439	24.9179
0.971343	26.2588
0.971386	27.1765
