Adsorption isotherm of Hydrogen on [H[Mg(HCOO)3]]inf
DOI: 10.1021/La201769x
Adsorbate Hydrogen: InChIKey UFHFLCQGNIYNRP-UHFFFAOYSA-N
Temperature: 77 K
Tabular data in the source: 0
pressure (bar)	uptake (wt%)
1.08345	0.382759
2.18373	0.501979
3.80343	0.600905
6.06879	0.689686
8.00921	0.740418
11.0434	0.796223
19.8044	0.86471
27.7086	0.882466
36.5681	0.869784
68.5149	0.687149
74.7883	0.626271
82.8369	0.57554
