Adsorption isotherm of Hydrogen on [H[Mg(HCOO)3]]inf
DOI: 10.1021/La201769x
Adsorbate Hydrogen: InChIKey UFHFLCQGNIYNRP-UHFFFAOYSA-N
Temperature: 77 K
Tabular data in the source: 0
pressure (bar)	uptake (wt%)
1.06775	0.392906
2.28152	0.514662
6.24863	0.750564
11.3706	0.897686
15.227	0.971247
18.6808	1.0372
24.2964	1.08539
26.9111	1.12852
35.5156	1.18939
51.9155	1.24013
68.5149	1.28071
86.5463	1.28578
