Adsorption isotherm of Hydrogen on [H[Mg(HCOO)3]]inf
DOI: 10.1021/La201769x
Adsorbate Hydrogen: InChIKey UFHFLCQGNIYNRP-UHFFFAOYSA-N
Temperature: 77 K
Tabular data in the source: 0
pressure (bar)	uptake (wt%)
0.0104286	0.0606128
0.0150231	0.0935884
0.0204142	0.113881
0.0350401	0.189979
0.050478	0.253393
0.0656521	0.309198
0.0817279	0.35232
0.10174	0.408125
0.150908	0.501979
0.196272	0.573003
0.30416	0.65671
0.401412	0.709979
0.58677	0.773393
0.820959	0.826662
1.38872	0.882466
2.02998	0.917979
3.0553	0.966174
3.97374	0.996613
5.2443	1.03212
7.0229	1.08286
11.3706	1.17417
15.6782	1.23505
23.255	1.3213
32.0648	1.38725
47.5607	1.46842
63.6909	1.53437
98.701	1.5572
