Adsorption isotherm of Carbon Dioxide on Zn-BDC
DOI: 10.1016/S0277-5387(01)00594-0
Adsorbate Carbon Dioxide: InChIKey CURLTUGMZLYLDI-UHFFFAOYSA-N
Temperature: 78 K
Tabular data in the source: 0
pressure (bar)	uptake (mg/g)
0.00219712	-2.31302
0.0036537	181.799
0.0109366	217.34
0.0123932	244.141
0.0502643	311.144
0.104158	332.701
0.204662	345.519
0.305166	347.849
0.40567	344.936
0.506175	347.849
0.603766	350.18
0.702813	354.258
0.803318	351.928
0.905278	353.093
1.01598	354.258
