Adsorption isotherm of Nitrogen on Zn-BDC
DOI: 10.1016/S0277-5387(01)00594-0
Adsorbate Nitrogen: InChIKey IJGRMHOSHXDMSA-UHFFFAOYSA-N
Temperature: 78 K
Tabular data in the source: 0
pressure (bar)	uptake (mg/g)
0.000741	161.518
0.00219712	176.608
0.00511028	194.146
0.0415248	205.157
0.0983316	218.616
0.194466	212.906
0.292057	224.326
0.396931	225.957
0.495979	225.142
0.596483	225.55
0.6999	221.879
0.796035	222.287
0.899452	227.589
1.01161	227.181
