Adsorption isotherm of Nitrogen on Zn-BDC
DOI: 10.1016/S0277-5387(01)00594-0
Adsorbate Nitrogen: InChIKey IJGRMHOSHXDMSA-UHFFFAOYSA-N
Temperature: 78 K
Tabular data in the source: 0
pressure (bar)	uptake (mg/g)
0.0442653	217.069
0.0969073	219.643
0.194671	214.262
0.297449	225.024
0.396884	224.322
0.596589	225.96
0.698531	223.152
0.79713	224.79
0.899072	221.983
1.01128	222.278
