Adsorption isotherm of Carbon Dioxide on Zn-BDC
DOI: 10.1016/S0277-5387(01)00594-0
Adsorbate Carbon Dioxide: InChIKey CURLTUGMZLYLDI-UHFFFAOYSA-N
Temperature: 78 K
Tabular data in the source: 0
pressure (bar)	uptake (mg/g)
0.00656687	115.379
0.0109366	170.729
0.0502643	181.799
0.206119	203.356
0.401301	217.922
0.509088	228.41
0.608136	238.897
0.702813	237.149
0.806231	252.88
0.903822	258.707
1.01598	256.959
