Adsorption isotherm of Nitrogen on Zn-BDC
DOI: 10.1016/S0277-5387(01)00594-0
Adsorbate Nitrogen: InChIKey IJGRMHOSHXDMSA-UHFFFAOYSA-N
Temperature: 78 K
Tabular data in the source: 0
pressure (bar)	uptake (mg/g)
-0.000716	163.15
-0.000716	186.397
0.093565	210.752
0.193836	222.918
0.296613	211.454
0.397719	223.152
0.495483	222.684
0.595754	223.152
0.696024	222.217
0.79713	226.896
0.902415	227.598
1.01021	224.322
