Adsorption isotherm of Carbon Dioxide on Zn-BDC
DOI: 10.1016/S0277-5387(01)00594-0
Adsorbate Carbon Dioxide: InChIKey CURLTUGMZLYLDI-UHFFFAOYSA-N
Temperature: 78 K
Tabular data in the source: 0
pressure (bar)	uptake (mg/g)
0.00511028	-0.565122
0.00948003	47.2108
0.0138498	82.7514
0.0517209	164.903
0.107071	187.043
0.204662	205.104
0.30371	212.679
0.401301	216.174
0.501805	222.583
0.608136	220.835
0.698444	227.827
0.905278	230.74
1.01161	234.819
