Adsorption isotherm of Nitrogen on BL-SS-48-760-50
DOI: 10.1002/ep.12591
Article source: Figure 5
Adsorbate Nitrogen: InChIKey IJGRMHOSHXDMSA-UHFFFAOYSA-N
Kind: experiment
Temperature: 77 K
Tabular data in the source: 0
pressure (bar)	uptake (cm3(STP)/g)
0.015563	3.167
0.0352	4.312
0.06969	4.813
0.09498	5.296
0.127353	5.922
0.168044	6.351
0.209789	6.834
0.261616	7.335
0.315033	7.461
0.367215	8.194
0.409497	8.767
0.465387	9.107
0.500232	9.536
0.547286	10.108
0.570286	10.878
0.618577	11.772
0.67164	13.043
0.70383	14.76
0.747703	16.013
0.779012	16.889
0.809429	18.249
0.857193	20.056
0.956955	22.65
0.981009	25.352
0.988963	27.964
0.996035	33.027
0.999389	40.827
