Adsorption isotherm of Nitrogen on Black liquor lignin
DOI: 10.1002/ep.12591
Article source: Figure 5
Adsorbate Nitrogen: InChIKey IJGRMHOSHXDMSA-UHFFFAOYSA-N
Kind: experiment
Temperature: 77 K
Tabular data in the source: 0
pressure (bar)	uptake (cm3(STP)/g)
0.016445	1.628
0.097108	3.703
0.163799	4.401
0.239862	4.491
0.317334	4.705
0.376952	4.813
0.443106	5.01
0.545351	5.063
0.638923	5.385
0.749476	5.51
0.844649	5.976
0.927957	6.87
0.961211	8.105
0.992874	10.001
1.00348	12.076
