Adsorption isotherm of Nitrogen on BL-pSS860-48-860-50
DOI: 10.1002/ep.12591
Article source: Figure 5
Adsorbate Nitrogen: InChIKey IJGRMHOSHXDMSA-UHFFFAOYSA-N
Kind: experiment
Temperature: 77 K
Tabular data in the source: 0
pressure (bar)	uptake (cm3(STP)/g)
0.009707	21.398
0.041532	24.368
0.060105	26.532
0.104667	28.554
0.143929	29.449
0.176829	30.63
0.205301	31.56
0.265253	32.633
0.354742	35.711
0.446348	38.716
0.531774	37.643
0.612244	42.921
0.779366	46.875
0.869209	50.936
0.925079	64.318
0.969813	78.059
0.980219	104.144
0.999298	123.055
