Adsorption isotherm of Nitrogen on BL-SS-48-860-50
DOI: 10.1002/ep.12591
Article source: Figure 5
Adsorbate Nitrogen: InChIKey IJGRMHOSHXDMSA-UHFFFAOYSA-N
Kind: experiment
Temperature: 77 K
Tabular data in the source: 0
pressure (bar)	uptake (cm3(STP)/g)
0.011987	33.295
0.033031	35.389
0.067694	37.088
0.102539	38.18
0.124648	38.287
0.158956	37.714
0.199454	39.575
0.256043	40.935
0.315824	43.064
0.36305	42.545
0.453947	44.227
0.544327	46.803
0.639997	49.469
0.735321	53.942
0.82251	58.772
0.899617	63.764
0.93816	69.918
0.989257	89.008
0.999845	109.1
1.00124	122.16
1.01148	145.616
