Adsorption isotherm of Nitrogen on BL-SS-48-660-50
DOI: 10.1002/ep.12591
Article source: Figure 5
Adsorbate Nitrogen: InChIKey IJGRMHOSHXDMSA-UHFFFAOYSA-N
Kind: experiment
Temperature: 77 K
Tabular data in the source: 0
pressure (bar)	uptake (cm3(STP)/g)
0.010254	0.895
0.025108	3.847
0.052526	4.741
0.086125	5.546
0.108233	6.011
0.145368	6.53
0.198603	7.228
0.302419	8.123
0.404117	8.767
0.508104	9.214
0.608921	9.697
0.707782	10.609
0.759953	11.039
0.810533	11.665
0.860405	12.399
0.911522	13.436
0.961039	14.957
0.986329	16.388
1.0056	18.947
