Adsorption isotherm of O-Xylene on AlPO4-5
DOI: 10.1007/s10450-006-0570-0
Adsorbate O-Xylene: InChIKey CTQNGGLPUBDAKN-UHFFFAOYSA-N
Temperature: 303 K
Tabular data in the source: 0
pressure (bar)	uptake (molecules/unitcell)
4.58e-05	1.56627
0.000297901	1.61158
0.000779125	1.61616
0.00137493	1.59747
0.00190198	1.58228
0.00210822	1.57178
0.00254362	1.56125
0.00274985	1.55076
0.00309359	1.52745
0.00327691	1.52393
0.00364356	1.50527
0.00423936	1.48658
0.00449143	1.47375
0.00481224	1.45743
0.00508723	1.44343
0.00536222	1.42944
0.0056372	1.41545
0.00595802	1.39912
0.00650799	1.37113
0.00714962	1.35011
0.00769959	1.32212
0.00786	1.31395
