Adsorption isotherm of P-Xylene on AlPO4-5
DOI: 10.1007/s10450-006-0570-0
Adsorbate P-Xylene: InChIKey URLKBWYHVLBVBO-UHFFFAOYSA-N
Temperature: 303 K
Tabular data in the source: 0
pressure (bar)	uptake (molecules/unitcell)
2.26e-05	0.829066
0.000361516	0.962736
0.000655248	0.959204
0.000971574	0.907994
0.00309548	0.914652
0.00497085	0.724836
