Adsorption isotherm of O-Xylene on AlPO4-8
DOI: 10.1007/s10450-006-0570-0
Adsorbate O-Xylene: InChIKey CTQNGGLPUBDAKN-UHFFFAOYSA-N
Temperature: 303 K
Tabular data in the source: 0
pressure (bar)	uptake (molecules/unitcell)
3.93e-05	2.70053
0.000353708	3.07268
0.000687765	3.09045
0.000962871	3.14182
0.00316372	3.36714
0.00503051	3.42278
