Adsorption isotherm of P-Xylene on AlPO4-8
DOI: 10.1007/s10450-006-0570-0
Adsorbate P-Xylene: InChIKey URLKBWYHVLBVBO-UHFFFAOYSA-N
Temperature: 303 K
Tabular data in the source: 0
pressure (bar)	uptake (molecules/unitcell)
1.94e-05	2.31229
0.000116247	2.49821
0.000251869	2.6336
0.000426239	2.71846
0.00060061	2.78645
0.000736231	2.82057
0.000929976	2.85485
0.00108497	2.88903
0.00127872	2.92331
0.00145309	2.94066
0.00164683	2.97495
0.00184058	2.99235
0.00201495	3.0097
0.00220869	3.02711
0.00240244	3.04451
0.00259618	3.04504
0.00278993	3.06245
0.0029643	3.0798
0.00317742	3.09726
0.00337116	3.09778
0.00356491	3.11519
0.00375865	3.11572
0.0039524	3.13312
0.00414614	3.13365
0.00432051	3.151
0.00451426	3.15153
0.004708	3.16893
0.00490175	3.16946
