Adsorption isotherm of P-Xylene on VPI-5
DOI: 10.1007/s10450-006-0570-0
Adsorbate P-Xylene: InChIKey URLKBWYHVLBVBO-UHFFFAOYSA-N
Temperature: 303 K
Tabular data in the source: 0
pressure (bar)	uptake (molecules/unitcell)
5.81e-05	2.9875
0.000348741	3.22458
0.000658733	3.46171
0.000968725	3.44568
0.00311929	3.67094
0.0049405	3.69277
