Adsorption isotherm of O-Xylene on AlPO4-5
DOI: 10.1007/s10450-006-0570-0
Adsorbate O-Xylene: InChIKey CTQNGGLPUBDAKN-UHFFFAOYSA-N
Temperature: 303 K
Tabular data in the source: 0
pressure (bar)	uptake (molecules/unitcell)
4.58e-05	1.22325
0.000114577	1.27789
0.000137493	1.33486
0.000320816	1.37205
0.000481224	1.40458
0.000641633	1.43711
0.000847872	1.43825
0.00105411	1.44519
0.00123743	1.45331
0.00144367	1.46607
0.00164991	1.4672
0.00187907	1.46716
0.00208531	1.4683
0.00231446	1.46826
0.0025207	1.46939
0.00274985	1.46355
0.00297901	1.46351
0.00318525	1.45883
0.0034144	1.45298
0.00364356	1.44714
0.00387271	1.4471
0.00407895	1.44242
0.0043081	1.43657
0.00453726	1.42491
0.00476641	1.42488
0.00499557	1.41321
0.00517889	1.4097
0.00540805	1.40385
0.0056372	1.398
0.00586636	1.38634
0.00607259	1.38166
0.00630175	1.37581
0.0065309	1.36996
0.00676006	1.3583
0.00698921	1.35245
0.00721837	1.34661
0.00742461	1.33611
0.00765376	1.33026
0.00786	1.31977
