Adsorption isotherm of O-Xylene on AlPO4-5
DOI: 10.1007/s10450-006-0570-0
Adsorbate O-Xylene: InChIKey CTQNGGLPUBDAKN-UHFFFAOYSA-N
Temperature: 303 K
Tabular data in the source: 0
pressure (bar)	uptake (molecules/unitcell)
0	1.08605
0.000320816	1.34298
0.000641633	1.4313
0.000962449	1.45567
0.00130618	1.44981
0.00158117	1.49977
0.00348315	1.42623
0.0050414	1.39925
0.00786	1.33721
