Adsorption isotherm of P-Xylene on AlPO4-5
DOI: 10.1007/s10450-006-0570-0
Adsorbate P-Xylene: InChIKey URLKBWYHVLBVBO-UHFFFAOYSA-N
Temperature: 303 K
Tabular data in the source: 0
pressure (bar)	uptake (molecules/unitcell)
4.52e-05	0.711621
0.000338921	0.969717
0.000632653	0.966184
0.000994169	0.970781
0.00124271	0.975395
0.00158163	0.981158
0.003457	0.954132
0.00497085	0.916696
