Adsorption isotherm of O-Xylene on VPI-5
DOI: 10.1007/s10450-006-0570-0
Adsorbate O-Xylene: InChIKey CTQNGGLPUBDAKN-UHFFFAOYSA-N
Temperature: 303 K
Tabular data in the source: 0
pressure (bar)	uptake (molecules/unitcell)
3.93e-05	2.97057
0.000353708	3.30897
0.000668114	3.41108
0.000982521	3.51319
0.00316372	3.60343
0.00503051	3.69283
