Adsorption isotherm of O-Xylene on AlPO4-5
DOI: 10.1007/s10450-006-0570-0
Adsorbate O-Xylene: InChIKey CTQNGGLPUBDAKN-UHFFFAOYSA-N
Temperature: 303 K
Tabular data in the source: 0
pressure (bar)	uptake (molecules/unitcell)
0	1.4
0.000343732	1.64995
0.000641633	1.61153
0.000962449	1.61265
0.00313942	1.54256
0.0050414	1.45739
0.00788292	1.31279
