Adsorption isotherm of P-Xylene on AlPO4-5
DOI: 10.1007/s10450-006-0570-0
Adsorbate P-Xylene: InChIKey URLKBWYHVLBVBO-UHFFFAOYSA-N
Temperature: 303 K
Tabular data in the source: 0
pressure (bar)	uptake (molecules/unitcell)
0	0.836047
9.04e-05	0.854638
0.000180758	0.902298
0.000384111	0.949942
0.000519679	0.966201
0.000723032	0.973147
0.000926385	0.985908
0.00162682	0.990454
0.00185277	0.984606
0.00205612	0.985738
0.00228207	0.97989
0.00250802	0.974042
0.00273397	0.968194
0.00293732	0.969327
0.00316327	0.957665
0.00338921	0.951817
0.00356997	0.948302
0.00379592	0.942454
0.00402187	0.930792
0.00424781	0.924944
0.00445117	0.920262
0.00467711	0.908601
0.00490306	0.902753
0.00501603	0.896922
