Adsorption isotherm of O-Xylene on AlPO4-8
DOI: 10.1007/s10450-006-0570-0
Adsorbate O-Xylene: InChIKey CTQNGGLPUBDAKN-UHFFFAOYSA-N
Temperature: 303 K
Tabular data in the source: 0
pressure (bar)	uptake (molecules/unitcell)
1.97e-05	2.64984
0.000137553	2.81893
0.000275106	2.93745
0.00047161	3.03924
0.000766367	3.12442
0.00108077	3.1759
0.00127728	3.21018
0.00145413	3.24441
0.00165064	3.26181
0.00184714	3.27922
0.00202399	3.29657
0.0022205	3.31398
0.002417	3.33138
0.00261351	3.34879
0.00279036	3.36614
0.00298686	3.36667
0.00326197	3.38428
0.00345847	3.40169
0.00365498	3.40222
0.00385148	3.41962
0.00402834	3.43697
0.00422484	3.4375
0.00442135	3.45491
0.00461785	3.45543
0.00481435	3.45596
0.00505016	3.47347
