Adsorption isotherm of O-Xylene on VPI-5
DOI: 10.1007/s10450-006-0570-0
Adsorbate O-Xylene: InChIKey CTQNGGLPUBDAKN-UHFFFAOYSA-N
Temperature: 303 K
Tabular data in the source: 0
pressure (bar)	uptake (molecules/unitcell)
1.97e-05	2.95364
0.000157203	3.13966
0.000314407	3.25823
0.000589513	3.36023
0.000864619	3.42848
0.00117903	3.51371
0.00155238	3.54847
0.00184714	3.58302
0.00216155	3.61762
0.0025349	3.65237
0.00284931	3.65322
0.00316372	3.68782
0.00353708	3.7057
0.00387113	3.70659
0.00426414	3.7414
0.00461785	3.75923
0.00495191	3.76013
