Adsorption isotherm of P-Xylene on AlPO4-8
DOI: 10.1007/s10450-006-0570-0
Adsorbate P-Xylene: InChIKey URLKBWYHVLBVBO-UHFFFAOYSA-N
Temperature: 303 K
Tabular data in the source: 0
pressure (bar)	uptake (molecules/unitcell)
3.87e-05	2.41361
0.000368116	2.68455
0.000658733	2.87099
0.000949351	2.92242
0.00313867	3.01276
0.00495987	3.10211
