Adsorption isotherm of P-Xylene on AlPO4-5
DOI: 10.1007/s10450-006-0570-0
Adsorbate P-Xylene: InChIKey URLKBWYHVLBVBO-UHFFFAOYSA-N
Temperature: 303 K
Tabular data in the source: 0
pressure (bar)	uptake (molecules/unitcell)
2.26e-05	0.933718
0.000112974	0.952309
0.000338921	0.963903
0.000655248	0.965018
0.000836006	0.955689
0.00108455	0.942861
0.00122012	0.935863
0.00140087	0.932348
0.00160423	0.927666
0.00185277	0.920652
0.00198834	0.913655
0.00221429	0.901993
0.00234985	0.894996
0.0025758	0.883334
0.00271137	0.876337
0.00298251	0.868157
0.00311808	0.86116
0.00336662	0.854146
0.00347959	0.842501
0.00368294	0.83782
0.00381851	0.830822
0.00411224	0.821476
0.00422522	0.815645
0.00451895	0.800485
0.00463192	0.794654
0.00481268	0.791138
0.00497085	0.777161
