Adsorption isotherm of P-Xylene on VPI-5
DOI: 10.1007/s10450-006-0570-0
Adsorbate P-Xylene: InChIKey URLKBWYHVLBVBO-UHFFFAOYSA-N
Temperature: 303 K
Tabular data in the source: 0
pressure (bar)	uptake (molecules/unitcell)
5.81e-05	2.95374
0.000154996	3.13966
0.000348741	3.29209
0.000581235	3.37711
0.000891227	3.44546
0.00131747	3.51414
0.00168558	3.56577
0.00207307	3.60058
0.00246056	3.63539
0.00275118	3.66994
0.00317742	3.68797
0.00368116	3.70622
0.00414614	3.74124
0.00453363	3.75918
0.00497925	3.76039
