Adsorption isotherm of Carbon Dioxide on COF-PI-1
DOI: 10.1021/acs.inorgchem.1c01975
Article source: Figure 2a
Adsorbate Carbon Dioxide: InChIKey CURLTUGMZLYLDI-UHFFFAOYSA-N
Kind: experiment
Temperature: 298 K
Tabular data in the source: 0
pressure (bar)	uptake (cm3(STP)/g)
1.19296	30.9115
1.2	30.9115
1.11373	30.2604
1.02746	28.0469
0.951761	28.1771
0.877817	25.3776
0.812676	26.4193
0.710563	24.5964
0.749296	23.099
0.645423	20.8854
0.610211	22.7083
0.522183	20.8203
0.552113	18.9323
0.471127	17.0443
0.446479	19.1927
0.384859	17.5651
0.407746	15.612
0.342606	13.8542
0.330282	16.0677
0.282746	14.5703
0.240493	13.3333
0.249296	11.25
0.296831	12.5521
0.212324	9.88281
0.205282	12.0964
0.178873	11.1198
0.148944	10.0781
0.129577	9.16667
0.111972	8.25521
0.094366	7.40885
0.082042	6.88802
0.067958	6.10677
0.057394	5.58594
0.048592	5
0.184155	9.03646
0.157746	8.0599
0.13838	6.95312
0.111972	6.23698
0.101408	5.52083
0.080282	4.9349
0.071479	4.34896
0.062676	3.89323
0.052113	3.30729
0.04331	2.78646
0.034507	2.20052
0.029225	1.8099
0.020423	1.28906
0.036268	4.47917
0.029225	4.08854
0.025704	3.56771
0.020423	2.98177
0.016901	2.65625
0.01162	2.20052
