Adsorption isotherm of Nitrogen on COF-PI-2@chitosan aerogel
DOI: 10.1021/acs.inorgchem.1c01975
Article source: Figure 5d
Adsorbate Nitrogen: InChIKey IJGRMHOSHXDMSA-UHFFFAOYSA-N
Kind: experiment
Temperature: 77 K
Tabular data in the source: 0
pressure (bar)	uptake (cm3(STP)/g)
0.888701	111.614
0.91936	110.985
0.940437	111.614
0.965347	108.472
0.98834	112.242
0.98834	112.242
1.00942	115.385
0.936605	75.1634
0.85996	103.444
0.836966	60.0804
0.808224	38.7129
0.911695	43.7406
0.888701	33.0568
0.861876	28.0292
0.827385	23.0015
0.808224	22.3731
0.764153	19.8592
0.744992	23.63
0.712417	17.9739
0.69134	19.2308
0.658766	17.9739
0.637688	16.7169
0.628108	16.7169
0.589785	16.0885
0.574456	16.0885
0.53805	16.0885
0.505475	16.7169
0.482482	13.5747
0.449908	17.9739
0.434578	12.9462
0.402004	16.7169
0.388591	13.5747
0.356017	17.3454
0.333024	11.0608
0.281288	10.4324
0.300449	16.0885
0.25063	16.0885
0.231469	9.80392
0.179733	6.66164
0.13183	5.40473
0.087759	3.51936
0.045604	1.63399
0.200811	15.46
0.181649	14.2031
0.160572	14.2031
0.14141	13.5747
0.120333	12.3177
0.099256	12.3177
0.080094	11.0608
0.07243	10.4324
0.032191	8.54701
0.011114	6.66164
0.007281	4.14781
