Adsorption isotherm of Nitrogen on COF-PI-2
DOI: 10.1021/acs.inorgchem.1c01975
Article source: Figure 2b
Adsorbate Nitrogen: InChIKey IJGRMHOSHXDMSA-UHFFFAOYSA-N
Kind: experiment
Temperature: 298 K
Tabular data in the source: 0
pressure (bar)	uptake (cm3(STP)/g)
1.19313	2.32496
1.19828	2.3202
1.11242	2.2441
1.02656	1.98725
0.947567	2.04433
0.880595	1.71613
0.810189	1.86358
0.71059	1.71138
0.748369	1.4688
0.609273	1.54015
0.521694	1.36891
0.550887	1.13109
0.640183	1.30708
0.470177	1.01218
0.449571	1.22146
0.403205	0.883752
0.384316	1.06925
0.327647	0.969368
0.349971	0.77911
0.284717	0.783866
0.293303	0.669711
0.253807	0.631659
0.241786	0.69825
0.207441	0.612633
0.21431	0.493721
0.186835	0.507991
0.154207	0.512747
0.155924	0.389079
0.131883	0.460426
0.106125	0.389079
0.1336	0.341514
0.12158	0.336758
0.095821	0.241629
0.073497	0.208333
0.064911	0.165525
0.082084	0.308219
0.05976	0.251142
0.039153	0.194064
0.030567	0.156012
0.016829	0.113204
0.054608	0.13223
0.04087	0.108447
0.021981	0.075152
