Adsorption isotherm of Nitrogen on COF-PI-2
DOI: 10.1021/acs.inorgchem.1c01975
Article source: Figure 1c/5d
Adsorbate Nitrogen: InChIKey IJGRMHOSHXDMSA-UHFFFAOYSA-N
Kind: experiment
Temperature: 77 K
Tabular data in the source: 0
pressure (bar)	uptake (cm3(STP)/g)
0.101325	86.5858
0.253312	98.6202
0.303975	101.154
0.354637	104.321
0.4053	106.854
0.455962	109.388
0.506625	111.921
0.557288	115.088
0.60795	117.622
0.658613	120.789
0.709275	123.322
0.759937	127.756
0.8106	132.19
0.861262	139.79
0.886594	143.591
0.911925	149.925
0.937256	157.525
0.962587	169.56
0.833134	135.495
0.984508	190.171
0.994089	203.997
0.996005	212.795
1.00558	228.507
1.0075	247.989
0.120333	88.9894
0.14141	90.8748
0.162488	92.7602
0.183565	94.6456
0.202727	96.5309
0.028359	73.9065
0.062849	81.448
0.076262	84.5902
0.011497	64.4796
0.011497	61.9658
0.009581	58.8235
0.007665	56.3097
0.005748	53.1674
0.003832	47.5113
0.003832	41.8552
0.003832	35.5706
0.001916	28.6576
0.001916	22.3731
0.001916	16.0885
0.050662	92.9099
0.101325	100.511
0.151987	104.944
0.253312	112.545
0.303975	115.078
0.4053	120.146
0.455962	123.312
0.506625	127.113
0.557288	129.646
0.60795	133.447
0.658613	135.98
0.709275	139.147
0.759937	143.581
0.8106	147.26
0.861262	154.228
0.911925	165.629
0.331107	117.898
0.198894	110.985
0.833134	151.081
0.886785	161.136
0.942353	178.733
0.951934	185.772
0.973011	207.139
0.990256	227.25
1.00367	247.989
