Adsorption isotherm of Carbon Dioxide on COF-PI-2
DOI: 10.1021/acs.inorgchem.1c01975
Article source: Figure 2a
Adsorbate Carbon Dioxide: InChIKey CURLTUGMZLYLDI-UHFFFAOYSA-N
Kind: experiment
Temperature: 298 K
Tabular data in the source: 0
pressure (bar)	uptake (cm3(STP)/g)
1.19472	33.1901
1.11549	32.5391
1.02218	29.8047
0.953521	30.1953
0.876056	26.9401
0.816197	27.7865
0.749296	24.3359
0.715845	26.0286
0.611972	24.2057
0.641901	21.9271
0.522183	21.9922
0.45	20.2344
0.472887	18.0208
0.550352	19.7786
0.384859	18.4115
0.328521	17.0443
0.344366	14.4401
0.404225	16.0026
0.296831	13.0078
0.280986	15.5469
0.240493	14.1146
0.251056	11.7057
0.217606	10.5339
0.207042	12.7474
0.182394	9.55729
0.175352	11.7708
0.148944	10.7943
0.157746	8.25521
0.127817	9.6224
0.110211	8.90625
0.133099	7.47396
0.113732	6.69271
0.097887	5.91146
0.082042	5.13021
0.073239	4.54427
0.059155	3.89323
0.050352	3.5026
0.041549	2.85156
0.027465	2.20052
0.015141	1.61458
0.097887	7.99479
0.082042	7.27865
0.069718	6.5625
0.059155	5.97656
0.050352	5.39062
0.041549	4.86979
0.034507	4.34896
0.025704	3.82812
0.020423	3.30729
0.015141	2.72135
0.01338	2.20052
