Adsorption isotherm of Nitrogen on COF-PI-1
DOI: 10.1021/acs.inorgchem.1c01975
Article source: Figure 1c
Adsorbate Nitrogen: InChIKey IJGRMHOSHXDMSA-UHFFFAOYSA-N
Kind: experiment
Temperature: 77 K
Tabular data in the source: 0
pressure (bar)	uptake (cm3(STP)/g)
0.101325	109.702
0.20265	119.629
0.253312	123.599
0.303975	126.247
0.354637	129.555
0.4053	132.864
0.455962	134.85
0.506625	138.159
0.557288	141.468
0.60795	144.115
0.658613	146.762
0.709275	150.733
0.759937	154.703
0.8106	158.674
0.861262	163.968
0.911925	171.91
0.962587	187.131
0.829355	162.668
0.882562	168.834
0.937431	179.484
0.985649	204.709
0.9923	212.556
0.997288	220.404
1.00228	233.857
1.0056	251.233
0.180902	118.386
0.160949	117.265
0.140997	115.022
0.122707	112.78
0.074489	107.735
0.059525	100.448
0.027933	89.2377
0.009976	77.4664
0.008314	71.861
0.008314	66.8161
0.004988	61.2108
0.004988	57.287
0.003325	50
0.003325	45.5157
0.003325	39.3498
0.003325	33.7444
0.001663	28.6996
0.003325	22.5336
0.001663	15.2466
0.050662	103.084
0.101325	117.643
0.151987	122.938
0.20265	126.908
0.253312	130.879
0.303975	134.188
0.455962	142.791
0.506625	152.056
0.557288	156.027
0.60795	158.674
0.658613	161.321
0.709275	163.968
0.759937	167.939
0.8106	171.91
0.400378	140.807
0.335533	136.323
0.836006	176.121
0.840994	176.682
0.86926	178.924
0.895863	182.287
0.919141	188.453
0.94907	197.982
0.978998	217.04
0.988975	231.054
1.00394	252.915
