Adsorption isotherm of Nitrogen on COF-PI-1
DOI: 10.1021/acs.inorgchem.1c01975
Article source: Figure 2b
Adsorbate Nitrogen: InChIKey IJGRMHOSHXDMSA-UHFFFAOYSA-N
Kind: experiment
Temperature: 298 K
Tabular data in the source: 0
pressure (bar)	uptake (cm3(STP)/g)
1.19828	2.19654
1.2	2.20605
1.1107	2.10141
1.02828	1.8731
0.952719	1.90639
0.810189	1.70662
0.708872	1.55441
0.750086	1.38318
0.878878	1.60673
0.877161	1.60673
0.607556	1.38794
0.521694	1.23097
0.550887	1.04547
0.640183	1.19768
0.46846	0.917047
0.447853	1.09779
0.382599	0.950342
0.404923	0.798135
0.34482	0.688737
0.327647	0.840944
0.277848	0.736301
0.291586	0.607877
0.252089	0.507991
0.238351	0.645928
0.205724	0.565068
0.216027	0.436644
0.15249	0.465183
0.1834	0.36054
0.155924	0.308219
0.130166	0.412861
0.107842	0.351027
0.131883	0.251142
0.112994	0.222603
0.097539	0.179795
0.082084	0.113204
0.05976	0.122717
0.051173	0.108447
0.039153	0.070396
0.078649	0.270167
0.058042	0.222603
0.042587	0.175038
0.034001	0.146499
0.027132	0.122717
0.023698	0.103691
0.016829	0.070396
0.00996	0.041857
