Adsorption isotherm of Nitrogen on chitosan aerogel
DOI: 10.1021/acs.inorgchem.1c01975
Article source: Figure 5d
Adsorbate Nitrogen: InChIKey IJGRMHOSHXDMSA-UHFFFAOYSA-N
Kind: experiment
Temperature: 77 K
Tabular data in the source: 0
pressure (bar)	uptake (cm3(STP)/g)
0.459739	3.30076
0.501795	3.43512
0.556297	3.36474
0.658649	3.64625
0.70886	3.64625
0.75907	3.64625
0.861422	3.76141
0.980676	4.14781
0.994089	4.77627
1.0075	4.77627
0.965347	4.14781
0.946185	4.14781
0.934689	4.77627
0.917443	4.14781
0.909779	4.14781
0.884869	3.51936
0.833134	3.51936
0.823553	4.14781
0.806308	3.51936
0.603198	4.14781
0.405837	3.51936
0.354101	4.14781
0.356017	4.14781
0.40392	4.14781
0.451824	3.51936
0.509308	4.77627
0.254462	2.8909
0.248714	2.8909
0.308114	3.51936
0.302365	3.51936
0.204643	2.8909
0.160572	2.8909
0.150991	2.8909
0.135662	2.8909
0.120333	2.8909
0.10692	2.8909
0.078178	2.8909
0.060933	2.26244
0.053268	1.63399
0.026443	2.26244
0.018778	2.26244
