Adsorption isotherm of Re(VII), Water on Dowex 21K
DOI: 10.1134/s1070427217080208
Article source: Figure 1
Adsorbate Re(VII): InChIKey MQUJLTPZKIQGAD-UHFFFAOYSA-N
Adsorbate Water: InChIKey XLYOFNOQVPJJNP-UHFFFAOYSA-N
Kind: experiment
Temperature: 290 K
Tabular data in the source: 0
pressure (bar)	Re(VII) fraction	Re(VII) uptake (mg/g)	Water fraction	Water uptake (mg/g)	total uptake (mg/g)
1.01325	0.1027	25.3643			
1.01325	0.4056	49.122			
1.01325	1.1978	73.3137			
1.01325	2.4042	97.2652			
1.01325	4.4943	120.928			
