Adsorption isotherm of Water, Molybdenum on Dowex 21K
DOI: 10.1134/s1070427217080208
Article source: Figure 1
Adsorbate Water: InChIKey XLYOFNOQVPJJNP-UHFFFAOYSA-N
Adsorbate Molybdenum: InChIKey ZOKXTWBITQBERF-UHFFFAOYSA-N
Kind: experiment
Temperature: 290 K
Tabular data in the source: 0
pressure (bar)	Water fraction	Water uptake (mg/g)	Molybdenum fraction	Molybdenum uptake (mg/g)	total uptake (mg/g)
1.01325			0.03965	24.4829	
1.01325			0.08993	49.4393	
1.01325			0.13132	75.4713	
1.01325			0.21194	100.546	
1.01325			0.38424	125.311	
