Adsorption isotherm of Nitrogen on A-CS700-3
DOI: 10.1016/j.fuel.2013.10.042
Article source: Figure 2
Adsorbate Nitrogen: InChIKey IJGRMHOSHXDMSA-UHFFFAOYSA-N
Kind: experiment
Temperature: 77 K
Tabular data in the source: 0
pressure (bar)	uptake (cm3(STP)/g)
0.003759	426.22
0.011278	446
0.018797	457.311
0.030075	479.924
0.045113	494.079
0.052632	513.858
0.075188	530.857
0.097744	542.211
0.109023	550.711
0.146617	562.107
0.199248	576.369
0.206767	576.39
0.300752	587.946
0.398496	599.512
0.496241	613.901
0.597744	619.832
0.703008	628.597
0.789474	634.486
0.808271	637.362
0.890977	643.241
0.902256	646.095
0.947368	651.868
0.954887	654.711
0.969925	657.576
0.981203	654.786
