Adsorption isotherm of Nitrogen on A-CS800-3
DOI: 10.1016/j.fuel.2013.10.042
Article source: Figure 2b
Adsorbate Nitrogen: InChIKey IJGRMHOSHXDMSA-UHFFFAOYSA-N
Kind: experiment
Temperature: 77 K
Tabular data in the source: 0
pressure (bar)	uptake (cm3(STP)/g)
0.00369	0.00369
0.00738	207.51
0.01107	340.316
0.01845	356.917
0.03321	373.518
0.04797	390.119
0.077491	401.186
0.081181	403.953
0.103321	412.253
0.151292	417.787
0.206642	423.32
0.298893	428.854
0.309963	428.854
0.398524	431.621
0.405904	434.387
0.501845	437.154
0.601476	437.154
0.704797	439.921
0.785978	439.921
0.800738	439.921
0.885609	442.688
0.896679	442.688
0.95203	442.688
0.98155	448.221
