Adsorption isotherm of Carbon Dioxide on A-CS700-3
DOI: 10.1016/j.fuel.2013.10.042
Article source: Figure 7b
Adsorbate Carbon Dioxide: InChIKey CURLTUGMZLYLDI-UHFFFAOYSA-N
Kind: experiment
Temperature: 273 K
Tabular data in the source: 0
pressure (bar)	uptake (cm3(STP)/g)
0.923958	129.508
2.00669	181.967
2.78013	218.033
3.86421	242.623
4.94869	259.016
5.87821	273.77
6.80789	285.246
7.89268	295.082
8.97763	301.639
10.0626	308.197
11.9227	316.393
13.9378	322.951
15.9532	326.23
17.9685	329.508
20.139	331.148
24.9447	340.984
30.0603	355.738
33.0053	370.492
35.0199	388.525
