Adsorption isotherm of Carbon Dioxide on A-CS850-3
DOI: 10.1016/j.fuel.2013.10.042
Article source: Figure 7b
Adsorbate Carbon Dioxide: InChIKey CURLTUGMZLYLDI-UHFFFAOYSA-N
Kind: experiment
Temperature: 273 K
Tabular data in the source: 0
pressure (bar)	uptake (cm3(STP)/g)
0.924434	119.672
2.0078	159.016
2.78196	180.328
4.02164	193.443
4.95155	200
5.88147	206.557
6.96642	213.115
7.89649	216.393
8.98168	218.033
10.0669	219.672
12.0822	222.951
14.0976	224.59
16.1131	226.23
17.9735	227.869
20.1438	231.148
24.9496	240.984
30.065	259.016
33.0099	275.41
35.0243	298.361
