Adsorption isotherm of Carbon Dioxide on A-CS800-3
DOI: 10.1016/j.fuel.2013.10.042
Article source: Figure 9a
Adsorbate Carbon Dioxide: InChIKey CURLTUGMZLYLDI-UHFFFAOYSA-N
Kind: experiment
Temperature: 273 K
Tabular data in the source: 0
pressure (bar)	uptake (cm3(STP)/g)
0.023438	10.4089
0.035156	13.5316
0.050781	16.6543
0.070312	21.8587
0.105469	29.145
0.164062	39.0335
0.214844	47.881
0.261719	54.6468
0.324219	62.4535
0.421875	74.4238
0.527344	85.8736
0.636719	96.803
0.742188	106.691
0.855469	116.059
0.960938	124.907
1.01172	128.55
1.05469	132.193
