Adsorption isotherm of Carbon Dioxide on A-CS700-3
DOI: 10.1016/j.fuel.2013.10.042
Article source: Figure 7a
Adsorbate Carbon Dioxide: InChIKey CURLTUGMZLYLDI-UHFFFAOYSA-N
Kind: experiment
Temperature: 273 K
Tabular data in the source: 0
pressure (bar)	uptake (cm3(STP)/g)
0.319666	60.5818
0.527287	87.0545
0.64255	98.7636
0.75015	110.473
0.857722	121.164
0.969098	130.836
1.01519	134.909
