Adsorption isotherm of Nitrogen on A-CS800-2
DOI: 10.1016/j.fuel.2013.10.042
Article source: Figure 2b
Adsorbate Nitrogen: InChIKey IJGRMHOSHXDMSA-UHFFFAOYSA-N
Kind: experiment
Temperature: 77 K
Tabular data in the source: 0
pressure (bar)	uptake (cm3(STP)/g)
0.01107	265.613
0.02583	276.68
0.04059	287.747
0.070111	296.047
0.103321	298.814
0.147601	301.581
0.202952	307.115
0.302583	309.881
0.402214	309.881
0.501845	312.648
0.601476	312.648
0.686347	312.648
0.701107	312.648
0.782288	315.415
0.800738	312.648
0.885609	315.415
0.900369	315.415
0.944649	312.648
0.96679	315.415
0.98524	315.415
