Adsorption isotherm of Carbon Dioxide on A-CS750-3
DOI: 10.1016/j.fuel.2013.10.042
Article source: Figure 7a
Adsorbate Carbon Dioxide: InChIKey CURLTUGMZLYLDI-UHFFFAOYSA-N
Kind: experiment
Temperature: 273 K
Tabular data in the source: 0
pressure (bar)	uptake (cm3(STP)/g)
0.065677	19.8545
0.108032	27.4909
0.273521	54.4727
0.63869	97.7455
0.75008	107.927
0.86147	118.109
0.969	127.273
1.01509	131.345
1.06502	135.927
