Adsorption isotherm of Nitrogen on A-CS850-3
DOI: 10.1016/j.fuel.2013.10.042
Article source: Figure 2
Adsorbate Nitrogen: InChIKey IJGRMHOSHXDMSA-UHFFFAOYSA-N
Kind: experiment
Temperature: 77 K
Tabular data in the source: 0
pressure (bar)	uptake (cm3(STP)/g)
0	302.016
0.015038	321.817
0.026316	333.139
0.041353	344.472
0.075188	355.857
0.086466	358.712
0.101504	364.399
0.150376	370.183
0.203008	375.976
0.300752	381.897
0.398496	384.996
0.5	388.105
0.601504	388.391
0.703008	391.5
0.789474	391.744
0.800752	391.776
0.883459	392.01
0.898496	392.052
0.947368	395.013
0.958647	395.045
0.981203	395.108
