Adsorption isotherm of Nitrogen on A-CS750-3
DOI: 10.1016/j.fuel.2013.10.042
Article source: Figure 2
Adsorbate Nitrogen: InChIKey IJGRMHOSHXDMSA-UHFFFAOYSA-N
Kind: experiment
Temperature: 77 K
Tabular data in the source: 0
pressure (bar)	uptake (cm3(STP)/g)
0.007519	0.007519
0.018797	409.327
0.033835	426.305
0.06391	446.148
0.078947	454.658
0.090226	463.158
0.109023	466.034
0.157895	474.639
0.199248	480.401
0.214286	480.444
0.293233	489.134
0.31203	489.187
0.398496	492.254
0.496241	498.175
0.601504	498.472
0.703008	501.581
0.785714	504.637
0.800752	504.68
0.890977	504.934
0.898496	504.955
0.951128	510.749
0.969925	510.802
0.981203	513.657
