Adsorption isotherm of Nitrogen on A-CS800-4
DOI: 10.1016/j.fuel.2013.10.042
Article source: Figure 2b
Adsorbate Nitrogen: InChIKey IJGRMHOSHXDMSA-UHFFFAOYSA-N
Kind: experiment
Temperature: 77 K
Tabular data in the source: 0
pressure (bar)	uptake (cm3(STP)/g)
0.00369	0.00369
0.00738	121.739
0.01476	381.818
0.02583	401.186
0.0369	420.553
0.05166	434.387
0.070111	448.221
0.077491	456.522
0.103321	467.589
0.154982	473.123
0.202952	484.19
0.217712	484.19
0.298893	492.49
0.321033	489.723
0.398524	498.024
0.501845	500.791
0.601476	503.557
0.701107	506.324
0.782288	509.091
0.800738	506.324
0.881919	509.091
0.900369	506.324
0.944649	511.858
0.9631	511.858
0.98155	514.625
