Adsorption isotherm of Carbon Dioxide on A-CS800-3
DOI: 10.1016/j.fuel.2013.10.042
Article source: Figure 7a
Adsorbate Carbon Dioxide: InChIKey CURLTUGMZLYLDI-UHFFFAOYSA-N
Kind: experiment
Temperature: 273 K
Tabular data in the source: 0
pressure (bar)	uptake (cm3(STP)/g)
0.046423	16.2909
0.065691	20.3636
0.108074	29.0182
0.158147	38.6909
0.215869	47.8545
0.258182	53.9636
0.323553	62.6182
0.42349	74.3273
0.523413	85.5273
0.634817	96.2182
0.750052	106.909
0.861414	116.073
0.965085	124.218
1.01501	128.291
1.06108	131.855
