Adsorption isotherm of Carbon Dioxide on A-CS900-3
DOI: 10.1016/j.fuel.2013.10.042
Article source: Figure 7b
Adsorbate Carbon Dioxide: InChIKey CURLTUGMZLYLDI-UHFFFAOYSA-N
Kind: experiment
Temperature: 273 K
Tabular data in the source: 0
pressure (bar)	uptake (cm3(STP)/g)
0.924911	109.836
1.85371	139.344
2.93811	157.377
3.86779	168.852
4.9529	172.131
6.03785	178.689
6.96793	181.967
7.58808	181.967
8.36328	181.967
8.98335	183.607
10.0685	185.246
12.084	185.246
14.0996	185.246
16.1151	185.246
18.2855	186.885
19.9909	186.885
24.9519	191.803
30.2226	204.918
33.0128	216.393
35.0274	234.426
