Adsorption isotherm of Carbon Dioxide on A-CS800-3
DOI: 10.1016/j.fuel.2013.10.042
Article source: Figure 7b
Adsorbate Carbon Dioxide: InChIKey CURLTUGMZLYLDI-UHFFFAOYSA-N
Kind: experiment
Temperature: 273 K
Tabular data in the source: 0
pressure (bar)	uptake (cm3(STP)/g)
2.00772	160.656
2.93684	183.607
4.02124	201.639
5.10587	214.754
5.88067	222.951
6.81074	226.23
7.8957	232.787
8.98081	236.066
10.066	237.705
12.0813	242.623
14.0967	244.262
16.1121	245.902
18.1275	247.541
19.9879	249.18
24.9488	257.377
30.0643	273.77
33.0094	286.885
34.8689	306.557
