Adsorption isotherm of Nitrogen on A-CS900-3
DOI: 10.1016/j.fuel.2013.10.042
Article source: Figure 2
Adsorbate Nitrogen: InChIKey IJGRMHOSHXDMSA-UHFFFAOYSA-N
Kind: experiment
Temperature: 77 K
Tabular data in the source: 0
pressure (bar)	uptake (cm3(STP)/g)
0	0
0.003759	254.043
0.007519	273.812
0.022556	296.435
0.048872	307.799
0.082707	319.185
0.101504	322.061
0.157895	327.865
0.203008	327.992
0.304511	333.924
0.402256	337.022
0.5	337.298
0.597744	340.397
0.68797	337.829
0.793233	340.949
0.887218	338.391
0.951128	341.394
0.977444	341.469
