Adsorption isotherm of Carbon Dioxide on A-CS800-2
DOI: 10.1016/j.fuel.2013.10.042
Article source: Figure 9a
Adsorbate Carbon Dioxide: InChIKey CURLTUGMZLYLDI-UHFFFAOYSA-N
Kind: experiment
Temperature: 273 K
Tabular data in the source: 0
pressure (bar)	uptake (cm3(STP)/g)
0.011719	3.12268
0.015625	4.68401
0.023438	6.7658
0.03125	8.32714
0.035156	9.88848
0.042969	10.9294
0.046875	12.4907
0.070312	18.7361
0.105469	25.5019
0.152344	33.829
0.210938	43.197
0.265625	51.0037
0.316406	57.2491
0.421875	70.2602
0.53125	81.71
0.644531	92.6394
0.75	102.528
0.851562	111.375
0.964844	120.743
1.01562	124.907
1.05469	128.03
