Adsorption isotherm of Carbon Dioxide on A-CS750-3
DOI: 10.1016/j.fuel.2013.10.042
Article source: Figure 7b
Adsorbate Carbon Dioxide: InChIKey CURLTUGMZLYLDI-UHFFFAOYSA-N
Kind: experiment
Temperature: 273 K
Tabular data in the source: 0
pressure (bar)	uptake (cm3(STP)/g)
1.07931	122.951
2.00732	168.852
2.93613	198.361
3.86541	218.033
4.79492	232.787
6.03468	244.262
6.96451	252.459
8.04963	255.738
8.97954	262.295
9.90961	265.574
12.08	268.852
14.0953	272.131
15.9556	275.41
18.1261	277.049
19.9864	280.328
24.9473	288.525
30.0627	306.557
33.0077	321.311
35.0222	342.623
