Adsorption isotherm of Carbon Dioxide on A-CS850-3
DOI: 10.1016/j.fuel.2013.10.042
Article source: Figure 7a
Adsorbate Carbon Dioxide: InChIKey CURLTUGMZLYLDI-UHFFFAOYSA-N
Kind: experiment
Temperature: 273 K
Tabular data in the source: 0
pressure (bar)	uptake (cm3(STP)/g)
0.046395	15.2727
0.069509	19.8545
0.104187	26.9818
0.161923	36.6545
0.208123	44.8
0.265803	52.4364
0.319624	59.0545
0.427224	70.7636
0.538628	81.4545
0.646186	91.6364
0.746012	99.2727
0.857332	106.909
0.957172	115.055
1.02242	119.127
1.05696	121.164
