Adsorption isotherm of Carbon Dioxide on A-CS900-3
DOI: 10.1016/j.fuel.2013.10.042
Article source: Figure 7a
Adsorbate Carbon Dioxide: InChIKey CURLTUGMZLYLDI-UHFFFAOYSA-N
Kind: experiment
Temperature: 273 K
Tabular data in the source: 0
pressure (bar)	uptake (cm3(STP)/g)
0.007732	2.54545
0.01931	5.6
0.023197	7.63636
0.023239	9.16364
0.038635	11.7091
0.042536	14.2545
0.069495	19.3455
0.100327	25.9636
0.158063	35.6364
0.211912	43.2727
0.261902	49.8909
0.315709	56
0.42714	67.7091
0.530839	76.8727
0.63837	86.0364
0.74969	93.6727
0.857179	101.309
0.956963	107.418
1.01452	110.473
1.05675	113.527
