Adsorption isotherm of Carbon Dioxide on A-CS800-4
DOI: 10.1016/j.fuel.2013.10.042
Article source: Figure 9b
Adsorbate Carbon Dioxide: InChIKey CURLTUGMZLYLDI-UHFFFAOYSA-N
Kind: experiment
Temperature: 273 K
Tabular data in the source: 0
pressure (bar)	uptake (cm3(STP)/g)
0.90566	127.66
1.96226	173.617
2.86792	204.255
3.92453	226.383
4.83019	241.702
5.88679	253.617
6.79245	260.426
8	268.936
8.90566	274.043
9.96226	277.447
12.0755	284.255
14.0377	289.362
15.8491	289.362
17.9623	292.766
19.9245	296.17
24.9057	306.383
29.8868	323.404
32.7547	338.723
34.8679	357.447
