Adsorption isotherm of Carbon Dioxide on A-CS800-4
DOI: 10.1016/j.fuel.2013.10.042
Article source: Figure 9a
Adsorbate Carbon Dioxide: InChIKey CURLTUGMZLYLDI-UHFFFAOYSA-N
Kind: experiment
Temperature: 273 K
Tabular data in the source: 0
pressure (bar)	uptake (cm3(STP)/g)
0.074219	21.3383
0.097656	28.6245
0.160156	41.1152
0.210938	49.9628
0.265625	58.29
0.320312	66.6171
0.425781	81.1896
0.539062	94.7212
0.632812	105.13
0.75	117.1
0.847656	125.428
0.960938	133.755
1.01562	137.398
