Adsorption isotherm of Carbon Dioxide on A-CS800-2
DOI: 10.1016/j.fuel.2013.10.042
Article source: Figure 9b
Adsorbate Carbon Dioxide: InChIKey CURLTUGMZLYLDI-UHFFFAOYSA-N
Kind: experiment
Temperature: 273 K
Tabular data in the source: 0
pressure (bar)	uptake (cm3(STP)/g)
0.90566	119.149
1.96226	160
2.86792	185.532
3.77358	200.851
4.83019	214.468
5.88679	222.979
6.9434	226.383
8	233.191
8.90566	234.894
9.96226	238.298
12.0755	241.702
14.0377	243.404
16	245.106
17.9623	246.809
19.9245	250.213
24.9057	258.723
29.8868	274.043
32.9057	287.66
34.8679	306.383
