Adsorption isotherm of Nitrogen on A-CS800-3
DOI: 10.1016/j.fuel.2013.10.042
Article source: Figure 2
Adsorbate Nitrogen: InChIKey IJGRMHOSHXDMSA-UHFFFAOYSA-N
Kind: experiment
Temperature: 77 K
Tabular data in the source: 0
pressure (bar)	uptake (cm3(STP)/g)
0	341.522
0.015038	358.51
0.030075	372.666
0.045113	392.466
0.067669	400.997
0.082707	406.685
0.101504	409.561
0.150376	418.166
0.203008	423.96
0.210526	423.981
0.304511	429.892
0.31203	429.913
0.402256	435.813
0.5	438.911
0.601504	439.198
0.703008	439.484
0.781955	442.53
0.800752	442.583
0.887218	445.649
0.894737	442.848
0.951128	448.652
0.981203	448.737
