Adsorption isotherm of Nitrogen on MOF-74-Ni
DOI: 10.1016/j.micromeso.2012.07.008
Adsorbate Nitrogen: InChIKey IJGRMHOSHXDMSA-UHFFFAOYSA-N
Temperature: 77 K
Tabular data in the source: 0
pressure (bar)	uptake (cm3(STP)/g)
0.00218035	41.9614
0.00232836	68.5697
0.00273255	141.231
0.00290334	171.933
0.00310259	207.752
0.00321644	228.22
0.00334169	250.735
0.00347831	275.296
0.00360356	297.811
0.00442332	95.1801
0.00455426	118.718
0.00559604	306
0.0095184	311.121
0.023147	311.135
0.0348401	313.195
0.0562679	315.264
0.103	316.337
0.165314	318.449
0.192571	318.478
0.210094	318.496
0.243197	319.554
0.334704	319.651
0.412593	321.78
0.439856	322.832
0.492423	322.887
0.541103	323.962
0.587824	322.988
0.636509	325.086
0.685182	325.137
0.733862	326.212
0.782535	326.263
0.825385	329.378
0.868224	330.447
0.91692	334.592
0.940301	337.686
0.965622	339.76
