Adsorption isotherm of Nitrogen on SIM_0.05g_1kN
DOI: 10.1016/j.powtec.2013.09.013
Adsorbate Nitrogen: InChIKey IJGRMHOSHXDMSA-UHFFFAOYSA-N
Temperature: 77 K
Tabular data in the source: 0
pressure (bar)	uptake (ml/g)
0.00606199	91.1346
0.0226268	99.4765
0.0538518	104.769
0.0703794	107.035
0.0869024	108.542
0.116269	110.038
0.134618	110.024
0.176829	111.511
0.197017	112.255
0.204361	113.009
0.208031	113.007
0.219035	112.239
0.22454	112.235
0.248397	112.976
0.261246	113.726
0.275925	113.714
0.301617	114.454
0.347484	113.66
0.358498	114.411
0.384191	115.151
0.398865	114.381
0.406204	114.375
0.424553	114.361
0.461259	115.852
0.483273	115.076
0.505296	115.819
0.536493	116.555
0.575025	116.525
0.611717	115.738
0.642914	116.474
0.677776	116.447
0.710813	117.941
0.773207	119.413
0.815432	123.178
0.868671	127.695
0.914552	129.179
0.953107	132.947
0.973337	140.527
0.978925	154.193
0.991843	166.335
0.991899	175.449
0.997515	193.673
0.997547	198.989
