Adsorption isotherm of Nitrogen on ZIF-8
DOI: 10.1016/j.powtec.2013.09.013
Adsorbate Nitrogen: InChIKey IJGRMHOSHXDMSA-UHFFFAOYSA-N
Temperature: 77 K
Tabular data in the source: 0
pressure (bar)	uptake (ml/g)
0	0
0.003663	296.977
0.00732601	335.368
0.010989	341.436
0.021978	353.58
0.025641	371.769
0.029304	387.938
0.03663	402.094
0.040293	408.162
0.043956	414.23
0.0732601	416.31
0.10989	418.404
0.14652	420.498
0.175824	422.577
0.208791	422.644
0.245421	422.718
0.282051	424.812
0.318681	424.886
0.351648	424.953
0.40293	427.077
0.443223	429.178
0.487179	429.267
0.527473	431.369
0.564103	431.443
0.622711	433.581
0.655678	433.648
0.688645	433.714
0.717949	435.794
0.747253	437.873
0.765568	437.91
0.798535	439.997
0.835165	444.111
0.860806	446.183
0.904762	454.353
0.923077	460.451
0.945055	472.616
0.959707	486.787
0.970696	500.951
0.974359	525.201
0.981685	537.337
0.989011	543.412
