Adsorption isotherm of Nitrogen on HKUST
DOI: 10.1016/j.powtec.2013.09.013
Adsorbate Nitrogen: InChIKey IJGRMHOSHXDMSA-UHFFFAOYSA-N
Temperature: 77 K
Tabular data in the source: 0
pressure (bar)	uptake (ml/g)
0.00593472	452.941
0.0178042	458.824
0.0326409	462.745
0.0563798	466.667
0.074184	474.51
0.0979228	478.431
0.11276	482.353
0.136499	488.235
0.15727	490.196
0.175074	492.157
0.20178	494.118
0.234421	496.078
0.272997	498.039
0.311573	500
0.347181	501.961
0.388724	503.922
0.424332	501.961
0.456973	501.961
0.48368	503.922
0.501484	503.922
0.531157	503.922
0.560831	503.922
0.596439	507.843
0.623145	505.882
0.649852	505.882
0.670623	505.882
0.697329	505.882
0.718101	507.843
0.738872	507.843
0.762611	505.882
0.78635	505.882
0.813056	505.882
0.845697	505.882
0.875371	507.843
0.89911	507.843
0.922849	509.804
0.940653	509.804
0.958457	509.804
0.982196	511.765
0.994065	513.725
