Adsorption isotherm of Nitrogen on SIM_.03g_.5kN
DOI: 10.1016/j.powtec.2013.09.013
Adsorbate Nitrogen: InChIKey IJGRMHOSHXDMSA-UHFFFAOYSA-N
Temperature: 77 K
Tabular data in the source: 0
pressure (bar)	uptake (ml/g)
0.00365631	107.789
0.00548446	113.065
0.0109689	119.849
0.023766	123.618
0.0621572	128.894
0.0804388	132.663
0.100548	133.417
0.122486	134.171
0.146252	134.925
0.162706	137.94
0.184644	137.186
0.201097	137.94
0.210238	137.94
0.301645	140.955
0.33638	140.201
0.358318	141.709
0.383912	141.709
0.402194	141.709
0.429616	143.97
0.446069	143.97
0.482633	143.216
0.491773	143.216
0.541133	144.724
0.564899	144.724
0.572212	144.724
0.603291	146.985
0.608775	146.985
0.616088	146.985
0.621572	146.985
0.648995	147.739
0.678245	149.246
0.694698	149.246
0.700183	149.246
0.716636	150
0.736746	151.508
0.760512	152.261
0.776965	153.769
0.804388	155.276
0.844607	159.045
0.875686	161.307
0.897623	162.06
0.952468	166.583
0.983547	186.935
0.987203	194.472
0.989031	198.241
0.990859	207.286
0.994516	216.332
0.996344	275.126
