Adsorption isotherm of Nitrogen on SIM_.05g_5kN
DOI: 10.1016/j.powtec.2013.09.013
Adsorbate Nitrogen: InChIKey IJGRMHOSHXDMSA-UHFFFAOYSA-N
Temperature: 77 K
Tabular data in the source: 0
pressure (bar)	uptake (ml/g)
0.00366972	83.1262
0.012844	88.4228
0.0256881	92.2108
0.040367	93.7333
0.0697248	96.7781
0.0899083	98.3047
0.113761	99.8341
0.13211	101.359
0.148624	100.616
0.174312	102.147
0.207339	102.927
0.256881	103.721
0.300917	104.51
0.346789	106.056
0.4	106.096
0.427523	107.628
0.458716	107.651
0.513761	106.182
0.53945	106.957
0.559633	106.972
0.605505	107.007
0.669725	108.567
0.754128	110.142
0.80367	110.179
0.838532	112.472
0.878899	114.77
0.908257	116.303
0.943119	120.108
0.976147	130.712
0.987156	137.522
0.992661	143.571
