Adsorption isotherm of Nitrogen on SIM-1
DOI: 10.1016/j.powtec.2013.09.013
Adsorbate Nitrogen: InChIKey IJGRMHOSHXDMSA-UHFFFAOYSA-N
Temperature: 77 K
Tabular data in the source: 0
pressure (bar)	uptake (ml/g)
0	0
0.00373134	73.4266
0.00746269	95.9441
0.0186567	98.8811
0.0335821	103.287
0.0485075	105.734
0.0783582	108.182
0.11194	111.119
0.156716	112.098
0.201493	114.545
0.242537	115.524
0.279851	115.524
0.33209	116.503
0.373134	116.993
0.402985	117.483
0.436567	117.972
0.473881	118.462
0.503731	118.462
0.537313	118.951
0.563433	118.951
0.597015	119.441
0.630597	119.93
0.649254	119.93
0.679104	120.42
0.720149	120.42
0.761194	120.909
0.794776	121.888
0.828358	121.888
0.869403	122.867
0.906716	123.846
0.936567	124.825
0.966418	126.783
0.981343	129.72
0.992537	133.147
