Adsorption isotherm of Hydrogen on IRMOF-1
DOI: 10.1103/Physrevb.77.224301
Adsorbate Hydrogen: InChIKey UFHFLCQGNIYNRP-UHFFFAOYSA-N
Temperature: 77 K
Tabular data in the source: 0
pressure (bar)	uptake (mmol/g)
0.00619484	0.0848951
0.0389679	0.416996
0.0804806	0.888929
0.159136	1.64053
0.25527	2.42708
0.360144	3.17868
0.508716	4.00019
0.60922	4.59447
0.812413	5.55582
0.995943	6.34237
