Adsorption isotherm of Deuterium on IRMOF-1
DOI: 10.1103/Physrevb.77.224301
Adsorbate Deuterium: InChIKey UFHFLCQGNIYNRP-VVKOMZTBSA-N
Temperature: 77 K
Tabular data in the source: 0
pressure (bar)	uptake (mmol/g)
0.0149343	0.364559
0.0433377	0.591786
0.0630016	0.853971
0.124178	1.51817
0.200649	2.28725
0.294598	3.0738
0.406027	3.89532
0.502161	4.50708
0.711909	5.69565
1.00031	7.00658
