Adsorption isotherm of Methane on MOF-74-Ni
DOI: 10.1016/j.ces.2014.07.008
Adsorbate Methane: InChIKey VNWKTOKETHGBQD-UHFFFAOYSA-N
Temperature: 348 K
Tabular data in the source: 0
pressure (bar)	uptake (mmol/g)
0.324694	0.119144
0.517054	0.252126
0.704887	0.28786
0.920847	0.356485
1.49114	0.609559
2.1679	0.864529
3.08573	1.15618
4.89024	1.64177
7.33811	2.23598
10.291	2.823
