Adsorption isotherm of Propene on MOF-74-Ni
DOI: 10.1016/j.ces.2014.07.008
Adsorbate Propene: InChIKey QQONPFPTGQHPMA-UHFFFAOYSA-N
Temperature: 348 K
Tabular data in the source: 0
pressure (bar)	uptake (mmol/g)
0.0137144	1.52643
0.0591628	2.66367
0.111343	3.14608
0.218225	3.58665
0.317028	3.81301
0.417936	3.97409
0.520951	4.06987
0.61912	4.14862
0.717289	4.22736
0.817845	4.30642
0.918261	4.35267
1.02106	4.39925
1.11425	4.42814
