Adsorption isotherm of N-propane on MOF-74-Ni
DOI: 10.1016/j.ces.2014.07.008
Adsorbate N-propane: InChIKey ATUOYWHBWRKTHZ-UHFFFAOYSA-N
Temperature: 298 K
Tabular data in the source: 0
pressure (bar)	uptake (mmol/g)
0.0131219	1.13115
0.0626036	2.66537
0.110228	3.16946
0.211836	3.58041
0.316754	3.72597
0.410536	3.80375
0.512889	3.84934
0.610956	3.91102
0.711199	3.97296
0.817706	3.96922
0.915513	3.96442
1.01352	4.00949
1.1158	4.03845
