Adsorption isotherm of Methane on MOF-74-Ni
DOI: 10.1016/j.ces.2014.07.008
Adsorbate Methane: InChIKey VNWKTOKETHGBQD-UHFFFAOYSA-N
Temperature: 323 K
Tabular data in the source: 0
pressure (bar)	uptake (mmol/g)
0.306374	0.296956
0.495716	0.365106
0.846274	0.468517
1.44846	0.835519
2.18223	1.17248
3.21257	1.59569
4.99952	2.2753
7.42529	2.96628
10.4359	3.65149
