Adsorption isotherm of Propene on MOF-74-Ni
DOI: 10.1016/j.ces.2014.07.008
Adsorbate Propene: InChIKey QQONPFPTGQHPMA-UHFFFAOYSA-N
Temperature: 323 K
Tabular data in the source: 0
pressure (bar)	uptake (mmol/g)
0.0170256	2.29737
0.062474	3.43461
0.119007	3.81924
0.215563	4.07809
0.31893	4.25589
0.422085	4.38448
0.517726	4.4301
0.618212	4.49276
0.721156	4.57214
0.821501	4.60199
0.921776	4.61544
1.0198	4.66137
1.12261	4.70795
