Adsorption isotherm of Carbon Dioxide on MOF-74-Ni
DOI: 10.1016/j.ces.2014.07.008
Adsorbate Carbon Dioxide: InChIKey CURLTUGMZLYLDI-UHFFFAOYSA-N
Temperature: 298 K
Tabular data in the source: 0
pressure (bar)	uptake (mmol/g)
0.429474	3.02146
0.978888	4.29185
1.52281	4.90987
1.65836	5.01288
1.7939	5.11588
2.06529	5.35622
2.84461	5.93991
4.90455	6.66094
7.50061	7.07296
10.5335	7.38197
