Adsorption isotherm of Carbon Dioxide on MOF-74-Ni
DOI: 10.1016/j.ces.2014.07.008
Adsorbate Carbon Dioxide: InChIKey CURLTUGMZLYLDI-UHFFFAOYSA-N
Temperature: 348 K
Tabular data in the source: 0
pressure (bar)	uptake (mmol/g)
0.418202	1.6824
0.691319	2.12876
0.862271	2.43777
0.964437	2.57511
1.43929	2.98712
2.21832	3.53648
3.33406	4.08584
5.19111	4.70386
7.41767	5.21888
10.2491	5.59657
