Adsorption isotherm of Carbon Dioxide on MOF-74-Ni
DOI: 10.1016/j.ces.2014.07.008
Adsorbate Carbon Dioxide: InChIKey CURLTUGMZLYLDI-UHFFFAOYSA-N
Temperature: 323 K
Tabular data in the source: 0
pressure (bar)	uptake (mmol/g)
0.457074	2.30043
0.834959	3.19313
1.31039	3.67382
1.37888	3.81116
1.61631	4.01717
2.09115	4.42918
3.07192	4.94421
5.06423	5.6309
7.59295	6.04292
10.5594	6.45494
