Adsorption isotherm of Propene on MOF-74-Ni
DOI: 10.1016/j.ces.2014.07.008
Adsorbate Propene: InChIKey QQONPFPTGQHPMA-UHFFFAOYSA-N
Temperature: 298 K
Tabular data in the source: 0
pressure (bar)	uptake (mmol/g)
0.0231469	3.16704
0.0620592	3.89357
0.115641	4.14666
0.21936	4.40647
0.31774	4.53442
0.423212	4.64693
0.526086	4.70991
0.621797	4.77193
0.717508	4.83394
0.815607	4.89628
0.923044	4.91069
1.02353	4.97335
1.12142	4.98648
