Adsorption isotherm of Methane on MOF-74-Ni
DOI: 10.1016/j.ces.2014.07.008
Adsorbate Methane: InChIKey VNWKTOKETHGBQD-UHFFFAOYSA-N
Temperature: 298 K
Tabular data in the source: 0
pressure (bar)	uptake (mmol/g)
0.253139	0.296007
0.583113	0.528606
0.804354	0.710685
1.05146	0.87703
1.52056	1.24166
2.15087	1.64155
3.13325	2.17727
5.05631	2.92408
7.42809	3.59791
10.4585	4.13772
