Adsorption isotherm of N-propane on MOF-74-Ni
DOI: 10.1016/j.ces.2014.07.008
Adsorbate N-propane: InChIKey ATUOYWHBWRKTHZ-UHFFFAOYSA-N
Temperature: 348 K
Tabular data in the source: 0
pressure (bar)	uptake (mmol/g)
0.00724017	0.183599
0.0501898	0.60407
0.128589	1.19494
0.206403	1.63623
0.303596	2.03003
0.406793	2.29167
0.512166	2.55357
0.606274	2.71444
0.706841	2.85948
0.811629	2.97181
0.907716	3.08308
1.0102	3.16191
1.11505	3.29085
