Adsorption isotherm of N-propane on MOF-74-Ni
DOI: 10.1016/j.ces.2014.07.008
Adsorbate N-propane: InChIKey ATUOYWHBWRKTHZ-UHFFFAOYSA-N
Temperature: 323 K
Tabular data in the source: 0
pressure (bar)	uptake (mmol/g)
0.00815061	0.416267
0.0554213	1.38543
0.123856	2.20765
0.215045	2.73362
0.311978	3.06095
0.41498	3.27272
0.517788	3.43465
0.611635	3.52904
0.714118	3.60787
0.812185	3.66955
0.912363	3.71487
1.01254	3.7602
1.11278	3.82214
