Adsorption isotherm of Nitrogen on CuPc-COF
DOI: 10.1039/c2cc33929c
Article source: Figure 3
Adsorbate Nitrogen: InChIKey IJGRMHOSHXDMSA-UHFFFAOYSA-N
Kind: experiment
Temperature: 77 K
Tabular data in the source: 0
pressure (bar)	uptake (cm3(STP)/g)
0.016604	194.226
0.008542	63.0951
0.009343	43.7585
0.038386	258.881
0.052907	298.555
0.08921	341.169
0.15215	358.969
0.189255	365.009
0.224206	369.417
0.26454	373.496
0.305951	375.457
0.365112	379.374
0.415936	382.312
0.459499	382.312
0.517584	388.925
0.561148	391.129
0.619232	395.537
0.662796	399.946
0.71362	402.884
0.764444	408.762
0.808007	413.17
0.866092	424.191
0.909656	444.028
0.953219	481.499
0.982261	541.01
0.008612	26.1438
0.054901	316.34
0.117338	351.634
