Adsorption isotherm of Nitrogen on ZnPc-COF
DOI: 10.1039/c2cc33929c
Article source: Figure 3
Adsorbate Nitrogen: InChIKey IJGRMHOSHXDMSA-UHFFFAOYSA-N
Kind: experiment
Temperature: 77 K
Tabular data in the source: 0
pressure (bar)	uptake (cm3(STP)/g)
0.016604	160.429
0.045646	228.023
0.08921	245.656
0.132773	255.942
0.176337	263.289
0.2199	264.759
0.263464	267.697
0.307027	267.697
0.365112	267.697
0.415936	267.697
0.46676	267.697
0.517584	267.697
0.568408	269.167
0.611972	269.167
0.670056	269.167
0.71362	269.167
0.764444	267.697
0.815268	267.697
0.866092	267.697
0.916916	270.636
0.96048	273.575
0.996783	280.922
