Adsorption isotherm of Nitrogen on CoPc-COF
DOI: 10.1039/c2cc33929c
Article source: Figure 3
Adsorbate Nitrogen: InChIKey IJGRMHOSHXDMSA-UHFFFAOYSA-N
Kind: experiment
Temperature: 77 K
Tabular data in the source: 0
pressure (bar)	uptake (cm3(STP)/g)
0.009343	25.2424
0.031125	106.061
0.060167	138.388
0.103731	147.205
0.147294	153.082
0.190858	156.021
0.234421	161.899
0.277985	161.899
0.314288	166.307
0.357851	168.511
0.415936	170.715
0.459499	172.92
0.517584	177.328
0.561148	179.532
0.611972	183.94
0.662796	188.349
0.706359	190.553
0.764444	197.165
0.808007	197.165
0.866092	203.777
0.909656	212.594
0.96048	226.554
0.996783	267.697
0.989522	241.248
0.009688	41.8301
0.010765	92.8105
