Adsorption isotherm of 1-Butanol on silicalite-1(F-)
DOI: 10.1021/acs.langmuir.7b02097
Article source: Figure 3
Adsorbate 1-Butanol: InChIKey LRHPLDYGYMQRHN-UHFFFAOYSA-N
Kind: experiment
Temperature: 323 K
Tabular data in the source: 0
pressure (bar)	uptake (mmol/g)
8e-06	0.22329
9e-06	0.37986
2.2e-05	0.50605
3e-05	0.6442
3.9e-05	0.72618
5.4e-05	0.85513
7.2e-05	0.96658
0.000131	1.05965
0.000193	1.14444
0.000252	1.17581
0.000345	1.21733
0.000411	1.22845
0.000555	1.24884
0.000659	1.26367
0.000733	1.26465
0.000826	1.26566
0.000922	1.27772
0.001055	1.27784
0.001184	1.2844
0.001278	1.29186
