Adsorption isotherm of 1-Butanol, Water on silicalite-1(F-)
DOI: 10.1021/acs.langmuir.7b02097
Article source: Figure 3
Adsorbate 1-Butanol: InChIKey LRHPLDYGYMQRHN-UHFFFAOYSA-N
Adsorbate Water: InChIKey XLYOFNOQVPJJNP-UHFFFAOYSA-N
Kind: experiment
Temperature: 323 K
Tabular data in the source: 0
pressure (bar)	1-Butanol fraction	1-Butanol uptake (mmol/g)	Water fraction	Water uptake (mmol/g)	total uptake (mmol/g)
0.01904	0.00403	0.8122			
0.019071	0.007142	0.87953			
0.019111	0.011126	0.97703			
0.019151	0.015109	0.99796			
0.019191	0.019091	1.03048			
0.019248	0.024816	1.04446			
0.019319	0.03191	1.07469			
0.019395	0.039501	1.08869			
0.019506	0.050577	1.10503			
0.019582	0.058168	1.10974			
0.019752	0.075217	1.1215			
0.019913	0.091271	1.12861			
0.020203	0.120266	1.13351			
