Adsorption isotherm of 1-Butanol, Water on silicalite-1(OH-)
DOI: 10.1021/acs.langmuir.7b02097
Article source: Figure 2
Adsorbate 1-Butanol: InChIKey LRHPLDYGYMQRHN-UHFFFAOYSA-N
Adsorbate Water: InChIKey XLYOFNOQVPJJNP-UHFFFAOYSA-N
Kind: experiment
Temperature: 323 K
Tabular data in the source: 0
pressure (bar)	1-Butanol fraction	1-Butanol uptake (mmol/g)	Water fraction	Water uptake (mmol/g)	total uptake (mmol/g)
0.007943			0.79	0.11108	
0.00797			0.79	0.10702	
0.008012			0.79	0.10408	
0.008049			0.79	0.09819	
0.008086			0.79	0.09451	
0.008145			0.79	0.09119	
0.008214			0.79	0.09194	
0.008299			0.79	0.08789	
0.008399			0.79	0.08753	
0.008483			0.79	0.0879	
0.008648			0.79	0.08828	
0.008812			0.79	0.08755	
0.009103			0.79	0.0872	
