Adsorption isotherm of 1-Butanol, Water on silicalite-1(OH-)
DOI: 10.1021/acs.langmuir.7b02097
Article source: Figure 3
Adsorbate 1-Butanol: InChIKey LRHPLDYGYMQRHN-UHFFFAOYSA-N
Adsorbate Water: InChIKey XLYOFNOQVPJJNP-UHFFFAOYSA-N
Kind: experiment
Temperature: 308 K
Tabular data in the source: 0
pressure (bar)	1-Butanol fraction	1-Butanol uptake (mmol/g)	Water fraction	Water uptake (mmol/g)	total uptake (mmol/g)
0.019044	0.004406	1.48583			
0.019068	0.006777	1.4988			
0.01911	0.011026	1.51918			
0.019148	0.01478	1.53216			
0.019193	0.019325	1.5507			
0.019241	0.024067	1.55814			
0.019311	0.031082	1.57855			
0.019398	0.039777	1.58973			
0.019494	0.04936	1.60831			
0.019583	0.058253	1.61579			
0.019748	0.074752	1.63073			
0.019912	0.091153	1.64568			
0.020201	0.120102	1.66259			
