Adsorption isotherm of 1-Butanol on silicalite-1(OH-)
DOI: 10.1021/acs.langmuir.7b02097
Article source: Figure 3
Adsorbate 1-Butanol: InChIKey LRHPLDYGYMQRHN-UHFFFAOYSA-N
Kind: experiment
Temperature: 323 K
Tabular data in the source: 0
pressure (bar)	uptake (mmol/g)
6e-06	0.22486
8e-06	0.26726
1e-05	0.37252
1.4e-05	0.48436
1.8e-05	0.56697
2.1e-05	0.67223
3e-05	0.7892
4e-05	0.86596
4.9e-05	0.93102
6.3e-05	1.02899
8.9e-05	1.13427
0.00012	1.21763
0.000162	1.28638
0.000218	1.33102
0.000272	1.37634
0.000348	1.39034
0.000424	1.41361
0.000526	1.42299
0.000615	1.44744
0.000706	1.46376
0.000793	1.47661
0.000877	1.47668
0.000976	1.47909
0.001075	1.48614
0.001173	1.4932
0.001259	1.49559
