Adsorption isotherm of 1-Butanol, Water on silicalite-1(OH-)
DOI: 10.1021/acs.langmuir.7b02097
Article source: Figure 3
Adsorbate 1-Butanol: InChIKey LRHPLDYGYMQRHN-UHFFFAOYSA-N
Adsorbate Water: InChIKey XLYOFNOQVPJJNP-UHFFFAOYSA-N
Kind: experiment
Temperature: 308 K
Tabular data in the source: 0
pressure (bar)	1-Butanol fraction	1-Butanol uptake (mmol/g)	Water fraction	Water uptake (mmol/g)	total uptake (mmol/g)
0.007944	0.004406	1.55796			
0.007968	0.006777	1.57093			
0.008018	0.011816	1.56913			
0.008049	0.014879	1.5858			
0.008086	0.018633	1.59508			
0.008146	0.024561	1.60438			
0.008211	0.031082	1.61739			
0.008301	0.040073	1.62487			
0.008396	0.049558	1.63975			
0.008478	0.057759	1.65092			
0.008651	0.075148	1.67142			
0.008812	0.091153	1.67527			
0.009103	0.1203	1.68848			
