Adsorption isotherm of 1-Butanol, Water on silicalite-1(F-)
DOI: 10.1021/acs.langmuir.7b02097
Article source: Figure 2
Adsorbate 1-Butanol: InChIKey LRHPLDYGYMQRHN-UHFFFAOYSA-N
Adsorbate Water: InChIKey XLYOFNOQVPJJNP-UHFFFAOYSA-N
Kind: experiment
Temperature: 308 K
Tabular data in the source: 0
pressure (bar)	1-Butanol fraction	1-Butanol uptake (mmol/g)	Water fraction	Water uptake (mmol/g)	total uptake (mmol/g)
0.019041			1.9	0.025743	
0.019067			1.9	0.0256	
0.019111			1.9	0.024553	
0.019143			1.9	0.023434	
0.019189			1.9	0.022625	
0.019241			1.9	0.022053	
0.019309			1.9	0.021721	
0.019396			1.9	0.021198	
0.019496			1.9	0.020841	
0.01958			1.9	0.020128	
0.019747			1.9	0.019701	
0.019909			1.9	0.019416	
0.020197			1.9	0.018919	
