Adsorption isotherm of 1-Butanol on silicalite-1(OH-)
DOI: 10.1021/acs.langmuir.7b02097
Article source: Figure 3
Adsorbate 1-Butanol: InChIKey LRHPLDYGYMQRHN-UHFFFAOYSA-N
Kind: experiment
Temperature: 308 K
Tabular data in the source: 0
pressure (bar)	uptake (mmol/g)
3e-06	0.22356
4e-06	0.27257
5e-06	0.32991
6e-06	0.56571
8e-06	0.71089
8e-06	0.77655
1.1e-05	0.85422
1.3e-05	1.00033
1.5e-05	1.09743
1.7e-05	1.26573
1.7e-05	1.20285
2e-05	1.38039
2.7e-05	1.43218
4.2e-05	1.49323
7.2e-05	1.54874
0.000107	1.57651
0.000152	1.60614
0.000212	1.62654
0.000264	1.63861
0.000339	1.64608
0.000395	1.65538
0.000472	1.661
0.000541	1.66661
0.000614	1.66668
0.000699	1.67045
0.000776	1.67515
0.000865	1.67615
0.000991	1.67627
0.001079	1.68097
0.001173	1.67921
0.001246	1.68205
0.0013	1.68302
