Adsorption isotherm of 1-Butanol, Water on silicalite-1(F-)
DOI: 10.1021/acs.langmuir.7b02097
Article source: Figure 2
Adsorbate 1-Butanol: InChIKey LRHPLDYGYMQRHN-UHFFFAOYSA-N
Adsorbate Water: InChIKey XLYOFNOQVPJJNP-UHFFFAOYSA-N
Kind: experiment
Temperature: 323 K
Tabular data in the source: 0
pressure (bar)	1-Butanol fraction	1-Butanol uptake (mmol/g)	Water fraction	Water uptake (mmol/g)	total uptake (mmol/g)
0.007941			0.79	0.009072	
0.007959			0.79	0.009024	
0.008003			0.79	0.008929	
0.008041			0.79	0.008834	
0.008087			0.79	0.00874	
0.008142			0.79	0.008931	
0.008206			0.79	0.008646	
0.008298			0.79	0.00867	
0.008395			0.79	0.008671	
0.008476			0.79	0.008601	
0.008651			0.79	0.00865	
0.008805			0.79	0.008604	
0.009098			0.79	0.00875	
