Adsorption isotherm of 1-Butanol, Water on silicalite-1(OH-)
DOI: 10.1021/acs.langmuir.7b02097
Article source: Figure 3
Adsorbate 1-Butanol: InChIKey LRHPLDYGYMQRHN-UHFFFAOYSA-N
Adsorbate Water: InChIKey XLYOFNOQVPJJNP-UHFFFAOYSA-N
Kind: experiment
Temperature: 323 K
Tabular data in the source: 0
pressure (bar)	1-Butanol fraction	1-Butanol uptake (mmol/g)	Water fraction	Water uptake (mmol/g)	total uptake (mmol/g)
0.019043	0.004281	0.95734			
0.019067	0.006653	1.05499			
0.019114	0.011396	1.15081			
0.019149	0.014854	1.20426			
0.019192	0.019201	1.25403			
0.019247	0.024733	1.28908			
0.019317	0.031746	1.33335			
0.0194	0.040043	1.35369			
0.019501	0.050119	1.37773			
0.019588	0.058811	1.38517			
0.019743	0.074318	1.40557			
0.019908	0.090813	1.40941			
0.020205	0.120543	1.42625			
