Adsorption isotherm of 1-Butanol, Water on silicalite-1(F-)
DOI: 10.1021/acs.langmuir.7b02097
Article source: Figure 2
Adsorbate 1-Butanol: InChIKey LRHPLDYGYMQRHN-UHFFFAOYSA-N
Adsorbate Water: InChIKey XLYOFNOQVPJJNP-UHFFFAOYSA-N
Kind: experiment
Temperature: 323 K
Tabular data in the source: 0
pressure (bar)	1-Butanol fraction	1-Butanol uptake (mmol/g)	Water fraction	Water uptake (mmol/g)	total uptake (mmol/g)
0.019041			1.9	0.015719	
0.019069			1.9	0.015644	
0.019111			1.9	0.015644	
0.019143			1.9	0.014737	
0.019184			1.9	0.013981	
0.01924			1.9	0.013793	
0.019309			1.9	0.013113	
0.019397			1.9	0.012963	
0.019496			1.9	0.012737	
0.019579			1.9	0.012473	
0.019751			1.9	0.012286	
0.019906			1.9	0.012174	
0.020202			1.9	0.011988	
