Adsorption isotherm of 1-Butanol, Water on silicalite-1(OH-)
DOI: 10.1021/acs.langmuir.7b02097
Article source: Figure 3
Adsorbate 1-Butanol: InChIKey LRHPLDYGYMQRHN-UHFFFAOYSA-N
Adsorbate Water: InChIKey XLYOFNOQVPJJNP-UHFFFAOYSA-N
Kind: experiment
Temperature: 323 K
Tabular data in the source: 0
pressure (bar)	1-Butanol fraction	1-Butanol uptake (mmol/g)	Water fraction	Water uptake (mmol/g)	total uptake (mmol/g)
0.007946	0.004578	1.01261			
0.00797	0.007049	1.11578			
0.008014	0.011397	1.18213			
0.008046	0.014558	1.23005			
0.008093	0.0193	1.28719			
0.008143	0.024338	1.33328			
0.008213	0.031253	1.3665			
0.008296	0.039649	1.39789			
0.008404	0.050415	1.40536			
0.00848	0.058021	1.41832			
0.008652	0.075208	1.44426			
0.008811	0.09111	1.44993			
0.009101	0.12005	1.46677			
