Adsorption isotherm of 1-Butanol on silicalite-1(F-)
DOI: 10.1021/acs.langmuir.7b02097
Article source: Figure 3
Adsorbate 1-Butanol: InChIKey LRHPLDYGYMQRHN-UHFFFAOYSA-N
Kind: experiment
Temperature: 308 K
Tabular data in the source: 0
pressure (bar)	uptake (mmol/g)
3e-06	0.24298
4e-06	0.3336
7e-06	0.54999
8e-06	0.44087
8e-06	0.65356
1e-05	0.86994
1.3e-05	1.10667
2.9e-05	1.19731
5.5e-05	1.26391
8e-05	1.29907
0.000163	1.33984
0.000209	1.36207
0.000299	1.37325
0.000378	1.38627
0.00042	1.39371
0.000486	1.39747
0.000536	1.40491
0.000585	1.4068
0.00063	1.41609
0.000687	1.41799
0.000761	1.42176
0.000835	1.42368
0.000911	1.4182
0.000979	1.42751
0.001052	1.42573
0.001122	1.42579
0.001197	1.42586
0.001286	1.42409
0.001309	1.42966
