Adsorption isotherm of 1-Butanol, Water on silicalite-1(F-)
DOI: 10.1021/acs.langmuir.7b02097
Article source: Figure 2
Adsorbate 1-Butanol: InChIKey LRHPLDYGYMQRHN-UHFFFAOYSA-N
Adsorbate Water: InChIKey XLYOFNOQVPJJNP-UHFFFAOYSA-N
Kind: experiment
Temperature: 308 K
Tabular data in the source: 0
pressure (bar)	1-Butanol fraction	1-Butanol uptake (mmol/g)	Water fraction	Water uptake (mmol/g)	total uptake (mmol/g)
0.007947			0.79	0.015216	
0.007975			0.79	0.015097	
0.008021			0.79	0.015122	
0.008047			0.79	0.014908	
0.008091			0.79	0.014575	
0.008143			0.79	0.014218	
0.00821			0.79	0.013742	
0.008296			0.79	0.013219	
0.008399			0.79	0.013077	
0.008478			0.79	0.012816	
0.008647			0.79	0.012532	
0.008806			0.79	0.012438	
0.009099			0.79	0.012084	
