Adsorption isotherm of 1-Butanol, Water on silicalite-1(F-)
DOI: 10.1021/acs.langmuir.7b02097
Article source: Figure 3
Adsorbate 1-Butanol: InChIKey LRHPLDYGYMQRHN-UHFFFAOYSA-N
Adsorbate Water: InChIKey XLYOFNOQVPJJNP-UHFFFAOYSA-N
Kind: experiment
Temperature: 308 K
Tabular data in the source: 0
pressure (bar)	1-Butanol fraction	1-Butanol uptake (mmol/g)	Water fraction	Water uptake (mmol/g)	total uptake (mmol/g)
0.019044	0.004406	1.02464			
0.01907	0.006994	1.03641			
0.019112	0.011228	1.07022			
0.019151	0.015071	1.10551			
0.019192	0.019227	1.12904			
0.019249	0.024873	1.14671			
0.019315	0.03146	1.15999			
0.019398	0.039772	1.17035			
0.019501	0.050123	1.18513			
0.01958	0.057965	1.20429			
0.019751	0.075139	1.21767			
0.019914	0.09145	1.22516			
0.020203	0.120308	1.23717			
