Adsorption isotherm of 1-Butanol, Water on silicalite-1(OH-)
DOI: 10.1021/acs.langmuir.7b02097
Article source: Figure 2
Adsorbate 1-Butanol: InChIKey LRHPLDYGYMQRHN-UHFFFAOYSA-N
Adsorbate Water: InChIKey XLYOFNOQVPJJNP-UHFFFAOYSA-N
Kind: experiment
Temperature: 308 K
Tabular data in the source: 0
pressure (bar)	1-Butanol fraction	1-Butanol uptake (mmol/g)	Water fraction	Water uptake (mmol/g)	total uptake (mmol/g)
0.007941			0.79	0.16901	
0.007971			0.79	0.15307	
0.008015			0.79	0.14534	
0.008045			0.79	0.13687	
0.008089			0.79	0.13282	
0.00815			0.79	0.12656	
0.008206			0.79	0.12251	
0.008299			0.79	0.12325	
0.008402			0.79	0.12068	
0.008483			0.79	0.11774	
0.00865			0.79	0.11591	
0.008804			0.79	0.11039	
0.009102			0.79	0.10746	
