Adsorption isotherm of 1-Butanol, Water on silicalite-1(F-)
DOI: 10.1021/acs.langmuir.7b02097
Article source: Figure 3
Adsorbate 1-Butanol: InChIKey LRHPLDYGYMQRHN-UHFFFAOYSA-N
Adsorbate Water: InChIKey XLYOFNOQVPJJNP-UHFFFAOYSA-N
Kind: experiment
Temperature: 308 K
Tabular data in the source: 0
pressure (bar)	1-Butanol fraction	1-Butanol uptake (mmol/g)	Water fraction	Water uptake (mmol/g)	total uptake (mmol/g)
0.007941	0.00411	1.06416			
0.007967	0.006678	1.11782			
0.008015	0.01152	1.153			
0.008049	0.014879	1.18632			
0.008089	0.01893	1.20855			
0.008149	0.024858	1.2271			
0.00821	0.030983	1.23456			
0.008295	0.03948	1.24758			
0.0084	0.049953	1.26062			
0.008483	0.058253	1.27364			
0.008651	0.075148	1.27935			
0.008812	0.091153	1.28319			
0.0091	0.120003	1.29455			
