Adsorption isotherm of 1-Butanol, Water on silicalite-1(F-)
DOI: 10.1021/acs.langmuir.7b02097
Article source: Figure 3
Adsorbate 1-Butanol: InChIKey LRHPLDYGYMQRHN-UHFFFAOYSA-N
Adsorbate Water: InChIKey XLYOFNOQVPJJNP-UHFFFAOYSA-N
Kind: experiment
Temperature: 323 K
Tabular data in the source: 0
pressure (bar)	1-Butanol fraction	1-Butanol uptake (mmol/g)	Water fraction	Water uptake (mmol/g)	total uptake (mmol/g)
0.007973	0.007267	0.92826			
0.008013	0.011251	1.02113			
0.00805	0.014985	1.03509			
0.008092	0.019217	1.06762			
0.008142	0.024195	1.08623			
0.008213	0.031288	1.1095			
0.008295	0.039502	1.11886			
0.0084	0.049956	1.14448			
0.008479	0.05792	1.14687			
0.008657	0.075716	1.14935			
0.008816	0.091645	1.1611			
0.009099	0.119894	1.1776			
