Adsorption isotherm of 1-Butanol, Water on silicalite-1(OH-)
DOI: 10.1021/acs.langmuir.7b02097
Article source: Figure 2
Adsorbate 1-Butanol: InChIKey LRHPLDYGYMQRHN-UHFFFAOYSA-N
Adsorbate Water: InChIKey XLYOFNOQVPJJNP-UHFFFAOYSA-N
Kind: experiment
Temperature: 308 K
Tabular data in the source: 0
pressure (bar)	1-Butanol fraction	1-Butanol uptake (mmol/g)	Water fraction	Water uptake (mmol/g)	total uptake (mmol/g)
0.019043			1.9	0.28864	
0.019069			1.9	0.27649	
0.019111			1.9	0.26581	
0.019145			1.9	0.25439	
0.019192			1.9	0.2415	
0.019244			1.9	0.23929	
0.019311			1.9	0.2124	
0.019399			1.9	0.20504	
0.019503			1.9	0.19731	
0.019584			1.9	0.18921	
0.019753			1.9	0.18148	
0.019911			1.9	0.17302	
0.020198			1.9	0.16567	
