Adsorption isotherm of 1-Butanol, Water on silicalite-1(OH-)
DOI: 10.1021/acs.langmuir.7b02097
Article source: Figure 2
Adsorbate 1-Butanol: InChIKey LRHPLDYGYMQRHN-UHFFFAOYSA-N
Adsorbate Water: InChIKey XLYOFNOQVPJJNP-UHFFFAOYSA-N
Kind: experiment
Temperature: 323 K
Tabular data in the source: 0
pressure (bar)	1-Butanol fraction	1-Butanol uptake (mmol/g)	Water fraction	Water uptake (mmol/g)	total uptake (mmol/g)
0.019044			1.9	0.18144	
0.019067			1.9	0.17923	
0.019114			1.9	0.16302	
0.019144			1.9	0.15897	
0.01919			1.9	0.1575	
0.019243			1.9	0.15566	
0.019311			1.9	0.14756	
0.019399			1.9	0.1391	
0.019498			1.9	0.13284	
0.019578			1.9	0.13137	
0.019746			1.9	0.12991	
0.019911			1.9	0.12771	
0.0202			1.9	0.12699	
