Adsorption isotherm of Nitrogen on IRMOF-1-GO2
DOI: 10.1002/adma.200901581
Adsorbate Nitrogen: InChIKey IJGRMHOSHXDMSA-UHFFFAOYSA-N
Temperature: 77 K
Tabular data in the source: 0
pressure (bar)	uptake (cm3(STP)/g)
0.00108687	176.871
0.00304322	195.238
0.00864058	206.122
0.0215826	212.245
0.0400468	217.007
0.0548073	219.048
0.0732506	220.408
0.0861759	223.81
0.104607	223.129
0.119363	224.49
0.135959	225.17
0.152554	225.85
0.170993	226.531
0.187593	227.891
0.202341	227.891
0.22078	228.571
0.237371	228.571
0.252119	228.571
0.268715	229.252
0.285306	229.252
0.303746	229.932
0.32218	229.932
0.338772	229.932
0.357211	230.612
0.375646	230.612
0.392237	230.612
0.408833	231.293
0.427268	231.293
0.445703	231.293
0.464138	231.293
0.480729	231.293
0.49732	231.293
0.513916	231.973
0.532351	231.973
0.550786	231.973
0.569221	231.973
0.585816	232.653
0.600564	232.653
0.615312	232.653
0.631904	232.653
0.650339	232.653
0.668774	232.653
0.687208	232.653
0.705643	232.653
0.724078	232.653
0.742517	233.333
0.760948	232.653
0.777544	233.333
0.795979	233.333
0.814414	233.333
0.832853	234.014
0.84944	233.333
0.867875	233.333
0.886314	234.014
0.902905	234.014
0.919501	234.694
0.936092	234.694
0.952688	235.374
0.971127	236.054
