Adsorption isotherm of Nitrogen on IRMOF-1-GO1
DOI: 10.1002/adma.200901581
Adsorbate Nitrogen: InChIKey IJGRMHOSHXDMSA-UHFFFAOYSA-N
Temperature: 77 K
Tabular data in the source: 0
pressure (bar)	uptake (cm3(STP)/g)
0.0105301	213.605
0.0216328	220.408
0.0364058	224.49
0.0474751	225.85
0.0622398	228.571
0.10097	231.293
0.124952	234.014
0.159987	235.374
0.187643	236.054
0.207926	236.735
0.217147	237.415
0.244804	238.095
0.276147	238.776
0.305648	239.456
0.316708	239.456
0.36833	240.136
0.39783	240.816
0.427326	240.816
0.478952	242.177
0.486322	241.497
0.547166	242.857
0.587731	244.218
0.611692	243.537
0.670688	244.218
0.749975	246.939
0.755489	244.218
0.788692	247.619
0.842154	247.619
0.849524	246.939
0.903006	250.34
0.939888	252.381
0.965735	258.503
