Adsorption isotherm of Nitrogen on IRMOF-1
DOI: 10.1002/adma.200901581
Adsorbate Nitrogen: InChIKey IJGRMHOSHXDMSA-UHFFFAOYSA-N
Temperature: 77 K
Tabular data in the source: 0
pressure (bar)	uptake (cm3(STP)/g)
0.00133768	217.687
0.00321043	222.449
0.00508319	227.211
0.00880779	233.333
0.0235975	240.136
0.0346836	244.218
0.0476089	247.619
0.0623736	250.34
0.0955731	253.061
0.0992643	253.741
0.126925	255.102
0.158273	256.463
0.187777	257.823
0.208055	257.823
0.217277	258.503
0.246773	258.503
0.276273	259.184
0.305769	259.184
0.316838	260.544
0.366612	260.544
0.397952	260.544
0.427448	260.544
0.47907	261.224
0.490135	261.905
0.549122	261.224
0.589687	262.585
0.609966	262.585
0.668957	262.585
0.729797	263.265
0.759289	262.585
0.786949	263.946
0.840411	263.946
0.851472	263.946
0.897567	265.306
0.939967	265.306
0.965793	268.027
