Adsorption isotherm of Nitrogen on IRMOF-1-GO3
DOI: 10.1002/adma.200901581
Adsorbate Nitrogen: InChIKey IJGRMHOSHXDMSA-UHFFFAOYSA-N
Temperature: 77 K
Tabular data in the source: 0
pressure (bar)	uptake (cm3(STP)/g)
0.000915475	148.98
0.0010158	165.306
0.00844411	174.15
0.0379901	182.313
0.0472201	184.354
0.0619848	187.075
0.0914932	189.116
0.0988672	189.116
0.126528	190.476
0.154189	191.837
0.187371	191.837
0.209498	192.517
0.244536	194.558
0.27588	195.238
0.307219	195.238
0.314589	194.558
0.364372	195.918
0.395711	195.918
0.412303	195.918
0.427046	195.238
0.56716	196.599
0.587443	197.279
0.607713	195.918
0.629855	199.32
0.64829	199.32
0.679621	197.959
0.698056	197.959
0.7294	198.639
0.758891	197.959
0.786552	199.32
0.841857	199.32
0.847387	199.32
0.902713	202.721
0.939583	202.721
0.96359	209.524
