Adsorption isotherm of Carbon Dioxide on IRMOF-1
DOI: 10.1039/C3cp51768c
Adsorbate Carbon Dioxide: InChIKey CURLTUGMZLYLDI-UHFFFAOYSA-N
Temperature: 328 K
Tabular data in the source: 0
pressure (bar)	uptake (mmol/g)
0.788644	0.000197779
10.2524	3.88972
20.5047	8.53179
29.9685	12.1078
39.4322	13.8657
50.4732	14.6208
74.9211	14.6269
100.158	12.1254
124.606	7.42937
149.842	4.80247
175.079	3.49218
200.315	2.62077
225.552	2.00014
