Adsorption isotherm of Carbon Dioxide on IRMOF-1
DOI: 10.1039/C3cp51768c
Adsorbate Carbon Dioxide: InChIKey CURLTUGMZLYLDI-UHFFFAOYSA-N
Temperature: 343 K
Tabular data in the source: 0
pressure (bar)	uptake (mmol/g)
0	7.10543e-15
9.34297	3.1348
21.0272	6.77116
30.3653	10.1567
39.7205	12.6646
50.6579	14.4201
74.9084	16.6771
100.743	18.0564
125.026	18.6834
150.094	19.185
175.165	19.5611
199.45	20.0627
224.516	20.6897
