Adsorption isotherm of Carbon Dioxide on IRMOF-1
DOI: 10.1039/C3cp51768c
Adsorbate Carbon Dioxide: InChIKey CURLTUGMZLYLDI-UHFFFAOYSA-N
Temperature: 316 K
Tabular data in the source: 0
pressure (bar)	uptake (g/cm3)
100.129	0.858458
124.903	0.864582
150.194	0.870576
174.968	0.875661
200.774	0.880488
226.065	0.886093
