Adsorption isotherm of Carbon Dioxide on IRMOF-1
DOI: 10.1039/C3cp51768c
Adsorbate Carbon Dioxide: InChIKey CURLTUGMZLYLDI-UHFFFAOYSA-N
Temperature: 343 K
Tabular data in the source: 0
pressure (bar)	uptake (mmol/g)
0.788644	0.000197779
10.2524	3.07467
19.7161	6.46262
29.1798	9.4744
40.2208	11.5461
49.6845	12.6143
75.7098	13.3732
100.946	12.3764
125.394	10.0001
150.631	7.24781
175.868	5.24787
201.104	4.06297
226.341	3.12886
