Adsorption isotherm of Carbon Dioxide on IRMOF-1
DOI: 10.1039/C3cp51768c
Adsorbate Carbon Dioxide: InChIKey CURLTUGMZLYLDI-UHFFFAOYSA-N
Temperature: 316 K
Tabular data in the source: 0
pressure (bar)	uptake (mmol/g)
10.08	5.51724
20.1452	11.7868
30.2572	15.674
40.406	17.6803
50.5719	18.8088
75.6208	20.3135
99.9032	20.9404
124.964	21.8182
150.018	23.0721
175.07	24.4514
200.101	26.8339
225.015	35.2351
