Adsorption isotherm of Carbon Dioxide on IRMOF-1
DOI: 10.1039/C3cp51768c
Adsorbate Carbon Dioxide: InChIKey CURLTUGMZLYLDI-UHFFFAOYSA-N
Temperature: 316 K
Tabular data in the source: 0
pressure (bar)	uptake (mmol/g)
9.46372	5.26883
20.5047	11.2277
29.9685	14.4903
39.4322	15.8093
49.6845	16.2507
75.7098	15.1914
100.946	8.55196
125.394	4.60825
149.842	3.23507
175.868	2.48925
201.104	1.93131
226.341	1.37338
