Adsorption isotherm of Carbon Dioxide on IRMOF-1
DOI: 10.1039/C3cp51768c
Adsorbate Carbon Dioxide: InChIKey CURLTUGMZLYLDI-UHFFFAOYSA-N
Temperature: 328 K
Tabular data in the source: 0
pressure (bar)	uptake (mmol/g)
0	7.10543e-15
10.1095	4.01254
20.1993	9.02821
29.5251	13.0408
40.4502	15.4232
49.8251	16.9279
74.8691	18.6834
100.711	19.6865
125.001	19.9373
150.075	20.1881
174.362	20.5643
199.433	20.9404
225.285	21.442
