Adsorption isotherm of Nitrogen on Zn2(bpdc)2(bpee)
DOI: 10.1021/Ic9002115
Adsorbate Nitrogen: InChIKey IJGRMHOSHXDMSA-UHFFFAOYSA-N
Temperature: 77 K
Tabular data in the source: 0
pressure (bar)	uptake (cm3(STP)/g)
0.00434053	0.350877
0.00723563	0.701754
0.0144586	0.350877
0.02169	0.701754
0.0332577	1.05263
0.0520483	1.05263
0.101197	1.40351
0.153229	1.05263
0.203827	1.75439
0.226954	1.75439
0.258758	2.10526
0.283335	2.45614
0.305016	2.45614
0.319543	8.42105
0.336972	15.4386
0.354411	23.1579
0.379106	33.3333
0.405242	43.1579
0.425503	45.2632
0.454437	47.3684
0.48338	50.1754
0.506528	51.9298
0.510877	52.9825
0.522466	55.0877
0.535496	56.8421
0.54708	58.5965
0.558669	60.7018
0.577494	63.5088
0.589082	65.614
0.600667	67.3684
0.636845	70.8772
0.651312	71.9298
0.664334	72.9825
0.67736	74.386
0.691827	75.4386
0.704848	76.4912
0.71787	77.5439
0.732337	78.5965
0.745358	79.6491
0.759825	80.7018
0.791663	83.8596
0.811908	84.5614
0.862544	88.4211
0.908841	91.9298
0.923303	92.6316
0.943552	93.6842
0.963797	94.386
1.00718	96.1404
