Adsorption isotherm of Benzene on Zn2(bpdc)2(bpee)
DOI: 10.1021/Ic9002115
Adsorbate Benzene: InChIKey UHOVQNZJYSORNB-UHFFFAOYSA-N
Temperature: 355 K
Tabular data in the source: 0
pressure (bar)	uptake (mmol/g)
0.00433241	0.0159529
0.00790028	0.0239293
0.0114681	0.0478586
0.0151634	0.0478586
0.0184765	0.0797643
0.0186039	0.135599
0.0194958	0.191434
0.020133	0.263222
0.0207701	0.33501
0.0212798	0.406798
0.0217895	0.478586
0.0219169	0.390845
0.0221717	0.550373
0.0226814	0.630138
0.0229363	0.701925
0.0233186	0.78169
0.0235734	0.861454
0.0239557	0.933242
0.0242105	1.01301
0.0244654	1.09277
0.0248476	1.17253
0.0251025	1.24432
0.0254848	1.32409
0.0257396	1.42778
0.0259945	1.45171
0.0263767	1.53147
0.026759	1.60326
0.0270139	1.68303
0.0273961	1.75481
0.0277784	1.83458
0.0282881	1.90637
0.0286704	1.98613
0.0293075	2.05792
0.0298172	2.11375
0.0305817	2.17756
0.0314737	2.2334
0.0332576	2.32114
0.0344044	2.35305
0.0355512	2.37697
0.0366981	2.39293
0.0379723	2.40888
0.0395014	2.42483
0.0411579	2.43281
0.0430693	2.44079
0.0453629	2.44079
0.0467645	2.44876
0.0484211	2.44079
0.050205	2.44876
0.0505873	2.45674
