Adsorption isotherm of P-Xylene on Zn2(bpdc)2(bpee)
DOI: 10.1021/Ic9002115
Adsorbate P-Xylene: InChIKey URLKBWYHVLBVBO-UHFFFAOYSA-N
Temperature: 388 K
Tabular data in the source: 0
pressure (bar)	uptake (mmol/g)
0.000839796	0.000272062
0.00106383	0.000176326
0.00126914	0.000174269
0.00171711	0.000169782
0.00216503	0.000258787
0.00238896	0.000350035
0.00259428	0.000347978
0.00300478	0.000624341
0.00324738	0.000715402
0.00343366	0.00146147
0.00365727	0.00220717
0.00388051	0.0037008
0.00408509	0.00519462
0.00428976	0.00650145
0.00451323	0.00752762
0.00471804	0.00855399
0.00494193	0.00873873
0.00518425	0.00939074
0.00538939	0.00976263
0.00561314	0.0102279
0.00581841	0.0103193
0.00602368	0.0104108
0.00624766	0.0104085
0.00645293	0.0105
0.00667692	0.0104977
0.00686343	0.0107763
0.00708732	0.0109611
0.00732997	0.0109586
0.00751667	0.0108633
0.00774051	0.0111414
0.00792712	0.0112331
0.00800182	0.0111389
