Adsorption isotherm of P-Xylene on Zn2(bpdc)2(bpee)
DOI: 10.1021/Ic9002115
Adsorbate P-Xylene: InChIKey URLKBWYHVLBVBO-UHFFFAOYSA-N
Temperature: 358 K
Tabular data in the source: 0
pressure (bar)	uptake (mmol/g)
0.000279839	0.000277672
0.000410172	0.000930809
0.000540412	0.00177093
0.000651523	0.00354616
0.000762634	0.0053214
0.000892364	0.00718993
0.000984903	0.00877836
0.00105836	0.0112084
0.00128197	0.0119541
0.00144973	0.0124199
0.0017291	0.0136325
0.00195184	0.0161546
0.00206295	0.0179297
0.00215549	0.0195182
0.00221074	0.0210135
0.00224761	0.0219481
0.0023772	0.0240971
0.00241416	0.0248446
0.00246969	0.025779
0.00250661	0.0266201
0.00258053	0.0281152
0.00265477	0.0289559
0.0027103	0.0298903
0.00280326	0.0306372
0.00291488	0.0313841
0.00306392	0.0319435
0.00323172	0.0323158
0.00341824	0.0325944
0.00358613	0.0327797
0.00375407	0.0328715
0.00386602	0.0329639
0.00405272	0.0328686
0.00427651	0.0332402
0.00446312	0.0333319
0.00491099	0.0335143
0.0050976	0.033606
0.00556427	0.0335078
0.00578816	0.0336926
0.00619875	0.0337819
0.00638541	0.0337801
0.00662801	0.0338711
0.0068148	0.0335888
0.00705731	0.0338668
0.00746799	0.0337692
0.0077105	0.0340473
0.00799057	0.0338575
