Adsorption isotherm of P-Xylene on Zn2(bpdc)2(bpee)
DOI: 10.1021/Ic9002115
Adsorbate P-Xylene: InChIKey URLKBWYHVLBVBO-UHFFFAOYSA-N
Temperature: 393 K
Tabular data in the source: 0
pressure (bar)	uptake (mmol/g)
0.00248238	0.017211
0.00343422	0.0360498
0.00365815	0.0457372
0.00388218	0.0355734
0.00429258	0.0847647
0.00449776	0.114323
0.00472147	0.173639
0.00494494	0.282582
0.0051498	0.38162
0.00537322	0.500489
0.00559674	0.599507
0.00580169	0.678693
0.00602525	0.767785
0.00623016	0.856898
0.00647257	0.906268
0.00686412	0.995181
0.00710673	1.00485
0.00733062	1.02446
0.00751731	1.01434
0.00774116	1.04388
0.00794643	1.05358
