Adsorption isotherm of Benzene on Zn2(bpdc)2(bpee)
DOI: 10.1021/Ic9002115
Adsorbate Benzene: InChIKey UHOVQNZJYSORNB-UHFFFAOYSA-N
Temperature: 323 K
Tabular data in the source: 0
pressure (bar)	uptake (molecules/unitcell)
0.00136023	0.0851064
0.00291501	0.191489
0.00447081	0.340426
0.00583156	0.446809
0.00738789	0.617021
0.00855564	0.765957
0.00972392	0.93617
0.0106987	1.12766
0.0114779	1.25532
0.0122586	1.44681
0.0132375	1.80851
0.0136307	2.02128
0.0138299	2.23404
0.0138351	2.44681
0.0140342	2.65957
0.0142334	2.87234
0.0144326	3.08511
0.0146318	3.29787
0.0150307	3.74468
0.0154306	4.23404
0.0158305	4.7234
0.0160297	4.93617
0.0162289	5.14894
0.0164281	5.3617
0.0166273	5.57447
0.0168264	5.78723
0.0170256	6
0.0172295	6.40426
0.0176278	6.82979
0.0180195	6.97872
0.0186062	7.17021
0.0193875	7.38298
0.0205547	7.51064
0.0219139	7.55319
0.0246323	7.6383
0.0259905	7.6383
0.0263785	7.6383
0.0281253	7.65957
0.029871	7.6383
0.0314242	7.68085
0.0329764	7.68085
0.0347226	7.68085
0.0362743	7.65957
0.0384096	7.70213
0.0481108	7.70213
0.0500515	7.7234
0.0688719	7.7234
0.0704241	7.7234
0.077603	7.7234
0.0810944	7.68085
