Adsorption isotherm of Benzene on Zn2(bpdc)2(bpee)
DOI: 10.1021/Ic9002115
Adsorbate Benzene: InChIKey UHOVQNZJYSORNB-UHFFFAOYSA-N
Temperature: 368 K
Tabular data in the source: 0
pressure (bar)	uptake (molecules/unitcell)
0.0135848	0.12766
0.0196006	0.170213
0.0219289	0.170213
0.0306605	0.191489
0.0384225	0.234043
0.0411388	0.234043
0.0440492	0.234043
0.0591846	0.297872
0.0607368	0.297872
0.062483	0.297872
0.0644243	0.340426
0.0663651	0.361702
0.0681123	0.404255
0.0698606	0.489362
0.0714159	0.617021
0.0727771	0.744681
0.0741384	0.87234
0.0753067	1.04255
0.0764744	1.19149
0.0772552	1.38298
0.0780359	1.57447
0.0792037	1.7234
0.0801785	1.91489
0.0807626	2
