Adsorption isotherm of O-Xylene on Zn2(bpdc)2(bpee)
DOI: 10.1021/Ic9002115
Adsorbate O-Xylene: InChIKey CTQNGGLPUBDAKN-UHFFFAOYSA-N
Temperature: 348 K
Tabular data in the source: 0
pressure (bar)	uptake (molecules/unitcell)
0.000295705	0.0461894
0.000387476	0.0831409
0.000458853	0.12933
0.000520034	0.203233
0.000571017	0.286374
0.000611804	0.369515
0.000652591	0.452656
0.000703575	0.535797
0.000744362	0.618938
0.000785149	0.711316
0.000805542	0.757506
0.000836133	0.840647
0.000866723	0.923788
0.000887116	1.01617
0.000917707	1.10855
0.0009381	1.19169
0.00096869	1.28406
0.000989084	1.37644
0.00101967	1.46882
0.00104007	1.55196
0.00106046	1.64434
0.00109105	1.73672
0.00111144	1.81986
0.00116243	1.98614
0.00118282	2.10624
0.00121341	2.18938
0.00123381	2.28176
0.0012542	2.37413
0.00127459	2.46651
0.00130518	2.54965
0.00132558	2.64203
0.00134597	2.73441
0.00136636	2.82679
0.00138676	2.90993
0.00145813	3.22402
0.00147853	3.3164
0.00152951	3.44573
0.0015601	3.47344
0.00165187	3.50115
0.00175384	3.51963
0.001866	3.54734
0.00196797	3.55658
0.00206994	3.55658
0.00217191	3.56582
0.00227387	3.56582
0.00230446	3.57506
0.00240643	3.57506
0.0025084	3.5843
0.00260017	3.57506
0.00269194	3.5843
0.00279391	3.59353
0.00289587	3.59353
0.00299784	3.60277
0.00308961	3.60277
0.00319158	3.61201
0.00329355	3.61201
0.00339551	3.61201
0.00348728	3.61201
0.00358925	3.61201
0.00369122	3.61201
0.00372181	3.62125
0.00379319	3.61201
0.00389515	3.62125
0.00399712	3.62125
0.00409909	3.63048
0.00419086	3.62125
0.00428263	3.63048
0.0043846	3.63048
0.00448657	3.63972
0.00458853	3.63972
0.0046905	3.63972
0.00479247	3.63972
0.00483325	3.63972
0.00489443	3.63972
0.0049964	3.63972
0.00508817	3.6582
0.00510857	3.6582
