Adsorption isotherm of Benzene on Zn2(bpdc)2(bpee)
DOI: 10.1021/Ic9002115
Adsorbate Benzene: InChIKey UHOVQNZJYSORNB-UHFFFAOYSA-N
Temperature: 333 K
Tabular data in the source: 0
pressure (bar)	uptake (molecules/unitcell)
0.00912069	0.0638298
0.0116451	0.148936
0.0143635	0.234043
0.0163053	0.297872
0.0180577	0.553191
0.0186444	0.744681
0.0192316	0.957447
0.0196248	1.17021
0.020018	1.38298
0.0204107	1.57447
0.0212064	2.38298
0.0223933	3.31915
0.0225925	3.53191
0.0227917	3.74468
0.0231849	3.95745
0.0233861	4.25532
0.0235853	4.46809
0.0241818	5.06383
0.0245781	5.40426
0.0251679	5.7234
0.0255611	5.93617
0.0257634	6.2766
0.0267397	6.53191
0.0273265	6.7234
0.0281077	6.93617
0.0288869	7.06383
0.0300547	7.21277
0.03161	7.34043
0.0327762	7.42553
0.0343304	7.51064
0.0360787	7.59574
0.0434537	7.68085
0.0453944	7.70213
0.0471407	7.70213
0.0514092	7.70213
0.0636327	7.70213
