Adsorption isotherm of Argon on Zn2(bpdc)2(bpee)
DOI: 10.1021/Ic9002115
Adsorbate Argon: InChIKey XKRFYHLGVUSROY-UHFFFAOYSA-N
Temperature: 87 K
Tabular data in the source: 0
pressure (bar)	uptake (cm3(STP)/g)
0.00289119	1.86179
0.00721962	3.72424
0.0144058	3.72754
0.0230335	4.19662
0.0345314	4.2019
0.0404433	22.3441
0.046305	34.905
0.0492756	45.604
0.069539	61.4273
0.0883652	77.2499
0.101396	87.9535
0.130187	93.083
0.153221	97.2796
0.180553	100.083
0.203574	102.884
0.25679	107.095
0.305685	110.373
0.367516	113.657
0.407775	115.536
0.463849	117.887
0.506978	119.302
0.567358	121.191
0.60761	122.139
0.6608	123.559
0.709675	124.512
0.759991	125.93
0.810311	127.814
0.86925	129.236
0.912372	129.721
0.942566	131.13
0.967003	131.607
0.984267	133.475
1.00296	134.879
