Adsorption isotherm of P-Xylene on Zn2(bpdc)2(bpee)
DOI: 10.1021/Ic9002115
Adsorbate P-Xylene: InChIKey URLKBWYHVLBVBO-UHFFFAOYSA-N
Temperature: 368 K
Tabular data in the source: 0
pressure (bar)	uptake (mmol/g)
0.000429115	0.000369669
0.000634386	0.000461104
0.000839704	0.000459047
0.00108198	0.00120456
0.00126757	0.00335301
0.00150887	0.00606186
0.00173128	0.00923835
0.00195457	0.0106384
0.00208495	0.0111981
0.00238336	0.0116626
0.00258858	0.0118475
0.0027751	0.0121261
0.00299899	0.0123108
0.00322269	0.0128696
0.00342769	0.013522
0.00365097	0.0149221
0.00387384	0.0171637
0.00407814	0.0192185
0.00426359	0.0216474
0.00448651	0.0237955
0.00469113	0.0251958
0.00493271	0.0273437
0.00515633	0.0280894
0.00537989	0.0289286
0.0055847	0.0299549
0.00580845	0.0304201
0.00601363	0.0306985
0.00621867	0.0312575
0.00642385	0.0315359
0.0066665	0.0315335
0.00685301	0.0318121
0.0070769	0.0319968
0.00731941	0.0322749
0.00750606	0.032273
0.00774871	0.0322705
0.0079726	0.0324553
