Adsorption isotherm of P-Xylene on Zn2(bpdc)2(bpee)
DOI: 10.1021/Ic9002115
Adsorbate P-Xylene: InChIKey URLKBWYHVLBVBO-UHFFFAOYSA-N
Temperature: 353 K
Tabular data in the source: 0
pressure (bar)	uptake (mmol/g)
0.00018656	0.000185115
0.000298227	0.000838438
0.000446854	0.00223933
0.000576584	0.00410786
0.000631885	0.00550969
0.000761245	0.00812616
0.000853459	0.010369
0.00105762	0.0127043
0.00129939	0.0144782
0.00141054	0.0161599
0.00152166	0.0179352
0.00159558	0.0194303
0.0016324	0.0204583
0.00166931	0.0212994
0.00174337	0.0225141
0.0018542	0.0248503
0.00194656	0.0268126
0.00200204	0.0278405
0.00205757	0.0287748
0.00209449	0.0296159
0.00215002	0.0305503
0.00222431	0.0312975
0.00235455	0.0321376
0.00250369	0.0325101
0.0025783	0.0326028
0.00278348	0.0328813
0.00300732	0.0331594
0.00319384	0.033438
0.00343653	0.0333422
0.00364185	0.0333401
0.00386583	0.0333378
0.00405239	0.033523
0.00448155	0.0337992
0.00492947	0.0338881
0.00535868	0.0340708
0.00560142	0.0338814
0.00573194	0.0341606
0.00601192	0.0341578
0.00619861	0.0340624
0.00642255	0.0341536
0.00683319	0.0341496
0.00707597	0.0338666
0.00729991	0.0339579
0.00750523	0.0339558
0.00774769	0.0343274
0.00797167	0.0343252
