Adsorption isotherm of Benzene on Zn2(bpdc)2(bpee)
DOI: 10.1021/Ic9002115
Adsorbate Benzene: InChIKey UHOVQNZJYSORNB-UHFFFAOYSA-N
Temperature: 358 K
Tabular data in the source: 0
pressure (bar)	uptake (molecules/unitcell)
0.0401677	0.191489
0.0448253	0.234043
0.0479317	0.319149
0.0498745	0.425532
0.0512358	0.553191
0.0524036	0.702128
0.0533783	0.893617
0.0543526	1.06383
0.0549383	1.21277
0.055719	1.40426
0.0564998	1.59574
0.057282	1.85106
0.0578688	2.04255
0.05865	2.25532
0.0594323	2.51064
0.060213	2.70213
0.0608003	2.91489
0.061581	3.10638
0.0619727	3.25532
0.0625594	3.44681
0.0633407	3.65957
0.0639274	3.85106
0.0647097	4.10638
0.0654904	4.29787
0.0662717	4.51064
0.067248	4.76596
0.0680287	4.95745
0.0688095	5.14894
0.0697853	5.38298
0.070566	5.57447
0.0713467	5.76596
0.072321	5.93617
0.0732958	6.12766
0.07427	6.29787
0.0754383	6.46809
0.0768011	6.65957
0.0779694	6.82979
