Adsorption isotherm of Benzene on Zn2(bpdc)2(bpee)
DOI: 10.1021/Ic9002115
Adsorbate Benzene: InChIKey UHOVQNZJYSORNB-UHFFFAOYSA-N
Temperature: 363 K
Tabular data in the source: 0
pressure (bar)	uptake (molecules/unitcell)
0.0128066	0.0425532
0.0153295	0.0638298
0.0194045	0.0851064
0.0238676	0.106383
0.0260013	0.0851064
0.0382254	0.106383
0.0424944	0.12766
0.0446292	0.148936
0.0483156	0.148936
0.0523907	0.170213
0.0558841	0.212766
0.0580194	0.255319
0.0607394	0.404255
0.0622931	0.468085
0.0632679	0.659574
0.0642401	0.744681
0.0650208	0.93617
0.065412	1.06383
0.0663862	1.23404
0.0669729	1.42553
0.0702904	2.21277
0.0714618	2.51064
0.072049	2.7234
0.0730264	3.02128
0.0751736	3.55319
0.0759543	3.74468
0.0769296	3.95745
0.0775168	4.17021
0.0802497	4.85106
0.0808364	5.04255
0.0818106	5.21277
