Adsorption isotherm of P-Xylene on Zn2(bpdc)2(bpee)
DOI: 10.1021/Ic9002115
Adsorbate P-Xylene: InChIKey URLKBWYHVLBVBO-UHFFFAOYSA-N
Temperature: 348 K
Tabular data in the source: 0
pressure (bar)	uptake (mmol/g)
0.000335001	0.00195997
0.000446113	0.0037352
0.000446298	0.00336123
0.000612479	0.00700575
0.000686306	0.00868786
0.000871337	0.0119582
0.000963969	0.0133597
0.00109384	0.0149478
0.00120458	0.0174709
0.0012967	0.0199007
0.00135214	0.0210221
0.00138901	0.0219567
0.00142574	0.0231717
0.0014626	0.0241062
0.00151781	0.025695
0.00155468	0.0266296
0.00159159	0.0274706
0.00164712	0.028405
0.00168399	0.0293395
0.001721	0.0299936
0.00179524	0.0308343
0.00185078	0.0317687
0.00194373	0.0325157
0.00209282	0.0329817
0.00220472	0.0331675
0.00239133	0.0332592
0.00255922	0.0334444
0.00272716	0.0335362
0.00291372	0.0337214
0.00323098	0.0338117
0.00343625	0.0339031
0.00364153	0.0339945
0.00384684	0.0339925
0.00431338	0.0341748
0.00489191	0.034356
0.0051346	0.0342601
0.00535849	0.0344448
0.00728092	0.0346125
0.00746748	0.0347976
0.00771013	0.0347952
