Adsorption isotherm of Benzene on Zn2(bpdc)2(bpee)
DOI: 10.1021/Ic9002115
Adsorbate Benzene: InChIKey UHOVQNZJYSORNB-UHFFFAOYSA-N
Temperature: 343 K
Tabular data in the source: 0
pressure (bar)	uptake (molecules/unitcell)
0.0180479	0.148936
0.0203767	0.170213
0.0248403	0.212766
0.0263935	0.255319
0.0279488	0.382979
0.0291165	0.531915
0.030484	0.914894
0.0310712	1.12766
0.0314639	1.31915
0.0326441	1.97872
0.0330373	2.19149
0.0332365	2.40426
0.0336297	2.61702
0.0340224	2.80851
0.0346163	3.29787
0.0350095	3.51064
0.0352087	3.7234
0.0356019	3.93617
0.0358006	4.12766
0.0361938	4.34043
0.0367841	4.68085
0.0373713	4.89362
0.037764	5.08511
0.0389385	5.51064
0.0395252	5.70213
0.0406986	6.08511
0.0412854	6.2766
0.0420666	6.48936
0.0428479	6.70213
0.0438226	6.89362
0.0447953	7
0.0459636	7.17021
0.0463522	7.19149
0.047714	7.34043
0.0488791	7.38298
0.0506274	7.46809
0.0521817	7.55319
0.0560642	7.6383
0.0583925	7.6383
