Adsorption isotherm of O-Xylene on Zn2(bpdc)2(bpee)
DOI: 10.1021/Ic9002115
Adsorbate O-Xylene: InChIKey CTQNGGLPUBDAKN-UHFFFAOYSA-N
Temperature: 333 K
Tabular data in the source: 0
pressure (bar)	uptake (molecules/unitcell)
0.000122361	0.0369515
0.000203935	0.101617
0.000305902	0.17552
0.00040787	0.258661
0.00049964	0.508083
0.000601608	0.86836
0.000693378	1.25635
0.000785149	1.6351
0.000866723	2.03233
0.000927903	2.27252
0.000978887	2.48499
0.00101967	2.69746
0.00106046	2.98383
0.00110125	3.1224
0.00112164	3.18707
0.00113184	3.27021
0.00116243	3.33487
0.00118282	3.37182
0.0012542	3.43649
0.00132558	3.50115
0.00139695	3.56582
0.00147853	3.62125
0.0015601	3.63972
0.00165187	3.64896
0.00175384	3.6582
0.00185581	3.6582
0.00194758	3.66744
0.00203935	3.67667
0.00214132	3.67667
0.00225348	3.68591
0.00235545	3.68591
0.00244722	3.69515
0.00254918	3.69515
0.00264096	3.69515
0.00274292	3.70439
0.00284489	3.70439
0.00294686	3.70439
0.00304883	3.70439
0.00315079	3.71363
0.00325276	3.71363
0.00334453	3.71363
0.00341591	3.72286
0.00351788	3.72286
0.00361984	3.72286
0.00371161	3.72286
0.00380338	3.72286
0.00390535	3.72286
0.00399712	3.7321
0.00409909	3.7321
0.00419086	3.7321
0.00429283	3.7321
0.00439479	3.7321
0.00449676	3.7321
0.00459873	3.7321
0.0047007	3.7321
0.00480266	3.74134
0.00488424	3.74134
0.00498621	3.74134
0.00507798	3.75058
