Adsorption isotherm of P-Xylene on Zn2(bpdc)2(bpee)
DOI: 10.1021/Ic9002115
Adsorbate P-Xylene: InChIKey URLKBWYHVLBVBO-UHFFFAOYSA-N
Temperature: 378 K
Tabular data in the source: 0
pressure (bar)	uptake (mmol/g)
0.000821177	0.000178758
0.00106378	0.000269819
0.0012691	0.000267762
0.00149308	0.000265518
0.00171683	0.000730735
0.00194067	0.00100897
0.00214534	0.0023158
0.00236858	0.00380944
0.00260994	0.00642479
0.00281433	0.00829258
0.00301913	0.00931894
0.00324279	0.00997118
0.00344793	0.0103431
0.00363435	0.0108086
0.00387695	0.0108997
0.0041007	0.011365
0.0042874	0.0112695
0.00451124	0.0115478
0.0047166	0.0114523
0.00495921	0.0115433
0.00516448	0.0116347
0.00536984	0.0115392
0.00559382	0.0115369
0.00581767	0.0118152
0.00602294	0.0119067
0.00624678	0.0121848
0.00645201	0.0123698
0.00665709	0.0128352
0.00688094	0.0131135
0.0071046	0.0137656
0.00732821	0.0145113
0.00749573	0.0154445
0.00773782	0.016564
0.00796125	0.0176837
0.00805411	0.0186177
