Adsorption isotherm of O-Xylene on Zn2(bpdc)2(bpee)
DOI: 10.1021/Ic9002115
Adsorbate O-Xylene: InChIKey CTQNGGLPUBDAKN-UHFFFAOYSA-N
Temperature: 373 K
Tabular data in the source: 0
pressure (bar)	uptake (molecules/unitcell)
0.00043846	0.0277136
0.000795346	0.0369515
0.0009381	0.0277136
0.00114203	0.0461894
0.00121341	0.0461894
0.00133577	0.0461894
0.00135617	0.0369515
0.00152951	0.0554273
0.00161108	0.0646651
0.00171305	0.0646651
0.00174364	0.073903
0.00184561	0.073903
0.00201895	0.101617
0.00211073	0.12933
0.0022025	0.166282
0.00228407	0.212471
0.00235545	0.277136
0.00241663	0.351039
0.00247781	0.424942
0.00253899	0.498845
0.00258997	0.572748
0.00265115	0.674365
0.00269194	0.757506
0.00273273	0.840647
0.00277351	0.923788
0.0028041	1.00693
0.00284489	1.09931
0.00287548	1.18245
0.00291627	1.26559
0.00294686	1.35797
0.00296725	1.45035
0.00304883	1.64434
0.00307942	1.73672
0.00309981	1.81986
0.0031304	1.91224
0.00316099	2.00462
0.00319158	2.08776
0.00321197	2.18014
0.00324256	2.26328
0.00327315	2.35566
0.00329355	2.44804
0.00332414	2.53118
0.00340571	2.74365
0.0034465	2.82679
0.00348728	2.90993
0.00352807	2.99307
0.00356886	3.07621
0.00361984	3.15935
0.00367083	3.24249
0.00378299	3.33487
0.00388496	3.34411
0.00398693	3.35335
0.00413988	3.36259
0.00424184	3.37182
0.00434381	3.37182
0.00444578	3.38106
0.00451716	3.3903
0.00461912	3.3903
0.00472109	3.39954
0.00487404	3.40878
0.00497601	3.41801
