Adsorption isotherm of Hydrogen on Zn2(bpdc)2(bpee)
DOI: 10.1021/Ic9002115
Adsorbate Hydrogen: InChIKey UFHFLCQGNIYNRP-UHFFFAOYSA-N
Temperature: 87 K
Tabular data in the source: 0
pressure (bar)	uptake (cm3(STP)/g)
0.00790058	0.776403
0.013826	1.5525
0.0237018	2.63929
0.0434532	5.27797
0.0533289	6.36475
0.102708	10.8684
0.152086	14.1318
0.205415	17.5508
0.256769	20.3494
0.306148	22.5275
0.355526	24.5505
0.40688	26.4188
0.458234	28.2872
0.507613	29.6901
0.558966	31.4034
0.612295	32.8069
0.661674	34.3648
0.711053	35.6127
0.760431	37.1706
0.81376	38.4191
0.863139	39.822
0.914493	40.605
0.965846	42.0083
0.991523	42.6323
