Adsorption isotherm of Benzene on Zn2(bpdc)2(bpee)
DOI: 10.1021/Ic9002115
Adsorbate Benzene: InChIKey UHOVQNZJYSORNB-UHFFFAOYSA-N
Temperature: 348 K
Tabular data in the source: 0
pressure (bar)	uptake (molecules/unitcell)
0.0289137	0.170213
0.0324077	0.234043
0.0337674	0.297872
0.0351292	0.446809
0.0361024	0.574468
0.0368832	0.765957
0.0376639	0.957447
0.0382512	1.17021
0.0388379	1.3617
0.0394251	1.57447
0.0400134	1.82979
0.0404066	2.04255
0.0409933	2.23404
0.0413865	2.44681
0.042368	2.91489
0.0427612	3.12766
0.0431544	3.34043
0.0435471	3.53191
0.0441343	3.74468
0.0447216	3.95745
0.0451142	4.14894
0.0462882	4.55319
0.0468749	4.74468
0.0474621	4.95745
0.0482429	5.14894
0.0488301	5.3617
0.0494158	5.51064
0.050002	5.68085
0.0505887	5.87234
0.05137	6.08511
0.0523447	6.2766
0.053319	6.44681
0.0542938	6.6383
0.055268	6.80851
0.0566298	6.95745
0.0579916	7.10638
0.0593523	7.21277
0.0609076	7.34043
0.0626559	7.42553
0.0645977	7.48936
0.0663449	7.53191
0.0680917	7.55319
0.0713911	7.59574
0.0748841	7.61702
0.0787656	7.65957
0.081677	7.70213
