Adsorption isotherm of O-Xylene on Zn2(bpdc)2(bpee)
DOI: 10.1021/Ic9002115
Adsorbate O-Xylene: InChIKey CTQNGGLPUBDAKN-UHFFFAOYSA-N
Temperature: 318 K
Tabular data in the source: 0
pressure (bar)	uptake (molecules/unitcell)
0.000101967	0.0923788
0.000234525	0.221709
0.000336492	0.351039
0.000397673	0.443418
0.00043846	0.545035
0.000458853	0.637413
0.000489443	0.720554
0.000509837	0.812933
0.00053023	0.905312
0.000560821	0.997691
0.000581214	1.08083
0.000601608	1.17321
0.000622001	1.26559
0.000642395	1.35797
0.000662788	1.44111
0.000683182	1.53349
0.000713772	1.62587
0.000734165	1.71824
0.000754559	1.81062
0.000774952	1.89376
0.000795346	1.98614
0.000815739	2.07852
0.000836133	2.1709
0.000856526	2.25404
0.000887116	2.34642
0.00090751	2.4388
0.000927903	2.53118
0.000948297	2.62356
0.00096869	2.7067
0.000989084	2.79908
0.00100948	2.89145
0.00102987	2.98383
0.00111144	3.38106
0.00113184	3.4642
0.00116243	3.51963
0.00129499	3.61201
0.00136636	3.66744
0.00145813	3.71363
0.00152951	3.7321
0.00163148	3.74134
0.00173345	3.74134
0.00183541	3.75058
0.00193738	3.75058
0.00202915	3.75982
0.00213112	3.76905
0.00223309	3.77829
0.00226368	3.76905
0.00236564	3.77829
0.00245741	3.78753
0.00255938	3.78753
0.00262056	3.78753
0.00272253	3.78753
0.0028245	3.78753
0.00292646	3.79677
0.00302843	3.79677
0.0031304	3.79677
0.00323237	3.79677
0.00333433	3.79677
0.00336492	3.79677
0.00346689	3.806
0.00356886	3.806
0.00367083	3.81524
0.0037626	3.81524
0.00386456	3.81524
0.00396653	3.81524
0.00408889	3.81524
0.00419086	3.81524
0.00429283	3.82448
0.00439479	3.82448
0.00446617	3.82448
0.00456814	3.82448
0.00467011	3.82448
0.00477207	3.82448
0.00482306	3.82448
0.00492503	3.82448
0.00502699	3.82448
