Adsorption isotherm of P-Xylene on Zn2(bpdc)2(bpee)
DOI: 10.1021/Ic9002115
Adsorbate P-Xylene: InChIKey URLKBWYHVLBVBO-UHFFFAOYSA-N
Temperature: 383 K
Tabular data in the source: 0
pressure (bar)	uptake (mmol/g)
0.00171706	0.000263274
0.00192238	0.000261217
0.00214622	0.000539451
0.00238873	0.000817496
0.00257511	0.00137658
0.00281697	0.00296352
0.00304002	0.00483112
0.00324455	0.00641843
0.00344913	0.00791225
0.0036538	0.00921908
0.0038775	0.0097778
0.00408264	0.0101497
0.00430657	0.0102409
0.00451175	0.0105194
0.00473569	0.0106107
0.004941	0.0106086
0.00516485	0.0108868
0.00538883	0.0108846
0.00561263	0.0112563
0.00579923	0.0113479
0.00602317	0.0114392
0.00622844	0.0115306
0.00645238	0.0116218
0.00667636	0.0116196
0.00686297	0.0117112
0.00708695	0.0117089
0.00732964	0.0116131
0.00753491	0.0117045
0.00777747	0.011889
0.00796408	0.0119807
0.00803874	0.0119799
