Adsorption isotherm of Hydrogen on Zn2(bpdc)2(bpee)
DOI: 10.1021/Ic9002115
Adsorbate Hydrogen: InChIKey UFHFLCQGNIYNRP-UHFFFAOYSA-N
Temperature: 77 K
Tabular data in the source: 0
pressure (bar)	uptake (cm3(STP)/g)
0.0038815	2.31959
0.0039172	1.23711
0.00976751	3.86598
0.015679	4.63918
0.0413194	7.26804
0.0531475	8.65979
0.0984758	14.3814
0.151746	19.3299
0.203037	24.2784
0.2524	27.6804
0.303746	30.9278
0.355114	33.5567
0.408455	36.3402
0.45587	38.8144
0.505278	40.8247
0.554697	42.5258
0.610033	44.8454
0.657478	46.3918
0.708881	47.9381
0.760289	49.3299
0.809724	50.567
0.859143	52.268
0.912535	53.5052
0.963943	54.8969
0.989655	55.3608
1.01337	56.2887
