Adsorption isotherm of Benzene on Zn2(bpdc)2(bpee)
DOI: 10.1021/Ic9002115
Adsorbate Benzene: InChIKey UHOVQNZJYSORNB-UHFFFAOYSA-N
Temperature: 353 K
Tabular data in the source: 0
pressure (bar)	uptake (molecules/unitcell)
0.0333763	0.170213
0.0368698	0.212766
0.0393947	0.319149
0.0409494	0.425532
0.0423117	0.595745
0.0430914	0.744681
0.0440662	0.93617
0.044848	1.17021
0.0454347	1.3617
0.0468032	1.78723
0.0473904	2
0.0479771	2.19149
0.0489571	2.59574
0.0497378	2.78723
0.0501305	2.97872
0.0511084	3.29787
0.0516956	3.51064
0.0530646	3.95745
0.0536513	4.14894
0.0550198	4.57447
0.0556065	4.76596
0.0567784	5.08511
0.0575591	5.2766
0.0591206	5.65957
0.0606811	6
0.0614618	6.19149
0.0628267	6.46809
0.0655518	6.82979
0.0674967	7.02128
0.068858	7.14894
0.0706073	7.2766
0.0723556	7.3617
0.0741038	7.44681
0.0758511	7.48936
0.0777929	7.55319
0.0797336	7.57447
0.0814809	7.61702
0.0836157	7.6383
