Adsorption isotherm of O-Xylene on Zn2(bpdc)2(bpee)
DOI: 10.1021/Ic9002115
Adsorbate O-Xylene: InChIKey CTQNGGLPUBDAKN-UHFFFAOYSA-N
Temperature: 363 K
Tabular data in the source: 0
pressure (bar)	uptake (molecules/unitcell)
0.00043846	0.0277136
0.000611804	0.0461894
0.000815739	0.0646651
0.000917707	0.073903
0.00101967	0.0831409
0.00111144	0.0923788
0.00117263	0.101617
0.0012542	0.157044
0.00132558	0.230947
0.00138676	0.295612
0.00144794	0.369515
0.00149892	0.452656
0.0015601	0.535797
0.00160089	0.618938
0.00164168	0.711316
0.00167227	0.794457
0.00170286	0.877598
0.00173345	0.969977
0.00176404	1.05312
0.00180482	1.1455
0.00183541	1.22864
0.001866	1.32102
0.00190679	1.45035
0.00192718	1.54273
0.00195777	1.62587
0.00197817	1.71824
0.00200876	1.81062
0.00201895	1.903
0.00203935	1.98614
0.00205974	2.07852
0.00209033	2.25404
0.00213112	2.39261
0.00215151	2.48499
0.00217191	2.57737
0.0021923	2.66051
0.00222289	2.75289
0.00224328	2.84527
0.00229427	2.94688
0.00234525	3.03002
0.00238604	3.11316
0.00243702	3.18707
0.002488	3.27021
0.00254918	3.34411
0.00261037	3.41801
0.00264096	3.42725
0.00274292	3.43649
0.00284489	3.44573
0.00294686	3.44573
0.00301823	3.44573
0.00303863	3.45497
0.0031406	3.44573
0.00324256	3.44573
0.00333433	3.4642
0.00337512	3.4642
0.00339551	3.4642
0.00349748	3.4642
0.00359945	3.47344
0.00370142	3.48268
0.0037422	3.48268
0.00377279	3.48268
0.00387476	3.48268
0.00397673	3.49192
0.0040787	3.50115
0.00409909	3.49192
0.00412968	3.49192
0.00423165	3.50115
0.00433361	3.50115
0.00443558	3.50115
0.00447637	3.50115
0.00449676	3.51039
0.00459873	3.51039
0.0047007	3.51039
0.00480266	3.51039
0.00483325	3.51963
0.00486384	3.51963
0.00494542	3.51963
0.00496581	3.51963
0.00506778	3.51963
0.00510857	3.52887
0.00512896	3.52887
