Adsorption isotherm of P-Xylene on Zn2(bpdc)2(bpee)
DOI: 10.1021/Ic9002115
Adsorbate P-Xylene: InChIKey URLKBWYHVLBVBO-UHFFFAOYSA-N
Temperature: 343 K
Tabular data in the source: 0
pressure (bar)	uptake (mmol/g)
0.000204854	0.000932866
0.000334631	0.00270791
0.000500951	0.00607195
0.000648698	0.00924919
0.000703999	0.010651
0.000740866	0.0115856
0.000851746	0.0138283
0.000907232	0.0148561
0.000944099	0.0157907
0.000980966	0.0167252
0.000999168	0.01766
0.00103608	0.018501
0.00112807	0.0212113
0.00116493	0.0221459
0.00121996	0.0241087
0.00125682	0.0250432
0.00127479	0.0264454
0.00134885	0.0276601
0.00138572	0.0285946
0.0014413	0.0294355
0.00147817	0.03037
0.0015337	0.0313044
0.00173823	0.0328917
0.00196193	0.0334504
0.00218578	0.0337286
0.00239091	0.0341006
0.00257761	0.0340052
0.0028015	0.0341899
0.0029882	0.0340946
0.00321204	0.0343728
0.0034174	0.0342773
0.00364139	0.034275
0.00388403	0.0342726
0.00408931	0.0343641
0.00431329	0.0343618
0.00515318	0.0344469
0.0070756	0.0346146
0.00750486	0.0347038
0.00772875	0.0348885
