Adsorption isotherm of O-Xylene on Zn2(bpdc)2(bpee)
DOI: 10.1021/Ic9002115
Adsorbate O-Xylene: InChIKey CTQNGGLPUBDAKN-UHFFFAOYSA-N
Temperature: 303 K
Tabular data in the source: 0
pressure (bar)	uptake (molecules/unitcell)
0.000101967	0.147806
0.000142754	0.230947
0.000193738	0.314088
0.000234525	0.397229
0.000285509	0.48037
0.000316099	0.56351
0.000356886	0.655889
0.000387476	0.73903
0.000418066	0.803695
0.00043846	0.86836
0.000458853	0.960739
0.000489443	1.04388
0.000509837	1.13626
0.00053023	1.22864
0.000550624	1.32102
0.000581214	1.45958
0.000601608	1.55196
0.000622001	1.6351
0.000652591	1.72748
0.000672985	1.81986
0.000693378	1.91224
0.000713772	1.99538
0.000744362	2.08776
0.000764755	2.18014
0.000785149	2.30023
0.000815739	2.39261
0.000836133	2.48499
0.000866723	2.56813
0.000887116	2.66051
0.00090751	2.75289
0.0009381	2.84527
0.000958494	2.92841
0.00108085	3.4642
0.00115223	3.63972
0.00117263	3.64896
0.001244	3.70439
0.00133577	3.7321
0.00143774	3.76905
0.00150912	3.79677
0.00160089	3.79677
0.00170286	3.806
0.00180482	3.81524
0.0018864	3.83372
0.00191699	3.82448
0.00201895	3.83372
0.00212092	3.83372
0.00222289	3.83372
0.00229427	3.83372
0.00239623	3.84296
0.0024982	3.84296
0.00258997	3.84296
0.00265115	3.85219
0.00275312	3.85219
0.00285509	3.85219
0.00295705	3.85219
0.00302843	3.86143
0.0031304	3.86143
0.00323237	3.86143
0.00338532	3.85219
0.00348728	3.86143
0.00358925	3.87067
0.00369122	3.87067
0.00378299	3.87067
0.00388496	3.87067
0.00398693	3.87067
0.00410929	3.87067
0.00421125	3.87991
0.00431322	3.87067
0.00441519	3.87067
0.00446617	3.87067
0.00456814	3.87067
0.00467011	3.87067
0.00477207	3.87067
0.00484345	3.87991
0.00494542	3.87991
