Adsorption isotherm of Hydrogen on Zn2(bpdc)2(bpee)
DOI: 10.1021/Ic9002115
Adsorbate Hydrogen: InChIKey UFHFLCQGNIYNRP-UHFFFAOYSA-N
Temperature: 77 K
Tabular data in the source: 0
pressure (bar)	uptake (wt%)
0.469799	0.090103
1.7226	0.26465
2.34899	0.461783
3.75839	0.726458
7.04698	0.996616
11.1186	1.10896
15.8166	1.18746
20.8277	1.25466
25.8389	1.31623
30.6935	1.38345
35.2349	1.45632
40.2461	1.50099
45.4139	1.56818
50.1119	1.62414
55.2796	1.68006
60.1342	1.74164
64.9888	1.78069
69.8434	1.81973
