Adsorption isotherm of Nitrogen on MCM-41-NH2
DOI: 10.1016/j.jece.2017.02.003
Article source: Figure 4a
Adsorbate Nitrogen: InChIKey IJGRMHOSHXDMSA-UHFFFAOYSA-N
Kind: experiment
Temperature: 77 K
Tabular data in the source: 0
pressure (bar)	uptake (cm3(STP)/g)
0.012139	65.47
0.019779	74.39
0.026274	78.49
0.031472	84.44
0.043529	92.08
0.053743	97.3
0.061109	88.8
0.062163	99
0.068364	101.8
0.076125	104.6
0.083907	106.85
0.103402	118.04
0.109745	113.61
0.122705	122.74
0.139109	131.69
0.156101	142.86
0.1568	138.98
0.175019	150.9
0.201556	169.89
0.215468	178.27
0.240414	182.81
0.251884	187.85
0.281592	188.88
0.309669	192.87
0.328151	192.01
0.361274	194.35
0.375946	196.07
0.420053	196.4
0.425646	198.28
0.451291	199.11
0.455679	198.75
0.503849	199.66
0.504447	200.77
0.548259	200.56
0.553893	200.58
0.596409	202.21
0.602043	202.23
0.642066	203.85
0.660213	203.91
0.680874	203.24
0.695272	203.29
0.728415	204.15
0.746552	204.95
0.776555	206.54
0.786566	206.57
0.799718	206.25
0.820368	206.32
0.837887	206.38
0.844149	206.4
0.863552	206.1
0.871669	206.87
0.884172	207.66
0.897922	208.44
0.91231	208.49
0.933568	209.68
0.952931	211.6
0.961098	209.78
0.964199	211.27
0.974159	213.9
0.977908	214.28
0.994789	215.08
1.00033	219.55
