Adsorption isotherm of Nitrogen on MCM-41
DOI: 10.1016/j.jece.2017.02.003
Article source: Figure 4a
Adsorbate Nitrogen: InChIKey IJGRMHOSHXDMSA-UHFFFAOYSA-N
Kind: experiment
Temperature: 77 K
Tabular data in the source: 0
pressure (bar)	uptake (cm3(STP)/g)
0.010447	149.15
0.012737	159.16
0.018066	165.65
0.030195	180.11
0.03748	188.37
0.050196	198.41
0.058454	207.85
0.071302	211.13
0.084059	219.12
0.099268	228.58
0.100707	230.94
0.119898	240.12
0.135634	248.12
0.156294	258.19
0.162211	260.27
0.179943	267.69
0.189184	277.72
0.195071	281.56
0.234466	323.46
0.249482	342.93
0.281734	419.51
0.303701	439
0.324939	444.66
0.355185	447.71
0.366584	448.63
0.412707	452.32
0.456864	454.53
0.466804	454.27
0.502998	457.63
0.549627	460.44
0.555089	460.46
0.594302	462.07
0.603249	461.81
0.634994	463.68
0.653374	463.75
0.681664	464.73
0.701017	465.68
0.724352	466.35
0.742722	466.7
0.770992	468.57
0.795817	468.95
0.818645	470.2
0.840967	471.46
0.856865	471.51
0.875742	471.29
0.895105	471.35
0.911986	472
0.923902	472.34
0.939769	473.27
0.955637	474.8
0.965546	476.01
0.970004	476.91
0.976418	478.7
0.978394	479.29
0.98728	482.26
0.98876	482.86
0.991698	484.63
0.992661	486.1
0.993157	486.4
