Adsorption isotherm of Carbon Dioxide on activated carbon rods (Norit R1)
DOI: 10.1007/s10450-021-00313-z
Article source: Figure 2a
Adsorbate Carbon Dioxide: InChIKey CURLTUGMZLYLDI-UHFFFAOYSA-N
Kind: experiment
Isotherm type: excess
Temperature: 328 K
Tabular data in the source: 0
pressure (bar)	uptake (mmol/g)
3.83858	0.301239
9.90149	2.31344
6.46965	4.19333
16.3076	6.13765
22.2498	7.5123
29.9523	8.18189
39.5678	8.95176
51.0073	9.35215
58.6018	9.45129
68.0775	9.48294
83.1967	9.31211
100.133	8.73823
113.27	8.098
118.742	6.98951
129.882	5.81277
143.082	5.5081
148.7	5.1714
161.881	4.76606
176.969	4.42745
190.194	4.25701
203.413	4.053
214.751	3.91649
231.745	3.64461
250.651	3.47302
271.471	3.40172
294.172	3.26292
324.442	3.08904
352.838	3.01621
385.008	2.8755
422.866	2.76721
456.949	2.72679
473.975	2.62269
504.264	2.54948
