Adsorption isotherm of Argon on MC
DOI: 10.1007/s10450-021-00313-z
Article source: Figure 3c
Adsorbate Argon: InChIKey XKRFYHLGVUSROY-UHFFFAOYSA-N
Kind: experiment
Temperature: 87 K
Tabular data in the source: 0
pressure (bar)	uptake (cm3(STP)/g)
0.009358	16.2514
0.008745	24.7964
0.007315	44.7347
0.006783	52.1404
0.009644	57.2637
0.012668	60.1083
0.015774	61.8135
0.015692	62.9529
0.022067	64.0847
0.028401	65.7862
0.044338	68.6158
0.057128	70.3098
0.076334	72.566
0.092312	74.8259
0.130806	78.199
0.159656	81.0136
0.169259	82.1417
0.194922	84.3904
0.214128	86.6465
0.239872	87.7559
0.249516	88.3143
0.268845	88.8615
0.284945	89.4124
0.297777	90.5368
0.320293	91.6499
0.333124	92.7742
0.349143	94.4645
0.361974	95.5888
0.384531	96.1323
0.400631	96.6832
0.423066	98.9356
0.451957	101.181
0.487304	103.418
0.500176	103.973
0.522692	105.086
0.545209	106.199
0.554812	107.327
0.596575	110.127
0.609447	110.681
0.660854	114.039
0.676873	115.73
0.702535	117.978
0.715367	119.103
0.734614	120.789
0.763464	123.604
0.782711	125.29
0.805145	127.543
0.827579	129.795
0.84037	131.489
0.849973	132.617
0.878782	136.001
0.888385	137.13
0.901176	138.824
0.920382	141.08
0.946044	143.328
0.974894	146.143
0.978082	146.709
0.050385	74.305
0.092189	76.5349
0.133952	79.3346
0.156509	79.878
0.182213	81.557
0.195044	82.6814
0.220707	84.93
0.243223	86.0431
0.26247	87.7297
0.284904	89.9821
0.310608	91.6611
0.345833	95.6076
0.377952	97.8488
0.406802	100.663
0.442149	102.901
0.471081	104.576
0.490369	105.693
0.5032	106.817
0.532132	108.493
0.548151	110.183
0.557795	110.741
0.570585	112.435
0.596207	115.254
0.624975	119.208
0.644263	120.324
0.669926	122.573
0.679529	123.701
0.7179	128.783
0.749856	133.303
0.785081	137.25
0.813972	139.494
0.84936	141.162
0.868729	141.14
0.894515	141.679
0.929903	143.347
0.939547	143.906
0.971707	145.577
1.0006	147.822
