Adsorption isotherm of Carbon Dioxide on activated carbon rods (Norit R1)
DOI: 10.1007/s10450-021-00313-z
Article source: Figure 2c
Adsorbate Carbon Dioxide: InChIKey CURLTUGMZLYLDI-UHFFFAOYSA-N
Kind: experiment
Isotherm type: absolute
Temperature: 328 K
Tabular data in the source: 0
pressure (bar)	uptake (mol/l)
2.94026	0.407353
6.932	1.32409
8.99603	2.13958
12.9488	2.85225
20.6792	3.3593
28.3706	3.66228
36.062	3.96526
47.5699	4.26669
55.2029	4.26357
62.8359	4.26046
79.9322	3.84531
98.8784	3.1233
110.172	2.30236
127.132	1.17299
138.426	0.352052
151.667	-0.265597
164.947	-0.679181
182.062	-0.992289
183.971	-0.993068
202.995	-1.30695
214.405	-1.51569
233.449	-1.72755
260.028	-2.45268
280.98	-2.66532
317.178	-2.98621
353.376	-3.30711
389.594	-3.52598
427.74	-3.64359
452.527	-3.75574
479.223	-3.86868
507.886	-3.6763
