Adsorption isotherm of Methane on activated carbon rods (Norit R1)
DOI: 10.1007/s10450-021-00313-z
Article source: Figure 2a
Adsorbate Methane: InChIKey VNWKTOKETHGBQD-UHFFFAOYSA-N
Kind: experiment
Isotherm type: excess
Temperature: 328 K
Tabular data in the source: 0
pressure (bar)	uptake (mmol/g)
3.83858	0.301239
8.00763	2.31382
21.6142	4.15672
33.1109	4.8591
44.5949	5.49438
65.4973	5.85929
74.9984	6.02517
84.4932	6.15748
101.557	6.25472
120.489	6.21735
137.515	6.11325
148.84	5.90963
169.635	5.7041
199.892	5.46311
220.674	5.19047
249.044	4.98341
281.207	4.80915
311.446	4.46749
337.915	4.22726
356.816	4.02212
387.08	3.81468
407.9	3.74338
441.938	3.46807
470.334	3.39523
493.047	3.32355
