Adsorption isotherm of Argon on MZ
DOI: 10.1007/s10450-021-00313-z
Article source: Figure 3b
Adsorbate Argon: InChIKey XKRFYHLGVUSROY-UHFFFAOYSA-N
Kind: experiment
Temperature: 87 K
Tabular data in the source: 0
pressure (bar)	uptake (cm3(STP)/g)
0.007221	42.3659
0.001594	57.7412
0.008065	67.0596
0.008196	70.9008
0.008215	71.4496
0.008272	73.0958
0.008347	75.2908
0.008384	76.3883
0.011554	79.1269
0.014705	81.3167
0.014761	82.963
0.014817	84.6092
0.017969	86.7991
0.021101	88.4401
0.021138	89.5376
0.021138	89.5376
0.021195	91.1839
0.033593	93.907
0.033611	94.4557
0.033611	94.4557
0.033611	94.4557
0.04599	96.6301
0.064578	100.44
0.064578	100.44
0.08309	102.056
0.098508	103.127
0.117002	104.194
0.129306	104.173
0.153914	104.132
0.17856	105.188
0.187807	105.721
0.209358	106.234
0.233985	106.742
0.249384	107.264
0.298638	108.279
0.326322	108.233
0.347873	108.746
0.375576	109.248
0.40326	109.201
0.415564	109.181
0.440172	109.14
0.458629	109.109
0.470933	109.088
0.480161	109.072
0.498617	109.041
0.529415	110.087
0.541738	110.615
0.56327	110.579
0.572517	111.113
0.594087	112.174
0.606409	112.702
0.637226	114.297
0.655701	114.815
0.698765	114.742
0.711069	114.722
0.744962	116.311
0.772684	117.362
0.797348	118.967
0.815842	120.034
0.837431	121.644
0.852848	122.715
0.871379	124.879
0.883721	125.956
0.893005	127.587
0.90229	129.218
0.908498	130.854
0.917764	131.936
0.930162	134.659
0.939446	136.29
0.942541	136.833
0.951806	137.915
0.957996	139.002
0.973451	141.172
0.98583	143.346
0.992076	146.079
0.092375	103.686
0.126305	106.373
0.181711	107.378
0.200186	107.896
0.224832	108.952
0.258687	109.444
0.280219	109.408
0.304827	109.367
0.329473	110.423
0.363347	111.464
0.384916	112.525
0.415733	114.12
0.455684	112.955
0.483368	112.909
0.507976	112.867
0.529527	113.38
0.55106	113.344
0.563382	113.872
0.584915	113.836
0.606428	113.251
0.634112	113.204
0.668005	114.794
0.701898	116.383
0.729619	117.434
0.754303	119.588
0.766644	120.665
0.785157	122.28
0.803707	124.993
0.822238	127.157
0.831504	128.239
0.850035	130.403
0.868585	133.116
0.880983	135.839
0.911893	140.177
0.924253	141.803
0.979753	145.551
0.995152	146.074
1.00442	147.156
