Adsorption isotherm of Methane on activated carbon rods (Norit R1)
DOI: 10.1007/s10450-021-00313-z
Article source: Figure 2c
Adsorbate Methane: InChIKey VNWKTOKETHGBQD-UHFFFAOYSA-N
Kind: experiment
Isotherm type: absolute
Temperature: 328 K
Tabular data in the source: 0
pressure (bar)	uptake (mol/l)
2.92079	0.30532
6.85412	0.915959
10.729	1.2205
18.4204	1.52348
24.2036	1.82724
47.2389	2.53213
62.5438	2.72996
85.326	2.10842
108.205	1.99704
132.993	1.88488
148.22	1.67458
174.799	0.949451
222.428	0.521847
243.36	0.207181
268.05	-0.415141
302.379	-0.531194
332.834	-0.951788
363.366	-0.96425
389.964	-1.58735
412.824	-1.80076
435.723	-1.81011
471.98	-1.82491
494.82	-2.14035
