Adsorption isotherm of Argon on ZIF
DOI: 10.1007/s10450-021-00313-z
Article source: Figure 3a
Adsorbate Argon: InChIKey XKRFYHLGVUSROY-UHFFFAOYSA-N
Kind: experiment
Temperature: 87 K
Tabular data in the source: 0
pressure (bar)	uptake (cm3(STP)/g)
0.003765	16.8703
0.007481	24.3656
0.011198	31.8608
0.018251	36.8518
0.018751	49.9762
0.015606	57.4802
0.019347	65.6004
0.023088	73.7207
0.030307	83.0865
0.030617	91.2111
0.020943	107.473
0.007815	123.115
0.01158	131.86
0.015225	137.481
0.022444	146.846
0.022444	146.846
0.043149	149.945
0.043149	149.945
0.04658	149.941
0.053442	149.932
0.060328	150.548
0.063783	151.169
0.084369	151.143
0.104979	151.741
0.12211	151.095
0.139265	151.073
0.166689	150.413
0.194113	149.753
0.204406	149.74
0.224992	149.714
0.259373	151.545
0.279959	151.518
0.307478	153.358
0.338357	153.319
0.352081	153.302
0.369236	153.28
0.382984	153.887
0.400163	154.49
0.420796	155.714
0.44143	156.938
0.475835	159.394
0.496469	160.618
0.530874	163.074
0.565112	161.155
0.571974	161.146
0.609715	161.098
0.633732	161.068
0.668066	161.649
0.68179	161.632
0.712668	161.592
0.740116	161.557
0.746978	161.549
0.777881	162.134
0.805353	162.724
0.81567	163.336
0.856865	163.909
0.863727	163.9
0.894582	163.236
0.904875	163.222
0.925485	163.821
0.935778	163.808
0.952957	164.411
0.963273	165.023
0.970159	165.639
0.973638	166.885
0.977093	167.505
0.122157	152.344
0.163377	153.542
0.197711	154.123
0.249295	157.183
0.266473	157.786
0.290657	162.13
0.307812	162.108
0.338715	162.694
0.362755	163.288
0.386772	163.257
0.407358	163.231
0.438285	164.442
0.47948	165.014
0.496635	164.992
0.537807	164.94
0.554962	164.918
0.596086	163.616
0.633827	163.568
0.654413	163.541
0.688723	163.498
0.705878	163.476
0.729895	163.445
0.760798	164.031
0.801993	164.604
0.846644	165.797
0.867254	166.395
0.884408	166.374
0.898132	166.356
0.935873	166.308
0.956507	167.532
0.970278	168.764
0.970278	168.764
