Adsorption isotherm of Nitrogen on MOF-253
DOI: 10.1039/c4cc09933h
Article source: Figure S4
Adsorbate Nitrogen: InChIKey IJGRMHOSHXDMSA-UHFFFAOYSA-N
Kind: experiment
Temperature: 77 K
Tabular data in the source: 0
pressure (bar)	uptake (cm3(STP)/g)
0.000129	37.2984
0.000751	217.742
0.001766	12.0968
0.002433	205.645
0.002517	229.839
0.002555	240.927
0.002593	252.016
0.00267	274.194
0.004356	263.105
0.006167	288.306
0.009629	292.339
0.011388	302.419
0.014853	307.46
0.026957	317.54
0.030395	314.516
0.035592	321.573
0.044219	323.589
0.051123	325.605
0.058012	323.589
0.059761	330.645
0.073543	327.621
0.090792	329.637
0.104585	329.637
0.104599	333.669
0.132182	332.661
0.14944	337.702
0.159771	333.669
0.171858	338.71
0.178758	339.718
0.183913	334.677
0.187378	339.718
0.192554	340.726
0.19944	337.702
0.227037	340.726
0.232202	338.71
0.25463	342.742
0.26324	339.718
0.280482	339.718
0.316706	344.758
0.332209	340.726
0.377054	345.766
0.421875	343.75
0.423606	345.766
0.480496	343.75
0.501203	348.79
0.540847	345.766
0.561551	349.798
0.599472	346.774
0.623627	351.815
0.661544	347.782
0.718448	349.798
0.766744	355.847
0.770175	350.806
0.808113	352.823
0.837437	356.855
0.851248	361.895
0.87021	360.887
0.88402	365.927
0.901258	364.919
0.916814	376.008
0.925403	366.935
0.937503	376.008
0.958228	386.089
0.961694	391.129
0.994647	447.581
0.994657	450.605
