Adsorption isotherm of Nitrogen on MOF-253-900
DOI: 10.1039/c4cc09933h
Article source: Figure S7
Adsorbate Nitrogen: InChIKey IJGRMHOSHXDMSA-UHFFFAOYSA-N
Kind: experiment
Temperature: 77 K
Tabular data in the source: 0
pressure (bar)	uptake (cm3(STP)/g)
0.008333	0.008333
0.013333	52.899
0.021667	53.8345
0.028333	54.7686
0.035	55.7026
0.041667	56.6366
0.048333	57.5706
0.06	58.5093
0.071667	54.8088
0.088333	56.6799
0.103333	61.333
0.118333	57.6356
0.123333	60.4237
0.128333	60.4284
0.135	60.4345
0.151667	62.3057
0.171667	64.1799
0.18	65.1155
0.196667	66.0588
0.225	65.1572
0.256667	67.9701
0.281667	67.0655
0.298333	68.9366
0.33	69.8938
0.376667	72.7206
0.478333	75.5985
0.5	88.6082
0.54	79.367
0.565	93.3077
0.598333	82.2046
0.623333	95.2175
0.663333	85.9763
0.683333	98.9845
0.745	101.825
0.771667	96.283
0.818333	109.316
0.841667	103.771
0.85	113.057
0.87	110.292
0.885	119.584
0.9	117.742
0.918333	131.677
0.921667	124.257
0.941667	134.482
0.951667	154.904
0.96	149.344
0.97	163.271
0.981667	183.694
0.99	217.104
0.995	258.861
