Adsorption isotherm of Nitrogen on Mg-A
DOI: 10.1039/c4cc09933h
Article source: Figure S4
Adsorbate Nitrogen: InChIKey IJGRMHOSHXDMSA-UHFFFAOYSA-N
Kind: experiment
Temperature: 77 K
Tabular data in the source: 0
pressure (bar)	uptake (cm3(STP)/g)
0.000254	73.5887
0.000295	85.6855
0.000323	93.75
0.00179	19.1532
0.001874	43.3468
0.002075	101.815
0.002127	116.935
0.002214	142.137
0.002266	157.258
0.002405	197.581
0.005784	177.419
0.007627	211.694
0.012834	221.774
0.018051	234.879
0.026686	238.911
0.043938	241.935
0.06119	244.96
0.066334	236.895
0.071513	238.911
0.090496	243.952
0.102569	244.96
0.10259	251.008
0.131886	246.976
0.147435	256.048
0.199159	256.048
0.225024	257.056
0.256066	259.073
0.29918	262.097
0.333659	261.089
0.375045	263.105
0.419873	263.105
0.426776	265.121
0.480221	264.113
0.500942	273.185
0.540573	266.129
0.561294	275.202
0.599197	267.137
0.621649	278.226
0.659559	272.177
0.683721	279.234
0.718187	274.194
0.745811	285.282
0.769925	278.226
0.80787	282.258
0.807894	289.315
0.821694	291.331
0.830291	284.274
0.84926	285.282
0.851018	295.363
0.868239	289.315
0.885526	302.419
0.899301	297.379
0.916595	312.5
0.920012	303.427
0.939009	312.5
0.947702	333.669
0.959757	329.637
0.971868	341.734
0.978834	361.895
0.991007	392.137
0.99457	425.403
