Adsorption isotherm of Nitrogen on MG-B
DOI: 10.1039/c4cc09933h
Article source: Figure S4
Adsorbate Nitrogen: InChIKey IJGRMHOSHXDMSA-UHFFFAOYSA-N
Kind: experiment
Temperature: 77 K
Tabular data in the source: 0
pressure (bar)	uptake (cm3(STP)/g)
5.2e-05	15.121
8.7e-05	25.2016
0.000129	37.2984
0.00017	49.3952
0.000209	60.4839
0.000316	91.7339
0.000508	147.177
0.00066	191.532
0.002312	170.363
0.00235	181.452
0.00414	200.605
0.004175	210.685
0.011103	219.758
0.016292	224.798
0.021486	230.847
0.026665	232.863
0.033583	238.911
0.047383	240.927
0.05601	242.944
0.057717	237.903
0.069803	242.944
0.081872	242.944
0.100845	244.96
0.100855	247.984
0.128438	246.976
0.147417	251.008
0.159479	248.992
0.168114	253.024
0.176735	253.024
0.185359	254.032
0.193979	254.032
0.223293	255.04
0.254331	256.048
0.259497	254.032
0.280186	254.032
0.297438	257.056
0.33019	255.04
0.376752	258.065
0.421576	257.056
0.426759	260.081
0.478476	258.065
0.499204	269.153
0.538824	259.073
0.561276	270.161
0.597452	261.089
0.621625	271.169
0.659524	262.097
0.681973	272.177
0.718149	263.105
0.744049	274.194
0.766435	266.129
0.787156	275.202
0.802649	268.145
0.818197	277.218
0.83887	272.177
0.847515	279.234
0.868187	274.194
0.880291	284.274
0.897522	281.25
0.914794	290.323
0.916491	282.258
0.938943	293.347
0.952802	312.5
0.957943	303.427
0.97005	314.516
0.978706	324.597
0.987406	347.782
0.994386	371.976
