Adsorption isotherm of Nitrogen on MG-B-900
DOI: 10.1039/c4cc09933h
Article source: Figure S7
Adsorbate Nitrogen: InChIKey IJGRMHOSHXDMSA-UHFFFAOYSA-N
Kind: experiment
Temperature: 77 K
Tabular data in the source: 0
pressure (bar)	uptake (cm3(STP)/g)
0.001667	0.001667
0.006667	35.2639
0.008333	39.9046
0.01	41.7619
0.016667	43.6237
0.025	45.4871
0.031667	43.6376
0.035	47.3521
0.043333	47.3598
0.051667	49.2232
0.058333	48.3015
0.063333	46.4505
0.071667	47.3861
0.08	48.3216
0.091667	49.2603
0.101667	48.3418
0.103333	52.0546
0.113333	50.2082
0.12	50.2144
0.131667	53.0088
0.146667	53.0227
0.148333	53.9521
0.155	53.0304
0.166667	55.8247
0.178333	53.9799
0.185	54.9139
0.188333	55.8448
0.196667	55.8526
0.203333	55.8588
0.223333	59.5887
0.231667	57.7407
0.236667	60.5289
0.26	58.6948
0.28	60.5691
0.298333	62.4418
0.331667	62.4727
0.376667	66.2258
0.421667	63.484
0.426667	68.1278
0.483333	66.3247
0.5	93.2474
0.541667	68.2345
0.563333	97.9454
0.6	72
0.625	101.714
0.661667	77.6242
0.686667	106.41
0.721667	85.1026
0.746667	112.961
0.77	94.4258
0.79	118.568
0.805	100.025
0.818333	123.234
0.843333	111.195
0.851667	129.759
0.87	121.426
0.883333	140.923
0.9	134.443
0.918333	163.223
0.92	146.524
0.941667	163.245
0.951667	212.429
0.96	192.953
0.97	221.725
0.98	267.198
0.99	339.578
0.995	426.799
