Adsorption isotherm of Nitrogen on MG-A-900
DOI: 10.1039/c4cc09933h
Article source: Figure S7
Adsorbate Nitrogen: InChIKey IJGRMHOSHXDMSA-UHFFFAOYSA-N
Kind: experiment
Temperature: 77 K
Tabular data in the source: 0
pressure (bar)	uptake (cm3(STP)/g)
0.001667	11.1356
0.003333	22.2711
0.008333	44.5438
0.013333	48.2598
0.03	49.2031
0.038333	50.1387
0.046667	51.0742
0.056667	51.0835
0.075	50.1727
0.088333	52.9686
0.103333	55.766
0.111667	55.7737
0.125	54.8582
0.13	54.8629
0.148333	57.6634
0.175	59.5438
0.185	60.4809
0.193333	62.3443
0.225	64.2294
0.256667	66.1144
0.278333	64.2789
0.296667	68.9351
0.33	66.1825
0.38	72.7237
0.42	71.833
0.426667	78.334
0.48	75.6
0.501667	100.672
0.54	79.367
0.561667	105.366
0.6	83.134
0.623333	108.207
0.66	88.7567
0.685	113.831
0.72	95.3072
0.746667	117.6
0.771667	104.634
0.79	123.207
0.805	110.231
0.82	128.802
0.84	117.687
0.851667	135.326
0.87	126.993
0.886667	146.493
0.898333	140.009
0.92	149.307
0.923333	174.362
0.938333	163.242
0.956667	230.063
0.958333	190.168
0.97	216.158
0.98	254.208
0.988333	321.02
0.995	403.604
