Adsorption isotherm of Nitrogen on C1NPs
DOI: 10.1007/s10450-018-9983-9
Article source: Figure 1
Adsorbate Nitrogen: InChIKey IJGRMHOSHXDMSA-UHFFFAOYSA-N
Kind: experiment
Temperature: 77 K
Tabular data in the source: 0
pressure (bar)	uptake (cm3(STP)/g)
0.052331	127.801
0.056123	133.192
0.067499	140.169
0.075842	143.975
0.093286	148.097
0.119072	152.854
0.146375	156.977
0.192639	162.685
0.242695	167.759
0.291992	173.15
0.338256	178.224
0.387553	183.615
0.4323	187.738
0.482356	194.08
0.528619	200.74
0.5764	208.668
0.625697	219.133
0.673478	231.818
0.722016	248.626
0.769797	271.142
0.822886	293.975
0.845639	299.683
0.910105	302.537
0.954852	303.488
0.976087	304.123
0.996565	304.44
0.094803	151.586
0.144858	159.514
0.244211	169.979
0.325362	178.541
0.421682	188.372
0.478563	198.203
0.528619	219.767
0.579433	265.116
0.629489	295.243
0.673478	300
0.721258	301.268
0.769797	300.951
0.817577	302.22
0.866116	302.537
0.913138	303.171
0.923756	303.488
0.932857	303.488
0.961677	304.44
0.985947	304.757
1.00794	305.074
