Adsorption isotherm of Carbon Dioxide on C2NPs
DOI: 10.1007/s10450-018-9983-9
Article source: Figure 2
Adsorbate Carbon Dioxide: InChIKey CURLTUGMZLYLDI-UHFFFAOYSA-N
Kind: experiment
Temperature: 273 K
Tabular data in the source: 0
pressure (bar)	uptake (cm3(STP)/g)
0.000709	15.9825
0.001473	25.1528
0.00191	29.476
0.002619	35.6332
0.003274	40.2183
0.003956	44.4105
0.00461	48.0786
0.005292	51.6157
0.005947	54.8908
0.006629	57.6419
0.007256	60.393
0.007911	63.0131
0.008566	65.3712
0.009193	67.5983
0.009875	69.6943
0.010503	71.7904
0.011185	74.0175
0.011839	75.9825
0.012494	77.8166
0.013122	79.6507
0.013804	81.3537
0.014486	83.0568
0.015113	84.7598
0.015795	86.3319
0.016422	87.7729
0.017077	89.214
0.017759	90.786
0.018441	92.0961
0.019041	93.4061
0.019723	94.9782
0.020378	96.2882
0.02106	97.5983
0.02166	98.9083
0.022342	99.9563
0.022997	101.135
0.023597	102.314
0.024334	103.624
0.024961	104.803
0.025643	105.852
0.02627	106.9
0.026925	108.079
0.02758	108.996
0.028289	110.306
0.028917	111.223
0.029571	112.271
0.030226	113.188
0.030417	113.581
0.030881	114.367
0.031508	115.415
0.032163	116.332
0.032845	117.249
0.0335	118.166
0.034182	119.214
0.034809	120.131
0.035409	121.048
