Adsorption isotherm of Nitrogen on C3NPs
DOI: 10.1007/s10450-018-9983-9
Article source: Figure 1
Adsorbate Nitrogen: InChIKey IJGRMHOSHXDMSA-UHFFFAOYSA-N
Kind: experiment
Temperature: 77 K
Tabular data in the source: 0
pressure (bar)	uptake (cm3(STP)/g)
0.053089	186.319
0.059157	196.743
0.067499	201.954
0.078876	207.166
0.094803	209.772
0.118314	213.681
0.1441	217.59
0.193397	224.104
0.241178	229.316
0.290475	229.316
0.338256	234.528
0.386795	239.739
0.433058	244.951
0.482356	247.557
0.529378	250.163
0.579433	254.072
0.626455	256.678
0.675753	261.889
0.723533	264.495
0.772831	272.313
0.82137	282.736
0.845639	287.948
0.868392	290.554
0.891144	299.674
0.916931	315.309
0.933616	332.248
0.950301	351.792
0.961677	372.638
0.972295	405.212
0.985947	523.779
0.995806	965.472
0.095561	220.195
0.143342	225.407
0.241178	235.831
0.337497	242.345
0.433817	250.163
0.482356	254.072
0.530136	256.678
0.577917	259.283
0.626455	264.495
0.674994	268.404
0.723533	276.221
0.774347	281.433
0.822886	289.251
0.866116	302.28
0.915414	324.43
0.923756	334.853
0.937408	351.792
0.944992	360.912
0.957127	402.606
0.966228	456.026
0.972295	499.023
0.977604	585.016
0.983672	1043.65
0.985947	1163.52
0.985947	1111.4
0.989739	1201.3
0.992014	1233.88
1.00111	1254.72
