Adsorption isotherm of Carbon Dioxide on C3NPs
DOI: 10.1007/s10450-018-9983-9
Article source: Figure 2
Adsorbate Carbon Dioxide: InChIKey CURLTUGMZLYLDI-UHFFFAOYSA-N
Kind: experiment
Temperature: 273 K
Tabular data in the source: 0
pressure (bar)	uptake (cm3(STP)/g)
0.000737	11.1354
0.001391	16.5065
0.001937	20.0437
0.002646	23.9738
0.003328	27.1179
0.003956	30
0.004638	32.6201
0.005292	34.8472
0.005947	36.9432
0.006602	39.0393
0.007256	40.8734
0.007938	42.5764
0.00862	44.1485
0.009248	45.7205
0.009903	47.1616
0.010557	48.4716
0.011212	49.7817
0.011867	51.0917
0.012521	52.4017
0.013149	53.5808
0.013831	54.6288
0.014486	55.6769
0.015113	56.7249
0.015795	57.7729
0.01645	58.952
0.017104	59.869
0.017786	60.655
0.018441	61.5721
0.019069	62.4891
0.019696	63.4061
0.020378	64.3231
0.021033	65.1092
0.021687	66.0262
0.022369	66.8122
0.022997	67.5983
0.023624	68.3843
0.024306	69.1703
0.024961	69.9563
0.025616	70.7424
0.026298	71.3974
0.026952	72.1834
0.027607	72.8384
0.028262	73.7555
0.028889	74.2795
0.029571	75.0655
0.030171	75.5895
0.03039	75.8515
0.030881	76.3755
0.031535	77.1616
0.032163	77.5546
0.032845	78.4716
0.0335	78.9956
0.034154	79.5197
0.034809	80.3057
0.035464	80.8297
