Adsorption isotherm of Nitrogen on C2NPs
DOI: 10.1007/s10450-018-9983-9
Article source: Figure 1
Adsorbate Nitrogen: InChIKey IJGRMHOSHXDMSA-UHFFFAOYSA-N
Kind: experiment
Temperature: 77 K
Tabular data in the source: 0
pressure (bar)	uptake (cm3(STP)/g)
0.050776	158.071
0.05987	167.208
0.069723	173.604
0.079575	179.086
0.094732	182.741
0.119741	187.31
0.143234	190.051
0.190979	196.447
0.24024	201.015
0.290258	206.497
0.337245	210.152
0.38499	215.635
0.431976	221.117
0.480479	224.772
0.528224	230.254
0.576726	236.65
0.624471	243.959
0.673732	252.183
0.720719	259.492
0.767705	274.112
0.81545	292.386
0.842733	301.523
0.866984	318.883
0.88972	344.467
0.910182	378.274
0.930644	436.751
0.950348	573.807
0.957169	662.437
0.985209	839.695
0.09549	188.223
0.143234	195.533
0.239482	204.67
0.336487	215.635
0.431976	224.772
0.479721	229.34
0.527466	235.736
0.577484	239.391
0.625229	247.614
0.676763	254.924
0.709351	261.32
0.763158	275.025
0.814692	295.127
0.918518	493.401
0.926097	684.365
0.936707	827.817
0.945043	837.868
0.951864	840.609
0.97081	844.264
0.990514	847.919
1.00946	858.883
