Adsorption isotherm of Carbon Dioxide on C1NPs
DOI: 10.1007/s10450-018-9983-9
Article source: Figure 2
Adsorbate Carbon Dioxide: InChIKey CURLTUGMZLYLDI-UHFFFAOYSA-N
Kind: experiment
Temperature: 273 K
Tabular data in the source: 0
pressure (bar)	uptake (cm3(STP)/g)
2.7e-05	1.17904
0.000682	9.56332
0.001337	14.4105
0.00191	17.8166
0.002646	21.2227
0.003301	23.9738
0.003983	26.4629
0.004638	28.4279
0.005292	30.393
0.005947	32.2271
0.006602	33.7991
0.007256	35.3712
0.007911	36.8122
0.008566	38.1223
0.009221	39.3013
0.009875	40.6114
0.01053	41.7904
0.011185	42.9694
0.011839	44.0175
0.012494	44.9345
0.013176	45.9825
0.013804	46.8996
0.014486	47.8166
0.01514	48.7336
0.015795	49.6507
0.01645	50.4367
0.017104	51.2227
0.017759	52.0087
0.018387	52.7948
0.019069	53.5808
0.019723	54.3668
0.020378	55.0218
0.021033	55.6769
0.021687	56.4629
0.022342	57.1179
0.022997	57.7729
0.023624	58.4279
0.024306	59.083
0.024961	59.607
0.025643	60.262
0.02627	60.786
0.026925	61.441
0.02758	61.9651
0.028235	62.6201
0.028917	63.1441
0.029544	63.6681
0.030117	63.9301
0.030362	64.3231
0.030881	64.8472
0.031508	65.5022
0.032163	65.8952
0.032845	66.4192
0.0335	66.9432
0.034127	67.4672
0.034782	67.8603
0.035409	68.3843
