Adsorption isotherm of Carbon Dioxide on CuBTC
DOI: 10.1007/s00894-010-0720-x
Adsorbate Carbon Dioxide: InChIKey CURLTUGMZLYLDI-UHFFFAOYSA-N
Temperature: 298 K
Tabular data in the source: 0
pressure (bar)	uptake (mmol/g)
0.472159	2.75862
1.10583	4.78161
1.46156	6.2069
2.05749	7.35632
3.09129	9.01149
4.04696	9.97701
5.12309	10.6667
6.0401	11.1264
7.11703	11.4943
8.11435	11.7701
9.1517	12
10.1892	12.1839
11.1868	12.3218
12.2642	12.5057
13.262	12.5977
14.1799	12.6897
14.978	12.8276
