Adsorption isotherm of Carbon Dioxide on CuBTC
DOI: 10.1007/s00894-010-0720-x
Adsorbate Carbon Dioxide: InChIKey CURLTUGMZLYLDI-UHFFFAOYSA-N
Temperature: 298 K
Tabular data in the source: 0
pressure (bar)	uptake (mmol/g)
0.198454	0.45977
0.316723	1.05747
0.474798	1.70115
0.990433	3.03448
2.93654	7.03448
4.96387	10.4828
7.99355	12.1839
9.98692	13.2414
14.9347	14.1609
