Adsorption isotherm of Carbon Dioxide on IRMOF-1
DOI: 10.1007/s00894-010-0720-x
Adsorbate Carbon Dioxide: InChIKey CURLTUGMZLYLDI-UHFFFAOYSA-N
Temperature: 298 K
Tabular data in the source: 0
pressure (bar)	uptake (mmol/g)
0.0650294	0.461095
1.04103	5.99424
2.99211	19.366
5.07267	35.0432
8.77522	71.4697
10.0093	83.9193
12.5454	101.902
14.9519	118.04
17.5572	126.34
20.0326	133.256
22.7701	137.406
25.703	142.017
28.4402	146.628
30.0047	148.473
