Adsorption isotherm of Carbon Dioxide on IRMOF-1
DOI: 10.1007/s00894-010-0720-x
Adsorbate Carbon Dioxide: InChIKey CURLTUGMZLYLDI-UHFFFAOYSA-N
Temperature: 298 K
Tabular data in the source: 0
pressure (bar)	uptake (mmol/g)
0.0650294	0.461095
1.04103	5.99424
2.99211	19.366
5.07267	35.0432
7.47538	60.4035
10.0734	86.6859
12.4146	102.824
14.9511	119.885
20.0973	134.64
24.9856	142.017
30.0695	149.395
