Adsorption isotherm of Carbon Dioxide on CuBTC
DOI: 10.1007/s00894-010-0720-x
Adsorbate Carbon Dioxide: InChIKey CURLTUGMZLYLDI-UHFFFAOYSA-N
Temperature: 298 K
Tabular data in the source: 0
pressure (bar)	uptake (mmol/g)
0.198454	0.45977
0.356643	1.05747
0.554753	1.65517
1.07073	2.85057
2.97646	7.03448
5.00413	10.3448
7.99355	12.1839
9.98761	12.9655
14.9751	13.977
