Adsorption isotherm of Nitrogen on SBA-15
DOI: 10.1039/C3ra40741a
Adsorbate Nitrogen: InChIKey IJGRMHOSHXDMSA-UHFFFAOYSA-N
Temperature: 77 K
Tabular data in the source: 0
pressure (bar)	uptake (cm3(STP)/g)
0.00887653	98.9277
0.0759945	148.506
0.242632	191.687
0.432414	238.067
0.585165	284.446
0.677741	321.23
0.714772	348.418
0.765689	583.515
0.849008	620.299
0.930012	633.093
0.9763	644.288
1.01102	689.068
