Adsorption isotherm of Nitrogen on MIL-100(Al) Aerogel
DOI: 10.1039/C3ra40741a
Adsorbate Nitrogen: InChIKey IJGRMHOSHXDMSA-UHFFFAOYSA-N
Temperature: 77 K
Tabular data in the source: 0
pressure (bar)	uptake (cm3(STP)/g)
0.0412783	355.108
0.113025	428.218
0.346781	565.301
0.508789	674.967
0.663855	793.772
0.763375	894.299
0.81892	967.41
0.872152	1104.49
0.91844	1268.99
0.93927	1451.77
0.964728	1771.63
0.992501	2265.13
1.00639	3169.87
