Adsorption isotherm of Nitrogen on MIL-100(Al) Xerogel
DOI: 10.1039/C3ra40741a
Adsorbate Nitrogen: InChIKey IJGRMHOSHXDMSA-UHFFFAOYSA-N
Temperature: 77 K
Tabular data in the source: 0
pressure (bar)	uptake (cm3(STP)/g)
0.0019333	209.867
0.0135054	298.97
0.0343351	367.512
0.0968242	433.768
0.205601	493.171
0.362981	568.566
0.555078	666.809
0.668484	739.919
0.763375	794.752
0.830492	808.461
0.913811	819.884
0.99713	833.592
