Adsorption isotherm of N-Pentane on Zeolite Na-Y
DOI: 10.1021/Jp810209t
Adsorbate N-Pentane: InChIKey OFBQJSOFQDEBGM-UHFFFAOYSA-N
Temperature: 298 K
Tabular data in the source: 0
pressure (bar)	uptake (molecules/unitcell)
0.000728	12.0243
0.000894	7.01407
0.00106094	2.23687
0.00122739	23.2682
0.00239256	27.1133
0.0040571	27.8124
0.011381	29.3854
0.020536	30.0845
0.0624822	32.0653
0.0807921	32.2983
