Adsorption isotherm of N-Pentane on Zeolite Na-Y
DOI: 10.1021/Jp810209t
Adsorbate N-Pentane: InChIKey OFBQJSOFQDEBGM-UHFFFAOYSA-N
Temperature: 298 K
Tabular data in the source: 0
pressure (bar)	uptake (molecules/unitcell)
0.000229	20.0058
0.000728	12.7817
0.000728	24.0839
0.000894	4.97502
0.000894	7.94621
0.00139384	0.256072
0.00305838	26.1229
0.00572163	27.1716
0.0105488	28.395
0.0167075	29.1524
0.041842	30.2593
0.0837882	31.4244
