Adsorption isotherm of Water on Zeolite Na-Y
DOI: 10.1021/Jp810209t
Adsorbate Water: InChIKey XLYOFNOQVPJJNP-UHFFFAOYSA-N
Temperature: 298 K
Tabular data in the source: 0
pressure (bar)	uptake (molecules/unitcell)
4.01e-07	2.05998
1.06e-06	9.40116
1.93e-06	15.4314
4.33e-06	26.4432
6.08e-06	32.4734
9.58e-06	40.339
1.37e-05	47.6801
1.94e-05	55.2835
4.08e-05	74.423
5.09e-05	81.502
6.03e-05	85.1726
