Adsorption isotherm of N-Pentane on Zeolite Na-Y
DOI: 10.1021/Jp810209t
Adsorbate N-Pentane: InChIKey OFBQJSOFQDEBGM-UHFFFAOYSA-N
Temperature: 298 K
Tabular data in the source: 0
pressure (bar)	uptake (molecules/unitcell)
2.02e-05	1.40479
3.67e-05	2.66983
5.03e-05	3.71849
6.81e-05	5.23321
8.01e-05	6.48161
