Adsorption isotherm of Water on Zeolite Na-Y
DOI: 10.1021/Jp810209t
Adsorbate Water: InChIKey XLYOFNOQVPJJNP-UHFFFAOYSA-N
Temperature: 298 K
Tabular data in the source: 0
pressure (bar)	uptake (molecules/unitcell)
9.96e-09	4.80025
1.1e-07	6.54801
1.07e-06	8.12099
1.14e-05	11.0922
9.37e-05	15.6364
0.000506	17.6171
0.00068	25.3655
0.000913	26.589
0.0018691	29.0941
0.00514126	30.1428
0.0277628	30.2593
