Adsorption isotherm of Water on Zeolite Na-Y
DOI: 10.1021/Jp810209t
Adsorbate Water: InChIKey XLYOFNOQVPJJNP-UHFFFAOYSA-N
Temperature: 298 K
Tabular data in the source: 0
pressure (bar)	uptake (molecules/unitcell)
9.62e-08	7.1885
1.02e-06	14.6789
1.08e-05	29.6597
0.000109	49.1347
0.000558	71.1066
0.00077	128.533
0.00109119	146.51
0.00225164	200.441
0.00503559	226.907
0.0101157	239.89
0.023238	262.361
