Adsorption isotherm of N-Pentane on Zeolite NaY
DOI: 10.1021/Jp810209t
Adsorbate N-Pentane: InChIKey OFBQJSOFQDEBGM-UHFFFAOYSA-N
Temperature: 298 K
Tabular data in the source: 0
pressure (bar)	uptake (molecules/unitcell)
1.23e-06	0.0565182
2.04e-05	0.0898089
4.42e-05	0.938721
7.15e-05	1.90415
9.53e-05	5.05012
