Adsorption isotherm of Water on Zeolite Na-Y
DOI: 10.1021/Jp810209t
Adsorbate Water: InChIKey XLYOFNOQVPJJNP-UHFFFAOYSA-N
Temperature: 298 K
Tabular data in the source: 0
pressure (bar)	uptake (molecules/unitcell)
0.000251	83.1499
0.000317	40.5449
0.000382	7.7718
0.000382	24.8138
0.000382	62.8306
0.000579	153.284
0.00110349	183.436
0.0035287	215.553
0.00615055	225.385
0.00923122	229.973
0.0184732	241.116
0.0244379	247.016
