Adsorption isotherm of N-Pentane on Zeolite Na-Y
DOI: 10.1021/Jp810209t
Adsorbate N-Pentane: InChIKey OFBQJSOFQDEBGM-UHFFFAOYSA-N
Temperature: 298 K
Tabular data in the source: 0
pressure (bar)	uptake (molecules/unitcell)
9.88e-06	0.972011
3.02e-05	1.78763
4.02e-05	2.56996
6.02e-05	4.66727
8e-05	5.9989
9.13e-05	7.13078
