Adsorption isotherm of Water on Zeolite Na-Y
DOI: 10.1021/Jp810209t
Adsorbate Water: InChIKey XLYOFNOQVPJJNP-UHFFFAOYSA-N
Temperature: 298 K
Tabular data in the source: 0
pressure (bar)	uptake (molecules/unitcell)
5.62e-08	4.93322
1.56e-07	7.82951
1.05e-06	12.3237
2.05e-06	15.5196
4.05e-06	20.1138
6.07e-06	23.01
8.01e-06	25.2072
9.98e-06	26.8052
