Adsorption isotherm of Water on Zeolite Na-Y
DOI: 10.1021/Jp810209t
Adsorbate Water: InChIKey XLYOFNOQVPJJNP-UHFFFAOYSA-N
Temperature: 298 K
Tabular data in the source: 0
pressure (bar)	uptake (molecules/unitcell)
1.22e-08	3.69299
1.04e-07	4.19235
1.02e-06	4.6917
1.17e-05	7.68786
0.0001	12.6815
0.000529	13.1808
0.00103419	26.1642
0.00207751	28.1616
0.00503559	28.661
0.0106733	28.1616
0.0329361	27.6623
