Adsorption isotherm of N-Pentane on Zeolite Na-Y
DOI: 10.1021/Jp810209t
Adsorbate N-Pentane: InChIKey OFBQJSOFQDEBGM-UHFFFAOYSA-N
Temperature: 298 K
Tabular data in the source: 0
pressure (bar)	uptake (molecules/unitcell)
0.000838	10.9244
0.000838	15.742
0.00105646	20.8655
0.0021489	27.5949
0.00717411	28.8949
0.0128548	29.5832
0.0172245	29.9655
0.026401	30.7302
0.0471573	31.2655
0.061359	31.9538
0.078838	32.0302
0.0919472	32.642
