Adsorption isotherm of Water on Zeolite Na-Y
DOI: 10.1021/Jp810209t
Adsorbate Water: InChIKey XLYOFNOQVPJJNP-UHFFFAOYSA-N
Temperature: 298 K
Tabular data in the source: 0
pressure (bar)	uptake (molecules/unitcell)
3.22e-07	3.19363
8.01e-07	6.18978
1.61e-06	14.6789
5.24e-06	28.1616
2e-05	51.6315
6.18e-05	80.5944
0.000158	114.051
0.000363	137.022
0.00073	170.979
0.00124785	195.447
0.00310684	210.428
0.0118824	229.903
0.0238699	242.387
