Adsorption isotherm of Water on Zeolite Na-Y
DOI: 10.1021/Jp810209t
Adsorbate Water: InChIKey XLYOFNOQVPJJNP-UHFFFAOYSA-N
Temperature: 298 K
Tabular data in the source: 0
pressure (bar)	uptake (molecules/unitcell)
1.03e-11	7.30537
1.35e-10	8.58706
1.26e-09	10.2766
1.04e-08	12.3156
9.71e-08	14.646
1.22e-06	15.9276
1.19e-05	19.4814
9.77e-05	22.5691
0.000952	27.2298
0.00399218	27.4046
0.0109811	28.395
0.0302053	29.3854
