Adsorption isotherm of Water on Zeolite Na-Y
DOI: 10.1021/Jp810209t
Adsorbate Water: InChIKey XLYOFNOQVPJJNP-UHFFFAOYSA-N
Temperature: 298 K
Tabular data in the source: 0
pressure (bar)	uptake (molecules/unitcell)
1.23e-07	2.83591
3.56e-07	5.43258
5.39e-07	7.33015
7.22e-07	9.22771
1.04e-06	10.526
1.39e-06	15.1202
3.1e-06	22.3109
4.03e-06	26.9051
5.07e-06	30.101
6.08e-06	32.9972
8.03e-06	37.1919
1e-05	40.4876
