Adsorption isotherm of Water on Zeolite Na-Y
DOI: 10.1021/Jp810209t
Adsorbate Water: InChIKey XLYOFNOQVPJJNP-UHFFFAOYSA-N
Temperature: 298 K
Tabular data in the source: 0
pressure (bar)	uptake (molecules/unitcell)
1.39e-07	7.1304
1.39e-07	11.5248
1.39e-07	14.8205
1.73e-07	21.8116
1e-06	33.8961
1.99e-06	39.5888
4.08e-06	44.5824
6e-06	46.9793
8.1e-06	48.5773
9.99e-06	50.7744
