Adsorption isotherm of Methane on MONT 5
DOI: 10.1021/Ja5042226
Adsorbate Methane: InChIKey VNWKTOKETHGBQD-UHFFFAOYSA-N
Temperature: 298 K
Tabular data in the source: 0
pressure (bar)	uptake (mmol/g)
0.183696	0.0402592
0.262826	0.0603404
0.358913	0.0854312
0.455	0.105577
0.553913	0.130678
0.65	0.145879
0.746087	0.16108
0.839348	0.181215
0.935435	0.20136
1.03717	0.226473
1.13043	0.236718
1.22652	0.251918
