Adsorption isotherm of Carbon Dioxide on MONT 7
DOI: 10.1021/Ja5042226
Adsorbate Carbon Dioxide: InChIKey CURLTUGMZLYLDI-UHFFFAOYSA-N
Temperature: 298 K
Tabular data in the source: 0
pressure (bar)	uptake (mmol/g)
0.0169565	0.0444479
0.065	0.182712
0.163913	0.424731
0.262826	0.63223
0.358913	0.810129
0.455	0.958438
0.545435	1.08207
0.65	1.19589
0.743261	1.29487
0.842174	1.39388
0.938261	1.47808
1.03435	1.55242
1.13043	1.63169
1.22652	1.70109
