Adsorption isotherm of Carbon Dioxide on MONT 3
DOI: 10.1021/Ja5042226
Adsorbate Carbon Dioxide: InChIKey CURLTUGMZLYLDI-UHFFFAOYSA-N
Temperature: 298 K
Tabular data in the source: 0
pressure (bar)	uptake (mmol/g)
0.0169565	0.0592424
0.0621739	0.197496
0.163913	0.444457
0.26	0.656877
0.356087	0.819981
0.551087	1.05743
0.65	1.16137
0.743261	1.25542
0.842174	1.32977
0.938261	1.39918
1.03717	1.46366
1.13326	1.52813
1.22652	1.58273
