Adsorption isotherm of Carbon Dioxide on MONT 6
DOI: 10.1021/Ja5042226
Adsorbate Carbon Dioxide: InChIKey CURLTUGMZLYLDI-UHFFFAOYSA-N
Temperature: 298 K
Tabular data in the source: 0
pressure (bar)	uptake (mmol/g)
0.0169565	0.0198447
0.065	0.0942033
0.163913	0.213261
0.262826	0.312538
0.361739	0.392035
0.452174	0.476445
0.553913	0.560898
0.652826	0.630505
0.748913	0.695156
0.839348	0.754841
0.938261	0.814558
1.03152	0.869308
1.13043	0.929025
1.2237	0.968941
