Adsorption isotherm of Methane on MONT 6
DOI: 10.1021/Ja5042226
Adsorbate Methane: InChIKey VNWKTOKETHGBQD-UHFFFAOYSA-N
Temperature: 298 K
Tabular data in the source: 0
pressure (bar)	uptake (mmol/g)
0.0678261	0.0348734
0.163913	0.119305
0.26	0.193846
0.358913	0.258508
0.455	0.313269
0.551087	0.363085
0.655652	0.407989
0.748913	0.438014
0.842174	0.482874
0.938261	0.51291
1.03435	0.552836
1.13609	0.582893
1.22652	0.617852
