Adsorption isotherm of Methane on MONT 7
DOI: 10.1021/Ja5042226
Adsorbate Methane: InChIKey VNWKTOKETHGBQD-UHFFFAOYSA-N
Temperature: 298 K
Tabular data in the source: 0
pressure (bar)	uptake (mmol/g)
0.0763043	0.064399
0.18087	0.148631
0.262826	0.20812
0.358913	0.282457
0.455	0.346932
0.553913	0.406485
0.652826	0.451244
0.743261	0.49597
0.842174	0.550592
0.938261	0.600272
1.03152	0.640077
1.13043	0.674973
1.22652	0.71479
