Adsorption isotherm of Carbon Dioxide on MONT 5
DOI: 10.1021/Ja5042226
Adsorbate Carbon Dioxide: InChIKey CURLTUGMZLYLDI-UHFFFAOYSA-N
Temperature: 298 K
Tabular data in the source: 0
pressure (bar)	uptake (mmol/g)
0.0791304	0.0151362
0.186522	0.045215
0.262826	0.0702305
0.356087	0.0953106
0.455	0.120412
0.551087	0.150448
0.65	0.170604
0.743261	0.195684
0.839348	0.220775
0.938261	0.245877
1.03435	0.266022
1.13326	0.291124
1.22652	0.311259
