Adsorption isotherm of Methane on MONT 3
DOI: 10.1021/Ja5042226
Adsorbate Methane: InChIKey VNWKTOKETHGBQD-UHFFFAOYSA-N
Temperature: 298 K
Tabular data in the source: 0
pressure (bar)	uptake (mmol/g)
0.0791304	0.0545468
0.183696	0.128916
0.265652	0.183473
0.356087	0.252858
0.455	0.317342
0.548261	0.367011
0.65	0.426575
0.743261	0.466381
0.839348	0.516061
0.938261	0.550957
1.03717	0.600647
1.13326	0.635532
1.22652	0.675338
