Adsorption isotherm of Hydrogen on Cu3(NH2btc)2
DOI: 10.1039/C2cc36220a
Adsorbate Hydrogen: InChIKey UFHFLCQGNIYNRP-UHFFFAOYSA-N
Temperature: 77 K
Tabular data in the source: 0
pressure (bar)	uptake (wt%)
0.00322581	0.0298805
0.00967742	0.278884
0.016129	0.338645
0.0193548	0.398406
0.0354839	0.547809
0.0451613	0.63745
0.0548387	0.717131
0.0741935	0.826693
0.106452	0.986056
0.151613	1.16534
0.203226	1.29482
0.254839	1.40438
0.306452	1.51394
0.358065	1.58367
0.406452	1.65339
0.458065	1.72311
0.509677	1.77291
0.56129	1.82271
0.612903	1.87251
0.66129	1.91235
0.709677	1.95219
0.76129	1.99203
0.806452	2.02191
0.858065	2.04183
0.909677	2.09163
0.96129	2.12151
1.0129	2.14143
