Adsorption isotherm of Carbon Dioxide on Cu3(NH2btc)2
DOI: 10.1039/C2cc36220a
Adsorbate Carbon Dioxide: InChIKey CURLTUGMZLYLDI-UHFFFAOYSA-N
Temperature: 298 K
Tabular data in the source: 0
pressure (bar)	uptake (mmol/g)
0.297619	2.02667
0.446429	2.4
0.595238	2.98667
0.744048	4.37333
1.04167	5.12
1.33929	6.13333
1.93452	6.93333
2.23214	7.68
2.82738	8.37333
3.42262	8.90667
4.01786	9.33333
4.6131	9.70667
5.20833	10.0267
7.29167	10.5067
8.63095	10.88
12.0536	11.3067
15.625	11.5733
19.1964	11.68
22.7679	11.7333
30.0595	11.6267
37.5	11.36
44.9405	10.88
