Adsorption isotherm of Hydrogen on Cu3(NH2btc)2
DOI: 10.1039/C2cc36220a
Adsorbate Hydrogen: InChIKey UFHFLCQGNIYNRP-UHFFFAOYSA-N
Temperature: 77 K
Tabular data in the source: 0
pressure (bar)	uptake (wt%)
0.296736	0.296736
0.445104	1.28788
0.593472	1.60606
0.74184	1.84848
1.03858	2.06061
1.18694	2.22727
1.48368	2.39394
2.22552	2.54545
2.67062	2.69697
3.85757	2.86364
5.48961	2.98485
8.01187	3.13636
10.5341	3.24242
13.3531	3.28788
16.0237	3.31818
18.6944	3.33333
21.365	3.33333
26.8546	3.33333
32.1958	3.30303
37.5371	3.25758
42.73	3.19697
