Adsorption isotherm of Methane on Cu3(NH2btc)2
DOI: 10.1039/C2cc36220a
Adsorbate Methane: InChIKey VNWKTOKETHGBQD-UHFFFAOYSA-N
Temperature: 298 K
Tabular data in the source: 0
pressure (bar)	uptake (mmol/g)
0.0685754	0.0956175
0.117556	0.167331
0.173072	0.239044
0.222053	0.310757
0.277582	0.358566
0.329844	0.406375
0.375557	0.478088
0.434354	0.525896
0.486616	0.573705
0.532341	0.621514
0.584603	0.669323
0.636851	0.741036
0.689113	0.788845
0.744655	0.812749
0.790381	0.860558
0.84591	0.908367
0.898159	0.98008
0.953702	1.00398
1.0027	1.05179
