Adsorption isotherm of Nitrogen on Cu3(NH2btc)2
DOI: 10.1039/C2cc36220a
Adsorbate Nitrogen: InChIKey IJGRMHOSHXDMSA-UHFFFAOYSA-N
Temperature: 77 K
Tabular data in the source: 0
pressure (bar)	uptake (cm3(STP)/g)
0.00312386	0.00312386
0.00624772	390.756
0.00937158	405.462
0.021867	415.966
0.0406102	426.471
0.0624772	432.773
0.0843442	434.874
0.112459	439.076
0.143697	441.176
0.181184	445.378
0.203051	447.479
0.249909	449.58
0.281147	451.681
0.334253	455.882
0.399854	455.882
0.43734	457.983
0.490446	462.185
0.531056	464.286
0.581038	466.387
0.627896	468.487
0.677877	466.387
0.718487	470.588
0.765345	470.588
0.827823	474.79
0.877804	476.891
0.918414	478.992
0.965272	481.092
