Adsorption isotherm of Carbon Dioxide on Cu3(NH2btc)2
DOI: 10.1039/C2cc36220a
Adsorbate Carbon Dioxide: InChIKey CURLTUGMZLYLDI-UHFFFAOYSA-N
Temperature: 298 K
Tabular data in the source: 0
pressure (bar)	uptake (mmol/g)
0.0130068	0.119522
0.065073	0.525896
0.117139	0.932271
0.169245	1.26693
0.218082	1.60159
0.270187	1.93625
0.325574	2.24701
0.377705	2.53386
0.429862	2.77291
0.478726	3.05976
0.53087	3.32271
0.586295	3.56175
0.635172	3.8247
0.687342	4.03984
0.739513	4.25498
0.791683	4.47012
0.84384	4.70916
0.896037	4.87649
0.951475	5.09163
1.00039	5.28287
