Adsorption isotherm of Methane on Cu3(NH2btc)2
DOI: 10.1039/C2cc36220a
Adsorbate Methane: InChIKey VNWKTOKETHGBQD-UHFFFAOYSA-N
Temperature: 298 K
Tabular data in the source: 0
pressure (bar)	uptake (mmol/g)
0.446429	0.48
1.04167	1.06667
1.4881	1.44
2.08333	1.76
2.67857	2.13333
3.27381	2.45333
3.72024	2.77333
4.46429	3.09333
5.05952	3.41333
6.99405	4.05333
8.48214	4.74667
10.4167	5.17333
11.9048	5.6
13.5417	5.92
15.0298	6.29333
16.9643	6.50667
18.6012	6.82667
20.2381	6.98667
21.875	7.14667
25.1488	7.52
28.869	7.78667
32.1429	8.05333
36.0119	8.32
39.881	8.48
43.1548	8.69333
