Adsorption isotherm of N-Octane on MIL-47
DOI: 10.1021/Ja800686c
Adsorbate N-Octane: InChIKey TVMXDCGIABBOFY-UHFFFAOYSA-N
Temperature: 423 K
Tabular data in the source: 0
pressure (bar)	uptake (wt%)
0.000744	7.28466
0.00170494	9.96478
0.0024041	10.7805
0.00345284	11.4796
0.00458897	11.8875
0.00659905	12.4118
0.00869653	12.9362
0.0114058	13.344
0.0149016	13.8684
0.0252142	14.5676
