Adsorption isotherm of O-Xylene on MIL-47
DOI: 10.1021/Ja800686c
Adsorbate O-Xylene: InChIKey CTQNGGLPUBDAKN-UHFFFAOYSA-N
Temperature: 383 K
Tabular data in the source: 0
pressure (bar)	uptake (wt%)
0.000569	23.4236
0.000918	28.609
0.00135536	29.8908
0.0023167	31.6387
0.00441418	33.037
0.0075604	34.0275
0.00983267	34.4936
0.0172612	35.1928
0.0218058	35.4841
0.0274864	35.8337
