Adsorption isotherm of Ethylbenzene on MIL-47
DOI: 10.1021/Ja800686c
Adsorbate Ethylbenzene: InChIKey YNQLUTRBYVCPMQ-UHFFFAOYSA-N
Temperature: 383 K
Tabular data in the source: 0
pressure (bar)	uptake (wt%)
0.00118057	18.1799
0.00170494	19.4617
0.00214191	20.2774
0.00458897	21.6174
0.00624947	22.3749
0.00799737	23.074
0.0107066	23.5984
0.0180478	24.7637
0.0294965	25.6959
0.0371873	26.4533
