Adsorption isotherm of M-Xylene on MIL-47
DOI: 10.1021/Ja800686c
Adsorbate M-Xylene: InChIKey IVSZLXZYQVIEFR-UHFFFAOYSA-N
Temperature: 343 K
Tabular data in the source: 0
pressure (bar)	uptake (wt%)
0.000744	31.3474
0.00109317	32.1048
0.00196712	33.037
0.00371502	33.911
0.00686124	34.6684
0.0111436	35.4258
0.0213688	36.8242
0.0336041	37.232
