Adsorption isotherm of O-Xylene on MIL-47
DOI: 10.1021/Ja800686c
Adsorbate O-Xylene: InChIKey CTQNGGLPUBDAKN-UHFFFAOYSA-N
Temperature: 343 K
Tabular data in the source: 0
pressure (bar)	uptake (wt%)
0.00161754	37.7564
0.00266628	38.1642
0.00432678	38.5721
0.00511334	38.5138
0.0137654	38.4555
0.0227671	38.6886
0.0358764	38.6886
