Adsorption isotherm of N-Octane on MIL-47
DOI: 10.1021/Ja800686c
Adsorbate N-Octane: InChIKey TVMXDCGIABBOFY-UHFFFAOYSA-N
Temperature: 343 K
Tabular data in the source: 0
pressure (bar)	uptake (wt%)
0.000307	14.1597
0.000481	15.9659
0.00126796	17.1894
0.00187973	18.5295
0.00354023	19.4617
0.00642426	20.3356
0.0114932	20.9183
0.0195335	21.6174
0.0322932	22.2001
0.0509083	23.1905
