Adsorption isotherm of N-Octane on MIL-47
DOI: 10.1021/Ja800686c
Adsorbate N-Octane: InChIKey TVMXDCGIABBOFY-UHFFFAOYSA-N
Temperature: 383 K
Tabular data in the source: 0
pressure (bar)	uptake (wt%)
0.000656	11.7709
0.00187973	13.5188
0.00266628	14.3928
0.00380241	14.9172
0.00485115	15.4415
0.00887132	16.0824
0.0147268	16.7816
0.0246024	17.5973
0.0396343	18.2964
0.0495974	18.646
