Adsorption isotherm of O-Xylene on MIL-47
DOI: 10.1021/Ja800686c
Adsorbate O-Xylene: InChIKey CTQNGGLPUBDAKN-UHFFFAOYSA-N
Temperature: 423 K
Tabular data in the source: 0
pressure (bar)	uptake (wt%)
0.00109317	16.7233
0.00196712	22.4914
0.00345284	25.7541
0.00616208	28.0847
0.0106192	29.8908
0.0176982	31.2309
0.0284478	32.1631
