Adsorption isotherm of P-Xylene on MIL-47
DOI: 10.1021/Ja800686c
Adsorbate P-Xylene: InChIKey URLKBWYHVLBVBO-UHFFFAOYSA-N
Temperature: 423 K
Tabular data in the source: 0
pressure (bar)	uptake (wt%)
0.00153015	8.85777
0.00275368	14.5093
0.00485115	20.2774
0.00852174	24.0645
0.0140276	25.9289
0.0227671	27.269
0.035352	28.3177
