Adsorption isotherm of P-Xylene on MIL-47
DOI: 10.1021/Ja800686c
Adsorbate P-Xylene: InChIKey URLKBWYHVLBVBO-UHFFFAOYSA-N
Temperature: 343 K
Tabular data in the source: 0
pressure (bar)	uptake (wt%)
0.00118057	33.4449
0.00196712	35.5424
0.00345284	36.1833
0.00633687	36.4163
0.0107066	36.7659
0.0176108	36.8242
0.0280982	37.2903
