Adsorption isotherm of M-Xylene on MIL-47
DOI: 10.1021/Ja800686c
Adsorbate M-Xylene: InChIKey IVSZLXZYQVIEFR-UHFFFAOYSA-N
Temperature: 423 K
Tabular data in the source: 0
pressure (bar)	uptake (wt%)
0.00161754	13.6936
0.0023167	17.0729
0.00432678	20.627
0.00764779	23.4819
0.0132411	25.055
0.0215436	26.5116
0.0336915	27.3855
