Adsorption isotherm of Ethylbenzene on MIL-47
DOI: 10.1021/Ja800686c
Adsorbate Ethylbenzene: InChIKey YNQLUTRBYVCPMQ-UHFFFAOYSA-N
Temperature: 343 K
Tabular data in the source: 0
pressure (bar)	uptake (wt%)
0.00249149	30.1239
0.00458897	31.3474
0.00808477	32.3379
0.013678	33.2701
0.0228545	34.0858
0.0361385	34.9015
