Adsorption isotherm of M-Xylene on MIL-47
DOI: 10.1021/Ja800686c
Adsorbate M-Xylene: InChIKey IVSZLXZYQVIEFR-UHFFFAOYSA-N
Temperature: 383 K
Tabular data in the source: 0
pressure (bar)	uptake (wt%)
0.000569	18.2382
0.000918	25.1715
0.00153015	26.6863
0.0023167	27.5603
0.00380241	29.3082
0.00712342	30.4152
0.0093083	30.9978
0.0159503	31.8718
0.0262629	32.6875
0.0331671	33.2701
