Adsorption isotherm of Ethylbenzene on MIL-47
DOI: 10.1021/Ja800686c
Adsorbate Ethylbenzene: InChIKey YNQLUTRBYVCPMQ-UHFFFAOYSA-N
Temperature: 423 K
Tabular data in the source: 0
pressure (bar)	uptake (wt%)
0.00135536	11.3048
0.0024041	14.6841
0.00476376	17.1894
0.00887132	19.1121
0.0156007	20.3356
0.0262629	21.6174
0.0422562	22.6079
