Adsorption isotherm of P-Xylene on MIL-47
DOI: 10.1021/Ja800686c
Adsorbate P-Xylene: InChIKey URLKBWYHVLBVBO-UHFFFAOYSA-N
Temperature: 383 K
Tabular data in the source: 0
pressure (bar)	uptake (wt%)
0.000481	13.6936
0.00126796	21.6757
0.00153015	24.0062
0.00284107	27.0359
0.00388981	28.8421
0.00520073	30.823
0.00764779	32.1631
0.00983267	33.2118
0.0165621	34.7849
0.0266125	35.8919
