Adsorption isotherm of Carbon Dioxide on PECONF-4
DOI: 10.1038/Ncomms1405
Adsorbate Carbon Dioxide: InChIKey CURLTUGMZLYLDI-UHFFFAOYSA-N
Temperature: 273 K
Tabular data in the source: 0
pressure (bar)	uptake (mmol/g)
0.00199601	0.0676702
0.00998004	0.169218
0.0199601	0.338435
0.0319361	0.4823
0.0399202	0.57539
0.0578842	0.761589
0.0678643	0.829327
0.0798403	0.922451
0.0878244	0.981715
0.0998004	1.03256
0.151697	1.30361
0.199601	1.51543
0.253493	1.69348
0.303393	1.8292
0.349301	1.9649
0.401198	2.09219
0.453094	2.20256
0.50499	2.29603
0.548902	2.38942
0.602794	2.4829
0.650699	2.55941
0.698603	2.62747
0.750499	2.69556
0.802395	2.7552
0.852295	2.81482
0.9002	2.87442
0.9501	2.93404
0.998004	2.98518
