Adsorption isotherm of Carbon Dioxide on PECONF-1
DOI: 10.1038/Ncomms1405
Adsorbate Carbon Dioxide: InChIKey CURLTUGMZLYLDI-UHFFFAOYSA-N
Temperature: 273 K
Tabular data in the source: 0
pressure (bar)	uptake (mmol/g)
0.0308748	0.165919
0.051458	0.25242
0.0686106	0.317271
0.0874786	0.389331
0.106346	0.425225
0.125214	0.490051
0.150943	0.547545
0.171527	0.612347
0.200686	0.655325
0.22813	0.698327
0.252144	0.741379
0.277873	0.777174
0.303602	0.820201
0.327616	0.85602
0.35506	0.884556
0.377358	0.927633
0.401372	0.963452
0.427101	0.992013
0.454545	1.01332
0.475129	1.04918
0.504288	1.0777
0.552316	1.12763
0.602058	1.17031
0.655232	1.22018
0.679245	1.24876
0.699828	1.2557
0.730703	1.27695
0.756432	1.29105
0.802744	1.34101
0.830189	1.36231
0.855918	1.37641
0.903945	1.41188
0.953688	1.45456
0.979417	1.46142
0.996569	1.49734
