Adsorption isotherm of Nitrogen on PECONF-3
DOI: 10.1038/Ncomms1405
Adsorbate Nitrogen: InChIKey IJGRMHOSHXDMSA-UHFFFAOYSA-N
Temperature: 77 K
Tabular data in the source: 0
pressure (bar)	uptake (cm3(STP)/g)
0.00257698	142.657
0.00515395	159.441
0.00773093	169.231
0.0128849	177.622
0.0206158	191.608
0.0412316	198.601
0.0670014	204.196
0.0876172	208.392
0.103079	212.587
0.149465	216.783
0.201004	222.378
0.24739	227.972
0.293775	230.769
0.342738	234.965
0.3917	236.364
0.438086	239.161
0.484472	241.958
0.530857	244.755
0.584974	247.552
0.633936	251.748
0.680322	253.147
0.726707	257.343
0.744746	257.343
0.770516	258.741
0.793709	261.538
0.819478	262.937
0.842671	264.336
0.868441	268.531
0.891634	271.329
0.927711	290.909
0.932865	304.895
0.935442	318.881
0.940596	332.867
0.943173	346.853
0.948327	359.441
0.950904	373.427
0.956058	387.413
0.958635	401.399
0.963789	415.385
0.966366	432.168
