Adsorption isotherm of Methane on PECONF-3
DOI: 10.1038/Ncomms1405
Adsorbate Methane: InChIKey VNWKTOKETHGBQD-UHFFFAOYSA-N
Temperature: 273 K
Tabular data in the source: 0
pressure (bar)	uptake (mmol/g)
0.0212797	0.0496771
0.077251	0.129759
0.109243	0.171686
0.151871	0.240369
0.199855	0.305177
0.255869	0.366089
0.303887	0.415561
0.354545	0.480349
0.405245	0.525966
0.455946	0.571584
0.506646	0.617201
0.557347	0.662819
0.608056	0.704603
0.656099	0.742573
0.706808	0.784357
0.760208	0.818452
0.810926	0.856402
0.861652	0.890518
0.907031	0.924675
0.960431	0.95877
1.01384	0.989031
