Adsorption isotherm of Methane on PECONF-1
DOI: 10.1038/Ncomms1405
Adsorbate Methane: InChIKey VNWKTOKETHGBQD-UHFFFAOYSA-N
Temperature: 273 K
Tabular data in the source: 0
pressure (bar)	uptake (mmol/g)
0.0479669	0.0724757
0.106595	0.160205
0.151905	0.225033
0.207936	0.278278
0.25328	0.32777
0.303972	0.377222
0.357355	0.418985
0.405382	0.464623
0.456091	0.506407
0.506817	0.540523
0.557543	0.574639
0.608269	0.608754
0.661678	0.639016
0.712412	0.669298
0.763139	0.703414
0.813873	0.733696
0.86729	0.760123
0.918042	0.782737
0.963438	0.809226
1.00884	0.831881
