Adsorption isotherm of Methane on PECONF-4
DOI: 10.1038/Ncomms1405
Adsorbate Methane: InChIKey VNWKTOKETHGBQD-UHFFFAOYSA-N
Temperature: 273 K
Tabular data in the source: 0
pressure (bar)	uptake (mmol/g)
0.0665385	0.137509
0.098505	0.190938
0.151794	0.274874
0.202435	0.34733
0.247736	0.415992
0.303759	0.47307
0.354425	0.534024
0.4051	0.591143
0.458466	0.640574
0.506492	0.686212
0.557193	0.73183
0.610576	0.773593
0.661285	0.815377
0.711994	0.85716
0.762703	0.898944
0.80809	0.929267
0.864164	0.963342
0.912199	1.00515
0.962934	1.03543
1.00832	1.06575
