Adsorption isotherm of Nitrogen on PECONF-2
DOI: 10.1038/Ncomms1405
Adsorbate Nitrogen: InChIKey IJGRMHOSHXDMSA-UHFFFAOYSA-N
Temperature: 77 K
Tabular data in the source: 0
pressure (bar)	uptake (cm3(STP)/g)
0.00515395	117.483
0.0154619	138.462
0.0360777	146.853
0.0566935	152.448
0.0773093	155.245
0.0979251	160.839
0.146888	163.636
0.201004	169.231
0.242236	173.427
0.293775	177.622
0.340161	180.42
0.389123	184.615
0.440663	188.811
0.487048	190.21
0.536011	193.007
0.582397	197.203
0.636513	200
0.680322	202.797
0.726707	205.594
0.77567	208.392
0.824632	211.189
0.871018	216.783
0.925134	223.776
0.963789	297.902
