Adsorption isotherm of Carbon Dioxide on PECONF-3
DOI: 10.1038/Ncomms1405
Adsorbate Carbon Dioxide: InChIKey CURLTUGMZLYLDI-UHFFFAOYSA-N
Temperature: 273 K
Tabular data in the source: 0
pressure (bar)	uptake (mmol/g)
0.00686106	0.115633
0.00857633	0.216874
0.0291595	0.53484
0.0411664	0.657632
0.0617496	0.852633
0.0737564	0.960958
0.0857633	1.09098
0.0977702	1.16314
0.13036	1.35074
0.149228	1.4662
0.178388	1.60321
0.200686	1.69692
0.22813	1.79778
0.25729	1.90586
0.277873	1.98513
0.300172	2.05714
0.329331	2.12905
0.35163	2.18659
0.375643	2.25858
0.404803	2.32326
0.428816	2.38801
0.451115	2.43832
0.478559	2.50302
0.504288	2.55328
0.526587	2.60359
0.552316	2.65385
0.574614	2.70416
0.603774	2.75438
0.627787	2.79743
0.655232	2.8332
0.675815	2.8763
0.703259	2.92654
0.727273	2.96235
0.754717	3.00536
0.778731	3.03394
0.802744	3.07699
0.830189	3.12
0.854202	3.14858
0.878216	3.16994
0.903945	3.2202
0.927959	3.24155
0.955403	3.26285
0.974271	3.29874
0.998285	3.33456
