Adsorption isotherm of Nitrogen on PECONF-4
DOI: 10.1038/Ncomms1405
Adsorbate Nitrogen: InChIKey IJGRMHOSHXDMSA-UHFFFAOYSA-N
Temperature: 77 K
Tabular data in the source: 0
pressure (bar)	uptake (mmol/g)
0.0464481	0.000289096
0.0655738	0.0066322
0.101093	0.0193014
0.155738	0.0134175
0.20765	0.0199646
0.256831	0.0202707
0.311475	0.0206108
0.36612	0.0333991
0.412568	0.0336882
0.459016	0.0339773
0.510929	0.0467485
0.565574	0.0595368
0.614754	0.0660669
0.666667	0.0726141
0.715847	0.0915924
0.76776	0.0981396
0.81694	0.110894
0.868852	0.111217
0.918033	0.130195
0.969945	0.142966
1.01366	0.174359
