Adsorption isotherm of Carbon Dioxide on PECONF-4
DOI: 10.1038/Ncomms1405
Adsorbate Carbon Dioxide: InChIKey CURLTUGMZLYLDI-UHFFFAOYSA-N
Temperature: 273 K
Tabular data in the source: 0
pressure (bar)	uptake (mmol/g)
0.00546448	0.0622747
0.0218579	0.118393
0.0300546	0.174461
0.0382514	0.211856
0.0491803	0.267941
0.0710383	0.355214
0.0765027	0.398816
0.0901639	0.430022
0.103825	0.479899
0.153005	0.629583
0.20765	0.760629
0.251366	0.860486
0.303279	0.966618
0.355191	1.06653
0.404372	1.14152
0.453552	1.21652
0.508197	1.29154
0.557377	1.36654
0.60929	1.42288
0.65847	1.4792
0.710383	1.53554
0.759563	1.59186
0.814208	1.642
0.863388	1.6921
0.912568	1.73597
0.961749	1.78607
1.00546	1.82369
