Adsorption isotherm of Methane on PECONF-2
DOI: 10.1038/Ncomms1405
Adsorbate Methane: InChIKey VNWKTOKETHGBQD-UHFFFAOYSA-N
Temperature: 298 K
Tabular data in the source: 0
pressure (bar)	uptake (mmol/g)
0.0970726	0.0710873
0.148751	0.113289
0.199175	0.152162
0.250865	0.188818
0.300031	0.225471
0.351723	0.261019
0.402156	0.295455
0.452591	0.328783
0.503028	0.361002
0.554733	0.391003
0.603914	0.419893
0.656882	0.449897
0.707326	0.478788
0.757768	0.508789
0.804433	0.53324
0.858668	0.561026
0.910386	0.584374
0.958315	0.608826
1.00877	0.633281
