Adsorption isotherm of Methane on PECONF-3
DOI: 10.1038/Ncomms1405
Adsorbate Methane: InChIKey VNWKTOKETHGBQD-UHFFFAOYSA-N
Temperature: 298 K
Tabular data in the source: 0
pressure (bar)	uptake (mmol/g)
0.0479447	0.016689
0.0996235	0.0588905
0.150047	0.0977635
0.200477	0.133309
0.249652	0.165526
0.253435	0.167749
0.300091	0.196636
0.350529	0.228855
0.404754	0.261077
0.452668	0.292184
0.501854	0.318856
0.553556	0.349967
0.60527	0.375533
0.65445	0.405532
0.708684	0.433318
0.756615	0.456662
0.803276	0.483331
0.860033	0.512229
0.910491	0.534466
0.958417	0.560028
1.01014	0.582266
