Adsorption isotherm of Carbon Dioxide on PECONF-1
DOI: 10.1038/Ncomms1405
Adsorbate Carbon Dioxide: InChIKey CURLTUGMZLYLDI-UHFFFAOYSA-N
Temperature: 273 K
Tabular data in the source: 0
pressure (bar)	uptake (mmol/g)
0.0107411	0.106299
0.0348431	0.271654
0.0695919	0.437008
0.10432	0.57874
0.149705	0.732283
0.19772	0.850394
0.251059	0.968504
0.299043	1.05118
0.352371	1.15748
0.397683	1.22835
0.451001	1.32283
0.496302	1.38189
0.544265	1.44094
0.59489	1.5
0.645504	1.54724
0.693456	1.59449
0.741409	1.64173
0.794685	1.68898
0.839986	1.74803
0.89059	1.78346
0.941193	1.8189
0.986453	1.83071
