Adsorption isotherm of Nitrogen on PECONF-4
DOI: 10.1038/Ncomms1405
Adsorbate Nitrogen: InChIKey IJGRMHOSHXDMSA-UHFFFAOYSA-N
Temperature: 77 K
Tabular data in the source: 0
pressure (bar)	uptake (cm3(STP)/g)
0.00177098	20.6846
0.00303238	98.7194
0.00347095	49.3607
0.0047616	124.105
0.00485766	113.293
0.0105465	133.039
0.0183029	140.094
0.0358498	145.274
0.0612074	151.397
0.0904912	155.642
0.14908	161.782
0.192051	165.563
0.2448	168.879
0.291681	172.663
0.336624	174.565
0.387418	177.88
0.436275	179.314
0.487078	181.689
0.535926	184.063
0.582819	186.436
0.631659	189.75
0.678565	190.713
0.776265	194.991
0.825122	196.425
0.873962	199.739
0.920867	200.702
0.965789	204.954
