Adsorption isotherm of Carbon Dioxide on PECONF-2
DOI: 10.1038/Ncomms1405
Adsorbate Carbon Dioxide: InChIKey CURLTUGMZLYLDI-UHFFFAOYSA-N
Temperature: 273 K
Tabular data in the source: 0
pressure (bar)	uptake (mmol/g)
0.0188939	0.295276
0.0430483	0.519685
0.0537789	0.614173
0.0858765	0.791339
0.10193	0.885827
0.14741	1.14567
0.203473	1.33465
0.251531	1.5
0.299577	1.65354
0.350275	1.79528
0.39828	1.90157
0.448957	2.01969
0.496952	2.11417
0.544946	2.20866
0.595602	2.30315
0.646258	2.39764
0.694232	2.4685
0.744856	2.52756
0.790158	2.58661
0.843465	2.66929
0.888766	2.72835
0.939401	2.79921
0.987364	2.85827
