Adsorption isotherm of Carbon Dioxide on PECONF-2
DOI: 10.1038/Ncomms1405
Adsorbate Carbon Dioxide: InChIKey CURLTUGMZLYLDI-UHFFFAOYSA-N
Temperature: 273 K
Tabular data in the source: 0
pressure (bar)	uptake (mmol/g)
0.0222985	0.317941
0.0428816	0.491242
0.0617496	0.642868
0.0926244	0.81602
0.106346	0.880921
0.125214	0.981914
0.149228	1.0756
0.176672	1.17647
0.202401	1.24843
0.22813	1.34209
0.252144	1.39237
0.277873	1.4571
0.301887	1.52909
0.327616	1.58658
0.353345	1.62237
0.377358	1.68713
0.403087	1.73015
0.432247	1.78037
0.454545	1.82344
0.480274	1.86647
0.504288	1.90952
0.528302	1.94534
0.555746	1.98834
0.627787	2.08857
0.675815	2.15297
0.727273	2.21733
0.778731	2.26722
0.830189	2.33157
0.879931	2.38148
0.927959	2.44589
0.951973	2.46724
0.979417	2.48854
