Adsorption isotherm of Methane on PECONF-1
DOI: 10.1038/Ncomms1405
Adsorbate Methane: InChIKey VNWKTOKETHGBQD-UHFFFAOYSA-N
Temperature: 298 K
Tabular data in the source: 0
pressure (bar)	uptake (mmol/g)
0.150028	0.106636
0.197935	0.14107
0.248373	0.173288
0.298815	0.203289
0.453945	0.285531
0.503131	0.312203
0.554845	0.337769
0.605301	0.361115
0.655752	0.386679
0.706215	0.406698
0.756673	0.428935
0.808399	0.448956
0.857597	0.470082
0.90679	0.493427
0.957251	0.514555
1.01025	0.530141
