Adsorption isotherm of Methane on PECONF-4
DOI: 10.1038/Ncomms1405
Adsorbate Methane: InChIKey VNWKTOKETHGBQD-UHFFFAOYSA-N
Temperature: 298 K
Tabular data in the source: 0
pressure (bar)	uptake (mmol/g)
0.0504092	0.0455273
0.0995512	0.0932712
0.152486	0.138801
0.204165	0.181003
0.253323	0.220983
0.306269	0.260968
0.352911	0.29651
0.403344	0.330946
0.456302	0.365386
0.506741	0.396495
0.555916	0.428713
0.603835	0.457601
0.65806	0.489824
0.707246	0.516496
0.75896	0.542062
0.810665	0.572064
0.859856	0.596517
0.91283	0.623194
0.955708	0.64764
1.00996	0.668773
