Adsorption isotherm of Carbon Dioxide on PECONF-3
DOI: 10.1038/Ncomms1405
Adsorbate Carbon Dioxide: InChIKey CURLTUGMZLYLDI-UHFFFAOYSA-N
Temperature: 273 K
Tabular data in the source: 0
pressure (bar)	uptake (mmol/g)
0.00812132	0.153543
0.0215765	0.318898
0.0377144	0.507874
0.0618478	0.708661
0.0886534	0.92126
0.0967224	1.01575
0.150208	1.29921
0.201011	1.55906
0.24911	1.77165
0.299829	1.93701
0.347886	2.10236
0.395933	2.25591
0.446631	2.39764
0.497318	2.52756
0.545344	2.65748
0.59336	2.77559
0.646677	2.87008
0.694672	2.96457
0.742677	3.07087
0.795984	3.15354
0.846651	3.25984
0.88665	3.34252
0.939957	3.4252
0.98792	3.48425
