Adsorption isotherm of Nitrogen on PECONF-1
DOI: 10.1038/Ncomms1405
Adsorbate Nitrogen: InChIKey IJGRMHOSHXDMSA-UHFFFAOYSA-N
Temperature: 77 K
Tabular data in the source: 0
pressure (bar)	uptake (cm3(STP)/g)
0.00257698	96.5035
0.00515395	65.7343
0.0103079	107.692
0.0489625	117.483
0.0824632	121.678
0.103079	125.874
0.149465	130.07
0.201004	135.664
0.244813	138.462
0.298929	141.259
0.342738	144.056
0.3917	146.853
0.44324	149.65
0.489625	152.448
0.533434	155.245
0.584974	156.643
0.633936	160.839
0.685476	163.636
0.734438	167.832
0.77567	169.231
0.827209	173.427
0.871018	177.622
0.922557	187.413
0.943173	233.566
0.963789	281.119
