Adsorption isotherm of Carbon Dioxide on PCN-46
DOI: 10.1039/C002767g
Adsorbate Carbon Dioxide: InChIKey CURLTUGMZLYLDI-UHFFFAOYSA-N
Temperature: 298 K
Tabular data in the source: 0
pressure (bar)	uptake (mmol/g)
0.40469	1.56977
1.00601	3.13953
2.79625	5.96512
3.19942	7.32558
3.79769	8.47674
5.19238	10.9884
5.98957	12.4535
6.98186	13.7093
8.76753	15.907
11.3367	17.686
12.521	18.314
15.4781	19.3605
17.4467	19.6744
18.628	19.8837
20.0066	20.1977
21.7771	20.3023
23.5483	20.5116
25.5153	20.6163
26.894	20.9302
29.0562	20.8256
30.63	20.9302
32.597	21.0349
34.3667	21.0349
36.5304	21.1395
38.3	21.1395
40.2671	21.2442
42.2326	21.1395
44.1997	21.2442
46.5584	21.1395
48.133	21.3488
50.2936	21.0349
52.2615	21.2442
54.6218	21.3488
56.3922	21.4535
57.9667	21.6628
59.9346	21.8721
60.9177	21.8721
