Adsorption isotherm of Methane on PCN-46
DOI: 10.1039/C002767g
Adsorbate Methane: InChIKey VNWKTOKETHGBQD-UHFFFAOYSA-N
Temperature: 298 K
Tabular data in the source: 0
pressure (bar)	uptake (mmol/g)
1.69014	1.15813
3.71831	2.31607
5.74648	3.26946
7.43662	4.15487
9.80282	5.10807
12.169	6.12945
14.5352	6.8781
17.2394	7.62657
19.2676	8.30723
21.9718	8.85115
24.6761	9.32689
27.0423	9.80282
30.4225	10.2782
32.7887	10.4814
35.493	10.8889
38.5352	11.2281
41.9155	11.2944
44.9577	11.4972
47.662	11.5638
51.3803	11.8344
54.4225	11.8327
57.4648	11.9673
60.8451	11.9654
63.8873	11.8955
67.2676	12.0981
70.6479	12.0962
74.3662	12.0941
78.0845	11.9556
81.8028	12.0217
85.1831	11.9516
88.2254	11.9499
91.9437	11.8114
95.662	11.9456
99.0423	11.9437
102.761	11.8734
106.479	12.0077
109.859	11.733
