Adsorption isotherm of Nitrogen on PCN-46
DOI: 10.1039/C002767g
Adsorbate Nitrogen: InChIKey IJGRMHOSHXDMSA-UHFFFAOYSA-N
Temperature: 77 K
Tabular data in the source: 0
pressure (bar)	uptake (cm3(STP)/g)
0	0
0.00299852	474.359
0.00599704	579.487
0.0149926	594.872
0.0269867	607.692
0.0389807	615.385
0.0539733	620.513
0.0659674	623.077
0.086957	628.205
0.110945	630.769
0.134933	633.333
0.16192	638.462
0.194904	641.026
0.230886	643.59
0.251876	646.154
0.30285	646.154
0.353825	646.154
0.398803	648.718
0.437784	648.718
0.467769	648.718
0.503751	648.718
0.536735	648.718
0.575716	651.282
0.62669	653.846
0.677665	651.282
0.719644	651.282
0.737636	651.282
0.764622	651.282
0.791609	653.846
0.818596	651.282
0.848581	651.282
0.884563	651.282
0.902554	651.282
0.920545	648.718
