Adsorption isotherm of Hydrogen on PCN-46
DOI: 10.1039/C002767g
Adsorbate Hydrogen: InChIKey UFHFLCQGNIYNRP-UHFFFAOYSA-N
Temperature: 77 K
Tabular data in the source: 0
pressure (bar)	uptake (mmol/g)
0.346021	3.85547
1.03806	9.79906
1.38408	12.6905
1.7301	14.9393
2.42215	16.7055
4.84429	20.2363
10.3806	24.4048
12.4567	25.6868
17.6471	26.9638
21.1073	27.4402
23.5294	27.9184
24.9135	27.5948
29.7578	27.7477
37.0242	27.5753
42.5606	27.2451
47.4048	27.0767
51.9031	26.7481
55.7093	26.26
58.4775	25.9342
65.3979	25.2804
70.5882	24.7901
75.4325	24.3003
78.8927	23.4914
81.6609	23.1656
83.737	23.1623
88.9273	22.3506
93.7716	21.8608
95.8478	21.8575
98.9619	21.2098
