Adsorption isotherm of Hydrogen on PCN-46
DOI: 10.1039/C002767g
Adsorbate Hydrogen: InChIKey UFHFLCQGNIYNRP-UHFFFAOYSA-N
Temperature: 77 K
Tabular data in the source: 0
pressure (bar)	uptake (mmol/g)
0.346021	3.85547
0.692042	9.96028
2.42215	14.7775
5.19031	20.3964
5.88235	22.3233
6.92042	23.607
8.65052	24.8896
9.68858	26.0126
11.0727	26.8137
14.5329	28.5755
17.6471	29.6952
19.7232	30.6558
22.4913	31.4547
30.7958	33.048
35.2941	33.5228
38.4083	33.8392
41.1765	34.3167
46.3668	34.7904
49.481	34.7854
52.2491	34.9416
55.7093	35.418
60.2076	35.5715
64.7059	35.7249
72.6644	35.8728
75.0865	36.1902
76.8166	36.0268
78.8927	36.3448
84.083	36.4971
86.5052	36.1719
91.3495	36.6461
94.1176	36.6417
98.9619	36.4732
