Adsorption isotherm of Carbon Dioxide on PCN-46
DOI: 10.1039/C002767g
Adsorbate Carbon Dioxide: InChIKey CURLTUGMZLYLDI-UHFFFAOYSA-N
Temperature: 298 K
Tabular data in the source: 0
pressure (bar)	uptake (mmol/g)
0.40469	1.56977
1.20264	3.13953
1.80396	4.7093
2.40299	5.96512
3.39605	7.32558
3.99508	8.5814
4.79303	10.1512
5.19391	11.1977
5.98957	12.4535
6.98262	13.814
7.58166	15.0698
8.96644	16.2209
9.75982	17.1628
11.339	18
12.3274	18.7326
13.905	19.3605
15.6785	19.8837
16.8613	20.3023
18.8299	20.6163
20.2094	21.0349
25.5252	21.9767
27.2964	22.186
29.0661	22.186
30.6414	22.5
32.8058	22.7093
34.3796	22.814
36.3474	23.0233
38.5119	23.2326
40.2823	23.3372
42.446	23.4419
44.2179	23.7558
45.9868	23.6512
48.3502	24.1744
50.3157	24.0698
52.0892	24.593
54.2529	24.6977
56.0248	25.0116
57.9957	25.6395
59.9643	25.9535
60.9512	26.4767
