Adsorption isotherm of Methane on PCN-46
DOI: 10.1039/C002767g
Adsorbate Methane: InChIKey VNWKTOKETHGBQD-UHFFFAOYSA-N
Temperature: 298 K
Tabular data in the source: 0
pressure (bar)	uptake (mmol/g)
1.69014	1.15813
3.71831	2.31607
5.74648	3.40583
7.77465	4.49558
10.1408	5.44878
12.169	6.53854
14.5352	7.55992
16.9014	8.2404
19.6056	9.26159
21.9718	9.8057
24.6761	10.4178
27.3803	11.0299
30.0845	11.5056
32.7887	11.9132
35.1549	12.3891
38.1972	12.9328
41.5775	13.1355
44.6197	13.4746
47.662	13.8138
50.7042	14.0848
54.0845	14.2193
57.4648	14.5583
60.507	14.7611
63.8873	14.8273
67.2676	15.1663
70.9859	15.3006
74.3662	15.5032
78.0845	15.5693
80.7887	15.9086
84.8451	15.8382
88.2254	16.109
91.6056	16.107
95.662	16.5138
99.3803	16.7163
103.099	16.8505
106.479	17.1213
110.197	17.1192
