Adsorption isotherm of Propene on Zeolite 4A
DOI: 10.1016/S0008-6223(03)00304-X
Adsorbate Propene: InChIKey QQONPFPTGQHPMA-UHFFFAOYSA-N
Temperature: 423 K
Tabular data in the source: 0
pressure (bar)	uptake (mmol/g)
0.00636943	0.124933
0.0191083	0.221487
0.0509554	0.346469
0.0764331	0.397621
0.101911	0.448773
0.127389	0.499926
0.165605	0.551102
0.273885	0.659193
0.324841	0.687681
0.477707	0.756109
0.535032	0.778931
0.592357	0.796074
0.656051	0.813229
0.713376	0.830372
0.770701	0.870228
0.828025	0.85898
0.88535	0.876124
0.942675	0.887589
1	0.904732
1.06369	0.916209
1.12102	0.927674
1.18471	0.933473
1.24204	0.950616
1.29936	0.956403
1.35669	0.962189
1.41401	0.973654
1.47771	0.979453
1.5414	0.985252
1.59236	0.996705
1.65605	1.0025
1.71975	1.0083
1.78344	1.0141
1.84076	1.02557
1.89809	1.03135
1.96178	1.04283
2.01911	1.04862
2.05096	1.07139
2.10828	1.05446
2.16561	1.06025
2.2293	1.06037
2.29299	1.07185
2.35669	1.07765
2.42038	1.07777
2.47771	1.08355
2.5414	1.08935
2.6051	1.08947
2.66879	1.10095
2.72611	1.10674
2.78981	1.10686
2.82166	1.12395
2.87898	1.1127
2.93631	1.11849
3	1.11861
