Adsorption isotherm of Carbon Dioxide on Zeolite 4A
DOI: 10.1016/S0008-6223(03)00304-X
Adsorbate Carbon Dioxide: InChIKey CURLTUGMZLYLDI-UHFFFAOYSA-N
Temperature: 297 K
Tabular data in the source: 0
pressure (bar)	uptake (mmol/g)
0	0.0271186
0.12931	1.12537
0.323276	1.59985
0.905172	2.11485
1.74569	2.61616
2.78017	2.92756
3.75	3.11695
5.0431	3.2384
7.11207	3.40018
8.46983	3.44024
10.0216	3.48022
12.5431	3.53331
14.0948	3.55973
15.9698	3.586
19.2672	3.59807
23.7284	3.62317
27.6724	3.63495
