Adsorption isotherm of Propene on Zeolite 4A
DOI: 10.1016/S0008-6223(03)00304-X
Adsorbate Propene: InChIKey QQONPFPTGQHPMA-UHFFFAOYSA-N
Temperature: 343 K
Tabular data in the source: 0
pressure (bar)	uptake (mmol/g)
0.0127389	0.533778
0.0318471	0.653057
0.0382166	0.743921
0.0573248	0.789383
0.0764331	0.891627
0.0955414	0.914376
0.11465	0.948482
0.140127	0.9826
0.159236	1.02806
0.197452	1.0622
0.254777	1.11342
0.312102	1.14759
0.369427	1.17042
0.420382	1.1989
0.509554	1.23882
0.573248	1.25597
0.66242	1.27886
0.719745	1.296
0.853503	1.33032
0.961783	1.34756
1.07006	1.3648
1.16561	1.38202
1.3121	1.39933
1.42675	1.4109
1.51592	1.42243
1.57325	1.42254
1.71338	1.43416
1.82166	1.44572
1.96815	1.46303
2.07006	1.4689
2.21656	1.47486
2.38217	1.49221
2.52229	1.49247
2.6242	1.49834
2.71975	1.5042
2.82166	1.51575
2.9172	1.51025
