Adsorption isotherm of N-propane on Zeolite 4A
DOI: 10.1016/S0008-6223(03)00304-X
Adsorbate N-propane: InChIKey ATUOYWHBWRKTHZ-UHFFFAOYSA-N
Temperature: 343 K
Tabular data in the source: 0
pressure (bar)	uptake (mmol/g)
0.0127119	0.327065
0.0444915	0.462968
0.0635593	0.563629
0.127119	0.674427
0.177966	0.755015
0.266949	0.825605
0.349576	0.871027
0.413136	0.901322
0.521186	0.946786
0.667373	0.992314
0.800847	1.02273
0.915254	1.04304
1.01695	1.05831
1.11229	1.07356
1.20763	1.08882
1.32203	1.09907
1.42373	1.11434
1.56992	1.12968
1.67161	1.13991
1.76695	1.15013
1.875	1.16038
2.02119	1.16565
2.12288	1.17589
2.31992	1.18628
2.47246	1.20163
2.5678	1.20179
2.72034	1.21211
2.87924	1.22244
2.91737	1.21747
