Adsorption isotherm of Propene on Zeolite 4A
DOI: 10.1016/S0008-6223(03)00304-X
Adsorbate Propene: InChIKey QQONPFPTGQHPMA-UHFFFAOYSA-N
Temperature: 373 K
Tabular data in the source: 0
pressure (bar)	uptake (mmol/g)
0.00636943	0.516731
0.0254777	0.579228
0.0636943	0.681509
0.121019	0.789504
0.178344	0.869107
0.22293	0.920296
0.299363	0.977223
0.433121	1.03994
0.528662	1.08554
0.585987	1.10269
0.636943	1.11982
0.700637	1.13697
0.77707	1.15983
0.853503	1.17701
0.936306	1.1942
1.09554	1.22289
1.21019	1.24015
1.29299	1.25166
1.50318	1.28045
1.67516	1.29213
1.77707	1.31504
1.84076	1.31516
1.89172	1.32093
1.95541	1.32673
2.01911	1.32685
2.0828	1.33265
2.13376	1.3441
2.19745	1.34422
2.26115	1.35002
2.31847	1.35581
2.38217	1.35593
2.47771	1.36179
2.53503	1.37325
2.59873	1.37337
2.66242	1.37917
2.72611	1.37929
2.78981	1.38509
2.8535	1.38521
2.91083	1.391
2.96815	1.39111
