Adsorption isotherm of N-propane on Zeolite 4A
DOI: 10.1016/S0008-6223(03)00304-X
Adsorbate N-propane: InChIKey ATUOYWHBWRKTHZ-UHFFFAOYSA-N
Temperature: 343 K
Tabular data in the source: 0
pressure (bar)	uptake (mmol/g)
0.00635593	0.236489
0.0190678	0.322045
0.0254237	0.377401
0.0381356	0.462957
0.0572034	0.533429
0.0762712	0.588807
0.108051	0.664332
0.152542	0.714721
0.190678	0.760068
0.266949	0.830636
0.330508	0.870995
0.387712	0.896248
0.489407	0.946733
0.559322	0.972007
0.616525	0.992229
0.756356	1.02768
0.858051	1.04798
0.934322	1.06823
1.04237	1.08351
1.125	1.09874
1.26483	1.1191
1.43008	1.13447
1.56356	1.15482
1.76695	1.17026
1.9322	1.18563
2.10381	1.19598
2.3072	1.21142
2.54237	1.22187
2.74576	1.23731
2.85381	1.24252
2.97458	1.25279
