Adsorption isotherm of Propene on Zeolite 4A
DOI: 10.1016/S0008-6223(03)00304-X
Adsorbate Propene: InChIKey QQONPFPTGQHPMA-UHFFFAOYSA-N
Temperature: 343 K
Tabular data in the source: 0
pressure (bar)	uptake (mmol/g)
0.0127389	0.522422
0.0254777	0.675758
0.044586	0.795037
0.0700637	0.90865
0.0955414	0.959802
0.121019	1.03367
0.159236	1.06781
0.197452	1.11331
0.242038	1.15882
0.292994	1.18731
0.343949	1.22715
0.388535	1.24427
0.44586	1.26709
0.503185	1.28991
0.566879	1.30707
0.624204	1.32421
0.681529	1.34135
0.745223	1.35283
0.802548	1.36997
0.859873	1.37576
0.923567	1.38724
0.980892	1.3987
1.03822	1.40449
1.10191	1.41597
1.15924	1.42743
1.21656	1.4389
1.27389	1.439
1.33758	1.4448
1.40127	1.4506
1.4586	1.45639
1.52229	1.46787
1.57962	1.47365
1.65605	1.48515
1.71975	1.4796
1.77707	1.48538
1.83439	1.49685
1.89809	1.49697
1.96178	1.50277
2.02548	1.50289
2.08917	1.50869
2.15287	1.51448
2.21019	1.52027
2.27389	1.52607
2.33758	1.52619
2.40127	1.53199
2.46497	1.53211
2.52866	1.53223
2.59236	1.53803
2.65605	1.53815
2.71338	1.54962
2.77707	1.54974
2.84076	1.55553
2.90446	1.55566
2.96815	1.55578
