Adsorption isotherm of Propene on Zeolite 4A
DOI: 10.1016/S0008-6223(03)00304-X
Adsorbate Propene: InChIKey QQONPFPTGQHPMA-UHFFFAOYSA-N
Temperature: 373 K
Tabular data in the source: 0
pressure (bar)	uptake (mmol/g)
0.044586	0.52816
0.0636943	0.647439
0.0955414	0.726995
0.11465	0.7611
0.133758	0.795206
0.184713	0.863441
0.216561	0.891893
0.254777	0.914678
0.305732	0.965878
0.458599	1.04566
0.515924	1.07984
0.605096	1.1084
0.719745	1.14269
0.910828	1.18847
1.12102	1.22862
1.21656	1.24016
1.3758	1.26885
1.52866	1.28617
1.61783	1.2977
1.76433	1.32069
1.9172	1.33234
2.01911	1.33821
2.07643	1.34399
2.21656	1.36129
2.47134	1.38449
2.6242	1.39613
2.71975	1.39631
2.82166	1.40219
2.92357	1.40806
