Adsorption isotherm of N-propane on Zeolite 4A
DOI: 10.1016/S0008-6223(03)00304-X
Adsorbate N-propane: InChIKey ATUOYWHBWRKTHZ-UHFFFAOYSA-N
Temperature: 423 K
Tabular data in the source: 0
pressure (bar)	uptake (mmol/g)
0.0889831	0.261784
0.101695	0.286963
0.158898	0.352468
0.324153	0.453374
0.375	0.453459
0.425847	0.518953
0.813559	0.630295
0.883475	0.65557
1.09322	0.671016
1.47458	0.777316
1.79873	0.828174
2.18008	0.833845
2.37712	0.864364
2.91102	0.90048
