Adsorption isotherm of N-propane on Zeolite 4A
DOI: 10.1016/S0008-6223(03)00304-X
Adsorbate N-propane: InChIKey ATUOYWHBWRKTHZ-UHFFFAOYSA-N
Temperature: 373 K
Tabular data in the source: 0
pressure (bar)	uptake (mmol/g)
0.0190678	0.20129
0.0381356	0.276794
0.0508475	0.347255
0.101695	0.468095
0.139831	0.528536
0.20339	0.58902
0.292373	0.674704
0.394068	0.720158
0.476695	0.760548
0.584746	0.800981
0.692797	0.836382
0.813559	0.871805
0.927966	0.892122
1.01695	0.912397
1.15042	0.937778
1.30932	0.963202
1.41102	0.968404
1.5572	0.988775
1.82415	1.02947
2.01483	1.04489
2.16737	1.06024
2.31356	1.07558
2.37712	1.07568
2.51695	1.08598
2.625	1.09623
2.72034	1.10142
2.82203	1.10662
2.92373	1.11685
