Adsorption isotherm of Carbon Dioxide on Zeolite 4A
DOI: 10.1016/S0008-6223(03)00304-X
Adsorbate Carbon Dioxide: InChIKey CURLTUGMZLYLDI-UHFFFAOYSA-N
Temperature: 297 K
Tabular data in the source: 0
pressure (bar)	uptake (mmol/g)
0.0646552	0.0646552
0.12931	1.0068
0.193966	1.18367
0.258621	1.45578
0.452586	1.65986
0.581897	1.83673
0.646552	1.98639
0.905172	2.17687
1.09914	2.31293
1.35776	2.46259
1.61638	2.55782
2.00431	2.70748
2.4569	2.82993
3.10345	2.95238
3.55603	3.02041
4.00862	3.10204
4.59052	3.15646
5.0431	3.21088
5.43103	3.2381
6.01293	3.27891
6.59483	3.31973
7.04741	3.38776
7.56466	3.37415
8.14655	3.38776
8.66379	3.44218
9.24569	3.44218
9.82759	3.48299
10.4095	3.48299
11.056	3.4966
11.7026	3.5102
12.2845	3.52381
12.8664	3.53741
13.5129	3.55102
14.0948	3.56463
14.7414	3.56463
15.3233	3.59184
15.9052	3.59184
16.4871	3.59184
17.1336	3.60544
17.7802	3.60544
18.3621	3.61905
19.0086	3.61905
19.6552	3.61905
20.3017	3.63265
20.8836	3.64626
21.5302	3.64626
22.1767	3.64626
22.8233	3.65986
23.4698	3.65986
23.9871	3.64626
24.569	3.65986
25.2155	3.65986
25.8621	3.65986
26.5086	3.67347
27.1552	3.67347
27.7371	3.64626
28.319	3.67347
28.9655	3.67347
29.6121	3.67347
