Adsorption isotherm of N-propane on Zeolite 4A
DOI: 10.1016/S0008-6223(03)00304-X
Adsorbate N-propane: InChIKey ATUOYWHBWRKTHZ-UHFFFAOYSA-N
Temperature: 373 K
Tabular data in the source: 0
pressure (bar)	uptake (mmol/g)
0.0127119	0.201279
0.0444915	0.29693
0.0635593	0.387528
0.095339	0.463053
0.146186	0.533579
0.190678	0.583968
0.254237	0.63942
0.34322	0.694915
0.451271	0.750442
0.540254	0.785812
0.629237	0.81615
0.75	0.861635
0.870763	0.881964
0.972458	0.907291
1.10593	0.932672
1.23305	0.953011
1.38559	0.968362
1.48729	0.988658
1.56992	0.993828
1.74788	1.01928
1.875	1.02453
2.0339	1.04492
2.17373	1.05522
2.35169	1.06558
2.53602	1.08098
2.73305	1.09641
2.97458	1.10688
