Adsorption isotherm of N-propane on Zeolite 4A
DOI: 10.1016/S0008-6223(03)00304-X
Adsorbate N-propane: InChIKey ATUOYWHBWRKTHZ-UHFFFAOYSA-N
Temperature: 423 K
Tabular data in the source: 0
pressure (bar)	uptake (mmol/g)
0.0127119	0.110713
0.0444915	0.181207
0.0699153	0.231564
0.127119	0.3021
0.146186	0.327289
0.184322	0.367605
0.222458	0.392826
0.286017	0.428153
0.349576	0.473542
0.444915	0.508922
0.540254	0.549334
0.673729	0.589809
0.864407	0.640443
0.972458	0.665782
1.11864	0.691184
1.17585	0.701343
1.23305	0.711502
1.29661	0.71664
1.35381	0.73183
1.41737	0.736968
1.47458	0.747127
1.53814	0.752265
1.59534	0.762424
1.6589	0.772594
1.72246	0.777732
1.77966	0.782859
1.83686	0.793018
1.97034	0.803305
2.08475	0.813559
2.21822	0.828878
2.38983	0.84426
2.44703	0.849387
2.51059	0.854525
2.57415	0.859663
2.63771	0.864801
2.70127	0.864908
2.75847	0.870035
2.82203	0.880205
2.88559	0.880311
2.93008	0.885417
2.99364	0.885524
