Adsorption isotherm of N-propane on Zeolite 4A
DOI: 10.1016/S0008-6223(03)00304-X
Adsorbate N-propane: InChIKey ATUOYWHBWRKTHZ-UHFFFAOYSA-N
Temperature: 423 K
Tabular data in the source: 0
pressure (bar)	uptake (mmol/g)
0.0317797	0.145965
0.0699153	0.216469
0.158898	0.312216
0.254237	0.392879
0.311441	0.428195
0.40678	0.47867
0.514831	0.519102
0.616525	0.564556
0.762712	0.600021
0.940678	0.650634
1.04873	0.675973
1.20763	0.706428
1.32839	0.721725
1.41737	0.747031
1.64619	0.767541
1.8178	0.787954
1.91949	0.803219
2.01483	0.818474
2.14831	0.833792
2.26271	0.844046
2.34534	0.859279
2.47881	0.864535
2.61229	0.879853
2.77754	0.890193
2.87924	0.900426
