Adsorption isotherm of Propene on Zeolite 4A
DOI: 10.1016/S0008-6223(03)00304-X
Adsorbate Propene: InChIKey QQONPFPTGQHPMA-UHFFFAOYSA-N
Temperature: 423 K
Tabular data in the source: 0
pressure (bar)	uptake (mmol/g)
0.0127389	0.176049
0.0191083	0.266913
0.0509554	0.357825
0.089172	0.443071
0.133758	0.511294
0.197452	0.585232
0.242038	0.63642
0.305732	0.676288
0.426752	0.750335
0.515924	0.790251
0.611465	0.835858
0.713376	0.864442
0.815287	0.904382
0.968153	0.938741
1.05732	0.961623
1.15924	0.984529
1.26752	1.00177
1.3758	1.01901
1.46497	1.04189
1.57325	1.05345
1.66879	1.07067
1.76433	1.0822
1.9172	1.09953
1.97452	1.10531
2.07006	1.12253
2.21019	1.13983
2.32484	1.14573
2.3758	1.1515
2.48408	1.16306
2.52229	1.16313
2.57962	1.18028
2.6242	1.17468
2.67516	1.18046
2.71975	1.18054
2.77707	1.18633
2.86624	1.19785
2.92357	1.20364
