Adsorption isotherm of Propene on Zeolite 4A
DOI: 10.1016/S0008-6223(03)00304-X
Adsorbate Propene: InChIKey QQONPFPTGQHPMA-UHFFFAOYSA-N
Temperature: 343 K
Tabular data in the source: 0
pressure (bar)	uptake (mmol/g)
0.0127389	0.601917
0.044586	0.846141
0.127389	1.04504
0.350318	1.23852
0.828025	1.38138
1.23567	1.43325
1.66879	1.4795
