Adsorption isotherm of N-propane on Zeolite 4A
DOI: 10.1016/S0008-6223(03)00304-X
Adsorbate N-propane: InChIKey ATUOYWHBWRKTHZ-UHFFFAOYSA-N
Temperature: 343 K
Tabular data in the source: 0
pressure (bar)	uptake (mmol/g)
0.0254237	0.417653
0.101695	0.639164
0.241525	0.810468
0.457627	0.926554
0.635593	1.00736
0.902542	1.09334
1.32839	1.14437
1.52542	1.16985
1.64619	1.18515
2.21822	1.20624
2.625	1.22201
