Adsorption isotherm of Propene on Zeolite 4A
DOI: 10.1016/S0008-6223(03)00304-X
Adsorbate Propene: InChIKey QQONPFPTGQHPMA-UHFFFAOYSA-N
Temperature: 423 K
Tabular data in the source: 0
pressure (bar)	uptake (mmol/g)
0.0318471	0.301007
0.159236	0.539734
0.43949	0.739002
0.757962	0.864526
1.28025	0.979079
2.05732	1.0714
2.83439	1.1183
