Adsorption isotherm of Propene on Zeolite 4A
DOI: 10.1016/S0008-6223(03)00304-X
Adsorbate Propene: InChIKey QQONPFPTGQHPMA-UHFFFAOYSA-N
Temperature: 373 K
Tabular data in the source: 0
pressure (bar)	uptake (mmol/g)
0.0127389	0.346396
0.0382166	0.471366
0.0573248	0.613358
0.089172	0.687235
0.159236	0.846358
0.292994	0.937463
0.350318	1.00571
0.388535	0.994426
0.401274	1.04555
0.764331	1.17116
0.987261	1.18862
1.03185	1.21142
1.33758	1.2631
1.43312	1.26896
1.85987	1.31519
2.44586	1.34469
