Adsorption isotherm of N-propane on Zeolite 4A
DOI: 10.1016/S0008-6223(03)00304-X
Adsorbate N-propane: InChIKey ATUOYWHBWRKTHZ-UHFFFAOYSA-N
Temperature: 373 K
Tabular data in the source: 0
pressure (bar)	uptake (mmol/g)
0.0508475	0.332161
0.254237	0.614263
0.279661	0.624368
0.724576	0.826372
0.730932	0.841477
1.13136	0.942778
1.26483	0.93797
1.63983	0.993945
1.86229	0.979224
2.37076	1.03542
2.58051	1.04081
