Adsorption isotherm of Carbon Dioxide on Zn(NDC)(DPMBI)
DOI: 10.1039/C3dt00083d
Adsorbate Carbon Dioxide: InChIKey CURLTUGMZLYLDI-UHFFFAOYSA-N
Temperature: 298 K
Tabular data in the source: 0
pressure (bar)	uptake (mmol/g)
0.0336448	0.101367
0.0628197	0.165723
0.117737	0.290145
0.231005	0.504667
0.352853	0.702027
0.46612	0.852192
0.52447	0.93371
0.639453	1.05384
0.697803	1.11391
0.812787	1.21688
0.871137	1.26836
0.929486	1.31985
0.98612	1.37133
1.04275	1.41853
1.09939	1.47001
