Adsorption isotherm of Carbon Dioxide on Zn(NDC)(DPMBI)
DOI: 10.1039/C3dt00083d
Adsorbate Carbon Dioxide: InChIKey CURLTUGMZLYLDI-UHFFFAOYSA-N
Temperature: 298 K
Tabular data in the source: 0
pressure (bar)	uptake (mmol/g)
0.0319286	0.144271
0.0628197	0.277274
0.119453	0.517538
0.236153	0.938
0.351137	1.31556
0.467836	1.60731
0.52447	1.75318
0.639453	2.01061
0.696087	2.13074
0.814503	2.34097
0.871137	2.45252
0.92777	2.54691
0.989552	2.6413
1.04275	2.7314
