Adsorption isotherm of Carbon Dioxide on Zn(NDC)(DPMBI)
DOI: 10.1039/C3dt00083d
Adsorbate Carbon Dioxide: InChIKey CURLTUGMZLYLDI-UHFFFAOYSA-N
Temperature: 298 K
Tabular data in the source: 0
pressure (bar)	uptake (mmol/g)
0.0319286	0.13998
0.0645359	0.268693
0.12117	0.478924
0.232721	0.83503
0.352853	1.1611
0.469552	1.4314
0.526186	1.54724
0.642886	1.75747
0.697803	1.86044
0.812787	2.04064
0.871137	2.12216
0.92777	2.21226
0.987836	2.28949
1.04275	2.36242
1.1011	2.43536
