Adsorption isotherm of Carbon Dioxide on Zn(NDC)(DPMBI)
DOI: 10.1039/C3dt00083d
Adsorbate Carbon Dioxide: InChIKey CURLTUGMZLYLDI-UHFFFAOYSA-N
Temperature: 298 K
Tabular data in the source: 0
pressure (bar)	uptake (mmol/g)
0.0302124	0.13569
0.0645359	0.242951
0.12117	0.448891
0.229288	0.787835
0.351137	1.11391
0.467836	1.36704
0.521038	1.47859
0.64117	1.68453
0.697803	1.77034
0.811071	1.92909
0.86942	2.0149
0.92777	2.09642
0.98612	2.16506
1.04275	2.22942
1.10282	2.28949
