Adsorption isotherm of Carbon Dioxide on Zn(NDC)(DPMBI)
DOI: 10.1039/C3dt00083d
Adsorbate Carbon Dioxide: InChIKey CURLTUGMZLYLDI-UHFFFAOYSA-N
Temperature: 298 K
Tabular data in the source: 0
pressure (bar)	uptake (mmol/g)
0.0611035	0.221499
0.117737	0.397406
0.232721	0.714898
0.34942	0.989485
0.469552	1.21259
0.526186	1.31556
0.639453	1.49576
0.699519	1.5644
0.811071	1.71886
0.86942	1.77892
0.92777	1.84757
0.98612	1.91193
1.04275	1.98057
