Adsorption isotherm of Nitrogen on Zn(NDC)(DPMBI)
DOI: 10.1039/C3dt00083d
Adsorbate Nitrogen: InChIKey IJGRMHOSHXDMSA-UHFFFAOYSA-N
Temperature: 298 K
Tabular data in the source: 0
pressure (bar)	uptake (mmol/g)
0.0130507	0.0284293
0.0834138	0.045591
0.177803	0.0713336
0.241302	0.0842049
0.308232	0.101367
0.440377	0.13569
0.509024	0.144271
0.579387	0.152852
0.64117	0.165723
0.706384	0.178594
0.776747	0.195756
0.840245	0.212918
0.908892	0.217208
0.974107	0.23866
1.04104	0.260112
1.10968	0.264403
