Adsorption isotherm of Nitrogen on Zn(NDC)(DPMBI)
DOI: 10.1039/C3dt00083d
Adsorbate Nitrogen: InChIKey IJGRMHOSHXDMSA-UHFFFAOYSA-N
Temperature: 298 K
Tabular data in the source: 0
pressure (bar)	uptake (mmol/g)
0.00618604	0.00697713
0.122886	0.0370101
0.176087	0.0498814
0.243018	0.0670431
0.376879	0.0970761
0.442094	0.114238
0.507308	0.127109
0.64117	0.152852
0.709816	0.165723
0.841962	0.187175
0.907176	0.195756
0.975823	0.208627
1.04275	0.212918
1.10797	0.225789
