Adsorption isotherm of Nitrogen on Zn(NDC)(DPMBI)
DOI: 10.1039/C3dt00083d
Adsorbate Nitrogen: InChIKey IJGRMHOSHXDMSA-UHFFFAOYSA-N
Temperature: 298 K
Tabular data in the source: 0
pressure (bar)	uptake (mmol/g)
0.179519	0.0327197
0.243018	0.0498814
0.308232	0.0627527
0.375163	0.075624
0.510741	0.0842049
0.64117	0.109947
0.775031	0.122819
0.907176	0.13569
0.977539	0.144271
1.03932	0.157142
1.1114	0.165723
