Adsorption isotherm of Water on Zeolite Na-A
DOI: 10.1252/Jcej.37.67
Adsorbate Water: InChIKey XLYOFNOQVPJJNP-UHFFFAOYSA-N
Temperature: 298 K
Tabular data in the source: 0
pressure (bar)	uptake (mmol/g)
0.000664	0.463929
0.000664	1.49363
0.000721	4.28241
0.000778	5.61244
0.000778	6.89957
0.00100708	8.25106
0.00112149	10.2461
0.00180796	11.619
0.0032381	12.2197
0.00604118	12.7775
0.0112469	13.2494
0.0184548	13.657
0.0252623	13.893
0.0313261	14.1504
