Adsorption isotherm of Water on Zeolite Na-A
DOI: 10.1252/Jcej.37.67
Adsorbate Water: InChIKey XLYOFNOQVPJJNP-UHFFFAOYSA-N
Temperature: 298 K
Tabular data in the source: 0
pressure (bar)	uptake (mmol/g)
0.000206	10.8253
0.000321	9.15205
0.000492	11.4689
0.00157914	12.7346
0.00300928	12.8633
0.00644162	13.2065
0.0127915	13.3567
0.0252623	13.6141
