Adsorption isotherm of Ethanol on Zeolite Na-A
DOI: 10.1252/Jcej.37.67
Adsorbate Ethanol: InChIKey LFQSCWFLJHTTHZ-UHFFFAOYSA-N
Temperature: 298 K
Tabular data in the source: 0
pressure (bar)	uptake (mmol/g)
0.000321	0.120694
0.000321	0.914424
0.000778	2.43753
0.0072425	2.97383
0.0361886	3.1669
