Adsorption isotherm of Ethanol on Zeolite Na-A
DOI: 10.1252/Jcej.37.67
Adsorbate Ethanol: InChIKey LFQSCWFLJHTTHZ-UHFFFAOYSA-N
Temperature: 298 K
Tabular data in the source: 0
pressure (bar)	uptake (mmol/g)
0.000149	3.23126
0.000607	3.57449
0.00403898	3.7032
0.00781456	3.76756
0.0159378	3.83192
0.0316121	4.02498
