Adsorption isotherm of Methane on InOF-15
DOI: 10.1039/c7dt03255b
Article source: Figure 4a
Adsorbate Methane: InChIKey VNWKTOKETHGBQD-UHFFFAOYSA-N
Kind: experiment
Temperature: 273 K
Tabular data in the source: 0
pressure (bar)	uptake (cm3(STP)/g)
0.0124	-2.589
0.04215	-1.51
0.06612	-0.755
0.09256	0.647
0.11983	1.618
0.14463	2.481
0.17025	3.02
0.20063	3.688
0.22615	4.776
0.25192	5.591
0.28133	6.543
0.30867	7.29
0.3347	8.004
0.36229	8.819
0.3891	9.635
0.41696	10.484
0.44221	11.062
0.47032	11.707
0.49531	12.421
0.52629	13.338
0.5492	13.678
0.57913	14.358
0.60256	15.003
0.63224	15.649
0.65723	16.294
0.68664	17.076
0.71502	17.789
0.7387	18.435
0.765	19.013
0.79415	19.59
0.82122	20.236
0.84804	20.746
0.87251	21.459
0.90244	21.969
0.92561	22.614
0.95477	23.226
0.98054	23.804
1.00865	24.381
1.0339	24.925
1.06228	25.435
1.08857	26.046
