Adsorption isotherm of Nitrogen on InOF-15
DOI: 10.1039/c7dt03255b
Article source: Figure 4a
Adsorbate Nitrogen: InChIKey IJGRMHOSHXDMSA-UHFFFAOYSA-N
Kind: experiment
Temperature: 273 K
Tabular data in the source: 0
pressure (bar)	uptake (cm3(STP)/g)
0.01358	0.28
0.04195	0.259
0.06753	0.259
0.09344	0.259
0.11935	0.216
0.14608	0.194
0.17527	0.152
0.20151	0.194
0.22889	0.259
0.25365	0.216
0.2812	0.173
0.30728	0.152
0.3345	0.109
0.36205	0.066
0.38944	0.066
0.416	0.045
0.44388	0.066
0.47159	0.066
0.49734	0.066
0.52341	0.087
0.54982	0.13
0.57704	0.087
0.6041	0.066
0.63148	0.023
0.6592	0.023
0.68625	-0.041
0.71266	-0.062
0.73971	-0.02
0.76759	0.045
0.79416	0.002
0.82007	-0.02
0.84795	-0.084
0.87353	-0.062
0.90108	-0.041
0.92666	-0.041
0.95421	0.045
0.98143	0.066
1.00816	0.066
1.03522	0.087
1.06261	0.066
1.0895	0.066
