Adsorption isotherm of Nitrogen on InOF-15
DOI: 10.1039/c7dt03255b
Article source: Figure 3
Adsorbate Nitrogen: InChIKey IJGRMHOSHXDMSA-UHFFFAOYSA-N
Kind: experiment
Temperature: 77 K
Tabular data in the source: 0
pressure (bar)	uptake (cm3(STP)/g)
0.00124	24.66
0.00218	75.39
0.00225	100.06
0.00287	49.33
0.00311	124.16
0.00318	149.38
0.00326	173.77
0.00411	197.87
0.01118	222.81
0.03685	232.89
0.05085	236.25
0.06717	238.21
0.08427	239.89
0.09438	241
0.11925	243.8
0.15422	244.63
0.17753	245.75
0.20861	245.46
0.21482	244.05
0.23969	246.01
0.27155	245.44
0.29952	245.43
0.32283	245.99
0.34381	245.98
0.36324	245.97
0.38422	246.53
0.40908	246.52
0.43084	246.24
0.45259	245.95
0.47978	245.38
0.49999	245.38
0.54661	246.2
0.56759	246.48
0.58546	247.03
0.61421	246.46
0.64529	246.46
0.68025	246.17
0.70745	246.16
0.72221	246.15
0.74863	246.99
0.77738	247.54
0.8139	247.25
0.84187	247.52
0.86208	248.36
0.88694	248.35
0.91491	248.62
0.939	249.46
0.96697	249.17
0.99028	249.16
