Adsorption isotherm of Carbon Dioxide on InOF-15
DOI: 10.1039/c7dt03255b
Article source: Figure 4a
Adsorbate Carbon Dioxide: InChIKey CURLTUGMZLYLDI-UHFFFAOYSA-N
Kind: experiment
Temperature: 273 K
Tabular data in the source: 0
pressure (bar)	uptake (cm3(STP)/g)
0.01329	5.896
0.04018	10.748
0.06577	13.811
0.08938	17.13
0.11627	20.619
0.14579	23.596
0.17202	26.404
0.20154	29.041
0.22843	31.423
0.25401	34.061
0.2809	36.102
0.30517	37.717
0.33403	40.184
0.35895	41.97
0.38781	44.011
0.41601	45.967
0.44159	47.923
0.46913	49.709
0.49865	51.154
0.52226	52.77
0.55177	54.47
0.57276	55.916
0.60227	57.275
0.62523	58.891
0.65277	60.592
0.68228	61.866
0.7118	63.311
0.73803	64.926
0.76689	66.201
0.78919	67.391
0.81804	68.921
0.84756	70.366
0.8692	71.386
0.8974	72.746
0.92626	73.85
0.94921	75.295
0.97676	76.314
1.00496	77.504
1.03381	78.608
1.0607	80.053
1.08235	81.073
