Adsorption isotherm of Water on Charcoal
DOI: 10.1260/0263617001493422
Adsorbate Water: InChIKey XLYOFNOQVPJJNP-UHFFFAOYSA-N
Temperature: 293 K
Tabular data in the source: 0
pressure (bar)	uptake (mmol/g)
0.0020867	0.32009
0.00351444	0.430029
0.00464931	0.642287
0.00636992	0.960755
0.00728514	1.22385
0.00805393	1.5381
0.00842002	1.79876
0.00907897	2.31976
0.00999419	3.51539
0.0106898	4.91728
0.0116782	7.09759
0.0135086	10.3178
0.0144971	11.8764
0.0153025	13.2788
0.0159614	14.007
0.0166936	14.7356
0.017499	15.1018
0.0188535	15.5222
