Adsorption isotherm of Water on Charcoal
DOI: 10.1260/0263617001493422
Adsorbate Water: InChIKey XLYOFNOQVPJJNP-UHFFFAOYSA-N
Temperature: 293 K
Tabular data in the source: 0
pressure (bar)	uptake (mmol/g)
0.00102505	0.211772
0.00201348	0.423381
0.00285548	0.737957
0.00505201	1.11034
0.00571097	1.3723
0.00658958	1.79065
0.00706549	2.10361
0.00842002	3.24938
0.00882271	3.76924
0.00955489	4.49779
0.010104	5.32915
0.0103237	5.74459
0.0105799	6.10838
0.0107996	6.52381
0.0110192	6.93925
0.0112389	7.30288
0.0114952	7.71847
0.0117148	8.0821
0.0121175	8.70558
0.0128131	9.53758
0.0135819	10.3699
0.0143506	11.2022
0.0152292	12.0869
0.0159248	12.7116
