Adsorption isotherm of N-Hexane on Charcoal
DOI: 10.1260/0263617001493422
Adsorbate N-Hexane: InChIKey VLKZOEOYAKHREP-UHFFFAOYSA-N
Temperature: 293 K
Tabular data in the source: 0
pressure (bar)	uptake (mmol/g)
0.000131602	0.00943434
0.000263204	1.27589
0.000394804	1.42172
0.00078961	1.7225
0.000921212	1.81365
0.00118441	2.04151
0.00210562	2.1054
0.00315844	2.15109
0.00447446	2.17858
0.00552726	2.19693
0.00684328	2.20619
0.0080277	2.23365
0.00934372	2.24291
0.0106597	2.25217
0.0119757	2.26145
0.0131602	2.27068
0.0159238	2.28012
0.0172398	2.28938
0.0184242	2.29863
0.0197402	2.29877
0.0210562	2.30803
0.0223722	2.30818
0.0236882	2.31744
0.0250044	2.31759
0.0261888	2.32684
0.0275048	2.32699
0.0288208	2.33625
0.0301368	2.3364
0.0314528	2.33654
0.0327688	2.3458
0.0340848	2.34595
0.0354008	2.3461
0.0367168	2.35536
0.0380328	2.35551
0.0393488	2.35566
0.040665	2.3558
0.0418494	2.36505
0.0431654	2.3652
0.0444814	2.36535
0.0457974	2.3655
0.0471134	2.37476
0.0484294	2.3749
0.0497454	2.37505
0.0510614	2.3752
0.0522458	2.38445
0.0535618	2.3846
0.0548778	2.38474
0.0561938	2.38489
0.05751	2.38504
0.058826	2.3943
0.060142	2.39445
0.061458	2.3946
0.062774	2.39474
0.06409	2.404
0.0651428	2.39501
0.0664588	2.40427
0.0677748	2.40442
0.0690908	2.40457
0.0704068	2.41383
0.0717228	2.41398
