Adsorption isotherm of Water on Charcoal
DOI: 10.1260/0263617001493422
Adsorbate Water: InChIKey XLYOFNOQVPJJNP-UHFFFAOYSA-N
Temperature: 293 K
Tabular data in the source: 0
pressure (bar)	uptake (mmol/g)
0.000133131	0.0876821
0.000304298	0.131913
0.000494486	0.176215
0.000665655	0.264039
0.000855842	0.308341
0.00104603	0.352642
0.00123622	0.396944
0.00140738	0.441175
0.00159757	0.485477
0.00178776	0.486186
0.00197794	0.530487
0.00216813	0.574789
0.0023393	0.619018
0.00252948	0.619729
0.00271967	0.66403
0.00279574	0.707909
0.00296691	0.708548
0.0031571	0.752849
0.00334728	0.79715
0.00351847	0.841379
0.00370866	0.84209
0.00389884	0.886391
0.00408903	0.930692
0.00427921	0.974993
0.00445038	1.06282
0.00464056	1.10712
0.00483075	1.15142
0.00500192	1.19565
0.0051921	1.28355
0.00536327	1.32778
0.00555345	1.37208
0.00574364	1.45998
0.00591483	1.5478
0.00610501	1.5921
0.0062952	1.67999
0.00646636	1.76782
0.00665655	1.85571
0.00682771	1.98713
0.00697986	2.16207
0.00709397	2.20609
0.00717005	2.16278
0.0073222	2.33772
0.00751238	2.46921
0.00768355	2.64421
0.00787373	2.7757
0.0080449	2.95071
0.00821609	3.12572
0.00840627	3.25721
0.00857744	3.43222
0.00874861	3.65082
0.00891977	3.82583
0.00909094	4.00084
0.00926211	4.21945
0.00937622	4.52502
0.0095664	4.52573
0.00968052	4.78771
0.00985168	5.00632
0.0100038	5.22485
0.010156	5.48697
0.0103081	5.74911
0.0104603	5.96765
0.0106124	6.22976
0.0107646	6.49187
0.0109167	6.75398
0.0110689	7.01615
0.011221	7.27826
0.0113732	7.54037
0.0115253	7.80248
0.0116965	8.19548
0.0117916	8.28302
