Adsorption isotherm of Water on Charcoal
DOI: 10.1260/0263617001493422
Adsorbate Water: InChIKey XLYOFNOQVPJJNP-UHFFFAOYSA-N
Temperature: 293 K
Tabular data in the source: 0
pressure (bar)	uptake (mmol/g)
0.000256261	0.208366
0.00113487	0.88576
0.00128131	0.990024
0.00161079	1.25052
0.00190366	1.51086
0.00223313	1.77136
0.002526	2.03169
0.00270905	2.18793
0.00300192	2.50007
0.00329479	2.76041
0.00358766	3.07255
0.00388053	3.3847
0.00413679	3.80029
0.00439305	4.2677
0.0045761	4.68297
0.00475914	5.15005
0.00490557	5.61697
0.00508862	6.08405
0.00523505	6.55097
0.0054181	7.01805
0.00560114	7.48513
0.00589401	8.00451
0.00611366	8.41995
0.00636992	8.78374
0.00662619	9.14753
0.00688245	9.51131
0.00713871	9.8751
0.00735836	10.2387
0.00765123	10.6027
0.00790749	10.9147
0.00820036	11.2786
0.00845662	11.5906
0.00871289	11.799
0.00900576	12.1111
0.00929863	12.4233
0.0095915	12.7354
0.00988437	12.9957
0.0102138	13.2562
0.0105067	13.5166
0.0108362	13.7771
0.0111657	14.0376
0.0114952	14.2463
0.0118246	14.4031
0.0121175	14.5599
0.0123372	14.6644
0.0126666	14.8213
0.0130327	14.9784
0.0133622	15.1353
0.0137283	15.2405
0.0140578	15.3456
0.0144239	15.4508
0.0147533	15.5559
0.0151194	15.6611
0.0154489	15.7662
0.015815	15.8714
0.0161445	15.9765
0.0165106	16.0817
0.01684	16.1868
0.0172061	16.2921
0.0175722	16.3973
0.0179017	16.5542
