Adsorption isotherm of Water on Charcoal
DOI: 10.1260/0263617001493422
Adsorbate Water: InChIKey XLYOFNOQVPJJNP-UHFFFAOYSA-N
Temperature: 293 K
Tabular data in the source: 0
pressure (bar)	uptake (mmol/g)
0.000988437	0.159802
0.00223313	0.320738
0.00369749	0.741687
0.00428323	0.951513
0.00556453	1.31984
0.00600384	1.47721
0.00757801	2.52034
0.00816375	3.04101
0.00867628	3.66498
0.0102871	5.27815
0.0108728	5.95425
0.0118246	7.04643
0.0129595	8.86473
0.0135819	9.5928
0.0142042	10.5281
0.014973	11.5677
0.0158882	12.7633
0.0165838	13.5435
0.0170963	14.1156
0.0178651	15.1552
0.0185606	15.8318
0.0192196	16.1456
0.0198053	16.2518
0.0205009	16.4621
