Adsorption isotherm of Methanol on Charcoal
DOI: 10.1260/0263617001493422
Adsorbate Methanol: InChIKey OKKJLVBELUTLKV-UHFFFAOYSA-N
Temperature: 293 K
Tabular data in the source: 0
pressure (bar)	uptake (mmol/g)
0.000635707	0.343375
0.000953561	0.564083
0.00169522	1.20162
0.00190712	1.4468
0.00211903	1.69197
0.00233093	1.91264
0.00264878	2.15786
0.00360235	2.77096
0.00402615	2.99171
0.004344	3.23692
0.00476781	3.45766
0.00519161	3.67843
0.00561541	3.89918
0.00603922	4.11992
0.00646303	4.36516
0.00688683	4.58593
0.00741659	4.80671
0.00784039	5.00295
0.00837014	5.22372
0.00985347	5.68999
0.0105951	5.83733
0.0128201	6.23031
0.0136677	6.35318
0.0146213	6.47608
0.0155748	6.57449
0.0165284	6.67289
0.0174819	6.72226
0.0183295	6.84513
0.019389	6.89454
0.0203427	6.96844
0.0214022	6.99334
0.0224617	7.04275
0.0234152	7.06762
0.0243688	7.14152
0.0254283	7.16643
0.0263819	7.2158
0.0274414	7.26521
0.0285009	7.29014
0.0294544	7.29049
0.0305139	7.33992
0.0315734	7.36483
0.032527	7.38967
0.0335866	7.4391
0.0345401	7.43945
0.0355996	7.46438
0.0366591	7.48929
0.0376127	7.51413
0.0386722	7.53907
0.0397317	7.53944
0.0407912	7.56435
0.0418507	7.56475
0.0428043	7.58962
0.0438638	7.59003
0.0449233	7.59044
0.0459829	7.61534
0.0470424	7.61572
0.0481019	7.64065
0.0491614	7.64103
0.0502209	7.66593
0.0511745	7.66631
0.0522339	7.66671
0.0532935	7.69162
0.054247	7.71649
0.0553065	7.71686
0.056366	7.7418
0.0574255	7.74218
0.058485	7.76708
0.0595446	7.79202
0.0604982	7.81686
0.0615577	7.81726
0.0626172	7.84217
