Adsorption isotherm of Carbon Dioxide on {[(NiLallyl)2(BuTC)]*2DEF*2H2O}
DOI: 10.1016/j.inoche.2013.04.020
Adsorbate Carbon Dioxide: InChIKey CURLTUGMZLYLDI-UHFFFAOYSA-N
Temperature: 195 K
Tabular data in the source: 0
pressure (bar)	uptake (cm3(STP)/g)
0.0171192	0.546213
0.0782957	1.12739
0.167876	1.6168
0.248716	1.95327
0.325186	2.25915
0.419136	2.56504
0.51964	3.1768
0.615775	4.09445
0.668212	4.92033
0.718464	7.15327
0.773086	8.25445
0.823338	9.53916
0.87359	10.518
0.921657	11.2521
0.974094	12.078
