Adsorption isotherm of Nitrogen on {[(NiLallyl)2(BuTC)]*3H2O}
DOI: 10.1016/j.inoche.2013.04.020
Adsorbate Nitrogen: InChIKey IJGRMHOSHXDMSA-UHFFFAOYSA-N
Temperature: 77 K
Tabular data in the source: 0
pressure (bar)	uptake (cm3(STP)/g)
0.00182509	4.70058
0.0477074	6.92915
0.106699	7.97789
0.222497	8.89554
0.320817	9.81318
0.421321	10.3376
0.52401	11.1241
0.626699	12.0418
0.727203	12.8283
0.823338	14.7947
0.871405	16.2367
0.919472	19.7762
0.960985	25.9376
0.976279	34.3275
0.978464	43.635
