Adsorption isotherm of Nitrogen on {[(NiLallyl)2(BuTC)]*2DEF*2H2O}
DOI: 10.1016/j.inoche.2013.04.020
Adsorbate Nitrogen: InChIKey IJGRMHOSHXDMSA-UHFFFAOYSA-N
Temperature: 77 K
Tabular data in the source: 0
pressure (bar)	uptake (cm3(STP)/g)
0.0171192	1.02999
0.106699	1.81655
0.187539	2.20982
0.266195	2.34091
0.323002	2.34091
0.35796	2.47201
0.419136	2.73419
0.521825	3.12747
0.611405	3.52075
0.668212	3.65184
0.762161	4.17621
0.816783	4.56949
0.860481	5.61823
0.908548	7.45352
0.960985	12.9594
