Adsorption isotherm of Carbon Dioxide on {[(NiLallyl)2(BuTC)]*3H2O}
DOI: 10.1016/j.inoche.2013.04.020
Adsorbate Carbon Dioxide: InChIKey CURLTUGMZLYLDI-UHFFFAOYSA-N
Temperature: 195 K
Tabular data in the source: 0
pressure (bar)	uptake (cm3(STP)/g)
0.0171192	2.53445
0.0411528	3.84974
0.0673713	4.58386
0.0914049	5.34857
0.172245	6.72504
0.277119	8.00974
0.377623	9.04974
0.480312	9.87563
0.580817	10.885
0.674766	11.6497
0.729388	12.078
0.781825	12.445
0.829892	12.7815
0.884514	13.2097
0.939136	13.6074
