Adsorption isotherm of Argon on 20 MgO/USY
DOI: 10.1016/j.apcatb.2015.11.017
Article source: Figure 1
Adsorbate Argon: InChIKey XKRFYHLGVUSROY-UHFFFAOYSA-N
Kind: experiment
Temperature: 77 K
Tabular data in the source: 0
pressure (bar)	uptake (cm3(STP)/g)
2.1e-05	4.71
0.000161	13.738
0.000295	22.914
0.000397	32.137
0.000473	41.156
0.000531	50.432
0.000577	59.709
0.00062	68.759
0.000666	78.1
0.00072	87.183
0.000786	96.298
0.000893	105.607
0.001093	114.661
0.001531	123.687
0.002624	132.332
0.005209	139.98
0.010096	146.207
0.064501	165.104
0.09009	168.711
0.109857	171.12
0.168118	176.682
0.217129	180.662
0.267224	183.992
0.27376	185.169
0.316053	187.728
0.363068	191.058
0.413406	194.311
0.46418	197.279
0.515521	199.967
0.56436	201.906
0.615549	204.1
0.66528	207.025
0.717188	210.031
0.76547	213.767
0.817389	218.071
0.868943	222.943
0.919403	227.653
0.936831	230.981
0.968414	233.661
0.33875	196.017
0.412514	205.094
0.513019	208.986
0.61483	212.335
0.719195	216.441
0.827785	222.309
