Adsorption isotherm of Argon on 1 MgO/USY
DOI: 10.1016/j.apcatb.2015.11.017
Article source: Figure 1
Adsorbate Argon: InChIKey XKRFYHLGVUSROY-UHFFFAOYSA-N
Kind: experiment
Temperature: 77 K
Tabular data in the source: 0
pressure (bar)	uptake (cm3(STP)/g)
1.8e-05	3.97
0.000163	13.238
0.000331	22.032
0.000458	30.301
0.000563	41.068
0.000635	50.008
0.000659	58.591
0.000688	67.889
0.000718	76.676
0.000723	85.617
0.00075	94.506
0.000773	102.323
0.000812	111.11
0.000843	120.357
0.000907	129.399
0.001057	137.549
0.001341	146.874
0.001866	155.508
0.003083	163.736
0.005917	171.516
0.011359	177.958
0.060172	193.526
0.094318	198.157
0.115835	200.21
0.11926	200.528
0.152504	203.542
0.167693	204.614
0.196712	207.45
0.222185	209.11
0.242015	210.551
0.268501	212.193
0.299446	215.443
0.364071	218.534
0.413882	221.242
0.46495	224.945
0.51544	227.754
0.565819	231.918
0.616654	236.081
0.666009	240.603
0.716722	245.814
0.767101	251.357
0.81976	257.028
0.870372	261.805
0.918572	266.684
0.937418	270.541
0.967927	274.194
0.342357	226.732
0.412342	237.546
0.512512	242.119
0.615205	246.971
0.720978	252.794
0.828352	260.43
