Adsorption isotherm of Argon on USY
DOI: 10.1016/j.apcatb.2015.11.017
Article source: Figure 1
Adsorbate Argon: InChIKey XKRFYHLGVUSROY-UHFFFAOYSA-N
Kind: experiment
Temperature: 77 K
Tabular data in the source: 0
pressure (bar)	uptake (cm3(STP)/g)
5.5e-05	4.879
0.000273	13.665
0.000444	23.142
0.000584	31.954
0.000656	40.971
0.00069	50.268
0.00071	58.851
0.000747	68.889
0.00076	77.088
0.000777	86.462
0.000794	96.424
0.0008	105.492
0.000826	114.434
0.000841	123.729
0.000869	132.822
0.000896	142.222
0.000979	151.392
0.001073	160.536
0.001267	169.911
0.001552	178.902
0.0022	187.739
0.003617	196.337
0.006794	203.578
0.012703	209.725
0.06137	223.321
0.094008	226.999
0.118915	229.329
0.151288	231.991
0.16902	233.476
0.193044	235.09
0.220301	236.717
0.240485	238.008
0.267863	239.686
0.290924	241.686
0.317735	242.398
0.361254	244.852
0.415736	247.049
0.465021	249.568
0.514599	252.151
0.56662	254.22
0.666354	259.547
0.718668	262.936
0.767385	267.194
0.816923	272.189
0.82974	276.536
0.867038	277.103
0.921024	282.069
0.936132	285.701
0.965648	288.926
0.339824	248.84
0.412271	258.516
0.512512	262.204
0.615914	265.878
0.721252	270.117
0.829811	276.71
