Adsorption isotherm of Argon on Ball milled USY
DOI: 10.1016/j.apcatb.2015.11.017
Article source: Figure 1
Adsorbate Argon: InChIKey XKRFYHLGVUSROY-UHFFFAOYSA-N
Kind: experiment
Temperature: 77 K
Tabular data in the source: 0
pressure (bar)	uptake (cm3(STP)/g)
3.5e-05	3.637
0.000229	12.775
0.000414	21.608
0.000548	30.892
0.000628	40.3
0.000686	49.343
0.00071	58.376
0.000724	66.499
0.000753	76.314
0.00078	85.114
0.000808	94.645
0.000849	105.19
0.000866	121.022
0.000911	130.526
0.000954	138.599
0.000981	147.439
0.001109	156.533
0.001309	165.371
0.001697	174.221
0.002564	182.553
0.00456	190.547
0.008631	197.344
0.015938	202.743
0.062162	214.809
0.09632	219.198
0.122279	221.759
0.161097	225.207
0.172394	225.693
0.206531	228.221
0.222743	229.167
0.269545	232.104
0.316914	234.735
0.36327	237.085
0.41521	239.435
0.463379	242.015
0.515329	244.186
0.565556	246.46
0.614759	249.167
0.666688	252.125
0.714584	255.375
0.766362	259.849
0.814106	264.226
0.867038	270.18
0.917498	276.193
0.937814	279.284
0.963732	281.991
0.339652	239.938
0.408553	249.78
0.51009	254.201
0.613442	258.378
0.717746	262.596
0.828423	269.623
