Adsorption isotherm of Argon on 0.1 MgO/USY
DOI: 10.1016/j.apcatb.2015.11.017
Article source: Figure 1
Adsorbate Argon: InChIKey XKRFYHLGVUSROY-UHFFFAOYSA-N
Kind: experiment
Temperature: 77 K
Tabular data in the source: 0
pressure (bar)	uptake (cm3(STP)/g)
3.7e-05	4.417
0.000232	13.535
0.000426	22.714
0.000542	32.112
0.000629	41.927
0.000675	50.872
0.000704	60.099
0.000727	68.124
0.000763	77.121
0.00078	86.677
0.000782	85.759
0.000808	103.343
0.000821	114.844
0.000828	122.818
0.000867	131.713
0.000925	141.936
0.001005	150.933
0.001164	159.981
0.001445	169.131
0.002085	177.822
0.003485	186.411
0.006736	193.773
0.012521	199.602
0.063276	213.153
0.096026	217.217
0.118834	219.075
0.122259	219.302
0.158594	222.694
0.167733	223.331
0.205102	226.109
0.2187	226.643
0.265745	230.091
0.315567	232.657
0.362206	234.967
0.413761	237.724
0.46415	240.118
0.513515	242.511
0.563681	244.624
0.615671	247.247
0.66527	250.176
0.714058	253.745
0.766969	258.002
0.816436	263.12
0.869855	268.84
0.919524	273.813
0.937125	277.258
0.964665	280.752
0.339033	238.016
0.411369	247.914
0.509989	252.037
0.614313	256.21
0.719256	260.592
0.825941	267.314
