Adsorption isotherm of Argon on 10 MgO/USY
DOI: 10.1016/j.apcatb.2015.11.017
Article source: Figure 1
Adsorbate Argon: InChIKey XKRFYHLGVUSROY-UHFFFAOYSA-N
Kind: experiment
Temperature: 77 K
Tabular data in the source: 0
pressure (bar)	uptake (cm3(STP)/g)
2.9e-05	4.719
0.000204	13.521
0.000374	22.461
0.000498	31.257
0.000576	40.324
0.000627	49.156
0.000669	57.949
0.000723	67.309
0.000754	76.954
0.000765	85.505
0.000786	94.245
0.000816	105.376
0.000835	112.014
0.000886	121.204
0.001001	130.085
0.001191	139.374
0.001597	148.184
0.002542	157.047
0.005084	164.69
0.010492	171.715
0.057708	186.98
0.095791	191.791
0.12158	194.842
0.154369	197.521
0.169101	198.95
0.19732	201.144
0.223016	203.236
0.242552	204.562
0.267002	206.603
0.291218	209.002
0.318404	209.688
0.362723	211.931
0.411613	214.327
0.463349	216.926
0.513606	218.785
0.56433	221.231
0.615154	223.729
0.664895	225.867
0.714402	229.048
0.765065	232.905
0.816011	237.888
0.869703	242.517
0.917771	247.759
0.938067	251.008
0.965698	253.902
0.341252	215.844
0.413913	224.599
0.512259	227.78
0.614374	231.6
0.721809	235.841
0.831331	242.073
