Adsorption isotherm of Nitrogen on MOF C12H9O4N7Zn2
DOI: 10.1039/c4ra14607g
Article source: Figure 4
Adsorbate Nitrogen: InChIKey IJGRMHOSHXDMSA-UHFFFAOYSA-N
Kind: experiment
Temperature: 77 K
Tabular data in the source: 0
pressure (bar)	uptake (cm3(STP)/g)
0.00084	27.153
0.00113	24.157
0.00141	2.868
0.00142	20.906
0.00171	9.051
0.00201	16.847
0.00201	17.423
0.00201	18.166
0.00202	30.021
0.00205	67.059
0.00205	66.353
0.0023	5.928
0.00233	4.449
0.00236	81.707
0.00236	81.204
0.00263	42.705
0.00267	90
0.00292	33.336
0.00293	51.476
0.00293	51.693
0.00294	57.493
0.00294	60.489
0.00295	69.667
0.00296	92.741
0.00297	95.29
0.00297	94.319
0.00298	114.412
0.00322	48.442
0.00323	46.993
0.00325	42.4
0.00326	87.259
0.00327	95.796
0.00329	123.527
0.00354	72.663
0.00357	73.337
0.00357	73.842
0.00385	84.391
0.00386	83.746
0.00388	120.659
0.00416	103.067
0.00476	117.727
0.00507	126.395
0.00655	131.351
0.00655	131.367
0.00803	133.534
0.00952	135.839
0.01129	136.721
0.03055	144.815
0.0504	148.767
0.09099	152.973
0.10461	153.993
0.12476	155.012
0.1446	155.968
0.1579	162.477
0.16495	156.457
0.18587	156.988
0.20585	157.645
0.23125	164.12
0.25722	158.302
0.28262	164.499
0.30918	158.731
0.31483	164.751
0.35902	159.085
0.36608	164.902
0.41122	159.337
0.41686	164.8
0.46176	159.336
0.46858	164.698
0.51254	159.386
0.51843	164.445
0.56967	164.12
0.5824	159.148
0.6218	163.96
0.63409	159.052
0.67349	163.449
0.68534	158.955
0.72429	162.938
0.73584	158.891
0.77553	162.555
0.78723	158.858
0.81404	162.204
0.83803	158.793
0.83951	161.917
0.85877	159.08
0.86543	161.693
0.8715	159.143
0.89091	161.82
0.89668	159.239
0.91742	161.724
0.92245	159.525
0.94334	161.915
0.94778	159.811
0.97133	162.902
0.97458	160.608
0.99739	162.424
1.00184	166.025
1.00747	163.603
1.01502	165.929
1.01961	168.511
