Adsorption isotherm of Hydrogen on MOF C12H9O4N7Zn2
DOI: 10.1039/c4ra14607g
Article source: Figure 4
Adsorbate Hydrogen: InChIKey UFHFLCQGNIYNRP-UHFFFAOYSA-N
Kind: experiment
Temperature: 77 K
Tabular data in the source: 0
pressure (bar)	uptake (cm3(STP)/g)
0.00148	0.861
0.00226	7.937
0.00245	8.579
0.00487	11.19
0.00544	14.846
0.00618	18.622
0.00768	22.237
0.00955	25.812
0.01197	29.146
0.01533	33.244
0.02	40.755
0.02672	46.098
0.0396	55.136
0.05586	62.41
0.06749	67.064
0.08267	71.782
0.09289	74.588
0.10022	76.532
0.11915	80.623
0.12997	82.825
0.14513	85.608
0.15912	87.733
0.17135	89.717
0.18442	91.604
0.19767	93.251
0.21129	94.937
0.22435	96.624
0.23835	97.989
0.25048	99.354
0.26447	100.779
0.27632	101.884
0.2905	103.068
0.30338	104.292
0.31635	105.356
0.32894	106.36
0.34263	107.437
0.3572	108.348
0.36966	109.334
0.38365	110.168
0.39564	110.978
0.40846	111.711
0.42292	112.596
0.43526	113.329
0.4489	114.012
0.46183	114.745
0.48857	116.129
0.50101	116.511
0.51478	117.34
0.52737	117.722
0.54041	118.359
0.55403	118.9
0.56721	119.633
0.5804	119.951
0.59299	120.652
0.60661	121.161
0.62024	121.639
0.63312	122.053
0.64556	122.626
0.65919	123.008
0.67222	123.581
0.6854	124.123
0.69888	124.568
0.71147	124.919
0.7251	125.492
0.73813	125.746
0.75087	126.192
0.7642	126.415
0.77753	126.797
0.791	127.274
0.8033	127.624
0.81692	127.974
0.8301	128.388
0.84506	128.834
0.85661	129.152
0.87103	129.656
0.88243	129.833
0.897	130.186
0.90923	130.489
0.92287	130.615
0.93509	130.969
0.95061	131.5
0.96483	131.702
0.97259	131.954
0.97753	132.182
0.99469	132.485
1.00409	132.712
1.02339	133.081
1.03057	133.382
1.05287	133.682
