Adsorption isotherm of Water on Zeolite 3A
DOI: 10.1021/acs.iecr.7b02314
Article source: Figure 5
Adsorbate Water: InChIKey XLYOFNOQVPJJNP-UHFFFAOYSA-N
Kind: experiment
Temperature: 298 K
Tabular data in the source: 0
pressure (bar)	uptake (g/g)
0.001974	0.10826
0.004221	0.12245
0.030327	0.1572
0.046243	0.13644
0.102347	0.15724
0.106849	0.18207
