Adsorption isotherm of Water on MIL-53(Cr)
DOI: 10.1021/ja1023282
Adsorbate Water: InChIKey XLYOFNOQVPJJNP-UHFFFAOYSA-N
Temperature: 298 K
Tabular data in the source: 0
pressure (bar)	uptake (mg/g)
0.00619484	0.842575
0.102329	9.69131
0.130733	51.9686
0.172245	65.7333
0.329556	74.5821
0.600481	90.3132
0.886699	113.91
0.960985	132.59
0.985018	297.767
0.987203	403.952
0.993758	173.885
