Adsorption isotherm of Ethanol on MIL-53(Cr)
DOI: 10.1021/ja1023282
Adsorbate Ethanol: InChIKey LFQSCWFLJHTTHZ-UHFFFAOYSA-N
Temperature: 298 K
Tabular data in the source: 0
pressure (bar)	uptake (mg/g)
0.00400996	6.74173
0.00619484	105.061
0.0324133	119.809
0.152581	145.372
0.180985	211.246
0.222497	228.943
0.25527	291.868
0.327371	311.532
0.657287	344.96
0.989388	363.641
