Adsorption isotherm of Methanol on MIL-53(Cr)
DOI: 10.1021/ja1023282
Adsorbate Methanol: InChIKey OKKJLVBELUTLKV-UHFFFAOYSA-N
Temperature: 298 K
Tabular data in the source: 0
pressure (bar)	uptake (mg/g)
0.00400996	3.79215
0.00400996	94.2459
0.0411528	136.523
0.143842	173.885
0.163506	257.456
0.185355	325.296
0.261825	349.876
0.401657	370.523
0.558968	380.355
0.729388	388.221
