Adsorption isotherm of Water on GOC16Si-6-823
DOI: 10.1016/j.jcis.2007.04.016
Adsorbate Water: InChIKey XLYOFNOQVPJJNP-UHFFFAOYSA-N
Temperature: 298 K
Tabular data in the source: 0
pressure (bar)	uptake (cm3(STP)/g)
0.00155057	0.146138
0.00235901	0.171021
0.00563767	0.205269
0.00850998	0.230184
0.0117972	0.251996
0.0142631	0.267579
0.0179695	0.280071
0.0224994	0.295685
0.0311633	0.302037
0.0398187	0.320824
0.0488933	0.330291
0.0579701	0.33665
0.0670447	0.346117
0.076532	0.35559
0.085196	0.361942
0.0946834	0.371415
0.103758	0.380883
0.112837	0.384132
0.121911	0.393599
0.131397	0.406181
0.140471	0.415648
0.149546	0.425115
0.158618	0.437691
0.167691	0.450267
0.176348	0.465945
0.185414	0.487847
0.193212	0.553253
