Adsorption isotherm of Water on GOC16Si-1-823
DOI: 10.1016/j.jcis.2007.04.016
Adsorbate Water: InChIKey XLYOFNOQVPJJNP-UHFFFAOYSA-N
Temperature: 298 K
Tabular data in the source: 0
pressure (bar)	uptake (cm3(STP)/g)
0.000188212	0.00468293
0.000568381	0.00936585
0.00280039	0.0187317
0.003439	0.0202927
0.00414159	0.0218537
0.00663142	0.028878
0.00675939	0.028878
0.00739862	0.0296585
0.00969774	0.035122
0.0126342	0.0437073
0.0153769	0.0546341
0.0182462	0.067122
0.0210491	0.0827317
0.0236582	0.100683
0.0262635	0.123317
