Adsorption isotherm of Nitrogen on GOC16Si-6-823
DOI: 10.1016/j.jcis.2007.04.016
Adsorbate Nitrogen: InChIKey IJGRMHOSHXDMSA-UHFFFAOYSA-N
Temperature: 77 K
Tabular data in the source: 0
pressure (bar)	uptake (cm3(STP)/g)
0.00859507	148.174
0.0205334	176.344
0.050167	203.589
0.107351	234.445
0.142831	250.775
0.19601	267.089
0.245248	281.589
0.296429	291.541
0.33776	297.866
0.386957	304.183
0.493231	319.538
0.587678	329.45
0.686068	341.176
0.780529	353.815
0.878954	372.814
0.926225	387.315
