Adsorption isotherm of Water on GOC16Si-6-823
DOI: 10.1016/j.jcis.2007.04.016
Adsorbate Water: InChIKey XLYOFNOQVPJJNP-UHFFFAOYSA-N
Temperature: 298 K
Tabular data in the source: 0
pressure (bar)	uptake (cm3(STP)/g)
0.000253363	0.00967742
0.000891439	0.0193073
0.00140252	0.0250694
0.00204247	0.0288737
0.00293764	0.0365301
0.00370582	0.0403186
0.00434639	0.0421812
0.00485872	0.0440596
0.00639508	0.0516367
0.00786795	0.0572799
0.00889322	0.0590949
0.0103655	0.0666799
0.0116454	0.0742887
0.0130541	0.0799398
0.0145239	0.0952921
0.0158666	0.106777
0.0172716	0.124079
0.0186773	0.139439
0.0203388	0.156709
0.0217431	0.175953
0.0234688	0.193216
0.0249397	0.204684
0.0266012	0.221955
0.0278805	0.231505
