Adsorption isotherm of N-Hexane on GOC16Si-1-823
DOI: 10.1016/j.jcis.2007.04.016
Adsorbate N-Hexane: InChIKey VLKZOEOYAKHREP-UHFFFAOYSA-N
Temperature: 298 K
Tabular data in the source: 0
pressure (bar)	uptake (cm3(STP)/g)
0.000801776	0.023045
0.00159274	0.0565611
0.00281593	0.0712336
0.00609867	0.090116
0.00980069	0.10272
0.0135048	0.11323
0.0168048	0.115359
0.0200941	0.127958
0.0295619	0.153188
0.0390449	0.163758
0.0472895	0.174316
0.0567682	0.189074
0.0654216	0.203824
0.0749045	0.214395
0.084383	0.229153
0.0930403	0.239715
0.102523	0.250285
0.111596	0.258757
0.120249	0.273507
0.12973	0.286171
0.138385	0.298827
0.14787	0.307303
0.156528	0.317864
0.165591	0.334713
0.175077	0.343189
0.184147	0.353755
0.193193	0.387357
