Adsorption isotherm of N-Hexane on GOC16Si-1-823
DOI: 10.1016/j.jcis.2007.04.016
Adsorbate N-Hexane: InChIKey VLKZOEOYAKHREP-UHFFFAOYSA-N
Temperature: 298 K
Tabular data in the source: 0
pressure (bar)	uptake (cm3(STP)/g)
0.000389	0.0230407
0.00117349	0.0628395
0.00322655	0.0733321
0.00609435	0.0943045
0.00979418	0.109003
0.0139133	0.117423
0.0167897	0.130018
0.020496	0.138434
0.022562	0.136361
0.0262684	0.144777
0.0410937	0.178439
0.045217	0.182671
0.050166	0.186911
0.0538745	0.193233
0.0682976	0.21642
0.0724213	0.220651
0.077368	0.226986
0.0810767	0.233307
0.086434	0.24174
0.0905571	0.245972
0.0955038	0.252306
0.0996275	0.256537
0.104987	0.262876
0.109109	0.269202
0.113642	0.275532
0.117768	0.277669
0.132194	0.298762
0.136315	0.305088
0.140848	0.311418
0.144557	0.317739
0.148678	0.324065
0.152391	0.326198
0.159814	0.332558
0.163523	0.33888
0.16888	0.347313
0.172591	0.35154
0.177538	0.357874
0.181246	0.364196
0.186599	0.376817
0.189889	0.389417
0.193591	0.402021
