Adsorption isotherm of Nitrogen on GOC16Si-22-823
DOI: 10.1016/j.jcis.2007.04.016
Adsorbate Nitrogen: InChIKey IJGRMHOSHXDMSA-UHFFFAOYSA-N
Temperature: 77 K
Tabular data in the source: 0
pressure (bar)	uptake (cm3(STP)/g)
0.00254768	118.179
0.00656586	135.448
0.0243281	148.159
0.0420725	157.233
0.0775434	171.746
0.0992076	178.089
0.15632	194.399
0.215382	207.071
0.274448	220.652
0.335462	230.595
0.392548	241.451
0.453559	250.485
0.51262	263.157
0.571695	278.556
0.634708	294.861
0.697698	306.62
0.756755	318.383
0.815821	331.964
0.870976	350.094
0.930082	371.857
0.977487	413.631
