Adsorption isotherm of Nitrogen on GOC16Si-1-823
DOI: 10.1016/j.jcis.2007.04.016
Adsorbate Nitrogen: InChIKey IJGRMHOSHXDMSA-UHFFFAOYSA-N
Temperature: 77 K
Tabular data in the source: 0
pressure (bar)	uptake (cm3(STP)/g)
0.00230632	69.0888
0.0102175	78.1723
0.0220486	84.5248
0.0358418	89.9665
0.055535	95.4026
0.102801	108.995
0.146103	116.227
0.193351	126.183
0.24059	134.32
0.291759	141.545
0.344884	146.95
0.490522	168.632
0.588908	179.449
0.685335	192.086
0.781771	206.541
0.878203	220.087
0.929389	230.949
0.968959	279.093
