Adsorption isotherm of Water on GOC16Si-6-823
DOI: 10.1016/j.jcis.2007.04.016
Adsorbate Water: InChIKey XLYOFNOQVPJJNP-UHFFFAOYSA-N
Temperature: 298 K
Tabular data in the source: 0
pressure (bar)	uptake (cm3(STP)/g)
0.00108815	0.00569073
0.0023668	0.0171832
0.00281438	0.0210113
0.00383904	0.0247682
0.00435075	0.0285884
0.00505543	0.0304431
0.00582361	0.0342316
0.0062077	0.0361259
0.00716824	0.0398906
0.00793518	0.0475628
0.00908869	0.049362
0.00972864	0.0531664
0.0110079	0.062717
0.0122878	0.0703258
0.01408	0.079813
0.0153586	0.0913054
0.0166995	0.108615
0.0177205	0.124023
0.018996	0.145225
0.0202074	0.166434
0.0213553	0.18571
0.022568	0.203036
0.023653	0.218435
0.0248009	0.237711
0.0262066	0.253071
0.0271659	0.26072
0.028508	0.274146
