Adsorption isotherm of N-Hexane on GOC16Si-6-823
DOI: 10.1016/j.jcis.2007.04.016
Adsorbate N-Hexane: InChIKey VLKZOEOYAKHREP-UHFFFAOYSA-N
Temperature: 298 K
Tabular data in the source: 0
pressure (bar)	uptake (cm3(STP)/g)
0.000718611	0.155452
0.00235901	0.171021
0.00480571	0.214582
0.00891633	0.239516
0.0117951	0.255105
0.0146738	0.270694
0.0187908	0.286302
0.0220866	0.295679
0.0311569	0.311364
0.0398145	0.327042
0.0484763	0.336503
0.0583764	0.345982
0.0670382	0.355443
0.0765299	0.358699
0.0851917	0.36816
0.0946791	0.377633
0.103754	0.3871
0.11283	0.393458
0.121905	0.402925
0.131392	0.412399
0.140469	0.418757
0.149129	0.431327
0.158614	0.443909
0.167687	0.456485
0.176346	0.469054
0.184999	0.49095
0.192799	0.553247
