Adsorption isotherm of Nitrogen on GOC16Si-22-823
DOI: 10.1016/j.jcis.2007.04.016
Adsorbate Nitrogen: InChIKey IJGRMHOSHXDMSA-UHFFFAOYSA-N
Temperature: 77 K
Tabular data in the source: 0
pressure (bar)	uptake (cm3(STP)/g)
0.00460817	137.268
0.0165376	163.621
0.0205424	178.163
0.0402802	192.69
0.0481825	199.955
0.0619936	209.033
0.0738246	215.385
0.083698	223.558
0.0955246	229.002
0.107351	234.445
0.154635	251.673
0.201893	263.447
0.25505	275.216
0.308193	284.257
0.402672	300.532
0.469587	310.47
0.528621	317.687
0.575856	324.916
0.634895	333.042
0.690001	341.173
0.747069	348.392
0.802184	358.34
0.85139	366.476
0.904547	378.244
0.934127	394.58
