Adsorption isotherm of N-Hexane on GOC16Si-22-823
DOI: 10.1016/j.jcis.2007.04.016
Adsorbate N-Hexane: InChIKey VLKZOEOYAKHREP-UHFFFAOYSA-N
Temperature: 298 K
Tabular data in the source: 0
pressure (bar)	uptake (cm3(STP)/g)
0.00041193	0.103333
0.00082386	0.13
0.00288351	0.166667
0.00453123	0.193333
0.00741474	0.216667
0.0131818	0.246667
0.0160653	0.256667
0.0201846	0.273333
0.0226562	0.28
0.0313067	0.3
0.0391334	0.313333
0.0481958	0.333333
0.0564344	0.353333
0.0654969	0.363333
0.0749713	0.376667
0.0832099	0.386667
0.0922724	0.4
0.101335	0.406667
0.109985	0.416667
0.119048	0.426667
0.12811	0.436667
0.135937	0.446667
0.145411	0.46
0.154474	0.473333
0.162712	0.493333
0.171363	0.51
0.179602	0.533333
0.187016	0.576667
0.193607	0.643333
