Adsorption isotherm of Water on GOC16Si-1-823
DOI: 10.1016/j.jcis.2007.04.016
Adsorbate Water: InChIKey XLYOFNOQVPJJNP-UHFFFAOYSA-N
Temperature: 298 K
Tabular data in the source: 0
pressure (bar)	uptake (cm3(STP)/g)
0.000764083	0.00468293
0.00127472	0.0062439
0.00235686	0.0132683
0.00312406	0.0140488
0.00357009	0.0163902
0.00465473	0.0202927
0.00548529	0.0218537
0.00631461	0.0249756
0.00752909	0.0265366
0.0082938	0.030439
0.00925171	0.0327805
0.0105917	0.0374634
0.0128274	0.0421463
0.0147408	0.0499512
0.0167796	0.060878
0.018819	0.0710244
0.0211119	0.0842927
0.0232122	0.0983415
0.0254379	0.115512
0.0274084	0.131902
