Adsorption isotherm of Nitrogen on GOC16Si-1-823
DOI: 10.1016/j.jcis.2007.04.016
Adsorbate Nitrogen: InChIKey IJGRMHOSHXDMSA-UHFFFAOYSA-N
Temperature: 77 K
Tabular data in the source: 0
pressure (bar)	uptake (cm3(STP)/g)
0.000205602	41.818
0.00618148	57.2669
0.0160549	65.4395
0.0475835	78.1373
0.0751521	85.3842
0.110574	89.8965
0.167655	99.8431
0.22867	109.786
0.295585	119.723
0.35857	130.574
0.419585	140.516
0.4865	150.454
0.545552	161.308
0.612471	172.154
0.673499	184.824
0.736503	199.311
0.79952	216.525
0.858618	236.469
0.91771	255.505
