Adsorption isotherm of N-Hexane on GOC16Si-22-823
DOI: 10.1016/j.jcis.2007.04.016
Adsorbate N-Hexane: InChIKey VLKZOEOYAKHREP-UHFFFAOYSA-N
Temperature: 298 K
Tabular data in the source: 0
pressure (bar)	uptake (cm3(STP)/g)
0.00041193	0.0966667
0.00164772	0.14
0.00329544	0.17
0.00617895	0.203333
0.00865053	0.223333
0.0127698	0.24
0.0148295	0.25
0.0185369	0.26
0.0218323	0.273333
0.0304828	0.293333
0.0391334	0.313333
0.0481958	0.323333
0.0564344	0.343333
0.064673	0.353333
0.0745594	0.366667
0.0832099	0.38
0.0922724	0.39
0.100511	0.396667
0.109573	0.406667
0.117812	0.416667
0.127286	0.43
0.136761	0.443333
0.144587	0.456667
0.154062	0.463333
0.1623	0.483333
0.171363	0.503333
0.178778	0.526667
0.186604	0.566667
0.193607	0.646667
