Adsorption isotherm of Water on GOC16Si-22-823
DOI: 10.1016/j.jcis.2007.04.016
Adsorbate Water: InChIKey XLYOFNOQVPJJNP-UHFFFAOYSA-N
Temperature: 298 K
Tabular data in the source: 0
pressure (bar)	uptake (cm3(STP)/g)
0.000256465	0.00773529
0.000833512	0.0173727
0.00102586	0.0231742
0.00153879	0.0231108
0.00198761	0.0308223
0.00288523	0.0423618
0.00365463	0.0480919
0.00429579	0.0518962
0.00487284	0.0518248
0.00557812	0.0595047
0.00692456	0.0651635
0.00788631	0.0708698
0.0094251	0.0784466
0.0105151	0.0919041
0.0119256	0.097555
0.0132721	0.112923
0.0144903	0.126364
0.0156444	0.143697
0.0167985	0.162972
0.0180167	0.184181
0.0191067	0.201522
0.0201325	0.218871
0.0212866	0.238145
0.0222484	0.253561
0.0234025	0.268952
0.0261595	0.307446
0.0269289	0.320943
0.0274418	0.33253
0.0280188	0.346051
