Adsorption isotherm of Water on GOC16Si-22-823
DOI: 10.1016/j.jcis.2007.04.016
Adsorbate Water: InChIKey XLYOFNOQVPJJNP-UHFFFAOYSA-N
Temperature: 298 K
Tabular data in the source: 0
pressure (bar)	uptake (cm3(STP)/g)
0.00070528	0.00379631
0.00160291	0.0114523
0.00224407	0.0152566
0.002757	0.0190767
0.00333405	0.0267723
0.00429579	0.0266535
0.00512931	0.0362592
0.00570635	0.0420131
0.00692456	0.0476877
0.00750161	0.0476164
0.00820689	0.0533545
0.00916863	0.0610026
0.00987391	0.0647989
0.0108357	0.0685635
0.0119256	0.0800793
0.0135285	0.0876481
0.0145544	0.103055
0.0158367	0.118431
0.0168626	0.133838
0.0179526	0.153121
0.0188502	0.172427
0.0195555	0.189816
0.0205813	0.211048
0.021479	0.230355
0.0221842	0.245801
0.0228895	0.259307
0.0244924	0.288235
0.0253259	0.303666
0.0260953	0.315221
0.0268647	0.324835
0.0273136	0.334488
0.0282753	0.351845
