Adsorption isotherm of Nitrogen on GOC16Si-6-823
DOI: 10.1016/j.jcis.2007.04.016
Adsorbate Nitrogen: InChIKey IJGRMHOSHXDMSA-UHFFFAOYSA-N
Temperature: 77 K
Tabular data in the source: 0
pressure (bar)	uptake (cm3(STP)/g)
0.00442939	100.905
0.00649435	120.903
0.0104768	130.899
0.0164124	138.166
0.0361324	149.057
0.0558344	156.311
0.0716032	163.569
0.0912964	169.005
0.107061	175.354
0.17006	188.932
0.225193	202.517
0.290145	213.365
0.349198	224.219
0.410217	235.071
0.471232	245.014
0.536175	254.044
0.597181	262.168
0.658204	273.93
0.719233	286.6
0.780261	299.27
0.841293	312.849
0.898402	328.25
0.961441	350.009
