Adsorption isotherm of Nitrogen on Graphite Powder
DOI: 10.1007/s10450-007-9015-7
Article source: Table 2
Adsorbate Nitrogen: InChIKey IJGRMHOSHXDMSA-UHFFFAOYSA-N
Kind: experiment
Temperature: 77 K
Tabular data in the source: 1
pressure (bar)	uptake (cm3(STP)/g)
0.000367	0.988
0.000611	1.5154
0.005624	2.2464
0.012362	2.444
0.019454	2.5425
0.034045	2.6704
0.045191	2.7505
0.06191	2.8494
0.077514	2.9297
0.092814	3.0051
0.118145	3.1288
0.143476	3.2518
0.159587	3.3304
0.174684	3.4102
0.194443	3.5225
0.214505	3.6377
0.23477	3.7586
0.263546	3.9457
0.293741	4.1469
0.315425	4.297
0.3441	4.4892
0.365581	4.6239
0.398917	4.8238
0.420904	4.9445
0.445627	5.0869
0.471161	5.2277
0.496695	5.3756
0.52152	5.5232
0.5506	5.7119
0.57198	5.8553
0.596804	6.0276
0.62173	6.2164
0.652634	6.4859
0.679485	6.73
0.704006	6.9859
0.729033	7.2768
0.753554	7.5814
0.777568	7.9316
0.801886	8.3288
0.824988	8.7784
0.851941	9.4006
0.87251	10.003
0.916485	12.006
0.950834	15.017
0.967755	17.859
