Adsorption isotherm of Argon on Graphite Powder (18% weight loss after burning)
DOI: 10.1007/s10450-007-9015-7
Article source: Table 3
Adsorbate Argon: InChIKey XKRFYHLGVUSROY-UHFFFAOYSA-N
Kind: experiment
Temperature: 77 K
Tabular data in the source: 1
pressure (bar)	uptake (cm3(STP)/g)
0.000307	0.545
0.001112	1.1235
0.00387	1.2831
0.007534	1.3612
0.012513	1.4571
0.018318	1.5123
0.026032	1.5752
0.03532	1.6367
0.045563	1.7052
0.054619	1.7745
0.064784	1.8685
0.078767	2.0453
0.090016	2.3261
0.103406	2.7684
0.117777	3.0248
0.131503	3.2282
0.145177	3.4524
0.156322	3.7043
0.170899	4.2089
0.184702	4.6465
0.197396	5.0907
0.20898	5.6189
0.218784	6.3881
0.223531	7.1563
0.236405	8.921
0.244765	12.151
