Adsorption isotherm of Nitrogen on Pyrolized Graphite Powder
DOI: 10.1007/s10450-007-9015-7
Article source: Figure 6
Adsorbate Nitrogen: InChIKey IJGRMHOSHXDMSA-UHFFFAOYSA-N
Kind: experiment
Temperature: 77 K
Tabular data in the source: 0
pressure (bar)	uptake (cm3(STP)/g)
0.006924	2.42583
0.009232	2.63287
0.025389	2.95784
0.04847	3.13468
0.069243	3.282
0.090015	3.37015
0.115404	3.51734
0.140793	3.60536
0.166182	3.72296
0.191571	3.89973
0.219268	4.04685
0.244657	4.19404
0.267738	4.37088
0.295435	4.54759
0.318516	4.69484
0.341597	4.87168
0.364678	5.01894
0.392375	5.16606
0.415456	5.3429
0.445461	5.57871
0.475466	5.90328
0.496238	6.31687
0.498546	5.75467
0.519319	6.58247
0.521627	5.90193
0.542401	6.75931
0.553941	6.0785
0.567789	6.96567
0.574713	6.22582
0.586254	7.11306
0.597794	6.40266
0.618567	7.40797
0.623183	6.60902
0.648572	7.70296
0.653189	6.87442
0.680886	7.13988
0.701658	8.26354
0.706275	7.40541
0.731664	7.67094
0.752436	8.97211
0.754745	7.99571
0.780134	8.35
0.791674	9.71061
0.800906	8.79318
0.828603	9.23616
0.853992	9.88631
0.856301	11.188
0.874765	10.4774
0.909386	13.1687
0.920927	12.5767
0.944008	15.4754
0.953239	16.5402
0.971705	18.5515
