Adsorption isotherm of Argon on Graphite Powder (51% weight loss after burning)
DOI: 10.1007/s10450-007-9015-7
Article source: Table 3
Adsorbate Argon: InChIKey XKRFYHLGVUSROY-UHFFFAOYSA-N
Kind: experiment
Temperature: 77 K
Tabular data in the source: 1
pressure (bar)	uptake (cm3(STP)/g)
0.000534	0.6526
0.00195	0.8584
0.004412	0.9288
0.00725	0.9708
0.012126	1.0471
0.017157	1.0949
0.021182	1.1244
0.025103	1.1532
0.032869	1.1923
0.039268	1.2328
0.046982	1.275
0.05707	1.3369
0.069712	1.4319
0.077658	1.5104
0.089165	1.7292
0.094815	1.8922
0.103948	2.0931
0.115971	2.2415
0.129103	2.3767
0.14288	2.5404
0.154542	2.7183
0.169093	3.0923
0.182561	3.4078
0.195538	3.7164
0.207922	4.0776
0.21832	4.7716
0.22477	5.3473
0.234135	6.2346
0.245719	9.5768
