Adsorption isotherm of Argon on Graphite Powder
DOI: 10.1007/s10450-007-9015-7
Article source: Table 3
Adsorbate Argon: InChIKey XKRFYHLGVUSROY-UHFFFAOYSA-N
Kind: experiment
Temperature: 77 K
Tabular data in the source: 1
pressure (bar)	uptake (cm3(STP)/g)
7.7e-05	0.5361
0.000231	1.1452
0.000462	1.7237
0.001195	2.2388
0.003947	2.6341
0.006424	2.7932
0.009391	2.9302
0.012332	3.0468
0.017234	3.1992
0.021775	3.3134
0.033308	3.5658
0.044144	3.7902
0.053638	3.9899
0.063468	4.2141
0.071621	4.4141
0.079051	4.629
0.089062	5.0009
0.095434	5.3021
0.105161	5.6789
0.116926	6.041
0.129593	6.414
0.142932	6.8251
0.154542	7.2312
0.169016	7.9057
0.181967	8.5676
0.194248	9.256
0.205445	10.032
0.212927	10.736
0.218965	11.531
0.23447	14.603
0.24283	18.041
0.247216	20.98
