Adsorption isotherm of Nitrogen on Graphite Powder (51% weight loss after burning)
DOI: 10.1007/s10450-007-9015-7
Article source: Table 2
Adsorbate Nitrogen: InChIKey IJGRMHOSHXDMSA-UHFFFAOYSA-N
Kind: experiment
Temperature: 77 K
Tabular data in the source: 1
pressure (bar)	uptake (cm3(STP)/g)
0.00152	0.7262
0.008197	0.8322
0.018644	0.9052
0.034349	0.9224
0.044583	0.9326
0.060491	0.9608
0.075791	0.9713
0.09099	0.9919
0.113889	1.0187
0.139119	1.0426
0.154521	1.0658
0.169618	1.0824
0.189782	1.1253
0.209945	1.1702
0.230312	1.2207
0.260304	1.303
0.290499	1.3975
0.311068	1.4626
0.341263	1.5556
0.362136	1.6165
0.393344	1.693
0.414217	1.7454
0.449579	1.799
0.46498	1.8548
0.49021	1.8964
0.51544	1.9584
0.545534	2.0249
0.566204	2.0812
0.591333	2.1404
0.616968	2.2179
0.651722	2.3344
0.677662	2.4559
0.703499	2.5676
0.728324	2.685
0.753351	2.814
0.778987	2.9692
0.804014	3.1435
0.828535	3.3297
0.859033	3.618
0.878082	3.8753
0.921956	4.7647
0.971909	7.6331
