Adsorption isotherm of Nitrogen on Graphite Powder (18% weight loss after burning)
DOI: 10.1007/s10450-007-9015-7
Article source: Table 2
Adsorbate Nitrogen: InChIKey IJGRMHOSHXDMSA-UHFFFAOYSA-N
Kind: experiment
Temperature: 77 K
Tabular data in the source: 1
pressure (bar)	uptake (cm3(STP)/g)
0.000322	0.5751
0.008552	1.1729
0.01915	1.2575
0.034957	1.297
0.045394	1.3195
0.061808	1.3534
0.07721	1.3771
0.092206	1.4089
0.116625	1.4527
0.141956	1.5008
0.157256	1.5302
0.172556	1.564
0.192315	1.6327
0.21258	1.6927
0.232642	1.7706
0.26233	1.8838
0.292525	2.0254
0.313196	2.1184
0.343086	2.2538
0.364061	2.3391
0.39689	2.4621
0.417763	2.5325
0.443094	2.6132
0.468223	2.7014
0.493757	2.7813
0.518885	2.8635
0.548675	2.9631
0.569446	3.0482
0.594474	3.1431
0.619602	3.2592
0.649797	3.4144
0.675635	3.5601
0.70046	3.7152
0.725588	3.8901
0.750616	4.0774
0.775542	4.2899
0.800366	4.5215
0.825089	4.7913
0.85346	5.1818
0.874131	5.5536
0.912837	6.5602
0.959345	9.2519
0.966337	10.121
