Adsorption isotherm of Nitrogen on ZIF-8
DOI: 10.1016/j.micromeso.2012.03.052
Adsorbate Nitrogen: InChIKey IJGRMHOSHXDMSA-UHFFFAOYSA-N
Temperature: 77 K
Tabular data in the source: 0
pressure (bar)	uptake (cm3(STP)/g)
0.000878949	23.5156
0.0024166	215.004
0.00251392	151.174
0.00323306	279.505
0.00503603	296.973
0.0104501	346.017
0.0195592	371.543
0.0387004	417.218
0.0844354	420.546
0.129258	422.531
0.13749	423.197
0.158529	423.855
0.194206	424.502
0.233542	424.475
0.245434	425.138
0.293002	425.777
0.34057	427.088
0.390883	427.725
0.436622	428.365
0.486022	428.331
0.535419	429.641
0.584818	429.607
0.634217	430.244
0.679955	431.557
0.72112	432.2
0.750393	432.852
0.777835	434.177
0.798874	434.834
0.818999	435.492
0.837293	436.823
0.851928	438.157
0.866562	439.49
0.882112	440.823
0.891258	442.161
0.898574	443.499
0.909549	445.508
0.919606	449.532
0.92875	452.213
0.939715	460.268
0.94702	468.998
0.955236	480.414
0.959786	495.865
0.960667	518.037
0.961544	542.896
