Adsorption isotherm of Nitrogen on ZIF-8
DOI: 10.1016/j.micromeso.2012.03.052
Adsorbate Nitrogen: InChIKey IJGRMHOSHXDMSA-UHFFFAOYSA-N
Temperature: 77 K
Tabular data in the source: 0
pressure (bar)	uptake (cm3(STP)/g)
0.000704798	137.737
0.00152535	199.551
0.00174663	54.4221
0.00179683	21.4993
0.00235411	255.989
0.00239201	231.129
0.00326993	255.317
0.00690661	270.096
0.0123155	322.5
0.0195858	354.074
0.036921	384.297
0.0652747	387.637
0.0799106	388.299
0.119246	388.943
0.137539	390.946
0.157667	389.589
0.19517	392.25
0.232678	391.552
0.244568	392.888
0.292137	393.527
0.340619	394.837
0.390018	395.475
0.437587	395.442
0.48607	396.752
0.533639	397.391
0.582121	398.702
0.632433	400.011
0.68	401.993
0.718418	404.654
0.747691	404.634
0.777876	407.301
0.798002	406.615
0.816295	408.618
0.836417	411.292
0.851053	411.953
0.864773	413.288
0.879408	414.621
0.891295	417.973
0.899523	421.326
0.907756	421.321
0.920559	423.999
0.925122	431.387
0.930607	434.071
0.937004	438.098
0.946132	451.529
0.946142	444.81
0.950684	465.636
0.950695	458.917
0.954328	475.712
0.955227	486.461
0.956127	495.867
0.959765	509.975
0.96065	529.459
0.961581	518.708
