Adsorption isotherm of Nitrogen on ZIF-8
DOI: 10.1016/j.micromeso.2012.03.052
Adsorbate Nitrogen: InChIKey IJGRMHOSHXDMSA-UHFFFAOYSA-N
Temperature: 77 K
Tabular data in the source: 0
pressure (bar)	uptake (cm3(STP)/g)
0.0016237	135.049
0.0024504	192.831
0.00327813	249.942
0.0036295	19.4824
0.0105044	310.407
0.0223435	345.337
0.0424262	373.543
0.0652881	378.902
0.0817545	378.891
0.118342	382.225
0.138466	382.883
0.15859	384.213
0.196095	385.531
0.232686	386.177
0.244578	386.169
0.293975	388.151
0.343372	389.46
0.389111	390.1
0.439422	392.081
0.48699	393.392
0.536389	393.358
0.583956	395.341
0.633353	396.65
0.681835	398.633
0.721168	400.621
0.748609	402.618
0.778795	404.613
0.799832	406.614
0.819047	403.913
0.837341	405.244
0.85289	407.249
0.865694	409.256
0.88124	412.604
0.890384	415.286
0.901359	417.294
0.914161	420.644
0.923302	425.341
0.93518	434.74
0.948869	456.231
0.951583	476.386
0.95613	493.852
0.957028	505.273
0.960658	524.084
0.961553	536.849
0.963362	550.957
