Adsorption isotherm of Carbon Dioxide on Mn2(dobdc)
DOI: 10.1002/adma.201500966
Article source: Figure 3
Adsorbate Carbon Dioxide: InChIKey CURLTUGMZLYLDI-UHFFFAOYSA-N
Kind: experiment
Isotherm type: excess
Temperature: 298 K
Tabular data in the source: 0
pressure (bar)	uptake (mol/mol)
0	0
1.4e-05	0.003252
0.060857	0.169106
0.073524	0.201626
0.098831	0.260163
0.12155	0.299187
0.184655	0.406504
0.199829	0.439024
0.250158	0.487805
0.308033	0.543089
0.355801	0.578862
0.453817	0.643902
0.501572	0.676423
0.551793	0.699187
0.607026	0.721951
0.65474	0.744715
0.704947	0.764228
0.752634	0.780488
0.807853	0.8
0.905733	0.83252
1.00861	0.861789
1.05881	0.878049
