Adsorption isotherm of Carbon Dioxide on Co2(dobdc)
DOI: 10.1002/adma.201500966
Article source: Figure 3
Adsorbate Carbon Dioxide: InChIKey CURLTUGMZLYLDI-UHFFFAOYSA-N
Kind: experiment
Isotherm type: excess
Temperature: 298 K
Tabular data in the source: 0
pressure (bar)	uptake (mol/mol)
0	0
1.4e-05	0.003252
0.038314	0.172358
0.061196	0.250407
0.071357	0.282927
0.081532	0.318699
0.091693	0.35122
0.099334	0.380488
0.12208	0.426016
0.137281	0.465041
0.149948	0.497561
0.170134	0.530081
0.202987	0.595122
0.248344	0.653659
0.301221	0.712195
0.351536	0.757724
0.401824	0.796748
0.452085	0.829268
0.502347	0.861789
0.555087	0.887805
0.607814	0.910569
0.650515	0.933333
0.755941	0.972358
0.803642	0.99187
0.906535	1.02439
1.00439	1.05041
1.05707	1.06341
