Adsorption isotherm of Carbon Dioxide on Mg2(dobdc)
DOI: 10.1002/adma.201500966
Article source: Figure 3
Adsorbate Carbon Dioxide: InChIKey CURLTUGMZLYLDI-UHFFFAOYSA-N
Kind: experiment
Isotherm type: excess
Temperature: 298 K
Tabular data in the source: 0
pressure (bar)	uptake (mol/mol)
0	0
1.4e-05	0.003252
0.005529	0.123577
0.008592	0.256911
0.011316	0.308943
0.01408	0.370732
0.014175	0.393496
0.019378	0.439024
0.021965	0.458537
0.022088	0.487805
0.027223	0.517073
0.03504	0.588618
0.045242	0.630894
0.055416	0.666667
0.07315	0.712195
0.083298	0.741463
0.10095	0.76748
0.113536	0.780488
0.128628	0.793496
0.143733	0.809756
0.158825	0.822764
0.199034	0.84878
0.254294	0.878049
0.304501	0.897561
0.354721	0.920325
0.404915	0.936585
0.455108	0.952846
0.500275	0.965854
0.552988	0.985366
0.608167	0.995122
0.655854	1.01138
0.705993	1.01463
0.75368	1.03089
0.801339	1.04065
0.851519	1.05366
0.906711	1.06667
0.954385	1.07967
1.00202	1.08293
1.0522	1.09593
