Adsorption isotherm of Carbon Dioxide on Cu2(dobdc)
DOI: 10.1002/adma.201500966
Article source: Figure 3
Adsorbate Carbon Dioxide: InChIKey CURLTUGMZLYLDI-UHFFFAOYSA-N
Kind: experiment
Isotherm type: excess
Temperature: 298 K
Tabular data in the source: 0
pressure (bar)	uptake (mol/mol)
0	0
1.4e-05	0.003252
0.025117	0.013008
0.047728	0.026016
0.072845	0.039024
0.102961	0.04878
0.125585	0.065041
0.150675	0.071545
0.175778	0.081301
0.203415	0.097561
0.24865	0.126829
0.303883	0.149593
0.349091	0.172358
0.399325	0.198374
0.449559	0.22439
0.499766	0.243902
0.597714	0.292683
0.700674	0.341463
0.798595	0.38374
0.906569	0.43252
1.00198	0.474797
