Adsorption isotherm of Carbon Dioxide on Zn2(dobdc)
DOI: 10.1002/adma.201500966
Article source: Figure 3
Adsorbate Carbon Dioxide: InChIKey CURLTUGMZLYLDI-UHFFFAOYSA-N
Kind: experiment
Isotherm type: excess
Temperature: 298 K
Tabular data in the source: 0
pressure (bar)	uptake (mol/mol)
0	0
1.4e-05	0.003252
0.032894	0.074797
0.05308	0.107317
0.075867	0.162602
0.10364	0.211382
0.149119	0.299187
0.202091	0.380488
0.252515	0.452033
0.300378	0.510569
0.350762	0.572358
0.403597	0.621138
0.45142	0.669919
0.554462	0.738211
0.654984	0.803252
0.755466	0.858537
0.855907	0.904065
0.948802	0.943089
1.05675	0.985366
