Adsorption isotherm of Carbon Dioxide on Ni2(dobdc)
DOI: 10.1002/adma.201500966
Article source: Figure 3
Adsorbate Carbon Dioxide: InChIKey CURLTUGMZLYLDI-UHFFFAOYSA-N
Kind: experiment
Isotherm type: excess
Temperature: 298 K
Tabular data in the source: 0
pressure (bar)	uptake (mol/mol)
0	0
1.4e-05	0.003252
0.00775	0.055285
0.010405	0.091057
0.012993	0.110569
0.018209	0.15935
0.02096	0.217886
0.031325	0.299187
0.044155	0.370732
0.054411	0.426016
0.06464	0.474797
0.072349	0.520325
0.085016	0.552846
0.095177	0.585366
0.105324	0.614634
0.125551	0.656911
0.140711	0.686179
0.153337	0.708943
0.168443	0.725203
0.183589	0.75122
0.206241	0.773984
0.254036	0.81626
0.306831	0.855285
0.354572	0.884553
0.404806	0.910569
0.455013	0.930081
0.50522	0.949593
0.555427	0.969106
0.605633	0.988618
0.655827	1.00488
0.706006	1.01789
0.756213	1.0374
0.803886	1.05041
0.904246	1.07642
1.00461	1.10244
1.05478	1.11545
