Adsorption isotherm of Carbon Dioxide on Fe2(dobdc)
DOI: 10.1002/adma.201500966
Article source: Figure 3
Adsorbate Carbon Dioxide: InChIKey CURLTUGMZLYLDI-UHFFFAOYSA-N
Kind: experiment
Isotherm type: excess
Temperature: 298 K
Tabular data in the source: 0
pressure (bar)	uptake (mol/mol)
0	0
1.4e-05	0.003252
0.017897	0.084553
0.033179	0.143089
0.05598	0.201626
0.073796	0.266667
0.088996	0.305691
0.116823	0.36748
0.149758	0.452033
0.190157	0.523577
0.228023	0.588618
0.263314	0.637398
0.303591	0.679675
0.336349	0.721951
0.374079	0.754472
0.414288	0.780488
0.449498	0.809756
0.484708	0.839024
0.517384	0.861789
0.555046	0.878049
0.595269	0.907317
0.627904	0.920325
0.665594	0.943089
0.703242	0.956098
0.738384	0.969106
0.776059	0.988618
0.816228	1.00488
0.853862	1.01463
0.889032	1.03415
0.924174	1.04715
0.961808	1.05691
0.99947	1.07317
1.03712	1.08618
1.07225	1.09593
