Adsorption isotherm of Hydrogen on DMF-Derived IRMOF-1/MOF-177
DOI: 10.1016/j.ijhydene.2009.01.082
Adsorbate Hydrogen: InChIKey UFHFLCQGNIYNRP-UHFFFAOYSA-N
Temperature: 77 K
Tabular data in the source: 0
pressure (bar)	uptake (wt%)
0.081522	0.213889
0.112093	0.272222
0.132473	0.317593
0.166441	0.356481
0.197011	0.401852
0.278533	0.505556
0.302311	0.537963
0.322691	0.57037
0.356659	0.602778
0.377039	0.622222
0.387229	0.635185
0.421197	0.667593
0.458561	0.712963
0.546876	0.790741
0.577447	0.823148
0.611415	0.862037
0.652176	0.894444
0.682746	0.926852
0.716714	0.952778
0.808426	1.03704
0.84579	1.06944
0.866171	1.08889
0.917122	1.12778
0.944296	1.1537
0.98166	1.17963
1.01223	1.21204
1.0428	1.225
1.06658	1.24444
