Adsorption isotherm of Hydrogen on DMF-Derived IRMOF-1/MOF-177
DOI: 10.1016/j.ijhydene.2009.01.082
Adsorbate Hydrogen: InChIKey UFHFLCQGNIYNRP-UHFFFAOYSA-N
Temperature: 77 K
Tabular data in the source: 0
pressure (bar)	uptake (wt%)
0.0184455	0.07
0.0336967	0.0966667
0.0429005	0.126667
0.0642119	0.153333
0.0764331	0.18
0.0977571	0.21
0.116026	0.233333
0.137337	0.26
0.155593	0.28
0.179909	0.3
0.204226	0.32
0.231597	0.346667
0.258918	0.36
0.292299	0.373333
0.31962	0.386667
0.346954	0.403333
0.377292	0.413333
0.401558	0.42
0.434939	0.433333
0.547152	0.46
0.580495	0.463333
0.598713	0.473333
0.629027	0.476667
0.659352	0.483333
0.689666	0.486667
0.716961	0.493333
0.747274	0.496667
0.76548	0.503333
0.795768	0.5
0.941274	0.516667
0.971587	0.52
1.00493	0.523333
1.03524	0.526667
1.06857	0.526667
