Adsorption isotherm of Hydrogen on DMF-Derived IRMOF-1/MOF-177
DOI: 10.1016/j.ijhydene.2009.01.082
Adsorbate Hydrogen: InChIKey UFHFLCQGNIYNRP-UHFFFAOYSA-N
Temperature: 298 K
Tabular data in the source: 0
pressure (bar)	uptake (wt%)
0.0182633	0.00144796
0.0365267	0.00289593
0.087664	0.00723982
0.116885	0.00904977
0.295866	0.0217195
0.336045	0.0242534
0.357961	0.0257014
0.379877	0.0282353
0.562511	0.038009
0.588079	0.039819
0.620953	0.041267
0.661133	0.0438009
0.832808	0.0528507
0.865682	0.0539367
0.891251	0.0561086
0.913167	0.0557466
0.942388	0.0579186
0.982568	0.0593665
1.0264	0.0611765
1.05562	0.0626244
1.07023	0.0633484
