Adsorption isotherm of Hydrogen on DMF-Derived IRMOF-1/MOF-177
DOI: 10.1016/j.ijhydene.2009.01.082
Adsorbate Hydrogen: InChIKey UFHFLCQGNIYNRP-UHFFFAOYSA-N
Temperature: 298 K
Tabular data in the source: 0
pressure (bar)	uptake (wt%)
0.00701697	6.37e-05
0.0245594	0.00038247
0.0561357	0.00076494
0.108763	0.00152988
0.11578	0.00172112
0.273662	0.00369721
0.298221	0.00395219
0.329797	0.00433466
0.357865	0.00465339
0.382425	0.00497211
0.406984	0.00541833
0.550832	0.00713944
0.589425	0.00745817
0.606968	0.00777689
0.638544	0.00815936
0.849053	0.0104542
0.877121	0.0109004
0.90168	0.0111554
0.936765	0.0116016
0.961324	0.0117928
0.996409	0.012239
1.02097	0.0125578
1.035	0.0126853
1.05255	0.0129402
