Adsorption isotherm of Hydrogen on DMF-Derived IRMOF-1/MOF-177
DOI: 10.1016/j.ijhydene.2009.01.082
Adsorbate Hydrogen: InChIKey UFHFLCQGNIYNRP-UHFFFAOYSA-N
Temperature: 195 K
Tabular data in the source: 0
pressure (bar)	uptake (wt%)
0.0161115	0.00792952
0.0612236	0.0290749
0.0934465	0.0422907
0.116003	0.0528634
0.277117	0.124229
0.299673	0.134802
0.344785	0.153304
0.389897	0.171806
0.551012	0.235242
0.573568	0.245815
0.592902	0.251101
0.61868	0.264317
0.641236	0.272247
0.663792	0.285463
0.802351	0.340969
0.837796	0.348899
0.860352	0.359471
0.886131	0.370044
0.915131	0.38326
0.976355	0.407048
1.00536	0.420264
1.0408	0.430837
1.0698	0.44141
