Adsorption isotherm of Hydrogen on DMF-Derived IRMOF-1/MOF-177
DOI: 10.1016/j.ijhydene.2009.01.082
Adsorbate Hydrogen: InChIKey UFHFLCQGNIYNRP-UHFFFAOYSA-N
Temperature: 298 K
Tabular data in the source: 0
pressure (bar)	uptake (wt%)
0.0175424	0.000191235
0.0491188	0.00063745
0.0806951	0.00101992
0.105255	0.00140239
0.27717	0.00356972
0.315764	0.00407968
0.343831	0.0045259
0.371899	0.00478088
0.543815	0.0070757
0.589425	0.0076494
0.638544	0.00828685
0.673629	0.00879681
0.698188	0.00905179
0.813968	0.0105817
0.842036	0.0109641
0.873612	0.0113466
0.905189	0.0117291
0.996409	0.0129402
1.03851	0.0135777
1.07009	0.0138964
