Adsorption isotherm of Hydrogen on DMF-Derived IRMOF-1/MOF-177
DOI: 10.1016/j.ijhydene.2009.01.082
Adsorbate Hydrogen: InChIKey UFHFLCQGNIYNRP-UHFFFAOYSA-N
Temperature: 298 K
Tabular data in the source: 0
pressure (bar)	uptake (wt%)
0.0146107	0.00108597
0.0511373	0.00434389
0.0913167	0.00723982
0.116885	0.00904977
0.277603	0.0199095
0.310477	0.0220814
0.343351	0.0246154
0.379877	0.0264253
0.5479	0.0376471
0.591732	0.040181
0.613648	0.041629
0.650175	0.0441629
0.818198	0.0542986
0.854724	0.0557466
0.883946	0.0579186
0.927778	0.0608145
