Adsorption isotherm of Hydrogen on DMF-Derived IRMOF-1/MOF-177
DOI: 10.1016/j.ijhydene.2009.01.082
Adsorbate Hydrogen: InChIKey UFHFLCQGNIYNRP-UHFFFAOYSA-N
Temperature: 195 K
Tabular data in the source: 0
pressure (bar)	uptake (wt%)
0.0225561	0.00792952
0.0870019	0.0370044
0.125669	0.0528634
0.296451	0.132159
0.322229	0.145374
0.354452	0.15859
0.386675	0.174449
0.54779	0.251101
0.567124	0.259031
0.596124	0.27489
0.625125	0.293392
0.650903	0.303965
0.686348	0.317181
0.712127	0.335683
0.747572	0.354185
0.776573	0.364758
0.802351	0.380617
0.824907	0.393833
0.860352	0.414978
0.889353	0.428194
0.915131	0.444053
0.944132	0.457269
0.973132	0.473128
0.995689	0.49163
1.02791	0.507489
1.06013	0.520705
1.0698	0.531278
