Adsorption isotherm of Hydrogen on DMF-Derived IRMOF-1/MOF-177
DOI: 10.1016/j.ijhydene.2009.01.082
Adsorbate Hydrogen: InChIKey UFHFLCQGNIYNRP-UHFFFAOYSA-N
Temperature: 77 K
Tabular data in the source: 0
pressure (bar)	uptake (wt%)
0.0174849	0.0590164
0.0262153	0.0934426
0.037896	0.122951
0.0524908	0.162295
0.0670857	0.201639
0.148995	0.34918
0.201703	0.422951
0.216321	0.452459
0.230977	0.467213
0.254434	0.486885
0.266151	0.501639
0.330575	0.590164
0.403851	0.663934
0.471249	0.737705
0.488831	0.757377
0.509374	0.767213
0.526955	0.786885
0.597329	0.845902
0.667702	0.904918
0.735137	0.963934
0.755668	0.978689
0.7762	0.993443
0.796719	1.01311
0.864178	1.0623
0.934575	1.11148
1.00789	1.17049
1.03137	1.18033
1.04602	1.19508
1.0607	1.2
