Adsorption isotherm of Hydrogen on DEF-Derived IRMOF-1/MOF-177
DOI: 10.1016/j.ijhydene.2009.01.082
Adsorbate Hydrogen: InChIKey UFHFLCQGNIYNRP-UHFFFAOYSA-N
Temperature: 298 K
Tabular data in the source: 0
pressure (bar)	uptake (wt%)
0.081562	0.00271626
0.134891	0.0025692
0.269782	0.00219723
0.398399	0.00184256
0.420358	0.00178201
0.445454	0.0017128
0.47055	0.0016436
0.50192	0.00155709
0.514468	0.00152249
0.530153	0.00736159
0.668181	0.00403979
0.693277	0.00397059
0.708962	0.00392734
0.724647	0.00388408
0.743469	0.00677336
0.759154	0.00967128
0.781113	0.00961073
0.796798	0.0066263
0.937963	0.00623702
0.966196	0.00910035
0.991292	0.00608997
1.01325	0.0148529
1.02266	0.00894464
1.04462	0.00888408
1.06344	0.0117734
