Adsorption isotherm of Hydrogen on DEF-Derived IRMOF-1/MOF-177
DOI: 10.1016/j.ijhydene.2009.01.082
Adsorbate Hydrogen: InChIKey UFHFLCQGNIYNRP-UHFFFAOYSA-N
Temperature: 77 K
Tabular data in the source: 0
pressure (bar)	uptake (wt%)
0.015685	0.0411332
0.075288	0.132145
0.150576	0.214291
0.200768	0.25827
0.210179	0.270009
0.232138	0.281713
0.247823	0.293434
0.266645	0.311029
0.335659	0.357898
0.398399	0.398901
0.467413	0.436946
0.483098	0.448668
0.495646	0.451574
0.514468	0.457405
0.53329	0.475
0.59603	0.504239
0.668181	0.536393
0.730921	0.568573
0.749743	0.571462
0.762291	0.583192
0.78425	0.591955
0.803072	0.600727
0.862675	0.618209
0.934826	0.650363
0.997566	0.67372
1.01952	0.682483
1.04148	0.691246
1.06658	0.7
