Adsorption isotherm of Hydrogen on DMF-Derived IRMOF-1/MOF-177
DOI: 10.1016/j.ijhydene.2009.01.082
Adsorbate Hydrogen: InChIKey UFHFLCQGNIYNRP-UHFFFAOYSA-N
Temperature: 195 K
Tabular data in the source: 0
pressure (bar)	uptake (wt%)
0.0703852	0.0540984
0.143612	0.147541
0.167082	0.162295
0.184663	0.181967
0.205195	0.196721
0.222812	0.201639
0.240369	0.231148
0.269715	0.245902
0.340101	0.3
0.398721	0.359016
0.416314	0.37377
0.442746	0.378689
0.472092	0.393443
0.492612	0.413115
0.530773	0.427869
0.601146	0.486885
0.677407	0.540984
0.697939	0.555738
0.721421	0.565574
0.750779	0.57541
0.780137	0.585246
0.797743	0.595082
0.868128	0.64918
0.938537	0.693443
0.964945	0.708197
0.991365	0.718033
1.02365	0.732787
1.04712	0.747541
1.06474	0.752459
