Adsorption isotherm of Hydrogen on DEF-Derived IRMOF-1/MOF-177
DOI: 10.1016/j.ijhydene.2009.01.082
Adsorbate Hydrogen: InChIKey UFHFLCQGNIYNRP-UHFFFAOYSA-N
Temperature: 195 K
Tabular data in the source: 0
pressure (bar)	uptake (wt%)
0.06274	0.0262976
0.141165	0.0731401
0.15685	0.0760381
0.172535	0.0848183
0.185083	0.0906661
0.213316	0.105294
0.232138	0.108183
0.247823	0.116964
0.266645	0.125735
0.335659	0.146133
0.401536	0.181246
0.420358	0.190017
0.436043	0.192915
0.448591	0.201704
0.464276	0.207543
0.483098	0.219256
0.498783	0.219213
0.517605	0.227984
0.542701	0.233798
0.59603	0.25718
0.671318	0.289325
0.683866	0.295173
0.705825	0.298054
0.72151	0.303893
0.740332	0.309723
0.765428	0.318478
0.796798	0.324273
0.865812	0.36526
0.9411	0.382699
0.959922	0.385588
0.97247	0.391436
0.997566	0.40019
1.01639	0.406021
1.04148	0.411834
1.07599	0.417621
