Adsorption isotherm of Hydrogen on DMF-Derived IRMOF-1/MOF-177
DOI: 10.1016/j.ijhydene.2009.01.082
Adsorbate Hydrogen: InChIKey UFHFLCQGNIYNRP-UHFFFAOYSA-N
Temperature: 77 K
Tabular data in the source: 0
pressure (bar)	uptake (wt%)
0.00311843	0.0233333
0.0214755	0.07
0.0367394	0.1
0.0580003	0.113333
0.082367	0.146667
0.106708	0.173333
0.13105	0.2
0.161439	0.223333
0.185768	0.246667
0.276934	0.316667
0.307285	0.33
0.328546	0.343333
0.34982	0.36
0.374111	0.373333
0.398402	0.386667
0.422718	0.406667
0.443979	0.42
0.462197	0.43
0.547228	0.48
0.571493	0.486667
0.583664	0.5
0.617058	0.516667
0.632221	0.52
0.653482	0.533333
0.683833	0.546667
0.705081	0.556667
0.720256	0.563333
0.811335	0.61
0.850776	0.623333
0.875067	0.636667
0.899345	0.646667
0.920619	0.663333
0.950957	0.673333
0.975223	0.68
1.01772	0.7
1.06929	0.716667
