Adsorption isotherm of Hydrogen on DMF-Derived IRMOF-1/MOF-177
DOI: 10.1016/j.ijhydene.2009.01.082
Adsorbate Hydrogen: InChIKey UFHFLCQGNIYNRP-UHFFFAOYSA-N
Temperature: 77 K
Tabular data in the source: 0
pressure (bar)	uptake (wt%)
0.067935	0.233333
0.0883155	0.278704
0.108696	0.330556
0.132473	0.375926
0.15625	0.421296
0.207202	0.499074
0.237772	0.525
0.268343	0.557407
0.298914	0.602778
0.329485	0.615741
0.363452	0.641667
0.42799	0.693519
0.550273	0.751852
0.584241	0.764815
0.618208	0.777778
0.648779	0.790741
0.682746	0.797222
0.774459	0.82963
0.805029	0.836111
0.832203	0.836111
0.869568	0.855556
0.900138	0.855556
0.930709	0.868519
0.96128	0.868519
0.995247	0.875
1.02582	0.881481
1.05979	0.887963
