Adsorption isotherm of Nitrogen on DMF-Derived IRMOF-1/MOF-177
DOI: 10.1016/j.ijhydene.2009.01.082
Adsorbate Nitrogen: InChIKey IJGRMHOSHXDMSA-UHFFFAOYSA-N
Temperature: 77 K
Tabular data in the source: 0
pressure (bar)	uptake (cm3(STP)/g)
0.00560379	108.197
0.00833406	145.574
0.013685	194.754
0.0216315	249.836
0.0296453	320.656
0.0323419	350.164
0.0505521	401.311
0.0661247	436.721
0.0842254	462.295
0.102284	478.033
0.120326	489.836
0.140937	501.639
0.164103	509.508
0.184706	519.344
0.207879	529.18
0.231045	537.049
0.254218	546.885
0.277358	548.852
0.300515	554.754
0.326225	556.721
0.351943	560.656
0.377653	562.623
0.400793	564.59
0.426495	564.59
0.449635	566.557
0.475336	566.557
0.501038	566.557
0.526748	568.525
0.552449	568.525
0.575589	570.492
0.601299	572.459
0.627001	572.459
0.652711	574.426
0.678412	574.426
0.704122	576.393
0.729824	576.393
0.752964	578.361
0.778665	578.361
0.804375	580.328
0.830077	580.328
0.855787	582.295
0.881489	582.295
0.907199	584.262
0.9329	584.262
0.95604	586.23
