Adsorption isotherm of Hydrogen on DMF-Derived IRMOF-1/MOF-177
DOI: 10.1016/j.ijhydene.2009.01.082
Adsorbate Hydrogen: InChIKey UFHFLCQGNIYNRP-UHFFFAOYSA-N
Temperature: 195 K
Tabular data in the source: 0
pressure (bar)	uptake (wt%)
0.0130869	0.0125
0.0523474	0.0583333
0.0817929	0.0875
0.13414	0.129167
0.274824	0.241667
0.3239	0.279167
0.353345	0.304167
0.376247	0.320833
0.402421	0.333333
0.539833	0.433333
0.566007	0.45
0.588909	0.466667
0.621626	0.4875
0.664158	0.516667
0.795027	0.604167
0.824472	0.625
0.847374	0.6375
0.87682	0.6625
0.906265	0.679167
0.925895	0.695833
0.988058	0.729167
1.03386	0.758333
1.06658	0.779167
