Adsorption isotherm of Hydrogen on DMF-Derived IRMOF-1/MOF-177
DOI: 10.1016/j.ijhydene.2009.01.082
Adsorbate Hydrogen: InChIKey UFHFLCQGNIYNRP-UHFFFAOYSA-N
Temperature: 298 K
Tabular data in the source: 0
pressure (bar)	uptake (wt%)
0.135147	0.00491803
0.152776	0.00491803
0.179232	0
0.196874	-0.00491803
0.220356	0.00491803
0.249738	0.00491803
0.267355	0.00983607
0.399552	0.0196721
0.420119	0.0196721
0.44949	0.0245902
0.470045	0.0295082
0.487687	0.0245902
0.51118	0.0295082
0.528822	0.0245902
0.669821	0.0393443
0.693327	0.0393443
0.710956	0.0393443
0.73445	0.0442623
0.757956	0.0442623
0.778512	0.0491803
0.799091	0.0442623
0.869597	0.0491803
0.943041	0.0540984
0.966547	0.0540984
0.992979	0.0590164
1.02235	0.0639344
1.03998	0.0639344
1.0635	0.0590164
1.07818	0.0639344
