Adsorption isotherm of Hydrogen on DMF-Derived IRMOF-1/MOF-177
DOI: 10.1016/j.ijhydene.2009.01.082
Adsorbate Hydrogen: InChIKey UFHFLCQGNIYNRP-UHFFFAOYSA-N
Temperature: 195 K
Tabular data in the source: 0
pressure (bar)	uptake (wt%)
0.0163586	0.00416667
0.0327171	0.025
0.0719777	0.0583333
0.0850646	0.075
0.111238	0.0916667
0.150499	0.129167
0.284639	0.25
0.320628	0.279167
0.346802	0.3
0.372975	0.320833
0.523474	0.45
0.549648	0.466667
0.579093	0.495833
0.611811	0.520833
0.637984	0.541667
0.66743	0.566667
0.693603	0.595833
0.729592	0.616667
0.759038	0.6375
0.788483	0.666667
0.811385	0.6875
0.847374	0.716667
0.873548	0.733333
0.906265	0.758333
0.93571	0.783333
0.965156	0.808333
0.99133	0.825
1.02405	0.854167
1.05349	0.875
1.06658	0.8875
