Adsorption isotherm of Nitrogen on DEF-Derived IRMOF-1/MOF-177
DOI: 10.1016/j.ijhydene.2009.01.082
Adsorbate Nitrogen: InChIKey IJGRMHOSHXDMSA-UHFFFAOYSA-N
Temperature: 77 K
Tabular data in the source: 0
pressure (bar)	uptake (cm3(STP)/g)
0.00272184	35.4098
0.00281453	57.0492
0.00557008	100.328
0.00566278	121.967
0.0268223	261.639
0.0399259	320.656
0.0425467	332.459
0.0528947	348.197
0.0632512	365.902
0.0787396	381.639
0.101955	401.311
0.125078	399.344
0.150797	403.279
0.171392	411.148
0.215118	419.016
0.238266	422.951
0.263976	424.918
0.281976	426.885
0.307694	430.82
0.330834	432.787
0.356544	434.754
0.392552	440.656
0.418262	442.623
0.441393	442.623
0.490251	448.525
0.515961	450.492
0.541671	452.459
0.56482	456.393
0.590547	462.295
0.61367	460.328
0.636818	464.262
0.662528	466.23
0.688238	468.197
0.71394	468.197
0.737079	470.164
0.762789	472.131
0.788491	472.131
0.814201	474.098
0.837341	476.066
0.863042	476.066
0.888752	478.033
0.914462	480
0.940164	480
0.963312	483.934
