Adsorption isotherm of Phloxine B on CuS/ZnS-NCs-AC
DOI: 10.1016/j.ultsonch.2017.01.038
Article source: Figure 8
Adsorbate Phloxine B: InChIKey JBBPTUVOZCXCSU-UHFFFAOYSA-L
Kind: experiment
Temperature: 298 K
Tabular data in the source: 0
pressure (bar)	uptake (mg/g)
10.1325	7.30012
10.1325	14.6181
10.1325	21.868
10.1325	29.0349
10.1325	36.3095
10.1325	43.1887
10.1325	50.3895
