Adsorption isotherm of Congo Red on CuS/ZnS-NCs-AC
DOI: 10.1016/j.ultsonch.2017.01.038
Article source: Figure 8
Adsorbate Congo Red: InChIKey IQFVPQOLBLOTPF-HKXUKFGYSA-L
Kind: experiment
Temperature: 298 K
Tabular data in the source: 0
pressure (bar)	uptake (mg/g)
10.1325	7.19316
10.1325	14.4954
10.1325	21.9074
10.1325	28.6649
10.1325	35.6156
10.1325	42.6638
10.1325	49.4709
