Adsorption isotherm of Fast Green FCF on CuS/ZnS-NCs-AC
DOI: 10.1016/j.ultsonch.2017.01.038
Article source: Figure 8
Adsorbate Fast Green FCF: InChIKey RZSYLLSAWYUBPE-UHFFFAOYSA-L
Kind: experiment
Temperature: 298 K
Tabular data in the source: 0
pressure (bar)	uptake (mg/g)
10.1325	7.36309
10.1325	14.7194
10.1325	22.0902
10.1325	29.3292
10.1325	20.1043
10.1325	43.5783
10.1325	50.3733
