Adsorption isotherm of Carbon Dioxide on UTSA-48a
DOI: 10.1021/Cg4004438
Adsorbate Carbon Dioxide: InChIKey CURLTUGMZLYLDI-UHFFFAOYSA-N
Temperature: 273 K
Tabular data in the source: 0
pressure (bar)	uptake (cm3(STP)/g)
0.00505689	0.239001
0.0246757	3.33424
0.0639133	6.93141
0.129904	11.1142
0.208379	15.046
0.290421	18.8104
0.381381	22.1566
0.475908	25.0846
0.563301	27.6779
0.629291	29.6856
0.698849	31.3587
0.759489	32.9481
0.820128	34.3703
0.882552	35.3741
0.946759	36.629
1.01097	37.8838
1.04664	38.553
