Adsorption isotherm of Nitrogen on UTSA-48a
DOI: 10.1021/Cg4004438
Adsorbate Nitrogen: InChIKey IJGRMHOSHXDMSA-UHFFFAOYSA-N
Temperature: 77 K
Tabular data in the source: 0
pressure (bar)	uptake (cm3(STP)/g)
0.00650032	46.5791
0.00989002	56.6512
0.0166694	63.9124
0.0268385	70.0025
0.067515	77.0296
0.130225	82.8854
0.225136	89.9124
0.326827	97.1737
0.399706	103.732
0.475974	112.399
0.548853	121.768
0.613257	127.858
0.650544	130.201
0.725118	132.543
0.786132	133.714
0.881044	134.417
0.935279	135.822
