Adsorption isotherm of Acetylene on UTSA-48a
DOI: 10.1021/Cg4004438
Adsorbate Acetylene: InChIKey HSFWRNGVRCDJHI-UHFFFAOYSA-N
Temperature: 296 K
Tabular data in the source: 0
pressure (bar)	uptake (cm3(STP)/g)
0.012191	3.33663
0.0603462	8.15516
0.120986	12.6391
0.186977	16.5207
0.251184	19.4653
0.313607	22.2092
0.379597	24.5516
0.443804	26.6931
0.509795	28.5001
0.604322	31.0432
0.697065	33.0509
0.812994	35.594
0.916439	37.2002
0.969945	38.2041
1.04485	39.3418
