Adsorption isotherm of Methane on UTSA-48a
DOI: 10.1021/Cg4004438
Adsorbate Methane: InChIKey VNWKTOKETHGBQD-UHFFFAOYSA-N
Temperature: 273 K
Tabular data in the source: 0
pressure (bar)	uptake (cm3(STP)/g)
0.00505689	0.155346
0.0853156	0.824586
0.190544	1.74479
0.317174	2.83231
0.411701	3.66886
0.504444	4.3381
0.593621	5.00734
0.688147	5.67658
0.763056	6.09486
0.855799	6.51313
0.948542	6.93141
1.0074	7.34968
1.04307	7.60065
