Adsorption isotherm of Acetylene on UTSA-48a
DOI: 10.1021/Cg4004438
Adsorbate Acetylene: InChIKey HSFWRNGVRCDJHI-UHFFFAOYSA-N
Temperature: 273 K
Tabular data in the source: 0
pressure (bar)	uptake (cm3(STP)/g)
0.00327336	4.08713
0.0175416	7.76796
0.0353768	11.2815
0.0728309	16.1335
0.120986	21.1528
0.174492	25.2519
0.256534	29.6856
0.338576	32.8645
0.422402	35.5414
0.520496	37.8838
0.615023	40.1425
0.779107	42.8194
0.918222	44.8272
0.968161	45.3291
1.03594	46.2493
