Adsorption isotherm of Carbon Dioxide on UTSA-48a
DOI: 10.1021/Cg4004438
Adsorbate Carbon Dioxide: InChIKey CURLTUGMZLYLDI-UHFFFAOYSA-N
Temperature: 296 K
Tabular data in the source: 0
pressure (bar)	uptake (cm3(STP)/g)
0.0104075	0.726593
0.0371604	2.19892
0.108501	5.21051
0.210162	8.69056
0.301122	11.2337
0.413484	14.0445
0.534764	17.123
0.659611	20.0007
0.755921	21.9415
0.821912	23.3469
0.870067	24.2839
0.909305	25.087
0.946759	25.8231
0.980646	26.2916
1.03058	27.3624
