Adsorption isotherm of Hydrogen on UTSA-48a
DOI: 10.1021/Cg4004438
Adsorbate Hydrogen: InChIKey UFHFLCQGNIYNRP-UHFFFAOYSA-N
Temperature: 77 K
Tabular data in the source: 0
pressure (bar)	uptake (cm3(STP)/g)
0.00141576	0.434968
0.00989002	7.22776
0.0336179	16.8314
0.104802	29.0115
0.167511	35.5701
0.231916	40.489
0.328522	45.6422
0.459026	50.5611
0.57936	54.3088
0.681051	56.8854
0.791217	59.6962
0.887823	62.0386
0.98782	63.9124
1.03867	65.5521
