Adsorption isotherm of Methane on UTSA-48a
DOI: 10.1021/Cg4004438
Adsorbate Methane: InChIKey VNWKTOKETHGBQD-UHFFFAOYSA-N
Temperature: 296 K
Tabular data in the source: 0
pressure (bar)	uptake (cm3(STP)/g)
0.00862394	0.191201
0.0924497	0.525821
0.199461	0.994289
0.320741	1.46276
0.420619	1.93123
0.508011	2.33277
0.602538	2.86816
0.695282	3.20278
0.789809	3.47048
0.848665	3.73818
0.912872	3.87202
0.968161	4.0728
1.03594	4.34049
