Adsorption isotherm of Nitrogen on IRMOF-1
DOI: 10.1021/Jp911043r
Adsorbate Nitrogen: InChIKey IJGRMHOSHXDMSA-UHFFFAOYSA-N
Temperature: 77 K
Tabular data in the source: 0
pressure (bar)	uptake (cm3(STP)/g)
0.00775446	322.701
0.0258482	376.468
0.0568661	408.571
0.0801295	423.092
0.100808	438.123
0.118902	444.107
0.155089	465.633
0.183522	469.578
0.250728	494.538
0.367045	528.916
0.408402	544.644
0.454929	554.573
0.506625	577.816
0.558321	596.281
0.610018	619.524
0.659129	643.277
0.710826	671.298
0.752183	691.804
0.780616	714.86
0.814219	732.118
0.832313	747.66
0.850406	763.201
0.87367	782.5
0.889179	798.551
0.904688	809.824
0.920196	844.989
0.93829	865.308
0.953799	890.916
0.956384	914.296
0.966723	936.146
0.971893	968.573
0.979647	990.933
0.982232	1019.09
0.992571	1083.95
0.995156	1126.44
0.997741	1226.27
1.00291	1363.82
