Adsorption isotherm of 1-Butanol on activated carbon F-400
DOI: 10.1002/jctb.4977
Article source: Figure 4
Adsorbate 1-Butanol: InChIKey LRHPLDYGYMQRHN-UHFFFAOYSA-N
Kind: experiment
Temperature: 310 K
Tabular data in the source: 0
pressure (bar)	uptake (mg/g)
1.01325	1
1.01325	236.08
1.01325	252.78
1.01325	249.46
1.01325	224.4
1.01325	221.33
