Adsorption isotherm of 1-Butanol on activated carbon F-400
DOI: 10.1002/jctb.4977
Article source: Figure 4
Adsorbate 1-Butanol: InChIKey LRHPLDYGYMQRHN-UHFFFAOYSA-N
Kind: experiment
Temperature: 273 K
Tabular data in the source: 0
pressure (bar)	uptake (mg/g)
1.01325	6.11
1.01325	60.75
1.01325	139.94
1.01325	184.7
1.01325	218.6
