Adsorption isotherm of Methane on AFS Molecular Sieve
DOI: 10.3866/PKU.WHXB20090215
Adsorbate Methane: InChIKey VNWKTOKETHGBQD-UHFFFAOYSA-N
Temperature: 298 K
Tabular data in the source: 0
pressure (bar)	uptake (molecules/unitcell)
0	0
0.394737	18.7749
0.789474	23.1439
10.2632	25.9779
24.0789	27.8672
56.4474	28.2214
86.8421	28.5756
131.842	29.2841
