Adsorption isotherm of Methane on IRMOF-6
DOI: 10.3866/PKU.WHXB20090215
Adsorbate Methane: InChIKey VNWKTOKETHGBQD-UHFFFAOYSA-N
Temperature: 298 K
Tabular data in the source: 0
pressure (bar)	uptake (cm3(STP)/cm3)
0.428954	5.10098
5.25469	38.6652
8.25737	56.954
12.3324	75.1879
16.193	92.4081
19.6247	104.527
23.2708	114.587
27.7748	124.602
32.1716	130.524
37.1046	136.419
