Adsorption isotherm of Methane on AFS Molecular Sieve
DOI: 10.3866/PKU.WHXB20090215
Adsorbate Methane: InChIKey VNWKTOKETHGBQD-UHFFFAOYSA-N
Temperature: 398 K
Tabular data in the source: 0
pressure (bar)	uptake (molecules/unitcell)
0.00146044	0.118081
0.918615	10.2731
4.16663	16.8856
9.34533	19.6015
17.6757	21.1365
33.1315	22.7897
57.2842	23.6162
78.662	24.0886
104.393	24.5609
130.916	25.0332
