Adsorption isotherm of Methane on AFS Molecular Sieve
DOI: 10.3866/PKU.WHXB20090215
Adsorbate Methane: InChIKey VNWKTOKETHGBQD-UHFFFAOYSA-N
Temperature: 298 K
Tabular data in the source: 0
pressure (bar)	uptake (cm3(STP)/g)
0.253182	98.1423
0.259061	112.031
0.369975	124.066
0.802657	146.278
4.40756	162.861
10.3354	167.353
15.9465	173.705
24.2036	180.921
36.9019	180.627
