Adsorption isotherm of Methane on IRMOF-6
DOI: 10.3866/PKU.WHXB20090215
Adsorbate Methane: InChIKey VNWKTOKETHGBQD-UHFFFAOYSA-N
Temperature: 298 K
Tabular data in the source: 0
pressure (bar)	uptake (cm3(STP)/g)
0.21399	5.5506
2.55416	34.2001
5.63545	63.7584
8.92917	95.1637
13.8102	126.532
19.2199	156.963
23.8861	180.929
30.0315	199.305
37.1276	213.955
