Adsorption isotherm of Methane on AFS Molecular Sieve
DOI: 10.3866/PKU.WHXB20090215
Adsorbate Methane: InChIKey VNWKTOKETHGBQD-UHFFFAOYSA-N
Temperature: 298 K
Tabular data in the source: 0
pressure (bar)	uptake (cm3(STP)/cm3)
0	136.27
0.107239	156.757
0.321716	172.115
0.428954	195.675
1.17962	207.931
4.28954	227.239
10.2949	234.104
15.8713	244.064
24.2359	253.881
36.9973	250.154
