Adsorption isotherm of Methanol on C8H4N6FeNi
DOI: 10.1021/Ja902187d
Adsorbate Methanol: InChIKey OKKJLVBELUTLKV-UHFFFAOYSA-N
Temperature: 303 K
Tabular data in the source: 0
pressure (bar)	uptake (mol/mol)
0	0.125604
0.000737288	0.212528
0.00147458	0.309113
0.00294915	0.589241
0.00368644	0.734136
0.00589831	0.907951
0.00811017	1.13974
0.0125339	1.19751
0.0147458	1.25538
0.0199068	1.34211
0.0294915	1.42864
0.0398136	1.49582
0.0501356	1.54367
0.0597203	1.58189
0.0693051	1.62011
0.0796271	1.63897
0.0906864	1.65781
0.100271	1.67671
0.109119	1.67631
0.119441	1.7145
0.129025	1.7334
0.139347	1.75226
0.148932	1.77116
0.15778	1.79009
0.168839	1.81859
0.186534	1.86611
0.204229	1.9716
