Adsorption isotherm of Nitrogen on C8H4N6FeNi
DOI: 10.1021/Ja902187d
Adsorbate Nitrogen: InChIKey IJGRMHOSHXDMSA-UHFFFAOYSA-N
Temperature: 298 K
Tabular data in the source: 0
pressure (bar)	uptake (mol/mol)
0.301887	0.0203046
0.490566	0.0304569
0.679245	0.0431472
0.981132	0.0583756
1.50943	0.0786802
1.96226	0.104061
2.49057	0.126904
3.01887	0.149746
3.4717	0.170051
4	0.187817
4.49057	0.205584
4.98113	0.22335
5.4717	0.238579
6	0.256345
6.98113	0.284264
8	0.312183
8.9434	0.337563
9.96226	0.365482
