Adsorption isotherm of Nitrogen on C8H4N6FeNi
DOI: 10.1021/Ja902187d
Adsorbate Nitrogen: InChIKey IJGRMHOSHXDMSA-UHFFFAOYSA-N
Temperature: 298 K
Tabular data in the source: 0
pressure (bar)	uptake (mol/mol)
0.113208	0.0101523
0.301887	0.0152284
0.490566	0.0228426
0.754717	0.0329949
1.01887	0.0431472
1.50943	0.0634518
2	0.0837563
2.49057	0.104061
2.98113	0.124365
3.4717	0.139594
4	0.15736
4.49057	0.175127
4.98113	0.187817
5.4717	0.203046
5.96226	0.218274
6.98113	0.243655
7.96226	0.271574
9.01887	0.294416
9.96226	0.317259
