Adsorption isotherm of Carbon Dioxide on C8H4N6FeNi
DOI: 10.1021/Ja902187d
Adsorbate Carbon Dioxide: InChIKey CURLTUGMZLYLDI-UHFFFAOYSA-N
Temperature: 298 K
Tabular data in the source: 0
pressure (bar)	uptake (mol/mol)
0.0435469	0.0934066
0.108195	0.17033
0.162205	0.247253
0.205343	0.302198
0.248422	0.351648
0.302022	0.39011
0.355682	0.434066
0.398527	0.461538
0.505611	0.527473
0.580489	0.565934
0.665946	0.598901
0.761983	0.626374
0.900807	0.675824
1.07143	0.714286
1.30606	0.769231
1.56184	0.813187
1.80687	0.846154
2.06243	0.868132
2.31804	0.895604
2.50976	0.917582
