Adsorption isotherm of Carbon Dioxide on C8H4N6FeNi
DOI: 10.1021/Ja902187d
Adsorbate Carbon Dioxide: InChIKey CURLTUGMZLYLDI-UHFFFAOYSA-N
Temperature: 298 K
Tabular data in the source: 0
pressure (bar)	uptake (mol/mol)
0.0108721	0.021978
0.021978	0.0659341
0.054419	0.115385
0.0975567	0.17033
0.119301	0.214286
0.16238	0.263736
0.205401	0.307692
0.24848	0.357143
0.302081	0.395604
0.366378	0.43956
0.409282	0.472527
0.462824	0.505495
0.51625	0.527473
0.58043	0.56044
0.665829	0.587912
0.772563	0.620879
0.900573	0.653846
1.07114	0.686813
1.30559	0.725275
1.55068	0.763736
1.80629	0.791209
2.06178	0.807692
2.30676	0.835165
2.50894	0.840659
