Adsorption isotherm of Toluene on C8H4N6FeNi
DOI: 10.1021/Ja902187d
Adsorbate Toluene: InChIKey YXFVVABEGXRONW-UHFFFAOYSA-N
Temperature: 303 K
Tabular data in the source: 0
pressure (bar)	uptake (mol/mol)
0.000658725	0.0481782
0.00131745	0.057709
0.00197618	0.0769017
0.0026349	0.0960943
0.00477576	0.124654
0.00774002	0.172374
0.00988088	0.210595
0.0123511	0.239089
0.0148213	0.286907
0.0177856	0.315303
0.0207499	0.40167
0.0248669	0.468484
0.0298073	0.506149
0.0345831	0.543847
0.0396882	0.600802
0.0446286	0.735086
