Adsorption isotherm of Acetone on C8H4N6FeNi
DOI: 10.1021/Ja902187d
Adsorbate Acetone: InChIKey CSCPPACGZOOCGX-UHFFFAOYSA-N
Temperature: 303 K
Tabular data in the source: 0
pressure (bar)	uptake (mol/mol)
0	0.927536
0.00128039	1.02412
0.00512157	1.05301
0.0140843	1.04312
0.0281687	1.06208
0.0384118	1.07148
0.0486549	1.08088
0.0576177	1.08065
0.0806648	1.08972
0.0973099	1.0893
0.120357	1.09837
0.149806	1.10728
0.177975	1.12588
0.236873	1.15336
0.270163	1.16217
0.299612	1.20007
0.330341	1.26691
0.35851	1.48841
