Adsorption isotherm of Ethanol on C8H4N6FeNi
DOI: 10.1021/Ja902187d
Adsorbate Ethanol: InChIKey LFQSCWFLJHTTHZ-UHFFFAOYSA-N
Temperature: 303 K
Tabular data in the source: 0
pressure (bar)	uptake (mol/mol)
0	0.541063
0.000705919	0.821191
0.00105888	0.714878
0.0017648	0.908049
0.00529439	1.17825
0.00776511	1.24566
0.0116477	1.29361
0.017648	1.34136
0.0197657	1.34116
0.0243542	1.36006
0.0296486	1.37889
0.034943	1.38806
0.0391785	1.41665
0.0441199	1.4162
0.0494143	1.42537
0.0547087	1.43454
0.0589442	1.44381
0.0645916	1.46261
0.0744744	1.48101
0.0843573	1.51874
0.095652	1.61431
0.0967109	1.60455
