Adsorption isotherm of Nitrogen on Porous Carbon CS1000A
DOI: 10.1007/s10450-013-9570-z
Adsorbate Nitrogen: InChIKey IJGRMHOSHXDMSA-UHFFFAOYSA-N
Temperature: 77 K
Tabular data in the source: 0
pressure (bar)	uptake (mmol/g)
0.00206706	8.57156
0.0103353	12.8578
0.0186036	14.7838
0.0248048	16.3991
0.0496095	17.8914
0.0723472	18.2655
0.097152	18.3913
0.192237	19.2048
0.341066	19.5249
0.390675	19.6523
0.432016	19.7792
0.452687	19.7805
0.487827	19.8449
0.500229	19.8456
0.5209	19.847
0.541571	19.8483
0.562241	19.8496
0.589113	19.8513
0.692466	20.1685
0.740009	20.1715
0.793753	20.1129
0.847496	20.1784
0.897106	20.2437
