Adsorption isotherm of Nitrogen on Activated Carbon Filtrasorb F400
DOI: 10.1007/s10450-013-9570-z
Adsorbate Nitrogen: InChIKey IJGRMHOSHXDMSA-UHFFFAOYSA-N
Temperature: 77 K
Tabular data in the source: 0
pressure (bar)	uptake (mmol/g)
0.00206706	8.50945
0.00620119	10.0004
0.0165365	10.9327
0.031006	11.6169
0.0475425	12.0527
0.066146	12.4887
0.0930179	12.9252
0.132292	13.1762
0.159164	13.4884
0.202572	13.6775
0.252182	13.8049
0.274919	13.9306
0.303858	14.0567
0.324529	14.1201
0.355535	14.1221
0.374139	14.2475
0.403077	14.2494
0.434083	14.3756
0.452687	14.3768
0.500229	14.504
0.549839	14.6314
0.597381	14.6345
0.646991	14.824
0.694533	14.9512
0.740009	15.0784
0.787551	15.2677
0.828893	15.4567
0.884703	15.833
0.923978	16.3945
0.946715	16.8307
0.963252	17.7013
