Adsorption isotherm of Nitrogen on Porous Carbon CS1000AF
DOI: 10.1007/s10450-013-9570-z
Adsorbate Nitrogen: InChIKey IJGRMHOSHXDMSA-UHFFFAOYSA-N
Temperature: 77 K
Tabular data in the source: 0
pressure (bar)	uptake (mmol/g)
0.00413413	10.8077
0.0103353	14.8454
0.0227377	17.0201
0.0516766	17.8294
0.0723472	18.2655
0.097152	18.3913
0.194304	18.8944
0.268718	19.0234
0.341066	19.2144
0.390675	19.5902
0.489894	19.1618
0.589113	19.665
0.690399	19.6094
0.793753	19.7402
0.897106	19.8089
