Adsorption isotherm of Acetylene on UTSA-57a
DOI: 10.1021/ic502116k
Article source: Figure 3b
Adsorbate Acetylene: InChIKey HSFWRNGVRCDJHI-UHFFFAOYSA-N
Kind: experiment
Temperature: 296 K
Tabular data in the source: 0
pressure (bar)	uptake (cm3(STP)/g)
0	0
0.00182	0.590717
0.00364	1.26582
0.00728	2.02532
0.012741	2.78481
0.016381	3.5443
0.032762	5.99156
0.063704	9.62025
0.094645	12.4051
0.125587	14.7679
0.158348	16.8776
0.189291	18.6498
0.220233	20.2532
0.251174	21.6878
0.283935	23.1224
0.316698	24.3882
0.349459	25.4852
0.378581	26.4135
0.411342	27.2574
0.442285	28.1013
0.475046	28.7764
0.504168	29.3671
0.536929	30.0422
0.567872	30.4641
0.600633	30.9705
0.631575	31.3924
0.662516	31.73
0.693459	32.0675
0.72622	32.3207
0.757162	32.4895
0.786283	32.6582
0.819045	32.7426
0.849987	32.827
0.882749	32.7426
0.91187	32.6582
0.944632	32.6582
0.975574	32.5738
1.00652	32.4895
1.03928	32.3207
1.07022	32.2363
