Adsorption isotherm of Methane on UTSA-57a
DOI: 10.1021/ic502116k
Article source: Figure 3a
Adsorbate Methane: InChIKey VNWKTOKETHGBQD-UHFFFAOYSA-N
Kind: experiment
Temperature: 273 K
Tabular data in the source: 0
pressure (bar)	uptake (cm3(STP)/g)
0	0
0.007305	0.141844
0.018263	0.283688
0.0347	0.425532
0.063922	0.992908
0.096796	1.56028
0.127843	2.12766
0.158891	2.69504
0.191766	3.26241
0.220986	3.82979
0.25386	4.39716
0.286734	4.96454
0.315955	5.39007
0.34883	5.95745
0.379878	6.38298
0.410925	6.80851
0.441973	7.23404
0.473021	7.65957
0.504068	8.08511
0.536943	8.51064
0.566164	8.93617
0.597211	9.3617
0.628259	9.64539
0.661132	10.0709
0.690354	10.4965
0.723229	10.922
0.754275	11.3475
0.785323	11.773
0.816372	12.0567
0.847418	12.3404
0.878466	12.766
0.911341	13.0496
0.940561	13.4752
0.973436	13.7589
1.00448	14.1844
1.0337	14.4681
1.06658	14.7518
