Adsorption isotherm of Carbon Dioxide on UTSA-57a
DOI: 10.1021/ic502116k
Article source: Figure 3b
Adsorbate Carbon Dioxide: InChIKey CURLTUGMZLYLDI-UHFFFAOYSA-N
Kind: experiment
Temperature: 296 K
Tabular data in the source: 0
pressure (bar)	uptake (cm3(STP)/g)
0	0
0.00364	0.168776
0.00546	0.337553
0.009101	0.506329
0.014561	0.759494
0.032762	1.85654
0.065524	3.5443
0.094645	4.9789
0.127407	6.4135
0.158348	7.67932
0.189291	9.02954
0.222052	10.211
0.252994	11.4768
0.285755	12.6582
0.316698	13.8397
0.347639	14.9367
0.378581	16.0338
0.409522	17.1308
0.440464	18.2278
0.473226	19.2405
0.504168	20.2532
0.535109	21.1814
0.564231	22.1941
0.596994	23.2911
0.629755	24.2194
0.660696	25.2321
0.693459	26.1603
0.722581	27.0886
0.753522	28.0169
0.786283	28.8608
0.817225	29.789
0.848166	30.6329
0.880929	31.5612
0.91187	32.4051
0.942812	33.4177
0.973753	34.2616
1.00652	35.1899
1.03564	36.0338
1.0684	36.7932
