Adsorption isotherm of Methane on UTSA-57a
DOI: 10.1021/ic502116k
Article source: Figure 3b
Adsorbate Methane: InChIKey VNWKTOKETHGBQD-UHFFFAOYSA-N
Kind: experiment
Temperature: 296 K
Tabular data in the source: 0
pressure (bar)	uptake (cm3(STP)/g)
0	0
0.00182	-0.168776
0.00728	-0.337553
0.010921	-0.421941
0.018201	-0.590717
0.040042	-0.590717
0.063704	-0.337553
0.096465	-0.084388
0.127407	0.253165
0.158348	0.506329
0.189291	0.759494
0.222052	1.09705
0.251174	1.26582
0.283935	1.60338
0.318518	1.85654
0.351279	2.1097
0.380401	2.36287
0.411342	2.53165
0.444105	2.78481
0.475046	3.12236
0.507808	3.29114
0.536929	3.5443
0.569692	3.71308
0.600633	3.88186
0.631575	4.05063
0.662516	4.38819
0.693459	4.55696
0.72622	4.81013
0.757162	4.9789
0.788103	5.14768
0.819045	5.31646
0.849987	5.56962
0.880929	5.7384
0.91369	5.99156
0.944632	6.07595
0.975574	6.24473
1.00652	6.49789
1.03928	6.66667
1.0684	6.91983
