Adsorption isotherm of Nitrogen on UTSA-57a
DOI: 10.1021/ic502116k
Article source: Figure 2a
Adsorbate Nitrogen: InChIKey IJGRMHOSHXDMSA-UHFFFAOYSA-N
Kind: experiment
Temperature: 77 K
Tabular data in the source: 0
pressure (bar)	uptake (cm3(STP)/g)
0	22.6613
0.001553	41.5323
0.003106	44.4355
0.004659	45.8871
0.006211	47.5806
0.007764	49.2742
0.009317	50
0.01087	58.9516
0.012423	51.4516
0.015529	52.1774
0.017082	52.6613
0.018634	53.1452
0.035716	55.5645
0.051245	65.4839
0.065221	58.7097
0.090067	67.9032
0.102489	60.8871
0.118018	61.8548
0.130442	69.5968
0.1351	63.0645
0.169263	70.8065
0.201874	65.9677
0.211191	72.0161
0.236037	67.4194
0.250012	73.2258
0.251566	68.1452
0.268647	68.629
0.284176	69.3548
0.290387	74.1935
0.301257	69.8387
0.310574	70.5645
0.318339	71.0484
0.330762	75.1613
0.336974	71.5323
0.366478	72.5
0.369584	76.371
0.400641	73.7097
0.408406	77.5806
0.434805	74.4355
0.448781	78.7903
0.468968	75.4032
0.489156	81.4516
0.501578	76.371
0.52953	83.1452
0.535742	77.5806
0.568352	85.0806
0.600962	80
0.608726	87.5
0.633572	81.2097
0.649101	90.4032
0.667736	82.9032
0.687923	93.7903
0.700346	84.8387
0.726744	98.3871
0.732957	87.2581
0.765567	89.6774
0.767119	103.71
0.79973	93.0645
0.807494	110.726
0.833894	97.4194
0.847869	118.226
0.868056	103.226
0.894456	126.935
0.900667	111.452
0.931724	133.226
0.933277	122.823
0.96744	137.581
