Adsorption isotherm of Carbon Dioxide on UTSA-57a
DOI: 10.1021/ic502116k
Article source: Figure 3a
Adsorbate Carbon Dioxide: InChIKey CURLTUGMZLYLDI-UHFFFAOYSA-N
Kind: experiment
Temperature: 273 K
Tabular data in the source: 0
pressure (bar)	uptake (cm3(STP)/g)
0	0
0.005479	1.84397
0.009132	2.83688
0.010958	3.26241
0.014611	3.68794
0.016437	3.97163
0.02009	4.39716
0.032874	6.09929
0.063922	9.92908
0.094969	13.0496
0.126017	15.8865
0.157064	18.4397
0.188113	20.8511
0.219161	23.2624
0.252034	25.5319
0.281256	27.3759
0.314129	29.5035
0.345177	31.3475
0.376225	33.1915
0.407272	35.0355
0.440146	36.7376
0.469368	38.4397
0.502241	40
0.533289	41.5603
0.562511	43.2624
0.595384	44.8227
0.626432	46.2411
0.657481	47.6596
0.688527	49.078
0.719575	50.4965
0.750624	51.9149
0.783497	53.3333
0.814545	54.4681
0.845593	55.8865
0.87664	57.1631
0.907688	58.2979
0.938736	59.5745
0.969783	60.8511
1.00083	62.1277
1.03188	63.4043
1.06475	64.6809
