Adsorption isotherm of Ethene on UTSA-57a
DOI: 10.1021/ic502116k
Article source: Figure 3a
Adsorbate Ethene: InChIKey VGGSQFUCUMXWEO-UHFFFAOYSA-N
Kind: experiment
Temperature: 273 K
Tabular data in the source: 0
pressure (bar)	uptake (cm3(STP)/g)
0	0
0.003653	1.56028
0.005479	2.2695
0.007305	2.97872
0.009132	3.68794
0.012784	4.53901
0.018263	5.53191
0.032874	8.36879
0.065748	12.4823
0.096796	15.1773
0.127843	17.5887
0.157064	19.4326
0.189939	20.9929
0.220986	22.4113
0.252034	23.6879
0.283082	24.8227
0.314129	25.8156
0.34883	26.9504
0.378052	27.8014
0.409098	28.6525
0.440146	29.3617
0.473021	30.0709
0.504068	30.922
0.535116	31.6312
0.567989	32.1986
0.597211	32.9078
0.628259	33.4752
0.657481	34.0426
0.690354	34.4681
0.719575	35.0355
0.75245	35.6028
0.783497	36.1702
0.814545	36.7376
0.843767	37.1631
0.878466	37.7305
0.907688	38.156
0.938736	38.5816
0.971609	39.0071
1.00266	39.5745
1.03188	40
1.06475	40.4255
