Adsorption isotherm of Hydrogen on UTSA-57a
DOI: 10.1021/ic502116k
Article source: Figure 2a
Adsorbate Hydrogen: InChIKey UFHFLCQGNIYNRP-UHFFFAOYSA-N
Kind: experiment
Temperature: 77 K
Tabular data in the source: 0
pressure (bar)	uptake (cm3(STP)/g)
0.001623	1.21766
0.00487	0.086957
0.00974	0.133333
0.035715	0.26087
0.063313	0.345894
0.090911	0.407729
0.118509	0.457971
0.146107	0.500483
0.172082	0.535266
0.201302	0.568116
0.227277	0.593237
0.254875	0.62029
0.282473	0.641546
0.308448	0.662802
0.336046	0.684058
0.36202	0.703382
0.389617	0.720773
0.418839	0.738164
0.444814	0.753623
0.472412	0.769082
0.498386	0.782609
0.525985	0.798068
0.551959	0.809662
0.579556	0.821256
0.605532	0.834783
0.633129	0.846377
0.659103	0.857971
0.686701	0.869565
0.7143	0.881159
0.741898	0.890821
0.769495	0.892754
0.816574	0.910145
0.823068	0.919807
0.852289	0.929469
0.896121	0.941063
0.922096	0.950725
0.931837	0.956522
0.959434	0.966184
0.983786	0.973913
1.01301	0.981643
1.03736	0.991304
1.06658	0.999034
