Adsorption isotherm of Acetylene on UTSA-57a
DOI: 10.1021/ic502116k
Article source: Figure 3a
Adsorbate Acetylene: InChIKey HSFWRNGVRCDJHI-UHFFFAOYSA-N
Kind: experiment
Temperature: 273 K
Tabular data in the source: 0
pressure (bar)	uptake (cm3(STP)/g)
0	0
0.001826	1.56028
0.005479	3.5461
0.012784	6.09929
0.018263	6.95035
0.032874	10.6383
0.063922	16.0284
0.094969	20.5674
0.127843	24.2553
0.158891	27.234
0.188113	29.7872
0.220986	32.1986
0.252034	34.3262
0.286734	36.3121
0.317782	38.0142
0.34883	39.5745
0.379878	41.1348
0.410925	42.4113
0.441973	43.6879
0.474846	44.8227
0.505894	45.9574
0.536943	46.8085
0.566164	47.8014
0.599037	48.6525
0.630086	49.5035
0.661132	50.2128
0.690354	50.922
0.723229	51.6312
0.756102	52.1986
0.785323	52.6241
0.816372	53.3333
0.849245	53.7589
0.878466	54.3262
0.911341	54.7518
0.940561	55.1773
0.971609	55.6028
1.00448	55.8865
1.0337	56.3121
1.06475	56.5957
