Adsorption isotherm of Ethene on UTSA-57a
DOI: 10.1021/ic502116k
Article source: Figure 3b
Adsorbate Ethene: InChIKey VGGSQFUCUMXWEO-UHFFFAOYSA-N
Kind: experiment
Temperature: 296 K
Tabular data in the source: 0
pressure (bar)	uptake (cm3(STP)/g)
0	0.168776
0.00546	0.843882
0.009101	1.4346
0.012741	1.77215
0.016381	2.02532
0.032762	3.5443
0.063704	5.90717
0.094645	7.8481
0.125587	9.45148
0.156528	10.9705
0.189291	12.3207
0.220233	13.5021
0.252994	14.6835
0.285755	15.6962
0.316698	16.6245
0.34582	17.5527
0.378581	18.3122
0.409522	18.9873
0.442285	19.7468
0.475046	20.4219
0.505988	21.0127
0.535109	21.6034
0.567872	22.1941
0.598813	22.7848
0.629755	23.2911
0.660696	23.7975
0.693459	24.2194
0.7244	24.6414
0.755342	24.9789
0.786283	25.4852
0.817225	25.8228
0.848166	26.2447
0.879109	26.5823
0.91187	26.8354
0.942812	27.173
0.975574	27.5105
1.00652	27.8481
1.03564	28.1013
1.07022	28.4388
