Adsorption isotherm of Nitrogen on Yttria-stabilized zirconia
DOI: 10.1007/s13369-016-2193-4
Article source: Figure 12
Adsorbate Nitrogen: InChIKey IJGRMHOSHXDMSA-UHFFFAOYSA-N
Kind: experiment
Temperature: 77 K
Tabular data in the source: 0
pressure (bar)	uptake (cm3(STP)/g)
0.010406	0.10921
0.012392	0.11315
0.034157	0.11878
0.070117	0.11062
0.080351	0.137
0.101203	0.16321
0.120759	0.19336
0.140538	0.22445
0.162059	0.26091
0.181331	0.3053
0.201353	0.35654
0.253677	0.3988
0.303732	0.44812
0.355175	0.50217
0.404236	0.55514
0.456682	0.60468
0.506372	0.64843
0.557733	0.67454
0.609612	0.69103
0.659605	0.69536
0.729297	0.67122
0.769472	0.68323
0.780608	0.72462
0.811644	0.74757
0.851323	0.75916
0.871598	0.79046
0.872844	0.82799
0.88862	0.85115
0.92224	0.87577
0.947166	0.91209
0.952911	0.94991
0.961676	0.98452
0.967532	1.00512
0.973591	1.03269
0.97884	1.06053
0.982528	1.10059
0.986298	1.12867
0.990269	1.15028
0.991951	1.18993
0.995721	1.2371
0.997474	1.26519
0.99947	1.30421
1.00247	1.34752
1.00346	1.42943
0.141207	0.47038
0.202022	0.59477
0.253079	0.68871
0.303144	0.776
0.354141	0.85786
0.405199	0.95693
0.454625	1.01707
0.486005	1.02762
0.556659	1.04412
0.58884	1.0444
0.637892	1.04603
0.690094	1.03632
0.730948	1.02147
0.78	1.0096
0.791662	1.00744
0.811218	1.01555
0.850968	1.01151
0.870838	1.01584
0.88629	1.02881
0.897334	1.03421
0.918785	1.04314
0.940387	1.05908
0.961959	1.08644
0.983116	1.16559
