Adsorption isotherm of Indigo carmine on CC-chitosan
DOI: 10.1016/j.molliq.2017.02.103
Article source: Figure 1 (FB2)
Adsorbate Indigo carmine: InChIKey JFVXEJADITYJHK-UHFFFAOYSA-L
Kind: experiment
Temperature: 318 K
Tabular data in the source: 0
pressure (bar)	uptake (mg/g)
1.01325	1.32
1.01325	117.63
1.01325	227.96
1.01325	321.68
1.01325	402.79
1.01325	507.17
1.01325	617.88
1.01325	696.57
