Adsorption isotherm of Indigo carmine, Tartrazine on CC-chitosan
DOI: 10.1016/j.molliq.2017.02.103
Article source: Figure 2
Adsorbate Indigo carmine: InChIKey JFVXEJADITYJHK-UHFFFAOYSA-L
Adsorbate Tartrazine: InChIKey UJMBCXLDXJUMFB-UHFFFAOYSA-K
Kind: experiment
Temperature: 308 K
Tabular data in the source: 0
pressure (bar)	Indigo carmine fraction	Indigo carmine uptake (mg/g)	Tartrazine fraction	Tartrazine uptake (mg/g)	total uptake (mg/g)
1.01325	0.005	0.03	0.01	0.2	
1.01325	52.83	73.59	45.21	81.57	
1.01325	77.89	120.08	72.81	143.68	
1.01325	100.7	173.04	97.08	191.71	
1.01325	149.51	244.38	159.93	299.48	
1.01325	196.46	314.14	191.62	374.48	
1.01325	294.78	432.86	289.7	522.06	
1.01325	384.59	519.03	382.9	614.52	
