Adsorption isotherm of Tartrazine on CC-chitosan
DOI: 10.1016/j.molliq.2017.02.103
Article source: Figure 1 (FY4)
Adsorbate Tartrazine: InChIKey UJMBCXLDXJUMFB-UHFFFAOYSA-K
Kind: experiment
Temperature: 308 K
Tabular data in the source: 0
pressure (bar)	uptake (mg/g)
1.01325	1.99
1.01325	182.16
1.01325	276.63
1.01325	342.28
1.01325	453.09
1.01325	534.23
1.01325	645.13
1.01325	732.13
