Adsorption isotherm of Tartrazine on CC-chitosan
DOI: 10.1016/j.molliq.2017.02.103
Article source: Figure 1 (FY4)
Adsorbate Tartrazine: InChIKey UJMBCXLDXJUMFB-UHFFFAOYSA-K
Kind: experiment
Temperature: 318 K
Tabular data in the source: 0
pressure (bar)	uptake (mg/g)
1.01325	1.99
1.01325	171.72
1.01325	250.2
1.01325	314.46
1.01325	429.32
1.01325	515.41
1.01325	629.18
1.01325	702.83
