Adsorption isotherm of Indigo carmine, Tartrazine on CC-chitosan
DOI: 10.1016/j.molliq.2017.02.103
Article source: Figure 2
Adsorbate Indigo carmine: InChIKey JFVXEJADITYJHK-UHFFFAOYSA-L
Adsorbate Tartrazine: InChIKey UJMBCXLDXJUMFB-UHFFFAOYSA-K
Kind: experiment
Temperature: 318 K
Tabular data in the source: 0
pressure (bar)	Indigo carmine fraction	Indigo carmine uptake (mg/g)	Tartrazine fraction	Tartrazine uptake (mg/g)	total uptake (mg/g)
1.01325	0.005	0.03	0.005	0.03	
1.01325	58.24	67.38	58.24	67.38	
1.01325	82.46	113	82.46	113	
1.01325	112.03	150.91	112.03	150.91	
1.01325	159.2	231.88	159.2	231.88	
1.01325	204.31	277.97	204.31	277.97	
1.01325	308.61	393.08	308.61	393.08	
1.01325	399.49	492.46	399.49	492.46	
