Adsorption isotherm of Indigo carmine on CC-chitosan
DOI: 10.1016/j.molliq.2017.02.103
Article source: Figure 1 (FB2)
Adsorbate Indigo carmine: InChIKey JFVXEJADITYJHK-UHFFFAOYSA-L
Kind: experiment
Temperature: 328 K
Tabular data in the source: 0
pressure (bar)	uptake (mg/g)
1.01325	1.32
1.01325	101.31
1.01325	200.48
1.01325	301.24
1.01325	379.35
1.01325	478.02
1.01325	574.11
1.01325	651.58
