Adsorption isotherm of Indigo carmine on CC-chitosan
DOI: 10.1016/j.molliq.2017.02.103
Article source: Figure 1 (FB2)
Adsorbate Indigo carmine: InChIKey JFVXEJADITYJHK-UHFFFAOYSA-L
Kind: experiment
Temperature: 308 K
Tabular data in the source: 0
pressure (bar)	uptake (mg/g)
1.01325	1.32
1.01325	132.42
1.01325	257.96
1.01325	337.62
1.01325	424.68
1.01325	530.22
1.01325	631.06
1.01325	711.9
