Adsorption isotherm of Tartrazine on CC-chitosan
DOI: 10.1016/j.molliq.2017.02.103
Article source: Figure 1 (FY4)
Adsorbate Tartrazine: InChIKey UJMBCXLDXJUMFB-UHFFFAOYSA-K
Kind: experiment
Temperature: 298 K
Tabular data in the source: 0
pressure (bar)	uptake (mg/g)
1.01325	1.99
1.01325	199.61
1.01325	291.25
1.01325	374.03
1.01325	478.57
1.01325	568.05
1.01325	681.83
1.01325	786.54
