Adsorption isotherm of Indigo carmine on CC-chitosan
DOI: 10.1016/j.molliq.2017.02.103
Article source: Figure 1
Adsorbate Indigo carmine: InChIKey JFVXEJADITYJHK-UHFFFAOYSA-L
Kind: experiment
Temperature: 298 K
Tabular data in the source: 0
pressure (bar)	uptake (mg/g)
1.01325	1.32
1.01325	152.96
1.01325	279.04
1.01325	347.1
1.01325	461.05
1.01325	538.62
1.01325	647.7
1.01325	751.62
