Adsorption isotherm of Indigo carmine, Tartrazine on CC-chitosan
DOI: 10.1016/j.molliq.2017.02.103
Article source: Figure 2
Adsorbate Indigo carmine: InChIKey JFVXEJADITYJHK-UHFFFAOYSA-L
Adsorbate Tartrazine: InChIKey UJMBCXLDXJUMFB-UHFFFAOYSA-K
Kind: experiment
Temperature: 298 K
Tabular data in the source: 0
pressure (bar)	Indigo carmine fraction	Indigo carmine uptake (mg/g)	Tartrazine fraction	Tartrazine uptake (mg/g)	total uptake (mg/g)
1.01325	0.005	0.03	0.01	0.2	
1.01325	41.56	79.21	35.84	86.76	
1.01325	69.74	137.39	65.14	153.74	
1.01325	89.37	181.47	90.41	209.66	
1.01325	134.75	250.39	150.49	312.41	
1.01325	186.3	332.54	183.97	390.33	
1.01325	285.85	449.36	280.53	540.84	
1.01325	377.68	539.04	373.45	639.64	
