Adsorption isotherm of Indigo carmine, Tartrazine on CC-chitosan
DOI: 10.1016/j.molliq.2017.02.103
Article source: Figure 2
Adsorbate Indigo carmine: InChIKey JFVXEJADITYJHK-UHFFFAOYSA-L
Adsorbate Tartrazine: InChIKey UJMBCXLDXJUMFB-UHFFFAOYSA-K
Kind: experiment
Temperature: 328 K
Tabular data in the source: 0
pressure (bar)	Indigo carmine fraction	Indigo carmine uptake (mg/g)	Tartrazine fraction	Tartrazine uptake (mg/g)	total uptake (mg/g)
1.01325	0.005	0.03	0.01	0.2	
1.01325	61.3	63.02	55.84	69.47	
1.01325	90.36	99.65	84.95	129.92	
1.01325	116.23	140.13	113.94	181.75	
1.01325	169.52	200.18	176.37	265.4	
1.01325	209.97	242.05	210.04	336.55	
1.01325	317.79	351.79	308.98	488.08	
1.01325	411.25	450.57	396.73	574.47	
