Adsorption isotherm of Tartrazine on CC-chitosan
DOI: 10.1016/j.molliq.2017.02.103
Article source: Figure 1 (FY4)
Adsorbate Tartrazine: InChIKey UJMBCXLDXJUMFB-UHFFFAOYSA-K
Kind: experiment
Temperature: 328 K
Tabular data in the source: 0
pressure (bar)	uptake (mg/g)
1.01325	1.99
1.01325	147.06
1.01325	239.87
1.01325	298.4
1.01325	401.7
1.01325	488.67
1.01325	597.43
1.01325	668.57
