Adsorption isotherm of Benzene on Carbon
DOI: 10.1021/la052545i
Adsorbate Benzene: InChIKey UHOVQNZJYSORNB-UHFFFAOYSA-N
Temperature: 288 K
Tabular data in the source: 0
pressure (bar)	uptake (mol/m2)
3.69e-05	1.18e-07
9.69e-05	3.21e-07
0.000196	6.23e-07
0.000318	9.14e-07
0.000536	1.38e-06
0.000818	1.89e-06
0.00122265	2.45e-06
0.00165346	2.88e-06
0.00296373	3.52e-06
0.0057576	4.05e-06
0.0188743	5.16e-06
