Adsorption isotherm of Benzene on Carbon
DOI: 10.1021/la052545i
Adsorbate Benzene: InChIKey UHOVQNZJYSORNB-UHFFFAOYSA-N
Temperature: 273 K
Tabular data in the source: 0
pressure (bar)	uptake (mol/m2)
1.1e-05	1.05e-07
2.37e-05	2.65e-07
4.24e-05	4.85e-07
8.25e-05	8.86e-07
0.000157	1.48e-06
0.000337	2.24e-06
0.000834	3.38e-06
0.00198175	4.09e-06
0.00369805	4.3e-06
0.00991306	5.26e-06
