Adsorption isotherm of Benzene on Carbon
DOI: 10.1021/la052545i
Adsorbate Benzene: InChIKey UHOVQNZJYSORNB-UHFFFAOYSA-N
Temperature: 288 K
Tabular data in the source: 0
pressure (bar)	uptake (mol/m2)
3.2e-05	1.05e-07
5.51e-05	1.94e-07
9.12e-05	3.24e-07
0.000116	4e-07
0.000128	4.7e-07
0.000177	5.69e-07
0.00024	7.03e-07
0.000299	8.77e-07
0.000337	1.07e-06
0.000494	1.42e-06
0.000868	2.04e-06
0.00129873	2.52e-06
0.00179205	2.94e-06
0.00417263	3.85e-06
0.010744	4.48e-06
0.0181298	5e-06
