Adsorption isotherm of Benzene on Carbon
DOI: 10.1021/la052545i
Adsorbate Benzene: InChIKey UHOVQNZJYSORNB-UHFFFAOYSA-N
Temperature: 293 K
Tabular data in the source: 0
pressure (bar)	uptake (mol/m2)
4.51e-05	1.04e-07
5.49e-05	1.23e-07
6.99e-05	1.69e-07
0.000112	2.87e-07
0.000181	4.8e-07
0.000331	8.43e-07
0.000482	1.21e-06
0.000672	1.62e-06
0.000896	2.02e-06
0.00136687	2.47e-06
0.00196353	2.94e-06
0.00364567	3.45e-06
0.00609025	3.74e-06
0.00929318	3.97e-06
