Adsorption isotherm of Benzene on Carbon
DOI: 10.1021/la052545i
Adsorbate Benzene: InChIKey UHOVQNZJYSORNB-UHFFFAOYSA-N
Temperature: 323 K
Tabular data in the source: 0
pressure (bar)	uptake (mol/m2)
0.000217	1.05e-07
0.000429	1.98e-07
0.000592	2.93e-07
0.000834	4.13e-07
0.00115102	5.64e-07
0.00262664	1.05e-06
0.00490146	1.64e-06
0.00933232	2.52e-06
0.0170677	3.28e-06
0.0374123	4.09e-06
0.0820078	4.85e-06
