Adsorption isotherm of Benzene on Carbon
DOI: 10.1021/la052545i
Adsorbate Benzene: InChIKey UHOVQNZJYSORNB-UHFFFAOYSA-N
Temperature: 273 K
Tabular data in the source: 0
pressure (bar)	uptake (micromoles/m2)
1.03e-05	0.103957
1.69e-05	0.188221
2.87e-05	0.320823
4.06e-05	0.460868
5.49e-05	0.66874
8.77e-05	0.922761
0.000173	1.5571
0.000307	2.10576
0.000614	2.9647
0.000896	3.37899
0.00151918	3.85118
0.00224921	4.2162
0.00387254	4.25884
0.00888179	5.00273
