Adsorption isotherm of Benzene on Carbon
DOI: 10.1021/la052545i
Adsorbate Benzene: InChIKey UHOVQNZJYSORNB-UHFFFAOYSA-N
Temperature: 293 K
Tabular data in the source: 0
pressure (bar)	uptake (micromoles/m2)
5.33e-05	1.48e-07
0.000102	2.76e-07
0.000204	5.05e-07
0.000298	7.32e-07
0.000505	1.09e-06
0.000693	1.51e-06
0.00101073	1.96e-06
0.00151918	2.52e-06
0.00282065	3.28e-06
0.00500524	3.85e-06
0.00972363	4.35e-06
0.0200655	4.9e-06
