Adsorption isotherm of Benzene on Carbon
DOI: 10.1021/la052545i
Adsorbate Benzene: InChIKey UHOVQNZJYSORNB-UHFFFAOYSA-N
Temperature: 303 K
Tabular data in the source: 0
pressure (bar)	uptake (mol/m2)
0.000217	2.42e-07
0.000388	4.3e-07
0.000655	6.76e-07
0.000851	9.04e-07
0.001062	1.17e-06
0.00175635	1.76e-06
0.00308544	2.5e-06
0.00649649	3.38e-06
0.0148251	4.09e-06
0.0282268	4.81e-06
0.0516234	5.48e-06
