Adsorption isotherm of Benzene on Carbon
DOI: 10.1021/la052545i
Adsorbate Benzene: InChIKey UHOVQNZJYSORNB-UHFFFAOYSA-N
Temperature: 373 K
Tabular data in the source: 0
pressure (bar)	uptake (mol/m2)
0.0091464	6.49e-07
0.0160678	8.6e-07
0.0212965	1.39e-06
0.0312147	1.56e-06
0.0381728	1.83e-06
0.045752	1.87e-06
0.0485991	2.15e-06
0.0570879	2.31e-06
0.0726805	2.65e-06
0.0787727	2.79e-06
0.113158	3.09e-06
0.141196	3.77e-06
