Adsorption isotherm of Benzene on Carbon
DOI: 10.1021/la052545i
Adsorbate Benzene: InChIKey UHOVQNZJYSORNB-UHFFFAOYSA-N
Temperature: 293 K
Tabular data in the source: 0
pressure (bar)	uptake (micromoles/m2)
4.25e-05	1.06e-07
5.74e-05	1.43e-07
6.78e-05	1.79e-07
8.38e-05	2.21e-07
0.00012	2.99e-07
0.000168	4.04e-07
0.00022	5.47e-07
0.000264	6.89e-07
0.000307	8.95e-07
0.000409	1.07e-06
0.000528	1.24e-06
0.000693	1.74e-06
0.000966	2.13e-06
0.00156574	2.74e-06
0.00261563	3.18e-06
0.00485641	3.7e-06
0.00763755	3.81e-06
0.0183283	4.43e-06
