Adsorption isotherm of Benzene on Carbon
DOI: 10.1021/la052545i
Adsorbate Benzene: InChIKey UHOVQNZJYSORNB-UHFFFAOYSA-N
Temperature: 293 K
Tabular data in the source: 0
pressure (bar)	uptake (mol/m2)
5.09e-05	1.51e-07
0.000103	2.7e-07
0.00021	4.99e-07
0.000336	7.47e-07
0.000528	1.08e-06
0.000856	1.62e-06
0.00107363	1.89e-06
0.00154228	2.35e-06
0.00205448	2.76e-06
0.00290709	3.18e-06
0.00381453	3.45e-06
0.00618286	3.89e-06
0.0100216	4.22e-06
