Adsorption isotherm of Benzene on Carbon
DOI: 10.1021/la052545i
Adsorbate Benzene: InChIKey UHOVQNZJYSORNB-UHFFFAOYSA-N
Temperature: 323 K
Tabular data in the source: 0
pressure (bar)	uptake (mol/m2)
0.000536	2.55e-07
0.000851	3.88e-07
0.001062	4.8e-07
0.00186565	7.62e-07
0.00327745	1.27e-06
0.00400803	1.5e-06
0.00531231	1.77e-06
0.00662854	2.17e-06
0.0101146	2.65e-06
0.0160678	3.31e-06
0.0312147	3.93e-06
0.0516234	4.43e-06
0.0871111	5e-06
