Adsorption isotherm of Benzene on Carbon
DOI: 10.1021/la052545i
Adsorbate Benzene: InChIKey UHOVQNZJYSORNB-UHFFFAOYSA-N
Temperature: 293 K
Tabular data in the source: 0
pressure (bar)	uptake (micromoles/m2)
4.31e-05	1.08e-07
7.31e-05	1.86e-07
9.89e-05	2.9e-07
0.000168	5.2e-07
0.000293	8.95e-07
0.000403	1.3e-06
0.000662	1.9e-06
0.0010417	2.52e-06
0.00257645	3.28e-06
0.00637234	3.77e-06
0.00972363	3.85e-06
0.018607	4.13e-06
