Adsorption isotherm of Benzene on Carbon
DOI: 10.1021/la052545i
Adsorbate Benzene: InChIKey UHOVQNZJYSORNB-UHFFFAOYSA-N
Temperature: 273 K
Tabular data in the source: 0
pressure (bar)	uptake (micromoles/m2)
3.94e-05	0.50455
5.66e-05	0.635929
8.38e-05	0.793493
0.00014	1.12846
0.000252	1.70468
0.000428	2.42429
0.000693	3.02496
0.00115778	3.51776
0.00202371	4.00934
0.00464143	4.61582
0.00987149	5.26085
