Adsorption isotherm of Benzene on Carbon
DOI: 10.1021/la052545i
Adsorbate Benzene: InChIKey UHOVQNZJYSORNB-UHFFFAOYSA-N
Temperature: 303 K
Tabular data in the source: 0
pressure (bar)	uptake (mol/m2)
8.94e-05	1.02e-07
0.000136	1.62e-07
0.000226	2.62e-07
0.000358	3.96e-07
0.000569	5.99e-07
0.000922	9.04e-07
0.00152558	1.47e-06
0.00228152	2.04e-06
0.00314816	2.35e-06
0.00553048	3.12e-06
0.0103202	3.81e-06
0.0265732	4.62e-06
0.0537435	5.31e-06
