Adsorption isotherm of Benzene on Carbon
DOI: 10.1021/la052545i
Adsorbate Benzene: InChIKey UHOVQNZJYSORNB-UHFFFAOYSA-N
Temperature: 373 K
Tabular data in the source: 0
pressure (bar)	uptake (mol/m2)
0.0014654	1.02e-07
0.00190357	1.27e-07
0.00302397	2.12e-07
0.00470811	3.31e-07
0.00649649	4.52e-07
0.0230816	1.14e-06
0.0324966	1.65e-06
0.0631308	2.5e-06
0.130276	3.35e-06
0.183415	3.66e-06
