Adsorption isotherm of Benzene on Carbon
DOI: 10.1021/la052545i
Adsorbate Benzene: InChIKey UHOVQNZJYSORNB-UHFFFAOYSA-N
Temperature: 293 K
Tabular data in the source: 0
pressure (bar)	uptake (mol/m2)
4.06e-05	1.06e-07
5.17e-05	1.48e-07
0.000103	3.05e-07
0.000176	5.1e-07
0.00023	6.82e-07
0.00028	9.7e-07
0.000346	1.17e-06
0.000475	1.54e-06
0.000536	1.89e-06
0.000714	2.74e-06
0.000806	3.02e-06
0.00105754	3.31e-06
0.00156574	3.52e-06
0.00333004	3.97e-06
0.00656762	4.35e-06
0.00987149	4.66e-06
