Adsorption isotherm of Benzene on Carbon
DOI: 10.1021/la052545i
Adsorbate Benzene: InChIKey UHOVQNZJYSORNB-UHFFFAOYSA-N
Temperature: 273 K
Tabular data in the source: 0
pressure (bar)	uptake (mol/m2)
3.92e-05	4.94e-07
6.1e-05	6.36e-07
0.000118	1e-06
0.000226	1.64e-06
0.000421	2.4e-06
0.000669	2.94e-06
0.00140759	3.85e-06
0.00290468	4.26e-06
0.00480381	4.57e-06
0.0101146	5.48e-06
