Adsorption isotherm of Benzene on Carbon
DOI: 10.1021/la052545i
Adsorbate Benzene: InChIKey UHOVQNZJYSORNB-UHFFFAOYSA-N
Temperature: 293 K
Tabular data in the source: 0
pressure (bar)	uptake (micromoles/m2)
4.94e-05	1.51e-07
9.89e-05	2.73e-07
0.000201	5.05e-07
0.000311	7.1e-07
0.000391	8.86e-07
0.000587	1.25e-06
0.000996	1.85e-06
0.00149643	2.5e-06
0.00299618	3.21e-06
0.00450342	3.63e-06
0.0103287	4.26e-06
0.0200655	4.71e-06
