Adsorption isotherm of Benzene on Carbon
DOI: 10.1021/la052545i
Adsorbate Benzene: InChIKey UHOVQNZJYSORNB-UHFFFAOYSA-N
Temperature: 293 K
Tabular data in the source: 0
pressure (bar)	uptake (micromoles/m2)
3.54e-05	1.04e-07
5.17e-05	1.48e-07
6.58e-05	2.12e-07
8.13e-05	2.57e-07
0.000108	3.21e-07
0.000142	4.25e-07
0.000201	6.69e-07
0.000326	1.37e-06
0.000497	2.24e-06
0.000736	2.85e-06
0.0010417	3.35e-06
0.00182081	3.52e-06
0.00348429	3.97e-06
0.0094345	4.39e-06
0.0183283	4.71e-06
