Adsorption isotherm of Carbon Dioxide on PIF6
DOI: 10.1021/Es3052922
Adsorbate Carbon Dioxide: InChIKey CURLTUGMZLYLDI-UHFFFAOYSA-N
Temperature: 298 K
Tabular data in the source: 0
pressure (bar)	uptake (mmol/g)
0.397219	0.129842
1.2378	0.409506
3.19915	0.846481
6.98175	1.36211
11.6049	1.70295
19.5904	2.15741
25.4745	2.38463
33.1798	2.60312
42.1459	2.82161
50.972	2.97892
63.0203	3.17993
