Adsorption isotherm of Carbon Dioxide on PIF
DOI: 10.1021/Es3052922
Adsorbate Carbon Dioxide: InChIKey CURLTUGMZLYLDI-UHFFFAOYSA-N
Temperature: 298 K
Tabular data in the source: 0
pressure (bar)	uptake (mmol/g)
1.93825	0.0312107
16.508	0.107681
31.7783	0.195076
47.6089	0.238774
63.1594	0.315244
