Adsorption isotherm of Carbon Dioxide on PIF6
DOI: 10.1021/Es3052922
Adsorbate Carbon Dioxide: InChIKey CURLTUGMZLYLDI-UHFFFAOYSA-N
Temperature: 298 K
Tabular data in the source: 0
pressure (bar)	uptake (mmol/g)
0.677401	0.0858325
2.21844	0.632051
4.31985	1.03625
8.24248	1.4623
17.7689	2.10684
26.4547	2.39087
37.9424	2.75138
46.0679	2.90432
57.4155	3.03541
62.7391	3.12281
