Adsorption isotherm of Carbon Dioxide on PIF8
DOI: 10.1021/Es3052922
Adsorbate Carbon Dioxide: InChIKey CURLTUGMZLYLDI-UHFFFAOYSA-N
Temperature: 298 K
Tabular data in the source: 0
pressure (bar)	uptake (mmol/g)
1.09768	0.0530594
10.9043	0.664824
21.4113	1.23289
32.0585	1.70264
43.266	2.11777
53.9132	2.4455
62.8792	2.74045
