Adsorption isotherm of Methane on PIF6
DOI: 10.1021/Es3052922
Adsorbate Methane: InChIKey VNWKTOKETHGBQD-UHFFFAOYSA-N
Temperature: 298 K
Tabular data in the source: 0
pressure (bar)	uptake (mmol/g)
0.817508	0.0249685
4.60011	0.156061
12.4455	0.330851
24.774	0.540599
32.8996	0.715389
47.0493	0.898918
57.6966	1.01253
63.3005	1.07371
