Adsorption isotherm of Hydrogen on PIF6
DOI: 10.1021/Es3052922
Adsorbate Hydrogen: InChIKey UFHFLCQGNIYNRP-UHFFFAOYSA-N
Temperature: 298 K
Tabular data in the source: 0
pressure (bar)	uptake (mmol/g)
13.146	0.0162291
24.2136	0.033708
36.9624	0.033708
50.4116	0.0424475
62.7401	0.0599265
