Adsorption isotherm of Nitrogen on PIF
DOI: 10.1021/Es3052922
Adsorbate Nitrogen: InChIKey IJGRMHOSHXDMSA-UHFFFAOYSA-N
Temperature: 77 K
Tabular data in the source: 0
pressure (bar)	uptake (cm3(STP)/g)
0.0455226	10.4871
0.121993	12.0166
0.336111	13.546
0.486867	13.546
0.670397	22.7224
0.792749	25.7813
0.862665	33.4283
0.912918	39.546
0.943506	56.3695
0.971909	96.1342
0.982834	148.134
0.993758	305.664
