Adsorption isotherm of Nitrogen on PIF6
DOI: 10.1021/Es3052922
Adsorbate Nitrogen: InChIKey IJGRMHOSHXDMSA-UHFFFAOYSA-N
Temperature: 77 K
Tabular data in the source: 0
pressure (bar)	uptake (cm3(STP)/g)
0.00619484	26.4237
0.0105646	117.533
0.0171192	129.987
0.0498923	136.541
0.121993	142.441
0.198464	144.735
0.307707	146.046
0.545859	148.012
0.735943	149.978
0.87359	151.617
0.95443	153.583
0.991573	160.138
