Adsorption isotherm of Nitrogen on PIF6
DOI: 10.1021/Es3052922
Adsorbate Nitrogen: InChIKey IJGRMHOSHXDMSA-UHFFFAOYSA-N
Temperature: 298 K
Tabular data in the source: 0
pressure (bar)	uptake (mmol/g)
8.94309	0.0599265
20.7112	0.138582
42.5662	0.243456
56.2956	0.278414
63.5807	0.304632
