Adsorption isotherm of Nitrogen on PIF8
DOI: 10.1021/Es3052922
Adsorbate Nitrogen: InChIKey IJGRMHOSHXDMSA-UHFFFAOYSA-N
Temperature: 77 K
Tabular data in the source: 0
pressure (bar)	uptake (cm3(STP)/g)
0.00619484	8.95773
0.00619484	151.193
0.0105646	281.193
0.0236738	334.722
0.0739259	371.428
0.161321	382.134
0.360144	391.311
0.552413	395.899
0.709724	402.017
0.832077	406.605
0.904178	411.193
0.960985	415.781
0.980649	428.017
0.989388	443.311
0.995943	516.722
