Adsorption isotherm of Carbon Dioxide on PIF5
DOI: 10.1021/Es3052922
Adsorbate Carbon Dioxide: InChIKey CURLTUGMZLYLDI-UHFFFAOYSA-N
Temperature: 298 K
Tabular data in the source: 0
pressure (bar)	uptake (mmol/g)
1.51797	0.140454
7.40192	0.468185
17.2085	0.774068
26.0344	0.948858
41.5849	1.1455
50.2707	1.24382
62.599	1.34214
