Adsorption isotherm of Nitrogen on PIF6
DOI: 10.1021/Es3052922
Adsorbate Nitrogen: InChIKey IJGRMHOSHXDMSA-UHFFFAOYSA-N
Temperature: 77 K
Tabular data in the source: 0
pressure (bar)	uptake (cm3(STP)/g)
0.00837971	7.42832
0.0105646	148.134
0.0280436	166.487
0.08922	175.664
0.421321	181.781
0.572077	181.781
0.880144	187.899
0.936951	190.958
0.980649	201.664
0.993758	221.546
