Adsorption isotherm of Carbon Dioxide on PIF7
DOI: 10.1021/Es3052922
Adsorbate Carbon Dioxide: InChIKey CURLTUGMZLYLDI-UHFFFAOYSA-N
Temperature: 298 K
Tabular data in the source: 0
pressure (bar)	uptake (mmol/g)
0.95759	0.0530594
4.60004	0.522807
11.3246	1.04718
20.0104	1.61524
29.3967	2.09592
37.8023	2.46735
46.7684	2.8497
55.174	3.1665
62.8792	3.38499
