Adsorption isotherm of Nitrogen on PIF7
DOI: 10.1021/Es3052922
Adsorbate Nitrogen: InChIKey IJGRMHOSHXDMSA-UHFFFAOYSA-N
Temperature: 77 K
Tabular data in the source: 0
pressure (bar)	uptake (cm3(STP)/g)
0.00837971	7.42832
0.0127495	261.311
0.0345982	313.311
0.0804806	337.781
0.237791	348.487
0.451909	351.546
0.628884	354.605
0.742497	354.605
0.851741	359.193
0.943506	368.37
0.982834	379.075
0.993758	411.193
