Adsorption isotherm of Nitrogen on PIF5
DOI: 10.1021/Es3052922
Adsorbate Nitrogen: InChIKey IJGRMHOSHXDMSA-UHFFFAOYSA-N
Temperature: 77 K
Tabular data in the source: 0
pressure (bar)	uptake (cm3(STP)/g)
0.0171192	27.3107
0.163506	36.4871
0.462833	45.6636
0.611405	53.3107
0.801489	64.0166
0.904178	73.193
0.95443	86.9577
0.982834	102.252
0.989388	119.075
