Adsorption isotherm of Nitrogen on TPP-HTD COF
DOI: 10.1021/acs.orglett.1c00175
Article source: Figure 4a
Adsorbate Nitrogen: InChIKey IJGRMHOSHXDMSA-UHFFFAOYSA-N
Kind: experiment
Temperature: 77 K
Tabular data in the source: 0
pressure (bar)	uptake (cm3(STP)/g)
0.050662	308.361
0.101325	321.018
0.151987	327.648
0.202653	331.306
0.253316	334.922
0.303975	337.894
0.354642	340.537
0.405304	342.947
0.455962	345.729
0.506629	353.796
0.557292	357.413
0.607954	358.618
0.657593	360.988
0.709279	362.837
0.759943	365.174
0.810605	368.187
0.861268	372.406
0.911925	377.071
0.962587	389.125
0.989735	412.59
1.00124	427.12
0.008659	281.387
0.008649	275.441
0.004804	264.873
0.003513	255.625
0.000925	233.825
9e-05	192.869
-0.000436	183.62
-0.000457	171.069
-0.000487	153.233
-0.00183	113.597
0.0457	311.764
0.100558	319.017
0.150316	326.931
0.201345	332.202
0.251091	333.511
0.299567	338.122
0.356968	340.089
0.40544	342.058
0.456462	343.366
0.506211	346.656
0.554683	348.625
0.606983	351.254
0.656731	353.223
0.707754	355.191
0.760053	357.82
0.813629	361.109
0.859554	365.061
0.913134	370.992
0.962902	384.852
0.98716	398.718
1.00124	426.459
0.012487	280.059
0.01065	274.344
0.006978	265.771
0.006978	253.387
0.005142	234.335
0.003305	193.374
0.003305	183.848
0.003305	169.56
0.001469	154.318
0.003305	114.31
0.001469	104.784
0.003305	98.116
0.003305	90.4953
0.001469	80.9695
0.001469	77.1592
0.001469	67.6334
0.001469	57.155
0.001469	53.3446
0.001469	40.961
0.001469	35.2456
0.003305	25.7197
0.003305	19.0517
0.003305	12.3836
0.003305	4.76291
