Adsorption isotherm of Methane on UTSA-16-GO (28.5 mg)
DOI: 10.1039/c4ta04770b
Article source: Figure 5c
Adsorbate Methane: InChIKey VNWKTOKETHGBQD-UHFFFAOYSA-N
Kind: experiment
Temperature: 273 K
Tabular data in the source: 0
pressure (bar)	uptake (cm3(STP)/g)
0.00613	0.366883
0.015324	0.363702
0.027584	0.35946
0.052103	0.719981
0.107271	1.4389
0.156308	2.15994
0.211477	2.87886
0.266645	3.59779
0.318747	4.68677
0.373916	5.03669
0.426018	6.12567
0.481187	6.47559
0.533289	7.56458
0.582328	7.54761
0.637496	8.26653
0.692663	9.35446
0.744767	9.70543
0.799934	10.4244
0.852037	11.1443
0.907205	11.8633
0.956243	11.8463
1.01141	12.5652
1.04206	12.9236
1.06964	13.2831
