Adsorption isotherm of Carbon Dioxide on UTSA-16-GO (28.5 mg)
DOI: 10.1039/c4ta04770b
Article source: Figure S17
Adsorbate Carbon Dioxide: InChIKey CURLTUGMZLYLDI-UHFFFAOYSA-N
Kind: experiment
Temperature: 296 K
Tabular data in the source: 0
pressure (bar)	uptake (mmol/g)
0.003824	0.034788
0.02803	0.3625
0.050185	0.725338
0.093626	1.31054
0.171965	1.95416
0.236576	2.2115
0.295567	2.37521
0.337487	2.46873
0.397557	2.56219
0.448228	2.64397
0.504624	2.71403
0.557347	2.76069
0.61612	2.80733
0.669491	2.8774
0.727291	2.88892
0.780014	2.93558
0.835113	2.95882
0.887511	2.99377
0.94261	3.01701
0.99166	3.04026
1.04978	3.06349
1.10521	3.09844
1.13006	3.12177
1.16031	3.12167
