Adsorption isotherm of Carbon Dioxide on UTSA-16-GO (9.5 mg)
DOI: 10.1039/c4ta04770b
Article source: Figure 5c
Adsorbate Carbon Dioxide: InChIKey CURLTUGMZLYLDI-UHFFFAOYSA-N
Kind: experiment
Temperature: 273 K
Tabular data in the source: 0
pressure (bar)	uptake (cm3(STP)/g)
0.01226	13.2799
0.030649	25.0816
0.055168	33.1912
0.107271	39.8153
0.171634	43.8521
0.226801	46.047
0.26358	47.1413
0.318747	48.2292
0.370851	49.3182
0.422953	50.4072
0.481187	51.125
0.530224	51.8461
0.585392	52.196
0.63443	52.917
0.692663	53.2659
0.744767	53.6169
0.796869	53.9679
0.848973	54.6878
0.901075	55.0388
0.956243	55.3887
1.01141	56.1076
1.039	56.0981
1.06658	56.4576
