Adsorption isotherm of Methane on UTSA-16-GO (9.5 mg)
DOI: 10.1039/c4ta04770b
Article source: Figure 5b
Adsorbate Methane: InChIKey VNWKTOKETHGBQD-UHFFFAOYSA-N
Kind: experiment
Temperature: 296 K
Tabular data in the source: 0
pressure (bar)	uptake (cm3(STP)/g)
0.162439	0.869732
0.217606	1.60536
0.26971	2.00383
0.324877	2.40613
0.367786	3.12644
0.438279	3.21456
0.499576	4.29119
0.551679	4.35632
0.594587	4.7433
0.655885	5.15326
0.704923	5.54789
0.766221	5.95785
0.809129	6.34483
0.861232	6.7433
0.916399	7.14559
0.968503	7.54406
1.01448	7.93487
1.04819	7.97701
1.0819	8.35249
