Adsorption isotherm of Hydrogen on GO
DOI: 10.1039/c4ta04770b
Article source: Figure 5a
Adsorbate Hydrogen: InChIKey UFHFLCQGNIYNRP-UHFFFAOYSA-N
Kind: experiment
Temperature: 77 K
Tabular data in the source: 0
pressure (bar)	uptake (cm3(STP)/g)
0.029491	6.15385
0.058981	6.83761
0.08311	6.83761
0.101877	8.88889
0.117962	8.20513
0.147453	8.20513
0.176944	7.52137
0.179625	9.57265
0.206434	8.20513
0.238606	8.88889
0.270777	8.20513
0.294906	10.2564
0.300268	9.57265
0.375335	10.2564
0.391421	10.2564
0.453083	9.57265
0.477212	12.3077
0.530831	10.9402
0.571046	14.359
0.600536	10.2564
0.66756	14.359
0.678284	10.9402
0.753351	12.3077
0.766756	15.0427
0.828418	12.9915
0.868633	15.7265
0.903485	14.359
0.978552	19.8291
