Adsorption isotherm of Hydrogen on UTSA-16-GO (19 mg)
DOI: 10.1039/c4ta04770b
Article source: Figure 5a
Adsorbate Hydrogen: InChIKey UFHFLCQGNIYNRP-UHFFFAOYSA-N
Kind: experiment
Temperature: 77 K
Tabular data in the source: 0
pressure (bar)	uptake (cm3(STP)/g)
0.002681	0.002681
0.010724	155.214
0.02681	158.632
0.058981	158.632
0.088472	159.316
0.096515	160
0.115282	159.316
0.144772	159.316
0.176944	159.316
0.179625	160
0.206434	159.316
0.238606	159.316
0.268097	159.316
0.27882	160
0.319035	159.316
0.394102	159.316
0.474531	159.316
0.546917	158.632
0.571046	159.316
0.621984	158.632
0.66756	159.316
0.697051	158.632
0.766756	159.316
0.772118	158.632
0.847185	158.632
0.868633	159.316
0.903485	159.316
0.975871	163.419
