Adsorption isotherm of Carbon Dioxide on UTSA-16-GO (28.5 mg)
DOI: 10.1039/c4ta04770b
Article source: Figure 5c
Adsorbate Carbon Dioxide: InChIKey CURLTUGMZLYLDI-UHFFFAOYSA-N
Kind: experiment
Temperature: 273 K
Tabular data in the source: 0
pressure (bar)	uptake (cm3(STP)/g)
0.009195	16.971
0.030649	32.0927
0.058233	43.5223
0.110336	52.3604
0.174698	57.1351
0.229866	60.4371
0.266645	61.5314
0.318747	62.9894
0.370851	64.4473
0.422953	65.9053
0.481187	66.6232
0.533289	67.7122
0.585392	68.4322
0.637496	69.1521
0.692663	69.5021
0.744767	70.591
0.796869	70.573
0.848973	71.662
0.90414	72.0119
0.956243	73.1009
1.01141	72.7128
1.039	73.4413
1.06658	73.8007
