Adsorption isotherm of Methane on UTSA-16-GO (28.5 mg)
DOI: 10.1039/c4ta04770b
Article source: Figure S17
Adsorbate Methane: InChIKey VNWKTOKETHGBQD-UHFFFAOYSA-N
Kind: experiment
Temperature: 296 K
Tabular data in the source: 0
pressure (bar)	uptake (mmol/g)
0.009318	-0.003319
0.021136	0.003469
0.032954	0.011951
0.056591	0.023831
0.112727	0.045901
0.165909	0.073055
0.219091	0.095123
0.269318	0.118885
0.378636	0.164719
0.431818	0.186787
0.487955	0.207163
0.538182	0.22923
0.594318	0.249605
0.641591	0.26828
0.697727	0.288656
0.747955	0.309027
0.801136	0.329401
0.851364	0.346383
0.9075	0.366758
0.957727	0.385435
1.01386	0.405811
1.04341	0.416
1.07	0.424492
