Adsorption isotherm of Carbon Dioxide on UTSA-16-GO (9.5 mg)
DOI: 10.1039/c4ta04770b
Article source: Figure 5b
Adsorbate Carbon Dioxide: InChIKey CURLTUGMZLYLDI-UHFFFAOYSA-N
Kind: experiment
Temperature: 296 K
Tabular data in the source: 0
pressure (bar)	uptake (cm3(STP)/g)
0.015324	6.01916
0.030649	12.3716
0.055168	22.069
0.116465	33.4789
0.171634	38.2146
0.229866	41.2874
0.266645	42.6667
0.318747	44.3985
0.373916	46.1341
0.426018	47.1992
0.481187	48.2682
0.533289	49.3333
0.585392	49.7318
0.637496	50.7969
0.692663	51.1992
0.744767	51.931
0.799934	52.6667
0.855102	53.069
0.90414	53.7969
0.956243	54.1954
1.01141	54.931
1.039	54.9655
1.06658	55.3333
