Adsorption isotherm of Hydrogen on UTSA-16-GO (9.5 mg)
DOI: 10.1039/c4ta04770b
Article source: Figure 5a
Adsorbate Hydrogen: InChIKey UFHFLCQGNIYNRP-UHFFFAOYSA-N
Kind: experiment
Temperature: 77 K
Tabular data in the source: 0
pressure (bar)	uptake (cm3(STP)/g)
0	0
0.002681	79.3162
0.005362	97.094
0.032172	101.88
0.0563	101.197
0.085791	101.197
0.096515	101.197
0.112601	101.197
0.147453	101.88
0.176944	101.88
0.206434	101.88
0.235925	101.197
0.276139	101.197
0.289544	101.197
0.321716	101.197
0.372654	101.197
0.394102	101.197
0.47185	101.197
0.544236	101.197
0.571046	101.197
0.621984	100.513
0.66756	101.197
0.697051	100.513
0.766756	101.197
0.772118	100.513
0.847185	100.513
0.868633	101.88
0.900804	101.197
0.975871	103.248
