Adsorption isotherm of Carbon Dioxide on UTSA-16-GO (19 mg)
DOI: 10.1039/c4ta04770b
Article source: Figure 5c
Adsorbate Carbon Dioxide: InChIKey CURLTUGMZLYLDI-UHFFFAOYSA-N
Kind: experiment
Temperature: 273 K
Tabular data in the source: 0
pressure (bar)	uptake (cm3(STP)/g)
0.01226	18.8149
0.030649	37.6278
0.058233	51.2714
0.107271	60.4795
0.168569	66.3623
0.226801	70.4012
0.26358	71.8645
0.318747	74.0595
0.370851	75.5175
0.429083	76.9733
0.478122	78.0634
0.533289	79.1513
0.588457	80.2392
0.640561	80.9592
0.692663	81.6792
0.744767	82.3992
0.799934	82.7491
0.848973	83.4701
0.90414	84.189
0.959308	84.908
1.00835	85.629
1.039	85.6184
1.06658	85.9779
