Adsorption isotherm of Hydrogen on UTSA-16-GO (28.5 mg)
DOI: 10.1039/c4ta04770b
Article source: Figure 5a
Adsorbate Hydrogen: InChIKey UFHFLCQGNIYNRP-UHFFFAOYSA-N
Kind: experiment
Temperature: 77 K
Tabular data in the source: 0
pressure (bar)	uptake (cm3(STP)/g)
0	0
0.002681	119.658
0.010724	134.701
0.018767	136.068
0.024129	136.068
0.0563	135.385
0.08311	136.068
0.099196	136.752
0.112601	136.752
0.144772	136.068
0.179625	136.068
0.206434	136.068
0.257373	136.068
0.276139	136.068
0.286863	135.385
0.319035	135.385
0.372654	135.385
0.396783	136.752
0.47185	135.385
0.546917	134.701
0.568365	135.385
0.619303	134.701
0.664879	135.385
0.697051	134.701
0.764075	135.385
0.769437	134.701
0.847185	134.701
0.863271	134.701
0.903485	136.068
0.975871	137.436
