Adsorption isotherm of Methane on UTSA-16-GO (19 mg)
DOI: 10.1039/c4ta04770b
Article source: Figure 5c
Adsorbate Methane: InChIKey VNWKTOKETHGBQD-UHFFFAOYSA-N
Kind: experiment
Temperature: 273 K
Tabular data in the source: 0
pressure (bar)	uptake (cm3(STP)/g)
0.033714	0.726343
0.058233	0.717861
0.107271	1.80791
0.162439	2.89583
0.217606	3.61475
0.266645	4.33579
0.318747	5.42478
0.373916	6.1437
0.429083	6.86262
0.481187	7.5826
0.536355	7.93252
0.588457	9.0215
0.640561	10.1105
0.692663	10.4615
0.744767	11.1814
0.802999	11.8993
0.852037	12.6204
0.907205	13.3393
0.956243	14.0603
1.01141	14.4102
1.04206	14.7686
1.06964	15.1281
