Adsorption isotherm of Methane on UTSA-16-GO (9.5 mg)
DOI: 10.1039/c4ta04770b
Article source: Figure S15
Adsorbate Methane: InChIKey VNWKTOKETHGBQD-UHFFFAOYSA-N
Kind: experiment
Temperature: 296 K
Tabular data in the source: 0
pressure (bar)	uptake (mmol/g)
0.004492	-0.00122
0.019858	0.004878
0.032151	0.009756
0.056738	0.018293
0.11513	0.036585
0.164303	0.054878
0.219622	0.073171
0.268794	0.090244
0.327187	0.107317
0.440898	0.143902
0.505437	0.163415
0.551537	0.178049
0.597636	0.191463
0.656028	0.208537
0.705201	0.223171
0.766667	0.239024
0.812766	0.252439
0.861939	0.268293
0.920331	0.281707
0.969504	0.296341
1.0156	0.309756
1.05248	0.317073
1.07707	0.326829
