Adsorption isotherm of Methane on UTSA-16-GO (19 mg)
DOI: 10.1039/c4ta04770b
Article source: Figure 5b
Adsorbate Methane: InChIKey VNWKTOKETHGBQD-UHFFFAOYSA-N
Kind: experiment
Temperature: 296 K
Tabular data in the source: 0
pressure (bar)	uptake (cm3(STP)/g)
0.036779	0.045977
0.064363	0.413793
0.110336	0.804598
0.165504	1.87356
0.220671	2.27586
0.266645	3
0.321812	3.4023
0.376981	4.13793
0.435214	4.87739
0.484251	5.60536
0.536355	6.33716
0.591522	6.73946
0.643626	7.47126
0.695728	8.20307
0.747832	8.60153
0.802999	9.33716
0.852037	10.0651
0.91027	10.1379
0.962373	10.8697
1.01448	11.2682
1.04513	11.6398
1.06964	12.0038
