Adsorption isotherm of Methane on UTSA-16-GO (9.5 mg)
DOI: 10.1039/c4ta04770b
Article source: Figure 5c
Adsorbate Methane: InChIKey VNWKTOKETHGBQD-UHFFFAOYSA-N
Kind: experiment
Temperature: 273 K
Tabular data in the source: 0
pressure (bar)	uptake (cm3(STP)/g)
0.104206	0.665903
0.162439	0.994613
0.214542	1.69657
0.266645	2.39852
0.340201	3.08563
0.386175	3.79183
0.441342	4.49167
0.496511	4.8225
0.536355	4.79493
0.591522	5.49476
0.65282	5.82135
0.701858	6.15642
0.757026	6.85626
0.806064	7.19133
0.861232	7.15316
0.916399	7.85299
0.971568	8.55283
1.01754	8.89002
1.04206	8.87305
1.07577	8.84973
