Adsorption isotherm of Carbon Dioxide on UTSA-16-GO (19 mg)
DOI: 10.1039/c4ta04770b
Article source: Figure S16
Adsorbate Carbon Dioxide: InChIKey CURLTUGMZLYLDI-UHFFFAOYSA-N
Kind: experiment
Temperature: 296 K
Tabular data in the source: 0
pressure (bar)	uptake (mmol/g)
0.002932	0.015184
0.027529	0.395816
0.046418	0.789441
0.091678	1.39333
0.172361	2.20766
0.234222	2.5104
0.300151	2.73456
0.333279	2.8532
0.396585	2.97245
0.450182	3.06529
0.506469	3.14508
0.559083	3.19857
0.61537	3.27835
0.674018	3.33197
0.728994	3.35929
0.778262	3.39961
0.836583	3.44011
0.888868	3.48049
0.943844	3.50782
0.995802	3.53508
1.05412	3.57558
1.10273	3.58967
1.13324	3.60339
1.16407	3.63023
