Adsorption isotherm of Methane on UTSA-16-GO (28.5 mg)
DOI: 10.1039/c4ta04770b
Article source: Figure 5b
Adsorbate Methane: InChIKey VNWKTOKETHGBQD-UHFFFAOYSA-N
Kind: experiment
Temperature: 296 K
Tabular data in the source: 0
pressure (bar)	uptake (cm3(STP)/g)
0.00613	0.007663
0.018389	0.356322
0.027584	0.701149
0.058233	1.0728
0.107271	1.1341
0.162439	1.86973
0.217606	2.60536
0.26358	2.99617
0.321812	3.4023
0.376981	4.47126
0.432148	4.87356
0.481187	5.2682
0.533289	6.33333
0.588457	6.4023
0.640561	6.80077
0.695728	7.5364
0.744767	8.26437
0.802999	8.33716
0.848973	8.72797
0.907205	9.1341
0.962373	9.5364
1.01448	10.2682
1.04206	10.636
1.06964	10.6705
