Adsorption isotherm of Carbon Dioxide on UTSA-16-GO (9.5 mg)
DOI: 10.1039/c4ta04770b
Article source: Figure S15
Adsorbate Carbon Dioxide: InChIKey CURLTUGMZLYLDI-UHFFFAOYSA-N
Kind: experiment
Temperature: 296 K
Tabular data in the source: 0
pressure (bar)	uptake (mmol/g)
0.002079	-0.214456
0.01709	0.080577
0.032102	0.37561
0.053118	0.843571
0.116166	1.38305
0.176212	1.61741
0.227252	1.76019
0.266282	1.83168
0.320323	1.92363
0.371363	1.97487
0.428406	2.03634
0.479446	2.09775
0.533487	2.12868
0.587529	2.16979
0.64157	2.20072
0.689607	2.2316
0.743649	2.25236
0.797691	2.28329
0.854734	2.30408
0.905774	2.33499
0.956813	2.35572
1.01085	2.37649
1.04088	2.38689
1.0679	2.40744
