Adsorption isotherm of Carbon Dioxide on UTSA-16-GO (28.5 mg)
DOI: 10.1039/c4ta04770b
Article source: Figure 5b
Adsorbate Carbon Dioxide: InChIKey CURLTUGMZLYLDI-UHFFFAOYSA-N
Kind: experiment
Temperature: 296 K
Tabular data in the source: 0
pressure (bar)	uptake (cm3(STP)/g)
0.015324	8.01916
0.030649	16.705
0.058233	30.0728
0.113401	43.8084
0.171634	50.5479
0.229866	54.2874
0.26358	56.3295
0.321812	58.4023
0.373916	60.1341
0.426018	61.8659
0.481187	62.9349
0.536355	64.3372
0.585392	65.0651
0.637496	65.4636
0.692663	66.5326
0.744767	67.931
0.802999	68.6705
0.852037	69.0651
0.90414	69.7969
0.956243	70.8621
1.01448	71.2682
1.04206	71.9693
1.06658	72
