Adsorption isotherm of Carbon Dioxide on UTSA-16-GO (19 mg)
DOI: 10.1039/c4ta04770b
Article source: Figure 5b
Adsorbate Carbon Dioxide: InChIKey CURLTUGMZLYLDI-UHFFFAOYSA-N
Kind: experiment
Temperature: 296 K
Tabular data in the source: 0
pressure (bar)	uptake (cm3(STP)/g)
0.018389	8.68966
0.030649	17.705
0.055168	31.4023
0.116465	49.1456
0.171634	56.5479
0.226801	61.2835
0.266645	63.6667
0.321812	66.4023
0.373916	68.4674
0.429083	70.5364
0.481187	71.9349
0.533289	73.3333
0.588457	74.7356
0.640561	75.4674
0.695728	76.5364
0.747832	77.6015
0.799934	78.3333
0.852037	79.0651
0.907205	79.8008
0.959308	80.1992
1.01141	81.2644
1.04206	81.9693
1.07271	82.0077
