Adsorption isotherm of Methane on UTSA-16-GO (19 mg)
DOI: 10.1039/c4ta04770b
Article source: Figure S16
Adsorbate Methane: InChIKey VNWKTOKETHGBQD-UHFFFAOYSA-N
Kind: experiment
Temperature: 296 K
Tabular data in the source: 0
pressure (bar)	uptake (mmol/g)
0.007565	-3.2e-05
0.016785	0.005691
0.029078	0.013321
0.056738	0.02858
0.112057	0.055281
0.161229	0.081984
0.216548	0.112502
0.265721	0.139206
0.379433	0.190699
0.428605	0.215494
0.483924	0.240287
0.533097	0.265081
0.588416	0.289874
0.640662	0.314668
0.692908	0.335645
0.745154	0.360439
0.800473	0.381415
0.852719	0.4043
0.908038	0.425277
0.95721	0.448163
1.00638	0.467232
1.04019	0.480581
1.07092	0.492023
