Adsorption isotherm of Argon on PIZOF-2
DOI: 10.1002/chem.201101015
Adsorbate Argon: InChIKey XKRFYHLGVUSROY-UHFFFAOYSA-N
Temperature: 87 K
Tabular data in the source: 0
pressure (bar)	uptake (cm3(STP)/g)
0.00214696	72.0879
0.00462788	46.5007
0.00473126	16.2679
0.00673508	130.217
0.00903312	158.118
0.00922396	102.304
0.0113232	188.345
0.0183525	232.515
0.0302005	267.37
0.0420803	292.924
0.0515588	320.808
0.0585165	385.908
0.0677643	481.235
0.0770996	550.98
0.098585	567.208
0.146383	588.025
0.189425	599.551
0.206187	597.186
0.354518	615.439
0.378445	617.708
0.450233	622.189
0.474159	624.458
0.500487	624.395
0.524414	626.664
0.545947	628.939
0.569882	628.882
0.598595	631.14
0.622522	633.408
0.648842	635.672
0.672777	635.615
0.696703	637.884
0.720638	637.827
0.746958	640.09
0.768491	642.365
0.792426	642.308
0.816352	644.577
0.833091	649.188
0.880952	651.401
0.931206	653.607
0.952732	658.207
