Adsorption isotherm of Water on C10H4O12Eu2
DOI: 10.1039/C0cc00148a
Adsorbate Water: InChIKey XLYOFNOQVPJJNP-UHFFFAOYSA-N
Temperature: 298 K
Tabular data in the source: 0
pressure (bar)	uptake (cm3(STP)/g)
0.000283665	3.29384
0.000756441	6.58661
0.00108738	9.42564
0.00151288	12.4914
0.00208021	14.3064
0.00283665	17.4839
0.00364037	19.8657
0.00501142	23.1533
0.0065243	25.4175
0.00860451	28.4738
0.0104011	29.9409
0.0124813	32.2018
0.016358	35.5889
0.0196202	37.8431
