Adsorption isotherm of Carbon Dioxide on CTF-400-40-5
DOI: 10.1021/cm303751n
Article source: Figure 2
Adsorbate Carbon Dioxide: InChIKey CURLTUGMZLYLDI-UHFFFAOYSA-N
Kind: experiment
Temperature: 273 K
Tabular data in the source: 0
pressure (bar)	uptake (cm3(STP)/g)
0.046709	9.95959
0.101107	15.2779
0.153872	19.638
0.207726	22.9864
0.257227	25.8562
0.360038	30.7433
0.410628	32.9208
0.461761	34.5658
0.511807	36.4771
0.563485	38.1221
0.616794	39.7668
0.66412	41.2525
0.715253	42.7644
0.766387	44.1698
0.81752	45.4421
0.868654	46.5547
0.9187	47.8804
0.969289	49.1527
1.01118	50.2663
1.00954	50.3197
0.954058	48.9946
0.902924	47.7223
0.852335	46.3967
0.801745	45.0711
0.750068	43.9053
0.699478	42.633
0.649976	40.8281
0.599387	39.3428
0.548253	37.9107
0.496576	36.2126
0.447618	34.3011
0.397028	32.1236
0.344807	30.2126
0.296937	28.0348
0.244716	25.1121
0.195758	22.1891
0.144625	18.6274
0.096211	14.533
0.044533	9.00148
