Adsorption isotherm of Nitrogen on CTF-400-10-1.5
DOI: 10.1021/cm303751n
Article source: Figure 2
Adsorbate Nitrogen: InChIKey IJGRMHOSHXDMSA-UHFFFAOYSA-N
Kind: experiment
Temperature: 77 K
Tabular data in the source: 0
pressure (bar)	uptake (cm3(STP)/g)
-0.001332	-0.638165
-0.000984	6.40354
-0.000636	11.0022
0.00319	26.6664
0.005276	29.9717
0.009103	33.5644
0.015363	36.2949
0.02145	37.5164
0.028233	38.7379
0.044406	42.4743
0.050146	44.7737
0.059885	48.079
0.072232	50.1627
0.080058	51.6717
0.088406	53.971
0.102319	55.8392
0.148231	60.5816
0.204231	65.3958
0.260056	69.9945
0.303708	72.5094
0.353794	75.3836
0.402142	77.5392
0.46475	80.1259
0.508923	82.1379
0.552401	84.7246
0.607009	86.3054
0.658834	87.7425
0.710312	89.6107
0.757964	92.0537
0.809094	94.2094
0.869267	96.2213
0.914136	99.0954
0.992744	109.155
0.996222	112.748
0.997613	163.62
1.00144	217.367
1.00179	216.793
0.983005	108.58
0.957962	104.7
0.903353	103.838
0.854658	101.826
0.802485	101.251
0.751007	99.814
0.701269	98.5206
0.655356	97.5146
0.595879	96.365
0.550314	94.7842
0.50301	93.6345
0.452228	90.0418
0.402489	87.1676
0.354838	85.1557
0.298838	83.1438
0.252926	80.1259
0.204579	76.8206
0.15484	73.5154
0.104754	67.3359
0.052928	58.1386
