Adsorption isotherm of Nitrogen on CTF-400-40-1.5
DOI: 10.1021/cm303751n
Article source: Figure 2
Adsorbate Nitrogen: InChIKey IJGRMHOSHXDMSA-UHFFFAOYSA-N
Kind: experiment
Temperature: 77 K
Tabular data in the source: 0
pressure (bar)	uptake (cm3(STP)/g)
-0.001485	-1.00261
-0.000283	5.95058
0.000318	36.2466
-0.001485	42.7031
-0.000884	50.153
0.000318	54.3745
-0.000283	61.0794
-0.000283	70.7642
-0.003288	75.7308
-0.002687	80.6973
-0.002687	83.9256
-0.002687	88.1472
-0.002086	90.8788
0.000919	104.785
0.002121	110.993
0.002722	116.705
0.005727	120.926
0.006929	124.403
0.008131	127.631
0.008732	129.37
0.009935	132.846
0.017748	141.538
0.027966	150.726
0.037582	157.927
0.0478	162.397
0.059821	167.115
0.066432	170.84
0.085064	177.049
0.09408	180.029
0.098888	181.27
0.151178	192.942
0.202867	202.13
0.252152	209.828
0.301437	215.291
0.348919	219.761
0.41323	226.466
0.456505	230.439
0.503386	233.667
0.553873	237.392
0.607966	241.862
0.670474	246.332
0.712547	248.319
0.757624	252.044
0.808712	255.272
0.861604	258.997
0.910889	261.48
0.96378	265.453
0.987821	267.44
0.999241	268.433
1.00625	269.551
0.978706	268.723
0.954664	268.102
0.907082	266.861
0.855493	265.205
0.804405	263.55
0.752315	261.687
0.703731	260.032
0.659154	257.962
0.604059	255.686
0.555976	251.754
0.512401	247.822
0.461313	243.269
0.407721	239.131
0.359137	234.578
0.306546	229.611
0.23893	221.127
0.205372	216.367
0.132746	202.295
0.097185	192.362
0.054111	176.842
