Adsorption isotherm of Nitrogen on CTF-400-40-1
DOI: 10.1021/cm303751n
Article source: Figure 2
Adsorbate Nitrogen: InChIKey IJGRMHOSHXDMSA-UHFFFAOYSA-N
Kind: experiment
Temperature: 77 K
Tabular data in the source: 0
pressure (bar)	uptake (cm3(STP)/g)
-0.000984	-1.12677
-0.00015	5.08143
-0.000567	34.9153
-0.000567	40.4337
-0.000984	46.6419
-0.000984	51.1256
-0.001402	55.0919
-0.00015	65.7838
0.000685	72.6818
0.004442	77.338
0.005694	83.5462
0.007781	87.4263
0.016546	93.7207
0.024059	99.0667
0.035746	102.861
0.045346	106.31
0.060372	109.414
0.071224	112
0.078319	113.897
0.086667	115.277
0.099606	116.657
0.150527	122.003
0.207292	126.659
0.256961	132.177
0.301621	135.281
0.362559	138.903
0.403881	141.834
0.46148	143.904
0.513653	147.008
0.551636	149.595
0.609235	151.664
0.656817	153.733
0.713582	157.01
0.758659	158.734
0.821267	162.356
0.861754	163.391
0.912675	165.977
0.971527	168.737
0.984257	171.754
0.994066	173.393
0.972779	172.186
0.951909	172.013
0.910588	169.944
0.858415	168.219
0.807076	165.977
0.759494	164.08
0.705234	162.873
0.654313	161.494
0.606731	159.424
0.55581	157.01
0.508227	154.941
0.458141	151.836
0.403881	149.25
0.356299	147.353
0.308299	144.421
0.251535	141.662
0.183501	136.661
0.15011	132.867
0.09418	126.141
0.052859	118.554
