Adsorption isotherm of Carbon Dioxide on CTF-400-40-1.5
DOI: 10.1021/cm303751n
Article source: Figure 2
Adsorbate Carbon Dioxide: InChIKey CURLTUGMZLYLDI-UHFFFAOYSA-N
Kind: experiment
Temperature: 273 K
Tabular data in the source: 0
pressure (bar)	uptake (cm3(STP)/g)
0.011895	1.65767
0.047797	4.68857
0.099475	7.98399
0.148432	10.8538
0.200654	13.1908
0.253419	15.2083
0.305641	17.1194
0.357862	18.711
0.408996	20.356
0.460129	21.788
0.510719	23.1137
0.561853	24.8651
0.61081	25.9247
0.663576	27.3033
0.714709	28.4159
0.764755	29.5818
0.814257	30.4284
0.867566	31.594
0.91598	32.4406
0.968745	33.5531
1.01118	34.5601
1.01118	34.3471
0.954602	33.3948
0.904556	32.4419
0.853967	31.5422
0.800657	30.3766
0.751156	29.5301
0.701654	28.3108
0.651064	27.1449
0.598843	26.0325
0.548253	24.7069
0.49984	23.2745
0.44925	21.8425
0.397028	20.3573
0.348615	18.7653
0.297481	17.067
0.24798	15.0492
0.199022	12.9248
0.146256	10.854
0.098931	7.93081
0.041813	4.36977
