Adsorption isotherm of Nitrogen on CTF-400-10-1
DOI: 10.1021/cm303751n
Article source: Figure 2
Adsorbate Nitrogen: InChIKey IJGRMHOSHXDMSA-UHFFFAOYSA-N
Kind: experiment
Temperature: 77 K
Tabular data in the source: 0
pressure (bar)	uptake (cm3(STP)/g)
-0.001485	1.729
0.000318	9.17884
0.000318	34.26
0.000919	43.4481
0.000919	53.6296
0.000919	63.066
0.000318	71.2609
0.000919	79.2074
0.003924	86.1605
0.003624	93.8587
0.004525	101.309
0.011137	107.268
0.01895	114.222
0.027365	121.175
0.040587	127.88
0.048401	131.108
0.074245	138.806
0.091074	142.531
0.155385	154.699
0.20467	160.659
0.253354	166.619
0.310453	171.337
0.35493	175.062
0.406018	179.532
0.461313	183.008
0.506391	186.485
0.563489	190.458
0.613676	193.19
0.663262	195.177
0.711344	197.412
0.764837	200.143
0.850184	205.11
0.872122	205.855
0.943946	210.325
0.9752	217.029
0.996236	219.761
1.00104	221.251
0.983013	218.519
0.957169	218.023
0.912692	215.539
0.861604	213.056
0.782868	209.828
0.75522	209.58
0.70894	207.096
0.660256	204.365
0.591137	201.633
0.556277	199.398
0.508795	196.667
0.457707	189.713
0.395199	185.243
0.352526	182.015
0.288215	178.29
0.246743	174.317
0.200463	169.847
0.151779	163.391
0.099489	154.451
0.050805	141.289
