Adsorption isotherm of Nitrogen on CTF-400-40-5
DOI: 10.1021/cm303751n
Article source: Figure 2
Adsorbate Nitrogen: InChIKey IJGRMHOSHXDMSA-UHFFFAOYSA-N
Kind: experiment
Temperature: 77 K
Tabular data in the source: 0
pressure (bar)	uptake (cm3(STP)/g)
0.069137	129.659
0.108705	138.351
0.151278	145.594
0.205372	152.63
0.253455	158.424
0.298532	163.391
0.362142	169.806
0.406719	173.324
0.453299	177.049
0.503386	180.567
0.555976	185.947
0.606063	189.879
0.661158	195.052
0.70874	198.984
0.760329	203.951
0.817928	209.952
0.873023	218.23
0.914094	226.507
0.968188	246.374
0.982212	257.755
0.985217	268.516
1.00174	292.935
1.00375	302.868
0.990726	281.967
0.98722	278.449
0.959673	256.514
0.934129	244.511
0.903075	234.578
0.874526	230.232
0.851486	227.956
0.826443	224.645
0.799897	222.368
0.77235	220.299
0.751313	218.437
0.727272	217.609
0.695718	215.333
0.6857	214.505
0.645631	212.228
0.621089	209.952
0.593541	209.124
0.571002	207.676
0.545959	207.055
0.51741	205.399
0.49437	201.261
0.472833	196.294
0.451797	192.362
0.420743	188.223
0.390691	185.533
0.369655	183.878
0.341106	181.808
0.335596	180.567
0.295026	176.635
0.272487	174.979
0.23943	170.013
0.21589	167.943
0.195855	165.46
0.166805	160.907
0.145769	157.596
0.121226	153.044
0.090173	146.008
0.064629	140.006
0.042591	132.143
