Adsorption isotherm of Nitrogen on CTF-400-10-0.5
DOI: 10.1021/cm303751n
Article source: Figure 2
Adsorbate Nitrogen: InChIKey IJGRMHOSHXDMSA-UHFFFAOYSA-N
Kind: experiment
Temperature: 77 K
Tabular data in the source: 0
pressure (bar)	uptake (cm3(STP)/g)
-0.001986	1.14957
-0.000483	7.15083
-0.000483	13.359
-0.001485	27.431
1.7e-05	38.3988
0.001019	44.607
-0.000483	53.0915
1.7e-05	61.1622
0.000518	67.5773
0.002522	74.6133
0.005527	81.6492
0.011537	87.8574
0.017047	93.8587
0.030069	99.0322
0.039085	102.136
0.051606	105.447
0.061624	107.103
0.071641	109.172
0.083161	111.242
0.09418	112.69
0.106201	115.174
0.155786	119.312
0.202366	123.037
0.251952	126.555
0.306546	129.659
0.350622	132.557
0.403714	135.247
0.455303	137.523
0.503887	138.972
0.555476	141.248
0.606063	143.524
0.65665	144.766
0.709742	147.87
0.759828	150.353
0.81292	152.009
0.869517	154.492
0.914094	156.355
0.964682	159.459
0.99874	163.804
0.993732	169.392
0.951158	164.839
0.904077	162.563
0.855994	161.114
0.808412	160.493
0.754819	158.217
0.703731	156.768
0.652643	156.355
0.599051	153.664
0.547462	152.837
0.504387	148.905
0.4538	144.559
0.346615	139.592
0.300035	138.765
0.25095	135.661
0.202366	132.143
0.153282	128.004
0.098688	122.416
