Adsorption isotherm of Carbon Dioxide on CTF-400/600-20/20-5
DOI: 10.1021/cm303751n
Article source: Figure 2
Adsorbate Carbon Dioxide: InChIKey CURLTUGMZLYLDI-UHFFFAOYSA-N
Kind: experiment
Temperature: 273 K
Tabular data in the source: 0
pressure (bar)	uptake (cm3(STP)/g)
0.009538	2.8381
0.051696	15.1678
0.10428	24.2132
0.155957	31.4618
0.206728	37.6457
0.255233	42.9646
0.307363	47.9726
0.354961	52.2712
0.404372	56.5695
0.45469	60.7347
0.506367	64.1898
0.555778	68.0445
0.605189	71.2337
0.656867	74.5114
0.708998	77.789
0.760222	80.8005
0.809633	83.6348
0.859044	86.6465
0.910721	89.3917
0.961946	92.137
1.01	94.6165
1.01	94.5721
0.958772	92.0043
0.907095	89.4365
0.85859	86.7796
0.805553	83.6796
0.758409	80.9338
0.706731	77.7449
0.655054	74.7334
0.602923	71.4114
0.554872	67.8228
0.504554	64.19
0.451517	60.0252
0.404825	56.7913
0.354961	52.4486
0.306003	47.884
0.256139	43.0089
0.205822	37.557
0.154597	31.3954
0.103826	24.1689
0.051242	15.1679
0.012257	4.74563
