Adsorption isotherm of Carbon Dioxide on CTF-400-80-1
DOI: 10.1021/cm303751n
Article source: Figure 2
Adsorbate Carbon Dioxide: InChIKey CURLTUGMZLYLDI-UHFFFAOYSA-N
Kind: experiment
Temperature: 273 K
Tabular data in the source: 0
pressure (bar)	uptake (cm3(STP)/g)
0.052458	9.37289
0.102277	14.7036
0.153037	18.7462
0.204736	22.3287
0.257375	25.4511
0.310014	28.3895
0.362654	30.6839
0.408713	33.1629
0.460412	34.9054
0.513992	36.9237
0.563811	38.9424
0.61551	40.7768
0.66439	42.3356
0.714209	43.9863
0.766848	45.5447
0.816667	46.9193
0.869307	48.4777
0.918186	49.8525
0.968945	51.043
1.00936	52.1427
1.01218	52.3264
0.953906	50.9526
0.904086	49.854
0.849567	48.2038
0.800688	46.921
0.750868	45.2704
0.700109	43.8038
0.64935	42.2452
0.59953	40.5946
0.546891	38.7602
0.499892	37.0172
0.446313	34.5389
0.397433	32.4281
0.344794	30.0418
0.295915	27.471
0.247035	24.8082
0.193456	21.5939
0.145517	18.195
0.097577	14.4281
0.043058	8.36189
