Adsorption isotherm of Nitrogen on CTF-400-40-0.5
DOI: 10.1021/cm303751n
Article source: Figure 2
Adsorbate Nitrogen: InChIKey IJGRMHOSHXDMSA-UHFFFAOYSA-N
Kind: experiment
Temperature: 77 K
Tabular data in the source: 0
pressure (bar)	uptake (cm3(STP)/g)
-0.000984	1.80488
-0.001402	4.56408
-0.001402	9.91003
-0.000567	34.5704
-0.000984	38.5367
-0.001819	43.1929
-0.000567	47.6766
-0.000567	51.4705
-0.000984	55.9542
0.000268	65.4389
0.00152	72.8543
0.002355	77.1655
0.004024	81.4768
0.004024	85.788
0.006529	91.4789
0.007781	95.9626
0.016546	102.171
0.026146	106.827
0.036163	110.104
0.064128	118.036
0.078737	119.933
0.090006	121.313
0.105032	122.52
0.158457	126.659
0.2123	130.28
0.2507	133.384
0.312682	135.971
0.357968	138.558
0.404298	140.11
0.453967	142.179
0.506141	143.041
0.559983	145.628
0.605061	147.008
0.65473	148.043
0.702312	149.422
0.75699	150.457
0.810833	152.699
0.86551	154.423
0.918101	156.665
0.962344	159.942
0.983631	161.666
0.991561	164.08
1.00325	166.84
1.00325	167.184
0.975701	161.839
0.953162	159.769
0.910171	157.872
0.857163	156.32
0.806242	154.941
0.754486	153.388
0.70273	153.044
0.650139	151.147
0.602974	150.284
0.55581	148.732
0.505306	147.18
0.453967	143.214
0.402211	142.697
0.350038	140.627
0.350038	140.627
0.303291	139.075
0.256543	137.351
0.205622	134.247
0.153031	129.418
0.098771	124.762
0.046598	117.691
