Adsorption isotherm of Carbon Dioxide on CTF-400-40-1
DOI: 10.1021/cm303751n
Article source: Figure 2
Adsorbate Carbon Dioxide: InChIKey CURLTUGMZLYLDI-UHFFFAOYSA-N
Kind: experiment
Temperature: 273 K
Tabular data in the source: 0
pressure (bar)	uptake (cm3(STP)/g)
0.010263	2.46711
0.055304	7.254
0.108178	11.5928
0.14865	14.208
0.201524	16.6301
0.254398	19.2439
0.304009	20.9636
0.355578	22.6192
0.407146	24.4026
0.459368	25.7386
0.508978	27.2667
0.5612	28.475
0.610158	29.7475
0.663032	30.8918
0.713295	31.9726
0.763558	33.0533
0.81578	33.9422
0.866043	35.0229
0.916959	35.6563
0.967222	36.8009
1.01357	37.4988
1.01161	37.4351
0.953514	36.3552
0.901945	35.7218
0.85364	34.7048
0.801419	33.6242
0.752461	32.9267
0.700892	31.7183
0.651935	30.6375
0.599713	29.4931
0.54945	28.4123
0.497881	27.0762
0.448924	25.612
0.399966	24.2756
0.349703	22.3004
0.298787	20.5169
0.251787	18.8608
0.20283	16.6938
0.149303	14.0162
0.100998	11.0825
0.042249	6.29706
