Adsorption isotherm of Hydrogen on PFeA
DOI: 10.1016/j.cej.2010.01.059
Article source: Figure 6
Adsorbate Hydrogen: InChIKey UFHFLCQGNIYNRP-UHFFFAOYSA-N
Kind: experiment
Temperature: 77 K
Tabular data in the source: 0
pressure (bar)	uptake (mol/g)
24.8521	0.092538
34.7929	0.126857
44.7337	0.155988
54.9112	0.185122
64.6154	0.209065
74.7929	0.231974
84.7337	0.250732
94.4379	0.266377
