Adsorption isotherm of Hydrogen on PFeA
DOI: 10.1016/j.cej.2010.01.059
Article source: Figure 6
Adsorbate Hydrogen: InChIKey UFHFLCQGNIYNRP-UHFFFAOYSA-N
Kind: experiment
Temperature: 77 K
Tabular data in the source: 0
pressure (bar)	uptake (mol/g)
19.8817	0.099757
29.5858	0.158969
39.7633	0.205738
49.7041	0.244206
59.645	0.282673
69.8225	0.321143
79.5266	0.367907
89.4675	0.40845
97.2781	0.453123
