Adsorption isotherm of Hydrogen on PTiA
DOI: 10.1016/j.cej.2010.01.059
Article source: Figure 6
Adsorbate Hydrogen: InChIKey UFHFLCQGNIYNRP-UHFFFAOYSA-N
Kind: experiment
Temperature: 77 K
Tabular data in the source: 0
pressure (bar)	uptake (mol/g)
9.70414	0.036391
20.1183	0.072788
29.8225	0.107104
39.7633	0.137273
49.7041	0.169517
59.645	0.196574
69.8225	0.223633
79.5266	0.245501
89.7041	0.270485
97.5148	0.285075
