Adsorption isotherm of Hydrogen on PBA
DOI: 10.1016/j.cej.2010.01.059
Article source: Figure 6
Adsorbate Hydrogen: InChIKey UFHFLCQGNIYNRP-UHFFFAOYSA-N
Kind: experiment
Temperature: 77 K
Tabular data in the source: 0
pressure (bar)	uptake (mol/g)
14.6746	0.046807
24.8521	0.076978
34.7929	0.10611
44.9704	0.134206
54.9112	0.159188
64.8521	0.181059
74.5562	0.202927
84.7337	0.223762
94.4379	0.24148
