Adsorption isotherm of Hydrogen on PA
DOI: 10.1016/j.cej.2010.01.059
Article source: Figure 6
Adsorbate Hydrogen: InChIKey UFHFLCQGNIYNRP-UHFFFAOYSA-N
Kind: experiment
Temperature: 77 K
Tabular data in the source: 0
pressure (bar)	uptake (mol/g)
14.9112	0.063407
25.3254	0.121588
35.0296	0.166278
44.9704	0.21097
54.9112	0.244251
64.6154	0.259895
75.0296	0.292142
84.7337	0.325421
94.6746	0.348329
