Adsorption isotherm of Isobutane, Ethene on Zeolite 13X
DOI: 10.1021/i100017a016
Article source: Figure 6
Adsorbate Isobutane: InChIKey NNPPMTNAJDCUHE-UHFFFAOYSA-N
Adsorbate Ethene: InChIKey VGGSQFUCUMXWEO-UHFFFAOYSA-N
Kind: experiment
Temperature: 298 K
Tabular data in the source: 0
pressure (bar)	Isobutane fraction	Isobutane uptake (mmol/g)	Ethene fraction	Ethene uptake (mmol/g)	total uptake (mmol/g)
1.38	0.043	0.393	0.957	2.207	2.6
1.38	0.0643	0.51	0.9357	1.96	2.47
1.38	0.0948	0.656	0.9052	1.764	2.42
1.38	0.149	0.831	0.851	1.549	2.38
1.38	0.201	0.965	0.799	1.385	2.35
1.38	0.298	1.17	0.702	1.13	2.3
1.38	0.4	1.31	0.6	0.97	2.28
1.38	0.5	1.41	0.5	0.83	2.24
1.38	0.603	1.51	0.397	0.72	2.23
1.38	0.699	1.59	0.301	0.63	2.22
1.38	0.796	1.66	0.204	0.52	2.18
1.38	0.844	1.71	0.156	0.42	2.13
1.38	0.895	1.76	0.105	0.3	2.06
1.38	0.947	1.81	0.053	0.2	2.01
