Adsorption isotherm of Carbon Dioxide on [Zn5(mu3-OH)4L2]*7H2O*DMF
DOI: 10.1039/C2cc36713k
Adsorbate Carbon Dioxide: InChIKey CURLTUGMZLYLDI-UHFFFAOYSA-N
Temperature: 273 K
Tabular data in the source: 0
pressure (bar)	uptake (cm3(STP)/g)
0.0108756	3.08751
0.0137359	6.70577
0.0180263	9.85209
0.0280373	16.302
0.0537799	24.6398
0.115276	35.1799
0.308345	46.5067
0.703065	54.8444
0.75455	55.7883
0.807465	56.2602
