Adsorption isotherm of Carbon Dioxide on [Zn5(mu3-OH)4L2]*7H2O*DMF
DOI: 10.1039/C2cc36713k
Adsorbate Carbon Dioxide: InChIKey CURLTUGMZLYLDI-UHFFFAOYSA-N
Temperature: 273 K
Tabular data in the source: 0
pressure (bar)	uptake (mmol/g)
0.00944547	0.133191
0.0208866	0.433521
0.0294675	0.748152
0.05521	1.09139
0.112416	1.54188
0.302625	2.04958
0.701635	2.43572
0.747399	2.47147
0.796024	2.48578
