Adsorption isotherm of Nitrogen on [Zn5(mu3-OH)4L2]*7H2O*DMF
DOI: 10.1039/C2cc36713k
Adsorbate Nitrogen: InChIKey IJGRMHOSHXDMSA-UHFFFAOYSA-N
Temperature: 77 K
Tabular data in the source: 0
pressure (bar)	uptake (cm3(STP)/g)
0.00837971	4.99396
0.00837971	46.0696
0.00837971	61.3637
0.0105646	15.4814
0.0105646	30.557
0.0127495	67.9183
0.0630016	73.162
0.121993	77.3133
0.202833	80.8091
0.303338	83.4309
0.410397	84.5234
0.552413	85.3973
0.700985	86.2713
0.797119	86.7082
0.895439	87.1452
0.976279	88.2377
