Adsorption isotherm of Hydrogen on [Zn5(mu3-OH)4L2]*7H2O*DMF
DOI: 10.1039/C2cc36713k
Adsorbate Hydrogen: InChIKey UFHFLCQGNIYNRP-UHFFFAOYSA-N
Temperature: 77 K
Tabular data in the source: 0
pressure (bar)	uptake (cm3(STP)/g)
0.00702701	3.2552
0.00702701	16.4242
0.00702701	28.9735
0.00984391	33.7763
0.0197031	48.3397
0.0281538	54.5369
0.0591397	63.6777
0.101393	70.3397
0.205619	77.6214
0.30421	82.5791
0.40421	86.2975
0.50421	89.7059
0.605619	93.2693
0.707027	96.058
0.80421	98.5369
0.856323	100.396
