Adsorption isotherm of Methane on [Zn5(mu3-OH)4L2]*7H2O*DMF
DOI: 10.1039/C2cc36713k
Adsorbate Methane: InChIKey VNWKTOKETHGBQD-UHFFFAOYSA-N
Temperature: 273 K
Tabular data in the source: 0
pressure (bar)	uptake (cm3(STP)/g)
0.0137359	0.255828
0.0666512	3.08751
0.15389	7.33504
0.212526	9.38014
0.309776	12.8411
0.404165	15.5155
0.509996	18.1898
0.610106	20.5496
0.705925	22.752
0.761701	23.8532
0.85752	25.8983
