Adsorption isotherm of Hydrogen on [Zn5(mu3-OH)4L2]*7H2O*DMF
DOI: 10.1039/C2cc36713k
Adsorbate Hydrogen: InChIKey UFHFLCQGNIYNRP-UHFFFAOYSA-N
Temperature: 77 K
Tabular data in the source: 0
pressure (bar)	uptake (mmol/g)
0.00515504	0.12604
0.00658518	1.29876
0.0208866	2.12109
0.0280373	2.41427
0.0595005	2.84331
0.100975	3.09359
0.15675	3.29381
0.254	3.56553
0.35697	3.75145
0.45279	3.90162
0.55004	4.04463
0.65158	4.1948
0.75455	4.32351
0.85037	4.46652
