Adsorption isotherm of Methane on [Zn5(mu3-OH)4L2]*7H2O*DMF
DOI: 10.1039/C2cc36713k
Adsorbate Methane: InChIKey VNWKTOKETHGBQD-UHFFFAOYSA-N
Temperature: 273 K
Tabular data in the source: 0
pressure (bar)	uptake (mmol/g)
0.0180263	0.0402314
0.0394785	0.075985
0.0695115	0.147492
0.108125	0.22615
0.15818	0.32626
0.254	0.497877
0.35411	0.640891
0.464231	0.769604
0.55862	0.869714
0.660161	0.984126
0.704495	1.02703
0.75884	1.07709
0.803175	1.10569
0.85466	1.14859
