Adsorption isotherm of Sodium Oleate, Water on Muscovite
DOI: 10.1016/j.cis.2017.11.003
Article source: Figure 3
Adsorbate Sodium Oleate: InChIKey BCKXLBQYZLBQEK-KVVVOXFISA-M
Adsorbate Water: InChIKey XLYOFNOQVPJJNP-UHFFFAOYSA-N
Kind: experiment
Temperature: 283 K
Tabular data in the source: 0
pressure (bar)	Sodium Oleate fraction	Sodium Oleate uptake (mmol/m2)	Water fraction	Water uptake (mmol/m2)	total uptake (mmol/m2)
10.1325	-5.44469	0			
10.1325	-5.12074	0			
10.1325	-5.01316	0			
10.1325	-4.39716	0			
10.1325	-4.10157	0			
10.1325	-4.00732	0			
10.1325	-3.70343	0			
10.1325	-3.52765	0			
