Adsorption isotherm of 1-Aminododecane, Water on Muscovite
DOI: 10.1016/j.cis.2017.11.003
Article source: Figure 3
Adsorbate 1-Aminododecane: InChIKey JRBPAEWTRLWTQC-UHFFFAOYSA-N
Adsorbate Water: InChIKey XLYOFNOQVPJJNP-UHFFFAOYSA-N
Kind: experiment
Temperature: 283 K
Tabular data in the source: 0
pressure (bar)	1-Aminododecane fraction	1-Aminododecane uptake (mmol/m2)	Water fraction	Water uptake (mmol/m2)	total uptake (mmol/m2)
10.1325	-6.85124	0			
10.1325	-6.27698	0			
10.1325	-5.84535	0			
10.1325	-5.53946	0			
10.1325	-5.2148	0			
10.1325	-5.00291	0			
10.1325	-4.36344	1e-06			
10.1325	-3.74456	1e-06			
10.1325	-3.63165	1e-06			
10.1325	-3.51521	1e-06			
