Adsorption isotherm of Sodium Oleate, 1-Aminododecane, Water on Muscovite
DOI: 10.1016/j.cis.2017.11.003
Article source: Figure 3
Adsorbate Sodium Oleate: InChIKey BCKXLBQYZLBQEK-KVVVOXFISA-M
Adsorbate 1-Aminododecane: InChIKey JRBPAEWTRLWTQC-UHFFFAOYSA-N
Adsorbate Water: InChIKey XLYOFNOQVPJJNP-UHFFFAOYSA-N
Kind: experiment
Temperature: 283 K
Tabular data in the source: 0
pressure (bar)	Sodium Oleate fraction	Sodium Oleate uptake (mmol/m2)	1-Aminododecane fraction	1-Aminododecane uptake (mmol/m2)	Water fraction	Water uptake (mmol/m2)	total uptake (mmol/m2)
10.1325	-5.66964	0	-6.99564	0			
10.1325	-5.4509	0	-6.40436	0			
10.1325	-5.3927	0	-6.08411	0			
10.1325	-4.60042	0	-5.63151	0			
10.1325	-4.31603	0	-4.90167	0			
10.1325	-4.29973	0	-4.03921	1e-06			
10.1325	-3.85584	0	-3.97149	1e-06			
10.1325	-3.73674	1e-06	-3.7332	1e-06			
