Adsorption isotherm of Nitrogen on {[Cd(BTC)0.66(BPz)2]*6H2O}n
DOI: 10.1016/j.inoche.2013.09.065
Adsorbate Nitrogen: InChIKey IJGRMHOSHXDMSA-UHFFFAOYSA-N
Temperature: 77 K
Tabular data in the source: 0
pressure (bar)	uptake (cm3(STP)/g)
0.00362825	52.4437
0.00591037	57.604
0.00823456	64.2419
0.0191404	72.3119
0.0257343	78.927
0.0473356	87.679
0.0730804	91.9754
0.0966693	95.5444
0.122393	99.1021
0.145919	100.455
0.169445	101.807
0.192992	103.899
0.220766	104.49
0.242178	106.592
0.265704	107.945
0.291386	110.025
0.314869	109.9
0.340551	111.98
0.364077	113.333
0.387603	114.685
0.415398	116.015
0.434633	116.652
0.458159	118.004
0.488068	118.584
0.509501	121.425
0.535141	122.028
0.556532	123.392
0.580058	124.744
0.601449	126.108
0.629244	127.438
0.654905	128.779
0.678431	130.132
0.704134	132.951
0.72768	135.042
0.751206	136.395
0.77693	139.952
0.802612	142.032
0.824066	145.613
0.849768	148.431
0.873441	154.956
0.895064	164.446
0.918737	170.971
0.942641	185.622
0.94953	202.58
0.956271	214.367
0.960961	229.12
