Adsorption isotherm of Carbon Dioxide on MIL-53
DOI: 10.4028/www.scientific.net/AMM.625.870
Adsorbate Carbon Dioxide: InChIKey CURLTUGMZLYLDI-UHFFFAOYSA-N
Temperature: 298 K
Tabular data in the source: 0
pressure (bar)	uptake (mol/g)
0.0494845	5.19288e-06
0.208247	2.07715e-05
0.381443	3.63501e-05
0.538144	5.08902e-05
0.692784	6.54303e-05
0.845361	7.89318e-05
