Adsorption isotherm of Carbon Dioxide on CNF@MIL-53
DOI: 10.4028/www.scientific.net/AMM.625.870
Adsorbate Carbon Dioxide: InChIKey CURLTUGMZLYLDI-UHFFFAOYSA-N
Temperature: 298 K
Tabular data in the source: 0
pressure (bar)	uptake (mol/g)
0.0494845	9.34718e-06
0.206186	3.53116e-05
0.381443	6.33531e-05
0.536082	8.62018e-05
0.692784	0.000108012
0.845361	0.000129822
