Adsorption isotherm of Carbon Dioxide on MWCNTs@MIL-53
DOI: 10.4028/www.scientific.net/AMM.625.870
Adsorbate Carbon Dioxide: InChIKey CURLTUGMZLYLDI-UHFFFAOYSA-N
Temperature: 298 K
Tabular data in the source: 0
pressure (bar)	uptake (mol/g)
0.0474227	1.97329e-05
0.206186	7.99703e-05
0.383505	0.000144362
0.538144	0.000192136
0.694845	0.00024095
0.845361	0.00028457
