Adsorption isotherm of Copper(II) Ion, Water on Goethite-Humic Acid composite
DOI: 10.1111/ejss.12430
Article source: Figure 4
Adsorbate Copper(II) Ion: InChIKey JPVYNHNXODAKFH-UHFFFAOYSA-N
Adsorbate Water: InChIKey XLYOFNOQVPJJNP-UHFFFAOYSA-N
Kind: experiment
Temperature: 298 K
Tabular data in the source: 0
pressure (bar)	Copper(II) Ion fraction	Copper(II) Ion uptake (mg/g)	Water fraction	Water uptake (mg/g)	total uptake (mg/g)
1.01325	1.469	0.445			
1.01325	6.868	3.853			
1.01325	17.279	4.085			
1.01325	17.365	3.509			
1.01325	36.069	5.244			
1.01325	36.415	4.912			
1.01325	55.335	6.066			
1.01325	55.767	5.533			
1.01325	114.644	6.375			
1.01325	115.076	6.651			
1.01325	172.225	8.739			
1.01325	174.428	7.135			
