Adsorption isotherm of Copper(II) Ion, Water on P. Putida-Humic Acid composite
DOI: 10.1111/ejss.12430
Article source: Figure 4
Adsorbate Copper(II) Ion: InChIKey JPVYNHNXODAKFH-UHFFFAOYSA-N
Adsorbate Water: InChIKey XLYOFNOQVPJJNP-UHFFFAOYSA-N
Kind: experiment
Temperature: 298 K
Tabular data in the source: 0
pressure (bar)	Copper(II) Ion fraction	Copper(II) Ion uptake (mg/g)	Water fraction	Water uptake (mg/g)	total uptake (mg/g)
1.01325	2.721	9.334			
1.01325	3.456	9.127			
1.01325	9.244	12.616			
1.01325	9.676	12.316			
1.01325	28.467	14.578			
1.01325	30.194	12.511			
1.01325	47.214	15.443			
1.01325	47.516	14.935			
1.01325	102.765	20.826			
1.01325	104.06	19.604			
1.01325	163.11	20.515			
1.01325	163.283	20.208			
