Adsorption isotherm of Copper(II) Ion, Water on P. Putida
DOI: 10.1111/ejss.12430
Article source: Figure 4
Adsorbate Copper(II) Ion: InChIKey JPVYNHNXODAKFH-UHFFFAOYSA-N
Adsorbate Water: InChIKey XLYOFNOQVPJJNP-UHFFFAOYSA-N
Kind: experiment
Temperature: 298 K
Tabular data in the source: 0
pressure (bar)	Copper(II) Ion fraction	Copper(II) Ion uptake (mg/g)	Water fraction	Water uptake (mg/g)	total uptake (mg/g)
1.01325	0.638	0.67			
1.01325	0.814	6.381			
1.01325	1.5	12.427			
1.01325	12.845	18.31			
1.01325	28.009	21.453			
1.01325	81.267	26.094			
1.01325	81.819	25.655			
1.01325	138.557	27.661			
1.01325	139.109	27.305			
