Adsorption isotherm of Copper(II) Ion, Water on Goethite-P. Putida-Humic Acid composite
DOI: 10.1111/ejss.12430
Article source: Figure 4
Adsorbate Copper(II) Ion: InChIKey JPVYNHNXODAKFH-UHFFFAOYSA-N
Adsorbate Water: InChIKey XLYOFNOQVPJJNP-UHFFFAOYSA-N
Kind: experiment
Temperature: 298 K
Tabular data in the source: 0
pressure (bar)	Copper(II) Ion fraction	Copper(II) Ion uptake (mg/g)	Water fraction	Water uptake (mg/g)	total uptake (mg/g)
1.01325	0.864	0.213			
1.01325	3.888	6.452			
1.01325	13.348	7.455			
1.01325	32.743	8.019			
1.01325	34.773	6.121			
1.01325	52.613	8.315			
1.01325	53.391	7.682			
1.01325	111.231	9.789			
1.01325	113.521	7.597			
1.01325	171.879	9.898			
