Adsorption isotherm of Copper(II) Ion, Water on Humic Acid
DOI: 10.1111/ejss.12430
Article source: Figure 4
Adsorbate Copper(II) Ion: InChIKey JPVYNHNXODAKFH-UHFFFAOYSA-N
Adsorbate Water: InChIKey XLYOFNOQVPJJNP-UHFFFAOYSA-N
Kind: experiment
Temperature: 298 K
Tabular data in the source: 0
pressure (bar)	Copper(II) Ion fraction	Copper(II) Ion uptake (mg/g)	Water fraction	Water uptake (mg/g)	total uptake (mg/g)
1.01325	0.638	0.67			
1.01325	0.696	15.356			
1.01325	0.838	29.728			
1.01325	5.11	53.6			
1.01325	18.625	63.165			
1.01325	69.728	76.801			
1.01325	72.271	72.848			
1.01325	127.995	79.206			
