Adsorption isotherm of Copper(II) Ion, Water on Goethite-P. Putida composite
DOI: 10.1111/ejss.12430
Article source: Figure 4
Adsorbate Copper(II) Ion: InChIKey JPVYNHNXODAKFH-UHFFFAOYSA-N
Adsorbate Water: InChIKey XLYOFNOQVPJJNP-UHFFFAOYSA-N
Kind: experiment
Temperature: 298 K
Tabular data in the source: 0
pressure (bar)	Copper(II) Ion fraction	Copper(II) Ion uptake (mg/g)	Water fraction	Water uptake (mg/g)	total uptake (mg/g)
1.01325	1.901	5.406			
1.01325	4.579	6.722			
1.01325	8.898	7.711			
1.01325	10.022	7.286			
1.01325	25.961	9.41			
1.01325	27.689	8.332			
1.01325	43.844	10.713			
1.01325	44.536	10.237			
1.01325	97.279	15.244			
1.01325	98.661	14.198			
1.01325	153.564	17.733			
1.01325	154.341	16.975			
