Adsorption isotherm of Copper(II) Ion, Water on goethite
DOI: 10.1111/ejss.12430
Article source: Figure 4
Adsorbate Copper(II) Ion: InChIKey JPVYNHNXODAKFH-UHFFFAOYSA-N
Adsorbate Water: InChIKey XLYOFNOQVPJJNP-UHFFFAOYSA-N
Kind: experiment
Temperature: 298 K
Tabular data in the source: 0
pressure (bar)	Copper(II) Ion fraction	Copper(II) Ion uptake (mg/g)	Water fraction	Water uptake (mg/g)	total uptake (mg/g)
1.01325	0.638	0.67			
1.01325	7.689	1.99			
1.01325	7.858	1.634			
1.01325	16.268	2.662			
1.01325	35.082	3.84			
1.01325	54.914	4.098			
1.01325	112.968	5.267			
1.01325	170.428	7.148			
1.01325	171.616	6.186			
