Adsorption isotherm of Hg(II), Water on PPTA-PAPSQ-2
DOI: 10.1016/j.cej.2017.02.073
Article source: Figure 18
Adsorbate Hg(II): InChIKey BQPIGGFYSBELGY-UHFFFAOYSA-N
Adsorbate Water: InChIKey XLYOFNOQVPJJNP-UHFFFAOYSA-N
Kind: experiment
Temperature: 298 K
Tabular data in the source: 0
pressure (bar)	Hg(II) fraction	Hg(II) uptake (mmol/g)	Water fraction	Water uptake (mmol/g)	total uptake (mmol/g)
1.01325	0.8183	0.05999			
1.01325	1.841	0.11663			
1.01325	2.8298	0.15064			
1.01325	3.8207	0.18448			
1.01325	4.7493	0.20376			
