Adsorption isotherm of Hg(II), Water on PPTA-PAPSQ-1
DOI: 10.1016/j.cej.2017.02.073
Article source: Figure 18
Adsorbate Hg(II): InChIKey BQPIGGFYSBELGY-UHFFFAOYSA-N
Adsorbate Water: InChIKey XLYOFNOQVPJJNP-UHFFFAOYSA-N
Kind: experiment
Temperature: 298 K
Tabular data in the source: 0
pressure (bar)	Hg(II) fraction	Hg(II) uptake (mmol/g)	Water fraction	Water uptake (mmol/g)	total uptake (mmol/g)
1.01325	0.9005	0.0278			
1.01325	1.8681	0.04521			
1.01325	2.8441	0.05189			
1.01325	3.8371	0.06092			
1.01325	4.8596	0.06693			
