Adsorption isotherm of Hg(II), Water on PPTA-PMPSQ-1
DOI: 10.1016/j.cej.2017.02.073
Article source: Figure 19
Adsorbate Hg(II): InChIKey BQPIGGFYSBELGY-UHFFFAOYSA-N
Adsorbate Water: InChIKey XLYOFNOQVPJJNP-UHFFFAOYSA-N
Kind: experiment
Temperature: 298 K
Tabular data in the source: 0
pressure (bar)	Hg(II) fraction	Hg(II) uptake (mmol/g)	Water fraction	Water uptake (mmol/g)	total uptake (mmol/g)
1.01325	0.7584	0.09632			
1.01325	1.7559	0.18221			
1.01325	2.5388	0.22162			
1.01325	3.6402	0.27416			
1.01325	4.807	0.31913			
