Adsorption isotherm of Hg(II), Water on PPTA-PMPSQ-5
DOI: 10.1016/j.cej.2017.02.073
Article source: Figure 19
Adsorbate Hg(II): InChIKey BQPIGGFYSBELGY-UHFFFAOYSA-N
Adsorbate Water: InChIKey XLYOFNOQVPJJNP-UHFFFAOYSA-N
Kind: experiment
Temperature: 298 K
Tabular data in the source: 0
pressure (bar)	Hg(II) fraction	Hg(II) uptake (mmol/g)	Water fraction	Water uptake (mmol/g)	total uptake (mmol/g)
1.01325	0.4392	0.41583			
1.01325	1.2379	0.5755			
1.01325	2.3254	0.7076			
1.01325	3.1716	0.75394			
1.01325	4.3183	0.77993			
