Adsorption isotherm of Hg(II), Water on PPTA-PMPSQ-4
DOI: 10.1016/j.cej.2017.02.073
Article source: Figure 19
Adsorbate Hg(II): InChIKey BQPIGGFYSBELGY-UHFFFAOYSA-N
Adsorbate Water: InChIKey XLYOFNOQVPJJNP-UHFFFAOYSA-N
Kind: experiment
Temperature: 298 K
Tabular data in the source: 0
pressure (bar)	Hg(II) fraction	Hg(II) uptake (mmol/g)	Water fraction	Water uptake (mmol/g)	total uptake (mmol/g)
1.01325	0.4211	0.41877			
1.01325	1.3345	0.5657			
1.01325	2.4137	0.69626			
1.01325	3.1565	0.73947			
1.01325	4.5622	0.77891			
