Adsorption isotherm of Hg(II), Water on PPTA-PMPSQ-3
DOI: 10.1016/j.cej.2017.02.073
Article source: Figure 19
Adsorbate Hg(II): InChIKey BQPIGGFYSBELGY-UHFFFAOYSA-N
Adsorbate Water: InChIKey XLYOFNOQVPJJNP-UHFFFAOYSA-N
Kind: experiment
Temperature: 298 K
Tabular data in the source: 0
pressure (bar)	Hg(II) fraction	Hg(II) uptake (mmol/g)	Water fraction	Water uptake (mmol/g)	total uptake (mmol/g)
1.01325	0.4489	0.34203			
1.01325	1.3806	0.48385			
1.01325	2.5707	0.58378			
1.01325	3.2647	0.59665			
1.01325	4.5873	0.65074			
