Adsorption isotherm of Hg(II), Water on PPTA-PMPSQ-2
DOI: 10.1016/j.cej.2017.02.073
Article source: Figure 19
Adsorbate Hg(II): InChIKey BQPIGGFYSBELGY-UHFFFAOYSA-N
Adsorbate Water: InChIKey XLYOFNOQVPJJNP-UHFFFAOYSA-N
Kind: experiment
Temperature: 298 K
Tabular data in the source: 0
pressure (bar)	Hg(II) fraction	Hg(II) uptake (mmol/g)	Water fraction	Water uptake (mmol/g)	total uptake (mmol/g)
1.01325	0.5016	0.24359			
1.01325	1.4521	0.38916			
1.01325	2.4626	0.48632			
1.01325	3.3369	0.5342			
1.01325	4.6049	0.58382			
