Adsorption isotherm of Hg(II), Water on PPTA-PAPSQ-3
DOI: 10.1016/j.cej.2017.02.073
Article source: Figure 18
Adsorbate Hg(II): InChIKey BQPIGGFYSBELGY-UHFFFAOYSA-N
Adsorbate Water: InChIKey XLYOFNOQVPJJNP-UHFFFAOYSA-N
Kind: experiment
Temperature: 298 K
Tabular data in the source: 0
pressure (bar)	Hg(II) fraction	Hg(II) uptake (mmol/g)	Water fraction	Water uptake (mmol/g)	total uptake (mmol/g)
1.01325	0.7842	0.07616			
1.01325	1.8056	0.14785			
1.01325	2.7917	0.1952			
1.01325	3.7543	0.2331			
1.01325	4.7739	0.25995			
