Adsorption isotherm of Hg(II), Water on PPTA-PAPSQ-4
DOI: 10.1016/j.cej.2017.02.073
Article source: Figure 18
Adsorbate Hg(II): InChIKey BQPIGGFYSBELGY-UHFFFAOYSA-N
Adsorbate Water: InChIKey XLYOFNOQVPJJNP-UHFFFAOYSA-N
Kind: experiment
Temperature: 298 K
Tabular data in the source: 0
pressure (bar)	Hg(II) fraction	Hg(II) uptake (mmol/g)	Water fraction	Water uptake (mmol/g)	total uptake (mmol/g)
1.01325	0.7616	0.08095			
1.01325	1.6681	0.1444			
1.01325	2.8035	0.20744			
1.01325	3.6957	0.24414			
1.01325	4.8092	0.28084			
