Adsorption isotherm of Hg(II), Water on PPTA-PAPSQ-5
DOI: 10.1016/j.cej.2017.02.073
Article source: Figure 18
Adsorbate Hg(II): InChIKey BQPIGGFYSBELGY-UHFFFAOYSA-N
Adsorbate Water: InChIKey XLYOFNOQVPJJNP-UHFFFAOYSA-N
Kind: experiment
Temperature: 298 K
Tabular data in the source: 0
pressure (bar)	Hg(II) fraction	Hg(II) uptake (mmol/g)	Water fraction	Water uptake (mmol/g)	total uptake (mmol/g)
1.01325	0.7571	0.0833			
1.01325	1.708	0.15226			
1.01325	2.8004	0.21418			
1.01325	3.6521	0.24574			
1.01325	4.6734	0.28237			
