Adsorption isotherm of N-propane on MIL-53(Cr)
DOI: 10.1021/Ja803899q
Adsorbate N-propane: InChIKey ATUOYWHBWRKTHZ-UHFFFAOYSA-N
Temperature: 303 K
Tabular data in the source: 0
pressure (bar)	uptake (cm3(STP)/g)
0.158516	0.174392
0.253382	0.199986
0.34987	0.219181
0.443925	0.247976
0.447574	0.233576
0.543251	0.255971
0.642982	0.262366
0.741091	0.27516
0.840011	0.284755
1.04028	0.294345
1.34232	0.302328
1.64435	0.310312
1.94638	0.318296
2.35098	0.321475
2.75517	0.326253
3.36207	0.331021
3.86843	0.332594
4.17127	0.337378
5.38629	0.342113
6.19589	0.34687
7.00591	0.350026
8.11997	0.353167
9.03134	0.356318
