Adsorption isotherm of N-Butane on MIL-53(Cr)
DOI: 10.1021/Ja803899q
Adsorbate N-Butane: InChIKey IJDNQMDRQITEOD-UHFFFAOYSA-N
Temperature: 303 K
Tabular data in the source: 0
pressure (bar)	uptake (cm3(STP)/g)
0.202703	0.202703
0.405405	0.340541
0.506757	0.354993
0.608108	0.36302
0.810811	0.367828
1.01351	0.377456
1.31757	0.382259
1.52027	0.388674
2.02703	0.393466
