Adsorption isotherm of Argon on MIL-53(Cr)
DOI: 10.1021/Ja803899q
Adsorbate Argon: InChIKey XKRFYHLGVUSROY-UHFFFAOYSA-N
Temperature: 303 K
Tabular data in the source: 0
pressure (bar)	uptake (mmol/g)
2.48333	0.539131
3.39875	0.710611
5.88669	1.00413
9.2882	1.56737
11.7734	2.00825
14.5224	2.37532
16.7479	2.66897
20.1517	3.1094
23.5564	3.50071
26.0444	3.79422
28.664	4.06311
31.2827	4.38112
33.3774	4.65027
35.6029	4.94391
37.9596	5.23749
40.709	5.58
43.7224	5.8487
46.0791	6.14228
