Adsorption isotherm of Oxygen on MIL-53(Cr)
DOI: 10.1021/Ja803899q
Adsorbate Oxygen: InChIKey MYMOFIZGZYHOMD-UHFFFAOYSA-N
Temperature: 303 K
Tabular data in the source: 0
pressure (bar)	uptake (mmol/g)
2.09147	0.441078
3.92231	0.784038
5.75407	1.07788
7.58629	1.34715
10.3344	1.76334
12.8209	2.13054
15.3084	2.44862
17.271	2.76695
19.1041	2.98711
20.9372	3.20726
23.556	3.52527
25.7814	3.81891
27.6146	4.03907
