Adsorption isotherm of Methane on MIL-53(Cr)
DOI: 10.1021/Ja803899q
Adsorbate Methane: InChIKey VNWKTOKETHGBQD-UHFFFAOYSA-N
Temperature: 303 K
Tabular data in the source: 0
pressure (bar)	uptake (cm3(STP)/g)
0.504737	0.00797308
0.906904	0.0207516
1.51259	0.0303193
2.11787	0.041487
2.72396	0.0494547
3.32964	0.0590224
6.46306	0.0924553
9.59851	0.117888
12.736	0.135321
15.7729	0.149559
18.6075	0.162208
21.5448	0.170051
24.3806	0.1779
27.4192	0.185738
30.1537	0.193592
