Adsorption isotherm of Nitrogen on MIL-53(Cr)
DOI: 10.1021/Ja803899q
Adsorbate Nitrogen: InChIKey IJGRMHOSHXDMSA-UHFFFAOYSA-N
Temperature: 303 K
Tabular data in the source: 0
pressure (bar)	uptake (mmol/g)
0.783265	0.220668
1.30636	0.318657
2.7458	0.539002
4.5771	0.857401
6.41071	1.05299
10.8616	1.64028
18.5898	2.42245
21.9959	2.74007
25.0092	3.00877
27.4981	3.25316
30.1177	3.52205
34.0488	3.83941
37.0621	4.10811
39.5514	4.32794
42.5652	4.57207
45.1848	4.84096
