Adsorption isotherm of Ethane on MIL-53(Cr)
DOI: 10.1021/Ja803899q
Adsorbate Ethane: InChIKey OTMSDBZUPAUEDD-UHFFFAOYSA-N
Temperature: 303 K
Tabular data in the source: 0
pressure (bar)	uptake (cm3(STP)/g)
0.283788	0.0799849
0.476763	0.118375
0.57244	0.140769
0.770281	0.159959
1.07069	0.174343
1.27056	0.185532
1.47002	0.198322
1.77246	0.204705
1.97313	0.212695
2.37652	0.220673
2.67814	0.230257
3.28423	0.238225
5.30561	0.260517
7.42997	0.276404
9.55553	0.28749
11.6819	0.295377
13.6056	0.303274
15.7324	0.309561
17.7586	0.312653
19.7849	0.315745
21.8107	0.320437
23.7356	0.323534
25.5595	0.325037
27.3831	0.32814
29.3084	0.329637
