Adsorption isotherm of Argon on Carbon Nanotube
DOI: 10.1016/j.colsurfa.2011.02.016
Adsorbate Argon: InChIKey XKRFYHLGVUSROY-UHFFFAOYSA-N
Temperature: 87 K
Tabular data in the source: 0
pressure (bar)	uptake (kmol/m3)
1.01e-06	0.115866
2.89e-06	0.178479
9.91e-06	0.178479
0.000103	0.741996
0.000201	1.86903
0.000415	6.565
0.000608	8.50601
0.000807	9.13214
0.000988	9.57043
0.0020427	10.3844
0.00312094	10.8227
0.00422448	10.8853
0.00506601	11.1358
0.0102676	11.574
0.0311594	12.4506
0.0516101	13.3272
0.0742198	14.2038
0.104602	17.3344
0.138759	19.839
0.159816	20.7155
0.173254	21.2791
0.19556	22.093
0.220736	22.7192
0.234515	23.4705
0.270105	25.0985
0.275612	26.2255
0.281231	28.1665
0.286965	27.4151
0.286965	29.9197
0.298787	28.9805
0.304879	40.4386
0.317438	35.2418
0.317438	38.3724
0.32391	30.6084
0.337253	41.0648
0.365611	41.5657
0.906737	42.1292
0.963338	42.5675
