Adsorption isotherm of Argon on Carbon Nanotube
DOI: 10.1016/j.colsurfa.2011.02.016
Adsorbate Argon: InChIKey XKRFYHLGVUSROY-UHFFFAOYSA-N
Temperature: 72 K
Tabular data in the source: 0
pressure (bar)	uptake (kmol/m3)
1.52e-06	0.179211
3.03e-06	0.179211
5.03e-06	0.716846
7.01e-06	1.25448
1.02e-05	5.19713
3.08e-05	10.3943
5.01e-05	10.7527
6.98e-05	10.7527
8.91e-05	11.2903
0.000102	11.2903
0.000294	11.828
0.000500703	12.1864
0.000697815	12.5448
0.000994375	12.724
0.00197542	12.5448
0.00300829	12.724
0.00401162	12.724
0.00500507	13.0824
0.00993207	15.4122
0.0201039	22.9391
0.0298456	30.6452
0.0303949	39.4265
0.0387275	42.2939
0.0395849	42.8315
0.0442089	43.3692
0.0493719	43.9068
0.0602532	44.086
