Adsorption isotherm of Argon on Carbon Nanotube
DOI: 10.1016/j.colsurfa.2011.02.016
Adsorbate Argon: InChIKey XKRFYHLGVUSROY-UHFFFAOYSA-N
Temperature: 87 K
Tabular data in the source: 0
pressure (bar)	uptake (kmol/m3)
5.04e-05	0.722429
0.000101	1.49915
0.000201	4.3989
0.000301	8.69674
0.000401	10.4573
0.000503	11.1822
0.000602	11.7518
0.000694	12.1143
0.000801	12.425
0.000913	12.6321
0.00100489	12.7875
0.00200654	13.4606
0.00304567	14.082
0.00405469	14.1856
0.0050856	14.2373
0.0102766	14.7551
0.0307779	16.0497
0.0513923	17.4996
0.0717605	20.6064
0.102619	24.6454
0.107632	24.9043
0.11289	25.1632
0.119824	25.4739
0.12871	25.7328
0.131816	26.0952
0.141592	26.4577
0.148508	26.872
0.152092	27.4415
0.159522	28.0111
0.169321	28.4772
0.173407	29.6681
0.173407	41.526
0.177592	29.1503
0.179722	38.2638
0.190762	41.4743
0.195365	42.5099
0.20008	41.8367
0.303696	43.0795
0.311025	43.442
0.326217	44.1669
