Adsorption isotherm of Argon on Carbon Nanotube
DOI: 10.1016/j.colsurfa.2011.02.016
Adsorbate Argon: InChIKey XKRFYHLGVUSROY-UHFFFAOYSA-N
Temperature: 87 K
Tabular data in the source: 0
pressure (bar)	uptake (kmol/m3)
0.000101	0.515304
0.000201	1.24024
0.000305	2.27587
0.000396	4.19177
0.000503	5.74521
0.000602	6.83262
0.000694	7.35043
0.000801	7.55755
0.000892	7.7129
0.00101694	7.86824
0.00203061	8.90387
0.00300957	9.21455
0.00400663	9.31812
0.00496576	9.42168
0.0100345	9.93949
0.0304131	10.6126
0.0507832	11.1822
0.0700695	11.8554
0.100201	13.1499
0.110229	13.616
0.114244	14.2373
0.118404	14.6516
0.122716	14.9623
0.12871	15.3765
0.134998	15.8426
0.139914	16.3086
0.148508	16.6711
0.167314	17.1889
0.177592	17.862
0.190762	18.1727
0.20008	18.5352
0.311025	22.1081
0.31853	22.8848
0.371935	26.6648
0.390103	27.6487
0.399517	39.0923
0.404309	28.6325
0.439501	40.2833
0.531876	40.0244
0.613688	40.0762
0.733871	40.594
