Adsorption isotherm of Argon on Carbon Nanotube
DOI: 10.1016/j.colsurfa.2011.02.016
Adsorbate Argon: InChIKey XKRFYHLGVUSROY-UHFFFAOYSA-N
Temperature: 87 K
Tabular data in the source: 0
pressure (bar)	uptake (kmol/m3)
1.59e-06	0.172563
2.96e-06	0.16455
1e-05	0.14881
0.000102202	0.833052
0.000202922	1.89562
0.000402235	6.7082
0.000612054	8.66706
0.000816	9.19906
0.000911381	9.55477
0.00101808	9.55334
0.00202158	10.4373
0.00301086	10.7893
0.00410497	10.7853
0.0050098	10.9613
0.00994924	11.4882
0.0307617	12.3664
0.051167	13.2527
0.0712984	13.9627
0.101456	17.351
0.129301	19.6693
0.150905	20.7387
0.16853	21.273
0.196705	22.1639
0.21018	22.5202
0.229607	22.8762
0.256242	25.0176
0.291331	35.1945
0.291953	30.3731
0.29717	40.3728
0.297452	38.23
0.303751	40.9083
0.354587	41.442
0.387422	41.4408
0.483398	41.6165
0.60315	41.7922
0.736087	41.9682
0.898184	42.5014
