Adsorption isotherm of Argon on Carbon Nanotube
DOI: 10.1016/j.colsurfa.2011.02.016
Adsorbate Argon: InChIKey XKRFYHLGVUSROY-UHFFFAOYSA-N
Temperature: 99 K
Tabular data in the source: 0
pressure (bar)	uptake (kmol/m3)
0.000302503	0.179211
0.000503292	0.537634
0.00068612	0.716846
0.000819068	0.716846
0.000914892	0.896057
0.00102174	1.43369
0.00202768	3.58423
0.00301717	6.09319
0.00402124	7.34767
0.00512802	8.24373
0.010181	9.49821
0.0301093	10.7527
0.0500945	11.1111
0.0713773	11.4695
0.101713	11.6487
0.106309	11.828
0.108689	11.828
0.11361	11.828
0.124111	12.1864
0.135593	12.3656
0.154857	12.3656
0.172984	12.3656
0.197513	12.9032
0.300568	14.6953
0.409397	16.8459
0.510451	18.638
0.608785	20.7885
0.710501	21.8638
0.829212	22.9391
0.905279	24.7312
1.01029	26.8817
1.03258	27.5986
1.05235	34.767
1.07437	37.9928
1.0783	29.7491
1.09799	38.8889
1.22681	38.3513
1.28195	39.0681
1.46396	39.2473
1.70897	39.7849
1.86707	39.9642
2.13198	40.3226
2.48938	40.3226
2.84192	41.2186
3.10583	40.681
