Adsorption isotherm of Argon on MCM-41
DOI: 10.1016/j.colsurfa.2011.02.016
Adsorbate Argon: InChIKey XKRFYHLGVUSROY-UHFFFAOYSA-N
Temperature: 87 K
Tabular data in the source: 0
pressure (bar)	uptake (kmol/m3)
1.02e-06	0.187119
5.06e-06	0.152736
9.84e-06	0.152736
3.1e-05	0.221503
5.06e-05	0.187119
5.98e-05	0.152736
7.12e-05	0.118352
8.88e-05	0.187119
9.77e-05	0.118352
0.000207	0.187119
0.000298	0.152736
0.000406	0.255887
0.000495	0.221503
0.000594	0.29027
0.000702	0.324654
0.00079	0.29027
0.000869	0.29027
0.00103405	0.393421
0.00202677	0.806025
0.00289421	1.21863
0.00400408	1.97507
0.00511791	2.76589
0.0102723	6.9607
0.0299122	8.71427
0.0496482	9.0581
0.0720289	9.36756
0.0996506	9.74578
0.105329	9.78016
0.109582	9.78016
0.115827	9.95208
0.1234	10.124
0.132514	10.1928
0.143432	10.2959
0.156483	10.5022
0.16804	10.5366
0.18333	10.6054
0.204819	11.0524
0.299511	12.7715
0.30671	13.0466
0.324188	13.5624
0.33198	14.2157
0.350897	14.8346
0.370893	15.7285
0.404642	16.3818
0.407858	17.0351
0.44497	17.6196
0.44497	18.1354
0.466618	18.548
