Adsorption isotherm of Hydrogen on C72.5H79.5Cd3NaN14.5O15
DOI: 10.1039/C1dt10554j
Adsorbate Hydrogen: InChIKey UFHFLCQGNIYNRP-UHFFFAOYSA-N
Temperature: 77 K
Tabular data in the source: 0
pressure (bar)	uptake (cm3(STP)/g)
0.00412787	1.9766
0.00617406	3.55812
0.00816703	6.91931
0.00821434	5.33738
0.0122831	9.29139
0.0164109	11.268
0.0226205	13.6397
0.0309235	16.0109
0.0413023	18.975
0.0579439	22.5311
0.0787607	26.4818
0.093362	28.2586
0.10587	30.0358
0.124646	32.2073
0.141329	34.3792
0.166374	36.9449
0.195618	39.1144
0.226956	41.2834
0.264574	43.4512
0.308461	46.0132
0.360727	48.3759
0.421362	50.9347
0.490371	53.4919
0.571952	55.6511
0.668177	58.2029
0.779044	61.1474
0.908764	63.6927
