Adsorption isotherm of Nitrogen on C72.5H79.5Cd3NaN14.5O15
DOI: 10.1039/C1dt10554j
Adsorbate Nitrogen: InChIKey IJGRMHOSHXDMSA-UHFFFAOYSA-N
Temperature: 77 K
Tabular data in the source: 0
pressure (bar)	uptake (cm3(STP)/g)
0.00833262	1.38255
0.0250452	2.56573
0.0334074	2.95958
0.050114	4.3405
0.071049	4.33642
0.0814929	5.12534
0.0940421	5.51837
0.114953	6.30525
0.131684	6.89521
0.148408	7.6829
0.177699	8.27041
0.217452	9.05361
0.257211	9.63907
0.292783	10.2253
0.336723	11.0077
0.376482	11.5932
0.407873	11.9825
0.451824	12.3695
0.491583	12.9549
0.531342	13.5404
0.566937	13.3357
0.608796	13.723
0.646467	14.1111
0.665308	14.1075
0.70926	14.4944
0.728096	14.6884
0.751118	14.8817
0.774141	15.0749
0.786696	15.2702
