Adsorption isotherm of Carbon Dioxide on Zeolite 5A
DOI: 10.1007/s10450-019-00185-4
Article source: Figure S1c
Adsorbate Carbon Dioxide: InChIKey CURLTUGMZLYLDI-UHFFFAOYSA-N
Kind: experiment
Temperature: 272 K
Tabular data in the source: 0
pressure (bar)	uptake (mmol/g)
0.003611	2.16777
0.003605	2.19177
0.003595	2.23177
0.003589	2.25577
0.002852	2.28783
0.002836	2.35183
0.004257	2.51172
0.004236	2.59972
0.004206	2.71972
0.00562	2.91161
0.009201	3.19132
0.016436	3.45474
0.026576	3.78193
0.062973	4.18702
0.149747	4.54808
0.283283	4.7134
