Adsorption isotherm of Carbon Dioxide on Activated Carbon
DOI: 10.1007/s10450-019-00185-4
Article source: Figure S1a
Adsorbate Carbon Dioxide: InChIKey CURLTUGMZLYLDI-UHFFFAOYSA-N
Kind: experiment
Temperature: 212 K
Tabular data in the source: 0
pressure (bar)	uptake (mmol/g)
0.327481	0.132625
0.638637	0.796663
0.664104	1.83317
0.96677	2.15171
1.37686	2.84219
1.58125	3.16086
2.68123	3.93016
3.08087	4.19541
4.37544	4.88472
4.77247	5.04366
6.84477	5.38642
7.4377	5.51853
10.1992	5.91353
10.1992	5.91353
12.2702	6.20313
12.5664	6.2559
14.9303	6.46538
16.6999	6.4896
20.15	6.91027
24.1807	6.95807
27.6249	7.13954
34.6989	7.0504
