Adsorption isotherm of Carbon Dioxide on Zeolite 5A
DOI: 10.1007/s10450-019-00185-4
Article source: Figure S1b
Adsorbate Carbon Dioxide: InChIKey CURLTUGMZLYLDI-UHFFFAOYSA-N
Kind: experiment
Temperature: 228 K
Tabular data in the source: 0
pressure (bar)	uptake (mmol/g)
0.000276	1.16822
0.000286	1.49003
0.000352	1.89215
0.000801	2.48098
0.001412	3.05597
0.003863	3.88082
0.020226	4.81586
