Adsorption isotherm of N-propane on CuBTC
DOI: 10.1007/s10450-019-00185-4
Article source: Figure 6A
Adsorbate N-propane: InChIKey ATUOYWHBWRKTHZ-UHFFFAOYSA-N
Kind: experiment
Temperature: 348 K
Tabular data in the source: 0
pressure (bar)	uptake (mmol/g)
0.06263	0.051326
0.167015	0.572236
0.187891	1.01617
0.229645	1.32356
0.417537	1.7934
0.793319	2.10135
0.970772	2.2041
1.26305	2.28142
1.65971	2.36747
2.06681	2.42792
2.56785	2.49707
3.34029	2.58375
3.78914	2.60159
