Adsorption isotherm of Methane on Zeolite 5A
DOI: 10.1007/s10450-019-00185-4
Article source: Figure 3B
Adsorbate Methane: InChIKey VNWKTOKETHGBQD-UHFFFAOYSA-N
Kind: experiment
Temperature: 343 K
Tabular data in the source: 0
pressure (bar)	uptake (mmol/g)
0.159406	0.01157
0.238916	0.031405
0.298466	0.05124
0.417897	0.071074
0.716528	0.117355
0.895619	0.150413
1.05486	0.17686
1.27338	0.239669
1.67148	0.305785
2.04962	0.371901
3.00501	0.533884
4.0806	0.669421
4.99618	0.824793
6.01211	0.947107
6.86841	1.06612
7.96435	1.17851
8.92067	1.2843
9.99665	1.39669
