Adsorption isotherm of Nitrogen on Zeolite 5A
DOI: 10.1007/s10450-019-00185-4
Article source: Figure 3C
Adsorbate Nitrogen: InChIKey IJGRMHOSHXDMSA-UHFFFAOYSA-N
Kind: experiment
Temperature: 343 K
Tabular data in the source: 0
pressure (bar)	uptake (mmol/g)
0.076324	0.010032
0.152573	0.021856
0.304995	0.042537
0.609539	0.07203
0.863376	0.098585
1.04119	0.122219
1.19369	0.145867
1.37157	0.172468
1.60017	0.202006
2.08245	0.252165
2.56459	0.296389
2.99616	0.343611
3.93548	0.446911
5.00094	0.532332
5.99059	0.623733
7.03081	0.712136
7.91867	0.782826
8.832	0.859435
10.2013	0.944676
