Adsorption isotherm of Carbon Dioxide on Zeolite 5A
DOI: 10.1007/s10450-019-00185-4
Article source: Figure 3A
Adsorbate Carbon Dioxide: InChIKey CURLTUGMZLYLDI-UHFFFAOYSA-N
Kind: experiment
Temperature: 348 K
Tabular data in the source: 0
pressure (bar)	uptake (mmol/g)
0.016691	0.163327
0.01223	0.232408
0.016275	0.30989
0.018235	0.370184
0.020172	0.439099
0.02424	0.50796
0.030221	0.654357
0.036127	0.826618
0.050613	0.981415
0.075539	1.21353
0.117475	1.46245
0.170147	1.68522
0.241838	1.96785
0.356103	2.27524
0.495882	2.60783
0.668064	2.79303
