Adsorption isotherm of Isobutane on CuBTC
DOI: 10.1007/s10450-019-00185-4
Article source: Figure 6B
Adsorbate Isobutane: InChIKey NNPPMTNAJDCUHE-UHFFFAOYSA-N
Kind: experiment
Temperature: 348 K
Tabular data in the source: 0
pressure (bar)	uptake (mmol/g)
0.020367	0.032941
0.040733	0.601176
0.065173	1.13647
0.065173	1.63059
0.162933	1.90235
0.325866	2.00118
0.533605	2.05059
0.712831	2.07529
1.09165	2.11647
1.5275	2.14118
