Adsorption isotherm of Methane on Activated Carbon
DOI: 10.1007/s10450-019-00185-4
Article source: Figure 3D
Adsorbate Methane: InChIKey VNWKTOKETHGBQD-UHFFFAOYSA-N
Kind: experiment
Temperature: 212 K
Tabular data in the source: 0
pressure (bar)	uptake (mmol/g)
0.405948	1.13304
0.569415	1.64751
0.892465	2.58109
0.979246	2.96229
1.42927	3.51399
1.57953	3.70425
2.67701	4.40648
3.11538	4.67212
4.77975	5.29625
4.92458	5.35301
6.79182	5.70948
7.43928	5.86
7.37114	5.93652
9.87264	6.1193
10.232	6.19445
12.3765	6.3593
12.9496	6.43377
14.9547	6.67535
16.4509	6.6706
20.3805	6.92513
24.4487	7.08386
27.6581	7.14995
34.8551	7.14615
