Adsorption isotherm of Ethene on 50Cu
DOI: 10.3866/pku.whxb201510091
Article source: Figure 1
Adsorbate Ethene: InChIKey VGGSQFUCUMXWEO-UHFFFAOYSA-N
Kind: experiment
Temperature: 348 K
Tabular data in the source: 0
pressure (bar)	uptake (ml/g)
0.00538	0.1197
0.5569	13.8425
0.98587	18.7992
1.80274	23.7651
2.9573	27.8171
3.69081	30.0588
4.55365	31.7981
5.53912	32.4651
6.49407	33.0297
