Adsorption isotherm of Ethane on 5Ce
DOI: 10.3866/pku.whxb201510091
Article source: Figure 1
Adsorbate Ethane: InChIKey OTMSDBZUPAUEDD-UHFFFAOYSA-N
Kind: experiment
Temperature: 348 K
Tabular data in the source: 0
pressure (bar)	uptake (ml/g)
0.00573	0.0863
0.82934	24.5478
1.64699	36.7216
2.50833	44.894
3.35233	50.4155
4.32647	54.9469
5.27852	58.3185
6.2876	60.3537
