Adsorption isotherm of Ethene on 8Ce50Cu
DOI: 10.3866/pku.whxb201510091
Article source: Figure 1
Adsorbate Ethene: InChIKey VGGSQFUCUMXWEO-UHFFFAOYSA-N
Kind: experiment
Temperature: 348 K
Tabular data in the source: 0
pressure (bar)	uptake (ml/g)
0.01283	0.2683
0.50581	6.2486
1.00051	10.9739
1.88851	16.3055
2.89324	19.3786
3.75002	21.3616
4.65667	23.0309
5.54172	24.2781
6.56608	25.0695
