Adsorption isotherm of Ethene on 5Ce
DOI: 10.3866/pku.whxb201510091
Article source: Figure 1
Adsorbate Ethene: InChIKey VGGSQFUCUMXWEO-UHFFFAOYSA-N
Kind: experiment
Temperature: 348 K
Tabular data in the source: 0
pressure (bar)	uptake (ml/g)
0.0063	0.0913
0.8686	21.9193
1.64983	32.0252
2.55591	40.8708
3.39025	46.6742
4.2883	51.2112
5.33011	54.8132
6.29584	57.2163
