Adsorption isotherm of Ethene on 10Ce50Cu
DOI: 10.3866/pku.whxb201510091
Article source: Figure 1
Adsorbate Ethene: InChIKey VGGSQFUCUMXWEO-UHFFFAOYSA-N
Kind: experiment
Temperature: 348 K
Tabular data in the source: 0
pressure (bar)	uptake (ml/g)
0.00581	0.1091
0.60167	7.753
1.1209	12.1013
1.97388	16.1759
2.75192	18.622
3.82275	21.5018
4.61074	22.8196
5.49064	24.3391
6.51477	25.1088
