Adsorption isotherm of Ethane on 10Ce50Cu
DOI: 10.3866/pku.whxb201510091
Article source: Figure 1
Adsorbate Ethane: InChIKey OTMSDBZUPAUEDD-UHFFFAOYSA-N
Kind: experiment
Temperature: 348 K
Tabular data in the source: 0
pressure (bar)	uptake (ml/g)
0.00684	0.1205
0.6745	0.5766
1.20021	1.2381
2.1191	1.8227
3.0717	2.4189
3.95375	2.9574
4.7648	3.3741
5.84994	3.967
6.69953	4.1656
