Adsorption isotherm of Ethene on 2Ce50Cu
DOI: 10.3866/pku.whxb201510091
Article source: Figure 1
Adsorbate Ethene: InChIKey VGGSQFUCUMXWEO-UHFFFAOYSA-N
Kind: experiment
Temperature: 348 K
Tabular data in the source: 0
pressure (bar)	uptake (ml/g)
0.00608	0.0746
0.4585	10.8687
0.90254	15.9277
1.78389	22.1266
2.71836	25.9882
3.59409	28.1636
4.56345	30.0832
5.50278	31.326
6.61568	32.2379
