Adsorption isotherm of Ethene on 5Ce50Cu
DOI: 10.3866/pku.whxb201510091
Article source: Figure 1
Adsorbate Ethene: InChIKey VGGSQFUCUMXWEO-UHFFFAOYSA-N
Kind: experiment
Temperature: 348 K
Tabular data in the source: 0
pressure (bar)	uptake (ml/g)
0.00973	0.1085
0.55444	9.6442
0.9744	13.1561
2.81991	21.0685
3.79963	22.544
4.67547	23.7379
5.59366	24.8099
6.64926	25.1326
