Adsorption isotherm of Ethane on 50Cu
DOI: 10.3866/pku.whxb201510091
Article source: Figure 1
Adsorbate Ethane: InChIKey OTMSDBZUPAUEDD-UHFFFAOYSA-N
Kind: experiment
Temperature: 348 K
Tabular data in the source: 0
pressure (bar)	uptake (ml/g)
0.00631	0.0819
0.5591	1.06
0.99492	1.9731
1.85156	3.3544
2.98139	5.311
3.89776	6.4085
4.71575	6.7508
5.82755	7.4428
6.71463	7.5658
