Adsorption isotherm of Ethane on 2Ce50Cu
DOI: 10.3866/pku.whxb201510091
Article source: Figure 1
Adsorbate Ethane: InChIKey OTMSDBZUPAUEDD-UHFFFAOYSA-N
Kind: experiment
Temperature: 348 K
Tabular data in the source: 0
pressure (bar)	uptake (ml/g)
0.00641	0.0801
0.52196	0.7949
0.95836	2.1258
2.58757	5.4735
3.6963	6.7084
4.621	7.4111
5.66181	8.2426
6.55888	8.8004
