Adsorption isotherm of Ethane on 8Ce50Cu
DOI: 10.3866/pku.whxb201510091
Article source: Figure 1
Adsorbate Ethane: InChIKey OTMSDBZUPAUEDD-UHFFFAOYSA-N
Kind: experiment
Temperature: 348 K
Tabular data in the source: 0
pressure (bar)	uptake (ml/g)
0.01393	0.1317
0.58004	0.2949
1.06392	0.6456
2.85615	2.0516
3.65813	2.716
4.64792	3.103
5.64625	3.2901
6.72096	3.8958
