Adsorption isotherm of Ethane on 5Ce50Cu
DOI: 10.3866/pku.whxb201510091
Article source: Figure 1
Adsorbate Ethane: InChIKey OTMSDBZUPAUEDD-UHFFFAOYSA-N
Kind: experiment
Temperature: 348 K
Tabular data in the source: 0
pressure (bar)	uptake (ml/g)
0.00809	0.0915
0.67544	0.3878
0.95092	0.5898
2.92115	2.0686
3.75737	2.3247
4.91949	2.6419
5.97913	2.8211
6.86846	2.8047
