Adsorption isotherm of Carbon Dioxide, Water on 28 wt% N carbon
DOI: 10.1021/acs.iecr.6b05064
Article source: Figure 6
Adsorbate Carbon Dioxide: InChIKey CURLTUGMZLYLDI-UHFFFAOYSA-N
Adsorbate Water: InChIKey XLYOFNOQVPJJNP-UHFFFAOYSA-N
Kind: experiment
Temperature: 298 K
Tabular data in the source: 0
pressure (bar)	Carbon Dioxide fraction	Carbon Dioxide uptake (mmol/g)	Water fraction	Water uptake (mmol/g)	total uptake (mmol/g)
0.00971	1	0.0954			0.01
0.02054	1	0.1884			0.01
0.04179	1	0.3213			0.01
0.05969	1	0.4875			0.01
0.08051	1	0.5846			0.01
0.0998	1	0.6395			0.01
0.14943	1	0.8376			0.01
0.20217	1	1.0207			0.01
0.25271	1	1.1656			0.01
0.3015	1	1.2524			0.01
0.35161	1	1.3528			0.01
0.4026	1	1.4419			0.01
0.45119	1	1.5863			0.01
0.49927	1	1.6326			0.01
0.55069	1	1.719			0.01
0.59988	1	1.7752			0.01
0.64846	1	1.9497			0.01
0.6999	1	1.982			0.01
0.74911	1	2.0002			0.01
0.79938	1	2.1426			0.01
0.84854	1	2.253			0.01
0.89891	1	2.1751			0.01
0.94752	1	2.2975			0.01
0.99781	1	2.3918			0.01
