Adsorption isotherm of Carbon Dioxide, Water on 28 wt% N carbon
DOI: 10.1021/acs.iecr.6b05064
Article source: Figure 6
Adsorbate Carbon Dioxide: InChIKey CURLTUGMZLYLDI-UHFFFAOYSA-N
Adsorbate Water: InChIKey XLYOFNOQVPJJNP-UHFFFAOYSA-N
Kind: experiment
Temperature: 333 K
Tabular data in the source: 0
pressure (bar)	Carbon Dioxide fraction	Carbon Dioxide uptake (mmol/g)	Water fraction	Water uptake (mmol/g)	total uptake (mmol/g)
0.01966	1	0.1688			0.01
0.0405	1	0.3036			0.01
0.05957	1	0.451			0.01
0.079	1	0.5606			0.01
0.09984	1	0.6425			0.01
0.14964	1	0.8441			0.01
0.2005	1	0.96			0.01
0.25031	1	1.0507			0.01
0.30188	1	1.1326			0.01
0.35027	1	1.2422			0.01
0.40077	1	1.1465			0.01
0.45058	1	0.6942			0.01
0.49861	1	0.9059			0.01
0.55018	1	0.8592			0.01
0.60034	1	0.9046			0.01
0.6505	1	0.9046			0.01
0.70065	1	0.9708			0.01
0.75205	1	0.8922			0.01
0.80056	1	0.7573			0.01
0.85129	1	0.7565			0.01
0.90046	1	0.8208			0.01
0.94861	1	0.3792			0.01
0.99947	1	0.4057			0.01
