Adsorption isotherm of Carbon Dioxide, Water on 7.22 wt% N carbon
DOI: 10.1021/acs.iecr.6b05064
Article source: Figure 6
Adsorbate Carbon Dioxide: InChIKey CURLTUGMZLYLDI-UHFFFAOYSA-N
Adsorbate Water: InChIKey XLYOFNOQVPJJNP-UHFFFAOYSA-N
Kind: experiment
Temperature: 333 K
Tabular data in the source: 0
pressure (bar)	Carbon Dioxide fraction	Carbon Dioxide uptake (mmol/g)	Water fraction	Water uptake (mmol/g)	total uptake (mmol/g)
0.04113	1	0.1381			0.1
0.0616	1	0.1461			0.1
0.08051	1	0.2104			0.1
0.10032	1	0.2334			0.1
0.15127	1	0.2382			0.1
0.20067	1	0.2755			0.1
0.25096	1	0.2667			0.1
0.30035	1	0.3144			0.1
0.34975	1	0.3437			0.1
0.40093	1	0.3795			0.1
0.45164	1	0.285			0.1
0.50042	1	0.312			0.1
0.55032	1	0.27			0.1
0.60106	1	0.169			0.1
0.6504	1	0.228			0.1
0.69946	1	0.232			0.1
0.7502	1	0.186			0.1
0.80095	1	0.203			0.1
0.85057	1	0.156			0.1
0.90047	1	0.1701			0.1
0.94942	1	0.2199			0.1
1.00082	1	0.1985			0.1
