Adsorption isotherm of Carbon Dioxide, Water on 28 wt% N carbon
DOI: 10.1021/acs.iecr.6b05064
Article source: Figure 6
Adsorbate Carbon Dioxide: InChIKey CURLTUGMZLYLDI-UHFFFAOYSA-N
Adsorbate Water: InChIKey XLYOFNOQVPJJNP-UHFFFAOYSA-N
Kind: experiment
Temperature: 333 K
Tabular data in the source: 0
pressure (bar)	Carbon Dioxide fraction	Carbon Dioxide uptake (mmol/g)	Water fraction	Water uptake (mmol/g)	total uptake (mmol/g)
0.02019	1	0.1946			0.01
0.04103	1	0.3565			0.01
0.06151	1	0.4586			0.01
0.079	1	0.599			0.01
0.09966	1	0.6935			0.01
0.15017	1	0.8731			0.01
0.20015	1	1.011			0.01
0.2494	1	1.1565			0.01
0.30058	1	1.2692			0.01
0.34864	1	1.3406			0.01
0.39937	1	1.4502			0.01
0.45099	1	1.5549			0.01
0.49995	1	1.6613			0.01
0.55023	1	1.72			0.01
0.59963	1	1.8391			0.01
0.6517	1	1.8804			0.01
0.70065	1	1.8978			0.01
0.7496	1	2.0232			0.01
0.79989	1	2.0947			0.01
0.85006	1	2.2004			0.01
0.89986	1	2.2427			0.01
0.94878	1	2.3302			0.01
1.00106	1	2.397			0.01
