Adsorption isotherm of Carbon Dioxide, Water on 14.4 wt% N carbon
DOI: 10.1021/acs.iecr.6b05064
Article source: Figure 6
Adsorbate Carbon Dioxide: InChIKey CURLTUGMZLYLDI-UHFFFAOYSA-N
Adsorbate Water: InChIKey XLYOFNOQVPJJNP-UHFFFAOYSA-N
Kind: experiment
Temperature: 333 K
Tabular data in the source: 0
pressure (bar)	Carbon Dioxide fraction	Carbon Dioxide uptake (mmol/g)	Water fraction	Water uptake (mmol/g)	total uptake (mmol/g)
0.06063	1	0.2904			0.01
0.10143	1	0.4771			0.01
0.15038	1	0.6025			0.01
0.20178	1	0.7334			0.01
0.25073	1	0.8596			0.01
0.30147	1	0.9708			0.01
0.34997	1	1.0454			0.01
0.40115	1	1.1216			0.01
0.45055	1	1.2152			0.01
0.50039	1	1.2851			0.01
0.5489	1	1.3168			0.01
0.60008	1	1.3978			0.01
0.65081	1	1.4581			0.01
0.70043	1	1.501			0.01
0.75005	1	1.5597			0.01
0.80033	1	1.6454			0.01
0.85084	1	1.6573			0.01
0.90002	1	1.7526			0.01
0.95075	1	1.7939			0.01
1.00015	1	1.8439			0.01
