Adsorption isotherm of Carbon Dioxide, Water on pyrrolic nitrogen  functionalized carbon
DOI: 10.1021/acs.iecr.6b05064
Article source: Figure 5
Adsorbate Carbon Dioxide: InChIKey CURLTUGMZLYLDI-UHFFFAOYSA-N
Adsorbate Water: InChIKey XLYOFNOQVPJJNP-UHFFFAOYSA-N
Kind: experiment
Temperature: 333 K
Tabular data in the source: 0
pressure (bar)	Carbon Dioxide fraction	Carbon Dioxide uptake (mmol/g)	Water fraction	Water uptake (mmol/g)	total uptake (mmol/g)
0.020281	1	0.11825			0.1
0.040435	1	0.1596			0.1
0.059234	1	0.22355			0.1
0.079842	1	0.27523			0.1
0.10023	1	0.36308			0.1
0.149818	1	0.4445			0.1
0.199636	1	0.54788			0.1
0.249447	1	0.61638			0.1
0.300391	1	0.68876			0.1
0.349746	1	0.73531			0.1
0.399789	1	0.829			0.1
0.450273	1	0.86457			0.1
0.499268	1	0.92619			0.1
0.550296	1	0.94982			0.1
0.599532	1	0.99395			0.1
0.650565	1	1.04423			0.1
0.70088	1	1.09759			0.1
0.747966	1	1.17862			0.1
0.798989	1	1.17048			0.1
0.850742	1	1.23204			0.1
0.900699	1	1.28847			0.1
0.949574	1	1.32645			0.1
1.00072	1	1.75695			0.1
