Adsorption isotherm of Carbon Dioxide, Water on pyrrolic nitrogen functionalized carbon
DOI: 10.1021/acs.iecr.6b05064
Article source: Figure 3
Adsorbate Carbon Dioxide: InChIKey CURLTUGMZLYLDI-UHFFFAOYSA-N
Adsorbate Water: InChIKey XLYOFNOQVPJJNP-UHFFFAOYSA-N
Kind: experiment
Temperature: 298 K
Tabular data in the source: 0
pressure (bar)	Carbon Dioxide fraction	Carbon Dioxide uptake (mmol/g)	Water fraction	Water uptake (mmol/g)	total uptake (mmol/g)
0.059457	1	0.40097			
0.079774	1	0.4141			
0.098546	1	0.45696			
0.149694	1	0.55476			
0.199829	1	0.77259			
0.249076	1	0.82745			
0.299669	1	0.95816			
0.349426	1	1.07507			
0.400271	1	1.16052			
0.449209	1	1.27918			
0.49977	1	1.29645			
0.55007	1	1.39064			
0.600351	1	1.3747			
0.649835	1	1.48812			
0.700404	1	1.56132			
0.750417	1	1.5751			
0.801244	1	1.55566			
0.850984	1	1.57119			
0.900457	1	1.62342			
0.950742	1	1.62933			
1.00118	1	1.74449			
