Adsorption isotherm of Carbon Dioxide, Water on 7.22 wt% N carbon
DOI: 10.1021/acs.iecr.6b05064
Article source: Figure 6
Adsorbate Carbon Dioxide: InChIKey CURLTUGMZLYLDI-UHFFFAOYSA-N
Adsorbate Water: InChIKey XLYOFNOQVPJJNP-UHFFFAOYSA-N
Kind: experiment
Temperature: 298 K
Tabular data in the source: 0
pressure (bar)	Carbon Dioxide fraction	Carbon Dioxide uptake (mmol/g)	Water fraction	Water uptake (mmol/g)	total uptake (mmol/g)
0.00583	1	0.0189			0.01
0.0097	1	0.0435			0.01
0.01321	1	0.0725			0.01
0.02111	1	0.1186			0.01
0.03974	1	0.2247			0.01
0.06119	1	0.3081			0.01
0.08125	1	0.3763			0.01
0.09973	1	0.4123			0.01
0.14975	1	0.6055			0.01
0.20232	1	0.6876			0.01
0.25243	1	0.7888			0.01
0.30166	1	0.8812			0.01
0.35164	1	0.9549			0.01
0.40195	1	1.0222			0.01
0.45141	1	1.0976			0.01
0.50116	1	1.1488			0.01
0.55008	1	1.1881			0.01
0.60011	1	1.2524			0.01
0.6514	1	1.3509			0.01
0.70105	1	1.4167			0.01
0.75	1	1.4712			0.01
0.80006	1	1.3957			0.01
0.84968	1	1.5359			0.01
0.89932	1	1.6106			0.01
0.95038	1	1.6739			0.01
0.99764	1	1.5757			0.01
