Adsorption isotherm of Carbon Dioxide, Water on pyridonic nitrogen functionalized carbon
DOI: 10.1021/acs.iecr.6b05064
Article source: Figure 5
Adsorbate Carbon Dioxide: InChIKey CURLTUGMZLYLDI-UHFFFAOYSA-N
Adsorbate Water: InChIKey XLYOFNOQVPJJNP-UHFFFAOYSA-N
Kind: experiment
Temperature: 333 K
Tabular data in the source: 0
pressure (bar)	Carbon Dioxide fraction	Carbon Dioxide uptake (mmol/g)	Water fraction	Water uptake (mmol/g)	total uptake (mmol/g)
0	1	0.03879			0.1
0.000579	1	0.07044			0.1
0.002849	1	0.10467			0.1
0.010565	1	0.2151			0.1
0.020094	1	0.33458			0.1
0.040478	1	0.40241			0.1
0.059055	1	0.48896			0.1
0.08057	1	0.54582			0.1
0.100292	1	0.70405			0.1
0.150118	1	0.85263			0.1
0.199933	1	0.94116			0.1
0.250205	1	1.05616			0.1
0.299851	1	1.13433			0.1
0.348923	1	1.23608			0.1
0.399984	1	1.29309			0.1
0.450184	1	1.32487			0.1
0.500968	1	1.43314			0.1
0.550018	1	1.41285			0.1
0.600506	1	1.45765			0.1
0.650139	1	1.50977			0.1
0.699488	1	1.56108			0.1
0.749977	1	1.61565			0.1
0.800455	1	1.60756			0.1
0.851225	1	1.63609			0.1
0.899993	1	1.63126			0.1
0.950195	1	1.67443			0.1
1.00007	1	1.95133			0.1
