Adsorption isotherm of Carbon Dioxide, Water on pyridonic nitrogen functionalized carbon
DOI: 10.1021/acs.iecr.6b05064
Article source: Figure 3
Adsorbate Carbon Dioxide: InChIKey CURLTUGMZLYLDI-UHFFFAOYSA-N
Adsorbate Water: InChIKey XLYOFNOQVPJJNP-UHFFFAOYSA-N
Kind: experiment
Temperature: 298 K
Tabular data in the source: 0
pressure (bar)	Carbon Dioxide fraction	Carbon Dioxide uptake (mmol/g)	Water fraction	Water uptake (mmol/g)	total uptake (mmol/g)
0.019316	1	0.23815			
0.039999	1	0.37572			
0.060329	1	0.46593			
0.079799	1	0.56056			
0.099781	1	0.62765			
0.149907	1	0.78822			
0.199163	1	0.90144			
0.249627	1	1.02787			
0.298954	1	1.17531			
0.349714	1	1.20008			
0.399838	1	1.31225			
0.449944	1	1.31621			
0.49941	1	1.38398			
0.549759	1	1.54194			
0.599658	1	1.60556			
0.64998	1	1.60951			
0.700106	1	1.72862			
0.75022	1	1.7853			
0.799913	1	1.90858			
0.850236	1	1.9153			
0.900983	1	1.8707			
0.951338	1	2.06195			
1.00099	1	1.94936			
