Adsorption isotherm of Carbon Dioxide, Water on pyridonic nitrogen functionalized carbon
DOI: 10.1021/acs.iecr.6b05064
Article source: Figure 5
Adsorbate Carbon Dioxide: InChIKey CURLTUGMZLYLDI-UHFFFAOYSA-N
Adsorbate Water: InChIKey XLYOFNOQVPJJNP-UHFFFAOYSA-N
Kind: experiment
Temperature: 333 K
Tabular data in the source: 0
pressure (bar)	Carbon Dioxide fraction	Carbon Dioxide uptake (mmol/g)	Water fraction	Water uptake (mmol/g)	total uptake (mmol/g)
0.01933	1	0.16744			
0.039872	1	0.2114			
0.079663	1	0.24683			
0.09963	1	0.26638			
0.148542	1	0.2705			
0.199306	1	0.26607			
0.249213	1	0.25392			
0.299692	1	0.24746			
0.349308	1	0.20439			
0.400075	1	0.21339			
0.449699	1	0.21345			
0.499274	1	0.19881			
0.549977	1	0.19241			
0.599778	1	0.19763			
0.650931	1	0.17443			
0.69937	1	0.16156			
0.750077	1	0.17711			
0.799421	1	0.16167			
0.849671	1	0.15268			
0.899055	1	0.14136			
0.94972	1	0.14065			
0.999307	1	0.14249			
