Adsorption isotherm of Carbon Dioxide, Water on 14.4 wt% N carbon
DOI: 10.1021/acs.iecr.6b05064
Article source: Figure 6
Adsorbate Carbon Dioxide: InChIKey CURLTUGMZLYLDI-UHFFFAOYSA-N
Adsorbate Water: InChIKey XLYOFNOQVPJJNP-UHFFFAOYSA-N
Kind: experiment
Temperature: 333 K
Tabular data in the source: 0
pressure (bar)	Carbon Dioxide fraction	Carbon Dioxide uptake (mmol/g)	Water fraction	Water uptake (mmol/g)	total uptake (mmol/g)
0.04046	1	0.1953			0.1
0.0814	1	0.2135			0.1
0.10143	1	0.2572			0.1
0.15038	1	0.3048			0.1
0.1998	1	0.3553			0.1
0.24995	1	0.2897			0.1
0.30082	1	0.325			0.1
0.34956	1	0.3729			0.1
0.40042	1	0.3956			0.1
0.45058	1	0.4132			0.1
0.50003	1	0.4409			0.1
0.55018	1	0.3477			0.1
0.60175	1	0.1839			0.1
0.6505	1	0.3477			0.1
0.69924	1	0.2721			0.1
0.7494	1	0.378			0.1
0.80026	1	0.1991			0.1
0.85112	1	0.2318			0.1
0.90057	1	0.1965			0.1
0.95002	1	0.2192			0.1
0.99912	1	0.2104			0.1
