Adsorption isotherm of Carbon Dioxide, Water on 7.22 wt% N carbon
DOI: 10.1021/acs.iecr.6b05064
Article source: Figure 6
Adsorbate Carbon Dioxide: InChIKey CURLTUGMZLYLDI-UHFFFAOYSA-N
Adsorbate Water: InChIKey XLYOFNOQVPJJNP-UHFFFAOYSA-N
Kind: experiment
Temperature: 298 K
Tabular data in the source: 0
pressure (bar)	Carbon Dioxide fraction	Carbon Dioxide uptake (mmol/g)	Water fraction	Water uptake (mmol/g)	total uptake (mmol/g)
0.04055	1	0.1178			0.1
0.0592	1	0.1043			0.1
0.08095	1	0.1044			0.1
0.10029	1	0.0401			0.1
0.15066	1	0.0538			0.1
0.2026	1	0.0564			0.1
0.25186	1	0.0741			0.1
0.30226	1	0.0552			0.1
0.3522	1	0.0459			0.1
0.40103	1	0.0397			0.1
0.45031	1	0.0367			0.1
0.50269	1	0.0385			0.1
0.55107	1	0.0324			0.1
0.60079	1	0.0389			0.1
0.65095	1	0.0344			0.1
0.70111	1	0.0346			0.1
0.75082	1	0.0507			0.1
0.80143	1	0.0397			0.1
0.85116	1	0.0193			0.1
0.90086	1	0.0513			0.1
0.95015	1	0.0197			0.1
0.99943	1	0.0151			0.1
