Adsorption isotherm of Carbon Dioxide, Water on 14.4 wt% N carbon
DOI: 10.1021/acs.iecr.6b05064
Article source: Figure 6
Adsorbate Carbon Dioxide: InChIKey CURLTUGMZLYLDI-UHFFFAOYSA-N
Adsorbate Water: InChIKey XLYOFNOQVPJJNP-UHFFFAOYSA-N
Kind: experiment
Temperature: 298 K
Tabular data in the source: 0
pressure (bar)	Carbon Dioxide fraction	Carbon Dioxide uptake (mmol/g)	Water fraction	Water uptake (mmol/g)	total uptake (mmol/g)
0.06051	1	0.1409			0.1
0.08337	1	0.1466			0.1
0.10243	1	0.2174			0.1
0.14945	1	0.2971			0.1
0.20358	1	0.3513			0.1
0.25198	1	0.3015			0.1
0.30258	1	0.3311			0.1
0.3525	1	0.3559			0.1
0.40132	1	0.3815			0.1
0.45369	1	0.4104			0.1
0.49987	1	0.3915			0.1
0.55139	1	0.3122			0.1
0.65083	1	0.2967			0.1
0.70103	1	0.2174			0.1
0.75159	1	0.3194			0.1
0.80095	1	0.1367			0.1
0.85021	1	0.1655			0.1
0.89994	1	0.1371			0.1
0.94965	1	0.1373			0.1
0.99981	1	0.1423			0.1
