Adsorption isotherm of Carbon Dioxide, Water on quaternary nitrogen functionalized carbon
DOI: 10.1021/acs.iecr.6b05064
Article source: Figure 3
Adsorbate Carbon Dioxide: InChIKey CURLTUGMZLYLDI-UHFFFAOYSA-N
Adsorbate Water: InChIKey XLYOFNOQVPJJNP-UHFFFAOYSA-N
Kind: experiment
Temperature: 298 K
Tabular data in the source: 0
pressure (bar)	Carbon Dioxide fraction	Carbon Dioxide uptake (mmol/g)	Water fraction	Water uptake (mmol/g)	total uptake (mmol/g)
0.018945	1	0.22596			
0.037589	1	0.19655			
0.058636	1	0.21707			
0.077496	1	0.18071			
0.100035	1	0.11932			
0.147101	1	0.11032			
0.198296	1	0.12069			
0.248393	1	0.09222			
0.298932	1	0.08872			
0.348915	1	0.09964			
0.398503	1	0.11435			
0.449108	1	0.08278			
0.500248	1	0.06445			
0.548615	1	0.07255			
0.598882	1	0.06081			
0.650186	1	0.06008			
0.69892	1	0.03363			
0.747564	1	0.02944			
0.79976	1	0.0217			
0.849768	1	0.007			
0.898968	1	0.03077			
0.95007	1	0.0213			
0.999807	1	0.01534			
