Adsorption isotherm of Carbon Dioxide, Water on 14.4 wt% N carbon
DOI: 10.1021/acs.iecr.6b05064
Article source: Figure 6
Adsorbate Carbon Dioxide: InChIKey CURLTUGMZLYLDI-UHFFFAOYSA-N
Adsorbate Water: InChIKey XLYOFNOQVPJJNP-UHFFFAOYSA-N
Kind: experiment
Temperature: 298 K
Tabular data in the source: 0
pressure (bar)	Carbon Dioxide fraction	Carbon Dioxide uptake (mmol/g)	Water fraction	Water uptake (mmol/g)	total uptake (mmol/g)
0.04095	1	0.202			
0.062	1	0.2904			
0.08172	1	0.3636			
0.10032	1	0.4718			
0.1504	1	0.6461			
0.2021	1	0.7636			
0.2517	1	0.924			
0.3019	1	0.9444			
0.35159	1	1.0651			
0.40219	1	1.1034			
0.45219	1	1.2258			
0.50055	1	1.261			
0.55114	1	1.3303			
0.60119	1	1.3436			
0.65119	1	1.468			
0.70122	1	1.5252			
0.74985	1	1.5855			
0.80018	1	1.5998			
0.85046	1	1.7161			
0.89912	1	1.7143			
0.95054	1	1.7987			
0.99915	1	1.905			
