Adsorption isotherm of Carbon Dioxide, Water on oxidized pyridinic nitrogen functionalized carbon
DOI: 10.1021/acs.iecr.6b05064
Article source: Figure 3
Adsorbate Carbon Dioxide: InChIKey CURLTUGMZLYLDI-UHFFFAOYSA-N
Adsorbate Water: InChIKey XLYOFNOQVPJJNP-UHFFFAOYSA-N
Kind: experiment
Temperature: 298 K
Tabular data in the source: 0
pressure (bar)	Carbon Dioxide fraction	Carbon Dioxide uptake (mmol/g)	Water fraction	Water uptake (mmol/g)	total uptake (mmol/g)
0.018785	1	0.33152			
0.058494	1	0.42015			
0.079753	1	0.43671			
0.100367	1	0.48241			
0.149404	1	0.57656			
0.198897	1	0.80389			
0.249011	1	0.85502			
0.298921	1	0.98523			
0.349699	1	1.11267			
0.39982	1	1.20403			
0.449511	1	1.32314			
0.50027	1	1.34236			
0.549525	1	1.44621			
0.600495	1	1.43074			
0.649752	1	1.54708			
0.700519	1	1.61208			
0.750192	1	1.62158			
0.800945	1	1.61027			
0.851053	1	1.6281			
0.900734	1	1.682			
0.951057	1	1.69012			
1.00075	1	1.80784			
