Adsorption isotherm of Carbon Dioxide, Water on 28.0 wt% N carbon
DOI: 10.1021/acs.iecr.6b05064
Article source: Figure 6
Adsorbate Carbon Dioxide: InChIKey CURLTUGMZLYLDI-UHFFFAOYSA-N
Adsorbate Water: InChIKey XLYOFNOQVPJJNP-UHFFFAOYSA-N
Kind: experiment
Temperature: 298 K
Tabular data in the source: 0
pressure (bar)	Carbon Dioxide fraction	Carbon Dioxide uptake (mmol/g)	Water fraction	Water uptake (mmol/g)	total uptake (mmol/g)
0.00369	1	0.1383			0.1
0.00632	1	0.2146			0.1
0.00763	1	0.2639			0.1
0.00849	1	0.3211			0.1
0.01904	1	0.5581			0.1
0.0404	1	0.4421			0.1
0.05899	1	0.5567			0.1
0.07995	1	0.3453			0.1
0.09994	1	0.312			0.1
0.14876	1	0.3328			0.1
0.2021	1	0.1772			0.1
0.25299	1	0.1893			0.1
0.30192	1	0.2166			0.1
0.35283	1	0.1817			0.1
0.40262	1	0.1438			0.1
0.45211	1	0.1641			0.1
0.50079	1	0.1042			0.1
0.55113	1	0.1094			0.1
0.60202	1	0.1056			0.1
0.65266	1	0.0597			0.1
0.70244	1	0.0359			0.1
0.75139	1	0.026			0.1
0.80368	1	0.0223			0.1
0.85094	1	0.0194			0.1
0.89959	1	0.0507			0.1
0.95133	1	0.0268			0.1
0.99775	1	0.018			0.1
