Adsorption isotherm of Carbon Dioxide, Water on 7.22 wt% N carbon
DOI: 10.1021/acs.iecr.6b05064
Article source: Figure 6
Adsorbate Carbon Dioxide: InChIKey CURLTUGMZLYLDI-UHFFFAOYSA-N
Adsorbate Water: InChIKey XLYOFNOQVPJJNP-UHFFFAOYSA-N
Kind: experiment
Temperature: 333 K
Tabular data in the source: 0
pressure (bar)	Carbon Dioxide fraction	Carbon Dioxide uptake (mmol/g)	Water fraction	Water uptake (mmol/g)	total uptake (mmol/g)
0.00306	1	0.0088			0.01
0.00553	1	0.0327			0.01
0.008	1	0.0623			0.01
0.01118	1	0.0951			0.01
0.02089	1	0.119			0.01
0.04014	1	0.2293			0.01
0.06187	1	0.3313			0.01
0.07882	1	0.3918			0.01
0.09913	1	0.451			0.01
0.1507	1	0.5764			0.01
0.1998	1	0.6917			0.01
0.24942	1	0.7906			0.01
0.29923	1	0.8668			0.01
0.34956	1	0.9644			0.01
0.39971	1	1.0331			0.01
0.45075	1	1.0627			0.01
0.50038	1	1.1818			0.01
0.54948	1	1.2549			0.01
0.59999	1	1.2964			0.01
0.64979	1	1.3204			0.01
0.69959	1	1.425			0.01
0.74975	1	1.4804			0.01
0.7999	1	1.5232			0.01
0.85041	1	1.5724			0.01
0.89951	1	1.5875			0.01
0.95179	1	1.4968			0.01
0.99982	1	1.5787			0.01
