Adsorption isotherm of Carbon Dioxide, Water on oxidized pyridinic nitrogen functionalized carbon
DOI: 10.1021/acs.iecr.6b05064
Article source: Figure 3
Adsorbate Carbon Dioxide: InChIKey CURLTUGMZLYLDI-UHFFFAOYSA-N
Adsorbate Water: InChIKey XLYOFNOQVPJJNP-UHFFFAOYSA-N
Kind: experiment
Temperature: 298 K
Tabular data in the source: 0
pressure (bar)	Carbon Dioxide fraction	Carbon Dioxide uptake (mmol/g)	Water fraction	Water uptake (mmol/g)	total uptake (mmol/g)
0.005325	1	0.23894			
0.017401	1	0.31258			
0.037548	1	0.32551			
0.058524	1	0.24149			
0.078649	1	0.18502			
0.09896	1	0.17371			
0.146972	1	0.10913			
0.198124	1	0.16899			
0.248712	1	0.08454			
0.298633	1	0.0651			
0.34822	1	0.07761			
0.399165	1	0.03282			
0.44944	1	0.04312			
0.499713	1	0.04901			
0.548258	1	0.0351			
0.599907	1	0.03436			
0.648803	1	0.04247			
0.699419	1	0.04395			
0.749686	1	0.03002			
0.800299	1	0.02048			
0.848847	1	0.01538			
0.899814	1	0.03889			
0.951808	1	0.04035			
1.00036	1	0.04186			
