Adsorption isotherm of Carbon Dioxide, Water on pyridonic nitrogen functionalized carbon
DOI: 10.1021/acs.iecr.6b05064
Article source: Figure 3
Adsorbate Carbon Dioxide: InChIKey CURLTUGMZLYLDI-UHFFFAOYSA-N
Adsorbate Water: InChIKey XLYOFNOQVPJJNP-UHFFFAOYSA-N
Kind: experiment
Temperature: 298 K
Tabular data in the source: 0
pressure (bar)	Carbon Dioxide fraction	Carbon Dioxide uptake (mmol/g)	Water fraction	Water uptake (mmol/g)	total uptake (mmol/g)
0.018751	1	0.23104			
0.03783	1	0.13383			
0.058845	1	0.16988			
0.078135	1	0.19274			
0.098276	1	0.18694			
0.148553	1	0.20385			
0.198484	1	0.21635			
0.247728	1	0.23327			
0.298623	1	0.25794			
0.347793	1	0.19079			
0.399161	1	0.15683			
0.450538	1	0.1526			
0.498632	1	0.13617			
0.547007	1	0.14422			
0.598106	1	0.126			
0.650848	1	0.11651			
0.698405	1	0.13157			
0.750323	1	0.10809			
0.799528	1	0.14761			
0.850351	1	0.12065			
0.89982	1	0.13218			
0.95038	1	0.13496			
0.999875	1	0.14431			
