Adsorption isotherm of Carbon Dioxide, Water on pyrrolic nitrogen functionalized carbon
DOI: 10.1021/acs.iecr.6b05064
Article source: Figure 3
Adsorbate Carbon Dioxide: InChIKey CURLTUGMZLYLDI-UHFFFAOYSA-N
Adsorbate Water: InChIKey XLYOFNOQVPJJNP-UHFFFAOYSA-N
Kind: experiment
Temperature: 298 K
Tabular data in the source: 0
pressure (bar)	Carbon Dioxide fraction	Carbon Dioxide uptake (mmol/g)	Water fraction	Water uptake (mmol/g)	total uptake (mmol/g)
0.039365	1	0.31866			
0.058487	1	0.42526			
0.079123	1	0.51518			
0.098463	1	0.62316			
0.148836	1	0.77372			
0.198114	1	0.89654			
0.248912	1	1.02073			
0.298044	1	0.69387			
0.34871	1	0.4898			
0.449012	1	0.50235			
0.499029	1	0.51738			
0.548988	1	0.35403			
0.599002	1	0.36031			
0.649528	1	0.15483			
0.699474	1	0.2114			
0.749722	1	0.14017			
0.799319	1	0.18353			
0.849924	1	0.15196			
0.899162	1	0.14906			
0.950132	1	0.18137			
1	1	0.14116			
