Adsorption isotherm of Carbon Dioxide, Water on quaternary nitrogen functionalized carbon
DOI: 10.1021/acs.iecr.6b05064
Article source: Figure 5
Adsorbate Carbon Dioxide: InChIKey CURLTUGMZLYLDI-UHFFFAOYSA-N
Adsorbate Water: InChIKey XLYOFNOQVPJJNP-UHFFFAOYSA-N
Kind: experiment
Temperature: 333 K
Tabular data in the source: 0
pressure (bar)	Carbon Dioxide fraction	Carbon Dioxide uptake (mmol/g)	Water fraction	Water uptake (mmol/g)	total uptake (mmol/g)
0.018175	1	0.08852			
0.039578	1	0.16014			
0.081808	1	0.28141			
0.099785	1	0.33513			
0.148001	1	0.43119			
0.201632	1	0.51424			
0.250399	1	0.50208			
0.299747	1	0.55583			
0.351937	1	0.54612			
0.397562	1	0.51362			
0.449472	1	0.53646			
0.499097	1	0.53976			
0.550436	1	0.56097			
0.601767	1	0.53661			
0.651383	1	0.49273			
0.698722	1	0.4765			
0.748919	1	0.4912			
0.800259	1	0.51404			
0.849284	1	0.35461			
0.900044	1	0.32537			
0.950244	1	0.35797			
0.999337	1	0.31163			
