Adsorption isotherm of Carbon Dioxide, Water on pyrrolic nitrogen functionalized carbon
DOI: 10.1021/acs.iecr.6b05064
Article source: Figure 5
Adsorbate Carbon Dioxide: InChIKey CURLTUGMZLYLDI-UHFFFAOYSA-N
Adsorbate Water: InChIKey XLYOFNOQVPJJNP-UHFFFAOYSA-N
Kind: experiment
Temperature: 333 K
Tabular data in the source: 0
pressure (bar)	Carbon Dioxide fraction	Carbon Dioxide uptake (mmol/g)	Water fraction	Water uptake (mmol/g)	total uptake (mmol/g)
0.019364	1	0.05044			
0.038615	1	0.10922			
0.060126	1	0.14864			
0.080056	1	0.20355			
0.099528	1	0.23328			
0.149347	1	0.34246			
0.19984	1	0.42453			
0.249882	1	0.51564			
0.300858	1	0.57745			
0.349379	1	0.64516			
0.399337	1	0.71081			
0.450009	1	0.75085			
0.500325	1	0.81138			
0.549202	1	0.85653			
0.599516	1	0.90682			
0.65019	1	0.95607			
0.699425	1	0.99918			
0.749589	1	1.04447			
0.799222	1	1.09009			
0.849704	1	1.10316			
0.899908	1	1.15691			
0.949822	1	1.18625			
0.999455	1	1.23512			
