Adsorption isotherm of Carbon Dioxide, Water on pyridinic nitrogen functionalized carbon
DOI: 10.1021/acs.iecr.6b05064
Article source: Figure 5
Adsorbate Carbon Dioxide: InChIKey CURLTUGMZLYLDI-UHFFFAOYSA-N
Adsorbate Water: InChIKey XLYOFNOQVPJJNP-UHFFFAOYSA-N
Kind: experiment
Temperature: 333 K
Tabular data in the source: 0
pressure (bar)	Carbon Dioxide fraction	Carbon Dioxide uptake (mmol/g)	Water fraction	Water uptake (mmol/g)	total uptake (mmol/g)
5.7e-05	1	0.0466			0.1
0.000633	1	0.07548			0.1
0.007777	1	0.15441			0.1
0.010071	1	0.22072			0.1
0.02036	1	0.34441			0.1
0.040335	1	0.40911			0.1
0.059888	1	0.50189			0.1
0.079006	1	0.55764			0.1
0.099301	1	0.71102			0.1
0.149814	1	0.86433			0.1
0.199777	1	0.96023			0.1
0.250642	1	1.07458			0.1
0.299796	1	1.15501			0.1
0.350066	1	1.2571			0.1
0.399651	1	1.32237			0.1
0.449681	1	1.35019			0.1
0.50018	1	1.4639			0.1
0.549297	1	1.44329			0.1
0.650725	1	1.54607			0.1
0.700759	1	1.59714			0.1
0.74989	1	1.6566			0.1
0.800594	1	1.65084			0.1
0.850172	1	1.6806			0.1
0.900649	1	1.67096			0.1
0.95023	1	1.71686			0.1
0.999707	1	1.81314			0.1
