Adsorption isotherm of Carbon Dioxide, Water on quaternary nitrogen functionalized carbon
DOI: 10.1021/acs.iecr.6b05064
Article source: Figure 3
Adsorbate Carbon Dioxide: InChIKey CURLTUGMZLYLDI-UHFFFAOYSA-N
Adsorbate Water: InChIKey XLYOFNOQVPJJNP-UHFFFAOYSA-N
Kind: experiment
Temperature: 298 K
Tabular data in the source: 0
pressure (bar)	Carbon Dioxide fraction	Carbon Dioxide uptake (mmol/g)	Water fraction	Water uptake (mmol/g)	total uptake (mmol/g)
0.019435	1	0.26883			
0.079084	1	0.69075			
0.0996	1	0.80603			
0.149257	1	1.01397			
0.198347	1	1.15693			
0.249145	1	1.22609			
0.299967	1	1.43291			
0.348708	1	1.54944			
0.399509	1	1.63512			
0.448938	1	1.74944			
0.500602	1	1.85164			
0.549811	1	1.84302			
0.599724	1	1.98433			
0.650065	1	2.09789			
0.700366	1	1.98114			
0.750718	1	2.15297			
0.800174	1	2.16387			
0.850952	1	2.29408			
0.900849	1	2.34659			
0.950757	1	2.46293			
1.00107	1	2.40445			
