Adsorption isotherm of Carbon Dioxide, Water on oxidized pyridinic nitrogen functionalized carbon
DOI: 10.1021/acs.iecr.6b05064
Article source: Figure 5
Adsorbate Carbon Dioxide: InChIKey CURLTUGMZLYLDI-UHFFFAOYSA-N
Adsorbate Water: InChIKey XLYOFNOQVPJJNP-UHFFFAOYSA-N
Kind: experiment
Temperature: 333 K
Tabular data in the source: 0
pressure (bar)	Carbon Dioxide fraction	Carbon Dioxide uptake (mmol/g)	Water fraction	Water uptake (mmol/g)	total uptake (mmol/g)
0.019902	1	0.1768			
0.03973	1	0.21384			
0.059236	1	0.23646			
0.079724	1	0.24908			
0.099987	1	0.26815			
0.149889	1	0.28001			
0.20145	1	0.2693			
0.249418	1	0.25961			
0.300082	1	0.25454			
0.34984	1	0.20692			
0.400131	1	0.21421			
0.449931	1	0.21685			
0.500632	1	0.20011			
0.549526	1	0.19757			
0.599325	1	0.19763			
0.650025	1	0.17185			
0.69937	1	0.16286			
0.750529	1	0.17453			
0.799873	1	0.15908			
0.850123	1	0.15009			
0.899017	1	0.14627			
0.950174	1	0.14374			
0.999746	1	0.14121			
