Adsorption isotherm of Carbon Dioxide on [Zn2(bdc)2(bphy)]
DOI: 10.1039/C1dt10682a
Adsorbate Carbon Dioxide: InChIKey CURLTUGMZLYLDI-UHFFFAOYSA-N
Temperature: 195 K
Tabular data in the source: 0
pressure (bar)	uptake (cm3(STP)/g)
0.0202911	12.6518
0.0355095	18.2748
0.0507278	23.8978
0.0684826	30.2236
0.0837009	35.8466
0.0989193	43.5783
0.101456	45.6869
0.124283	63.2588
0.134429	77.3163
0.136965	88.5623
0.139502	97.6997
0.142038	104.728
0.147111	111.054
0.152183	118.083
0.167402	141.278
0.180084	155.335
0.197839	161.661
0.205448	163.067
0.240957	176.422
0.256176	179.936
0.304367	184.153
0.360168	186.262
0.410895	187.668
0.46416	189.073
0.514887	190.479
0.563079	190.479
0.61888	190.479
0.67468	191.885
0.720335	191.885
0.771063	191.182
0.824327	192.588
0.875055	192.588
0.925783	192.588
0.98412	192.588
1.01202	193.994
