Adsorption isotherm of Methane on [Zn2(bdc)2(bphy)]
DOI: 10.1039/C1dt10682a
Adsorbate Methane: InChIKey VNWKTOKETHGBQD-UHFFFAOYSA-N
Temperature: 298 K
Tabular data in the source: 0
pressure (bar)	uptake (cm3(STP)/g)
0.762712	1.77211
1.30751	1.17086
2.83293	2.33884
4.35835	1.72464
6.10169	4.07787
7.51816	4.05917
9.15254	4.63165
10.7869	5.20413
13.0751	4.57987
15.4722	5.14228
17.8692	6.89282
20.0484	7.45811
22.4455	8.02052
24.7337	7.39626
27.1308	8.55273
29.4189	6.14629
31.707	6.71014
33.9952	7.86805
36.3923	7.83641
38.5714	7.80764
40.7506	5.99669
