Adsorption isotherm of Carbon Dioxide on [Zn(bdc)(bphy)]
DOI: 10.1039/C1dt10682a
Adsorbate Carbon Dioxide: InChIKey CURLTUGMZLYLDI-UHFFFAOYSA-N
Temperature: 195 K
Tabular data in the source: 0
pressure (bar)	uptake (cm3(STP)/g)
0.0152183	5.623
0.0329731	7.73163
0.0507278	9.13738
0.0684826	11.246
0.0938465	12.6518
0.116674	13.3546
0.152183	14.0575
0.175011	14.7604
0.21052	16.1661
0.256176	16.869
0.314513	18.2748
0.362704	18.9776
0.410895	18.2748
0.46416	18.2748
0.517424	18.2748
0.558006	22.492
0.616343	22.492
0.664535	23.1949
0.715262	23.1949
0.773599	23.8978
0.819254	23.8978
0.875055	23.1949
0.923246	24.6006
0.976511	25.3035
