Adsorption isotherm of Carbon Dioxide on [Zn2(bdc)2(bphy)]
DOI: 10.1039/C1dt10682a
Adsorbate Carbon Dioxide: InChIKey CURLTUGMZLYLDI-UHFFFAOYSA-N
Temperature: 298 K
Tabular data in the source: 0
pressure (bar)	uptake (cm3(STP)/g)
0.217918	2.37336
1.30751	5.32927
2.94189	8.87205
4.46731	13.0103
5.77482	16.5574
7.30024	21.2898
8.93462	26.0207
10.569	30.1575
11.2228	34.3073
12.0944	37.8601
12.7482	42.604
14.8184	48.5172
15.5811	54.4478
16.2349	59.1916
17.2155	67.4955
17.9782	71.6439
18.7409	75.7922
19.5036	80.5346
19.8305	85.8768
20.3753	91.2162
20.8111	96.5569
21.247	101.898
21.6828	109.615
23.862	116.715
25.0605	122.639
26.1501	128.566
28.4383	132.694
30.5085	135.637
31.4891	138
32.4697	140.363
33.4504	142.727
35.1937	146.862
37.155	152.183
40.3148	159.864
