Adsorption isotherm of Nitrogen on HAT-COF
DOI: 10.1021/acsmacrolett.5b00804
Article source: Figure 2
Adsorbate Nitrogen: InChIKey IJGRMHOSHXDMSA-UHFFFAOYSA-N
Kind: experiment
Temperature: 77 K
Tabular data in the source: 0
pressure (bar)	uptake (cm3(STP)/g)
0.142354	162.022
0.19351	166.749
0.221144	169.111
0.2632	172.264
0.294035	174.682
0.339203	177.84
0.358204	179.035
0.406639	183.036
0.433862	186.113
0.478399	197.423
0.512258	203.246
0.540613	205.819
0.583935	207.521
0.620417	211.232
0.656899	217.875
0.683792	224.002
0.726939	233.079
0.753423	240.569
0.798499	254.435
0.827273	267.229
0.868732	290.179
0.900979	315.605
0.930395	345.427
0.975709	416.326
1.00271	457.767
1.00199	460.177
0.990733	395.28
0.97272	353.982
0.953581	317.847
0.937819	294.985
0.924309	276.549
0.898415	262.537
0.863514	240.413
0.828613	227.876
0.792587	216.814
0.010414	109.022
0.00516	104.535
0.002158	91.8142
0.003096	98.267
0.001595	86.2832
0.001595	80.0147
0.001126	72.6401
0.000938	64.528
0.000469	56.7847
9.4e-05	48.3038
0.000188	41.4823
0.000281	34.292
9.4e-05	27.2861
9.4e-05	21.3864
0.000469	7.0059
0.000469	14.0118
0.047285	126.844
0.09457	136.431
0.120464	140.118
0.157617	145.28
0.195895	148.968
0.22967	151.917
0.263445	155.605
0.300598	158.555
0.33775	160.767
0.367022	164.454
0.407552	167.404
0.441327	169.617
0.476227	173.304
0.51338	176.991
0.549407	179.204
0.582056	183.628
0.618082	187.316
0.652983	192.478
0.690136	196.165
0.725037	202.802
0.759937	209.44
