Adsorption isotherm of Malachite green, Water on White cedar sawdust
DOI: 10.2174/1573411012666160601170153
Article source: Figure 7
Adsorbate Malachite green: InChIKey FDZZZRQASAIRJF-UHFFFAOYSA-M
Adsorbate Water: InChIKey XLYOFNOQVPJJNP-UHFFFAOYSA-N
Kind: experiment
Temperature: 298 K
Tabular data in the source: 0
pressure (bar)	Malachite green fraction	Malachite green uptake (mg/g)	Water fraction	Water uptake (mg/g)	total uptake (mg/g)
1.01325	4.0933	8.499			
1.01325	5.0714	10.168			
1.01325	7.6484	19.998			
1.01325	8.6455	26.921			
1.01325	15.9354	67.051			
