Adsorption isotherm of Nitrogen on Cu2-Framework
DOI: 10.1002/chem.201503163
Article source: Figure 2a
Adsorbate Nitrogen: InChIKey IJGRMHOSHXDMSA-UHFFFAOYSA-N
Kind: experiment
Temperature: 77 K
Tabular data in the source: 0
pressure (bar)	uptake (cm3(STP)/g)
0	0
0	325.68
0.005143	532.931
0.020574	551.964
0.036004	562.538
0.064293	579.456
0.110583	596.375
0.1363	602.719
0.162017	606.949
0.187734	609.063
0.246883	613.293
0.293174	615.408
0.349752	615.408
0.398614	617.523
0.444904	617.523
0.504053	619.637
0.601778	623.867
0.663498	621.752
0.70979	623.867
0.80237	625.982
0.910382	625.982
0.956672	628.097
0.987533	628.097
1.02096	628.097
