Adsorption isotherm of Methane on Cu2-Framework
DOI: 10.1002/chem.201503163
Article source: Figure 3d
Adsorbate Methane: InChIKey VNWKTOKETHGBQD-UHFFFAOYSA-N
Kind: experiment
Temperature: 273 K
Tabular data in the source: 0
pressure (bar)	uptake (cm3(STP)/g)
0	0
0.024301	1.71975
0.066806	3.43949
0.124499	6.30573
0.173082	8.59873
0.21863	10.8917
0.315795	15.4777
0.403838	18.9172
0.491882	22.3567
0.576881	25.2229
0.664906	27.5159
0.759017	30.9554
0.844017	33.8217
0.87741	34.9682
0.901682	34.9682
0.94722	36.6879
0.998827	38.4076
1.03222	39.5541
