Adsorption isotherm of Carbon Dioxide on Cu2-Framework
DOI: 10.1002/chem.201503163
Article source: Figure 3b
Adsorbate Carbon Dioxide: InChIKey CURLTUGMZLYLDI-UHFFFAOYSA-N
Kind: experiment
Temperature: 273 K
Tabular data in the source: 0
pressure (bar)	uptake (cm3(STP)/g)
0.362539	4.94708
0.906346	10.9919
1.72206	18.1331
2.80967	26.9209
3.62539	33.5117
3.8973	36.259
4.62235	40.65
5.43807	45.5899
6.34443	52.7296
7.34138	58.7673
8.33838	65.9055
9.24473	70.844
9.96978	74.1344
10.1511	77.4334
10.7855	77.9737
12.0544	86.2083
13.7764	93.8854
15.7704	102.659
17.5831	109.784
19.3051	116.911
20.574	123.495
21.2085	124.035
22.1148	129.524
22.8399	130.062
24.0181	134.446
24.5619	135.538
25.6495	139.924
26.284	141.564
27.3716	145.95
28.0061	145.94
29.003	150.326
30.7251	155.252
32.4471	158.526
33.2629	161.265
34.3505	163.449
