Adsorption isotherm of Carbon Dioxide on Cu2-Framework
DOI: 10.1002/chem.201503163
Article source: Figure 3d
Adsorbate Carbon Dioxide: InChIKey CURLTUGMZLYLDI-UHFFFAOYSA-N
Kind: experiment
Temperature: 273 K
Tabular data in the source: 0
pressure (bar)	uptake (cm3(STP)/g)
0.003027	0.001392
0.015046	5.18264
0.030092	10.3653
0.057216	17.2787
0.084329	24.7672
0.111424	33.4059
0.141574	40.3207
0.171743	46.0854
0.189797	52.4196
0.223002	57.6106
0.241075	62.7946
0.271244	68.5593
0.29538	73.171
0.331612	78.3634
0.370823	86.4326
0.42213	95.0824
0.476483	102.583
0.524793	109.507
0.5761	118.156
0.627466	123.356
0.687863	131.435
0.733184	136.056
0.787557	142.407
0.835896	147.605
0.890297	152.231
0.944689	157.431
0.996064	162.056
1.03235	164.373
