Adsorption isotherm of Carbon Dioxide on Cu2-Framework
DOI: 10.1002/chem.201503163
Article source: Figure 3b
Adsorbate Carbon Dioxide: InChIKey CURLTUGMZLYLDI-UHFFFAOYSA-N
Kind: experiment
Temperature: 298 K
Tabular data in the source: 0
pressure (bar)	uptake (cm3(STP)/g)
0	0
1.33934	3.85282
2.8461	9.36035
4.01803	11.5585
5.52479	12.0975
5.6922	14.8564
7.19899	17.0516
7.36641	20.3624
8.87313	20.9015
10.7147	25.8541
11.8867	26.9481
13.7282	32.4528
15.235	33.5439
16.7418	38.4994
18.7508	39.0341
20.0901	43.439
21.9318	44.5273
22.9362	48.383
24.9452	50.5739
26.1172	53.8761
28.1262	56.067
29.2981	59.9213
31.3071	61.5601
32.8139	64.3074
34.4881	65.9491
35.66	69.2513
37.669	70.8902
38.8409	73.6404
40.6825	75.8327
43.8634	79.6697
47.2118	84.6093
50.3928	87.8942
53.4063	92.8367
56.5872	96.1216
58.4288	98.866
61.4423	102.152
63.4513	103.791
