Adsorption isotherm of Carbon Dioxide on Cu2-Framework
DOI: 10.1002/chem.201503163
Article source: Figure 3a
Adsorbate Carbon Dioxide: InChIKey CURLTUGMZLYLDI-UHFFFAOYSA-N
Kind: experiment
Temperature: 298 K
Tabular data in the source: 0
pressure (bar)	uptake (cm3(STP)/g)
0	0
0.715179	12.5305
1.55231	23.5013
1.90951	30.2877
2.74624	41.7797
3.34616	47.0102
4.30524	56.4213
4.78438	61.648
5.62505	67.9283
6.34692	71.5991
7.78869	81.5465
9.11126	89.4054
9.95193	95.6858
11.52	98.3407
12.1211	102.008
13.5672	106.222
14.409	110.939
15.9771	113.594
16.4586	115.694
18.2678	118.877
18.7485	122.019
20.8	124.168
23.8153	129.474
25.2622	132.647
26.711	133.213
29.0037	135.891
29.7271	137.477
32.5037	139.127
36.3664	141.854
39.7463	144.044
43.489	145.725
