Adsorption isotherm of Carbon Dioxide on sH2O
DOI: 10.1016/j.jcis.2015.01.027
Article source: Figure 4
Adsorbate Carbon Dioxide: InChIKey CURLTUGMZLYLDI-UHFFFAOYSA-N
Kind: experiment
Temperature: 298 K
Tabular data in the source: 0
pressure (bar)	uptake (mmol/g)
0	0
0.51625	1.52062
0.645621	1.8299
0.818903	2.06186
1.55852	2.31959
1.99212	2.80928
2.03715	2.47423
3.02989	4.63918
3.03832	2.70619
3.98491	5.46392
4.03971	2.8866
5.04009	3.29897
5.46324	6.18557
5.98747	5.87629
8.03068	6.95876
9.94621	7.34536
11.9928	7.65464
15.9562	8.04124
19.964	8.2732
