Adsorption isotherm of Carbon Dioxide on sDMF120
DOI: 10.1016/j.jcis.2015.01.027
Article source: Figure 4
Adsorbate Carbon Dioxide: InChIKey CURLTUGMZLYLDI-UHFFFAOYSA-N
Kind: experiment
Temperature: 298 K
Tabular data in the source: 0
pressure (bar)	uptake (mmol/g)
0	0
0.262582	0.538462
0.525164	1.05128
1.00656	2.05128
1.96937	3.5641
2.97593	4.61538
4.02626	5.38462
5.03282	5.94872
5.99562	6.41026
8.00875	7.10256
9.97812	7.69231
11.9912	8.15385
15.9737	8.76923
20	9.25641
