Adsorption isotherm of Methane on sH2O
DOI: 10.1016/j.jcis.2015.01.027
Article source: Figure 4
Adsorbate Methane: InChIKey VNWKTOKETHGBQD-UHFFFAOYSA-N
Kind: experiment
Temperature: 298 K
Tabular data in the source: 0
pressure (bar)	uptake (mmol/g)
0	0
0.523808	0.309953
0.959976	0.645567
1.96428	1.16233
2.96881	1.62754
3.93025	1.93805
4.97877	2.35178
5.98431	2.58503
7.9513	3.1288
9.96272	3.51799
11.887	3.82975
15.9108	4.37617
19.979	4.79379
