Adsorption isotherm of Methane on sDMF220
DOI: 10.1016/j.jcis.2015.01.027
Article source: Figure 4
Adsorbate Methane: InChIKey VNWKTOKETHGBQD-UHFFFAOYSA-N
Kind: experiment
Temperature: 298 K
Tabular data in the source: 0
pressure (bar)	uptake (mmol/g)
0	0
0.524017	0.28066
1.00437	0.586951
2.0524	1.04597
2.96943	1.454
3.9738	1.75962
4.97817	2.09082
5.98253	2.34529
8.03493	2.80302
10	3.13299
12.0524	3.43727
15.9389	3.91824
20	4.2711
