Adsorption isotherm of Carbon Dioxide on sDMF220
DOI: 10.1016/j.jcis.2015.01.027
Article source: Figure 4
Adsorbate Carbon Dioxide: InChIKey CURLTUGMZLYLDI-UHFFFAOYSA-N
Kind: experiment
Temperature: 298 K
Tabular data in the source: 0
pressure (bar)	uptake (mmol/g)
0	0
0.305677	1.02564
0.524017	1.69231
1.00437	2.66667
2.00873	4.10256
3.0131	5.07692
3.9738	5.74359
5.02183	6.25641
5.45852	6.48718
5.98253	6.74359
6.9869	7.4359
7.99127	8
9.95633	8.51282
12.0087	8.87179
15.9825	9.38462
19.9563	9.74359
