Adsorption isotherm of N-Octane on MCM-41
DOI: 10.1016/j.micromeso.2011.04.003
Adsorbate N-Octane: InChIKey TVMXDCGIABBOFY-UHFFFAOYSA-N
Temperature: 333 K
Tabular data in the source: 0
pressure (bar)	uptake (wt%)
0.00755637	5.29875
0.033871	6.8433
0.0453121	7.24374
0.0796356	8.04462
0.128833	8.61668
0.168876	8.73109
0.212353	9.07433
0.337061	9.818
0.443464	10.3329
0.548723	11.2481
0.612793	12.2206
0.656269	12.6783
