Adsorption isotherm of N-Octane on MCM-41
DOI: 10.1016/j.micromeso.2011.04.003
Adsorbate N-Octane: InChIKey TVMXDCGIABBOFY-UHFFFAOYSA-N
Temperature: 333 K
Tabular data in the source: 0
pressure (bar)	uptake (wt%)
0.0132769	2.72449
0.0281504	5.06993
0.0487445	9.818
0.0567533	11.8202
0.0647621	13.8796
0.0796356	18.2272
0.0887885	24.5199
0.102518	27.895
0.121968	30.7553
0.175741	31.785
0.223794	32.4143
0.28672	32.8147
0.361088	33.2723
0.460626	33.8444
0.596775	35.1029
0.655125	35.7894
0.707754	36.4187
