Adsorption isotherm of N-Octane on MCM-41
DOI: 10.1016/j.micromeso.2011.04.003
Adsorbate N-Octane: InChIKey TVMXDCGIABBOFY-UHFFFAOYSA-N
Temperature: 333 K
Tabular data in the source: 0
pressure (bar)	uptake (wt%)
0.0132769	3.06773
0.0647621	10.1612
0.0784915	12.2206
0.0887885	13.4792
0.103662	14.1656
0.134553	14.7949
0.175741	15.4242
0.226082	15.8246
0.289009	16.3967
0.366808	16.9687
0.460626	17.6552
0.578469	18.8565
0.656269	19.6002
0.696313	19.6002
