Adsorption isotherm of N-Octane on MCM-41
DOI: 10.1016/j.micromeso.2011.04.003
Adsorbate N-Octane: InChIKey TVMXDCGIABBOFY-UHFFFAOYSA-N
Temperature: 333 K
Tabular data in the source: 0
pressure (bar)	uptake (wt%)
0.00900189	5.02863
0.0270301	6.76102
0.0428047	8.28215
0.0563258	9.63426
0.0811146	11.1554
0.10703	12.93
0.139706	13.4793
0.178016	14.0709
0.241115	14.5779
0.309847	15.1695
0.389847	15.8033
0.493509	16.5638
0.616326	18.2962
0.664777	18.254
0.719988	18.423
