Adsorption isotherm of Isooctane on MCM-41
DOI: 10.1016/j.micromeso.2011.04.003
Adsorbate Isooctane: InChIKey NHTMVDHEPJAVLT-UHFFFAOYSA-N
Temperature: 333 K
Tabular data in the source: 0
pressure (bar)	uptake (wt%)
0.0112554	2.70468
0.0213963	4.85961
0.0405512	7.39482
0.0675934	10.5216
0.11041	13.3103
0.172382	14.2399
0.203931	14.5779
0.247875	14.9582
0.273791	15.1272
0.401115	15.761
0.490129	16.2681
0.589284	16.7751
0.638861	17.1131
0.681678	17.5779
