Adsorption isotherm of N-Octane on MCM-41
DOI: 10.1016/j.micromeso.2011.04.003
Adsorbate N-Octane: InChIKey TVMXDCGIABBOFY-UHFFFAOYSA-N
Temperature: 333 K
Tabular data in the source: 0
pressure (bar)	uptake (wt%)
0.0495653	9.35272
0.0675934	13.6344
0.0833681	18.1415
0.0946357	24.6203
0.108157	28.0006
0.121678	30.8175
0.135199	31.4936
0.178016	31.8879
0.227593	32.564
0.288438	33.24
0.362805	33.5217
0.459706	34.0851
0.600551	35.3809
0.656889	36.0006
0.70872	36.733
