Adsorption isotherm of Isooctane on MCM-41
DOI: 10.1016/j.micromeso.2011.04.003
Adsorbate Isooctane: InChIKey NHTMVDHEPJAVLT-UHFFFAOYSA-N
Temperature: 333 K
Tabular data in the source: 0
pressure (bar)	uptake (wt%)
0.00224133	0.338638
0.0202695	4.50765
0.0428047	8.90202
0.0597061	11.4936
0.0721005	15.1555
0.0923822	20.733
0.122805	27.8316
0.146467	30.2541
0.184777	30.9865
0.2321	31.6062
0.285058	32.1696
0.349284	32.4513
0.428157	32.7893
0.514917	33.2964
0.597171	33.8034
0.664777	34.1978
0.70872	34.5358
