Adsorption isotherm of N-Octane on MCM-41
DOI: 10.1016/j.micromeso.2011.04.003
Adsorbate N-Octane: InChIKey TVMXDCGIABBOFY-UHFFFAOYSA-N
Temperature: 333 K
Tabular data in the source: 0
pressure (bar)	uptake (wt%)
0.591092	0.138604
1.3094	0.17804
1.77419	0.191561
3.1263	0.20959
5.11222	0.221984
6.42208	0.227618
8.19673	0.235505
12.7601	0.255787
16.6897	0.271562
20.6615	0.29635
22.901	0.316632
24.6756	0.3279
