Adsorption isotherm of N-Octane on MCM-41
DOI: 10.1016/j.micromeso.2011.04.003
Adsorbate N-Octane: InChIKey TVMXDCGIABBOFY-UHFFFAOYSA-N
Temperature: 333 K
Tabular data in the source: 0
pressure (bar)	uptake (wt%)
0.046185	8.15539
0.0574526	9.12722
0.0642132	10.8174
0.0766075	12.3807
0.0878751	13.6906
0.119424	14.7892
0.135199	15.254
0.175762	15.6343
0.226467	16.099
0.289565	16.6483
0.367312	17.1976
0.463086	18.0005
0.578016	19.2258
0.656889	19.9019
0.698579	20.0286
