Adsorption isotherm of Isooctane on MCM-41
DOI: 10.1016/j.micromeso.2011.04.003
Adsorbate Isooctane: InChIKey NHTMVDHEPJAVLT-UHFFFAOYSA-N
Temperature: 333 K
Tabular data in the source: 0
pressure (bar)	uptake (wt%)
0.253064	0.00339248
1.05588	0.108181
1.77419	0.13297
2.74602	0.146491
4.39391	0.163392
6.97137	0.179167
10.2671	0.183674
15.5066	0.196069
19.0136	0.203956
23.4925	0.20959
25.2671	0.21635
26.915	0.227618
