Adsorption isotherm of N-Octane on MCM-41
DOI: 10.1016/j.micromeso.2011.04.003
Adsorbate N-Octane: InChIKey TVMXDCGIABBOFY-UHFFFAOYSA-N
Temperature: 333 K
Tabular data in the source: 0
pressure (bar)	uptake (wt%)
0.0430239	7.8158
0.0567533	9.18874
0.0773474	10.9049
0.107094	12.5639
0.137985	13.3075
0.182606	13.8224
0.239812	14.3945
0.310747	15.0237
0.391979	15.5958
0.492661	16.5111
0.612793	17.8268
0.664278	18.17
0.718051	18.2272
