Adsorption isotherm of N-Octane on MCM-41
DOI: 10.1016/j.micromeso.2011.04.003
Adsorbate N-Octane: InChIKey TVMXDCGIABBOFY-UHFFFAOYSA-N
Temperature: 333 K
Tabular data in the source: 0
pressure (bar)	uptake (wt%)
0.0098446	0.779497
0.0407357	0.893909
0.101374	0.951114
0.124256	1.00832
0.1643	0.951114
0.207776	0.951114
0.281	1.06553
0.34507	1.17994
0.44804	1.29435
0.593343	1.63758
0.633387	1.8092
0.675719	2.15243
