Adsorption isotherm of Isooctane on MCM-41
DOI: 10.1016/j.micromeso.2011.04.003
Adsorbate Isooctane: InChIKey NHTMVDHEPJAVLT-UHFFFAOYSA-N
Temperature: 333 K
Tabular data in the source: 0
pressure (bar)	uptake (wt%)
0.00224133	0.63426
0.0247765	4.98637
0.0416779	6.67651
0.078861	8.74694
0.113791	11.1554
0.176889	12.3807
0.208439	12.6343
0.276044	13.099
0.415762	14.0286
0.509284	14.3244
0.607312	14.8737
0.652382	15.3807
0.698579	15.761
