Adsorption isotherm of Benzene on Zeolite MFI
DOI: 10.1021/acs.jpcc.7b07796
Article source: Figure 2
Adsorbate Benzene: InChIKey UHOVQNZJYSORNB-UHFFFAOYSA-N
Kind: experiment
Temperature: 373 K
Tabular data in the source: 0
pressure (bar)	uptake (mmol/g)
0.001372	0.17943
0.00274	0.26445
0.004078	0.35841
0.006775	0.44502
0.012691	0.54501
0.028203	0.63344
0.041002	0.65915
0.0545	0.67882
0.085526	0.69901
