Adsorption isotherm of Carbon Dioxide on SNU-100'-Ni
DOI: 10.1039/C2sc21253f
Adsorbate Carbon Dioxide: InChIKey CURLTUGMZLYLDI-UHFFFAOYSA-N
Temperature: 298 K
Tabular data in the source: 0
pressure (bar)	uptake (cm3(STP)/g)
0.0142004	1.65395
0.0263615	3.49101
0.0303841	5.3266
0.0445798	7.16404
0.0506464	8.63302
0.0648421	10.4705
0.0770032	12.3075
0.0830791	13.4095
0.0952356	15.4301
0.109427	17.451
0.158071	24.7993
0.212833	31.5982
0.261501	38.029
0.314252	43.9101
0.354847	47.7707
0.413716	53.1024
0.456364	56.2294
0.507131	60.0918
0.555874	63.5869
0.610734	66.5326
0.661525	69.4776
0.712316	72.4226
0.765161	74.634
0.811896	77.0278
0.86678	79.056
0.91759	81.2671
0.968399	83.4781
