Adsorption isotherm of Carbon Dioxide on SNU-100'
DOI: 10.1039/C2sc21253f
Adsorbate Carbon Dioxide: InChIKey CURLTUGMZLYLDI-UHFFFAOYSA-N
Temperature: 298 K
Tabular data in the source: 0
pressure (bar)	uptake (cm3(STP)/g)
0.0162117	2.57174
0.0750106	10.6558
0.0851464	12.1255
0.0952962	13.0448
0.113552	15.2499
0.162243	20.7633
0.210934	26.2767
0.263718	30.8734
0.312432	35.4694
0.363205	39.1483
0.413972	43.0107
0.464754	46.3227
0.515536	49.6346
0.566327	52.5796
0.617132	54.9741
0.667932	57.5521
0.714664	60.1294
0.767508	62.3408
0.818318	64.5519
0.869137	66.3959
0.919956	68.24
0.97077	70.2675
