Adsorption isotherm of Carbon Dioxide on SNU-100'-Co
DOI: 10.1039/C2sc21253f
Adsorbate Carbon Dioxide: InChIKey CURLTUGMZLYLDI-UHFFFAOYSA-N
Temperature: 298 K
Tabular data in the source: 0
pressure (bar)	uptake (cm3(STP)/g)
0.0607822	10.1027
0.0709087	11.9394
0.0790005	13.7758
0.0911663	15.4294
0.107378	18.0011
0.160087	25.5336
0.212815	32.3321
0.261487	38.5795
0.314238	44.4606
0.362948	49.24
0.405577	53.101
0.46446	57.8823
0.557894	64.1377
0.606646	67.2658
0.657437	70.2108
0.710263	73.1561
0.759029	75.7338
0.811878	77.7617
0.862687	79.9727
0.917571	82.001
0.966356	83.8447
