Adsorption isotherm of Carbon Dioxide on SNU-100'-Ca
DOI: 10.1039/C2sc21253f
Adsorbate Carbon Dioxide: InChIKey CURLTUGMZLYLDI-UHFFFAOYSA-N
Temperature: 298 K
Tabular data in the source: 0
pressure (bar)	uptake (cm3(STP)/g)
0.194606	28.2921
0.247366	33.8063
0.312306	40.4235
0.363051	45.2034
0.462565	52.3773
0.507253	55.3212
0.71045	65.8167
0.810039	70.0549
0.954362	75.4022
1.0113	76.6969
