Adsorption isotherm of Carbon Dioxide on SNU-100'-Li
DOI: 10.1039/C2sc21253f
Adsorbate Carbon Dioxide: InChIKey CURLTUGMZLYLDI-UHFFFAOYSA-N
Temperature: 298 K
Tabular data in the source: 0
pressure (bar)	uptake (cm3(STP)/g)
0.164208	23.516
0.202735	28.6606
0.26564	35.2775
0.30623	39.3215
0.354945	43.9175
0.560078	58.2666
0.610874	61.0281
0.659635	63.7892
0.7145	66.5514
0.76531	68.7624
0.814094	70.6061
0.862865	73.0003
0.917753	74.8451
0.966538	76.6888
