Adsorption isotherm of Carbon Dioxide on SNU-100'-Mg
DOI: 10.1039/C2sc21253f
Adsorbate Carbon Dioxide: InChIKey CURLTUGMZLYLDI-UHFFFAOYSA-N
Temperature: 298 K
Tabular data in the source: 0
pressure (bar)	uptake (cm3(STP)/g)
0.0405199	6.79633
0.0648655	9.55303
0.0709367	10.8385
0.0831165	11.9417
0.0973169	13.5956
0.107429	15.9828
0.162206	22.2312
0.212913	28.4789
0.265682	33.6261
0.314388	38.589
0.354982	42.4496
0.413865	47.2309
0.458548	50.3583
0.507295	53.6698
0.556042	56.9814
0.608872	59.7433
0.661698	62.6886
0.710464	65.2663
0.763308	67.4777
0.814122	69.5052
0.862902	71.5324
0.915746	73.7438
0.968609	75.2213
