Adsorption isotherm of Nitrogen on DAB-TFP COF
DOI: 10.1021/ja409421d
Article source: figure S22
Adsorbate Nitrogen: InChIKey IJGRMHOSHXDMSA-UHFFFAOYSA-N
Kind: experiment
Temperature: 77 K
Tabular data in the source: 0
pressure (bar)	uptake (cm3(STP)/g)
0	9.07781
0.001935	20.1729
0.002908	31.7723
0.003871	37.3199
0.007751	40.3458
0.023244	51.4409
0.055202	62.0317
0.073602	66.5706
0.099754	72.1182
0.125896	76.6571
0.150113	81.196
0.175292	84.7262
0.201444	88.2565
0.226623	90.7781
0.251803	94.8127
0.278917	97.8386
0.303124	99.8559
0.35252	103.89
0.403851	107.925
0.455172	111.96
0.506503	114.986
0.556862	119.524
0.606258	123.055
0.658552	128.098
0.70891	133.141
0.760241	139.697
0.811573	149.28
0.861931	163.401
0.91229	188.617
0.962648	245.101
1.00138	366.138
0.048423	95.8213
0.100717	105.908
0.151076	111.96
0.240181	120.029
0.35252	125.072
0.435809	130.115
0.538461	138.184
0.639178	145.245
0.741841	156.34
0.846429	180.548
0.949091	262.248
