Adsorption isotherm of Nitrogen on DAAQ-TFP COF with DMA
DOI: 10.1021/ja409421d
Article source: figure 3
Adsorbate Nitrogen: InChIKey IJGRMHOSHXDMSA-UHFFFAOYSA-N
Kind: experiment
Temperature: 77 K
Tabular data in the source: 0
pressure (bar)	uptake (cm3(STP)/g)
0	90.7162
0.001804	124.138
0.001804	148.011
0.003607	178.249
0	203.714
0	240.318
0.001804	265.783
0.005421	297.613
0.00993	324.668
0.018056	351.724
0.028888	377.188
0.039719	401.061
0.048747	424.934
0.061383	451.989
0.075821	475.862
0.099298	507.692
0.128176	520.424
0.153457	526.79
0.176924	530.769
0.202194	534.748
0.228376	537.931
0.251843	539.523
0.276222	542.706
0.303296	544.297
0.328577	547.48
0.355651	549.072
0.373707	550.663
0.393567	550.663
0.469388	552.255
0.523546	553.846
0.588546	553.846
0.662564	553.05
0.715821	553.846
0.791642	553.846
0.844899	557.029
0.908085	563.395
1.00016	619.098
0.49557	555.438
0.597574	557.029
0.697764	557.029
0.801572	561.804
0.899067	577.719
