Adsorption isotherm of Nitrogen on DAB-TFP COF with Dioxane
DOI: 10.1021/ja409421d
Article source: figure 3
Adsorbate Nitrogen: InChIKey IJGRMHOSHXDMSA-UHFFFAOYSA-N
Kind: experiment
Temperature: 77 K
Tabular data in the source: 0
pressure (bar)	uptake (cm3(STP)/g)
0	23.8727
0.001804	47.7454
0.001804	66.8435
0.014439	82.7586
0.037916	90.7162
0.063186	95.4907
0.092074	100.265
0.126373	101.857
0.153457	106.631
0.178727	106.631
0.204008	106.631
0.231082	109.814
0.254549	111.406
0.279829	111.406
0.303296	111.406
0.328577	112.997
0.357454	112.997
0.377314	114.589
0.397174	114.589
0.463977	119.363
0.523546	122.546
0.589448	124.934
0.653536	127.321
0.718526	130.504
0.783516	136.87
0.844899	144.828
0.909899	163.926
1.00378	316.711
0.052355	109.814
0.101102	119.363
0.20491	122.546
0.301493	125.729
0.403496	127.321
0.498276	130.504
0.598476	134.483
0.70047	140.053
0.8106	151.194
0.911702	190.981
