Adsorption isotherm of Nitrogen on DAAQ-TFP COF
DOI: 10.1021/ja409421d
Article source: figure S19
Adsorbate Nitrogen: InChIKey IJGRMHOSHXDMSA-UHFFFAOYSA-N
Kind: experiment
Temperature: 77 K
Tabular data in the source: 0
pressure (bar)	uptake (cm3(STP)/g)
0	8.07453
0	18.6335
0.002077	29.8137
0.006231	41.6149
0.020782	52.1739
0.047805	62.7329
0.070664	68.9441
0.101842	73.2919
0.126788	76.3975
0.151724	78.882
0.178747	80.7453
0.203694	81.9876
0.22863	83.5404
0.254609	84.7826
0.280589	85.7143
0.304492	86.646
0.328394	88.1988
0.353341	89.441
0.376199	90.0621
0.396981	90.6832
0.461414	91.9255
0.525846	93.1677
0.590279	94.7205
0.653678	96.8944
0.720188	99.3789
0.783577	103.106
0.848009	111.801
0.911408	129.503
1.00598	227.329
0.049882	66.4596
0.100808	76.7081
0.205771	84.4721
0.303458	89.441
0.404256	91.9255
0.507142	99.3789
0.598598	102.795
0.700439	108.696
0.802281	119.255
0.908287	145.342
