Adsorption isotherm of Nitrogen on DAAQ-TFP COF with DMA and Dioxane
DOI: 10.1021/ja409421d
Article source: figure 3
Adsorbate Nitrogen: InChIKey IJGRMHOSHXDMSA-UHFFFAOYSA-N
Kind: experiment
Temperature: 77 K
Tabular data in the source: 0
pressure (bar)	uptake (cm3(STP)/g)
0	19.0981
0.001804	42.9708
0.005421	60.4775
0.007224	76.3926
0.018056	92.3077
0.034299	107.427
0.052355	117.772
0.068607	127.321
0.086653	135.279
0.104709	141.645
0.126373	151.194
0.153457	157.56
0.178727	162.334
0.202194	165.517
0.227475	165.517
0.252745	170.292
0.278026	173.475
0.3051	176.658
0.353847	181.432
0.404398	183.024
0.454949	189.39
0.507304	194.164
0.557855	200.531
0.606592	203.714
0.653536	208.488
0.709498	216.446
0.758245	220.424
0.806993	225.995
0.859347	233.952
0.908085	246.684
0.959538	268.966
0.989327	295.225
0.048747	122.546
0.1002	150.398
0.149839	165.517
0.202194	170.292
0.252745	176.658
0.352044	183.024
0.455851	191.777
0.507304	197.347
0.556953	202.918
0.657143	213.263
0.708596	218.833
0.758245	225.995
0.806993	230.769
0.848516	241.91
0.90087	259.416
0.953225	281.698
