Adsorption isotherm of Hydrogen on Mg2-(dobdc)
DOI: 10.1021/Ja111411q
Adsorbate Hydrogen: InChIKey UFHFLCQGNIYNRP-UHFFFAOYSA-N
Temperature: 313 K
Tabular data in the source: 0
pressure (bar)	uptake (mmol/g)
9.46418	0.591854
19.0416	1.04256
28.4501	1.5496
37.8022	1.83129
