Adsorption isotherm of Carbon Dioxide on Be-BTB
DOI: 10.1021/Ja111411q
Adsorbate Carbon Dioxide: InChIKey CURLTUGMZLYLDI-UHFFFAOYSA-N
Temperature: 313 K
Tabular data in the source: 0
pressure (bar)	uptake (mmol/g)
0.844461	0.0508414
5.01347	0.760701
9.91488	1.72408
14.8726	2.73817
19.9994	3.75225
24.9571	4.77901
29.9149	5.81845
34.929	6.85788
39.8867	7.83394
