Adsorption isotherm of Carbon Dioxide on Mg2(dobdc)
DOI: 10.1021/Ja111411q
Adsorbate Carbon Dioxide: InChIKey CURLTUGMZLYLDI-UHFFFAOYSA-N
Temperature: 313 K
Tabular data in the source: 0
pressure (bar)	uptake (mmol/g)
0.788123	6.28199
1.01347	7.38059
1.63319	8.70453
3.04164	10.1693
4.67545	11.2116
6.75995	12.1693
9.57685	12.7327
13.0698	13.4088
17.1825	13.6904
22.5346	13.9721
27.1543	14.2257
31.436	14.1975
35.605	14.2538
39.774	14.2257
