Adsorption isotherm of Carbon Dioxide on Cu-BTTri
DOI: 10.1021/Ja111411q
Adsorbate Carbon Dioxide: InChIKey CURLTUGMZLYLDI-UHFFFAOYSA-N
Temperature: 313 K
Tabular data in the source: 0
pressure (bar)	uptake (mmol/g)
1.06981	0.0761935
5.01347	1.3945
9.85855	3.00436
14.929	4.3607
19.8304	5.41281
24.9571	6.40155
29.8585	7.23817
34.8726	7.94802
39.8867	8.5945
