Adsorption isotherm of Hydrogen on Cu-BTTri
DOI: 10.1021/ja111411q
Article source: Figure 1 (Bottom Left)
Adsorbate Hydrogen: InChIKey UFHFLCQGNIYNRP-UHFFFAOYSA-N
Kind: experiment
Temperature: 313 K
Tabular data in the source: 0
pressure (bar)	uptake (mmol/g)
1.15711	0
2.11864	0
2.88787	0
3.84941	0
4.42634	0
5.00489	0
5.77412	0
6.54335	0
7.31258	0
8.08181	0
9.04498	0
10.2005	0
11.3527	0
11.9312	0
13.279	0
14.4329	0
15.5883	0
16.7422	0
17.8977	0
19.0515	0
20.3993	0
21.5531	0
22.7086	0
23.8625	0
25.0179	0
26.1718	0
27.3272	0
28.675	0
29.6382	0
30.9844	0
32.1382	0
33.6783	0
35.6014	0
37.5261	0
39.2568	0
