Adsorption isotherm of Carbon Dioxide on MOF-177
DOI: 10.1021/ja111411q
Article source: Figure 1 (Top Left)
Adsorbate Carbon Dioxide: InChIKey CURLTUGMZLYLDI-UHFFFAOYSA-N
Kind: experiment
Temperature: 313 K
Tabular data in the source: 0
pressure (bar)	uptake (mmol/g)
1.16249	0.898876
2.32282	1.57303
3.293	2.47191
4.26318	3.37079
5.2312	4.04494
6.00908	4.94382
6.9771	5.61798
7.5605	6.29213
8.72515	7.41573
9.8898	8.53933
10.8621	9.66292
11.8345	10.7865
13.0013	12.1348
13.9758	13.4831
14.9503	14.8315
15.9248	16.1798
16.9015	17.7528
17.876	19.1011
18.8505	20.4494
20.0151	21.573
20.9918	23.1461
22.1564	24.2697
23.3232	25.618
24.4857	26.5169
25.6504	27.6404
26.8107	28.3146
28.1698	29.6629
29.5203	30.1124
30.8729	30.7865
32.2234	31.236
33.5782	32.1348
35.121	32.5843
36.4715	33.0337
38.0143	33.4831
39.3626	33.7079
