Adsorption isotherm of Carbon Dioxide on MOF-177
DOI: 10.1021/Ja111411q
Adsorbate Carbon Dioxide: InChIKey CURLTUGMZLYLDI-UHFFFAOYSA-N
Temperature: 313 K
Tabular data in the source: 0
pressure (bar)	uptake (mol/l)
1.12615	0.0691208
5.12615	0.236726
10.0276	0.571938
15.267	0.926867
19.9431	1.2818
25.4642	1.63673
30.0839	2.01137
35.0416	2.4156
39.9431	2.8494
