Adsorption isotherm of Carbon Dioxide on Co(BDP)
DOI: 10.1021/Ja111411q
Adsorbate Carbon Dioxide: InChIKey CURLTUGMZLYLDI-UHFFFAOYSA-N
Temperature: 313 K
Tabular data in the source: 0
pressure (bar)	uptake (mol/l)
1.06981	0.0691208
5.01347	0.138135
10.0276	0.552219
14.9853	1.38039
20.2247	2.40574
25.1825	3.32264
30.1966	4.0818
35.3233	4.63391
40.0557	4.98884
