Adsorption isotherm of Carbon Dioxide on Mg2(dobdc)
DOI: 10.1021/ja111411q
Article source: Figure 1 (Bottom Right)
Adsorbate Carbon Dioxide: InChIKey CURLTUGMZLYLDI-UHFFFAOYSA-N
Kind: experiment
Temperature: 313 K
Tabular data in the source: 0
pressure (bar)	uptake (mmol/g)
0.576923	0.576923
0.961538	7.4359
1.15385	8.20513
1.73077	8.71795
2.30769	9.35897
2.88462	10.1282
3.65385	10.8974
4.80769	11.2821
5.57692	11.6667
6.53846	12.1795
7.88462	12.4359
9.42308	12.6923
10.5769	12.9487
11.9231	13.2051
13.0769	13.3333
14.4231	13.5897
17.1154	13.7179
19.8077	13.8462
22.5	14.1026
25	14.1026
27.1154	14.2308
29.2308	14.2308
31.5385	14.2308
33.2692	14.359
35.5769	14.359
37.5	14.2308
39.8077	14.2308
