Adsorption isotherm of Hydrogen on Co(BDP)
DOI: 10.1021/ja111411q
Article source: Figure 1 (Top Right)
Adsorbate Hydrogen: InChIKey UFHFLCQGNIYNRP-UHFFFAOYSA-N
Kind: experiment
Temperature: 313 K
Tabular data in the source: 0
pressure (bar)	uptake (mmol/g)
1.92308	0.128205
3.84615	0.25641
5.76923	0.25641
7.69231	0.512821
10	0.641026
12.5	0.769231
14.8077	1.02564
17.3077	1.15385
19.8077	1.41026
22.1154	1.66667
24.6154	1.92308
27.1154	2.05128
29.6154	2.4359
31.9231	2.5641
34.4231	2.94872
36.9231	3.33333
39.2308	3.46154
