Adsorption isotherm of Carbon Dioxide on Co(BDP)
DOI: 10.1021/Ja111411q
Adsorbate Carbon Dioxide: InChIKey CURLTUGMZLYLDI-UHFFFAOYSA-N
Temperature: 313 K
Tabular data in the source: 0
pressure (bar)	uptake (mmol/g)
0.900799	0.0635175
5.01347	0.126898
10.0839	0.748025
14.929	1.88887
25.0698	4.51281
30.0276	5.5269
35.1543	6.32549
39.774	6.88324
