Adsorption isotherm of Carbon Dioxide on Carbon
DOI: 10.1021/Ja111411q
Adsorbate Carbon Dioxide: InChIKey CURLTUGMZLYLDI-UHFFFAOYSA-N
Temperature: 313 K
Tabular data in the source: 0
pressure (bar)	uptake (mmol/g)
1.23883	0.0508414
4.9008	1.01422
9.74587	1.90155
14.9853	2.62408
19.9431	3.20718
25.0698	3.68887
30.1402	4.0945
35.0416	4.47479
39.8867	4.80436
