Adsorption isotherm of Carbon Dioxide on Zeolite 13X
DOI: 10.1021/Ja111411q
Adsorbate Carbon Dioxide: InChIKey CURLTUGMZLYLDI-UHFFFAOYSA-N
Temperature: 313 K
Tabular data in the source: 0
pressure (bar)	uptake (mmol/g)
0.844461	0.0254893
4.84446	1.57197
9.97122	2.18042
14.8726	2.47197
19.9994	2.64943
25.0135	2.80155
29.8585	2.90295
35.098	2.96633
39.605	3.06774
