Adsorption isotherm of Carbon Dioxide on Cu-BTTri
DOI: 10.1021/Ja111411q
Adsorbate Carbon Dioxide: InChIKey CURLTUGMZLYLDI-UHFFFAOYSA-N
Temperature: 313 K
Tabular data in the source: 0
pressure (bar)	uptake (mol/l)
0.957137	0.07898
5.06981	1.29166
9.97122	2.6325
14.9853	3.79588
19.9431	4.76208
25.0135	5.59025
29.9149	6.29025
35.1543	6.91137
39.8867	7.45363
