Adsorption isotherm of Carbon Dioxide on Be-BTB
DOI: 10.1021/Ja111411q
Adsorbate Carbon Dioxide: InChIKey CURLTUGMZLYLDI-UHFFFAOYSA-N
Temperature: 313 K
Tabular data in the source: 0
pressure (bar)	uptake (mol/l)
1.18249	0.0494025
5.23883	0.345177
9.97122	0.749402
14.929	1.15363
20.2247	1.62687
30.1966	2.45504
35.2107	2.8494
40.0557	3.28321
