Adsorption isotherm of Carbon Dioxide on Mg2(dobdc)
DOI: 10.1021/Ja111411q
Adsorbate Carbon Dioxide: InChIKey CURLTUGMZLYLDI-UHFFFAOYSA-N
Temperature: 313 K
Tabular data in the source: 0
pressure (bar)	uptake (mmol/g)
1.06981	0.0635175
4.9008	1.93957
9.97122	3.16915
14.9853	4.01845
19.9994	4.69028
24.9008	5.29873
29.9149	5.74239
34.9853	6.13535
39.774	6.45225
