Adsorption isotherm of Carbon Dioxide on Cu-BTTri
DOI: 10.1021/Ja111411q
Adsorbate Carbon Dioxide: InChIKey CURLTUGMZLYLDI-UHFFFAOYSA-N
Temperature: 313 K
Tabular data in the source: 0
pressure (bar)	uptake (mmol/g)
0.788123	1.04256
1.85855	3.0989
3.04164	4.62002
4.22474	5.9158
5.68953	7.32425
7.32333	8.70453
9.01347	9.66228
11.436	11.1271
14.4783	12.3665
18.8726	13.6904
23.3797	14.5637
28.0557	15.3806
33.0135	16.0566
36.6191	16.62
39.1543	16.9581
