Adsorption isotherm of Carbon Dioxide on Co(BDP)
DOI: 10.1021/Ja111411q
Adsorbate Carbon Dioxide: InChIKey CURLTUGMZLYLDI-UHFFFAOYSA-N
Temperature: 313 K
Tabular data in the source: 0
pressure (bar)	uptake (mmol/g)
1.40784	0.197488
2.75995	0.620023
3.54869	1.46509
4.11207	2.81721
5.91488	4.78904
6.14024	7.26791
7.88671	8.42284
12.0557	10.2538
16.1684	11.6341
20.3374	12.8735
21.6332	13.8595
23.2107	14.5919
28.9633	15.5477
33.5922	16.2884
39.8259	16.6587
