Adsorption isotherm of Carbon Dioxide on Co(BDP)
DOI: 10.1021/ja111411q
Article source: Figure 1 (Top Right)
Adsorbate Carbon Dioxide: InChIKey CURLTUGMZLYLDI-UHFFFAOYSA-N
Kind: experiment
Temperature: 313 K
Tabular data in the source: 0
pressure (bar)	uptake (mmol/g)
1.16438	0
2.33123	0
3.31723	0
4.11743	0
4.89781	0
5.69801	0
6.13155	0
7.1126	0
7.89298	0
9.2605	0
10.6231	0
11.9856	0
13.3482	0
14.7083	0
16.0709	0
17.6217	0
18.9843	0
20.5401	0
21.9076	0
23.2751	0
24.8309	0
26.1885	0
27.7394	0
29.2877	0
31.0294	0
32.3894	0
33.9378	0
35.4837	0
37.0321	0
38.7737	0
40.1263	0
