Adsorption isotherm of Carbon Dioxide on MOF-177
DOI: 10.1021/Ja111411q
Adsorbate Carbon Dioxide: InChIKey CURLTUGMZLYLDI-UHFFFAOYSA-N
Temperature: 313 K
Tabular data in the source: 0
pressure (bar)	uptake (mmol/g)
1.06981	0.0761935
4.9008	0.469151
9.91488	1.29309
14.8726	2.07901
19.8867	2.8776
25.0135	3.71422
30.0276	4.57619
34.929	5.53957
39.774	6.61704
