Adsorption isotherm of Hydrogen on MOF-177
DOI: 10.1021/Ja111411q
Adsorbate Hydrogen: InChIKey UFHFLCQGNIYNRP-UHFFFAOYSA-N
Temperature: 313 K
Tabular data in the source: 0
pressure (bar)	uptake (mmol/g)
12.5628	0.718767
24.9008	1.6906
37.1825	2.62018
