Adsorption isotherm of Hydrogen on Mg2(dobdc)
DOI: 10.1021/ja111411q
Article source: Figure 1 (Bottom Right)
Adsorbate Hydrogen: InChIKey UFHFLCQGNIYNRP-UHFFFAOYSA-N
Kind: experiment
Temperature: 313 K
Tabular data in the source: 0
pressure (bar)	uptake (mmol/g)
9.42403	0.641659
18.9762	1.11232
28.3372	1.58379
37.8905	1.79876
