Adsorption isotherm of Carbon Dioxide on Carbon
DOI: 10.1021/Ja111411q
Adsorbate Carbon Dioxide: InChIKey CURLTUGMZLYLDI-UHFFFAOYSA-N
Temperature: 313 K
Tabular data in the source: 0
pressure (bar)	uptake (mol/l)
1.06981	0.0691208
4.9008	0.493064
9.97122	0.89729
15.1543	1.24236
20.2247	1.48884
25.0135	1.69588
30.0839	1.86349
35.1543	2.05081
39.9994	2.16912
