Adsorption isotherm of Carbon Dioxide on Zeolite 13X
DOI: 10.1021/Ja111411q
Adsorbate Carbon Dioxide: InChIKey CURLTUGMZLYLDI-UHFFFAOYSA-N
Temperature: 313 K
Tabular data in the source: 0
pressure (bar)	uptake (mol/l)
1.01347	0.108557
4.9008	1.15363
10.1966	1.56771
14.929	1.75504
20.2247	1.92264
25.1825	2.00152
30.0276	2.05081
35.098	2.12968
39.8867	2.17898
