Adsorption isotherm of Hydrogen on MOF-177
DOI: 10.1021/ja111411q
Article source: Figure 1 (Top Left)
Adsorbate Hydrogen: InChIKey UFHFLCQGNIYNRP-UHFFFAOYSA-N
Kind: experiment
Temperature: 313 K
Tabular data in the source: 0
pressure (bar)	uptake (mmol/g)
12.5	0.898876
24.8077	2.02247
37.3077	2.92135
