Adsorption isotherm of Hydrogen on Cu-BTTri
DOI: 10.1021/Ja111411q
Adsorbate Hydrogen: InChIKey UFHFLCQGNIYNRP-UHFFFAOYSA-N
Temperature: 313 K
Tabular data in the source: 0
pressure (bar)	uptake (mmol/g)
1.3515	0.0566429
3.267	0.112981
5.52052	0.169319
8.28108	0.281995
10.4219	0.394671
13.4078	0.507347
16.9571	0.732699
19.2107	0.873544
22.8163	1.01439
26.1402	1.29608
29.7459	1.52143
33.7459	1.77495
35.6614	1.85946
37.5769	1.85946
38.929	1.94397
