Adsorption isotherm of Hydrogen on Co(BDP)
DOI: 10.1021/Ja111411q
Adsorbate Hydrogen: InChIKey UFHFLCQGNIYNRP-UHFFFAOYSA-N
Temperature: 313 K
Tabular data in the source: 0
pressure (bar)	uptake (mmol/g)
2.05369	0.117933
5.88028	0.241372
7.79358	0.39567
12.4842	0.673406
17.2366	1.04372
20.014	1.38318
24.8898	1.84607
29.6422	2.33982
34.5797	2.95702
36.6782	3.14217
39.0852	3.29647
