Adsorption isotherm of Carbon Dioxide on MOF-177
DOI: 10.1021/Ja111411q
Adsorbate Carbon Dioxide: InChIKey CURLTUGMZLYLDI-UHFFFAOYSA-N
Temperature: 313 K
Tabular data in the source: 0
pressure (bar)	uptake (mmol/g)
1.12149	0.45591
3.52413	2.25789
6.04118	4.48891
8.78706	7.10607
11.8762	10.7529
13.9356	13.1985
15.7662	15.7298
18.7981	19.9345
22.116	23.9246
25.3767	27.1853
29.2095	29.9741
33.2711	31.8189
37.6759	33.1919
39.0489	33.4922
