Adsorption isotherm of Carbon Dioxide on Mg2(dobdc)
DOI: 10.1021/Ja111411q
Adsorbate Carbon Dioxide: InChIKey CURLTUGMZLYLDI-UHFFFAOYSA-N
Temperature: 313 K
Tabular data in the source: 0
pressure (bar)	uptake (mol/l)
1.01347	0.0888391
5.01347	1.86349
9.91488	2.90856
14.8726	3.70715
20.1121	4.34799
25.0135	4.85081
30.0276	5.29447
35.098	5.62968
39.8867	5.93532
