Adsorption isotherm of Carbon Dioxide on Cu-BTTri
DOI: 10.1021/ja111411q
Article source: Figure 1 (Bottom Left)
Adsorbate Carbon Dioxide: InChIKey CURLTUGMZLYLDI-UHFFFAOYSA-N
Kind: experiment
Temperature: 313 K
Tabular data in the source: 0
pressure (bar)	uptake (mmol/g)
0.591716	0
1.18179	0
1.77022	0
2.357	0
2.75148	0
3.52728	0
4.11243	0
4.50362	0
5.08711	0
5.47666	0
6.06016	0
6.64201	0
7.22387	0
7.80572	0
8.19527	0
8.77712	0
9.74523	0
10.7133	0
11.2952	0
12.2633	0
13.4221	0
14.3886	0
15.5473	0
16.7045	0
17.6709	0
18.8281	0
19.9852	0
21.1423	0
22.2995	0
23.455	0
24.6121	0
25.7676	0
26.9247	0
28.0802	0
29.2357	0
30.5868	0
31.7423	0
33.0901	0
34.2472	0
35.595	0
36.7521	0
38.0999	0
39.4477	0
