Adsorption isotherm of Carbon monoxide on Zn3(TCPB)2(H2O)2
DOI: 10.1039/C3dt50896j
Adsorbate Carbon monoxide: InChIKey UGFAIRIUMAVXCW-UHFFFAOYSA-N
Temperature: 273 K
Tabular data in the source: 0
pressure (bar)	uptake (mmol/g)
0.00427691	0.0127343
0.551902	0.0494401
0.798916	0.0704149
1.0203	0.0913897
