Adsorption isotherm of Methane on Zn3(TCPB)2(H2O)2
DOI: 10.1039/C3dt50896j
Adsorbate Methane: InChIKey VNWKTOKETHGBQD-UHFFFAOYSA-N
Temperature: 298 K
Tabular data in the source: 0
pressure (bar)	uptake (mmol/g)
0.00837887	0.00112343
0.143828	0.0247201
0.239952	0.0365184
0.41254	0.0548713
0.563281	0.0732243
0.711838	0.09551
0.884426	0.115174
0.995843	0.126972
