Adsorption isotherm of Carbon Dioxide on Zn3(TCPB)2(H2O)2
DOI: 10.1039/C3dt50896j
Adsorbate Carbon Dioxide: InChIKey CURLTUGMZLYLDI-UHFFFAOYSA-N
Temperature: 195 K
Tabular data in the source: 0
pressure (bar)	uptake (mmol/g)
0.00194659	0.130155
0.0112679	0.582424
0.0299104	1.03469
0.048553	1.38209
0.0741865	1.69671
0.118463	1.95889
0.17439	2.13587
0.258282	2.30629
0.358486	2.44394
0.542581	2.61436
0.668418	2.70612
0.789595	2.79789
0.910772	2.83721
0.976021	2.88965
1.0203	2.91587
