Adsorption isotherm of Water on Zn3(TCPB)2(H2O)2
DOI: 10.1039/C3dt50896j
Adsorbate Water: InChIKey XLYOFNOQVPJJNP-UHFFFAOYSA-N
Temperature: 298 K
Tabular data in the source: 0
pressure (bar)	uptake (mmol/g)
0.000332	2.58435
0.00156747	10.1877
0.0030776	16.4801
0.00493093	21.7238
0.00644106	25.9188
0.00753934	28.8028
0.00925539	33.7844
0.010491	37.1928
0.0120011	41.3877
0.0152273	47.418
0.0179729	52.1373
0.0194144	53.7104
0.0214051	59.4785
0.0225033	62.8869
0.0240821	65.7709
0.025249	68.9171
0.0266905	75.2096
0.0282006	78.3558
0.0295735	84.9104
0.0307404	116.11
