Adsorption isotherm of Nitrogen on Zn3(TCPB)2(H2O)2
DOI: 10.1039/C3dt50896j
Adsorbate Nitrogen: InChIKey IJGRMHOSHXDMSA-UHFFFAOYSA-N
Temperature: 77 K
Tabular data in the source: 0
pressure (bar)	uptake (mmol/g)
0.0135982	0.00936321
0.127784	0.0159178
0.283915	0.0257498
0.337513	0.0191951
0.402762	0.0159178
0.523938	0.00936321
0.68007	0.00608589
0.985342	0.00280858
1.01331	0.0290271
1.02263	0.0552456
1.03428	0.173229
