Adsorption isotherm of Methane on Zn3(TCPB)2(H2O)2
DOI: 10.1039/C3dt50896j
Adsorbate Methane: InChIKey VNWKTOKETHGBQD-UHFFFAOYSA-N
Temperature: 273 K
Tabular data in the source: 0
pressure (bar)	uptake (mmol/g)
0.00427691	0.0127343
0.267603	0.0940116
0.384119	0.128096
0.544911	0.164801
0.735998	0.204129
0.936405	0.240835
1.0203	0.246079
