Adsorption isotherm of Carbon Dioxide on Zn3(TCPB)2(H2O)2
DOI: 10.1039/C3dt50896j
Adsorbate Carbon Dioxide: InChIKey CURLTUGMZLYLDI-UHFFFAOYSA-N
Temperature: 298 K
Tabular data in the source: 0
pressure (bar)	uptake (mmol/g)
0.0159285	0.025281
0.127784	0.162928
0.269933	0.287466
0.426065	0.372676
0.565884	0.451331
0.726676	0.516878
0.819889	0.556205
0.962039	0.588979
1.02962	0.615197
