Adsorption isotherm of Nitrogen on Zn3(TCPB)2(H2O)2
DOI: 10.1039/C3dt50896j
Adsorbate Nitrogen: InChIKey IJGRMHOSHXDMSA-UHFFFAOYSA-N
Temperature: 298 K
Tabular data in the source: 0
pressure (bar)	uptake (mmol/g)
0.0236715	0.00243436
0.196259	0.00505621
0.60042	0.0102999
0.783932	0.0181655
0.928119	0.0194764
0.98492	0.0207873
