Adsorption isotherm of Carbon Dioxide on Zn3(TCPB)2(H2O)2
DOI: 10.1039/C3dt50896j
Adsorbate Carbon Dioxide: InChIKey CURLTUGMZLYLDI-UHFFFAOYSA-N
Temperature: 273 K
Tabular data in the source: 0
pressure (bar)	uptake (mmol/g)
0.00427691	0.0127343
0.0438924	0.167423
0.0881685	0.298516
0.141766	0.413877
0.202354	0.516129
0.311879	0.631491
0.435386	0.741608
0.577536	0.849104
0.710364	0.925138
0.840862	0.988062
1.0203	1.06147
