Adsorption isotherm of Nitrogen on Zn3(TCPB)2(H2O)2
DOI: 10.1039/C3dt50896j
Adsorbate Nitrogen: InChIKey IJGRMHOSHXDMSA-UHFFFAOYSA-N
Temperature: 273 K
Tabular data in the source: 0
pressure (bar)	uptake (mmol/g)
0.00660723	0.00486872
0.279255	0.0153561
0.46102	0.0284654
0.617151	0.0363309
0.850183	0.0415746
1.0203	0.0415746
