Adsorption isotherm of Carbon Dioxide on Zn3(TCPB)2(H2O)2
DOI: 10.1039/C3dt50896j
Adsorbate Carbon Dioxide: InChIKey CURLTUGMZLYLDI-UHFFFAOYSA-N
Temperature: 273 K
Tabular data in the source: 0
pressure (bar)	uptake (mmol/g)
0.00427691	0.0383903
0.0462227	0.182592
0.0904988	0.326794
0.197694	0.490659
0.351495	0.661079
0.514617	0.805281
0.635794	0.890491
0.791925	0.975701
0.992333	1.0478
1.02729	1.06091
