Adsorption isotherm of Hydrogen on Zn3(TCPB)2(H2O)2
DOI: 10.1039/C3dt50896j
Adsorbate Hydrogen: InChIKey UFHFLCQGNIYNRP-UHFFFAOYSA-N
Temperature: 77 K
Tabular data in the source: 0
pressure (bar)	uptake (mmol/g)
0.0205892	0.00608589
0.106811	0.0126405
0.232648	0.00936321
0.335182	0.0159178
0.454029	0.0191951
0.549572	0.0191951
0.652106	0.0290271
0.731337	0.0290271
0.819889	0.0323044
0.906111	0.038859
0.976021	0.0585229
1.00631	0.0618002
