Adsorption isotherm of Carbon Dioxide on Zn3(TCPB)2(H2O)2
DOI: 10.1039/C3dt50896j
Adsorbate Carbon Dioxide: InChIKey CURLTUGMZLYLDI-UHFFFAOYSA-N
Temperature: 298 K
Tabular data in the source: 0
pressure (bar)	uptake (mmol/g)
0.0149328	0.0155436
0.058626	0.0758461
0.106688	0.129594
0.172228	0.188586
0.250876	0.263308
0.312046	0.303947
0.47371	0.398334
0.611344	0.457325
0.729315	0.509762
0.827625	0.538602
0.88661	0.555644
0.956519	0.580552
0.989289	0.59235
