Adsorption isotherm of Hydrogen on Zn3(TCPB)2(H2O)2
DOI: 10.1039/C3dt50896j
Adsorbate Hydrogen: InChIKey UFHFLCQGNIYNRP-UHFFFAOYSA-N
Temperature: 273 K
Tabular data in the source: 0
pressure (bar)	uptake (mmol/g)
0.00660723	0.00486872
0.16973	0.00486872
0.307219	0.00486872
0.486653	0.00486872
0.640455	0.00486872
0.759301	0.00486872
0.908441	0.00224687
1.0203	0.00224687
