Adsorption isotherm of Hydrogen on Zn3(TCPB)2(H2O)2
DOI: 10.1039/C3dt50896j
Adsorbate Hydrogen: InChIKey UFHFLCQGNIYNRP-UHFFFAOYSA-N
Temperature: 298 K
Tabular data in the source: 0
pressure (bar)	uptake (mmol/g)
0.0149328	0.00112343
0.28583	0.00112343
0.497742	0.00243436
0.659406	0.00243436
0.82544	0.00243436
0.98492	0.00243436
