Adsorption isotherm of Carbon monoxide on Zn3(TCPB)2(H2O)2
DOI: 10.1039/C3dt50896j
Adsorbate Carbon monoxide: InChIKey UGFAIRIUMAVXCW-UHFFFAOYSA-N
Temperature: 298 K
Tabular data in the source: 0
pressure (bar)	uptake (mmol/g)
0.0105635	0.00112343
0.207183	0.0116108
0.362293	0.0116108
0.517404	0.0234091
0.788301	0.0299638
0.899718	0.0299638
0.982735	0.0325856
