Adsorption isotherm of Methane on Cu(1,3-BDC)(H2O)
DOI: 10.1039/C3ce40838h
Adsorbate Methane: InChIKey VNWKTOKETHGBQD-UHFFFAOYSA-N
Temperature: 298 K
Tabular data in the source: 0
pressure (bar)	uptake (cm3(STP)/g)
0.0824406	0.296296
0.22008	0.444444
0.440465	0.444444
0.60555	0.740741
0.825834	0.888889
1.01857	1.03704
1.98214	1.92593
3.99204	3.55556
6.00214	4.88889
8.01214	6.37037
10.0222	7.7037
