Adsorption isotherm of Nitrogen on Cu(1,3-BDC)(PY)2
DOI: 10.1039/C3ce40838h
Adsorbate Nitrogen: InChIKey IJGRMHOSHXDMSA-UHFFFAOYSA-N
Temperature: 298 K
Tabular data in the source: 0
pressure (bar)	uptake (cm3(STP)/g)
0.0829752	0.148148
0.221097	0.148148
0.387047	0.444444
0.580417	0.444444
0.801514	0.592593
0.994987	0.740741
1.49243	1.03704
2.0176	1.48148
3.97944	2.22222
6.02425	3.11111
8.01371	3.85185
10.0032	4.59259
