Adsorption isotherm of Carbon Dioxide on Cu(1,3-BDC)(H2O)
DOI: 10.1039/C3ce40838h
Adsorbate Carbon Dioxide: InChIKey CURLTUGMZLYLDI-UHFFFAOYSA-N
Temperature: 273 K
Tabular data in the source: 0
pressure (bar)	uptake (cm3(STP)/g)
0.0501304	5.375
0.097492	10.25
0.147803	13.375
0.198124	16.375
0.248505	18.625
0.298917	20.5
0.39701	23.25
0.497963	25.375
0.596138	27.125
0.697131	28.75
0.795365	29.75
0.896398	30.875
