Adsorption isotherm of Nitrogen on Cu(1,3-BDC)(PY)2
DOI: 10.1039/C3ce40838h
Adsorbate Nitrogen: InChIKey IJGRMHOSHXDMSA-UHFFFAOYSA-N
Temperature: 77 K
Tabular data in the source: 0
pressure (bar)	uptake (cm3(STP)/g)
0.00273224	4.27075
0.010929	5.55277
0.0300546	7.47652
0.0601093	8.01353
0.0846995	8.54997
0.101093	8.872
0.120219	9.08757
0.139344	9.51666
0.161202	9.83927
0.180328	10.1616
0.202186	10.2707
0.243169	10.8089
0.303279	11.3491
0.352459	11.9949
0.401639	12.534
0.453552	13.0733
0.5	13.6121
0.551913	13.9379
0.601093	14.3702
0.650273	14.6958
0.702186	15.1283
0.751366	15.4539
0.800546	15.7794
0.822404	15.9953
0.849727	16.105
0.874317	16.5346
0.904372	16.7514
0.92623	17.074
0.95082	17.6104
0.97541	18.5739
0.980874	19.3218
0.991803	20.4973
