Adsorption isotherm of Carbon Dioxide on Cu(1,3-BDC)(H2O)
DOI: 10.1039/C3ce40838h
Adsorbate Carbon Dioxide: InChIKey CURLTUGMZLYLDI-UHFFFAOYSA-N
Temperature: 298 K
Tabular data in the source: 0
pressure (bar)	uptake (cm3(STP)/g)
0.0539741	1.62963
0.216304	5.92593
0.406693	9.48148
0.597286	12.7407
0.816243	14.8148
1.00775	16.7407
1.99541	22.6667
3.9748	28.5926
5.98327	32.2963
7.99225	35.2593
10.0017	37.4815
