Adsorption isotherm of Nitrogen on Cu(1,3-BDC)(H2O)
DOI: 10.1039/C3ce40838h
Adsorbate Nitrogen: InChIKey IJGRMHOSHXDMSA-UHFFFAOYSA-N
Temperature: 77 K
Tabular data in the source: 0
pressure (bar)	uptake (cm3(STP)/g)
0.00198365	8.69565
0.0073577	10.9783
0.0294915	13.2609
0.0600559	15
0.0851348	15.6522
0.0990912	15.7609
0.118634	15.8696
0.138177	15.9783
0.15771	16.1957
0.177253	16.3043
0.196796	16.413
0.241478	16.5217
0.297324	16.7391
0.350387	16.8478
0.400656	16.9565
0.448132	17.0652
0.501194	17.1739
0.551463	17.2826
0.598929	17.5
0.649209	17.5
0.702271	17.6087
0.749747	17.7174
0.800016	17.8261
0.819559	17.9348
0.850275	18.0435
0.875395	18.2609
0.903307	18.4783
0.925634	18.6957
0.950723	19.2391
0.975781	20.1087
0.981317	20.6522
