Adsorption isotherm of Nitrogen on Cu(1,3-BDC)(H2O)
DOI: 10.1039/C3ce40838h
Adsorbate Nitrogen: InChIKey IJGRMHOSHXDMSA-UHFFFAOYSA-N
Temperature: 298 K
Tabular data in the source: 0
pressure (bar)	uptake (cm3(STP)/g)
0.0824406	0.296296
0.220182	0.296296
0.412917	0.444444
0.578206	0.444444
0.79849	0.592593
1.01877	0.740741
1.98276	1.03704
4.02081	1.77778
6.03153	2.22222
8.01469	2.66667
9.99796	2.96296
