Adsorption isotherm of Carbon Dioxide on Cu(1,3-BDC)(PY)2
DOI: 10.1039/C3ce40838h
Adsorbate Carbon Dioxide: InChIKey CURLTUGMZLYLDI-UHFFFAOYSA-N
Temperature: 298 K
Tabular data in the source: 0
pressure (bar)	uptake (cm3(STP)/g)
0.0562717	1.48148
0.0844076	2.22222
0.195826	3.55556
0.41815	5.48148
0.585124	7.25926
0.779415	8.59259
1.00123	9.77778
1.5001	12.1481
1.99887	14.3704
3.99222	20.7407
6.01207	25.4815
8.03161	29.7778
10.023	33.3333
