Adsorption isotherm of Methane on Cu(1,3-BDC)(PY)2
DOI: 10.1039/C3ce40838h
Adsorbate Methane: InChIKey VNWKTOKETHGBQD-UHFFFAOYSA-N
Temperature: 298 K
Tabular data in the source: 0
pressure (bar)	uptake (cm3(STP)/g)
0.0833845	0.740741
0.194189	1.18519
0.387866	1.62963
0.581747	2.37037
0.775425	2.81481
0.969102	3.25926
1.49478	4.44444
1.99263	5.33333
4.01166	8.88889
6.00246	11.5556
8.02067	13.9259
10.0387	16
