Adsorption isotherm of Carbon Dioxide on Cu(1,3-BDC)(PY)2
DOI: 10.1039/C3ce40838h
Adsorbate Carbon Dioxide: InChIKey CURLTUGMZLYLDI-UHFFFAOYSA-N
Temperature: 273 K
Tabular data in the source: 0
pressure (bar)	uptake (cm3(STP)/g)
0.0248619	1.59344
0.0497238	2.69565
0.0994475	4.53165
0.149171	5.87642
0.254144	8.44247
0.298343	9.05108
0.5	11.7281
0.698895	13.6686
0.903315	15.2399
