Adsorption isotherm of Hydrogen on Zeolite A1PO-5
DOI: 10.1134/s0036024414010129
Adsorbate Hydrogen: InChIKey UFHFLCQGNIYNRP-UHFFFAOYSA-N
Temperature: 77 K
Tabular data in the source: 0
pressure (bar)	uptake (cm3(STP)/g)
0.0055341	3.1116
0.016678	12.5505
0.0311797	25.4218
0.051945	40.8674
0.0797008	63.1776
0.107195	80.3393
0.161787	116.379
0.256545	175.587
0.380873	227.93
0.529413	289.712
0.624169	314.597
0.735884	342.914
0.839489	366.082
0.989742	394.399
