Adsorption isotherm of Hydrogen on Zeolite A1PO-8
DOI: 10.1134/s0036024414010129
Adsorbate Hydrogen: InChIKey UFHFLCQGNIYNRP-UHFFFAOYSA-N
Temperature: 77 K
Tabular data in the source: 0
pressure (bar)	uptake (cm3(STP)/g)
0.00731436	0.886492
0.0559342	5.31717
0.0995352	7.67758
0.160018	10.1834
0.208381	11.9514
0.259196	14.1628
0.30756	15.9308
0.363123	17.4019
0.418701	19.0209
0.522542	21.3724
0.623945	23.4284
0.679494	24.7516
0.734972	25.3351
0.788112	26.6586
0.836375	27.3911
0.942497	28.4109
1.02457	29.878
