Adsorption isotherm of Hydrogen on Zeolite A1PO-36
DOI: 10.1134/s0036024414010129
Adsorbate Hydrogen: InChIKey UFHFLCQGNIYNRP-UHFFFAOYSA-N
Temperature: 77 K
Tabular data in the source: 0
pressure (bar)	uptake (cm3(STP)/g)
0.00509675	5.68586
0.0100109	11.6925
0.0213504	21.1314
0.0306705	30.5703
0.0528074	51.1644
0.0710244	70.0423
0.0987238	99.2172
0.156546	137.831
0.200402	172.154
0.307483	229.646
0.413556	276.841
0.60395	339.481
0.723867	365.224
0.839489	388.392
0.989742	414.135
