Adsorption isotherm of Hydrogen on Zeolite A1PO4-TR
DOI: 10.1134/s0036024414010129
Adsorbate Hydrogen: InChIKey UFHFLCQGNIYNRP-UHFFFAOYSA-N
Temperature: 77 K
Tabular data in the source: 0
pressure (bar)	uptake (cm3(STP)/g)
4.98151e-05	1.68258e-05
0.000108647	4.51037e-05
0.000328616	0.000157058
0.00075369	0.00035127
0.00308288	0.0012993
0.00801832	0.00296502
0.015814	0.00520875
0.0319833	0.00952617
0.0584936	0.0139627
0.118302	0.0235611
0.227523	0.0338459
0.460158	0.050617
0.705702	0.0631583
1.05539	0.0698439
