Adsorption isotherm of Hydrogen on Zeolite A1PO-36
DOI: 10.1134/s0036024414010129
Adsorbate Hydrogen: InChIKey UFHFLCQGNIYNRP-UHFFFAOYSA-N
Temperature: 77 K
Tabular data in the source: 0
pressure (bar)	uptake (cm3(STP)/g)
0.00487624	0.590995
0.0487339	5.61409
0.0924917	9.6017
0.153131	13.7347
0.201651	17.1299
0.254919	19.7848
0.30093	22.1448
0.363765	24.0586
0.407351	26.2711
0.516055	29.0657
0.610286	31.7145
0.673035	32.7407
0.716508	33.7697
0.767209	34.7978
0.822716	35.6771
0.921624	36.8459
1.00609	38.1648
