Adsorption isotherm of Hydrogen on Zeolite A1PO-31
DOI: 10.1134/s0036024414010129
Adsorbate Hydrogen: InChIKey UFHFLCQGNIYNRP-UHFFFAOYSA-N
Temperature: 77 K
Tabular data in the source: 0
pressure (bar)	uptake (cm3(STP)/g)
3.6482e-05	2.25351
8.17455e-05	3.1116
0.000310221	2.25351
0.000998556	5.68586
0.00311008	23.7057
0.00526738	39.1512
0.0108699	69.1842
0.0203214	120.669
0.0316973	168.722
0.051945	240.801
0.077119	294.861
0.108975	356.643
0.161787	428.722
0.21055	477.633
0.328416	541.99
0.434497	580.603
0.556221	608.062
0.712046	636.379
1.02288	665.554
