Adsorption isotherm of Hydrogen on Zeolite A1PO-11
DOI: 10.1134/s0036024414010129
Adsorbate Hydrogen: InChIKey UFHFLCQGNIYNRP-UHFFFAOYSA-N
Temperature: 77 K
Tabular data in the source: 0
pressure (bar)	uptake (cm3(STP)/g)
0.0051614	3.54953
0.0200325	7.83727
0.0542375	12.7139
0.0931904	16.8501
0.156168	20.2432
0.211817	22.6018
0.267395	24.2208
0.363964	26.1296
0.419499	27.3048
0.520817	28.4733
0.626982	29.9368
0.682446	30.3724
0.730666	30.6611
0.783706	30.9492
0.83676	31.3851
0.940402	31.6656
1.02477	31.949
