Adsorption isotherm of Hydrogen on Zeolite A1PO-8
DOI: 10.1134/s0036024414010129
Adsorbate Hydrogen: InChIKey UFHFLCQGNIYNRP-UHFFFAOYSA-N
Temperature: 77 K
Tabular data in the source: 0
pressure (bar)	uptake (cm3(STP)/g)
0.00316171	4.82777
0.00732165	7.40203
0.0161378	13.4086
0.0264463	19.4152
0.0433397	29.7123
0.0643433	40.8674
0.105445	57.171
0.161787	71.7585
0.256545	101.791
0.356597	126.676
0.529413	160.141
0.645065	185.026
0.853426	215.059
1.05712	245.092
