Adsorption isotherm of Hydrogen on Zeolite A1PO-31
DOI: 10.1134/s0036024414010129
Adsorbate Hydrogen: InChIKey UFHFLCQGNIYNRP-UHFFFAOYSA-N
Temperature: 77 K
Tabular data in the source: 0
pressure (bar)	uptake (cm3(STP)/g)
0.00507585	2.66197
0.0198472	5.91422
0.0516568	10.9391
0.0905384	14.3357
0.155968	18.1722
0.21156	19.9391
0.262362	22.0026
0.320335	23.4733
0.412057	25.087
0.520631	26.5502
0.626768	27.7179
0.679808	28.0059
0.728057	28.5905
0.778687	28.8789
0.836503	28.7224
0.942583	29.2984
1.02211	29.4346
