Adsorption isotherm of Hydrogen on Zeolite A1PO-5
DOI: 10.1134/s0036024414010129
Adsorbate Hydrogen: InChIKey UFHFLCQGNIYNRP-UHFFFAOYSA-N
Temperature: 77 K
Tabular data in the source: 0
pressure (bar)	uptake (cm3(STP)/g)
0.00487624	0.590995
0.160502	15.2129
0.206599	18.4606
0.262362	22.0026
0.310924	25.8416
0.371421	28.4954
0.417375	30.2637
0.521458	35.13
0.627823	38.6645
0.676129	39.8408
0.729269	41.1643
0.779999	42.4882
0.830743	43.9599
0.936965	46.0152
1.01661	47.3348
