Adsorption isotherm of Hydrogen on Zeolite A1PO-11
DOI: 10.1134/s0036024414010129
Adsorbate Hydrogen: InChIKey UFHFLCQGNIYNRP-UHFFFAOYSA-N
Temperature: 77 K
Tabular data in the source: 0
pressure (bar)	uptake (cm3(STP)/g)
3.41567e-05	3.1116
0.00106654	5.68586
0.00305929	22.8476
0.00769239	52.0225
0.0158742	100.075
0.0255896	147.27
0.0433397	200.471
0.0632926	253.673
0.0837365	290.57
0.108975	322.32
0.159145	372.947
0.21055	412.419
0.323053	462.188
0.413556	494.795
0.613976	535.983
0.773146	555.719
1.07467	578.029
