Adsorption isotherm of Methane on Xtrusorb
DOI: 10.1021/acs.jced.6b00245
Article source: Figure 1a
Adsorbate Methane: InChIKey VNWKTOKETHGBQD-UHFFFAOYSA-N
Kind: experiment
Temperature: 303 K
Tabular data in the source: 0
pressure (bar)	uptake (mmol/g)
0.033539	0.028
0.536617	0.6615
0.982346	1.0556
1.33931	1.3468
2.01758	1.6971
2.65401	1.9783
3.95836	2.456
5.87361	2.9828
7.79706	3.3837
10.3631	3.8246
