Adsorption isotherm of Nitrogen on Zeolite CaX
DOI: 10.1021/acs.jced.6b00245
Article source: Figure 1f
Adsorbate Nitrogen: InChIKey IJGRMHOSHXDMSA-UHFFFAOYSA-N
Kind: experiment
Temperature: 303 K
Tabular data in the source: 0
pressure (bar)	uptake (mmol/g)
0.037794	0.02185
0.530335	0.55884
1.01447	0.75478
1.3538	0.84468
1.95588	0.9781
2.638	1.09609
3.92199	1.2737
5.82872	1.48561
7.73819	1.65395
10.287	1.83572
