Adsorption isotherm of Nitrogen on Zeolite 4A
DOI: 10.1021/acs.jced.6b00245
Article source: Figure 1f
Adsorbate Nitrogen: InChIKey IJGRMHOSHXDMSA-UHFFFAOYSA-N
Kind: experiment
Temperature: 303 K
Tabular data in the source: 0
pressure (bar)	uptake (mmol/g)
0.035362	0.0125
0.52081	0.09284
0.958433	0.16421
1.94351	0.29823
2.64539	0.43981
3.89889	0.5031
5.80967	0.68389
7.74255	0.83226
10.2875	0.92554
