Adsorption isotherm of Nitrogen, Methane on Xtrusorb A754
DOI: 10.1021/acs.jced.6b00245
Article source: Figure 5B
Adsorbate Nitrogen: InChIKey IJGRMHOSHXDMSA-UHFFFAOYSA-N
Adsorbate Methane: InChIKey VNWKTOKETHGBQD-UHFFFAOYSA-N
Kind: experiment
Temperature: 303 K
Tabular data in the source: 0
pressure (bar)	Nitrogen fraction	Nitrogen uptake (mmol/g)	Methane fraction	Methane uptake (mmol/g)	total uptake (mmol/g)
4.053	0.91225	0.97066	0.08775	0.36228	
4.053	0.7982	0.84179	0.2018	0.76899	
4.053	0.59632	0.62799	0.40368	1.37396	
4.053	0.40061	0.43118	0.59939	1.8205	
4.053	0.19878	0.2317	0.80122	2.25347	
4.053	0.10793	0.13422	0.89207	2.45129	
4.053	0.00031	0.03841	0.99969	2.69896	
