Adsorption isotherm of Methane on F400
DOI: 10.1021/acs.jced.6b00245
Article source: Figure 1a
Adsorbate Methane: InChIKey VNWKTOKETHGBQD-UHFFFAOYSA-N
Kind: experiment
Temperature: 303 K
Tabular data in the source: 0
pressure (bar)	uptake (mmol/g)
0.038503	0.0173
0.539758	0.5208
0.970288	0.8194
1.34712	1.0398
2.03207	1.3292
2.63992	1.5421
3.88885	1.8972
5.89772	2.3556
7.81266	2.6931
10.3518	3.0468
