Adsorption isotherm of Nitrogen on Grace B-127
DOI: 10.1021/acs.jced.6b00245
Article source: Figure 1d
Adsorbate Nitrogen: InChIKey IJGRMHOSHXDMSA-UHFFFAOYSA-N
Kind: experiment
Temperature: 303 K
Tabular data in the source: 0
pressure (bar)	uptake (mmol/g)
0.06039	0.00513
0.528613	0.02632
0.983359	0.04185
1.33263	0.05412
1.9426	0.08156
2.63404	0.10843
3.89747	0.15994
5.7887	0.23052
7.71651	0.29659
10.2652	0.37808
