Adsorption isotherm of Nitrogen, Methane on SG-B127
DOI: 10.1021/acs.jced.6b00245
Article source: Figure 5D
Adsorbate Nitrogen: InChIKey IJGRMHOSHXDMSA-UHFFFAOYSA-N
Adsorbate Methane: InChIKey VNWKTOKETHGBQD-UHFFFAOYSA-N
Kind: experiment
Temperature: 303 K
Tabular data in the source: 0
pressure (bar)	Nitrogen fraction	Nitrogen uptake (mmol/g)	Methane fraction	Methane uptake (mmol/g)	total uptake (mmol/g)
4.053	0.937335	0.15839	0.062665	0.02371	
4.053	0.79812	0.13558	0.20188	0.08025	
4.053	0.59903	0.10299	0.40097	0.16183	
4.053	0.40094	0.07136	0.59906	0.24675	
4.053	0.20203	0.04152	0.79797	0.34175	
4.053	0.00652	0.00853	0.99348	0.44785	
