Adsorption isotherm of Nitrogen on 13X-Nitroxy
DOI: 10.1021/acs.jced.6b00245
Article source: Figure 1f
Adsorbate Nitrogen: InChIKey IJGRMHOSHXDMSA-UHFFFAOYSA-N
Kind: experiment
Temperature: 303 K
Tabular data in the source: 0
pressure (bar)	uptake (mmol/g)
0.041138	0.01785
0.526181	0.51704
0.996734	0.83879
2.00917	1.17027
2.62209	1.34507
3.88227	1.58711
5.86479	1.84582
7.78713	2.03997
10.3272	2.24174
