Adsorption isotherm of Nitrogen, Methane on Xtrusorb A754
DOI: 10.1021/acs.jced.6b00245
Article source: Figure 5A
Adsorbate Nitrogen: InChIKey IJGRMHOSHXDMSA-UHFFFAOYSA-N
Adsorbate Methane: InChIKey VNWKTOKETHGBQD-UHFFFAOYSA-N
Kind: experiment
Temperature: 303 K
Tabular data in the source: 0
pressure (bar)	Nitrogen fraction	Nitrogen uptake (mmol/g)	Methane fraction	Methane uptake (mmol/g)	total uptake (mmol/g)
1.01325	0.91289	0.30577	0.08711	0.11576	
1.01325	0.80048	0.27276	0.19952	0.2695	
1.01325	0.60409	0.21055	0.39591	0.49096	
1.01325	0.404715	0.1415	0.595285	0.69876	
1.01325	0.20227	0.06791	0.79773	0.88534	
1.01325	0.09258	0.02883	0.90742	0.97022	
