Adsorption isotherm of Nitrogen, Methane on Nitroxy Pro
DOI: 10.1021/acs.jced.6b00245
Article source: Figure 5E
Adsorbate Nitrogen: InChIKey IJGRMHOSHXDMSA-UHFFFAOYSA-N
Adsorbate Methane: InChIKey VNWKTOKETHGBQD-UHFFFAOYSA-N
Kind: experiment
Temperature: 303 K
Tabular data in the source: 0
pressure (bar)	Nitrogen fraction	Nitrogen uptake (mmol/g)	Methane fraction	Methane uptake (mmol/g)	total uptake (mmol/g)
1.01325	0.91145	0.68967	0.08855	0.08899	
1.01325	0.80057	0.56145	0.19943	0.1892	
1.01325	0.59938	0.37468	0.40062	0.33303	
1.01325	0.39961	0.22899	0.60039	0.47591	
1.01325	0.20084	0.11354	0.79916	0.64848	
1.01325	0.00431	0.01637	0.99569	0.88883	
