Adsorption isotherm of Methane on Grace B-127
DOI: 10.1021/acs.jced.6b00245
Article source: Figure 1c
Adsorbate Methane: InChIKey VNWKTOKETHGBQD-UHFFFAOYSA-N
Kind: experiment
Temperature: 303 K
Tabular data in the source: 0
pressure (bar)	uptake (mmol/g)
0.035261	0.00393
0.519899	0.05628
1.01528	0.11061
1.34246	0.14038
2.04139	0.20909
2.65836	0.26078
3.93263	0.36529
5.93461	0.51378
7.85076	0.64196
10.4105	0.79317
