Adsorption isotherm of Nitrogen on Silicate
DOI: 10.1021/acs.jced.6b00245
Article source: Figure 1f
Adsorbate Nitrogen: InChIKey IJGRMHOSHXDMSA-UHFFFAOYSA-N
Kind: experiment
Temperature: 303 K
Tabular data in the source: 0
pressure (bar)	uptake (mmol/g)
0.051169	0.01119
1.32736	0.19813
1.94291	0.26354
2.63557	0.3362
3.90922	0.44842
5.82153	0.58742
7.71306	0.7046
10.2675	0.81924
