Adsorption isotherm of Nitrogen on BPL Carbon
DOI: 10.1021/acs.jced.6b00245
Article source: Figure 1a
Adsorbate Nitrogen: InChIKey IJGRMHOSHXDMSA-UHFFFAOYSA-N
Kind: experiment
Temperature: 303 K
Tabular data in the source: 0
pressure (bar)	uptake (mmol/g)
0.034451	0.0137
0.556578	0.1822
0.995822	0.3144
1.35228	0.4143
1.98182	0.5488
2.71065	0.6688
3.85805	0.8128
5.81129	1.0655
7.7005	1.2762
10.2243	1.502
