Adsorption isotherm of Nitrogen, Methane on SG-B127
DOI: 10.1021/acs.jced.6b00245
Article source: Figure 5C
Adsorbate Nitrogen: InChIKey IJGRMHOSHXDMSA-UHFFFAOYSA-N
Adsorbate Methane: InChIKey VNWKTOKETHGBQD-UHFFFAOYSA-N
Kind: experiment
Temperature: 303 K
Tabular data in the source: 0
pressure (bar)	Nitrogen fraction	Nitrogen uptake (mmol/g)	Methane fraction	Methane uptake (mmol/g)	total uptake (mmol/g)
1.01325	0.93221	0.42117	0.06779	0.07984	
1.01325	0.799385	0.36009	0.200615	0.21674	
1.01325	0.600685	0.2696	0.399315	0.45163	
1.01325	0.401635	0.19048	0.598365	0.69452	
1.01325	0.19658	0.10474	0.80342	0.99045	
1.01325	0.001125	0.03919	0.998875	1.34187	
