Adsorption isotherm of Nitrogen on Xtrusorb
DOI: 10.1021/acs.jced.6b00245
Article source: Figure 1a
Adsorbate Nitrogen: InChIKey IJGRMHOSHXDMSA-UHFFFAOYSA-N
Kind: experiment
Temperature: 303 K
Tabular data in the source: 0
pressure (bar)	uptake (mmol/g)
0.049953	0.0137
0.551715	0.2016
1.00494	0.3475
1.34762	0.445
1.9961	0.5884
2.62918	0.7237
3.87234	0.9613
5.80592	1.2713
7.70779	1.5232
10.2462	1.8143
