Adsorption isotherm of Methane on BPL Carbon
DOI: 10.1021/acs.jced.6b00245
Article source: Figure 1a
Adsorbate Methane: InChIKey VNWKTOKETHGBQD-UHFFFAOYSA-N
Kind: experiment
Temperature: 303 K
Tabular data in the source: 0
pressure (bar)	uptake (mmol/g)
0.038503	0.0197
0.588496	0.6491
0.965323	0.8515
1.34053	1.0859
2.02711	1.3794
2.64164	1.617
3.89574	2.0091
5.8963	2.5169
7.79959	2.8907
10.3488	3.2904
