Adsorption isotherm of Methane on AA-300
DOI: 10.1021/acs.jced.6b00245
Article source: Figure 1c
Adsorbate Methane: InChIKey VNWKTOKETHGBQD-UHFFFAOYSA-N
Kind: experiment
Temperature: 303 K
Tabular data in the source: 0
pressure (bar)	uptake (mmol/g)
0.035261	0.00442
0.490008	0.02042
0.989641	0.03215
1.3385	0.0362
2.02072	0.06102
2.64833	0.08092
3.88439	0.1209
5.90482	0.17914
7.82482	0.22706
10.3556	0.28441
