Adsorption isotherm of Nitrogen, Methane on Nitroxy Pro
DOI: 10.1021/acs.jced.6b00245
Article source: Figure 5F
Adsorbate Nitrogen: InChIKey IJGRMHOSHXDMSA-UHFFFAOYSA-N
Adsorbate Methane: InChIKey VNWKTOKETHGBQD-UHFFFAOYSA-N
Kind: experiment
Temperature: 303 K
Tabular data in the source: 0
pressure (bar)	Nitrogen fraction	Nitrogen uptake (mmol/g)	Methane fraction	Methane uptake (mmol/g)	total uptake (mmol/g)
4.053	0.94023	1.55458	0.05977	0.13234	
4.053	0.798505	1.32885	0.201495	0.43397	
4.053	0.600035	0.99923	0.399965	0.83068	
4.053	0.40183	0.66242	0.59817	1.21216	
4.053	0.197785	0.33339	0.802215	1.62045	
4.053	0.003915	0.05409	0.996085	2.05345	
