Adsorption isotherm of Nitrogen on AA-300
DOI: 10.1021/acs.jced.6b00245
Article source: Figure 1d
Adsorbate Nitrogen: InChIKey IJGRMHOSHXDMSA-UHFFFAOYSA-N
Kind: experiment
Temperature: 303 K
Tabular data in the source: 0
pressure (bar)	uptake (mmol/g)
0.046508	0.0053
0.508753	0.00933
1.00393	0.01267
1.35715	0.01461
1.94726	0.02455
2.62422	0.02977
3.91196	0.04859
5.81605	0.07067
7.73231	0.09091
10.2702	0.11641
