Adsorption isotherm of Nitrogen on F400
DOI: 10.1021/acs.jced.6b00245
Article source: Figure 1a
Adsorbate Nitrogen: InChIKey IJGRMHOSHXDMSA-UHFFFAOYSA-N
Kind: experiment
Temperature: 303 K
Tabular data in the source: 0
pressure (bar)	uptake (mmol/g)
0.034552	0.0194
0.530234	0.1386
0.996531	0.2506
1.35097	0.328
1.94422	0.4464
2.64387	0.5663
3.86079	0.7676
5.79528	1.0259
7.70333	1.2374
10.2462	1.4802
