Adsorption isotherm of Nitrogen on Zeolite 5A
DOI: 10.1021/acs.jced.6b00245
Article source: Figure 1f
Adsorbate Nitrogen: InChIKey IJGRMHOSHXDMSA-UHFFFAOYSA-N
Kind: experiment
Temperature: 303 K
Tabular data in the source: 0
pressure (bar)	uptake (mmol/g)
0.037693	0.01695
0.520101	0.24535
0.981738	0.38835
1.33597	0.48182
1.95486	0.61038
2.64945	0.72928
3.86545	0.90634
5.81423	1.1192
7.73373	1.28267
10.2721	1.45019
