Adsorption isotherm of Sulfur dioxide on IRMOF-9
DOI: 10.1016/j.inoche.2014.06.003
Adsorbate Sulfur dioxide: InChIKey RAHZWNYVWXNFOC-UHFFFAOYSA-N
Temperature: 298 K
Tabular data in the source: 0
pressure (bar)	uptake (mmol/g)
0.0019587	0.317919
0.0656273	0.679191
0.174447	1.12717
0.283261	1.56069
0.390239	2.00867
