Adsorption isotherm of Sulfur dioxide on IRMOF-1
DOI: 10.1016/j.inoche.2014.06.003
Adsorbate Sulfur dioxide: InChIKey RAHZWNYVWXNFOC-UHFFFAOYSA-N
Temperature: 298 K
Tabular data in the source: 0
pressure (bar)	uptake (mmol/g)
0.486968	1.275
0.968523	22.8579
2.44844	25.0635
4.79248	25.904
7.2629	25.8937
