Adsorption isotherm of Sulfur dioxide on ZIF-8
DOI: 10.1016/j.inoche.2014.06.003
Adsorbate Sulfur dioxide: InChIKey RAHZWNYVWXNFOC-UHFFFAOYSA-N
Temperature: 298 K
Tabular data in the source: 0
pressure (bar)	uptake (mmol/g)
0.000960722	0.108382
0.0654887	0.303468
0.173374	0.715318
0.282205	1.1922
0.390181	1.84971
