Adsorption isotherm of Sulfur dioxide on CuBTC
DOI: 10.1016/j.inoche.2014.06.003
Adsorbate Sulfur dioxide: InChIKey RAHZWNYVWXNFOC-UHFFFAOYSA-N
Temperature: 298 K
Tabular data in the source: 0
pressure (bar)	uptake (mmol/g)
0.240957	8.32103
0.486968	13.1036
0.738006	13.6075
0.984147	14.2861
2.44844	15.2921
4.94812	15.7889
7.2629	15.7794
