Adsorption isotherm of Sulfur dioxide on CuBTC
DOI: 10.1016/j.inoche.2014.06.003
Adsorbate Sulfur dioxide: InChIKey RAHZWNYVWXNFOC-UHFFFAOYSA-N
Temperature: 298 K
Tabular data in the source: 0
pressure (bar)	uptake (mmol/g)
0.00195338	0.303468
0.0655898	0.578035
0.175277	0.881503
0.283112	1.15607
0.390943	1.42341
