Adsorption isotherm of Sulfur dioxide on NiAlO
DOI: 10.1016/j.inoche.2014.06.003
Adsorbate Sulfur dioxide: InChIKey RAHZWNYVWXNFOC-UHFFFAOYSA-N
Temperature: 298 K
Tabular data in the source: 0
pressure (bar)	uptake (mmol/g)
0.00200394	0.440751
0.0112146	0.447977
0.0204253	0.455202
0.0287179	0.469653
0.0379259	0.469653
0.0554291	0.491329
0.0646422	0.50578
0.0729324	0.513006
0.0821428	0.520231
0.0913563	0.534682
0.0996461	0.541908
0.108857	0.549133
0.11807	0.563584
0.12636	0.570809
0.135571	0.578035
0.140178	0.58526
0.149388	0.592486
0.158599	0.599711
0.166889	0.606936
0.176097	0.606936
0.185307	0.614162
0.194518	0.621387
0.203726	0.621387
0.212937	0.628613
0.222145	0.628613
0.230434	0.635838
0.239643	0.635838
0.248851	0.635838
0.258059	0.635838
0.267269	0.643064
0.276477	0.643064
0.285686	0.643064
0.294894	0.643064
0.304102	0.643064
0.313312	0.650289
0.32252	0.650289
0.331728	0.650289
0.340936	0.650289
0.350144	0.650289
0.359352	0.650289
0.368563	0.657514
0.377771	0.657514
0.386979	0.657514
