Adsorption isotherm of Sulfur dioxide on IRMOF-9
DOI: 10.1016/j.inoche.2014.06.003
Adsorbate Sulfur dioxide: InChIKey RAHZWNYVWXNFOC-UHFFFAOYSA-N
Temperature: 298 K
Tabular data in the source: 0
pressure (bar)	uptake (mmol/g)
0.0486968	1.33214
0.244844	5.92063
0.486968	17.5607
0.72629	18.5794
0.968523	19.0865
2.40957	20.4353
4.86968	20.9321
7.2629	20.9222
9.68523	20.9151
