Adsorption isotherm of Sulfur dioxide on IRMOF-15
DOI: 10.1016/j.inoche.2014.06.003
Adsorbate Sulfur dioxide: InChIKey RAHZWNYVWXNFOC-UHFFFAOYSA-N
Temperature: 298 K
Tabular data in the source: 0
pressure (bar)	uptake (mmol/g)
0.0486968	0.303571
0.072629	0.293651
0.0984147	0.45754
0.244844	0.949206
0.486968	2.475
0.72629	33.6651
0.968523	35.2008
2.40957	38.4353
4.86968	39.7893
7.38006	39.779
9.68523	39.9437
