Adsorption isotherm of Sulfur dioxide on ZIF-8
DOI: 10.1016/j.inoche.2014.06.003
Adsorbate Sulfur dioxide: InChIKey RAHZWNYVWXNFOC-UHFFFAOYSA-N
Temperature: 298 K
Tabular data in the source: 0
pressure (bar)	uptake (mmol/g)
0.0486968	0.817857
0.0749894	1.32143
0.0968523	1.82937
0.240957	5.92103
0.494812	7.10317
0.72629	7.77937
0.953169	7.94405
2.40957	8.60675
4.94812	8.76032
7.2629	8.92222
10	8.91429
