Adsorption isotherm of Sulfur dioxide on IRMOF-10
DOI: 10.1016/j.inoche.2014.06.003
Adsorbate Sulfur dioxide: InChIKey RAHZWNYVWXNFOC-UHFFFAOYSA-N
Temperature: 298 K
Tabular data in the source: 0
pressure (bar)	uptake (mmol/g)
0.240957	0.778175
0.479248	1.61825
0.714776	2.12262
0.938037	3.14444
4.94812	53.1603
7.2629	53.3222
10	53.3143
