Adsorption isotherm of Sulfur dioxide on IRMOF-8
DOI: 10.1016/j.inoche.2014.06.003
Adsorbate Sulfur dioxide: InChIKey RAHZWNYVWXNFOC-UHFFFAOYSA-N
Temperature: 298 K
Tabular data in the source: 0
pressure (bar)	uptake (mmol/g)
0.000931448	0.0289017
0.0654036	0.0722543
0.174087	0.151734
0.281845	0.216763
0.391443	0.281792
