Adsorption isotherm of Sulfur dioxide on IRMOF-8
DOI: 10.1016/j.inoche.2014.06.003
Adsorbate Sulfur dioxide: InChIKey RAHZWNYVWXNFOC-UHFFFAOYSA-N
Temperature: 298 K
Tabular data in the source: 0
pressure (bar)	uptake (mmol/g)
0.244844	1.12063
0.471639	1.61865
0.738006	3.49325
0.968523	32.6294
2.44844	35.8635
4.79248	37.7325
7.38006	36.8647
9.68523	37.0294
