Adsorption isotherm of Sulfur dioxide on MOF-177
DOI: 10.1016/j.inoche.2014.06.003
Adsorbate Sulfur dioxide: InChIKey RAHZWNYVWXNFOC-UHFFFAOYSA-N
Temperature: 298 K
Tabular data in the source: 0
pressure (bar)	uptake (mmol/g)
0.000942091	0.0578035
0.0663484	0.137283
0.173204	0.25289
0.281912	0.397399
0.389693	0.527457
