Adsorption isotherm of Sulfur dioxide on MOF-177
DOI: 10.1016/j.inoche.2014.06.003
Adsorbate Sulfur dioxide: InChIKey RAHZWNYVWXNFOC-UHFFFAOYSA-N
Temperature: 298 K
Tabular data in the source: 0
pressure (bar)	uptake (mmol/g)
0.244844	1.63492
0.486968	3.84643
0.72629	32.2937
0.968523	34.1722
2.40957	37.2353
4.94812	38.4175
7.2629	38.4079
9.84147	38.4004
