Adsorption isotherm of Sulfur dioxide on IRMOF-15
DOI: 10.1016/j.inoche.2014.06.003
Adsorbate Sulfur dioxide: InChIKey RAHZWNYVWXNFOC-UHFFFAOYSA-N
Temperature: 298 K
Tabular data in the source: 0
pressure (bar)	uptake (mmol/g)
0.000931448	0.0289017
0.0654114	0.0939306
0.173183	0.195087
0.281875	0.296243
0.391486	0.390173
