Adsorption isotherm of Sulfur dioxide on MOF-505
DOI: 10.1016/j.inoche.2014.06.003
Adsorbate Sulfur dioxide: InChIKey RAHZWNYVWXNFOC-UHFFFAOYSA-N
Temperature: 298 K
Tabular data in the source: 0
pressure (bar)	uptake (mmol/g)
0.00984147	0.686111
0.0244844	1.34921
0.0486968	7.16071
0.072629	9.72222
0.0968523	10.4008
0.240957	11.7496
0.479248	12.4183
0.72629	12.7508
0.984147	12.7433
2.40957	13.7496
4.86968	13.9036
7.49894	13.8929
10	13.8857
