Adsorption isotherm of Sulfur dioxide on IRMOF-1
DOI: 10.1016/j.inoche.2014.06.003
Adsorbate Sulfur dioxide: InChIKey RAHZWNYVWXNFOC-UHFFFAOYSA-N
Temperature: 298 K
Tabular data in the source: 0
pressure (bar)	uptake (mmol/g)
0.000931448	0.0289017
0.0653957	0.050578
0.173148	0.101156
0.282742	0.151734
0.391412	0.195087
